
 OpenBabel03272501553D

 23 24  0  0  0  0  0  0  0  0999 V2000
   34.8500   28.2720   49.5330 C   0  0  0  0  0  0  0  0  0  0  0  0
   34.0260   28.5410   50.2560 H   0  0  0  0  0  0  0  0  0  0  0  0
   35.0960   27.2210   49.7220 H   0  0  0  0  0  0  0  0  0  0  0  0
   37.3670   30.2680   51.3950 C   0  0  0  0  0  0  0  0  0  0  0  0
   38.1350   30.8140   50.3650 C   0  0  0  0  0  0  0  0  0  0  0  0
   37.7980   30.5040   49.0300 C   0  0  0  0  0  0  0  0  0  0  0  0
   36.7350   29.6840   48.8540 N   0  0  0  0  0  0  0  0  0  0  0  0
   36.0070   29.1690   49.8720 C   0  0  0  0  0  0  0  0  0  0  0  0
   36.3280   29.4640   51.1290 N   0  0  0  0  0  0  0  0  0  0  0  0
   37.6110   30.4970   52.4430 H   0  0  0  0  0  0  0  0  0  0  0  0
   38.9670   31.4570   50.5560 H   0  0  0  0  0  0  0  0  0  0  0  0
   38.3620   30.9020   48.2090 H   0  0  0  0  0  0  0  0  0  0  0  0
   34.4460   28.5190   48.1150 C   0  0  0  0  0  0  0  0  0  0  0  0
   34.7390   29.5580   47.8670 H   0  0  0  0  0  0  0  0  0  0  0  0
   35.0750   27.8190   47.4950 H   0  0  0  0  0  0  0  0  0  0  0  0
   33.0130   28.3910   47.8580 C   0  0  0  0  0  0  0  0  0  0  0  0
   32.2200   27.7560   48.7920 C   0  0  0  0  0  0  0  0  0  0  0  0
   32.6400   27.3480   49.7190 H   0  0  0  0  0  0  0  0  0  0  0  0
   30.8410   27.5720   48.6610 C   0  0  0  0  0  0  0  0  0  0  0  0
   30.2720   27.0720   49.4180 H   0  0  0  0  0  0  0  0  0  0  0  0
   30.2690   28.0780   47.4960 C   0  0  0  0  0  0  0  0  0  0  0  0
   31.0650   28.7140   46.5590 C   0  0  0  0  0  0  0  0  0  0  0  0
   32.3810   28.8510   46.7580 N   0  0  0  0  0  0  0  0  0  0  0  0
  1  3  1  0  0  0  0
  1  8  1  0  0  0  0
  1  2  1  0  0  0  0
  4 10  1  0  0  0  0
  5 11  1  0  0  0  0
  5  4  2  0  0  0  0
  6  5  1  0  0  0  0
  7  6  2  0  0  0  0
  7  8  1  0  0  0  0
  8  9  2  0  0  0  0
  9  4  1  0  0  0  0
 12  6  1  0  0  0  0
 13  1  1  0  0  0  0
 14 13  1  0  0  0  0
 15 13  1  0  0  0  0
 16 13  1  0  0  0  0
 16 17  1  0  0  0  0
 17 18  1  0  0  0  0
 19 17  2  0  0  0  0
 19 20  1  0  0  0  0
 21 19  1  0  0  0  0
 22 23  1  0  0  0  0
 22 21  2  0  0  0  0
 23 16  2  0  0  0  0
M  END
>  <minimizedAffinity>
-4.48668909

>  <minimizedRMSD>
1.05260217

$$$$
