
 OpenBabel03272504293D

 41 44  0  0  0  0  0  0  0  0999 V2000
   38.0880   25.7200   33.5980 C   0  0  0  0  0  0  0  0  0  0  0  0
   38.0160   26.8940   34.2590 C   0  0  0  0  0  0  0  0  0  0  0  0
   38.9680   27.2610   35.1240 C   0  0  0  0  0  0  0  0  0  0  0  0
   40.0240   26.4300   35.3350 N   0  0  0  0  0  0  0  0  0  0  0  0
   40.0860   25.2770   34.6800 C   0  0  0  0  0  0  0  0  0  0  0  0
   39.1350   24.9020   33.8110 N   0  0  0  0  0  0  0  0  0  0  0  0
   37.1630   27.5340   34.0700 H   0  0  0  0  0  0  0  0  0  0  0  0
   38.8700   28.2190   35.6370 H   0  0  0  0  0  0  0  0  0  0  0  0
   41.1990   23.4810   35.9340 C   0  0  0  0  0  0  0  0  0  0  0  0
   41.2590   24.4820   34.9620 C   0  0  0  0  0  0  0  0  0  0  0  0
   42.3950   24.7950   34.2420 C   0  0  0  0  0  0  0  0  0  0  0  0
   43.5560   24.0880   34.4830 C   0  0  0  0  0  0  0  0  0  0  0  0
   43.5890   23.0840   35.4250 C   0  0  0  0  0  0  0  0  0  0  0  0
   42.4250   22.8490   36.0810 C   0  0  0  0  0  0  0  0  0  0  0  0
   42.3920   25.5790   33.4980 H   0  0  0  0  0  0  0  0  0  0  0  0
   44.4410   24.3420   33.9130 H   0  0  0  0  0  0  0  0  0  0  0  0
   44.4790   22.5330   35.6200 H   0  0  0  0  0  0  0  0  0  0  0  0
   42.4630   22.0450   36.8300 H   0  0  0  0  0  0  0  0  0  0  0  0
   39.8420   23.0590   36.8030 S   0  0  0  0  0  0  0  0  0  0  0  0
   40.5780   22.2190   37.8990 O   0  0  0  0  0  0  0  0  0  0  0  0
   39.0330   22.1230   35.9400 O   0  0  0  0  0  0  0  0  0  0  0  0
   38.7000   23.3600   37.8790 C   0  0  0  0  0  0  0  0  0  0  0  0
   37.3700   22.8970   37.7990 F   0  0  0  0  0  0  0  0  0  0  0  0
   38.2170   24.7420   37.7160 F   0  0  0  0  0  0  0  0  0  0  0  0
   39.0180   23.7280   39.2240 F   0  0  0  0  0  0  0  0  0  0  0  0
   35.4010   25.7160   31.0910 C   0  0  0  0  0  0  0  0  0  0  0  0
   35.1910   24.3400   30.8810 C   0  0  0  0  0  0  0  0  0  0  0  0
   35.9730   23.4530   31.6040 C   0  0  0  0  0  0  0  0  0  0  0  0
   36.8970   23.9540   32.4720 N   0  0  0  0  0  0  0  0  0  0  0  0
   37.0720   25.2960   32.6490 C   0  0  0  0  0  0  0  0  0  0  0  0
   36.3240   26.1600   31.9570 N   0  0  0  0  0  0  0  0  0  0  0  0
   34.7820   26.3960   30.5200 H   0  0  0  0  0  0  0  0  0  0  0  0
   34.4650   23.9300   30.1990 H   0  0  0  0  0  0  0  0  0  0  0  0
   35.8920   22.0000   31.5120 C   0  0  0  0  0  0  0  0  0  0  0  0
   34.9690   21.2510   32.2110 C   0  0  0  0  0  0  0  0  0  0  0  0
   34.2590   21.7330   32.8630 H   0  0  0  0  0  0  0  0  0  0  0  0
   34.8590   19.8790   32.1530 C   0  0  0  0  0  0  0  0  0  0  0  0
   34.1210   19.3230   32.7160 H   0  0  0  0  0  0  0  0  0  0  0  0
   35.7320   19.1810   31.3390 C   0  0  0  0  0  3  0  0  0  0  0  0
   36.6560   19.9440   30.6410 C   0  0  0  0  0  3  0  0  0  0  0  0
   36.7100   21.2640   30.7390 N   0  0  0  0  0  0  0  0  0  0  0  0
  1  6  2  0  0  0  0
  1  2  1  0  0  0  0
  2  3  2  0  0  0  0
  3  4  1  0  0  0  0
  3  8  1  0  0  0  0
  5 10  1  0  0  0  0
  5  4  2  0  0  0  0
  6  5  1  0  0  0  0
  7  2  1  0  0  0  0
  9 14  1  0  0  0  0
  9 19  1  0  0  0  0
 10  9  2  0  0  0  0
 11 12  2  0  0  0  0
 11 10  1  0  0  0  0
 12 13  1  0  0  0  0
 13 17  1  0  0  0  0
 13 14  2  0  0  0  0
 14 18  1  0  0  0  0
 15 11  1  0  0  0  0
 16 12  1  0  0  0  0
 19 22  1  0  0  0  0
 19 20  2  0  0  0  0
 21 19  2  0  0  0  0
 22 25  1  0  0  0  0
 23 22  1  0  0  0  0
 24 22  1  0  0  0  0
 26 31  1  0  0  0  0
 27 26  2  0  0  0  0
 27 28  1  0  0  0  0
 28 29  2  0  0  0  0
 29 30  1  0  0  0  0
 30  1  1  0  0  0  0
 31 30  2  0  0  0  0
 32 26  1  0  0  0  0
 33 27  1  0  0  0  0
 34 28  1  0  0  0  0
 34 35  1  0  0  0  0
 35 36  1  0  0  0  0
 37 35  2  0  0  0  0
 37 38  1  0  0  0  0
 39 37  1  0  0  0  0
 40 41  1  0  0  0  0
 40 39  2  0  0  0  0
 41 34  2  0  0  0  0
M  END
>  <minimizedAffinity>
-7.37327385

$$$$

 OpenBabel03272504293D

 41 44  0  0  0  0  0  0  0  0999 V2000
   36.1670   28.4750   32.6730 C   0  0  0  0  0  0  0  0  0  0  0  0
   35.7560   29.0590   31.5280 C   0  0  0  0  0  0  0  0  0  0  0  0
   35.0010   30.1640   31.5470 C   0  0  0  0  0  0  0  0  0  0  0  0
   34.6470   30.7000   32.7460 N   0  0  0  0  0  0  0  0  0  0  0  0
   35.0570   30.1180   33.8670 C   0  0  0  0  0  0  0  0  0  0  0  0
   35.8130   29.0100   33.8550 N   0  0  0  0  0  0  0  0  0  0  0  0
   36.0540   28.6090   30.5890 H   0  0  0  0  0  0  0  0  0  0  0  0
   34.6910   30.6030   30.5990 H   0  0  0  0  0  0  0  0  0  0  0  0
   33.3700   30.5370   35.6030 C   0  0  0  0  0  0  0  0  0  0  0  0
   34.6420   30.7810   35.0810 C   0  0  0  0  0  0  0  0  0  0  0  0
   35.5550   31.6520   35.6420 C   0  0  0  0  0  0  0  0  0  0  0  0
   35.2100   32.3360   36.7910 C   0  0  0  0  0  0  0  0  0  0  0  0
   33.9760   32.1580   37.3740 C   0  0  0  0  0  0  0  0  0  0  0  0
   33.1460   31.2830   36.7520 C   0  0  0  0  0  0  0  0  0  0  0  0
   36.5290   31.8080   35.2000 H   0  0  0  0  0  0  0  0  0  0  0  0
   35.9330   33.0170   37.2220 H   0  0  0  0  0  0  0  0  0  0  0  0
   33.6980   32.6810   38.2590 H   0  0  0  0  0  0  0  0  0  0  0  0
   32.1640   31.1490   37.2260 H   0  0  0  0  0  0  0  0  0  0  0  0
   32.2530   29.4760   34.9700 S   0  0  0  0  0  0  0  0  0  0  0  0
   30.9900   30.3660   35.2180 O   0  0  0  0  0  0  0  0  0  0  0  0
   32.1930   28.2860   35.8940 O   0  0  0  0  0  0  0  0  0  0  0  0
   31.4720   28.8070   33.7470 C   0  0  0  0  0  0  0  0  0  0  0  0
   30.9970   27.4780   33.7200 F   0  0  0  0  0  0  0  0  0  0  0  0
   32.4240   28.4760   32.6720 F   0  0  0  0  0  0  0  0  0  0  0  0
   30.7890   29.5980   32.7720 F   0  0  0  0  0  0  0  0  0  0  0  0
   38.3580   25.7040   31.6580 C   0  0  0  0  0  0  0  0  0  0  0  0
   38.5250   24.9990   32.8640 C   0  0  0  0  0  0  0  0  0  0  0  0
   37.8820   25.4900   33.9900 C   0  0  0  0  0  0  0  0  0  0  0  0
   37.1300   26.6200   33.8720 N   0  0  0  0  0  0  0  0  0  0  0  0
   36.9910   27.2780   32.6840 C   0  0  0  0  0  0  0  0  0  0  0  0
   37.6060   26.8130   31.5920 N   0  0  0  0  0  0  0  0  0  0  0  0
   38.8650   25.3090   30.7870 H   0  0  0  0  0  0  0  0  0  0  0  0
   39.1160   24.1060   32.9720 H   0  0  0  0  0  0  0  0  0  0  0  0
   37.9450   24.8890   35.3170 C   0  0  0  0  0  0  0  0  0  0  0  0
   37.9920   25.6300   36.4780 C   0  0  0  0  0  0  0  0  0  0  0  0
   37.9810   26.7070   36.4370 H   0  0  0  0  0  0  0  0  0  0  0  0
   38.0520   25.1030   37.7500 C   0  0  0  0  0  0  0  0  0  0  0  0
   38.0870   25.7160   38.6400 H   0  0  0  0  0  0  0  0  0  0  0  0
   38.0690   23.7280   37.8940 C   0  0  0  0  0  3  0  0  0  0  0  0
   38.0220   22.9920   36.7190 C   0  0  0  0  0  3  0  0  0  0  0  0
   37.9640   23.5600   35.5230 N   0  0  0  0  0  0  0  0  0  0  0  0
  1 30  1  0  0  0  0
  1  6  1  0  0  0  0
  2  3  1  0  0  0  0
  2  1  2  0  0  0  0
  3  4  2  0  0  0  0
  4  5  1  0  0  0  0
  5 10  1  0  0  0  0
  6  5  2  0  0  0  0
  7  2  1  0  0  0  0
  8  3  1  0  0  0  0
  9 14  1  0  0  0  0
 10  9  2  0  0  0  0
 10 11  1  0  0  0  0
 11 12  2  0  0  0  0
 12 16  1  0  0  0  0
 12 13  1  0  0  0  0
 13 17  1  0  0  0  0
 14 18  1  0  0  0  0
 14 13  2  0  0  0  0
 15 11  1  0  0  0  0
 19 20  2  0  0  0  0
 19  9  1  0  0  0  0
 19 21  2  0  0  0  0
 22 19  1  0  0  0  0
 23 22  1  0  0  0  0
 24 22  1  0  0  0  0
 25 22  1  0  0  0  0
 26 27  1  0  0  0  0
 27 33  1  0  0  0  0
 27 28  2  0  0  0  0
 28 34  1  0  0  0  0
 29 28  1  0  0  0  0
 30 29  2  0  0  0  0
 31 26  2  0  0  0  0
 31 30  1  0  0  0  0
 32 26  1  0  0  0  0
 34 41  2  0  0  0  0
 34 35  1  0  0  0  0
 35 37  2  0  0  0  0
 36 35  1  0  0  0  0
 37 39  1  0  0  0  0
 37 38  1  0  0  0  0
 40 39  2  0  0  0  0
 41 40  1  0  0  0  0
M  END
>  <minimizedAffinity>
-6.83256721

$$$$

 OpenBabel03272504293D

 41 44  0  0  0  0  0  0  0  0999 V2000
   36.3870   28.2840   33.4390 C   0  0  0  0  0  0  0  0  0  0  0  0
   36.0720   28.6770   32.1870 C   0  0  0  0  0  0  0  0  0  0  0  0
   35.2870   29.7390   31.9720 C   0  0  0  0  0  0  0  0  0  0  0  0
   34.8020   30.4270   33.0400 N   0  0  0  0  0  0  0  0  0  0  0  0
   35.1180   30.0330   34.2680 C   0  0  0  0  0  0  0  0  0  0  0  0
   35.9040   28.9690   34.4900 N   0  0  0  0  0  0  0  0  0  0  0  0
   36.4730   28.1080   31.3570 H   0  0  0  0  0  0  0  0  0  0  0  0
   35.0570   30.0210   30.9440 H   0  0  0  0  0  0  0  0  0  0  0  0
   33.2350   30.6770   35.7090 C   0  0  0  0  0  0  0  0  0  0  0  0
   34.5670   30.8470   35.3260 C   0  0  0  0  0  0  0  0  0  0  0  0
   35.4200   31.7780   35.8860 C   0  0  0  0  0  0  0  0  0  0  0  0
   34.9480   32.6030   36.8860 C   0  0  0  0  0  0  0  0  0  0  0  0
   33.6460   32.5070   37.3250 C   0  0  0  0  0  0  0  0  0  0  0  0
   32.8840   31.5640   36.7170 C   0  0  0  0  0  0  0  0  0  0  0  0
   36.4460   31.8710   35.5560 H   0  0  0  0  0  0  0  0  0  0  0  0
   35.6250   33.3300   37.3170 H   0  0  0  0  0  0  0  0  0  0  0  0
   33.2700   33.1390   38.0950 H   0  0  0  0  0  0  0  0  0  0  0  0
   31.8470   31.4950   37.0750 H   0  0  0  0  0  0  0  0  0  0  0  0
   32.1850   29.5500   35.0750 S   0  0  0  0  0  0  0  0  0  0  0  0
   30.8640   30.3190   35.4080 O   0  0  0  0  0  0  0  0  0  0  0  0
   32.2630   28.3250   35.9520 O   0  0  0  0  0  0  0  0  0  0  0  0
   31.4120   28.8620   33.8570 C   0  0  0  0  0  0  0  0  0  0  0  0
   30.9210   27.5400   33.8530 F   0  0  0  0  0  0  0  0  0  0  0  0
   32.3740   28.4960   32.8030 F   0  0  0  0  0  0  0  0  0  0  0  0
   30.7520   29.6400   32.8560 F   0  0  0  0  0  0  0  0  0  0  0  0
   39.0520   26.1080   34.7320 C   0  0  0  0  0  0  0  0  0  0  0  0
   38.7620   24.8800   34.1110 C   0  0  0  0  0  0  0  0  0  0  0  0
   37.6640   24.8300   33.2660 C   0  0  0  0  0  0  0  0  0  0  0  0
   36.9280   25.9630   33.0840 N   0  0  0  0  0  0  0  0  0  0  0  0
   37.2410   27.1390   33.7030 C   0  0  0  0  0  0  0  0  0  0  0  0
   38.2980   27.1970   34.5200 N   0  0  0  0  0  0  0  0  0  0  0  0
   39.9130   26.1320   35.3880 H   0  0  0  0  0  0  0  0  0  0  0  0
   39.3330   23.9770   34.2470 H   0  0  0  0  0  0  0  0  0  0  0  0
   37.2180   23.6450   32.5440 C   0  0  0  0  0  0  0  0  0  0  0  0
   36.0870   23.6240   31.7550 C   0  0  0  0  0  0  0  0  0  0  0  0
   35.4840   24.5100   31.6460 H   0  0  0  0  0  0  0  0  0  0  0  0
   35.6320   22.5270   31.0570 C   0  0  0  0  0  0  0  0  0  0  0  0
   34.7400   22.5460   30.4460 H   0  0  0  0  0  0  0  0  0  0  0  0
   36.3480   21.3470   31.1410 C   0  0  0  0  0  3  0  0  0  0  0  0
   37.4830   21.3790   31.9380 C   0  0  0  0  0  3  0  0  0  0  0  0
   37.8700   22.4690   32.5850 N   0  0  0  0  0  0  0  0  0  0  0  0
  1 30  1  0  0  0  0
  1  6  1  0  0  0  0
  2  1  2  0  0  0  0
  3  2  1  0  0  0  0
  3  4  2  0  0  0  0
  4  5  1  0  0  0  0
  5  6  2  0  0  0  0
  5 10  1  0  0  0  0
  7  2  1  0  0  0  0
  8  3  1  0  0  0  0
  9 14  1  0  0  0  0
 10  9  2  0  0  0  0
 10 11  1  0  0  0  0
 11 12  2  0  0  0  0
 12 16  1  0  0  0  0
 12 13  1  0  0  0  0
 13 17  1  0  0  0  0
 14 18  1  0  0  0  0
 14 13  2  0  0  0  0
 15 11  1  0  0  0  0
 19 20  2  0  0  0  0
 19  9  1  0  0  0  0
 19 21  2  0  0  0  0
 22 19  1  0  0  0  0
 23 22  1  0  0  0  0
 24 22  1  0  0  0  0
 25 22  1  0  0  0  0
 26 32  1  0  0  0  0
 27 33  1  0  0  0  0
 27 26  2  0  0  0  0
 28 27  1  0  0  0  0
 29 28  2  0  0  0  0
 29 30  1  0  0  0  0
 30 31  2  0  0  0  0
 31 26  1  0  0  0  0
 34 41  1  0  0  0  0
 34 28  1  0  0  0  0
 35 34  2  0  0  0  0
 36 35  1  0  0  0  0
 37 39  2  0  0  0  0
 37 35  1  0  0  0  0
 38 37  1  0  0  0  0
 39 40  1  0  0  0  0
 40 41  2  0  0  0  0
M  END
>  <minimizedAffinity>
-6.76514339

$$$$

 OpenBabel03272504293D

 41 44  0  0  0  0  0  0  0  0999 V2000
   36.0380   28.9160   32.5190 C   0  0  0  0  0  0  0  0  0  0  0  0
   35.6690   29.6370   31.4390 C   0  0  0  0  0  0  0  0  0  0  0  0
   34.6580   30.5130   31.5040 C   0  0  0  0  0  0  0  0  0  0  0  0
   33.9980   30.6710   32.6830 N   0  0  0  0  0  0  0  0  0  0  0  0
   34.3690   29.9570   33.7390 C   0  0  0  0  0  0  0  0  0  0  0  0
   35.3800   29.0780   33.6810 N   0  0  0  0  0  0  0  0  0  0  0  0
   36.2130   29.4880   30.5150 H   0  0  0  0  0  0  0  0  0  0  0  0
   34.3940   31.0740   30.6080 H   0  0  0  0  0  0  0  0  0  0  0  0
   34.0210   31.2390   35.8050 C   0  0  0  0  0  0  0  0  0  0  0  0
   33.6150   30.2200   34.9420 C   0  0  0  0  0  0  0  0  0  0  0  0
   32.5240   29.4020   35.1690 C   0  0  0  0  0  0  0  0  0  0  0  0
   31.7760   29.5860   36.3140 C   0  0  0  0  0  0  0  0  0  0  0  0
   32.1040   30.5670   37.2220 C   0  0  0  0  0  0  0  0  0  0  0  0
   33.1900   31.3200   36.9150 C   0  0  0  0  0  0  0  0  0  0  0  0
   32.2490   28.6250   34.4690 H   0  0  0  0  0  0  0  0  0  0  0  0
   30.9240   28.9390   36.4810 H   0  0  0  0  0  0  0  0  0  0  0  0
   31.5360   30.7170   38.1090 H   0  0  0  0  0  0  0  0  0  0  0  0
   33.4440   32.1000   37.6460 H   0  0  0  0  0  0  0  0  0  0  0  0
   35.3130   32.2600   35.5540 S   0  0  0  0  0  0  0  0  0  0  0  0
   36.4270   31.2680   36.0250 O   0  0  0  0  0  0  0  0  0  0  0  0
   35.2030   33.3750   36.5630 O   0  0  0  0  0  0  0  0  0  0  0  0
   36.4050   32.9570   34.6190 C   0  0  0  0  0  0  0  0  0  0  0  0
   37.5350   33.6640   35.0820 F   0  0  0  0  0  0  0  0  0  0  0  0
   35.8600   34.2110   34.0700 F   0  0  0  0  0  0  0  0  0  0  0  0
   36.5940   32.5530   33.2610 F   0  0  0  0  0  0  0  0  0  0  0  0
   39.0580   27.0670   31.5370 C   0  0  0  0  0  0  0  0  0  0  0  0
   39.1530   26.0920   32.5460 C   0  0  0  0  0  0  0  0  0  0  0  0
   38.1800   26.0930   33.5350 C   0  0  0  0  0  0  0  0  0  0  0  0
   37.1920   27.0310   33.4770 N   0  0  0  0  0  0  0  0  0  0  0  0
   37.1330   27.9620   32.4800 C   0  0  0  0  0  0  0  0  0  0  0  0
   38.0660   27.9690   31.5230 N   0  0  0  0  0  0  0  0  0  0  0  0
   39.8240   27.0530   30.7720 H   0  0  0  0  0  0  0  0  0  0  0  0
   39.9270   25.3460   32.6050 H   0  0  0  0  0  0  0  0  0  0  0  0
   38.1230   25.1600   34.6530 C   0  0  0  0  0  0  0  0  0  0  0  0
   38.0420   25.5640   35.9680 C   0  0  0  0  0  0  0  0  0  0  0  0
   38.0170   26.6120   36.2150 H   0  0  0  0  0  0  0  0  0  0  0  0
   37.9870   24.7160   37.0530 C   0  0  0  0  0  0  0  0  0  0  0  0
   37.9230   25.0680   38.0730 H   0  0  0  0  0  0  0  0  0  0  0  0
   38.0130   23.3520   36.8260 C   0  0  0  0  0  3  0  0  0  0  0  0
   38.0950   22.9560   35.5000 C   0  0  0  0  0  3  0  0  0  0  0  0
   38.1440   23.8240   34.4990 N   0  0  0  0  0  0  0  0  0  0  0  0
  1  6  1  0  0  0  0
  2  3  1  0  0  0  0
  2  1  2  0  0  0  0
  3  4  2  0  0  0  0
  4  5  1  0  0  0  0
  5 10  1  0  0  0  0
  6  5  2  0  0  0  0
  7  2  1  0  0  0  0
  8  3  1  0  0  0  0
  9 14  1  0  0  0  0
 10 11  1  0  0  0  0
 10  9  2  0  0  0  0
 11 12  2  0  0  0  0
 12 16  1  0  0  0  0
 12 13  1  0  0  0  0
 13 17  1  0  0  0  0
 14 13  2  0  0  0  0
 14 18  1  0  0  0  0
 15 11  1  0  0  0  0
 19  9  1  0  0  0  0
 19 20  2  0  0  0  0
 19 21  2  0  0  0  0
 22 23  1  0  0  0  0
 22 19  1  0  0  0  0
 24 22  1  0  0  0  0
 25 22  1  0  0  0  0
 26 27  1  0  0  0  0
 27 33  1  0  0  0  0
 27 28  2  0  0  0  0
 28 34  1  0  0  0  0
 29 28  1  0  0  0  0
 30  1  1  0  0  0  0
 30 29  2  0  0  0  0
 31 26  2  0  0  0  0
 31 30  1  0  0  0  0
 32 26  1  0  0  0  0
 34 35  1  0  0  0  0
 35 36  1  0  0  0  0
 35 37  2  0  0  0  0
 37 38  1  0  0  0  0
 39 37  1  0  0  0  0
 40 39  2  0  0  0  0
 41 34  2  0  0  0  0
 41 40  1  0  0  0  0
M  END
>  <minimizedAffinity>
-6.62535191

$$$$

 OpenBabel03272504293D

 41 44  0  0  0  0  0  0  0  0999 V2000
   37.7100   26.7470   32.8110 C   0  0  0  0  0  0  0  0  0  0  0  0
   38.9600   26.8620   33.3070 C   0  0  0  0  0  0  0  0  0  0  0  0
   39.6900   25.7800   33.6020 C   0  0  0  0  0  0  0  0  0  0  0  0
   39.1540   24.5470   33.3970 N   0  0  0  0  0  0  0  0  0  0  0  0
   37.9230   24.4440   32.9090 C   0  0  0  0  0  0  0  0  0  0  0  0
   37.1860   25.5250   32.6110 N   0  0  0  0  0  0  0  0  0  0  0  0
   39.3590   27.8570   33.4600 H   0  0  0  0  0  0  0  0  0  0  0  0
   40.6950   25.9190   34.0010 H   0  0  0  0  0  0  0  0  0  0  0  0
   37.3240   22.2380   33.8070 C   0  0  0  0  0  0  0  0  0  0  0  0
   37.4620   23.0900   32.7100 C   0  0  0  0  0  0  0  0  0  0  0  0
   37.2020   22.7200   31.4050 C   0  0  0  0  0  0  0  0  0  0  0  0
   36.7810   21.4310   31.1450 C   0  0  0  0  0  0  0  0  0  0  0  0
   36.6190   20.5220   32.1670 C   0  0  0  0  0  0  0  0  0  0  0  0
   36.8970   20.9770   33.4140 C   0  0  0  0  0  0  0  0  0  0  0  0
   37.3230   23.4170   30.5880 H   0  0  0  0  0  0  0  0  0  0  0  0
   36.5810   21.1520   30.1180 H   0  0  0  0  0  0  0  0  0  0  0  0
   36.2950   19.5260   31.9790 H   0  0  0  0  0  0  0  0  0  0  0  0
   36.7640   20.2430   34.2220 H   0  0  0  0  0  0  0  0  0  0  0  0
   37.6020   22.6550   35.3960 S   0  0  0  0  0  0  0  0  0  0  0  0
   39.0310   22.0270   35.5050 O   0  0  0  0  0  0  0  0  0  0  0  0
   36.6540   21.8440   36.2430 O   0  0  0  0  0  0  0  0  0  0  0  0
   38.0320   23.6930   36.5320 C   0  0  0  0  0  0  0  0  0  0  0  0
   37.4160   23.8100   37.7960 F   0  0  0  0  0  0  0  0  0  0  0  0
   37.5460   25.0390   36.1830 F   0  0  0  0  0  0  0  0  0  0  0  0
   39.3390   24.2720   36.5600 F   0  0  0  0  0  0  0  0  0  0  0  0
   35.9170   29.3700   30.9640 C   0  0  0  0  0  0  0  0  0  0  0  0
   35.3210   30.1110   32.0010 C   0  0  0  0  0  0  0  0  0  0  0  0
   35.5510   29.6940   33.3030 C   0  0  0  0  0  0  0  0  0  0  0  0
   36.3330   28.5970   33.5090 N   0  0  0  0  0  0  0  0  0  0  0  0
   36.8960   27.9030   32.4770 C   0  0  0  0  0  0  0  0  0  0  0  0
   36.6810   28.2960   31.2180 N   0  0  0  0  0  0  0  0  0  0  0  0
   35.7300   29.7070   29.9530 H   0  0  0  0  0  0  0  0  0  0  0  0
   34.7010   30.9780   31.8530 H   0  0  0  0  0  0  0  0  0  0  0  0
   35.0140   30.3400   34.4940 C   0  0  0  0  0  0  0  0  0  0  0  0
   35.7690   31.1460   35.3200 C   0  0  0  0  0  0  0  0  0  0  0  0
   36.8080   31.3280   35.1000 H   0  0  0  0  0  0  0  0  0  0  0  0
   35.3010   31.7740   36.4540 C   0  0  0  0  0  0  0  0  0  0  0  0
   35.9220   32.4000   37.0790 H   0  0  0  0  0  0  0  0  0  0  0  0
   33.9770   31.5940   36.8090 C   0  0  0  0  0  3  0  0  0  0  0  0
   33.2270   30.7810   35.9720 C   0  0  0  0  0  3  0  0  0  0  0  0
   33.7360   30.2050   34.8930 N   0  0  0  0  0  0  0  0  0  0  0  0
  1  2  1  0  0  0  0
  2  7  1  0  0  0  0
  2  3  2  0  0  0  0
  3  8  1  0  0  0  0
  4  3  1  0  0  0  0
  5  4  2  0  0  0  0
  6  1  2  0  0  0  0
  6  5  1  0  0  0  0
  9 19  1  0  0  0  0
 10  5  1  0  0  0  0
 10  9  2  0  0  0  0
 11 10  1  0  0  0  0
 12 11  2  0  0  0  0
 12 13  1  0  0  0  0
 13 14  2  0  0  0  0
 14  9  1  0  0  0  0
 14 18  1  0  0  0  0
 15 11  1  0  0  0  0
 16 12  1  0  0  0  0
 17 13  1  0  0  0  0
 19 20  2  0  0  0  0
 19 21  2  0  0  0  0
 19 22  1  0  0  0  0
 22 25  1  0  0  0  0
 22 23  1  0  0  0  0
 24 22  1  0  0  0  0
 26 31  2  0  0  0  0
 26 27  1  0  0  0  0
 27 28  2  0  0  0  0
 28 29  1  0  0  0  0
 28 34  1  0  0  0  0
 30  1  1  0  0  0  0
 30 29  2  0  0  0  0
 31 30  1  0  0  0  0
 32 26  1  0  0  0  0
 33 27  1  0  0  0  0
 34 41  2  0  0  0  0
 34 35  1  0  0  0  0
 35 37  2  0  0  0  0
 36 35  1  0  0  0  0
 37 39  1  0  0  0  0
 37 38  1  0  0  0  0
 40 39  2  0  0  0  0
 41 40  1  0  0  0  0
M  END
>  <minimizedAffinity>
-6.47760963

$$$$

 OpenBabel03272504293D

 41 44  0  0  0  0  0  0  0  0999 V2000
   37.6540   27.2960   33.2890 C   0  0  0  0  0  0  0  0  0  0  0  0
   38.7790   27.1060   32.5680 C   0  0  0  0  0  0  0  0  0  0  0  0
   39.6630   26.1570   32.9000 C   0  0  0  0  0  0  0  0  0  0  0  0
   39.4140   25.3760   33.9850 N   0  0  0  0  0  0  0  0  0  0  0  0
   38.3050   25.5700   34.6880 C   0  0  0  0  0  0  0  0  0  0  0  0
   37.4150   26.5200   34.3610 N   0  0  0  0  0  0  0  0  0  0  0  0
   38.9490   27.7450   31.7100 H   0  0  0  0  0  0  0  0  0  0  0  0
   40.5580   26.0390   32.2900 H   0  0  0  0  0  0  0  0  0  0  0  0
   37.9310   23.3100   35.5750 C   0  0  0  0  0  0  0  0  0  0  0  0
   38.1310   24.6720   35.8060 C   0  0  0  0  0  0  0  0  0  0  0  0
   38.1540   25.2490   37.0610 C   0  0  0  0  0  0  0  0  0  0  0  0
   37.9700   24.4490   38.1700 C   0  0  0  0  0  0  0  0  0  0  0  0
   37.7650   23.0940   38.0360 C   0  0  0  0  0  0  0  0  0  0  0  0
   37.7580   22.6180   36.7660 C   0  0  0  0  0  0  0  0  0  0  0  0
   38.3130   26.3110   37.1890 H   0  0  0  0  0  0  0  0  0  0  0  0
   37.9900   24.9120   39.1490 H   0  0  0  0  0  0  0  0  0  0  0  0
   37.6200   22.4660   38.8840 H   0  0  0  0  0  0  0  0  0  0  0  0
   37.5940   21.5350   36.6710 H   0  0  0  0  0  0  0  0  0  0  0  0
   37.9220   22.5750   34.0810 S   0  0  0  0  0  0  0  0  0  0  0  0
   36.8280   21.5050   34.4070 O   0  0  0  0  0  0  0  0  0  0  0  0
   39.2480   21.8750   33.9190 O   0  0  0  0  0  0  0  0  0  0  0  0
   37.4730   22.4870   32.5500 C   0  0  0  0  0  0  0  0  0  0  0  0
   37.4220   23.5780   31.6560 F   0  0  0  0  0  0  0  0  0  0  0  0
   36.0070   22.3670   32.4680 F   0  0  0  0  0  0  0  0  0  0  0  0
   37.5210   21.2550   31.8260 F   0  0  0  0  0  0  0  0  0  0  0  0
   35.4400   29.5660   31.4320 C   0  0  0  0  0  0  0  0  0  0  0  0
   34.7920   30.2650   32.4680 C   0  0  0  0  0  0  0  0  0  0  0  0
   35.1320   29.9410   33.7730 C   0  0  0  0  0  0  0  0  0  0  0  0
   36.0670   28.9700   33.9820 N   0  0  0  0  0  0  0  0  0  0  0  0
   36.6750   28.3140   32.9510 C   0  0  0  0  0  0  0  0  0  0  0  0
   36.3540   28.6190   31.6900 N   0  0  0  0  0  0  0  0  0  0  0  0
   35.1650   29.8310   30.4190 H   0  0  0  0  0  0  0  0  0  0  0  0
   34.0530   31.0320   32.3170 H   0  0  0  0  0  0  0  0  0  0  0  0
   34.5630   30.5590   34.9630 C   0  0  0  0  0  0  0  0  0  0  0  0
   33.2590   30.3620   35.3650 C   0  0  0  0  0  0  0  0  0  0  0  0
   32.6050   29.7240   34.7950 H   0  0  0  0  0  0  0  0  0  0  0  0
   32.6820   30.9270   36.4820 C   0  0  0  0  0  0  0  0  0  0  0  0
   31.6550   30.7500   36.7680 H   0  0  0  0  0  0  0  0  0  0  0  0
   33.4540   31.7600   37.2720 C   0  0  0  0  0  3  0  0  0  0  0  0
   34.7630   31.9520   36.8590 C   0  0  0  0  0  3  0  0  0  0  0  0
   35.2600   31.3780   35.7730 N   0  0  0  0  0  0  0  0  0  0  0  0
  1  6  1  0  0  0  0
  2  3  1  0  0  0  0
  2  1  2  0  0  0  0
  3  4  2  0  0  0  0
  4  5  1  0  0  0  0
  5 10  1  0  0  0  0
  6  5  2  0  0  0  0
  7  2  1  0  0  0  0
  8  3  1  0  0  0  0
  9 10  2  0  0  0  0
  9 14  1  0  0  0  0
 10 11  1  0  0  0  0
 11 15  1  0  0  0  0
 11 12  2  0  0  0  0
 12 16  1  0  0  0  0
 13 12  1  0  0  0  0
 13 17  1  0  0  0  0
 14 13  2  0  0  0  0
 18 14  1  0  0  0  0
 19 20  2  0  0  0  0
 19  9  1  0  0  0  0
 21 19  2  0  0  0  0
 22 19  1  0  0  0  0
 23 22  1  0  0  0  0
 24 22  1  0  0  0  0
 25 22  1  0  0  0  0
 26 31  2  0  0  0  0
 26 27  1  0  0  0  0
 27 28  2  0  0  0  0
 28 29  1  0  0  0  0
 28 34  1  0  0  0  0
 30  1  1  0  0  0  0
 30 29  2  0  0  0  0
 31 30  1  0  0  0  0
 32 26  1  0  0  0  0
 33 27  1  0  0  0  0
 34 35  2  0  0  0  0
 34 41  1  0  0  0  0
 35 37  1  0  0  0  0
 36 35  1  0  0  0  0
 37 38  1  0  0  0  0
 37 39  2  0  0  0  0
 40 39  1  0  0  0  0
 41 40  2  0  0  0  0
M  END
>  <minimizedAffinity>
-6.41526842

$$$$

 OpenBabel03272504293D

 41 44  0  0  0  0  0  0  0  0999 V2000
   34.9220   29.4200   32.7780 C   0  0  0  0  0  0  0  0  0  0  0  0
   35.4910   29.6600   31.5790 C   0  0  0  0  0  0  0  0  0  0  0  0
   36.6500   29.0840   31.2350 C   0  0  0  0  0  0  0  0  0  0  0  0
   37.2550   28.2450   32.1160 N   0  0  0  0  0  0  0  0  0  0  0  0
   36.6870   28.0140   33.2940 C   0  0  0  0  0  0  0  0  0  0  0  0
   35.5270   28.5880   33.6450 N   0  0  0  0  0  0  0  0  0  0  0  0
   34.9840   30.3340   30.8990 H   0  0  0  0  0  0  0  0  0  0  0  0
   37.0740   29.3070   30.2560 H   0  0  0  0  0  0  0  0  0  0  0  0
   37.6010   25.7750   33.7230 C   0  0  0  0  0  0  0  0  0  0  0  0
   37.4040   27.0920   34.1430 C   0  0  0  0  0  0  0  0  0  0  0  0
   37.8380   27.5910   35.3560 C   0  0  0  0  0  0  0  0  0  0  0  0
   38.5090   26.7530   36.2240 C   0  0  0  0  0  0  0  0  0  0  0  0
   38.7460   25.4380   35.8930 C   0  0  0  0  0  0  0  0  0  0  0  0
   38.2840   25.0380   34.6810 C   0  0  0  0  0  0  0  0  0  0  0  0
   37.6620   28.6200   35.6360 H   0  0  0  0  0  0  0  0  0  0  0  0
   38.8440   27.1550   37.1710 H   0  0  0  0  0  0  0  0  0  0  0  0
   39.2610   24.7820   36.5540 H   0  0  0  0  0  0  0  0  0  0  0  0
   38.4790   23.9870   34.4280 H   0  0  0  0  0  0  0  0  0  0  0  0
   37.1150   25.1450   32.2600 S   0  0  0  0  0  0  0  0  0  0  0  0
   36.9470   23.6660   32.7420 O   0  0  0  0  0  0  0  0  0  0  0  0
   38.2990   25.2160   31.3280 O   0  0  0  0  0  0  0  0  0  0  0  0
   36.0120   24.8480   31.1430 C   0  0  0  0  0  0  0  0  0  0  0  0
   35.2960   25.8340   30.4310 F   0  0  0  0  0  0  0  0  0  0  0  0
   34.7590   24.4180   31.7850 F   0  0  0  0  0  0  0  0  0  0  0  0
   35.9730   23.6030   30.4420 F   0  0  0  0  0  0  0  0  0  0  0  0
   31.3610   30.2960   33.0210 C   0  0  0  0  0  0  0  0  0  0  0  0
   31.3590   31.2570   34.0490 C   0  0  0  0  0  0  0  0  0  0  0  0
   32.5760   31.5780   34.6300 C   0  0  0  0  0  0  0  0  0  0  0  0
   33.7010   30.9530   34.1800 N   0  0  0  0  0  0  0  0  0  0  0  0
   33.6630   30.0260   33.1780 C   0  0  0  0  0  0  0  0  0  0  0  0
   32.4950   29.7080   32.6120 N   0  0  0  0  0  0  0  0  0  0  0  0
   30.4030   30.0560   32.5770 H   0  0  0  0  0  0  0  0  0  0  0  0
   30.4800   31.7580   34.4160 H   0  0  0  0  0  0  0  0  0  0  0  0
   32.7600   32.5460   35.7040 C   0  0  0  0  0  0  0  0  0  0  0  0
   33.9100   32.6230   36.4610 C   0  0  0  0  0  0  0  0  0  0  0  0
   34.7310   31.9510   36.2740 H   0  0  0  0  0  0  0  0  0  0  0  0
   34.1240   33.5220   37.4840 C   0  0  0  0  0  0  0  0  0  0  0  0
   35.0400   33.5540   38.0580 H   0  0  0  0  0  0  0  0  0  0  0  0
   33.1200   34.4220   37.7920 C   0  0  0  0  0  3  0  0  0  0  0  0
   31.9680   34.3360   37.0250 C   0  0  0  0  0  3  0  0  0  0  0  0
   31.8240   33.4480   36.0520 N   0  0  0  0  0  0  0  0  0  0  0  0
  1 30  1  0  0  0  0
  1  6  1  0  0  0  0
  2  1  2  0  0  0  0
  3  2  1  0  0  0  0
  3  4  2  0  0  0  0
  4  5  1  0  0  0  0
  5  6  2  0  0  0  0
  5 10  1  0  0  0  0
  7  2  1  0  0  0  0
  8  3  1  0  0  0  0
  9 10  2  0  0  0  0
  9 14  1  0  0  0  0
 10 11  1  0  0  0  0
 11 15  1  0  0  0  0
 11 12  2  0  0  0  0
 12 16  1  0  0  0  0
 13 12  1  0  0  0  0
 13 17  1  0  0  0  0
 14 13  2  0  0  0  0
 18 14  1  0  0  0  0
 19 20  2  0  0  0  0
 19  9  1  0  0  0  0
 21 19  2  0  0  0  0
 22 24  1  0  0  0  0
 22 19  1  0  0  0  0
 23 22  1  0  0  0  0
 25 22  1  0  0  0  0
 26 27  1  0  0  0  0
 27 33  1  0  0  0  0
 27 28  2  0  0  0  0
 28 34  1  0  0  0  0
 29 28  1  0  0  0  0
 30 29  2  0  0  0  0
 31 26  2  0  0  0  0
 31 30  1  0  0  0  0
 32 26  1  0  0  0  0
 34 41  2  0  0  0  0
 34 35  1  0  0  0  0
 35 37  2  0  0  0  0
 36 35  1  0  0  0  0
 37 39  1  0  0  0  0
 37 38  1  0  0  0  0
 40 39  2  0  0  0  0
 41 40  1  0  0  0  0
M  END
>  <minimizedAffinity>
-6.30039835

$$$$

 OpenBabel03272504293D

 41 44  0  0  0  0  0  0  0  0999 V2000
   35.6750   29.0290   32.3020 C   0  0  0  0  0  0  0  0  0  0  0  0
   35.2890   29.7920   31.2580 C   0  0  0  0  0  0  0  0  0  0  0  0
   34.6170   30.9340   31.4460 C   0  0  0  0  0  0  0  0  0  0  0  0
   34.3220   31.3230   32.7160 N   0  0  0  0  0  0  0  0  0  0  0  0
   34.7070   30.5660   33.7360 C   0  0  0  0  0  0  0  0  0  0  0  0
   35.3800   29.4200   33.5540 N   0  0  0  0  0  0  0  0  0  0  0  0
   35.5380   29.4540   30.2590 H   0  0  0  0  0  0  0  0  0  0  0  0
   34.3240   31.5190   30.5740 H   0  0  0  0  0  0  0  0  0  0  0  0
   33.1730   30.6790   35.6520 C   0  0  0  0  0  0  0  0  0  0  0  0
   34.3610   31.0840   35.0390 C   0  0  0  0  0  0  0  0  0  0  0  0
   35.2490   31.9860   35.5920 C   0  0  0  0  0  0  0  0  0  0  0  0
   34.9640   32.5370   36.8250 C   0  0  0  0  0  0  0  0  0  0  0  0
   33.8140   32.1960   37.5010 C   0  0  0  0  0  0  0  0  0  0  0  0
   33.0030   31.3030   36.8800 C   0  0  0  0  0  0  0  0  0  0  0  0
   36.1570   32.2680   35.0780 H   0  0  0  0  0  0  0  0  0  0  0  0
   35.6670   33.2430   37.2490 H   0  0  0  0  0  0  0  0  0  0  0  0
   33.5820   32.6150   38.4520 H   0  0  0  0  0  0  0  0  0  0  0  0
   32.0880   31.0380   37.4290 H   0  0  0  0  0  0  0  0  0  0  0  0
   32.0920   29.5760   35.0290 S   0  0  0  0  0  0  0  0  0  0  0  0
   30.7970   30.4110   35.3010 O   0  0  0  0  0  0  0  0  0  0  0  0
   32.0960   28.3800   35.9470 O   0  0  0  0  0  0  0  0  0  0  0  0
   31.3210   28.8800   33.8140 C   0  0  0  0  0  0  0  0  0  0  0  0
   30.9480   27.5200   33.7650 F   0  0  0  0  0  0  0  0  0  0  0  0
   32.2570   28.6520   32.6990 F   0  0  0  0  0  0  0  0  0  0  0  0
   30.5460   29.6420   32.8860 F   0  0  0  0  0  0  0  0  0  0  0  0
   36.5890   25.5720   31.4490 C   0  0  0  0  0  0  0  0  0  0  0  0
   37.9330   25.5090   31.8600 C   0  0  0  0  0  0  0  0  0  0  0  0
   38.4890   26.6500   32.4190 C   0  0  0  0  0  0  0  0  0  0  0  0
   37.7120   27.7630   32.5390 N   0  0  0  0  0  0  0  0  0  0  0  0
   36.4100   27.7870   32.1290 C   0  0  0  0  0  0  0  0  0  0  0  0
   35.8640   26.6930   31.5890 N   0  0  0  0  0  0  0  0  0  0  0  0
   36.1680   24.6740   31.0160 H   0  0  0  0  0  0  0  0  0  0  0  0
   38.5580   24.6370   31.7710 H   0  0  0  0  0  0  0  0  0  0  0  0
   39.8610   26.7630   32.8970 C   0  0  0  0  0  0  0  0  0  0  0  0
   40.2830   26.2520   34.1060 C   0  0  0  0  0  0  0  0  0  0  0  0
   39.5900   25.7380   34.7510 H   0  0  0  0  0  0  0  0  0  0  0  0
   41.5690   26.3380   34.5950 C   0  0  0  0  0  0  0  0  0  0  0  0
   41.8650   25.9250   35.5490 H   0  0  0  0  0  0  0  0  0  0  0  0
   42.5240   26.9820   33.8290 C   0  0  0  0  0  3  0  0  0  0  0  0
   42.0890   27.4920   32.6150 C   0  0  0  0  0  3  0  0  0  0  0  0
   40.8350   27.3760   32.2010 N   0  0  0  0  0  0  0  0  0  0  0  0
  1  6  1  0  0  0  0
  2  3  1  0  0  0  0
  2  1  2  0  0  0  0
  3  4  2  0  0  0  0
  4  5  1  0  0  0  0
  5 10  1  0  0  0  0
  6  5  2  0  0  0  0
  7  2  1  0  0  0  0
  8  3  1  0  0  0  0
  9 14  1  0  0  0  0
 10 11  1  0  0  0  0
 10  9  2  0  0  0  0
 11 12  2  0  0  0  0
 12 16  1  0  0  0  0
 12 13  1  0  0  0  0
 13 17  1  0  0  0  0
 14 18  1  0  0  0  0
 14 13  2  0  0  0  0
 15 11  1  0  0  0  0
 19 20  2  0  0  0  0
 19  9  1  0  0  0  0
 19 21  2  0  0  0  0
 22 19  1  0  0  0  0
 23 22  1  0  0  0  0
 24 22  1  0  0  0  0
 25 22  1  0  0  0  0
 26 31  2  0  0  0  0
 26 27  1  0  0  0  0
 27 28  2  0  0  0  0
 28 29  1  0  0  0  0
 28 34  1  0  0  0  0
 30  1  1  0  0  0  0
 30 29  2  0  0  0  0
 31 30  1  0  0  0  0
 32 26  1  0  0  0  0
 33 27  1  0  0  0  0
 34 35  1  0  0  0  0
 35 37  2  0  0  0  0
 35 36  1  0  0  0  0
 37 38  1  0  0  0  0
 39 37  1  0  0  0  0
 40 39  2  0  0  0  0
 41 40  1  0  0  0  0
 41 34  2  0  0  0  0
M  END
>  <minimizedAffinity>
-6.21878099

$$$$

 OpenBabel03272504293D

 41 44  0  0  0  0  0  0  0  0999 V2000
   36.2540   28.4080   31.5320 C   0  0  0  0  0  0  0  0  0  0  0  0
   37.3860   28.7730   30.8940 C   0  0  0  0  0  0  0  0  0  0  0  0
   38.3510   27.8830   30.6330 C   0  0  0  0  0  0  0  0  0  0  0  0
   38.1780   26.5910   31.0200 N   0  0  0  0  0  0  0  0  0  0  0  0
   37.0600   26.2420   31.6460 C   0  0  0  0  0  0  0  0  0  0  0  0
   36.0900   27.1290   31.9120 N   0  0  0  0  0  0  0  0  0  0  0  0
   37.4940   29.8090   30.5990 H   0  0  0  0  0  0  0  0  0  0  0  0
   39.2490   28.2210   30.1160 H   0  0  0  0  0  0  0  0  0  0  0  0
   37.5660   24.3820   33.1700 C   0  0  0  0  0  0  0  0  0  0  0  0
   36.9720   24.8420   31.9930 C   0  0  0  0  0  0  0  0  0  0  0  0
   36.3030   24.0330   31.0960 C   0  0  0  0  0  0  0  0  0  0  0  0
   36.2050   22.6810   31.3570 C   0  0  0  0  0  0  0  0  0  0  0  0
   36.7620   22.1400   32.4940 C   0  0  0  0  0  0  0  0  0  0  0  0
   37.3980   23.0120   33.3150 C   0  0  0  0  0  0  0  0  0  0  0  0
   35.8590   24.4370   30.1970 H   0  0  0  0  0  0  0  0  0  0  0  0
   35.6790   22.0560   30.6460 H   0  0  0  0  0  0  0  0  0  0  0  0
   36.6940   21.0990   32.7050 H   0  0  0  0  0  0  0  0  0  0  0  0
   37.8390   22.5690   34.2200 H   0  0  0  0  0  0  0  0  0  0  0  0
   38.3570   25.3300   34.2870 S   0  0  0  0  0  0  0  0  0  0  0  0
   39.8110   25.0130   33.8030 O   0  0  0  0  0  0  0  0  0  0  0  0
   38.1500   24.6940   35.6390 O   0  0  0  0  0  0  0  0  0  0  0  0
   38.9000   26.7350   34.8200 C   0  0  0  0  0  0  0  0  0  0  0  0
   38.9000   27.1440   36.1710 F   0  0  0  0  0  0  0  0  0  0  0  0
   37.9230   27.7940   34.5110 F   0  0  0  0  0  0  0  0  0  0  0  0
   39.8380   27.5090   34.0680 F   0  0  0  0  0  0  0  0  0  0  0  0
   34.0380   31.3400   31.4790 C   0  0  0  0  0  0  0  0  0  0  0  0
   33.1100   31.0310   32.4910 C   0  0  0  0  0  0  0  0  0  0  0  0
   33.2700   29.8290   33.1640 C   0  0  0  0  0  0  0  0  0  0  0  0
   34.3060   29.0160   32.8130 N   0  0  0  0  0  0  0  0  0  0  0  0
   35.1880   29.3510   31.8250 C   0  0  0  0  0  0  0  0  0  0  0  0
   35.0430   30.5060   31.1700 N   0  0  0  0  0  0  0  0  0  0  0  0
   33.9010   32.2810   30.9630 H   0  0  0  0  0  0  0  0  0  0  0  0
   32.2870   31.6620   32.7780 H   0  0  0  0  0  0  0  0  0  0  0  0
   32.4050   29.3500   34.2350 C   0  0  0  0  0  0  0  0  0  0  0  0
   32.5700   29.7110   35.5560 C   0  0  0  0  0  0  0  0  0  0  0  0
   33.3650   30.3790   35.8420 H   0  0  0  0  0  0  0  0  0  0  0  0
   31.7760   29.2810   36.5970 C   0  0  0  0  0  0  0  0  0  0  0  0
   31.9340   29.5860   37.6220 H   0  0  0  0  0  0  0  0  0  0  0  0
   30.7300   28.4200   36.3180 C   0  0  0  0  0  3  0  0  0  0  0  0
   30.5740   28.0630   34.9870 C   0  0  0  0  0  3  0  0  0  0  0  0
   31.3720   28.5130   34.0290 N   0  0  0  0  0  0  0  0  0  0  0  0
  1 30  1  0  0  0  0
  1  6  1  0  0  0  0
  2  1  2  0  0  0  0
  3  2  1  0  0  0  0
  3  4  2  0  0  0  0
  4  5  1  0  0  0  0
  5  6  2  0  0  0  0
  5 10  1  0  0  0  0
  7  2  1  0  0  0  0
  8  3  1  0  0  0  0
  9 14  1  0  0  0  0
  9 19  1  0  0  0  0
 10  9  2  0  0  0  0
 11 12  2  0  0  0  0
 11 10  1  0  0  0  0
 12 13  1  0  0  0  0
 13 17  1  0  0  0  0
 13 14  2  0  0  0  0
 14 18  1  0  0  0  0
 15 11  1  0  0  0  0
 16 12  1  0  0  0  0
 19 22  1  0  0  0  0
 19 21  2  0  0  0  0
 20 19  2  0  0  0  0
 22 23  1  0  0  0  0
 24 22  1  0  0  0  0
 25 22  1  0  0  0  0
 26 27  1  0  0  0  0
 27 33  1  0  0  0  0
 27 28  2  0  0  0  0
 28 34  1  0  0  0  0
 29 28  1  0  0  0  0
 30 29  2  0  0  0  0
 31 26  2  0  0  0  0
 31 30  1  0  0  0  0
 32 26  1  0  0  0  0
 34 35  1  0  0  0  0
 35 36  1  0  0  0  0
 35 37  2  0  0  0  0
 37 38  1  0  0  0  0
 39 37  1  0  0  0  0
 40 39  2  0  0  0  0
 41 34  2  0  0  0  0
 41 40  1  0  0  0  0
M  END
>  <minimizedAffinity>
-6.19516754

$$$$
