
 OpenBabel03272510013D

 20 21  0  0  0  0  0  0  0  0999 V2000
   38.3000   31.2310   50.2430 C   0  0  0  0  0  0  0  0  0  0  0  0
   38.4020   31.5040   48.8730 C   0  0  0  0  0  0  0  0  0  0  0  0
   37.3890   31.0400   48.0480 C   0  0  0  0  0  0  0  0  0  0  0  0
   36.3580   30.3510   48.6100 N   0  0  0  0  0  0  0  0  0  0  0  0
   36.2980   30.1090   49.9330 C   0  0  0  0  0  0  0  0  0  0  0  0
   37.2680   30.5520   50.7310 N   0  0  0  0  0  0  0  0  0  0  0  0
   39.1180   31.6170   50.8400 H   0  0  0  0  0  0  0  0  0  0  0  0
   39.2390   32.0560   48.4680 H   0  0  0  0  0  0  0  0  0  0  0  0
   37.4370   31.2920   46.6110 C   0  0  0  0  0  0  0  0  0  0  0  0
   38.2990   32.2530   46.1320 C   0  0  0  0  0  0  0  0  0  0  0  0
   38.9320   32.8180   46.7870 H   0  0  0  0  0  0  0  0  0  0  0  0
   38.2740   32.4190   44.7580 C   0  0  0  0  0  0  0  0  0  0  0  0
   38.9320   33.1640   44.3170 H   0  0  0  0  0  0  0  0  0  0  0  0
   37.4370   31.6570   44.0070 C   0  0  0  0  0  3  0  0  0  0  0  0
   36.5760   30.6930   44.5030 C   0  0  0  0  0  3  0  0  0  0  0  0
   36.6210   30.5540   45.8350 N   0  0  0  0  0  0  0  0  0  0  0  0
   35.1310   29.3470   50.4500 C   0  0  0  0  0  0  0  0  0  0  0  0
   35.2150   29.1040   51.8010 F   0  0  0  0  0  0  0  0  0  0  0  0
   33.9440   30.0780   50.2630 F   0  0  0  0  0  0  0  0  0  0  0  0
   34.9260   28.1570   49.8170 F   0  0  0  0  0  0  0  0  0  0  0  0
  1  6  1  0  0  0  0
  1  7  1  0  0  0  0
  2  1  2  0  0  0  0
  3  4  2  0  0  0  0
  3  2  1  0  0  0  0
  4  5  1  0  0  0  0
  5 17  1  0  0  0  0
  5  6  2  0  0  0  0
  8  2  1  0  0  0  0
  9  3  1  0  0  0  0
 10  9  1  0  0  0  0
 10 11  1  0  0  0  0
 12 10  2  0  0  0  0
 13 12  1  0  0  0  0
 14 15  2  0  0  0  0
 14 12  1  0  0  0  0
 15 16  1  0  0  0  0
 16  9  2  0  0  0  0
 17 18  1  0  0  0  0
 19 17  1  0  0  0  0
 20 17  1  0  0  0  0
M  END
>  <minimizedAffinity>
-5.37387276

>  <minimizedRMSD>
0.453760415

$$$$
