
 OpenBabel03272502403D

 39 42  0  0  1  0  0  0  0  0999 V2000
   35.4740   29.9920   33.5740 N   0  0  0  0  0  0  0  0  0  0  0  0
   35.6320   29.9000   32.1300 C   0  0  0  0  0  0  0  0  0  0  0  0
   36.4870   28.6810   31.9570 C   0  0  0  0  0  0  0  0  0  0  0  0
   36.9330   28.2830   33.4350 C   0  0  1  0  0  0  0  0  0  0  0  0
   35.7140   28.6580   34.1600 C   0  0  0  0  0  0  0  0  0  0  0  0
   34.6990   29.8740   31.5700 H   0  0  0  0  0  0  0  0  0  0  0  0
   36.2730   30.7830   31.8520 H   0  0  0  0  0  0  0  0  0  0  0  0
   37.4060   28.8240   31.3920 H   0  0  0  0  0  0  0  0  0  0  0  0
   35.9150   27.8410   31.5490 H   0  0  0  0  0  0  0  0  0  0  0  0
   37.8080   28.9400   33.5290 H   0  0  0  0  0  0  0  0  0  0  0  0
   35.8140   28.7380   35.2590 H   0  0  0  0  0  0  0  0  0  0  0  0
   34.8540   28.0130   33.9230 H   0  0  0  0  0  0  0  0  0  0  0  0
   38.0320   27.0560   35.7390 F   0  0  0  0  0  0  0  0  0  0  0  0
   37.7520   26.3510   34.6240 C   0  0  0  0  0  0  0  0  0  0  0  0
   37.2780   26.8620   33.4400 C   0  0  0  0  0  0  0  0  0  0  0  0
   37.0730   25.9750   32.3710 C   0  0  0  0  0  0  0  0  0  0  0  0
   37.3310   24.6260   32.4850 C   0  0  0  0  0  0  0  0  0  0  0  0
   37.8100   24.1330   33.6940 C   0  0  0  0  0  0  0  0  0  0  0  0
   38.0200   25.0150   34.7700 C   0  0  0  0  0  0  0  0  0  0  0  0
   36.7010   26.4810   31.4880 H   0  0  0  0  0  0  0  0  0  0  0  0
   37.1520   24.0110   31.6340 H   0  0  0  0  0  0  0  0  0  0  0  0
   37.9760   23.0830   33.6740 H   0  0  0  0  0  0  0  0  0  0  0  0
   38.5140   24.3260   35.9380 C   0  0  0  0  0  0  0  0  0  0  0  0
   37.9570   24.2760   37.1880 C   0  0  0  0  0  0  0  0  0  0  0  0
   37.0470   24.7900   37.3780 H   0  0  0  0  0  0  0  0  0  0  0  0
   38.4470   23.6110   38.2840 C   0  0  0  0  0  0  0  0  0  0  0  0
   37.9600   23.6100   39.2420 H   0  0  0  0  0  0  0  0  0  0  0  0
   39.6230   22.9050   38.1590 C   0  0  0  0  0  3  0  0  0  0  0  0
   40.1950   22.9470   36.9070 C   0  0  0  0  0  3  0  0  0  0  0  0
   39.6530   23.6200   35.8880 N   0  0  0  0  0  0  0  0  0  0  0  0
   35.1580   31.1380   34.3220 C   0  0  0  0  0  0  0  0  0  0  0  0
   35.6730   31.1850   35.6260 C   0  0  0  0  0  0  0  0  0  0  0  0
   35.3890   32.2980   36.4330 C   0  0  0  0  0  0  0  0  0  0  0  0
   34.6050   33.2860   35.8640 N   0  0  0  0  0  0  0  0  0  0  0  0
   34.1300   33.2080   34.6160 C   0  0  0  0  0  0  0  0  0  0  0  0
   34.4060   32.1290   33.8360 N   0  0  0  0  0  0  0  0  0  0  0  0
   36.2860   30.4410   36.1080 H   0  0  0  0  0  0  0  0  0  0  0  0
   35.7510   32.4050   37.4450 H   0  0  0  0  0  0  0  0  0  0  0  0
   33.5310   34.0370   34.2800 H   0  0  0  0  0  0  0  0  0  0  0  0
  1  5  1  0  0  0  0
  1 31  1  0  0  0  0
  2  1  1  0  0  0  0
  3  2  1  0  0  0  0
  3  4  1  0  0  0  0
  4 15  1  0  0  0  0
  4 10  1  1  0  0  0
  4  5  1  0  0  0  0
  5 11  1  0  0  0  0
  6  2  1  0  0  0  0
  7  2  1  0  0  0  0
  8  3  1  0  0  0  0
  9  3  1  0  0  0  0
 12  5  1  0  0  0  0
 14 19  1  0  0  0  0
 14 13  1  0  0  0  0
 15 14  2  0  0  0  0
 16 17  2  0  0  0  0
 16 15  1  0  0  0  0
 17 18  1  0  0  0  0
 18 19  2  0  0  0  0
 19 23  1  0  0  0  0
 20 16  1  0  0  0  0
 21 17  1  0  0  0  0
 22 18  1  0  0  0  0
 23 24  1  0  0  0  0
 24 25  1  0  0  0  0
 24 26  2  0  0  0  0
 26 27  1  0  0  0  0
 28 26  1  0  0  0  0
 29 28  2  0  0  0  0
 30 23  2  0  0  0  0
 30 29  1  0  0  0  0
 31 32  1  0  0  0  0
 32 37  1  0  0  0  0
 32 33  2  0  0  0  0
 33 38  1  0  0  0  0
 34 33  1  0  0  0  0
 35 34  2  0  0  0  0
 36 31  2  0  0  0  0
 36 35  1  0  0  0  0
 39 35  1  0  0  0  0
M  END
>  <minimizedAffinity>
-5.91296959

$$$$

 OpenBabel03272502403D

 39 42  0  0  1  0  0  0  0  0999 V2000
   35.2010   30.1130   33.8000 N   0  0  0  0  0  0  0  0  0  0  0  0
   35.5320   30.1610   32.3840 C   0  0  0  0  0  0  0  0  0  0  0  0
   36.4530   28.9900   32.2090 C   0  0  0  0  0  0  0  0  0  0  0  0
   36.7360   28.4690   33.6890 C   0  0  1  0  0  0  0  0  0  0  0  0
   35.4260   28.7370   34.2910 C   0  0  0  0  0  0  0  0  0  0  0  0
   34.6740   30.1580   31.7150 H   0  0  0  0  0  0  0  0  0  0  0  0
   36.1640   31.0850   32.2660 H   0  0  0  0  0  0  0  0  0  0  0  0
   37.4250   29.2130   31.7750 H   0  0  0  0  0  0  0  0  0  0  0  0
   35.9690   28.1740   31.6610 H   0  0  0  0  0  0  0  0  0  0  0  0
   37.5660   29.1410   33.9460 H   0  0  0  0  0  0  0  0  0  0  0  0
   35.3920   28.7180   35.3960 H   0  0  0  0  0  0  0  0  0  0  0  0
   34.6270   28.0910   33.8950 H   0  0  0  0  0  0  0  0  0  0  0  0
   37.8660   27.1460   35.9240 F   0  0  0  0  0  0  0  0  0  0  0  0
   37.6230   26.5020   34.7640 C   0  0  0  0  0  0  0  0  0  0  0  0
   37.1380   27.0660   33.6100 C   0  0  0  0  0  0  0  0  0  0  0  0
   36.9760   26.2390   32.4860 C   0  0  0  0  0  0  0  0  0  0  0  0
   37.2870   24.8970   32.5190 C   0  0  0  0  0  0  0  0  0  0  0  0
   37.7760   24.3490   33.7000 C   0  0  0  0  0  0  0  0  0  0  0  0
   37.9420   25.1710   34.8310 C   0  0  0  0  0  0  0  0  0  0  0  0
   36.5910   26.7840   31.6330 H   0  0  0  0  0  0  0  0  0  0  0  0
   37.1380   24.3290   31.6310 H   0  0  0  0  0  0  0  0  0  0  0  0
   37.9840   23.3100   33.6170 H   0  0  0  0  0  0  0  0  0  0  0  0
   38.4540   24.4310   35.9590 C   0  0  0  0  0  0  0  0  0  0  0  0
   39.6340   23.7410   36.0520 C   0  0  0  0  0  0  0  0  0  0  0  0
   40.2930   23.7150   35.2200 H   0  0  0  0  0  0  0  0  0  0  0  0
   40.1000   23.0440   37.1390 C   0  0  0  0  0  0  0  0  0  0  0  0
   41.0380   22.5220   37.1490 H   0  0  0  0  0  0  0  0  0  0  0  0
   39.3300   23.0090   38.2820 C   0  0  0  0  0  3  0  0  0  0  0  0
   38.1410   23.6970   38.2020 C   0  0  0  0  0  3  0  0  0  0  0  0
   37.7580   24.3530   37.1030 N   0  0  0  0  0  0  0  0  0  0  0  0
   34.7510   31.1740   34.6030 C   0  0  0  0  0  0  0  0  0  0  0  0
   35.5490   31.4890   35.7140 C   0  0  0  0  0  0  0  0  0  0  0  0
   35.1540   32.5340   36.5630 C   0  0  0  0  0  0  0  0  0  0  0  0
   33.9800   33.1870   36.2310 N   0  0  0  0  0  0  0  0  0  0  0  0
   33.2440   32.8600   35.1630 C   0  0  0  0  0  0  0  0  0  0  0  0
   33.6280   31.8480   34.3410 N   0  0  0  0  0  0  0  0  0  0  0  0
   36.4670   31.0080   36.0090 H   0  0  0  0  0  0  0  0  0  0  0  0
   35.7160   32.8340   37.4360 H   0  0  0  0  0  0  0  0  0  0  0  0
   32.3500   33.4380   35.0030 H   0  0  0  0  0  0  0  0  0  0  0  0
  1  5  1  0  0  0  0
  1 31  1  0  0  0  0
  2  1  1  0  0  0  0
  3  2  1  0  0  0  0
  3  4  1  0  0  0  0
  4 10  1  1  0  0  0
  4  5  1  0  0  0  0
  5 11  1  0  0  0  0
  6  2  1  0  0  0  0
  7  2  1  0  0  0  0
  8  3  1  0  0  0  0
  9  3  1  0  0  0  0
 12  5  1  0  0  0  0
 14 19  1  0  0  0  0
 14 13  1  0  0  0  0
 15  4  1  0  0  0  0
 15 14  2  0  0  0  0
 16 17  2  0  0  0  0
 16 15  1  0  0  0  0
 17 18  1  0  0  0  0
 18 19  2  0  0  0  0
 19 23  1  0  0  0  0
 20 16  1  0  0  0  0
 21 17  1  0  0  0  0
 22 18  1  0  0  0  0
 23 24  2  0  0  0  0
 23 30  1  0  0  0  0
 24 26  1  0  0  0  0
 25 24  1  0  0  0  0
 26 27  1  0  0  0  0
 26 28  2  0  0  0  0
 29 28  1  0  0  0  0
 30 29  2  0  0  0  0
 31 32  1  0  0  0  0
 32 37  1  0  0  0  0
 32 33  2  0  0  0  0
 33 38  1  0  0  0  0
 34 33  1  0  0  0  0
 35 34  2  0  0  0  0
 36 31  2  0  0  0  0
 36 35  1  0  0  0  0
 39 35  1  0  0  0  0
M  END
>  <minimizedAffinity>
-5.84558773

$$$$

 OpenBabel03272502403D

 39 42  0  0  1  0  0  0  0  0999 V2000
   37.3130   25.1030   32.5170 N   0  0  0  0  0  0  0  0  0  0  0  0
   38.4340   25.6400   33.2750 C   0  0  0  0  0  0  0  0  0  0  0  0
   38.3330   27.1170   33.0330 C   0  0  0  0  0  0  0  0  0  0  0  0
   37.2030   27.2710   31.9180 C   0  0  1  0  0  0  0  0  0  0  0  0
   36.3160   26.1760   32.3260 C   0  0  0  0  0  0  0  0  0  0  0  0
   38.4500   25.3600   34.3260 H   0  0  0  0  0  0  0  0  0  0  0  0
   39.3500   25.2880   32.7240 H   0  0  0  0  0  0  0  0  0  0  0  0
   39.2240   27.5920   32.6280 H   0  0  0  0  0  0  0  0  0  0  0  0
   37.9890   27.6500   33.9250 H   0  0  0  0  0  0  0  0  0  0  0  0
   37.8260   27.1210   31.0260 H   0  0  0  0  0  0  0  0  0  0  0  0
   35.5620   25.8660   31.5790 H   0  0  0  0  0  0  0  0  0  0  0  0
   35.8140   26.3610   33.2880 H   0  0  0  0  0  0  0  0  0  0  0  0
   35.9360   28.1660   34.2880 F   0  0  0  0  0  0  0  0  0  0  0  0
   36.1070   28.9770   33.2230 C   0  0  0  0  0  0  0  0  0  0  0  0
   36.6510   28.6210   32.0130 C   0  0  0  0  0  0  0  0  0  0  0  0
   36.7210   29.5980   31.0060 C   0  0  0  0  0  0  0  0  0  0  0  0
   36.2660   30.8830   31.2060 C   0  0  0  0  0  0  0  0  0  0  0  0
   35.7200   31.2180   32.4410 C   0  0  0  0  0  0  0  0  0  0  0  0
   35.6450   30.2460   33.4550 C   0  0  0  0  0  0  0  0  0  0  0  0
   37.1630   29.2120   30.0960 H   0  0  0  0  0  0  0  0  0  0  0  0
   36.3510   31.5730   30.4000 H   0  0  0  0  0  0  0  0  0  0  0  0
   35.4000   32.2310   32.4880 H   0  0  0  0  0  0  0  0  0  0  0  0
   35.0550   30.7750   34.6610 C   0  0  0  0  0  0  0  0  0  0  0  0
   35.6650   31.4920   35.6550 C   0  0  0  0  0  0  0  0  0  0  0  0
   36.7000   31.7170   35.5810 H   0  0  0  0  0  0  0  0  0  0  0  0
   35.0800   31.9860   36.7950 C   0  0  0  0  0  0  0  0  0  0  0  0
   35.6160   32.5450   37.5400 H   0  0  0  0  0  0  0  0  0  0  0  0
   33.7370   31.7590   37.0010 C   0  0  0  0  0  3  0  0  0  0  0  0
   33.1110   31.0390   36.0100 C   0  0  0  0  0  3  0  0  0  0  0  0
   33.7530   30.5910   34.9270 N   0  0  0  0  0  0  0  0  0  0  0  0
   37.1700   23.7960   32.0260 C   0  0  0  0  0  0  0  0  0  0  0  0
   35.8850   23.4370   31.5900 C   0  0  0  0  0  0  0  0  0  0  0  0
   35.6680   22.1430   31.0930 C   0  0  0  0  0  0  0  0  0  0  0  0
   36.7660   21.3010   31.0710 N   0  0  0  0  0  0  0  0  0  0  0  0
   37.9780   21.6760   31.4940 C   0  0  0  0  0  0  0  0  0  0  0  0
   38.1860   22.9300   31.9750 N   0  0  0  0  0  0  0  0  0  0  0  0
   35.0040   24.0590   31.5900 H   0  0  0  0  0  0  0  0  0  0  0  0
   34.7080   21.7950   30.7400 H   0  0  0  0  0  0  0  0  0  0  0  0
   38.7570   20.9360   31.4290 H   0  0  0  0  0  0  0  0  0  0  0  0
  1  2  1  0  0  0  0
  2  6  1  0  0  0  0
  3  2  1  0  0  0  0
  3  9  1  0  0  0  0
  4 10  1  6  0  0  0
  4 15  1  0  0  0  0
  4  5  1  0  0  0  0
  4  3  1  0  0  0  0
  5  1  1  0  0  0  0
  5 12  1  0  0  0  0
  7  2  1  0  0  0  0
  8  3  1  0  0  0  0
 11  5  1  0  0  0  0
 14 19  1  0  0  0  0
 14 13  1  0  0  0  0
 15 14  2  0  0  0  0
 16 17  2  0  0  0  0
 16 15  1  0  0  0  0
 17 18  1  0  0  0  0
 18 22  1  0  0  0  0
 18 19  2  0  0  0  0
 19 23  1  0  0  0  0
 20 16  1  0  0  0  0
 21 17  1  0  0  0  0
 23 30  2  0  0  0  0
 23 24  1  0  0  0  0
 24 26  2  0  0  0  0
 25 24  1  0  0  0  0
 26 28  1  0  0  0  0
 26 27  1  0  0  0  0
 29 28  2  0  0  0  0
 30 29  1  0  0  0  0
 31  1  1  0  0  0  0
 32 31  2  0  0  0  0
 33 32  1  0  0  0  0
 34 33  2  0  0  0  0
 34 35  1  0  0  0  0
 35 36  2  0  0  0  0
 36 31  1  0  0  0  0
 37 32  1  0  0  0  0
 38 33  1  0  0  0  0
 39 35  1  0  0  0  0
M  END
>  <minimizedAffinity>
-5.84034014

$$$$

 OpenBabel03272502403D

 39 42  0  0  1  0  0  0  0  0999 V2000
   39.5420   24.5830   34.3170 N   0  0  0  0  0  0  0  0  0  0  0  0
   39.6850   24.2740   32.9020 C   0  0  0  0  0  0  0  0  0  0  0  0
   38.6600   25.1570   32.2550 C   0  0  0  0  0  0  0  0  0  0  0  0
   37.8360   25.7820   33.4690 C   0  0  1  0  0  0  0  0  0  0  0  0
   38.9190   25.9160   34.4480 C   0  0  0  0  0  0  0  0  0  0  0  0
   40.6920   24.3950   32.5080 H   0  0  0  0  0  0  0  0  0  0  0  0
   39.3090   23.2180   32.7970 H   0  0  0  0  0  0  0  0  0  0  0  0
   37.9330   24.6540   31.6230 H   0  0  0  0  0  0  0  0  0  0  0  0
   39.1260   25.9870   31.7140 H   0  0  0  0  0  0  0  0  0  0  0  0
   37.1110   24.9690   33.6140 H   0  0  0  0  0  0  0  0  0  0  0  0
   38.6020   26.0860   35.4940 H   0  0  0  0  0  0  0  0  0  0  0  0
   39.6630   26.6780   34.1690 H   0  0  0  0  0  0  0  0  0  0  0  0
   36.3760   27.4320   35.2490 F   0  0  0  0  0  0  0  0  0  0  0  0
   36.5830   27.7820   33.9630 C   0  0  0  0  0  0  0  0  0  0  0  0
   37.2200   27.0260   33.0090 C   0  0  0  0  0  0  0  0  0  0  0  0
   37.3150   27.5440   31.7070 C   0  0  0  0  0  0  0  0  0  0  0  0
   36.7920   28.7750   31.3750 C   0  0  0  0  0  0  0  0  0  0  0  0
   36.1520   29.5210   32.3580 C   0  0  0  0  0  0  0  0  0  0  0  0
   36.0510   29.0090   33.6650 C   0  0  0  0  0  0  0  0  0  0  0  0
   37.8330   26.8680   31.0380 H   0  0  0  0  0  0  0  0  0  0  0  0
   36.9010   29.1070   30.3690 H   0  0  0  0  0  0  0  0  0  0  0  0
   35.7850   30.4520   31.9960 H   0  0  0  0  0  0  0  0  0  0  0  0
   35.3600   29.9200   34.5450 C   0  0  0  0  0  0  0  0  0  0  0  0
   35.8990   30.8780   35.3620 C   0  0  0  0  0  0  0  0  0  0  0  0
   36.9520   31.0110   35.3900 H   0  0  0  0  0  0  0  0  0  0  0  0
   35.2180   31.7350   36.1910 C   0  0  0  0  0  0  0  0  0  0  0  0
   35.7020   32.4680   36.8090 H   0  0  0  0  0  0  0  0  0  0  0  0
   33.8430   31.6580   36.2370 C   0  0  0  0  0  3  0  0  0  0  0  0
   33.2880   30.6990   35.4210 C   0  0  0  0  0  3  0  0  0  0  0  0
   34.0220   29.9010   34.6410 N   0  0  0  0  0  0  0  0  0  0  0  0
   39.9130   23.7740   35.4040 C   0  0  0  0  0  0  0  0  0  0  0  0
   39.0470   23.7890   36.5080 C   0  0  0  0  0  0  0  0  0  0  0  0
   39.3600   23.0100   37.6320 C   0  0  0  0  0  0  0  0  0  0  0  0
   40.5270   22.2690   37.5610 N   0  0  0  0  0  0  0  0  0  0  0  0
   41.3300   22.2780   36.4920 C   0  0  0  0  0  0  0  0  0  0  0  0
   41.0250   23.0340   35.4030 N   0  0  0  0  0  0  0  0  0  0  0  0
   38.1320   24.3490   36.6050 H   0  0  0  0  0  0  0  0  0  0  0  0
   38.7430   22.9700   38.5180 H   0  0  0  0  0  0  0  0  0  0  0  0
   42.2100   21.6620   36.5500 H   0  0  0  0  0  0  0  0  0  0  0  0
  1  5  1  0  0  0  0
  1 31  1  0  0  0  0
  2  1  1  0  0  0  0
  3  2  1  0  0  0  0
  3  4  1  0  0  0  0
  4 10  1  1  0  0  0
  4  5  1  0  0  0  0
  5 11  1  0  0  0  0
  6  2  1  0  0  0  0
  7  2  1  0  0  0  0
  8  3  1  0  0  0  0
  9  3  1  0  0  0  0
 12  5  1  0  0  0  0
 14 13  1  0  0  0  0
 15  4  1  0  0  0  0
 15 14  2  0  0  0  0
 16 15  1  0  0  0  0
 17 16  2  0  0  0  0
 17 18  1  0  0  0  0
 18 19  2  0  0  0  0
 19 14  1  0  0  0  0
 19 23  1  0  0  0  0
 20 16  1  0  0  0  0
 21 17  1  0  0  0  0
 22 18  1  0  0  0  0
 23 30  2  0  0  0  0
 23 24  1  0  0  0  0
 24 25  1  0  0  0  0
 24 26  2  0  0  0  0
 26 28  1  0  0  0  0
 26 27  1  0  0  0  0
 29 28  2  0  0  0  0
 30 29  1  0  0  0  0
 31 32  1  0  0  0  0
 32 37  1  0  0  0  0
 32 33  2  0  0  0  0
 33 38  1  0  0  0  0
 34 33  1  0  0  0  0
 35 39  1  0  0  0  0
 35 34  2  0  0  0  0
 36 31  2  0  0  0  0
 36 35  1  0  0  0  0
M  END
>  <minimizedAffinity>
-5.81604195

$$$$

 OpenBabel03272502403D

 39 42  0  0  1  0  0  0  0  0999 V2000
   38.8460   25.3090   33.3390 N   0  0  0  0  0  0  0  0  0  0  0  0
   38.9000   25.3180   31.8850 C   0  0  0  0  0  0  0  0  0  0  0  0
   37.9150   26.3870   31.5140 C   0  0  0  0  0  0  0  0  0  0  0  0
   37.1960   26.7720   32.8840 C   0  0  1  0  0  0  0  0  0  0  0  0
   38.3310   26.6150   33.8000 C   0  0  0  0  0  0  0  0  0  0  0  0
   39.8930   25.4620   31.4650 H   0  0  0  0  0  0  0  0  0  0  0  0
   38.4420   24.3390   31.5720 H   0  0  0  0  0  0  0  0  0  0  0  0
   37.1230   26.0850   30.8310 H   0  0  0  0  0  0  0  0  0  0  0  0
   38.4160   27.2870   31.1410 H   0  0  0  0  0  0  0  0  0  0  0  0
   36.4200   25.9950   32.8900 H   0  0  0  0  0  0  0  0  0  0  0  0
   38.0760   26.5650   34.8750 H   0  0  0  0  0  0  0  0  0  0  0  0
   39.1160   27.3720   33.6510 H   0  0  0  0  0  0  0  0  0  0  0  0
   35.8670   28.0320   35.0440 F   0  0  0  0  0  0  0  0  0  0  0  0
   36.0780   28.6660   33.8730 C   0  0  0  0  0  0  0  0  0  0  0  0
   36.6550   28.1240   32.7500 C   0  0  0  0  0  0  0  0  0  0  0  0
   36.7650   28.9320   31.6060 C   0  0  0  0  0  0  0  0  0  0  0  0
   36.3160   30.2340   31.5900 C   0  0  0  0  0  0  0  0  0  0  0  0
   35.7370   30.7600   32.7390 C   0  0  0  0  0  0  0  0  0  0  0  0
   35.6210   29.9580   33.8890 C   0  0  0  0  0  0  0  0  0  0  0  0
   37.2300   28.4060   30.7820 H   0  0  0  0  0  0  0  0  0  0  0  0
   36.4330   30.7900   30.6890 H   0  0  0  0  0  0  0  0  0  0  0  0
   35.4250   31.7700   32.6190 H   0  0  0  0  0  0  0  0  0  0  0  0
   35.0000   30.6710   34.9790 C   0  0  0  0  0  0  0  0  0  0  0  0
   35.5860   31.5310   35.8690 C   0  0  0  0  0  0  0  0  0  0  0  0
   36.6250   31.7360   35.7930 H   0  0  0  0  0  0  0  0  0  0  0  0
   34.9720   32.2000   36.8990 C   0  0  0  0  0  0  0  0  0  0  0  0
   35.4900   32.8650   37.5640 H   0  0  0  0  0  0  0  0  0  0  0  0
   33.6200   32.0150   37.0950 C   0  0  0  0  0  3  0  0  0  0  0  0
   33.0180   31.1520   36.2080 C   0  0  0  0  0  3  0  0  0  0  0  0
   33.6890   30.5380   35.2290 N   0  0  0  0  0  0  0  0  0  0  0  0
   39.2060   24.2550   34.1940 C   0  0  0  0  0  0  0  0  0  0  0  0
   38.2750   23.2110   34.3110 C   0  0  0  0  0  0  0  0  0  0  0  0
   38.5670   22.1290   35.1560 C   0  0  0  0  0  0  0  0  0  0  0  0
   39.7780   22.1770   35.8230 N   0  0  0  0  0  0  0  0  0  0  0  0
   40.6420   23.1890   35.6870 C   0  0  0  0  0  0  0  0  0  0  0  0
   40.3580   24.2370   34.8690 N   0  0  0  0  0  0  0  0  0  0  0  0
   37.3230   23.1330   33.8130 H   0  0  0  0  0  0  0  0  0  0  0  0
   37.9010   21.2890   35.2960 H   0  0  0  0  0  0  0  0  0  0  0  0
   41.5530   23.1190   36.2550 H   0  0  0  0  0  0  0  0  0  0  0  0
  1  5  1  0  0  0  0
  1 31  1  0  0  0  0
  2  1  1  0  0  0  0
  3  2  1  0  0  0  0
  3  4  1  0  0  0  0
  4 10  1  1  0  0  0
  4  5  1  0  0  0  0
  5 11  1  0  0  0  0
  6  2  1  0  0  0  0
  7  2  1  0  0  0  0
  8  3  1  0  0  0  0
  9  3  1  0  0  0  0
 12  5  1  0  0  0  0
 14 19  1  0  0  0  0
 14 13  1  0  0  0  0
 15  4  1  0  0  0  0
 15 14  2  0  0  0  0
 16 15  1  0  0  0  0
 17 16  2  0  0  0  0
 17 18  1  0  0  0  0
 18 19  2  0  0  0  0
 19 23  1  0  0  0  0
 20 16  1  0  0  0  0
 21 17  1  0  0  0  0
 22 18  1  0  0  0  0
 23 30  2  0  0  0  0
 23 24  1  0  0  0  0
 24 26  2  0  0  0  0
 25 24  1  0  0  0  0
 26 28  1  0  0  0  0
 26 27  1  0  0  0  0
 29 28  2  0  0  0  0
 30 29  1  0  0  0  0
 31 32  2  0  0  0  0
 31 36  1  0  0  0  0
 32 33  1  0  0  0  0
 33 38  1  0  0  0  0
 33 34  2  0  0  0  0
 35 34  1  0  0  0  0
 35 39  1  0  0  0  0
 36 35  2  0  0  0  0
 37 32  1  0  0  0  0
M  END
>  <minimizedAffinity>
-5.76238775

$$$$

 OpenBabel03272502403D

 39 42  0  0  1  0  0  0  0  0999 V2000
   38.3980   24.8250   34.6110 N   0  0  0  0  0  0  0  0  0  0  0  0
   38.1780   24.1290   33.3520 C   0  0  0  0  0  0  0  0  0  0  0  0
   37.4150   25.1310   32.5380 C   0  0  0  0  0  0  0  0  0  0  0  0
   37.0760   26.3110   33.5550 C   0  0  1  0  0  0  0  0  0  0  0  0
   38.2950   26.2790   34.3700 C   0  0  0  0  0  0  0  0  0  0  0  0
   39.0800   23.7570   32.8720 H   0  0  0  0  0  0  0  0  0  0  0  0
   37.4550   23.3030   33.6020 H   0  0  0  0  0  0  0  0  0  0  0  0
   36.4610   24.7900   32.1410 H   0  0  0  0  0  0  0  0  0  0  0  0
   38.0310   25.5540   31.7370 H   0  0  0  0  0  0  0  0  0  0  0  0
   36.1570   25.8970   33.9910 H   0  0  0  0  0  0  0  0  0  0  0  0
   38.2440   26.8210   35.3330 H   0  0  0  0  0  0  0  0  0  0  0  0
   39.1920   26.6060   33.8210 H   0  0  0  0  0  0  0  0  0  0  0  0
   35.5530   28.4490   34.6160 F   0  0  0  0  0  0  0  0  0  0  0  0
   36.1430   28.5290   33.4060 C   0  0  0  0  0  0  0  0  0  0  0  0
   36.8470   27.5290   32.7800 C   0  0  0  0  0  0  0  0  0  0  0  0
   37.3670   27.7860   31.5010 C   0  0  0  0  0  0  0  0  0  0  0  0
   37.1900   29.0000   30.8740 C   0  0  0  0  0  0  0  0  0  0  0  0
   36.4740   29.9960   31.5290 C   0  0  0  0  0  0  0  0  0  0  0  0
   35.9480   29.7470   32.8100 C   0  0  0  0  0  0  0  0  0  0  0  0
   37.9000   26.9320   31.1010 H   0  0  0  0  0  0  0  0  0  0  0  0
   37.6130   29.1260   29.9050 H   0  0  0  0  0  0  0  0  0  0  0  0
   36.3960   30.8900   30.9580 H   0  0  0  0  0  0  0  0  0  0  0  0
   35.2420   30.8930   33.3300 C   0  0  0  0  0  0  0  0  0  0  0  0
   35.7660   32.0120   33.9200 C   0  0  0  0  0  0  0  0  0  0  0  0
   36.8170   32.1020   34.0330 H   0  0  0  0  0  0  0  0  0  0  0  0
   35.0710   33.0920   34.4070 C   0  0  0  0  0  0  0  0  0  0  0  0
   35.5430   33.9440   34.8590 H   0  0  0  0  0  0  0  0  0  0  0  0
   33.6960   33.0900   34.3130 C   0  0  0  0  0  3  0  0  0  0  0  0
   33.1560   31.9710   33.7230 C   0  0  0  0  0  3  0  0  0  0  0  0
   33.9030   30.9590   33.2740 N   0  0  0  0  0  0  0  0  0  0  0  0
   38.6590   24.2490   35.8650 C   0  0  0  0  0  0  0  0  0  0  0  0
   37.8390   24.6740   36.9220 C   0  0  0  0  0  0  0  0  0  0  0  0
   38.0490   24.1450   38.2040 C   0  0  0  0  0  0  0  0  0  0  0  0
   39.0720   23.2220   38.3290 N   0  0  0  0  0  0  0  0  0  0  0  0
   39.8350   22.8390   37.2990 C   0  0  0  0  0  0  0  0  0  0  0  0
   39.6310   23.3530   36.0570 N   0  0  0  0  0  0  0  0  0  0  0  0
   37.0330   25.3880   36.8690 H   0  0  0  0  0  0  0  0  0  0  0  0
   37.4580   24.4230   39.0650 H   0  0  0  0  0  0  0  0  0  0  0  0
   40.6010   22.1150   37.5150 H   0  0  0  0  0  0  0  0  0  0  0  0
  1 31  1  0  0  0  0
  2  7  1  0  0  0  0
  2  1  1  0  0  0  0
  3  2  1  0  0  0  0
  3  4  1  0  0  0  0
  4 10  1  1  0  0  0
  4  5  1  0  0  0  0
  5  1  1  0  0  0  0
  5 11  1  0  0  0  0
  6  2  1  0  0  0  0
  8  3  1  0  0  0  0
  9  3  1  0  0  0  0
 12  5  1  0  0  0  0
 14 13  1  0  0  0  0
 15 14  2  0  0  0  0
 15  4  1  0  0  0  0
 16 15  1  0  0  0  0
 17 16  2  0  0  0  0
 17 18  1  0  0  0  0
 18 19  2  0  0  0  0
 19 23  1  0  0  0  0
 19 14  1  0  0  0  0
 20 16  1  0  0  0  0
 21 17  1  0  0  0  0
 22 18  1  0  0  0  0
 23 24  1  0  0  0  0
 24 25  1  0  0  0  0
 24 26  2  0  0  0  0
 26 27  1  0  0  0  0
 28 26  1  0  0  0  0
 29 28  2  0  0  0  0
 30 23  2  0  0  0  0
 30 29  1  0  0  0  0
 31 36  2  0  0  0  0
 31 32  1  0  0  0  0
 32 33  2  0  0  0  0
 33 34  1  0  0  0  0
 33 38  1  0  0  0  0
 35 39  1  0  0  0  0
 35 34  2  0  0  0  0
 36 35  1  0  0  0  0
 37 32  1  0  0  0  0
M  END
>  <minimizedAffinity>
-5.61218596

$$$$

 OpenBabel03272502403D

 39 42  0  0  1  0  0  0  0  0999 V2000
   34.6630   30.6410   34.5220 N   0  0  0  0  0  0  0  0  0  0  0  0
   34.9000   30.9700   33.1240 C   0  0  0  0  0  0  0  0  0  0  0  0
   35.8500   29.8990   32.6780 C   0  0  0  0  0  0  0  0  0  0  0  0
   36.2480   29.1250   34.0150 C   0  0  1  0  0  0  0  0  0  0  0  0
   34.9700   29.2110   34.7290 C   0  0  0  0  0  0  0  0  0  0  0  0
   34.0010   31.0500   32.5160 H   0  0  0  0  0  0  0  0  0  0  0  0
   35.4880   31.9290   33.1480 H   0  0  0  0  0  0  0  0  0  0  0  0
   36.7830   30.2460   32.2400 H   0  0  0  0  0  0  0  0  0  0  0  0
   35.3630   29.1770   32.0140 H   0  0  0  0  0  0  0  0  0  0  0  0
   37.0670   29.7770   34.3470 H   0  0  0  0  0  0  0  0  0  0  0  0
   35.0090   28.9830   35.8110 H   0  0  0  0  0  0  0  0  0  0  0  0
   34.1730   28.6120   34.2630 H   0  0  0  0  0  0  0  0  0  0  0  0
   37.6320   27.4910   35.8680 F   0  0  0  0  0  0  0  0  0  0  0  0
   37.3080   27.0500   34.6350 C   0  0  0  0  0  0  0  0  0  0  0  0
   36.6960   27.7820   33.6470 C   0  0  0  0  0  0  0  0  0  0  0  0
   36.4640   27.1610   32.4100 C   0  0  0  0  0  0  0  0  0  0  0  0
   36.8290   25.8540   32.1720 C   0  0  0  0  0  0  0  0  0  0  0  0
   37.4470   25.1330   33.1890 C   0  0  0  0  0  0  0  0  0  0  0  0
   37.6850   25.7490   34.4320 C   0  0  0  0  0  0  0  0  0  0  0  0
   35.9800   27.8260   31.7060 H   0  0  0  0  0  0  0  0  0  0  0  0
   36.6220   25.4450   31.2110 H   0  0  0  0  0  0  0  0  0  0  0  0
   37.6880   24.1380   32.9010 H   0  0  0  0  0  0  0  0  0  0  0  0
   38.3290   24.8500   35.3590 C   0  0  0  0  0  0  0  0  0  0  0  0
   37.8430   24.3710   36.5460 C   0  0  0  0  0  0  0  0  0  0  0  0
   36.8770   24.6640   36.8740 H   0  0  0  0  0  0  0  0  0  0  0  0
   38.4770   23.5140   37.4120 C   0  0  0  0  0  0  0  0  0  0  0  0
   38.0390   23.1730   38.3320 H   0  0  0  0  0  0  0  0  0  0  0  0
   39.7380   23.0620   37.0910 C   0  0  0  0  0  3  0  0  0  0  0  0
   40.2390   23.5360   35.9000 C   0  0  0  0  0  3  0  0  0  0  0  0
   39.5570   24.3710   35.1110 N   0  0  0  0  0  0  0  0  0  0  0  0
   34.2260   31.5100   35.5350 C   0  0  0  0  0  0  0  0  0  0  0  0
   32.8600   31.4490   35.8530 C   0  0  0  0  0  0  0  0  0  0  0  0
   32.3530   32.2950   36.8520 C   0  0  0  0  0  0  0  0  0  0  0  0
   33.2620   33.1420   37.4590 N   0  0  0  0  0  0  0  0  0  0  0  0
   34.5590   33.1740   37.1310 C   0  0  0  0  0  0  0  0  0  0  0  0
   35.0480   32.3540   36.1640 N   0  0  0  0  0  0  0  0  0  0  0  0
   32.1190   30.8060   35.4060 H   0  0  0  0  0  0  0  0  0  0  0  0
   31.3150   32.3040   37.1500 H   0  0  0  0  0  0  0  0  0  0  0  0
   35.1710   33.8740   37.6720 H   0  0  0  0  0  0  0  0  0  0  0  0
  1  5  1  0  0  0  0
  1 31  1  0  0  0  0
  2  7  1  0  0  0  0
  2  1  1  0  0  0  0
  3  2  1  0  0  0  0
  3  4  1  0  0  0  0
  4 10  1  1  0  0  0
  4  5  1  0  0  0  0
  5 11  1  0  0  0  0
  6  2  1  0  0  0  0
  8  3  1  0  0  0  0
  9  3  1  0  0  0  0
 12  5  1  0  0  0  0
 14 13  1  0  0  0  0
 15  4  1  0  0  0  0
 15 14  2  0  0  0  0
 16 15  1  0  0  0  0
 17 16  2  0  0  0  0
 17 18  1  0  0  0  0
 18 19  2  0  0  0  0
 19 14  1  0  0  0  0
 19 23  1  0  0  0  0
 20 16  1  0  0  0  0
 21 17  1  0  0  0  0
 22 18  1  0  0  0  0
 23 24  1  0  0  0  0
 24 25  1  0  0  0  0
 24 26  2  0  0  0  0
 26 27  1  0  0  0  0
 28 26  1  0  0  0  0
 29 28  2  0  0  0  0
 30 23  2  0  0  0  0
 30 29  1  0  0  0  0
 31 32  2  0  0  0  0
 31 36  1  0  0  0  0
 32 33  1  0  0  0  0
 33 38  1  0  0  0  0
 33 34  2  0  0  0  0
 35 34  1  0  0  0  0
 35 39  1  0  0  0  0
 36 35  2  0  0  0  0
 37 32  1  0  0  0  0
M  END
>  <minimizedAffinity>
-5.57190847

$$$$

 OpenBabel03272502403D

 39 42  0  0  1  0  0  0  0  0999 V2000
   38.3560   24.6130   34.5140 N   0  0  0  0  0  0  0  0  0  0  0  0
   37.8520   23.8730   33.3670 C   0  0  0  0  0  0  0  0  0  0  0  0
   37.2300   24.9410   32.5180 C   0  0  0  0  0  0  0  0  0  0  0  0
   37.2650   26.2530   33.4230 C   0  0  1  0  0  0  0  0  0  0  0  0
   38.5340   26.0260   34.1220 C   0  0  0  0  0  0  0  0  0  0  0  0
   38.5960   23.2700   32.8510 H   0  0  0  0  0  0  0  0  0  0  0  0
   37.0050   23.2530   33.7720 H   0  0  0  0  0  0  0  0  0  0  0  0
   36.1870   24.7860   32.2500 H   0  0  0  0  0  0  0  0  0  0  0  0
   37.8270   25.1450   31.6220 H   0  0  0  0  0  0  0  0  0  0  0  0
   36.3340   26.0940   33.9850 H   0  0  0  0  0  0  0  0  0  0  0  0
   38.7070   26.6510   35.0190 H   0  0  0  0  0  0  0  0  0  0  0  0
   39.4110   26.0970   33.4610 H   0  0  0  0  0  0  0  0  0  0  0  0
   39.1380   26.5810   31.3240 F   0  0  0  0  0  0  0  0  0  0  0  0
   38.1290   27.4550   31.5200 C   0  0  0  0  0  0  0  0  0  0  0  0
   37.2110   27.4180   32.5410 C   0  0  0  0  0  0  0  0  0  0  0  0
   36.2450   28.4360   32.6000 C   0  0  0  0  0  0  0  0  0  0  0  0
   36.1990   29.4500   31.6690 C   0  0  0  0  0  0  0  0  0  0  0  0
   37.1390   29.4650   30.6440 C   0  0  0  0  0  0  0  0  0  0  0  0
   38.1120   28.4500   30.5780 C   0  0  0  0  0  0  0  0  0  0  0  0
   35.5750   28.3110   33.4420 H   0  0  0  0  0  0  0  0  0  0  0  0
   35.4390   30.1880   31.7740 H   0  0  0  0  0  0  0  0  0  0  0  0
   37.0150   30.2890   29.9830 H   0  0  0  0  0  0  0  0  0  0  0  0
   38.9950   28.6280   29.4510 C   0  0  0  0  0  0  0  0  0  0  0  0
   39.9650   29.5800   29.2800 C   0  0  0  0  0  0  0  0  0  0  0  0
   40.1310   30.3020   30.0400 H   0  0  0  0  0  0  0  0  0  0  0  0
   40.7950   29.7280   28.1960 C   0  0  0  0  0  0  0  0  0  0  0  0
   41.5390   30.4990   28.1230 H   0  0  0  0  0  0  0  0  0  0  0  0
   40.6730   28.8460   27.1450 C   0  0  0  0  0  3  0  0  0  0  0  0
   39.7020   27.8840   27.3030 C   0  0  0  0  0  3  0  0  0  0  0  0
   38.9330   27.8070   28.3920 N   0  0  0  0  0  0  0  0  0  0  0  0
   38.6290   24.1080   35.7960 C   0  0  0  0  0  0  0  0  0  0  0  0
   37.7770   24.5400   36.8240 C   0  0  0  0  0  0  0  0  0  0  0  0
   37.9980   24.0810   38.1310 C   0  0  0  0  0  0  0  0  0  0  0  0
   39.0640   23.2170   38.3080 N   0  0  0  0  0  0  0  0  0  0  0  0
   39.8560   22.8250   37.3050 C   0  0  0  0  0  0  0  0  0  0  0  0
   39.6410   23.2710   36.0380 N   0  0  0  0  0  0  0  0  0  0  0  0
   36.9390   25.2110   36.7310 H   0  0  0  0  0  0  0  0  0  0  0  0
   37.3840   24.3700   38.9730 H   0  0  0  0  0  0  0  0  0  0  0  0
   40.6540   22.1500   37.5610 H   0  0  0  0  0  0  0  0  0  0  0  0
  1 31  1  0  0  0  0
  2  7  1  0  0  0  0
  2  1  1  0  0  0  0
  3  2  1  0  0  0  0
  3  4  1  0  0  0  0
  4 10  1  1  0  0  0
  4  5  1  0  0  0  0
  5  1  1  0  0  0  0
  5 11  1  0  0  0  0
  6  2  1  0  0  0  0
  8  3  1  0  0  0  0
  9  3  1  0  0  0  0
 12  5  1  0  0  0  0
 13 14  1  0  0  0  0
 14 15  1  0  0  0  0
 15 16  2  0  0  0  0
 15  4  1  0  0  0  0
 16 20  1  0  0  0  0
 17 21  1  0  0  0  0
 17 16  1  0  0  0  0
 18 17  2  0  0  0  0
 19 18  1  0  0  0  0
 19 14  2  0  0  0  0
 22 18  1  0  0  0  0
 23 19  1  0  0  0  0
 24 23  1  0  0  0  0
 24 25  1  0  0  0  0
 26 24  2  0  0  0  0
 27 26  1  0  0  0  0
 28 29  2  0  0  0  0
 28 26  1  0  0  0  0
 29 30  1  0  0  0  0
 30 23  2  0  0  0  0
 31 36  2  0  0  0  0
 31 32  1  0  0  0  0
 32 33  2  0  0  0  0
 33 34  1  0  0  0  0
 33 38  1  0  0  0  0
 35 39  1  0  0  0  0
 35 34  2  0  0  0  0
 36 35  1  0  0  0  0
 37 32  1  0  0  0  0
M  END
>  <minimizedAffinity>
-5.42263365

$$$$

 OpenBabel03272502403D

 39 42  0  0  1  0  0  0  0  0999 V2000
   35.9120   26.6950   31.3290 N   0  0  0  0  0  0  0  0  0  0  0  0
   34.7900   25.9350   30.7990 C   0  0  0  0  0  0  0  0  0  0  0  0
   35.1730   24.5140   31.0890 C   0  0  0  0  0  0  0  0  0  0  0  0
   36.6770   24.5960   31.6140 C   0  0  1  0  0  0  0  0  0  0  0  0
   36.6060   25.8690   32.3390 C   0  0  0  0  0  0  0  0  0  0  0  0
   33.8170   26.2230   31.1910 H   0  0  0  0  0  0  0  0  0  0  0  0
   34.8570   26.0620   29.6820 H   0  0  0  0  0  0  0  0  0  0  0  0
   35.1880   23.8430   30.2320 H   0  0  0  0  0  0  0  0  0  0  0  0
   34.5660   24.0880   31.8950 H   0  0  0  0  0  0  0  0  0  0  0  0
   37.1930   24.5850   30.6450 H   0  0  0  0  0  0  0  0  0  0  0  0
   37.5780   26.3270   32.6020 H   0  0  0  0  0  0  0  0  0  0  0  0
   35.9760   25.8190   33.2410 H   0  0  0  0  0  0  0  0  0  0  0  0
   38.7160   24.5910   33.5790 F   0  0  0  0  0  0  0  0  0  0  0  0
   37.9150   23.5240   33.3840 C   0  0  0  0  0  0  0  0  0  0  0  0
   36.9430   23.4060   32.4200 C   0  0  0  0  0  0  0  0  0  0  0  0
   36.2250   22.2010   32.3490 C   0  0  0  0  0  0  0  0  0  0  0  0
   36.4700   21.1560   33.2120 C   0  0  0  0  0  0  0  0  0  0  0  0
   37.4590   21.3000   34.1790 C   0  0  0  0  0  0  0  0  0  0  0  0
   38.1850   22.5030   34.2570 C   0  0  0  0  0  0  0  0  0  0  0  0
   35.4880   22.2140   31.5550 H   0  0  0  0  0  0  0  0  0  0  0  0
   35.8870   20.2710   33.1020 H   0  0  0  0  0  0  0  0  0  0  0  0
   37.5670   20.4370   34.7900 H   0  0  0  0  0  0  0  0  0  0  0  0
   39.1620   22.4710   35.3190 C   0  0  0  0  0  0  0  0  0  0  0  0
   40.4990   22.1900   35.2280 C   0  0  0  0  0  0  0  0  0  0  0  0
   40.9240   21.9610   34.2820 H   0  0  0  0  0  0  0  0  0  0  0  0
   41.4090   22.1670   36.2550 C   0  0  0  0  0  0  0  0  0  0  0  0
   42.4500   21.9390   36.1180 H   0  0  0  0  0  0  0  0  0  0  0  0
   40.9740   22.4510   37.5310 C   0  0  0  0  0  3  0  0  0  0  0  0
   39.6320   22.7350   37.6370 C   0  0  0  0  0  3  0  0  0  0  0  0
   38.8090   22.7370   36.5850 N   0  0  0  0  0  0  0  0  0  0  0  0
   36.3070   27.9910   30.9630 C   0  0  0  0  0  0  0  0  0  0  0  0
   35.8960   29.0260   31.8170 C   0  0  0  0  0  0  0  0  0  0  0  0
   36.2500   30.3490   31.5080 C   0  0  0  0  0  0  0  0  0  0  0  0
   36.9950   30.5330   30.3570 N   0  0  0  0  0  0  0  0  0  0  0  0
   37.3700   29.5220   29.5640 C   0  0  0  0  0  0  0  0  0  0  0  0
   37.0270   28.2420   29.8660 N   0  0  0  0  0  0  0  0  0  0  0  0
   35.3170   28.9280   32.7210 H   0  0  0  0  0  0  0  0  0  0  0  0
   35.9700   31.1960   32.1170 H   0  0  0  0  0  0  0  0  0  0  0  0
   37.9470   29.7850   28.6960 H   0  0  0  0  0  0  0  0  0  0  0  0
  1  5  1  0  0  0  0
  2  3  1  0  0  0  0
  2  6  1  0  0  0  0
  2  1  1  0  0  0  0
  3  4  1  0  0  0  0
  3  9  1  0  0  0  0
  4 10  1  6  0  0  0
  4  5  1  0  0  0  0
  4 15  1  0  0  0  0
  5 11  1  0  0  0  0
  5 12  1  0  0  0  0
  7  2  1  0  0  0  0
  8  3  1  0  0  0  0
 14 13  1  0  0  0  0
 14 19  1  0  0  0  0
 15 14  2  0  0  0  0
 16 15  1  0  0  0  0
 16 17  2  0  0  0  0
 17 18  1  0  0  0  0
 18 19  2  0  0  0  0
 18 22  1  0  0  0  0
 19 23  1  0  0  0  0
 20 16  1  0  0  0  0
 21 17  1  0  0  0  0
 23 30  1  0  0  0  0
 24 23  2  0  0  0  0
 24 26  1  0  0  0  0
 25 24  1  0  0  0  0
 26 28  2  0  0  0  0
 27 26  1  0  0  0  0
 28 29  1  0  0  0  0
 30 29  2  0  0  0  0
 31  1  1  0  0  0  0
 31 32  1  0  0  0  0
 32 37  1  0  0  0  0
 33 32  2  0  0  0  0
 33 38  1  0  0  0  0
 34 33  1  0  0  0  0
 35 36  1  0  0  0  0
 35 34  2  0  0  0  0
 36 31  2  0  0  0  0
 39 35  1  0  0  0  0
M  END
>  <minimizedAffinity>
-5.37634325

$$$$
