
 OpenBabel03272510033D

 20 21  0  0  0  0  0  0  0  0999 V2000
   39.2590   22.9260   34.9910 C   0  0  0  0  0  0  0  0  0  0  0  0
   38.7060   23.9830   34.2570 C   0  0  0  0  0  0  0  0  0  0  0  0
   38.0220   24.9640   34.9590 C   0  0  0  0  0  0  0  0  0  0  0  0
   37.9280   24.8480   36.3120 N   0  0  0  0  0  0  0  0  0  0  0  0
   38.4740   23.8160   36.9810 C   0  0  0  0  0  0  0  0  0  0  0  0
   39.1330   22.8690   36.3120 N   0  0  0  0  0  0  0  0  0  0  0  0
   39.7820   22.1890   34.3930 H   0  0  0  0  0  0  0  0  0  0  0  0
   38.8050   24.0360   33.1820 H   0  0  0  0  0  0  0  0  0  0  0  0
   37.4220   26.0910   34.2520 C   0  0  0  0  0  0  0  0  0  0  0  0
   37.1010   27.2270   34.9620 C   0  0  0  0  0  0  0  0  0  0  0  0
   37.2790   27.3030   36.0150 H   0  0  0  0  0  0  0  0  0  0  0  0
   36.5370   28.2400   34.2060 C   0  0  0  0  0  0  0  0  0  0  0  0
   36.2610   29.1660   34.7070 H   0  0  0  0  0  0  0  0  0  0  0  0
   36.3470   28.0550   32.8740 C   0  0  0  0  0  3  0  0  0  0  0  0
   36.6760   26.9070   32.1740 C   0  0  0  0  0  3  0  0  0  0  0  0
   37.2190   25.9450   32.9300 N   0  0  0  0  0  0  0  0  0  0  0  0
   38.3160   23.7780   38.4580 C   0  0  0  0  0  0  0  0  0  0  0  0
   37.8730   24.9740   38.9740 F   0  0  0  0  0  0  0  0  0  0  0  0
   37.3550   22.8200   38.8250 F   0  0  0  0  0  0  0  0  0  0  0  0
   39.4510   23.4240   39.1240 F   0  0  0  0  0  0  0  0  0  0  0  0
  1  6  1  0  0  0  0
  2  3  1  0  0  0  0
  2  1  2  0  0  0  0
  3  4  2  0  0  0  0
  4  5  1  0  0  0  0
  5 17  1  0  0  0  0
  6  5  2  0  0  0  0
  7  1  1  0  0  0  0
  8  2  1  0  0  0  0
  9  3  1  0  0  0  0
  9 10  1  0  0  0  0
 10 11  1  0  0  0  0
 12 13  1  0  0  0  0
 12 10  2  0  0  0  0
 14 12  1  0  0  0  0
 15 14  2  0  0  0  0
 15 16  1  0  0  0  0
 16  9  2  0  0  0  0
 17 19  1  0  0  0  0
 17 18  1  0  0  0  0
 17 20  1  0  0  0  0
M  END
>  <minimizedAffinity>
-5.14699411

$$$$

 OpenBabel03272510033D

 20 21  0  0  0  0  0  0  0  0999 V2000
   40.3810   23.0400   35.1680 C   0  0  0  0  0  0  0  0  0  0  0  0
   39.4330   22.5180   34.2780 C   0  0  0  0  0  0  0  0  0  0  0  0
   38.1300   22.3850   34.7320 C   0  0  0  0  0  0  0  0  0  0  0  0
   37.8450   22.7670   36.0070 N   0  0  0  0  0  0  0  0  0  0  0  0
   38.7850   23.2650   36.8320 C   0  0  0  0  0  0  0  0  0  0  0  0
   40.0400   23.3960   36.4020 N   0  0  0  0  0  0  0  0  0  0  0  0
   41.3820   23.1230   34.7600 H   0  0  0  0  0  0  0  0  0  0  0  0
   39.7040   22.2260   33.2730 H   0  0  0  0  0  0  0  0  0  0  0  0
   37.0960   21.8470   33.8540 C   0  0  0  0  0  0  0  0  0  0  0  0
   36.2740   20.8490   34.3280 C   0  0  0  0  0  0  0  0  0  0  0  0
   36.3740   20.4600   35.3220 H   0  0  0  0  0  0  0  0  0  0  0  0
   35.3260   20.4030   33.4240 C   0  0  0  0  0  0  0  0  0  0  0  0
   34.6430   19.6160   33.7360 H   0  0  0  0  0  0  0  0  0  0  0  0
   35.2720   20.9550   32.1840 C   0  0  0  0  0  3  0  0  0  0  0  0
   36.1060   21.9580   31.7210 C   0  0  0  0  0  3  0  0  0  0  0  0
   37.0130   22.3690   32.6170 N   0  0  0  0  0  0  0  0  0  0  0  0
   38.3740   23.6540   38.2060 C   0  0  0  0  0  0  0  0  0  0  0  0
   37.9110   24.9470   38.2750 F   0  0  0  0  0  0  0  0  0  0  0  0
   37.3160   22.8420   38.6510 F   0  0  0  0  0  0  0  0  0  0  0  0
   39.3580   23.5050   39.1380 F   0  0  0  0  0  0  0  0  0  0  0  0
  1  6  1  0  0  0  0
  2  3  1  0  0  0  0
  2  1  2  0  0  0  0
  3  4  2  0  0  0  0
  4  5  1  0  0  0  0
  5 17  1  0  0  0  0
  6  5  2  0  0  0  0
  7  1  1  0  0  0  0
  8  2  1  0  0  0  0
  9 10  1  0  0  0  0
  9  3  1  0  0  0  0
 10 11  1  0  0  0  0
 12 13  1  0  0  0  0
 12 10  2  0  0  0  0
 14 12  1  0  0  0  0
 15 14  2  0  0  0  0
 15 16  1  0  0  0  0
 16  9  2  0  0  0  0
 17 18  1  0  0  0  0
 17 19  1  0  0  0  0
 17 20  1  0  0  0  0
M  END
>  <minimizedAffinity>
-4.90856552

$$$$

 OpenBabel03272510033D

 20 21  0  0  0  0  0  0  0  0999 V2000
   40.5300   22.5880   35.5400 C   0  0  0  0  0  0  0  0  0  0  0  0
   39.6190   22.2100   34.5470 C   0  0  0  0  0  0  0  0  0  0  0  0
   38.2680   22.3170   34.8400 C   0  0  0  0  0  0  0  0  0  0  0  0
   37.9040   22.7810   36.0660 N   0  0  0  0  0  0  0  0  0  0  0  0
   38.8120   23.1340   36.9950 C   0  0  0  0  0  0  0  0  0  0  0  0
   40.1120   23.0350   36.7200 N   0  0  0  0  0  0  0  0  0  0  0  0
   41.5720   22.4850   35.2580 H   0  0  0  0  0  0  0  0  0  0  0  0
   39.9510   21.8450   33.5850 H   0  0  0  0  0  0  0  0  0  0  0  0
   37.2670   21.9370   33.8470 C   0  0  0  0  0  0  0  0  0  0  0  0
   37.3140   22.5210   32.6000 C   0  0  0  0  0  0  0  0  0  0  0  0
   38.0620   23.2430   32.3420 H   0  0  0  0  0  0  0  0  0  0  0  0
   36.3250   22.0990   31.7270 C   0  0  0  0  0  0  0  0  0  0  0  0
   36.3060   22.5210   30.7250 H   0  0  0  0  0  0  0  0  0  0  0  0
   35.4170   21.1780   32.1410 C   0  0  0  0  0  3  0  0  0  0  0  0
   35.3840   20.6000   33.3980 C   0  0  0  0  0  3  0  0  0  0  0  0
   36.3500   21.0270   34.2200 N   0  0  0  0  0  0  0  0  0  0  0  0
   38.3150   23.6300   38.3050 C   0  0  0  0  0  0  0  0  0  0  0  0
   37.2930   22.8600   38.8090 F   0  0  0  0  0  0  0  0  0  0  0  0
   39.3400   23.5870   39.2670 F   0  0  0  0  0  0  0  0  0  0  0  0
   37.8980   24.9270   38.2810 F   0  0  0  0  0  0  0  0  0  0  0  0
  1  6  1  0  0  0  0
  2  3  1  0  0  0  0
  2  1  2  0  0  0  0
  3  4  2  0  0  0  0
  4  5  1  0  0  0  0
  5 17  1  0  0  0  0
  6  5  2  0  0  0  0
  7  1  1  0  0  0  0
  8  2  1  0  0  0  0
  9 16  1  0  0  0  0
  9  3  1  0  0  0  0
 10  9  2  0  0  0  0
 11 10  1  0  0  0  0
 12 14  2  0  0  0  0
 12 10  1  0  0  0  0
 13 12  1  0  0  0  0
 14 15  1  0  0  0  0
 15 16  2  0  0  0  0
 17 18  1  0  0  0  0
 17 19  1  0  0  0  0
 20 17  1  0  0  0  0
M  END
>  <minimizedAffinity>
-4.89632416

$$$$

 OpenBabel03272510033D

 20 21  0  0  0  0  0  0  0  0999 V2000
   38.2560   23.7060   38.4870 C   0  0  0  0  0  0  0  0  0  0  0  0
   37.7650   24.5280   37.4650 C   0  0  0  0  0  0  0  0  0  0  0  0
   38.4620   24.5490   36.2660 C   0  0  0  0  0  0  0  0  0  0  0  0
   39.5750   23.7740   36.1490 N   0  0  0  0  0  0  0  0  0  0  0  0
   40.0150   22.9970   37.1560 C   0  0  0  0  0  0  0  0  0  0  0  0
   39.3500   22.9720   38.3110 N   0  0  0  0  0  0  0  0  0  0  0  0
   37.6730   23.7280   39.4010 H   0  0  0  0  0  0  0  0  0  0  0  0
   36.8760   25.1280   37.6010 H   0  0  0  0  0  0  0  0  0  0  0  0
   38.0020   25.3860   35.1620 C   0  0  0  0  0  0  0  0  0  0  0  0
   37.7080   26.7090   35.4090 C   0  0  0  0  0  0  0  0  0  0  0  0
   37.8080   27.1370   36.3860 H   0  0  0  0  0  0  0  0  0  0  0  0
   37.2800   27.4210   34.3020 C   0  0  0  0  0  0  0  0  0  0  0  0
   37.0320   28.4730   34.4280 H   0  0  0  0  0  0  0  0  0  0  0  0
   37.1830   26.7960   33.1000 C   0  0  0  0  0  3  0  0  0  0  0  0
   37.4820   25.4640   32.8680 C   0  0  0  0  0  3  0  0  0  0  0  0
   37.8930   24.8010   33.9560 N   0  0  0  0  0  0  0  0  0  0  0  0
   41.2400   22.1880   36.9300 C   0  0  0  0  0  0  0  0  0  0  0  0
   41.2330   21.5430   35.7150 F   0  0  0  0  0  0  0  0  0  0  0  0
   42.3790   23.0120   36.9220 F   0  0  0  0  0  0  0  0  0  0  0  0
   41.4740   21.2600   37.9010 F   0  0  0  0  0  0  0  0  0  0  0  0
  1  7  1  0  0  0  0
  2  8  1  0  0  0  0
  2  1  2  0  0  0  0
  3  2  1  0  0  0  0
  4  3  2  0  0  0  0
  4  5  1  0  0  0  0
  5  6  2  0  0  0  0
  6  1  1  0  0  0  0
  9 10  1  0  0  0  0
  9  3  1  0  0  0  0
 10 11  1  0  0  0  0
 12 13  1  0  0  0  0
 12 10  2  0  0  0  0
 14 12  1  0  0  0  0
 15 14  2  0  0  0  0
 15 16  1  0  0  0  0
 16  9  2  0  0  0  0
 17  5  1  0  0  0  0
 17 20  1  0  0  0  0
 18 17  1  0  0  0  0
 19 17  1  0  0  0  0
M  END
>  <minimizedAffinity>
-4.79445028

$$$$

 OpenBabel03272510033D

 20 21  0  0  0  0  0  0  0  0999 V2000
   38.0850   23.1110   32.4000 C   0  0  0  0  0  0  0  0  0  0  0  0
   38.5290   23.3850   33.6990 C   0  0  0  0  0  0  0  0  0  0  0  0
   38.0230   22.6070   34.7290 C   0  0  0  0  0  0  0  0  0  0  0  0
   37.1300   21.6270   34.4240 N   0  0  0  0  0  0  0  0  0  0  0  0
   36.7270   21.3950   33.1600 C   0  0  0  0  0  0  0  0  0  0  0  0
   37.2100   22.1390   32.1650 N   0  0  0  0  0  0  0  0  0  0  0  0
   38.5130   23.7480   31.6340 H   0  0  0  0  0  0  0  0  0  0  0  0
   39.2410   24.1750   33.8970 H   0  0  0  0  0  0  0  0  0  0  0  0
   38.4470   22.8430   36.1060 C   0  0  0  0  0  0  0  0  0  0  0  0
   39.7300   22.5040   36.4740 C   0  0  0  0  0  0  0  0  0  0  0  0
   40.4210   22.0730   35.7790 H   0  0  0  0  0  0  0  0  0  0  0  0
   40.0390   22.7650   37.7980 C   0  0  0  0  0  0  0  0  0  0  0  0
   41.0380   22.5210   38.1540 H   0  0  0  0  0  0  0  0  0  0  0  0
   39.0980   23.3140   38.6090 C   0  0  0  0  0  3  0  0  0  0  0  0
   37.8110   23.6510   38.2230 C   0  0  0  0  0  3  0  0  0  0  0  0
   37.5410   23.3870   36.9390 N   0  0  0  0  0  0  0  0  0  0  0  0
   35.7470   20.3020   32.9290 C   0  0  0  0  0  0  0  0  0  0  0  0
   36.2570   19.2910   32.1470 F   0  0  0  0  0  0  0  0  0  0  0  0
   35.3840   19.7010   34.1470 F   0  0  0  0  0  0  0  0  0  0  0  0
   34.5760   20.7210   32.3700 F   0  0  0  0  0  0  0  0  0  0  0  0
  1  2  1  0  0  0  0
  2  8  1  0  0  0  0
  2  3  2  0  0  0  0
  3  9  1  0  0  0  0
  4  3  1  0  0  0  0
  5  4  2  0  0  0  0
  6  1  2  0  0  0  0
  6  5  1  0  0  0  0
  7  1  1  0  0  0  0
  9 10  2  0  0  0  0
  9 16  1  0  0  0  0
 10 12  1  0  0  0  0
 11 10  1  0  0  0  0
 12 13  1  0  0  0  0
 12 14  2  0  0  0  0
 15 14  1  0  0  0  0
 16 15  2  0  0  0  0
 17  5  1  0  0  0  0
 17 19  1  0  0  0  0
 18 17  1  0  0  0  0
 20 17  1  0  0  0  0
M  END
>  <minimizedAffinity>
-4.7771492

$$$$

 OpenBabel03272510033D

 20 21  0  0  0  0  0  0  0  0999 V2000
   38.3580   23.4020   37.9770 C   0  0  0  0  0  0  0  0  0  0  0  0
   37.5190   23.0430   36.9140 C   0  0  0  0  0  0  0  0  0  0  0  0
   38.0670   22.2850   35.8900 C   0  0  0  0  0  0  0  0  0  0  0  0
   39.3790   21.9330   35.9740 N   0  0  0  0  0  0  0  0  0  0  0  0
   40.1530   22.2980   37.0130 C   0  0  0  0  0  0  0  0  0  0  0  0
   39.6330   23.0260   38.0010 N   0  0  0  0  0  0  0  0  0  0  0  0
   37.8790   23.9930   38.7490 H   0  0  0  0  0  0  0  0  0  0  0  0
   36.4820   23.3450   36.8880 H   0  0  0  0  0  0  0  0  0  0  0  0
   37.2440   21.8790   34.7550 C   0  0  0  0  0  0  0  0  0  0  0  0
   36.2460   20.9520   34.9540 C   0  0  0  0  0  0  0  0  0  0  0  0
   36.0580   20.5240   35.9180 H   0  0  0  0  0  0  0  0  0  0  0  0
   35.5200   20.6310   33.8200 C   0  0  0  0  0  0  0  0  0  0  0  0
   34.7150   19.9050   33.9090 H   0  0  0  0  0  0  0  0  0  0  0  0
   35.8280   21.2260   32.6380 C   0  0  0  0  0  3  0  0  0  0  0  0
   36.8360   22.1570   32.4540 C   0  0  0  0  0  3  0  0  0  0  0  0
   37.5210   22.4480   33.5670 N   0  0  0  0  0  0  0  0  0  0  0  0
   41.5740   21.8640   37.0120 C   0  0  0  0  0  0  0  0  0  0  0  0
   41.8720   21.0250   38.0600 F   0  0  0  0  0  0  0  0  0  0  0  0
   41.8660   21.1390   35.8430 F   0  0  0  0  0  0  0  0  0  0  0  0
   42.4650   22.8960   37.0280 F   0  0  0  0  0  0  0  0  0  0  0  0
  1  6  1  0  0  0  0
  1  7  1  0  0  0  0
  2  1  2  0  0  0  0
  3  4  2  0  0  0  0
  3  2  1  0  0  0  0
  4  5  1  0  0  0  0
  5  6  2  0  0  0  0
  8  2  1  0  0  0  0
  9 10  1  0  0  0  0
  9  3  1  0  0  0  0
 10 11  1  0  0  0  0
 12 13  1  0  0  0  0
 12 10  2  0  0  0  0
 14 12  1  0  0  0  0
 15 14  2  0  0  0  0
 15 16  1  0  0  0  0
 16  9  2  0  0  0  0
 17  5  1  0  0  0  0
 17 20  1  0  0  0  0
 17 18  1  0  0  0  0
 19 17  1  0  0  0  0
M  END
>  <minimizedAffinity>
-4.7608285

$$$$

 OpenBabel03272510033D

 20 21  0  0  0  0  0  0  0  0999 V2000
   37.2470   23.4880   32.3100 C   0  0  0  0  0  0  0  0  0  0  0  0
   37.9470   23.6310   33.5150 C   0  0  0  0  0  0  0  0  0  0  0  0
   37.8250   22.6180   34.4540 C   0  0  0  0  0  0  0  0  0  0  0  0
   37.0390   21.5470   34.1550 N   0  0  0  0  0  0  0  0  0  0  0  0
   36.3820   21.4470   32.9840 C   0  0  0  0  0  0  0  0  0  0  0  0
   36.4950   22.4180   32.0770 N   0  0  0  0  0  0  0  0  0  0  0  0
   37.3790   24.3090   31.6140 H   0  0  0  0  0  0  0  0  0  0  0  0
   38.5600   24.4990   33.7120 H   0  0  0  0  0  0  0  0  0  0  0  0
   38.5280   22.7080   35.7300 C   0  0  0  0  0  0  0  0  0  0  0  0
   37.9290   23.3790   36.7730 C   0  0  0  0  0  0  0  0  0  0  0  0
   36.9650   23.8340   36.6710 H   0  0  0  0  0  0  0  0  0  0  0  0
   38.6720   23.4120   37.9400 C   0  0  0  0  0  0  0  0  0  0  0  0
   38.2550   23.9260   38.8040 H   0  0  0  0  0  0  0  0  0  0  0  0
   39.8870   22.8060   37.9780 C   0  0  0  0  0  3  0  0  0  0  0  0
   40.4750   22.1340   36.9200 C   0  0  0  0  0  3  0  0  0  0  0  0
   39.7350   22.1200   35.8040 N   0  0  0  0  0  0  0  0  0  0  0  0
   35.5490   20.2390   32.7510 C   0  0  0  0  0  0  0  0  0  0  0  0
   34.2760   20.5460   32.3310 F   0  0  0  0  0  0  0  0  0  0  0  0
   36.1090   19.4440   31.7350 F   0  0  0  0  0  0  0  0  0  0  0  0
   35.4510   19.4200   33.8370 F   0  0  0  0  0  0  0  0  0  0  0  0
  1  2  1  0  0  0  0
  2  8  1  0  0  0  0
  2  3  2  0  0  0  0
  3  9  1  0  0  0  0
  4  3  1  0  0  0  0
  5  4  2  0  0  0  0
  6  1  2  0  0  0  0
  6  5  1  0  0  0  0
  7  1  1  0  0  0  0
  9 16  2  0  0  0  0
  9 10  1  0  0  0  0
 10 12  2  0  0  0  0
 11 10  1  0  0  0  0
 12 14  1  0  0  0  0
 12 13  1  0  0  0  0
 15 14  2  0  0  0  0
 16 15  1  0  0  0  0
 17  5  1  0  0  0  0
 17 20  1  0  0  0  0
 18 17  1  0  0  0  0
 19 17  1  0  0  0  0
M  END
>  <minimizedAffinity>
-4.72048092

$$$$

 OpenBabel03272510033D

 20 21  0  0  0  0  0  0  0  0999 V2000
   37.8120   22.3360   34.9650 C   0  0  0  0  0  0  0  0  0  0  0  0
   38.4480   23.2960   34.1680 C   0  0  0  0  0  0  0  0  0  0  0  0
   39.0100   24.3920   34.8050 C   0  0  0  0  0  0  0  0  0  0  0  0
   38.9160   24.4720   36.1610 N   0  0  0  0  0  0  0  0  0  0  0  0
   38.2960   23.5270   36.8920 C   0  0  0  0  0  0  0  0  0  0  0  0
   37.7530   22.4720   36.2850 N   0  0  0  0  0  0  0  0  0  0  0  0
   37.3920   21.5020   34.4140 H   0  0  0  0  0  0  0  0  0  0  0  0
   38.4990   23.1930   33.0920 H   0  0  0  0  0  0  0  0  0  0  0  0
   39.6860   25.4280   34.0300 C   0  0  0  0  0  0  0  0  0  0  0  0
   40.5350   26.2960   34.6790 C   0  0  0  0  0  0  0  0  0  0  0  0
   40.7120   26.2300   35.7340 H   0  0  0  0  0  0  0  0  0  0  0  0
   41.1290   27.2420   33.8620 C   0  0  0  0  0  0  0  0  0  0  0  0
   41.8130   27.9590   34.3130 H   0  0  0  0  0  0  0  0  0  0  0  0
   40.8460   27.2510   32.5330 C   0  0  0  0  0  3  0  0  0  0  0  0
   39.9890   26.3700   31.8950 C   0  0  0  0  0  3  0  0  0  0  0  0
   39.4300   25.4670   32.7100 N   0  0  0  0  0  0  0  0  0  0  0  0
   38.2450   23.7060   38.3660 C   0  0  0  0  0  0  0  0  0  0  0  0
   37.8320   24.9650   38.7340 F   0  0  0  0  0  0  0  0  0  0  0  0
   37.3200   22.8140   38.9380 F   0  0  0  0  0  0  0  0  0  0  0  0
   39.4280   23.4470   38.9930 F   0  0  0  0  0  0  0  0  0  0  0  0
  1  6  1  0  0  0  0
  2  3  1  0  0  0  0
  2  1  2  0  0  0  0
  3  4  2  0  0  0  0
  4  5  1  0  0  0  0
  5 17  1  0  0  0  0
  6  5  2  0  0  0  0
  7  1  1  0  0  0  0
  8  2  1  0  0  0  0
  9 10  1  0  0  0  0
  9  3  1  0  0  0  0
 10 11  1  0  0  0  0
 12 13  1  0  0  0  0
 12 10  2  0  0  0  0
 14 12  1  0  0  0  0
 15 14  2  0  0  0  0
 15 16  1  0  0  0  0
 16  9  2  0  0  0  0
 17 18  1  0  0  0  0
 17 19  1  0  0  0  0
 17 20  1  0  0  0  0
M  END
>  <minimizedAffinity>
-4.6755023

$$$$

 OpenBabel03272510033D

 20 21  0  0  0  0  0  0  0  0999 V2000
   37.2470   27.6460   34.7010 C   0  0  0  0  0  0  0  0  0  0  0  0
   37.8340   26.7840   35.6350 C   0  0  0  0  0  0  0  0  0  0  0  0
   38.0330   25.4650   35.2570 C   0  0  0  0  0  0  0  0  0  0  0  0
   37.6510   25.0840   34.0070 N   0  0  0  0  0  0  0  0  0  0  0  0
   37.0900   25.9440   33.1370 C   0  0  0  0  0  0  0  0  0  0  0  0
   36.8960   27.2140   33.4940 N   0  0  0  0  0  0  0  0  0  0  0  0
   37.1160   28.6650   35.0490 H   0  0  0  0  0  0  0  0  0  0  0  0
   38.1210   27.1290   36.6190 H   0  0  0  0  0  0  0  0  0  0  0  0
   38.6390   24.5160   36.1860 C   0  0  0  0  0  0  0  0  0  0  0  0
   38.0510   24.3240   37.4170 C   0  0  0  0  0  0  0  0  0  0  0  0
   37.1640   24.8500   37.7070 H   0  0  0  0  0  0  0  0  0  0  0  0
   38.6970   23.4060   38.2280 C   0  0  0  0  0  0  0  0  0  0  0  0
   38.2830   23.2070   39.2140 H   0  0  0  0  0  0  0  0  0  0  0  0
   39.8170   22.7850   37.7760 C   0  0  0  0  0  3  0  0  0  0  0  0
   40.3960   22.9900   36.5350 C   0  0  0  0  0  3  0  0  0  0  0  0
   39.7500   23.8820   35.7730 N   0  0  0  0  0  0  0  0  0  0  0  0
   36.7080   25.4320   31.7960 C   0  0  0  0  0  0  0  0  0  0  0  0
   37.7040   24.6850   31.2100 F   0  0  0  0  0  0  0  0  0  0  0  0
   35.5940   24.5780   31.8940 F   0  0  0  0  0  0  0  0  0  0  0  0
   36.3380   26.4070   30.9190 F   0  0  0  0  0  0  0  0  0  0  0  0
  1  7  1  0  0  0  0
  1  2  1  0  0  0  0
  2  8  1  0  0  0  0
  3  2  2  0  0  0  0
  3  9  1  0  0  0  0
  4  3  1  0  0  0  0
  5  6  1  0  0  0  0
  5  4  2  0  0  0  0
  6  1  2  0  0  0  0
  9 10  1  0  0  0  0
 10 11  1  0  0  0  0
 10 12  2  0  0  0  0
 12 13  1  0  0  0  0
 14 12  1  0  0  0  0
 15 14  2  0  0  0  0
 16  9  2  0  0  0  0
 16 15  1  0  0  0  0
 17 19  1  0  0  0  0
 17  5  1  0  0  0  0
 18 17  1  0  0  0  0
 20 17  1  0  0  0  0
M  END
>  <minimizedAffinity>
-4.65148926

$$$$
