
 OpenBabel03272510013D

 20 21  0  0  0  0  0  0  0  0999 V2000
   38.3040   31.2850   50.2200 C   0  0  0  0  0  0  0  0  0  0  0  0
   38.4190   31.5480   48.8490 C   0  0  0  0  0  0  0  0  0  0  0  0
   37.4230   31.0640   48.0150 C   0  0  0  0  0  0  0  0  0  0  0  0
   36.3940   30.3660   48.5700 N   0  0  0  0  0  0  0  0  0  0  0  0
   36.3200   30.1340   49.8940 C   0  0  0  0  0  0  0  0  0  0  0  0
   37.2740   30.5970   50.7020 N   0  0  0  0  0  0  0  0  0  0  0  0
   39.1090   31.6870   50.8240 H   0  0  0  0  0  0  0  0  0  0  0  0
   39.2550   32.1070   48.4500 H   0  0  0  0  0  0  0  0  0  0  0  0
   37.4860   31.3040   46.5770 C   0  0  0  0  0  0  0  0  0  0  0  0
   36.7000   30.5420   45.7400 C   0  0  0  0  0  0  0  0  0  0  0  0
   36.0460   29.7820   46.1180 H   0  0  0  0  0  0  0  0  0  0  0  0
   36.8280   30.8430   44.3960 C   0  0  0  0  0  0  0  0  0  0  0  0
   36.2340   30.2780   43.6810 H   0  0  0  0  0  0  0  0  0  0  0  0
   37.6830   31.8240   44.0070 C   0  0  0  0  0  3  0  0  0  0  0  0
   38.4680   32.5810   44.8610 C   0  0  0  0  0  3  0  0  0  0  0  0
   38.3220   32.2690   46.1560 N   0  0  0  0  0  0  0  0  0  0  0  0
   35.1570   29.3620   50.4040 C   0  0  0  0  0  0  0  0  0  0  0  0
   35.2370   29.1140   51.7540 F   0  0  0  0  0  0  0  0  0  0  0  0
   33.9660   30.0860   50.2150 F   0  0  0  0  0  0  0  0  0  0  0  0
   34.9620   28.1740   49.7650 F   0  0  0  0  0  0  0  0  0  0  0  0
  1  6  1  0  0  0  0
  1  7  1  0  0  0  0
  2  1  2  0  0  0  0
  3  4  2  0  0  0  0
  3  2  1  0  0  0  0
  4  5  1  0  0  0  0
  5 17  1  0  0  0  0
  5  6  2  0  0  0  0
  8  2  1  0  0  0  0
  9  3  1  0  0  0  0
 10 11  1  0  0  0  0
 10  9  2  0  0  0  0
 12 10  1  0  0  0  0
 13 12  1  0  0  0  0
 14 12  2  0  0  0  0
 14 15  1  0  0  0  0
 15 16  2  0  0  0  0
 16  9  1  0  0  0  0
 17 18  1  0  0  0  0
 19 17  1  0  0  0  0
 20 17  1  0  0  0  0
M  END
>  <minimizedAffinity>
-5.44144392

>  <minimizedRMSD>
0.492105335

$$$$
