
 OpenBabel03272510013D

 20 21  0  0  0  0  0  0  0  0999 V2000
   38.2360   31.4080   50.2200 C   0  0  0  0  0  0  0  0  0  0  0  0
   38.5130   31.4220   48.8470 C   0  0  0  0  0  0  0  0  0  0  0  0
   37.6540   30.7270   48.0100 C   0  0  0  0  0  0  0  0  0  0  0  0
   36.5940   30.0760   48.5630 N   0  0  0  0  0  0  0  0  0  0  0  0
   36.3620   30.0870   49.8890 C   0  0  0  0  0  0  0  0  0  0  0  0
   37.1840   30.7530   50.7000 N   0  0  0  0  0  0  0  0  0  0  0  0
   38.9390   31.9670   50.8260 H   0  0  0  0  0  0  0  0  0  0  0  0
   39.3680   31.9520   48.4500 H   0  0  0  0  0  0  0  0  0  0  0  0
   37.8890   30.7030   46.5700 C   0  0  0  0  0  0  0  0  0  0  0  0
   39.1870   30.7410   46.1070 C   0  0  0  0  0  0  0  0  0  0  0  0
   40.0220   30.7880   46.7760 H   0  0  0  0  0  0  0  0  0  0  0  0
   39.3090   30.7130   44.7290 C   0  0  0  0  0  0  0  0  0  0  0  0
   40.3080   30.7410   44.2990 H   0  0  0  0  0  0  0  0  0  0  0  0
   38.1910   30.6530   43.9590 C   0  0  0  0  0  3  0  0  0  0  0  0
   36.8930   30.6140   44.4380 C   0  0  0  0  0  3  0  0  0  0  0  0
   36.8060   30.6420   45.7750 N   0  0  0  0  0  0  0  0  0  0  0  0
   35.1780   29.3450   50.3970 C   0  0  0  0  0  0  0  0  0  0  0  0
   35.2420   29.1090   51.7500 F   0  0  0  0  0  0  0  0  0  0  0  0
   34.0050   30.0930   50.1910 F   0  0  0  0  0  0  0  0  0  0  0  0
   34.9620   28.1550   49.7680 F   0  0  0  0  0  0  0  0  0  0  0  0
  1  6  1  0  0  0  0
  1  7  1  0  0  0  0
  2  1  2  0  0  0  0
  3  4  2  0  0  0  0
  3  2  1  0  0  0  0
  4  5  1  0  0  0  0
  5 17  1  0  0  0  0
  5  6  2  0  0  0  0
  8  2  1  0  0  0  0
  9  3  1  0  0  0  0
 10  9  1  0  0  0  0
 10 11  1  0  0  0  0
 12 10  2  0  0  0  0
 13 12  1  0  0  0  0
 14 15  2  0  0  0  0
 14 12  1  0  0  0  0
 15 16  1  0  0  0  0
 16  9  2  0  0  0  0
 17 18  1  0  0  0  0
 19 17  1  0  0  0  0
 20 17  1  0  0  0  0
M  END
>  <minimizedAffinity>
-5.32828093

>  <minimizedRMSD>
1.11291397

$$$$
