
 OpenBabel03272502393D

 39 42  0  0  1  0  0  0  0  0999 V2000
   32.4000   27.9240   48.8400 N   0  0  0  0  0  0  0  0  0  0  0  0
   33.2670   27.2220   47.9060 C   0  0  0  0  0  0  0  0  0  0  0  0
   34.5710   27.9500   48.0380 C   0  0  0  0  0  0  0  0  0  0  0  0
   34.2420   29.2140   48.9530 C   0  0  1  0  0  0  0  0  0  0  0  0
   33.2430   28.6110   49.8410 C   0  0  0  0  0  0  0  0  0  0  0  0
   33.3360   26.1480   48.0660 H   0  0  0  0  0  0  0  0  0  0  0  0
   32.8610   27.4770   46.8870 H   0  0  0  0  0  0  0  0  0  0  0  0
   34.9890   28.3450   47.1150 H   0  0  0  0  0  0  0  0  0  0  0  0
   35.3180   27.3480   48.5660 H   0  0  0  0  0  0  0  0  0  0  0  0
   33.8870   29.8980   48.1710 H   0  0  0  0  0  0  0  0  0  0  0  0
   32.6320   29.3210   50.4290 H   0  0  0  0  0  0  0  0  0  0  0  0
   33.6660   27.8530   50.5190 H   0  0  0  0  0  0  0  0  0  0  0  0
   35.9760   31.0300   47.6430 F   0  0  0  0  0  0  0  0  0  0  0  0
   36.2270   30.5810   48.8890 C   0  0  0  0  0  0  0  0  0  0  0  0
   35.4850   29.6560   49.5830 C   0  0  0  0  0  0  0  0  0  0  0  0
   35.9200   29.2860   50.8660 C   0  0  0  0  0  0  0  0  0  0  0  0
   37.0550   29.8230   51.4330 C   0  0  0  0  0  0  0  0  0  0  0  0
   37.7890   30.7580   50.7100 C   0  0  0  0  0  0  0  0  0  0  0  0
   37.3620   31.1340   49.4240 C   0  0  0  0  0  0  0  0  0  0  0  0
   35.2660   28.5520   51.3210 H   0  0  0  0  0  0  0  0  0  0  0  0
   37.3260   29.4980   52.4100 H   0  0  0  0  0  0  0  0  0  0  0  0
   38.6440   31.1070   51.2380 H   0  0  0  0  0  0  0  0  0  0  0  0
   38.2420   32.1120   48.8310 C   0  0  0  0  0  0  0  0  0  0  0  0
   38.6680   33.2990   49.3650 C   0  0  0  0  0  0  0  0  0  0  0  0
   38.3400   33.5860   50.3330 H   0  0  0  0  0  0  0  0  0  0  0  0
   39.5090   34.2130   48.7800 C   0  0  0  0  0  0  0  0  0  0  0  0
   39.8060   35.1300   49.2540 H   0  0  0  0  0  0  0  0  0  0  0  0
   40.0020   33.9480   47.5210 C   0  0  0  0  0  0  0  0  0  0  0  0
   39.5820   32.7580   46.9730 C   0  0  0  0  0  0  0  0  0  0  0  0
   38.7590   31.9200   47.6080 N   0  0  0  0  0  0  0  0  0  0  0  0
   30.9970   27.9730   48.8230 C   0  0  0  0  0  0  0  0  0  0  0  0
   30.3980   28.0720   47.5570 C   0  0  0  0  0  0  0  0  0  0  0  0
   28.9990   28.1330   47.4660 C   0  0  0  0  0  0  0  0  0  0  0  0
   28.3020   28.0900   48.6610 N   0  0  0  0  0  0  0  0  0  0  0  0
   28.9060   27.9960   49.8510 C   0  0  0  0  0  0  0  0  0  0  0  0
   30.2610   27.9360   49.9370 N   0  0  0  0  0  0  0  0  0  0  0  0
   30.9000   28.1080   46.6040 H   0  0  0  0  0  0  0  0  0  0  0  0
   28.4680   28.2090   46.5280 H   0  0  0  0  0  0  0  0  0  0  0  0
   28.2620   27.9700   50.7120 H   0  0  0  0  0  0  0  0  0  0  0  0
  1  5  1  0  0  0  0
  2  3  1  0  0  0  0
  2  6  1  0  0  0  0
  2  1  1  0  0  0  0
  3  9  1  0  0  0  0
  3  4  1  0  0  0  0
  4 10  1  6  0  0  0
  4 15  1  0  0  0  0
  4  5  1  0  0  0  0
  5 11  1  0  0  0  0
  5 12  1  0  0  0  0
  7  2  1  0  0  0  0
  8  3  1  0  0  0  0
 13 14  1  0  0  0  0
 14 19  2  0  0  0  0
 14 15  1  0  0  0  0
 15 16  2  0  0  0  0
 16 20  1  0  0  0  0
 16 17  1  0  0  0  0
 17 21  1  0  0  0  0
 18 22  1  0  0  0  0
 18 17  2  0  0  0  0
 19 18  1  0  0  0  0
 23 24  1  0  0  0  0
 23 19  1  0  0  0  0
 24 25  1  0  0  0  0
 26 27  1  0  0  0  0
 26 24  2  0  0  0  0
 28 26  1  0  0  0  0
 29 28  2  0  0  0  0
 29 30  1  0  0  0  0
 30 23  2  0  0  0  0
 31  1  1  0  0  0  0
 31 36  1  0  0  0  0
 32 31  2  0  0  0  0
 33 32  1  0  0  0  0
 33 34  2  0  0  0  0
 34 35  1  0  0  0  0
 35 36  2  0  0  0  0
 35 39  1  0  0  0  0
 37 32  1  0  0  0  0
 38 33  1  0  0  0  0
M  END
>  <minimizedAffinity>
-7.31838083

>  <minimizedRMSD>
3.04868889

$$$$
