
 OpenBabel03272507153D

 39 43  0  0  0  0  0  0  0  0999 V2000
   37.6870   26.5700   33.8800 C   0  0  0  0  0  0  0  0  0  0  0  0
   37.9090   27.2860   35.0270 C   0  0  0  0  0  0  0  0  0  0  0  0
   38.8950   26.6110   35.7470 C   0  0  0  0  0  0  0  0  0  0  0  0
   39.2240   25.4980   34.9800 C   0  0  0  0  0  0  0  0  0  0  0  0
   38.4760   25.5420   33.9010 O   0  0  0  0  0  0  0  0  0  0  0  0
   37.4290   28.2100   35.3570 H   0  0  0  0  0  0  0  0  0  0  0  0
   39.2620   26.9620   36.7010 H   0  0  0  0  0  0  0  0  0  0  0  0
   41.4810   24.4550   34.8220 C   0  0  0  0  0  0  0  0  0  0  0  0
   40.2290   24.5140   35.3780 C   0  0  0  0  0  0  0  0  0  0  0  0
   39.8310   23.6230   36.3680 C   0  0  0  0  0  0  0  0  0  0  0  0
   40.7330   22.6650   36.7860 C   0  0  0  0  0  0  0  0  0  0  0  0
   40.6320   21.6960   37.6980 N   0  0  0  0  0  0  0  0  0  0  0  0
   41.7900   21.0410   37.7190 N   0  0  0  0  0  0  0  0  0  0  0  0
   42.6280   21.5990   36.8130 C   0  0  0  0  0  0  0  0  0  0  0  0
   41.9890   22.6440   36.1930 C   0  0  0  0  0  0  0  0  0  0  0  0
   42.3990   23.5180   35.2130 C   0  0  0  0  0  0  0  0  0  0  0  0
   41.7020   25.1920   34.0560 H   0  0  0  0  0  0  0  0  0  0  0  0
   38.8490   23.6130   36.8540 H   0  0  0  0  0  0  0  0  0  0  0  0
   39.8220   21.4500   38.3120 H   0  0  0  0  0  0  0  0  0  0  0  0
   43.6450   21.2360   36.6430 H   0  0  0  0  0  0  0  0  0  0  0  0
   43.3900   23.4680   34.7770 H   0  0  0  0  0  0  0  0  0  0  0  0
   36.7080   27.0030   32.8950 C   0  0  0  0  0  0  0  0  0  0  0  0
   36.2540   26.1780   32.0870 O   0  0  0  0  0  0  0  0  0  0  0  0
   36.3190   28.3930   32.9270 C   0  0  0  0  0  0  0  0  0  0  0  0
   36.5760   29.1560   31.7840 C   0  0  0  0  0  0  0  0  0  0  0  0
   36.2200   30.5060   31.7630 C   0  0  0  0  0  0  0  0  0  0  0  0
   35.6290   31.0040   32.8940 N   0  0  0  0  0  0  0  0  0  0  0  0
   35.3890   30.2670   33.9760 C   0  0  0  0  0  0  0  0  0  0  0  0
   35.7380   28.9610   33.9870 N   0  0  0  0  0  0  0  0  0  0  0  0
   37.0420   28.7100   30.9290 H   0  0  0  0  0  0  0  0  0  0  0  0
   36.4230   31.0820   30.8760 H   0  0  0  0  0  0  0  0  0  0  0  0
   34.7530   30.8800   35.1410 C   0  0  0  0  0  0  0  0  0  0  0  0
   35.3910   31.7270   35.9870 C   0  0  0  0  0  0  0  0  0  0  0  0
   36.4150   31.9770   35.8160 H   0  0  0  0  0  0  0  0  0  0  0  0
   34.7380   32.2870   37.0870 C   0  0  0  0  0  0  0  0  0  0  0  0
   35.2540   32.9660   37.7620 H   0  0  0  0  0  0  0  0  0  0  0  0
   33.4140   31.9360   37.2690 C   0  0  0  0  0  3  0  0  0  0  0  0
   32.7810   31.0780   36.4050 C   0  0  0  0  0  3  0  0  0  0  0  0
   33.4480   30.5530   35.3470 N   0  0  0  0  0  0  0  0  0  0  0  0
  1  5  1  0  0  0  0
  1  2  2  0  0  0  0
  2  6  1  0  0  0  0
  2  3  1  0  0  0  0
  3  7  1  0  0  0  0
  4  9  1  0  0  0  0
  4  3  2  0  0  0  0
  5  4  1  0  0  0  0
  8 16  2  0  0  0  0
  8  9  1  0  0  0  0
  9 10  2  0  0  0  0
 10 11  1  0  0  0  0
 10 18  1  0  0  0  0
 11 12  1  0  0  0  0
 12 13  1  0  0  0  0
 12 19  1  0  0  0  0
 14 13  2  0  0  0  0
 15 11  2  0  0  0  0
 15 14  1  0  0  0  0
 16 15  1  0  0  0  0
 17  8  1  0  0  0  0
 20 14  1  0  0  0  0
 21 16  1  0  0  0  0
 22 24  1  0  0  0  0
 22  1  1  0  0  0  0
 23 22  2  0  0  0  0
 24 29  1  0  0  0  0
 25 24  2  0  0  0  0
 26 25  1  0  0  0  0
 26 27  2  0  0  0  0
 27 28  1  0  0  0  0
 28 29  2  0  0  0  0
 28 32  1  0  0  0  0
 30 25  1  0  0  0  0
 31 26  1  0  0  0  0
 32 39  2  0  0  0  0
 32 33  1  0  0  0  0
 33 35  2  0  0  0  0
 34 33  1  0  0  0  0
 35 37  1  0  0  0  0
 35 36  1  0  0  0  0
 38 37  2  0  0  0  0
 39 38  1  0  0  0  0
M  END
>  <minimizedAffinity>
-6.98393059

$$$$

 OpenBabel03272507153D

 39 43  0  0  0  0  0  0  0  0999 V2000
   36.9530   27.6250   32.5310 C   0  0  0  0  0  0  0  0  0  0  0  0
   35.9060   27.9120   31.6940 C   0  0  0  0  0  0  0  0  0  0  0  0
   35.0980   28.8380   32.3550 C   0  0  0  0  0  0  0  0  0  0  0  0
   35.7130   29.0660   33.5810 C   0  0  0  0  0  0  0  0  0  0  0  0
   36.7930   28.3210   33.6120 O   0  0  0  0  0  0  0  0  0  0  0  0
   35.7020   27.5160   30.6970 H   0  0  0  0  0  0  0  0  0  0  0  0
   34.1950   29.2380   31.9160 H   0  0  0  0  0  0  0  0  0  0  0  0
   35.9750   30.8260   35.3250 C   0  0  0  0  0  0  0  0  0  0  0  0
   35.1840   29.9840   34.5890 C   0  0  0  0  0  0  0  0  0  0  0  0
   33.8040   29.9470   34.7630 C   0  0  0  0  0  0  0  0  0  0  0  0
   33.2410   30.7860   35.7030 C   0  0  0  0  0  0  0  0  0  0  0  0
   31.9740   30.9630   36.0820 N   0  0  0  0  0  0  0  0  0  0  0  0
   31.9640   31.8940   37.0320 N   0  0  0  0  0  0  0  0  0  0  0  0
   33.2350   32.3070   37.2560 C   0  0  0  0  0  0  0  0  0  0  0  0
   34.0850   31.6210   36.4250 C   0  0  0  0  0  0  0  0  0  0  0  0
   35.4500   31.6710   36.2660 C   0  0  0  0  0  0  0  0  0  0  0  0
   37.0400   30.7860   35.1200 H   0  0  0  0  0  0  0  0  0  0  0  0
   33.1140   29.2990   34.2100 H   0  0  0  0  0  0  0  0  0  0  0  0
   31.1090   30.4900   35.7330 H   0  0  0  0  0  0  0  0  0  0  0  0
   33.4890   33.0720   37.9960 H   0  0  0  0  0  0  0  0  0  0  0  0
   36.0720   32.3390   36.8490 H   0  0  0  0  0  0  0  0  0  0  0  0
   37.9920   26.6830   32.1460 C   0  0  0  0  0  0  0  0  0  0  0  0
   38.8400   27.0250   31.3070 O   0  0  0  0  0  0  0  0  0  0  0  0
   37.9690   25.3870   32.7810 C   0  0  0  0  0  0  0  0  0  0  0  0
   37.6870   24.2820   31.9730 C   0  0  0  0  0  0  0  0  0  0  0  0
   37.6520   23.0050   32.5380 C   0  0  0  0  0  0  0  0  0  0  0  0
   37.9010   22.9210   33.8820 N   0  0  0  0  0  0  0  0  0  0  0  0
   38.1690   23.9810   34.6410 C   0  0  0  0  0  0  0  0  0  0  0  0
   38.2010   25.2130   34.0850 N   0  0  0  0  0  0  0  0  0  0  0  0
   37.5000   24.4110   30.9250 H   0  0  0  0  0  0  0  0  0  0  0  0
   37.4340   22.1630   31.9030 H   0  0  0  0  0  0  0  0  0  0  0  0
   38.4240   23.8000   36.0700 C   0  0  0  0  0  0  0  0  0  0  0  0
   37.6740   24.3730   37.0450 C   0  0  0  0  0  0  0  0  0  0  0  0
   36.8470   24.9950   36.7840 H   0  0  0  0  0  0  0  0  0  0  0  0
   37.9600   24.1680   38.3970 C   0  0  0  0  0  0  0  0  0  0  0  0
   37.3560   24.6290   39.1750 H   0  0  0  0  0  0  0  0  0  0  0  0
   39.0380   23.3560   38.6900 C   0  0  0  0  0  3  0  0  0  0  0  0
   39.7870   22.7830   37.6920 C   0  0  0  0  0  3  0  0  0  0  0  0
   39.4810   23.0040   36.3900 N   0  0  0  0  0  0  0  0  0  0  0  0
  1  5  1  0  0  0  0
  2  3  1  0  0  0  0
  2  1  2  0  0  0  0
  3  4  2  0  0  0  0
  4  5  1  0  0  0  0
  4  9  1  0  0  0  0
  6  2  1  0  0  0  0
  7  3  1  0  0  0  0
  8 16  1  0  0  0  0
  9 10  1  0  0  0  0
  9  8  2  0  0  0  0
 10 11  2  0  0  0  0
 11 12  1  0  0  0  0
 11 15  1  0  0  0  0
 12 13  1  0  0  0  0
 13 14  2  0  0  0  0
 14 20  1  0  0  0  0
 15 14  1  0  0  0  0
 16 15  2  0  0  0  0
 16 21  1  0  0  0  0
 17  8  1  0  0  0  0
 18 10  1  0  0  0  0
 19 12  1  0  0  0  0
 22  1  1  0  0  0  0
 22 24  1  0  0  0  0
 23 22  2  0  0  0  0
 24 29  1  0  0  0  0
 25 26  1  0  0  0  0
 25 24  2  0  0  0  0
 26 27  2  0  0  0  0
 27 28  1  0  0  0  0
 28 32  1  0  0  0  0
 29 28  2  0  0  0  0
 30 25  1  0  0  0  0
 31 26  1  0  0  0  0
 32 39  2  0  0  0  0
 32 33  1  0  0  0  0
 33 35  2  0  0  0  0
 34 33  1  0  0  0  0
 35 37  1  0  0  0  0
 35 36  1  0  0  0  0
 38 37  2  0  0  0  0
 39 38  1  0  0  0  0
M  END
>  <minimizedAffinity>
-6.9836874

$$$$

 OpenBabel03272507153D

 39 43  0  0  0  0  0  0  0  0999 V2000
   37.2060   27.7930   32.4710 C   0  0  0  0  0  0  0  0  0  0  0  0
   36.5250   28.3920   31.4430 C   0  0  0  0  0  0  0  0  0  0  0  0
   35.5780   29.2390   32.0200 C   0  0  0  0  0  0  0  0  0  0  0  0
   35.7400   29.1040   33.3940 C   0  0  0  0  0  0  0  0  0  0  0  0
   36.7120   28.2410   33.5820 O   0  0  0  0  0  0  0  0  0  0  0  0
   36.6610   28.2600   30.3680 H   0  0  0  0  0  0  0  0  0  0  0  0
   34.8990   29.8380   31.4290 H   0  0  0  0  0  0  0  0  0  0  0  0
   33.6030   29.5800   34.5840 C   0  0  0  0  0  0  0  0  0  0  0  0
   34.9340   29.8290   34.3760 C   0  0  0  0  0  0  0  0  0  0  0  0
   35.6110   30.8080   35.0950 C   0  0  0  0  0  0  0  0  0  0  0  0
   34.9060   31.5320   36.0350 C   0  0  0  0  0  0  0  0  0  0  0  0
   35.2820   32.5150   36.8570 N   0  0  0  0  0  0  0  0  0  0  0  0
   34.2170   32.8770   37.5660 N   0  0  0  0  0  0  0  0  0  0  0  0
   33.1590   32.1190   37.1890 C   0  0  0  0  0  0  0  0  0  0  0  0
   33.5580   31.2440   36.2100 C   0  0  0  0  0  0  0  0  0  0  0  0
   32.8740   30.2790   35.5070 C   0  0  0  0  0  0  0  0  0  0  0  0
   33.1600   28.7970   33.9750 H   0  0  0  0  0  0  0  0  0  0  0  0
   36.6720   31.0590   34.9800 H   0  0  0  0  0  0  0  0  0  0  0  0
   36.2230   32.9580   36.9670 H   0  0  0  0  0  0  0  0  0  0  0  0
   32.1640   32.2270   37.6290 H   0  0  0  0  0  0  0  0  0  0  0  0
   31.8210   30.0850   35.6750 H   0  0  0  0  0  0  0  0  0  0  0  0
   38.2740   26.8400   32.2160 C   0  0  0  0  0  0  0  0  0  0  0  0
   39.2450   27.1860   31.5250 O   0  0  0  0  0  0  0  0  0  0  0  0
   38.1330   25.5270   32.8000 C   0  0  0  0  0  0  0  0  0  0  0  0
   37.6980   24.4960   31.9620 C   0  0  0  0  0  0  0  0  0  0  0  0
   37.5440   23.2070   32.4770 C   0  0  0  0  0  0  0  0  0  0  0  0
   37.8360   23.0370   33.8040 N   0  0  0  0  0  0  0  0  0  0  0  0
   38.2490   24.0270   34.5920 C   0  0  0  0  0  0  0  0  0  0  0  0
   38.3950   25.2710   34.0840 N   0  0  0  0  0  0  0  0  0  0  0  0
   37.4850   24.6920   30.9300 H   0  0  0  0  0  0  0  0  0  0  0  0
   37.2090   22.4230   31.8200 H   0  0  0  0  0  0  0  0  0  0  0  0
   38.5390   23.7560   36.0000 C   0  0  0  0  0  0  0  0  0  0  0  0
   39.6270   23.0640   36.4230 C   0  0  0  0  0  0  0  0  0  0  0  0
   40.3260   22.6840   35.7110 H   0  0  0  0  0  0  0  0  0  0  0  0
   39.8580   22.8320   37.7810 C   0  0  0  0  0  0  0  0  0  0  0  0
   40.7330   22.2770   38.1150 H   0  0  0  0  0  0  0  0  0  0  0  0
   38.9290   23.3410   38.6670 C   0  0  0  0  0  3  0  0  0  0  0  0
   37.8340   24.0400   38.2240 C   0  0  0  0  0  3  0  0  0  0  0  0
   37.6410   24.2450   36.8980 N   0  0  0  0  0  0  0  0  0  0  0  0
  1  5  1  0  0  0  0
  2  3  1  0  0  0  0
  2  1  2  0  0  0  0
  3  4  2  0  0  0  0
  4  5  1  0  0  0  0
  4  9  1  0  0  0  0
  6  2  1  0  0  0  0
  7  3  1  0  0  0  0
  8 16  1  0  0  0  0
  9  8  2  0  0  0  0
  9 10  1  0  0  0  0
 10 11  2  0  0  0  0
 11 15  1  0  0  0  0
 11 12  1  0  0  0  0
 12 19  1  0  0  0  0
 12 13  1  0  0  0  0
 14 13  2  0  0  0  0
 14 20  1  0  0  0  0
 15 14  1  0  0  0  0
 16 21  1  0  0  0  0
 16 15  2  0  0  0  0
 17  8  1  0  0  0  0
 18 10  1  0  0  0  0
 22  1  1  0  0  0  0
 22 24  1  0  0  0  0
 23 22  2  0  0  0  0
 24 29  1  0  0  0  0
 25 26  1  0  0  0  0
 25 24  2  0  0  0  0
 26 27  2  0  0  0  0
 27 28  1  0  0  0  0
 28 32  1  0  0  0  0
 29 28  2  0  0  0  0
 30 25  1  0  0  0  0
 31 26  1  0  0  0  0
 32 33  2  0  0  0  0
 32 39  1  0  0  0  0
 33 35  1  0  0  0  0
 34 33  1  0  0  0  0
 35 36  1  0  0  0  0
 35 37  2  0  0  0  0
 38 37  1  0  0  0  0
 39 38  2  0  0  0  0
M  END
>  <minimizedAffinity>
-6.95329475

$$$$

 OpenBabel03272507153D

 39 43  0  0  0  0  0  0  0  0999 V2000
   36.7390   27.5200   33.0760 C   0  0  0  0  0  0  0  0  0  0  0  0
   36.3810   28.2990   32.0070 C   0  0  0  0  0  0  0  0  0  0  0  0
   35.7500   29.4320   32.5210 C   0  0  0  0  0  0  0  0  0  0  0  0
   35.7610   29.2740   33.9030 C   0  0  0  0  0  0  0  0  0  0  0  0
   36.3570   28.1310   34.1530 O   0  0  0  0  0  0  0  0  0  0  0  0
   36.5370   28.1090   30.9430 H   0  0  0  0  0  0  0  0  0  0  0  0
   35.3640   30.2190   31.8890 H   0  0  0  0  0  0  0  0  0  0  0  0
   35.9560   31.0970   35.5900 C   0  0  0  0  0  0  0  0  0  0  0  0
   35.1920   30.2510   34.8300 C   0  0  0  0  0  0  0  0  0  0  0  0
   33.8030   30.2670   34.8990 C   0  0  0  0  0  0  0  0  0  0  0  0
   33.2030   31.1640   35.7590 C   0  0  0  0  0  0  0  0  0  0  0  0
   31.9180   31.4000   36.0330 N   0  0  0  0  0  0  0  0  0  0  0  0
   31.8710   32.3700   36.9420 N   0  0  0  0  0  0  0  0  0  0  0  0
   33.1350   32.7500   37.2460 C   0  0  0  0  0  0  0  0  0  0  0  0
   34.0200   32.0010   36.5100 C   0  0  0  0  0  0  0  0  0  0  0  0
   35.3940   31.9980   36.4530 C   0  0  0  0  0  0  0  0  0  0  0  0
   37.0320   31.0120   35.4680 H   0  0  0  0  0  0  0  0  0  0  0  0
   33.1320   29.6210   34.3220 H   0  0  0  0  0  0  0  0  0  0  0  0
   31.0640   30.9420   35.6390 H   0  0  0  0  0  0  0  0  0  0  0  0
   33.3610   33.5360   37.9720 H   0  0  0  0  0  0  0  0  0  0  0  0
   35.9950   32.6690   37.0550 H   0  0  0  0  0  0  0  0  0  0  0  0
   37.4250   26.2500   32.8900 C   0  0  0  0  0  0  0  0  0  0  0  0
   36.8710   25.3500   32.2410 O   0  0  0  0  0  0  0  0  0  0  0  0
   38.7340   26.1210   33.4840 C   0  0  0  0  0  0  0  0  0  0  0  0
   39.6700   27.1190   33.1970 C   0  0  0  0  0  0  0  0  0  0  0  0
   40.9510   27.0410   33.7470 C   0  0  0  0  0  0  0  0  0  0  0  0
   41.2110   25.9630   34.5510 N   0  0  0  0  0  0  0  0  0  0  0  0
   40.3110   25.0190   34.8170 C   0  0  0  0  0  0  0  0  0  0  0  0
   39.0730   25.1030   34.2800 N   0  0  0  0  0  0  0  0  0  0  0  0
   39.4070   27.9390   32.5600 H   0  0  0  0  0  0  0  0  0  0  0  0
   41.6620   27.8170   33.5170 H   0  0  0  0  0  0  0  0  0  0  0  0
   40.6730   23.9000   35.6870 C   0  0  0  0  0  0  0  0  0  0  0  0
   41.8770   23.2760   35.6470 C   0  0  0  0  0  0  0  0  0  0  0  0
   42.6190   23.5980   34.9500 H   0  0  0  0  0  0  0  0  0  0  0  0
   42.1740   22.2110   36.5000 C   0  0  0  0  0  0  0  0  0  0  0  0
   43.1410   21.7140   36.4640 H   0  0  0  0  0  0  0  0  0  0  0  0
   41.1850   21.8290   37.3850 C   0  0  0  0  0  3  0  0  0  0  0  0
   39.9720   22.4700   37.4150 C   0  0  0  0  0  3  0  0  0  0  0  0
   39.7180   23.5000   36.5710 N   0  0  0  0  0  0  0  0  0  0  0  0
  1  5  1  0  0  0  0
  2  3  1  0  0  0  0
  2  1  2  0  0  0  0
  3  4  2  0  0  0  0
  4  5  1  0  0  0  0
  4  9  1  0  0  0  0
  6  2  1  0  0  0  0
  7  3  1  0  0  0  0
  8 16  1  0  0  0  0
  9 10  1  0  0  0  0
  9  8  2  0  0  0  0
 10 11  2  0  0  0  0
 11 12  1  0  0  0  0
 11 15  1  0  0  0  0
 12 13  1  0  0  0  0
 13 14  2  0  0  0  0
 14 20  1  0  0  0  0
 15 14  1  0  0  0  0
 16 15  2  0  0  0  0
 16 21  1  0  0  0  0
 17  8  1  0  0  0  0
 18 10  1  0  0  0  0
 19 12  1  0  0  0  0
 22  1  1  0  0  0  0
 22 24  1  0  0  0  0
 23 22  2  0  0  0  0
 24 29  1  0  0  0  0
 25 24  2  0  0  0  0
 25 26  1  0  0  0  0
 26 27  2  0  0  0  0
 27 28  1  0  0  0  0
 28 32  1  0  0  0  0
 29 28  2  0  0  0  0
 30 25  1  0  0  0  0
 31 26  1  0  0  0  0
 32 39  1  0  0  0  0
 33 32  2  0  0  0  0
 33 35  1  0  0  0  0
 34 33  1  0  0  0  0
 35 37  2  0  0  0  0
 36 35  1  0  0  0  0
 37 38  1  0  0  0  0
 39 38  2  0  0  0  0
M  END
>  <minimizedAffinity>
-6.6512394

$$$$

 OpenBabel03272507153D

 39 43  0  0  0  0  0  0  0  0999 V2000
   36.5790   26.2440   31.9120 C   0  0  0  0  0  0  0  0  0  0  0  0
   35.3910   26.1570   31.2350 C   0  0  0  0  0  0  0  0  0  0  0  0
   35.1680   24.8040   30.9730 C   0  0  0  0  0  0  0  0  0  0  0  0
   36.2570   24.1320   31.5170 C   0  0  0  0  0  0  0  0  0  0  0  0
   37.0410   25.0400   32.0500 O   0  0  0  0  0  0  0  0  0  0  0  0
   34.7160   26.9620   30.9360 H   0  0  0  0  0  0  0  0  0  0  0  0
   34.2930   24.4510   30.4450 H   0  0  0  0  0  0  0  0  0  0  0  0
   37.5240   22.0670   30.9310 C   0  0  0  0  0  0  0  0  0  0  0  0
   36.4180   22.6800   31.4610 C   0  0  0  0  0  0  0  0  0  0  0  0
   35.3600   21.9430   31.9830 C   0  0  0  0  0  0  0  0  0  0  0  0
   35.4470   20.5660   31.9560 C   0  0  0  0  0  0  0  0  0  0  0  0
   34.6030   19.6190   32.3730 N   0  0  0  0  0  0  0  0  0  0  0  0
   35.1610   18.4400   32.1150 N   0  0  0  0  0  0  0  0  0  0  0  0
   36.3650   18.6420   31.5280 C   0  0  0  0  0  0  0  0  0  0  0  0
   36.5870   19.9910   31.4080 C   0  0  0  0  0  0  0  0  0  0  0  0
   37.6430   20.7050   30.8880 C   0  0  0  0  0  0  0  0  0  0  0  0
   38.2980   22.7240   30.5480 H   0  0  0  0  0  0  0  0  0  0  0  0
   34.4480   22.3660   32.4200 H   0  0  0  0  0  0  0  0  0  0  0  0
   33.6660   19.7250   32.8260 H   0  0  0  0  0  0  0  0  0  0  0  0
   37.0200   17.8220   31.2190 H   0  0  0  0  0  0  0  0  0  0  0  0
   38.5150   20.2170   30.4710 H   0  0  0  0  0  0  0  0  0  0  0  0
   37.1120   27.5270   32.3420 C   0  0  0  0  0  0  0  0  0  0  0  0
   38.3220   27.6270   32.5970 O   0  0  0  0  0  0  0  0  0  0  0  0
   36.1780   28.6230   32.4410 C   0  0  0  0  0  0  0  0  0  0  0  0
   36.0380   29.4500   31.3230 C   0  0  0  0  0  0  0  0  0  0  0  0
   35.1470   30.5240   31.3680 C   0  0  0  0  0  0  0  0  0  0  0  0
   34.4550   30.7010   32.5360 N   0  0  0  0  0  0  0  0  0  0  0  0
   34.5970   29.9070   33.5950 C   0  0  0  0  0  0  0  0  0  0  0  0
   35.4620   28.8690   33.5420 N   0  0  0  0  0  0  0  0  0  0  0  0
   36.6080   29.2600   30.4350 H   0  0  0  0  0  0  0  0  0  0  0  0
   35.0480   31.1520   30.4980 H   0  0  0  0  0  0  0  0  0  0  0  0
   33.8170   30.1680   34.8040 C   0  0  0  0  0  0  0  0  0  0  0  0
   34.0630   31.2020   35.6470 C   0  0  0  0  0  0  0  0  0  0  0  0
   34.8640   31.8770   35.4420 H   0  0  0  0  0  0  0  0  0  0  0  0
   33.2870   31.4080   36.7910 C   0  0  0  0  0  0  0  0  0  0  0  0
   33.4890   32.2390   37.4640 H   0  0  0  0  0  0  0  0  0  0  0  0
   32.2620   30.5120   37.0170 C   0  0  0  0  0  3  0  0  0  0  0  0
   32.0250   29.4710   36.1540 C   0  0  0  0  0  3  0  0  0  0  0  0
   32.7990   29.3010   35.0540 N   0  0  0  0  0  0  0  0  0  0  0  0
  1  5  1  0  0  0  0
  1 22  1  0  0  0  0
  2  1  2  0  0  0  0
  3  2  1  0  0  0  0
  3  4  2  0  0  0  0
  4  5  1  0  0  0  0
  6  2  1  0  0  0  0
  7  3  1  0  0  0  0
  8  9  1  0  0  0  0
  9  4  1  0  0  0  0
  9 10  2  0  0  0  0
 10 18  1  0  0  0  0
 11 10  1  0  0  0  0
 11 12  1  0  0  0  0
 12 19  1  0  0  0  0
 13 12  1  0  0  0  0
 14 13  2  0  0  0  0
 15 14  1  0  0  0  0
 15 11  2  0  0  0  0
 16  8  2  0  0  0  0
 16 15  1  0  0  0  0
 17  8  1  0  0  0  0
 20 14  1  0  0  0  0
 21 16  1  0  0  0  0
 22 24  1  0  0  0  0
 22 23  2  0  0  0  0
 24 29  1  0  0  0  0
 25 26  1  0  0  0  0
 25 24  2  0  0  0  0
 26 27  2  0  0  0  0
 27 28  1  0  0  0  0
 28 32  1  0  0  0  0
 29 28  2  0  0  0  0
 30 25  1  0  0  0  0
 31 26  1  0  0  0  0
 32 39  2  0  0  0  0
 32 33  1  0  0  0  0
 33 35  2  0  0  0  0
 34 33  1  0  0  0  0
 35 37  1  0  0  0  0
 35 36  1  0  0  0  0
 38 37  2  0  0  0  0
 39 38  1  0  0  0  0
M  END
>  <minimizedAffinity>
-6.53784561

$$$$

 OpenBabel03272507153D

 39 43  0  0  0  0  0  0  0  0999 V2000
   36.8620   27.2300   32.0740 C   0  0  0  0  0  0  0  0  0  0  0  0
   37.0780   28.3520   31.3180 C   0  0  0  0  0  0  0  0  0  0  0  0
   36.4150   29.4040   31.9500 C   0  0  0  0  0  0  0  0  0  0  0  0
   35.8210   28.8500   33.0780 C   0  0  0  0  0  0  0  0  0  0  0  0
   36.1270   27.5740   33.0850 O   0  0  0  0  0  0  0  0  0  0  0  0
   37.6490   28.4500   30.3920 H   0  0  0  0  0  0  0  0  0  0  0  0
   36.4210   30.4130   31.5600 H   0  0  0  0  0  0  0  0  0  0  0  0
   33.6530   29.5640   34.0780 C   0  0  0  0  0  0  0  0  0  0  0  0
   35.0210   29.6220   34.0290 C   0  0  0  0  0  0  0  0  0  0  0  0
   35.7460   30.4360   34.8930 C   0  0  0  0  0  0  0  0  0  0  0  0
   35.0490   31.1940   35.8130 C   0  0  0  0  0  0  0  0  0  0  0  0
   35.4660   32.0510   36.7470 N   0  0  0  0  0  0  0  0  0  0  0  0
   34.3910   32.5220   37.3710 N   0  0  0  0  0  0  0  0  0  0  0  0
   33.2850   31.9600   36.8260 C   0  0  0  0  0  0  0  0  0  0  0  0
   33.6630   31.1030   35.8240 C   0  0  0  0  0  0  0  0  0  0  0  0
   32.9320   30.3020   34.9770 C   0  0  0  0  0  0  0  0  0  0  0  0
   33.1750   28.9000   33.3650 H   0  0  0  0  0  0  0  0  0  0  0  0
   36.8370   30.5310   34.9090 H   0  0  0  0  0  0  0  0  0  0  0  0
   36.4430   32.3380   36.9900 H   0  0  0  0  0  0  0  0  0  0  0  0
   32.2720   32.1890   37.1700 H   0  0  0  0  0  0  0  0  0  0  0  0
   31.8500   30.2590   35.0190 H   0  0  0  0  0  0  0  0  0  0  0  0
   37.4210   25.9420   31.6930 C   0  0  0  0  0  0  0  0  0  0  0  0
   36.9420   25.3360   30.7220 O   0  0  0  0  0  0  0  0  0  0  0  0
   38.5200   25.4450   32.4860 C   0  0  0  0  0  0  0  0  0  0  0  0
   39.7850   25.4350   31.8920 C   0  0  0  0  0  0  0  0  0  0  0  0
   40.8830   24.9640   32.6160 C   0  0  0  0  0  0  0  0  0  0  0  0
   40.6380   24.5320   33.8920 N   0  0  0  0  0  0  0  0  0  0  0  0
   39.4280   24.5460   34.4470 C   0  0  0  0  0  0  0  0  0  0  0  0
   38.3720   25.0040   33.7380 N   0  0  0  0  0  0  0  0  0  0  0  0
   39.9150   25.7870   30.8870 H   0  0  0  0  0  0  0  0  0  0  0  0
   41.8520   24.9620   32.1460 H   0  0  0  0  0  0  0  0  0  0  0  0
   39.2560   24.0660   35.8170 C   0  0  0  0  0  0  0  0  0  0  0  0
   40.1570   23.2780   36.4550 C   0  0  0  0  0  0  0  0  0  0  0  0
   41.0490   22.9760   35.9530 H   0  0  0  0  0  0  0  0  0  0  0  0
   39.9450   22.8440   37.7670 C   0  0  0  0  0  0  0  0  0  0  0  0
   40.6710   22.2130   38.2740 H   0  0  0  0  0  0  0  0  0  0  0  0
   38.7780   23.2590   38.3780 C   0  0  0  0  0  3  0  0  0  0  0  0
   37.8760   24.0570   37.7200 C   0  0  0  0  0  3  0  0  0  0  0  0
   38.1140   24.4580   36.4460 N   0  0  0  0  0  0  0  0  0  0  0  0
  1  5  1  0  0  0  0
  2  3  1  0  0  0  0
  2  1  2  0  0  0  0
  3  4  2  0  0  0  0
  4  5  1  0  0  0  0
  4  9  1  0  0  0  0
  6  2  1  0  0  0  0
  7  3  1  0  0  0  0
  8 16  1  0  0  0  0
  9  8  2  0  0  0  0
  9 10  1  0  0  0  0
 10 18  1  0  0  0  0
 10 11  2  0  0  0  0
 11 15  1  0  0  0  0
 11 12  1  0  0  0  0
 12 19  1  0  0  0  0
 12 13  1  0  0  0  0
 14 20  1  0  0  0  0
 14 13  2  0  0  0  0
 15 14  1  0  0  0  0
 16 21  1  0  0  0  0
 16 15  2  0  0  0  0
 17  8  1  0  0  0  0
 22  1  1  0  0  0  0
 22 24  1  0  0  0  0
 23 22  2  0  0  0  0
 24 29  1  0  0  0  0
 25 24  2  0  0  0  0
 25 26  1  0  0  0  0
 26 27  2  0  0  0  0
 27 28  1  0  0  0  0
 28 32  1  0  0  0  0
 29 28  2  0  0  0  0
 30 25  1  0  0  0  0
 31 26  1  0  0  0  0
 32 39  2  0  0  0  0
 32 33  1  0  0  0  0
 33 35  2  0  0  0  0
 34 33  1  0  0  0  0
 35 36  1  0  0  0  0
 35 37  1  0  0  0  0
 38 37  2  0  0  0  0
 39 38  1  0  0  0  0
M  END
>  <minimizedAffinity>
-6.50465584

$$$$

 OpenBabel03272507153D

 39 43  0  0  0  0  0  0  0  0999 V2000
   37.4580   27.6780   32.5830 C   0  0  0  0  0  0  0  0  0  0  0  0
   36.9510   28.3850   31.5250 C   0  0  0  0  0  0  0  0  0  0  0  0
   35.9770   29.2440   32.0370 C   0  0  0  0  0  0  0  0  0  0  0  0
   35.9470   29.0030   33.4060 C   0  0  0  0  0  0  0  0  0  0  0  0
   36.8420   28.0750   33.6520 O   0  0  0  0  0  0  0  0  0  0  0  0
   37.2240   28.3220   30.4690 H   0  0  0  0  0  0  0  0  0  0  0  0
   35.4130   29.9210   31.4120 H   0  0  0  0  0  0  0  0  0  0  0  0
   33.6980   29.4980   34.3580 C   0  0  0  0  0  0  0  0  0  0  0  0
   35.0530   29.7030   34.3280 C   0  0  0  0  0  0  0  0  0  0  0  0
   35.6700   30.6080   35.1850 C   0  0  0  0  0  0  0  0  0  0  0  0
   34.8810   31.3050   36.0770 C   0  0  0  0  0  0  0  0  0  0  0  0
   35.1870   32.2210   36.9980 N   0  0  0  0  0  0  0  0  0  0  0  0
   34.0560   32.5850   37.5960 N   0  0  0  0  0  0  0  0  0  0  0  0
   33.0270   31.8960   37.0470 C   0  0  0  0  0  0  0  0  0  0  0  0
   33.5120   31.0640   36.0690 C   0  0  0  0  0  0  0  0  0  0  0  0
   32.8860   30.1730   35.2290 C   0  0  0  0  0  0  0  0  0  0  0  0
   33.3060   28.7720   33.6520 H   0  0  0  0  0  0  0  0  0  0  0  0
   36.7450   30.8200   35.2140 H   0  0  0  0  0  0  0  0  0  0  0  0
   36.1230   32.6160   37.2500 H   0  0  0  0  0  0  0  0  0  0  0  0
   31.9890   32.0210   37.3710 H   0  0  0  0  0  0  0  0  0  0  0  0
   31.8150   30.0140   35.2570 H   0  0  0  0  0  0  0  0  0  0  0  0
   38.5040   26.6840   32.3960 C   0  0  0  0  0  0  0  0  0  0  0  0
   39.4520   26.9360   31.6360 O   0  0  0  0  0  0  0  0  0  0  0  0
   38.3690   25.4460   33.1270 C   0  0  0  0  0  0  0  0  0  0  0  0
   39.0480   25.3420   34.3430 C   0  0  0  0  0  0  0  0  0  0  0  0
   38.9500   24.1650   35.0890 C   0  0  0  0  0  0  0  0  0  0  0  0
   38.1750   23.1670   34.5620 N   0  0  0  0  0  0  0  0  0  0  0  0
   37.5320   23.2780   33.4020 C   0  0  0  0  0  0  0  0  0  0  0  0
   37.6330   24.4210   32.6880 N   0  0  0  0  0  0  0  0  0  0  0  0
   39.6410   26.1590   34.7040 H   0  0  0  0  0  0  0  0  0  0  0  0
   39.4790   24.0990   36.0250 H   0  0  0  0  0  0  0  0  0  0  0  0
   36.7250   22.1600   32.9130 C   0  0  0  0  0  0  0  0  0  0  0  0
   36.3500   21.1100   33.6860 C   0  0  0  0  0  0  0  0  0  0  0  0
   36.6480   21.0710   34.7100 H   0  0  0  0  0  0  0  0  0  0  0  0
   35.5780   20.0660   33.1700 C   0  0  0  0  0  0  0  0  0  0  0  0
   35.2800   19.2260   33.7940 H   0  0  0  0  0  0  0  0  0  0  0  0
   35.2160   20.1580   31.8410 C   0  0  0  0  0  3  0  0  0  0  0  0
   35.6020   21.2280   31.0710 C   0  0  0  0  0  3  0  0  0  0  0  0
   36.3520   22.2230   31.6050 N   0  0  0  0  0  0  0  0  0  0  0  0
  1  5  1  0  0  0  0
  2  3  1  0  0  0  0
  2  1  2  0  0  0  0
  3  4  2  0  0  0  0
  4  5  1  0  0  0  0
  4  9  1  0  0  0  0
  6  2  1  0  0  0  0
  7  3  1  0  0  0  0
  8 16  1  0  0  0  0
  9  8  2  0  0  0  0
  9 10  1  0  0  0  0
 10 18  1  0  0  0  0
 10 11  2  0  0  0  0
 11 12  1  0  0  0  0
 12 19  1  0  0  0  0
 12 13  1  0  0  0  0
 14 20  1  0  0  0  0
 14 13  2  0  0  0  0
 15 11  1  0  0  0  0
 15 14  1  0  0  0  0
 16 21  1  0  0  0  0
 16 15  2  0  0  0  0
 17  8  1  0  0  0  0
 22  1  1  0  0  0  0
 22 24  1  0  0  0  0
 23 22  2  0  0  0  0
 24 25  1  0  0  0  0
 25 30  1  0  0  0  0
 25 26  2  0  0  0  0
 26 31  1  0  0  0  0
 27 26  1  0  0  0  0
 28 27  2  0  0  0  0
 29 24  2  0  0  0  0
 29 28  1  0  0  0  0
 32 28  1  0  0  0  0
 32 33  1  0  0  0  0
 33 34  1  0  0  0  0
 35 33  2  0  0  0  0
 35 36  1  0  0  0  0
 37 35  1  0  0  0  0
 38 39  1  0  0  0  0
 38 37  2  0  0  0  0
 39 32  2  0  0  0  0
M  END
>  <minimizedAffinity>
-6.47817707

$$$$

 OpenBabel03272507153D

 39 43  0  0  0  0  0  0  0  0999 V2000
   37.1320   27.5460   32.5830 C   0  0  0  0  0  0  0  0  0  0  0  0
   36.3030   28.0420   31.6120 C   0  0  0  0  0  0  0  0  0  0  0  0
   35.4840   28.9940   32.2210 C   0  0  0  0  0  0  0  0  0  0  0  0
   35.8710   29.0220   33.5560 C   0  0  0  0  0  0  0  0  0  0  0  0
   36.8400   28.1480   33.6930 O   0  0  0  0  0  0  0  0  0  0  0  0
   36.2550   27.7740   30.5540 H   0  0  0  0  0  0  0  0  0  0  0  0
   34.7290   29.5450   31.6770 H   0  0  0  0  0  0  0  0  0  0  0  0
   35.9660   30.8080   35.2920 C   0  0  0  0  0  0  0  0  0  0  0  0
   35.2560   29.8960   34.5550 C   0  0  0  0  0  0  0  0  0  0  0  0
   33.8830   29.7400   34.7180 C   0  0  0  0  0  0  0  0  0  0  0  0
   33.2430   30.5320   35.6490 C   0  0  0  0  0  0  0  0  0  0  0  0
   31.9620   30.6010   36.0180 N   0  0  0  0  0  0  0  0  0  0  0  0
   31.8640   31.5330   36.9620 N   0  0  0  0  0  0  0  0  0  0  0  0
   33.0920   32.0560   37.1930 C   0  0  0  0  0  0  0  0  0  0  0  0
   34.0050   31.4420   36.3730 C   0  0  0  0  0  0  0  0  0  0  0  0
   35.3620   31.6090   36.2230 C   0  0  0  0  0  0  0  0  0  0  0  0
   37.0320   30.8590   35.0950 H   0  0  0  0  0  0  0  0  0  0  0  0
   33.2560   29.0320   34.1650 H   0  0  0  0  0  0  0  0  0  0  0  0
   31.1440   30.0530   35.6650 H   0  0  0  0  0  0  0  0  0  0  0  0
   33.2730   32.8440   37.9300 H   0  0  0  0  0  0  0  0  0  0  0  0
   35.9190   32.3310   36.8070 H   0  0  0  0  0  0  0  0  0  0  0  0
   38.1220   26.5230   32.2820 C   0  0  0  0  0  0  0  0  0  0  0  0
   38.9740   26.7420   31.4070 O   0  0  0  0  0  0  0  0  0  0  0  0
   38.0470   25.2970   33.0400 C   0  0  0  0  0  0  0  0  0  0  0  0
   38.6560   25.2830   34.2980 C   0  0  0  0  0  0  0  0  0  0  0  0
   38.6120   24.1210   35.0710 C   0  0  0  0  0  0  0  0  0  0  0  0
   37.9600   23.0460   34.5300 N   0  0  0  0  0  0  0  0  0  0  0  0
   37.3840   23.0710   33.3300 C   0  0  0  0  0  0  0  0  0  0  0  0
   37.4310   24.2010   32.5880 N   0  0  0  0  0  0  0  0  0  0  0  0
   39.1520   26.1570   34.6690 H   0  0  0  0  0  0  0  0  0  0  0  0
   39.0850   24.1240   36.0390 H   0  0  0  0  0  0  0  0  0  0  0  0
   36.7070   21.8760   32.8270 C   0  0  0  0  0  0  0  0  0  0  0  0
   36.1470   20.9370   33.6300 C   0  0  0  0  0  0  0  0  0  0  0  0
   36.1890   21.0500   34.6910 H   0  0  0  0  0  0  0  0  0  0  0  0
   35.5120   19.8110   33.1000 C   0  0  0  0  0  0  0  0  0  0  0  0
   35.0640   19.0610   33.7480 H   0  0  0  0  0  0  0  0  0  0  0  0
   35.4820   19.7050   31.7230 C   0  0  0  0  0  3  0  0  0  0  0  0
   36.0520   20.6640   30.9230 C   0  0  0  0  0  3  0  0  0  0  0  0
   36.6610   21.7430   31.4730 N   0  0  0  0  0  0  0  0  0  0  0  0
  1  5  1  0  0  0  0
  2  3  1  0  0  0  0
  2  1  2  0  0  0  0
  3  4  2  0  0  0  0
  4  5  1  0  0  0  0
  4  9  1  0  0  0  0
  6  2  1  0  0  0  0
  7  3  1  0  0  0  0
  8 16  1  0  0  0  0
  9 10  1  0  0  0  0
  9  8  2  0  0  0  0
 10 11  2  0  0  0  0
 11 12  1  0  0  0  0
 11 15  1  0  0  0  0
 12 13  1  0  0  0  0
 13 14  2  0  0  0  0
 14 20  1  0  0  0  0
 15 14  1  0  0  0  0
 16 15  2  0  0  0  0
 16 21  1  0  0  0  0
 17  8  1  0  0  0  0
 18 10  1  0  0  0  0
 19 12  1  0  0  0  0
 22  1  1  0  0  0  0
 22 24  1  0  0  0  0
 23 22  2  0  0  0  0
 24 25  1  0  0  0  0
 25 30  1  0  0  0  0
 25 26  2  0  0  0  0
 26 31  1  0  0  0  0
 27 26  1  0  0  0  0
 28 27  2  0  0  0  0
 29 24  2  0  0  0  0
 29 28  1  0  0  0  0
 32 28  1  0  0  0  0
 32 33  1  0  0  0  0
 33 34  1  0  0  0  0
 35 33  2  0  0  0  0
 35 36  1  0  0  0  0
 37 35  1  0  0  0  0
 38 39  1  0  0  0  0
 38 37  2  0  0  0  0
 39 32  2  0  0  0  0
M  END
>  <minimizedAffinity>
-6.45651531

$$$$

 OpenBabel03272507153D

 39 43  0  0  0  0  0  0  0  0999 V2000
   37.8990   25.6740   35.7870 C   0  0  0  0  0  0  0  0  0  0  0  0
   38.4920   26.7740   36.3480 C   0  0  0  0  0  0  0  0  0  0  0  0
   38.0410   27.8880   35.6380 C   0  0  0  0  0  0  0  0  0  0  0  0
   37.1800   27.3900   34.6660 C   0  0  0  0  0  0  0  0  0  0  0  0
   37.1470   26.0860   34.8150 O   0  0  0  0  0  0  0  0  0  0  0  0
   39.1910   26.8190   37.1860 H   0  0  0  0  0  0  0  0  0  0  0  0
   38.3560   28.8940   35.8740 H   0  0  0  0  0  0  0  0  0  0  0  0
   36.6840   28.1500   32.3450 C   0  0  0  0  0  0  0  0  0  0  0  0
   36.4830   28.2360   33.6980 C   0  0  0  0  0  0  0  0  0  0  0  0
   35.5890   29.1520   34.2430 C   0  0  0  0  0  0  0  0  0  0  0  0
   34.9010   29.9830   33.3830 C   0  0  0  0  0  0  0  0  0  0  0  0
   34.0010   30.9420   33.6120 N   0  0  0  0  0  0  0  0  0  0  0  0
   33.6430   31.4480   32.4360 N   0  0  0  0  0  0  0  0  0  0  0  0
   34.3220   30.8070   31.4550 C   0  0  0  0  0  0  0  0  0  0  0  0
   35.1400   29.8600   32.0190 C   0  0  0  0  0  0  0  0  0  0  0  0
   36.0190   28.9590   31.4640 C   0  0  0  0  0  0  0  0  0  0  0  0
   37.4000   27.4050   32.0130 H   0  0  0  0  0  0  0  0  0  0  0  0
   35.3800   29.2740   35.3110 H   0  0  0  0  0  0  0  0  0  0  0  0
   33.6110   31.2750   34.5240 H   0  0  0  0  0  0  0  0  0  0  0  0
   34.2000   31.0450   30.3950 H   0  0  0  0  0  0  0  0  0  0  0  0
   36.1760   28.8940   30.3940 H   0  0  0  0  0  0  0  0  0  0  0  0
   38.1570   24.3350   36.2940 C   0  0  0  0  0  0  0  0  0  0  0  0
   37.9850   24.0990   37.4990 O   0  0  0  0  0  0  0  0  0  0  0  0
   38.6030   23.3490   35.3380 C   0  0  0  0  0  0  0  0  0  0  0  0
   39.9800   23.1350   35.2330 C   0  0  0  0  0  0  0  0  0  0  0  0
   40.4630   22.1910   34.3240 C   0  0  0  0  0  0  0  0  0  0  0  0
   39.5300   21.5240   33.5760 N   0  0  0  0  0  0  0  0  0  0  0  0
   38.2200   21.7360   33.6860 C   0  0  0  0  0  0  0  0  0  0  0  0
   37.7620   22.6510   34.5690 N   0  0  0  0  0  0  0  0  0  0  0  0
   40.6620   23.6890   35.8460 H   0  0  0  0  0  0  0  0  0  0  0  0
   41.5270   22.0360   34.2540 H   0  0  0  0  0  0  0  0  0  0  0  0
   37.2930   20.9770   32.8470 C   0  0  0  0  0  0  0  0  0  0  0  0
   36.0590   20.5880   33.2550 C   0  0  0  0  0  0  0  0  0  0  0  0
   35.7210   20.8340   34.2370 H   0  0  0  0  0  0  0  0  0  0  0  0
   35.2100   19.8630   32.4140 C   0  0  0  0  0  0  0  0  0  0  0  0
   34.2210   19.5540   32.7460 H   0  0  0  0  0  0  0  0  0  0  0  0
   35.6880   19.5670   31.1530 C   0  0  0  0  0  3  0  0  0  0  0  0
   36.9390   19.9690   30.7540 C   0  0  0  0  0  3  0  0  0  0  0  0
   37.7360   20.6700   31.5970 N   0  0  0  0  0  0  0  0  0  0  0  0
  1 22  1  0  0  0  0
  1  2  2  0  0  0  0
  2  6  1  0  0  0  0
  3  7  1  0  0  0  0
  3  2  1  0  0  0  0
  4  5  1  0  0  0  0
  4  3  2  0  0  0  0
  5  1  1  0  0  0  0
  8  9  1  0  0  0  0
  9 10  2  0  0  0  0
  9  4  1  0  0  0  0
 10 18  1  0  0  0  0
 11 12  1  0  0  0  0
 11 10  1  0  0  0  0
 12 19  1  0  0  0  0
 13 12  1  0  0  0  0
 14 15  1  0  0  0  0
 14 13  2  0  0  0  0
 15 11  2  0  0  0  0
 16 15  1  0  0  0  0
 16  8  2  0  0  0  0
 17  8  1  0  0  0  0
 20 14  1  0  0  0  0
 21 16  1  0  0  0  0
 22 23  2  0  0  0  0
 24 22  1  0  0  0  0
 25 24  1  0  0  0  0
 25 30  1  0  0  0  0
 26 25  2  0  0  0  0
 27 28  2  0  0  0  0
 27 26  1  0  0  0  0
 28 29  1  0  0  0  0
 29 24  2  0  0  0  0
 31 26  1  0  0  0  0
 32 33  1  0  0  0  0
 32 28  1  0  0  0  0
 33 34  1  0  0  0  0
 35 36  1  0  0  0  0
 35 33  2  0  0  0  0
 37 35  1  0  0  0  0
 38 37  2  0  0  0  0
 38 39  1  0  0  0  0
 39 32  2  0  0  0  0
M  END
>  <minimizedAffinity>
-6.35868549

$$$$
