
 OpenBabel03272510013D

 20 21  0  0  0  0  0  0  0  0999 V2000
   38.3040   31.2840   50.2200 C   0  0  0  0  0  0  0  0  0  0  0  0
   38.4190   31.5470   48.8500 C   0  0  0  0  0  0  0  0  0  0  0  0
   37.4230   31.0640   48.0160 C   0  0  0  0  0  0  0  0  0  0  0  0
   36.3940   30.3660   48.5710 N   0  0  0  0  0  0  0  0  0  0  0  0
   36.3190   30.1340   49.8950 C   0  0  0  0  0  0  0  0  0  0  0  0
   37.2740   30.5970   50.7020 N   0  0  0  0  0  0  0  0  0  0  0  0
   39.1100   31.6860   50.8240 H   0  0  0  0  0  0  0  0  0  0  0  0
   39.2550   32.1060   48.4500 H   0  0  0  0  0  0  0  0  0  0  0  0
   37.4860   31.3040   46.5770 C   0  0  0  0  0  0  0  0  0  0  0  0
   36.7000   30.5420   45.7420 C   0  0  0  0  0  0  0  0  0  0  0  0
   36.0460   29.7820   46.1180 H   0  0  0  0  0  0  0  0  0  0  0  0
   36.8280   30.8430   44.3950 C   0  0  0  0  0  0  0  0  0  0  0  0
   36.2340   30.2770   43.6810 H   0  0  0  0  0  0  0  0  0  0  0  0
   37.6830   31.8250   44.0080 C   0  0  0  0  0  3  0  0  0  0  0  0
   38.4670   32.5820   44.8620 C   0  0  0  0  0  3  0  0  0  0  0  0
   38.3230   32.2690   46.1560 N   0  0  0  0  0  0  0  0  0  0  0  0
   35.1560   29.3620   50.4040 C   0  0  0  0  0  0  0  0  0  0  0  0
   35.2360   29.1140   51.7550 F   0  0  0  0  0  0  0  0  0  0  0  0
   33.9650   30.0860   50.2150 F   0  0  0  0  0  0  0  0  0  0  0  0
   34.9620   28.1740   49.7650 F   0  0  0  0  0  0  0  0  0  0  0  0
  1  6  1  0  0  0  0
  1  7  1  0  0  0  0
  2  1  2  0  0  0  0
  3  4  2  0  0  0  0
  3  2  1  0  0  0  0
  4  5  1  0  0  0  0
  5 17  1  0  0  0  0
  5  6  2  0  0  0  0
  8  2  1  0  0  0  0
  9  3  1  0  0  0  0
 10 11  1  0  0  0  0
 10  9  2  0  0  0  0
 12 10  1  0  0  0  0
 13 12  1  0  0  0  0
 14 12  2  0  0  0  0
 14 15  1  0  0  0  0
 15 16  2  0  0  0  0
 16  9  1  0  0  0  0
 17 18  1  0  0  0  0
 19 17  1  0  0  0  0
 20 17  1  0  0  0  0
M  END
>  <minimizedAffinity>
-5.44142818

>  <minimizedRMSD>
0.737903118

$$$$
