
 OpenBabel03272501393D

 44 48  0  0  1  0  0  0  0  0999 V2000
   37.7380   30.8610   50.6500 C   0  0  0  0  0  0  0  0  0  0  0  0
   38.4680   31.5130   49.6830 C   0  0  0  0  0  0  0  0  0  0  0  0
   38.1190   31.4820   48.3250 C   0  0  0  0  0  0  0  0  0  0  0  0
   37.0530   30.8040   48.0020 N   0  0  0  0  0  0  0  0  0  0  0  0
   36.3310   30.1570   48.9750 C   0  0  0  0  0  0  0  0  0  0  0  0
   36.6640   30.1830   50.2590 N   0  0  0  0  0  0  0  0  0  0  0  0
   38.0300   30.8990   51.6910 H   0  0  0  0  0  0  0  0  0  0  0  0
   39.3450   32.0600   50.0500 H   0  0  0  0  0  0  0  0  0  0  0  0
   35.1310   29.4010   48.6280 C   0  0  0  0  0  0  0  0  0  0  0  0
   34.6040   28.2480   49.1420 C   0  0  0  0  0  0  0  0  0  0  0  0
   33.4650   27.7200   48.6690 C   0  0  0  0  0  0  0  0  0  0  0  0
   32.8690   28.4510   47.6040 C   0  0  0  0  0  0  0  0  0  0  0  0
   34.0000   29.8610   47.3600 S   0  0  0  0  0  0  0  0  0  0  0  0
   35.1650   27.7900   49.9570 H   0  0  0  0  0  0  0  0  0  0  0  0
   32.9780   26.8230   49.0110 H   0  0  0  0  0  0  0  0  0  0  0  0
   31.6700   28.2030   46.8540 C   0  0  0  0  0  0  0  0  0  0  0  0
   31.2970   26.9070   46.7150 C   0  0  0  0  0  0  0  0  0  0  0  0
   31.8510   26.0790   47.1360 H   0  0  0  0  0  0  0  0  0  0  0  0
   30.1280   26.6600   45.9850 C   0  0  0  0  0  0  0  0  0  0  0  0
   29.7480   25.6670   45.8180 H   0  0  0  0  0  0  0  0  0  0  0  0
   29.4520   27.7670   45.4640 C   0  0  0  0  0  0  0  0  0  0  0  0
   29.8800   29.0880   45.6360 C   0  0  0  0  0  0  0  0  0  0  0  0
   31.0200   29.2420   46.3550 N   0  0  0  0  0  0  0  0  0  0  0  0
   39.0430   32.1310   47.4390 C   0  0  1  0  0  0  0  0  0  0  0  0
   40.0330   31.8070   47.9630 H   0  0  0  0  0  0  0  0  0  0  0  0
   39.1320   31.5790   46.0330 C   0  0  2  0  0  0  0  0  0  0  0  0
   40.5980   31.2260   45.7910 C   0  0  0  0  0  0  0  0  0  0  0  0
   39.8810   32.2780   45.0180 C   0  0  1  0  0  0  0  0  0  0  0  0
   38.3810   30.7830   45.8530 H   0  0  0  0  0  0  0  0  0  0  0  0
   40.7480   30.2290   45.3420 H   0  0  0  0  0  0  0  0  0  0  0  0
   41.4240   31.5960   46.3920 H   0  0  0  0  0  0  0  0  0  0  0  0
   40.0120   33.3600   45.2220 H   0  0  0  0  0  0  0  0  0  0  0  0
   39.8260   32.0070   43.5760 C   0  0  0  0  0  0  0  0  0  0  0  0
   39.1310   32.8870   42.7850 C   0  0  0  0  0  0  0  0  0  0  0  0
   39.1140   32.6290   41.4410 C   0  0  0  0  0  0  0  0  0  0  0  0
   39.7540   31.5460   40.8650 C   0  0  0  0  0  0  0  0  0  0  0  0
   40.4500   30.6750   41.7010 C   0  0  0  0  0  0  0  0  0  0  0  0
   40.4710   30.9220   43.0220 N   0  0  0  0  0  0  0  0  0  0  0  0
   38.6020   33.7540   43.1280 H   0  0  0  0  0  0  0  0  0  0  0  0
   38.5880   33.2730   40.7350 H   0  0  0  0  0  0  0  0  0  0  0  0
   39.7730   31.2980   39.8140 H   0  0  0  0  0  0  0  0  0  0  0  0
   40.9940   29.7940   41.3980 H   0  0  0  0  0  0  0  0  0  0  0  0
   39.2950   33.4120   47.5170 O   0  0  0  0  0  0  0  0  0  0  0  0
   38.6180   34.0820   47.3170 H   0  0  0  0  0  0  0  0  0  0  0  0
  1  7  1  0  0  0  0
  2  8  1  0  0  0  0
  2  1  2  0  0  0  0
  3  2  1  0  0  0  0
  4  3  2  0  0  0  0
  4  5  1  0  0  0  0
  5  6  2  0  0  0  0
  6  1  1  0  0  0  0
  9  5  1  0  0  0  0
  9 10  2  0  0  0  0
 10 14  1  0  0  0  0
 11 15  1  0  0  0  0
 11 10  1  0  0  0  0
 12 11  2  0  0  0  0
 13 12  1  0  0  0  0
 13  9  1  0  0  0  0
 16 12  1  0  0  0  0
 17 16  1  0  0  0  0
 17 18  1  0  0  0  0
 19 17  2  0  0  0  0
 20 19  1  0  0  0  0
 21 22  2  0  0  0  0
 21 19  1  0  0  0  0
 22 23  1  0  0  0  0
 23 16  2  0  0  0  0
 24 43  1  0  0  0  0
 24 25  1  1  0  0  0
 24  3  1  0  0  0  0
 26 29  1  6  0  0  0
 26 24  1  0  0  0  0
 27 26  1  0  0  0  0
 27 31  1  0  0  0  0
 28 32  1  1  0  0  0
 28 27  1  0  0  0  0
 28 26  1  0  0  0  0
 30 27  1  0  0  0  0
 33 28  1  0  0  0  0
 34 39  1  0  0  0  0
 34 33  2  0  0  0  0
 35 34  1  0  0  0  0
 36 35  2  0  0  0  0
 36 37  1  0  0  0  0
 37 38  2  0  0  0  0
 38 33  1  0  0  0  0
 40 35  1  0  0  0  0
 41 36  1  0  0  0  0
 42 37  1  0  0  0  0
 44 43  1  0  0  0  0
M  END
>  <minimizedAffinity>
-6.70296812

>  <minimizedRMSD>
0.330313593

$$$$
