
 OpenBabel03272503233D

 29 31  0  0  1  0  0  0  0  0999 V2000
   37.0440   30.5120   48.6750 N   0  0  0  0  0  0  0  0  0  0  0  0
   37.5290   31.6000   47.8730 C   0  0  1  0  0  0  0  0  0  0  0  0
   38.3500   32.4120   48.8570 C   0  0  0  0  0  0  0  0  0  0  0  0
   38.2020   31.7190   50.2150 C   0  0  0  0  0  0  0  0  0  0  0  0
   38.0470   30.2820   49.7150 C   0  0  0  0  0  0  0  0  0  0  0  0
   36.6580   32.2360   47.5850 H   0  0  0  0  0  0  0  0  0  0  0  0
   39.4240   32.2130   48.5720 H   0  0  0  0  0  0  0  0  0  0  0  0
   38.1110   33.4730   48.8850 H   0  0  0  0  0  0  0  0  0  0  0  0
   39.0740   31.8690   50.8510 H   0  0  0  0  0  0  0  0  0  0  0  0
   37.2390   32.0500   50.6480 H   0  0  0  0  0  0  0  0  0  0  0  0
   38.9920   29.8960   49.3320 H   0  0  0  0  0  0  0  0  0  0  0  0
   37.6700   29.6120   50.5040 H   0  0  0  0  0  0  0  0  0  0  0  0
   35.8360   29.7810   48.5220 C   0  0  0  0  0  0  0  0  0  0  0  0
   34.9090   30.2780   47.6080 C   0  0  0  0  0  0  0  0  0  0  0  0
   33.7070   29.5850   47.4300 C   0  0  0  0  0  0  0  0  0  0  0  0
   33.5200   28.4450   48.1790 N   0  0  0  0  0  0  0  0  0  0  0  0
   34.4560   27.9970   49.0610 C   0  0  0  0  0  0  0  0  0  0  0  0
   35.6120   28.6680   49.2290 N   0  0  0  0  0  0  0  0  0  0  0  0
   35.0170   31.1660   47.0020 H   0  0  0  0  0  0  0  0  0  0  0  0
   32.9610   29.9240   46.7410 H   0  0  0  0  0  0  0  0  0  0  0  0
   34.2060   27.0890   49.5990 H   0  0  0  0  0  0  0  0  0  0  0  0
   38.2630   31.1920   46.6710 C   0  0  0  0  0  0  0  0  0  0  0  0
   37.5610   30.6740   45.5780 C   0  0  0  0  0  0  0  0  0  0  0  0
   36.4860   30.5960   45.6740 H   0  0  0  0  0  0  0  0  0  0  0  0
   38.1300   30.2510   44.3800 C   0  0  0  0  0  0  0  0  0  0  0  0
   37.4730   29.8680   43.6100 H   0  0  0  0  0  0  0  0  0  0  0  0
   39.4860   30.3640   44.2950 C   0  0  0  0  0  0  0  0  0  0  0  0
   40.1750   30.8750   45.3740 C   0  0  0  0  0  0  0  0  0  0  0  0
   39.5780   31.2750   46.5240 N   0  0  0  0  0  0  0  0  0  0  0  0
  1  5  1  0  0  0  0
  2  6  1  6  0  0  0
  2  1  1  0  0  0  0
  2  3  1  0  0  0  0
  3  8  1  0  0  0  0
  3  4  1  0  0  0  0
  4 10  1  0  0  0  0
  4  9  1  0  0  0  0
  5  4  1  0  0  0  0
  5 12  1  0  0  0  0
  7  3  1  0  0  0  0
 11  5  1  0  0  0  0
 13  1  1  0  0  0  0
 13 18  1  0  0  0  0
 14 13  2  0  0  0  0
 15 14  1  0  0  0  0
 15 16  2  0  0  0  0
 16 17  1  0  0  0  0
 17 18  2  0  0  0  0
 17 21  1  0  0  0  0
 19 14  1  0  0  0  0
 20 15  1  0  0  0  0
 22  2  1  0  0  0  0
 23 24  1  0  0  0  0
 23 22  2  0  0  0  0
 25 23  1  0  0  0  0
 26 25  1  0  0  0  0
 27 25  2  0  0  0  0
 27 28  1  0  0  0  0
 28 29  2  0  0  0  0
 29 22  1  0  0  0  0
M  END
>  <minimizedAffinity>
-5.14643192

>  <minimizedRMSD>
1.63502538

$$$$
