
 OpenBabel03272501483D

 19 20  0  0  0  0  0  0  0  0999 V2000
   37.2060   30.0930   51.5010 C   0  0  0  0  0  0  0  0  0  0  0  0
   37.9440   30.8120   50.5440 C   0  0  0  0  0  0  0  0  0  0  0  0
   37.5910   30.6190   49.1980 C   0  0  0  0  0  0  0  0  0  0  0  0
   36.5710   29.7610   48.8950 N   0  0  0  0  0  0  0  0  0  0  0  0
   35.8960   29.0970   49.8500 C   0  0  0  0  0  0  0  0  0  0  0  0
   36.2050   29.2540   51.1670 N   0  0  0  0  0  0  0  0  0  0  0  0
   34.8620   28.2380   49.3970 N   0  0  0  0  0  0  0  0  0  0  0  0
   37.4890   30.2550   52.5110 H   0  0  0  0  0  0  0  0  0  0  0  0
   38.7420   31.4780   50.8620 H   0  0  0  0  0  0  0  0  0  0  0  0
   34.7720   27.2840   49.8260 H   0  0  0  0  0  0  0  0  0  0  0  0
   34.2260   28.5950   48.6480 H   0  0  0  0  0  0  0  0  0  0  0  0
   38.3280   31.3440   48.1670 C   0  0  0  0  0  0  0  0  0  0  0  0
   38.7560   32.6240   48.4550 C   0  0  0  0  0  0  0  0  0  0  0  0
   38.5770   33.1120   49.3930 H   0  0  0  0  0  0  0  0  0  0  0  0
   39.4500   33.2950   47.4740 C   0  0  0  0  0  0  0  0  0  0  0  0
   39.8400   34.2960   47.5640 H   0  0  0  0  0  0  0  0  0  0  0  0
   39.6480   32.6000   46.2770 C   0  0  0  0  0  0  0  0  0  0  0  0
   39.2080   31.3160   46.0110 C   0  0  0  0  0  0  0  0  0  0  0  0
   38.5390   30.7230   47.0150 N   0  0  0  0  0  0  0  0  0  0  0  0
  1  8  1  0  0  0  0
  2  9  1  0  0  0  0
  2  1  2  0  0  0  0
  3  2  1  0  0  0  0
  4  3  2  0  0  0  0
  4  5  1  0  0  0  0
  5  6  2  0  0  0  0
  6  1  1  0  0  0  0
  7 10  1  0  0  0  0
  7  5  1  0  0  0  0
 11  7  1  0  0  0  0
 12 13  1  0  0  0  0
 12  3  1  0  0  0  0
 13 14  1  0  0  0  0
 15 16  1  0  0  0  0
 15 13  2  0  0  0  0
 17 15  1  0  0  0  0
 18 17  2  0  0  0  0
 18 19  1  0  0  0  0
 19 12  2  0  0  0  0
M  END
>  <minimizedAffinity>
-5.01534367

>  <minimizedRMSD>
0.680778921

$$$$
