
 OpenBabel03262523013D

 25 27  0  0  0  0  0  0  0  0999 V2000
   35.9750   30.2380   48.6020 C   0  0  0  0  0  0  0  0  0  0  0  0
   36.0100   29.2040   49.4850 C   0  0  0  0  0  0  0  0  0  0  0  0
   34.9960   28.2870   49.4830 C   0  0  0  0  0  0  0  0  0  0  0  0
   33.9670   28.4060   48.6080 N   0  0  0  0  0  0  0  0  0  0  0  0
   33.9590   29.4320   47.7520 C   0  0  0  0  0  0  0  0  0  0  0  0
   34.9480   30.3680   47.7200 N   0  0  0  0  0  0  0  0  0  0  0  0
   36.8430   29.1300   50.1740 H   0  0  0  0  0  0  0  0  0  0  0  0
   35.0200   27.4650   50.1830 H   0  0  0  0  0  0  0  0  0  0  0  0
   38.0890   33.1140   49.4660 C   0  0  0  0  0  0  0  0  0  0  0  0
   38.9970   33.1680   48.3840 C   0  0  0  0  0  0  0  0  0  0  0  0
   38.8540   32.2020   47.3760 C   0  0  0  0  0  0  0  0  0  0  0  0
   37.8620   31.2780   47.4940 N   0  0  0  0  0  0  0  0  0  0  0  0
   37.0160   31.2580   48.5400 C   0  0  0  0  0  0  0  0  0  0  0  0
   37.1360   32.1850   49.5300 N   0  0  0  0  0  0  0  0  0  0  0  0
   38.1370   33.8190   50.2730 H   0  0  0  0  0  0  0  0  0  0  0  0
   39.7650   33.9330   48.3540 H   0  0  0  0  0  0  0  0  0  0  0  0
   39.5260   32.2070   46.5310 H   0  0  0  0  0  0  0  0  0  0  0  0
   32.8660   29.5970   46.7910 C   0  0  0  0  0  0  0  0  0  0  0  0
   32.0290   28.5330   46.5310 C   0  0  0  0  0  0  0  0  0  0  0  0
   32.1340   27.5640   47.0020 H   0  0  0  0  0  0  0  0  0  0  0  0
   31.0040   28.6940   45.6290 C   0  0  0  0  0  0  0  0  0  0  0  0
   30.2980   27.9230   45.3590 H   0  0  0  0  0  0  0  0  0  0  0  0
   30.8040   29.9130   44.9790 C   0  0  0  0  0  0  0  0  0  0  0  0
   31.6430   30.9450   45.2560 C   0  0  0  0  0  0  0  0  0  0  0  0
   32.6430   30.7760   46.1400 N   0  0  0  0  0  0  0  0  0  0  0  0
  1  2  1  0  0  0  0
  2  7  1  0  0  0  0
  3  2  2  0  0  0  0
  3  8  1  0  0  0  0
  4  3  1  0  0  0  0
  5  4  2  0  0  0  0
  6  5  1  0  0  0  0
  6  1  2  0  0  0  0
  9 14  1  0  0  0  0
  9 15  1  0  0  0  0
 10  9  2  0  0  0  0
 11 12  2  0  0  0  0
 11 10  1  0  0  0  0
 12 13  1  0  0  0  0
 13  1  1  0  0  0  0
 13 14  2  0  0  0  0
 16 10  1  0  0  0  0
 17 11  1  0  0  0  0
 18  5  1  0  0  0  0
 19 18  1  0  0  0  0
 19 20  1  0  0  0  0
 21 19  2  0  0  0  0
 22 21  1  0  0  0  0
 23 24  2  0  0  0  0
 23 21  1  0  0  0  0
 24 25  1  0  0  0  0
 25 18  2  0  0  0  0
M  END
>  <minimizedAffinity>
-4.97930765

>  <minimizedRMSD>
0.500026703

$$$$
