
 OpenBabel03272504113D

 20 21  0  0  0  0  0  0  0  0999 V2000
   36.7110   29.8740   49.5070 C   0  0  0  0  0  0  0  0  0  0  0  0
   37.8040   30.4170   48.8020 C   0  0  0  0  0  0  0  0  0  0  0  0
   37.6240   30.7570   47.4650 C   0  0  0  0  0  0  0  0  0  0  0  0
   36.4030   30.5450   46.9070 N   0  0  0  0  0  0  0  0  0  0  0  0
   35.3760   30.0230   47.6090 C   0  0  0  0  0  0  0  0  0  0  0  0
   35.5360   29.6920   48.8980 N   0  0  0  0  0  0  0  0  0  0  0  0
   38.7360   30.5540   49.3100 H   0  0  0  0  0  0  0  0  0  0  0  0
   34.4560   29.9080   47.0410 H   0  0  0  0  0  0  0  0  0  0  0  0
   38.7190   31.3200   46.6930 C   0  0  0  0  0  0  0  0  0  0  0  0
   39.1210   32.6120   46.9610 C   0  0  0  0  0  0  0  0  0  0  0  0
   38.6270   33.1820   47.7290 H   0  0  0  0  0  0  0  0  0  0  0  0
   40.1460   33.1790   46.2570 C   0  0  0  0  0  0  0  0  0  0  0  0
   40.4270   34.1880   46.4980 H   0  0  0  0  0  0  0  0  0  0  0  0
   40.7560   32.4050   45.2720 C   0  0  0  0  0  0  0  0  0  0  0  0
   40.3350   31.1000   45.0160 C   0  0  0  0  0  0  0  0  0  0  0  0
   39.3060   30.5930   45.7540 N   0  0  0  0  0  0  0  0  0  0  0  0
   36.8850   29.5060   50.9380 C   0  0  0  0  0  0  0  0  0  0  0  0
   35.6650   29.1580   51.4930 F   0  0  0  0  0  0  0  0  0  0  0  0
   37.8350   28.5180   51.0070 F   0  0  0  0  0  0  0  0  0  0  0  0
   37.3270   30.6450   51.6060 F   0  0  0  0  0  0  0  0  0  0  0  0
  1 17  1  0  0  0  0
  2  7  1  0  0  0  0
  2  1  2  0  0  0  0
  3  2  1  0  0  0  0
  4  3  2  0  0  0  0
  4  5  1  0  0  0  0
  5  6  2  0  0  0  0
  6  1  1  0  0  0  0
  8  5  1  0  0  0  0
  9 10  1  0  0  0  0
  9  3  1  0  0  0  0
 10 11  1  0  0  0  0
 12 13  1  0  0  0  0
 12 10  2  0  0  0  0
 14 12  1  0  0  0  0
 15 14  2  0  0  0  0
 15 16  1  0  0  0  0
 16  9  2  0  0  0  0
 17 19  1  0  0  0  0
 17 18  1  0  0  0  0
 17 20  1  0  0  0  0
M  END
>  <minimizedAffinity>
-6.02884388

>  <minimizedRMSD>
2.60104394

$$$$
