
 OpenBabel03272508053D

 34 37  0  0  0  0  0  0  0  0999 V2000
   38.8780   30.8890   45.7980 C   0  0  0  0  0  0  0  0  0  0  0  0
   40.0680   31.5490   46.0710 C   0  0  0  0  0  0  0  0  0  0  0  0
   40.8980   31.4840   44.9680 C   0  0  0  0  0  0  0  0  0  0  0  0
   40.1690   30.7770   44.0530 N   0  0  0  0  0  0  0  0  0  0  0  0
   38.9980   30.4330   44.5350 N   0  0  0  0  0  0  0  0  0  0  0  0
   40.3570   32.0550   46.9930 H   0  0  0  0  0  0  0  0  0  0  0  0
   41.8920   31.8740   44.8010 H   0  0  0  0  0  0  0  0  0  0  0  0
   37.7410   30.7310   46.6930 C   0  0  0  0  0  0  0  0  0  0  0  0
   37.9530   30.9350   48.0870 C   0  0  0  0  0  0  0  0  0  0  0  0
   36.8550   30.7800   48.9270 C   0  0  0  0  0  0  0  0  0  0  0  0
   35.6540   30.4450   48.3770 N   0  0  0  0  0  0  0  0  0  0  0  0
   35.4830   30.2570   47.0470 C   0  0  0  0  0  0  0  0  0  0  0  0
   36.5330   30.4030   46.2160 N   0  0  0  0  0  0  0  0  0  0  0  0
   38.9330   31.2000   48.4620 H   0  0  0  0  0  0  0  0  0  0  0  0
   34.5490   29.9950   46.6080 H   0  0  0  0  0  0  0  0  0  0  0  0
   37.0420   30.9870   50.3900 C   0  0  0  0  0  0  0  0  0  0  0  0
   36.5600   32.2490   50.6510 F   0  0  0  0  0  0  0  0  0  0  0  0
   36.3480   30.0680   51.1560 F   0  0  0  0  0  0  0  0  0  0  0  0
   38.3920   30.9710   50.7460 F   0  0  0  0  0  0  0  0  0  0  0  0
   40.5540   30.4120   42.6950 C   0  0  0  0  0  0  0  0  0  0  0  0
   40.1900   31.2140   41.6010 C   0  0  0  0  0  0  0  0  0  0  0  0
   40.5890   30.8400   40.3530 C   0  0  0  0  0  0  0  0  0  0  0  0
   41.3580   29.6490   40.1900 C   0  0  0  0  0  0  0  0  0  0  0  0
   41.5040   29.0540   41.9500 S   0  0  0  0  0  0  0  0  0  0  0  0
   39.6070   32.1220   41.6920 H   0  0  0  0  0  0  0  0  0  0  0  0
   40.4020   31.3320   39.4120 H   0  0  0  0  0  0  0  0  0  0  0  0
   41.9170   29.0030   39.0230 C   0  0  0  0  0  0  0  0  0  0  0  0
   41.7110   27.6550   38.8150 C   0  0  0  0  0  0  0  0  0  0  0  0
   41.1260   27.1400   39.5570 H   0  0  0  0  0  0  0  0  0  0  0  0
   42.2860   27.1360   37.6730 C   0  0  0  0  0  0  0  0  0  0  0  0
   42.1250   26.0770   37.5070 H   0  0  0  0  0  0  0  0  0  0  0  0
   43.0150   27.9310   36.8120 C   0  0  0  0  0  0  0  0  0  0  0  0
   43.1780   29.2750   37.0900 C   0  0  0  0  0  0  0  0  0  0  0  0
   42.6110   29.7840   38.2140 N   0  0  0  0  0  0  0  0  0  0  0  0
  1  2  1  0  0  0  0
  1  8  1  0  0  0  0
  2  6  1  0  0  0  0
  3  2  2  0  0  0  0
  4  5  1  0  0  0  0
  4  3  1  0  0  0  0
  5  1  2  0  0  0  0
  7  3  1  0  0  0  0
  8  9  1  0  0  0  0
  9 14  1  0  0  0  0
  9 10  2  0  0  0  0
 10 16  1  0  0  0  0
 11 10  1  0  0  0  0
 12 11  2  0  0  0  0
 13  8  2  0  0  0  0
 13 12  1  0  0  0  0
 15 12  1  0  0  0  0
 16 17  1  0  0  0  0
 16 19  1  0  0  0  0
 16 18  1  0  0  0  0
 20  4  1  0  0  0  0
 21 25  1  0  0  0  0
 21 20  2  0  0  0  0
 22 21  1  0  0  0  0
 23 22  2  0  0  0  0
 23 24  1  0  0  0  0
 24 20  1  0  0  0  0
 26 22  1  0  0  0  0
 27 23  1  0  0  0  0
 28 27  1  0  0  0  0
 28 29  1  0  0  0  0
 30 28  2  0  0  0  0
 31 30  1  0  0  0  0
 32 33  2  0  0  0  0
 32 30  1  0  0  0  0
 33 34  1  0  0  0  0
 34 27  2  0  0  0  0
M  END
>  <minimizedAffinity>
-6.32276487

>  <minimizedRMSD>
0.219154388

$$$$
