
 OpenBabel03272503233D

 29 31  0  0  1  0  0  0  0  0999 V2000
   39.1380   25.2270   34.6790 N   0  0  0  0  0  0  0  0  0  0  0  0
   38.0620   25.8220   33.9390 C   0  0  1  0  0  0  0  0  0  0  0  0
   38.7270   27.0010   33.2550 C   0  0  0  0  0  0  0  0  0  0  0  0
   40.1800   27.0150   33.7390 C   0  0  0  0  0  0  0  0  0  0  0  0
   40.3640   25.5090   33.9320 C   0  0  0  0  0  0  0  0  0  0  0  0
   37.3320   26.2480   34.6680 H   0  0  0  0  0  0  0  0  0  0  0  0
   38.8100   26.6980   32.1710 H   0  0  0  0  0  0  0  0  0  0  0  0
   38.2190   27.9540   33.3890 H   0  0  0  0  0  0  0  0  0  0  0  0
   40.8560   27.4460   33.0010 H   0  0  0  0  0  0  0  0  0  0  0  0
   40.1910   27.5030   34.7310 H   0  0  0  0  0  0  0  0  0  0  0  0
   40.4180   24.9940   32.9720 H   0  0  0  0  0  0  0  0  0  0  0  0
   41.2650   25.2780   34.5220 H   0  0  0  0  0  0  0  0  0  0  0  0
   39.0670   24.5010   35.8990 C   0  0  0  0  0  0  0  0  0  0  0  0
   38.0700   24.8730   36.7970 C   0  0  0  0  0  0  0  0  0  0  0  0
   37.9700   24.1810   38.0090 C   0  0  0  0  0  0  0  0  0  0  0  0
   38.8740   23.1680   38.2330 N   0  0  0  0  0  0  0  0  0  0  0  0
   39.8330   22.8400   37.3240 C   0  0  0  0  0  0  0  0  0  0  0  0
   39.9260   23.5080   36.1580 N   0  0  0  0  0  0  0  0  0  0  0  0
   37.3420   25.6590   36.6590 H   0  0  0  0  0  0  0  0  0  0  0  0
   37.2210   24.4270   38.7350 H   0  0  0  0  0  0  0  0  0  0  0  0
   40.4930   22.0260   37.6020 H   0  0  0  0  0  0  0  0  0  0  0  0
   37.3710   24.9080   33.0230 C   0  0  0  0  0  0  0  0  0  0  0  0
   36.4740   25.4230   32.0820 C   0  0  0  0  0  0  0  0  0  0  0  0
   36.3300   26.4950   32.0740 H   0  0  0  0  0  0  0  0  0  0  0  0
   35.7550   24.6730   31.1570 C   0  0  0  0  0  0  0  0  0  0  0  0
   35.0910   25.1950   30.4810 H   0  0  0  0  0  0  0  0  0  0  0  0
   35.9620   23.3250   31.1970 C   0  0  0  0  0  3  0  0  0  0  0  0
   36.8470   22.8210   32.1260 C   0  0  0  0  0  3  0  0  0  0  0  0
   37.5280   23.5910   33.0100 N   0  0  0  0  0  0  0  0  0  0  0  0
  1 13  1  0  0  0  0
  2  6  1  1  0  0  0
  2  1  1  0  0  0  0
  3  8  1  0  0  0  0
  3  4  1  0  0  0  0
  3  2  1  0  0  0  0
  4  5  1  0  0  0  0
  4 10  1  0  0  0  0
  5 12  1  0  0  0  0
  5  1  1  0  0  0  0
  7  3  1  0  0  0  0
  9  4  1  0  0  0  0
 11  5  1  0  0  0  0
 13 18  2  0  0  0  0
 13 14  1  0  0  0  0
 14 15  2  0  0  0  0
 15 16  1  0  0  0  0
 15 20  1  0  0  0  0
 17 21  1  0  0  0  0
 17 16  2  0  0  0  0
 18 17  1  0  0  0  0
 19 14  1  0  0  0  0
 22  2  1  0  0  0  0
 23 22  2  0  0  0  0
 24 23  1  0  0  0  0
 25 27  2  0  0  0  0
 25 23  1  0  0  0  0
 26 25  1  0  0  0  0
 27 28  1  0  0  0  0
 28 29  2  0  0  0  0
 29 22  1  0  0  0  0
M  END
>  <minimizedAffinity>
-4.80622911

$$$$

 OpenBabel03272503233D

 29 31  0  0  1  0  0  0  0  0999 V2000
   38.6580   25.5000   33.8160 N   0  0  0  0  0  0  0  0  0  0  0  0
   39.6970   24.8410   34.5550 C   0  0  1  0  0  0  0  0  0  0  0  0
   40.8040   25.8770   34.5900 C   0  0  0  0  0  0  0  0  0  0  0  0
   40.3010   27.0710   33.7730 C   0  0  0  0  0  0  0  0  0  0  0  0
   38.8080   26.9320   34.0740 C   0  0  0  0  0  0  0  0  0  0  0  0
   40.0770   23.9910   33.9380 H   0  0  0  0  0  0  0  0  0  0  0  0
   40.8070   26.2620   35.6510 H   0  0  0  0  0  0  0  0  0  0  0  0
   41.7790   25.5160   34.2710 H   0  0  0  0  0  0  0  0  0  0  0  0
   40.7290   28.0130   34.1140 H   0  0  0  0  0  0  0  0  0  0  0  0
   40.4710   26.8330   32.7060 H   0  0  0  0  0  0  0  0  0  0  0  0
   38.5870   27.2150   35.1040 H   0  0  0  0  0  0  0  0  0  0  0  0
   38.1940   27.5380   33.3880 H   0  0  0  0  0  0  0  0  0  0  0  0
   37.6650   24.9140   32.9860 C   0  0  0  0  0  0  0  0  0  0  0  0
   37.6910   23.5270   32.8540 C   0  0  0  0  0  0  0  0  0  0  0  0
   36.7280   22.9140   32.0450 C   0  0  0  0  0  0  0  0  0  0  0  0
   35.8100   23.7320   31.4270 N   0  0  0  0  0  0  0  0  0  0  0  0
   35.8240   25.0840   31.5860 C   0  0  0  0  0  0  0  0  0  0  0  0
   36.7530   25.6710   32.3670 N   0  0  0  0  0  0  0  0  0  0  0  0
   38.3920   22.8510   33.3210 H   0  0  0  0  0  0  0  0  0  0  0  0
   36.7040   21.8520   31.9100 H   0  0  0  0  0  0  0  0  0  0  0  0
   35.0550   25.6340   31.0540 H   0  0  0  0  0  0  0  0  0  0  0  0
   39.2900   24.3510   35.8760 C   0  0  0  0  0  0  0  0  0  0  0  0
   40.0600   23.3750   36.5160 C   0  0  0  0  0  0  0  0  0  0  0  0
   40.9390   23.0190   35.9940 H   0  0  0  0  0  0  0  0  0  0  0  0
   39.7900   22.8250   37.7660 C   0  0  0  0  0  0  0  0  0  0  0  0
   40.4670   22.0730   38.1500 H   0  0  0  0  0  0  0  0  0  0  0  0
   38.6760   23.2970   38.3930 C   0  0  0  0  0  3  0  0  0  0  0  0
   37.9190   24.2590   37.7600 C   0  0  0  0  0  3  0  0  0  0  0  0
   38.2200   24.7680   36.5390 N   0  0  0  0  0  0  0  0  0  0  0  0
  1  5  1  0  0  0  0
  1  2  1  0  0  0  0
  2  6  1  6  0  0  0
  2  3  1  0  0  0  0
  2 22  1  0  0  0  0
  3  7  1  0  0  0  0
  4  5  1  0  0  0  0
  4  9  1  0  0  0  0
  4  3  1  0  0  0  0
  5 11  1  0  0  0  0
  8  3  1  0  0  0  0
 10  4  1  0  0  0  0
 12  5  1  0  0  0  0
 13  1  1  0  0  0  0
 14 13  1  0  0  0  0
 14 19  1  0  0  0  0
 15 14  2  0  0  0  0
 16 17  2  0  0  0  0
 16 15  1  0  0  0  0
 17 18  1  0  0  0  0
 18 13  2  0  0  0  0
 20 15  1  0  0  0  0
 21 17  1  0  0  0  0
 22 23  2  0  0  0  0
 22 29  1  0  0  0  0
 23 25  1  0  0  0  0
 24 23  1  0  0  0  0
 25 26  1  0  0  0  0
 25 27  2  0  0  0  0
 28 27  1  0  0  0  0
 29 28  2  0  0  0  0
M  END
>  <minimizedAffinity>
-4.744174

$$$$

 OpenBabel03272503233D

 29 31  0  0  1  0  0  0  0  0999 V2000
   37.7830   25.5690   34.0860 N   0  0  0  0  0  0  0  0  0  0  0  0
   38.9800   25.5980   34.8760 C   0  0  1  0  0  0  0  0  0  0  0  0
   39.1250   27.0660   35.2270 C   0  0  0  0  0  0  0  0  0  0  0  0
   37.9780   27.7930   34.5180 C   0  0  0  0  0  0  0  0  0  0  0  0
   36.9430   26.6680   34.5630 C   0  0  0  0  0  0  0  0  0  0  0  0
   39.8420   25.3430   34.2120 H   0  0  0  0  0  0  0  0  0  0  0  0
   38.8480   27.1320   36.3190 H   0  0  0  0  0  0  0  0  0  0  0  0
   40.1030   27.4930   35.0140 H   0  0  0  0  0  0  0  0  0  0  0  0
   37.6690   28.6920   35.0500 H   0  0  0  0  0  0  0  0  0  0  0  0
   38.2880   27.9480   33.4680 H   0  0  0  0  0  0  0  0  0  0  0  0
   36.5660   26.5210   35.5760 H   0  0  0  0  0  0  0  0  0  0  0  0
   36.0980   26.8610   33.8830 H   0  0  0  0  0  0  0  0  0  0  0  0
   37.4440   24.6700   33.0390 C   0  0  0  0  0  0  0  0  0  0  0  0
   38.1400   23.4640   32.9930 C   0  0  0  0  0  0  0  0  0  0  0  0
   37.8340   22.5540   31.9760 C   0  0  0  0  0  0  0  0  0  0  0  0
   36.8550   22.9160   31.0790 N   0  0  0  0  0  0  0  0  0  0  0  0
   36.2010   24.1070   31.1640 C   0  0  0  0  0  0  0  0  0  0  0  0
   36.4980   24.9810   32.1460 N   0  0  0  0  0  0  0  0  0  0  0  0
   38.9130   23.1430   33.6760 H   0  0  0  0  0  0  0  0  0  0  0  0
   38.3390   21.6130   31.8950 H   0  0  0  0  0  0  0  0  0  0  0  0
   35.4470   24.2910   30.4060 H   0  0  0  0  0  0  0  0  0  0  0  0
   38.9680   24.7010   36.0370 C   0  0  0  0  0  0  0  0  0  0  0  0
   38.0850   24.9520   37.0920 C   0  0  0  0  0  0  0  0  0  0  0  0
   37.4390   25.8150   37.0000 H   0  0  0  0  0  0  0  0  0  0  0  0
   37.9690   24.1840   38.2470 C   0  0  0  0  0  0  0  0  0  0  0  0
   37.2440   24.4880   38.9910 H   0  0  0  0  0  0  0  0  0  0  0  0
   38.7980   23.1050   38.3280 C   0  0  0  0  0  3  0  0  0  0  0  0
   39.6670   22.8610   37.2860 C   0  0  0  0  0  3  0  0  0  0  0  0
   39.7460   23.6370   36.1770 N   0  0  0  0  0  0  0  0  0  0  0  0
  1  5  1  0  0  0  0
  1  2  1  0  0  0  0
  2  6  1  6  0  0  0
  2  3  1  0  0  0  0
  2 22  1  0  0  0  0
  3  7  1  0  0  0  0
  4  5  1  0  0  0  0
  4  9  1  0  0  0  0
  4  3  1  0  0  0  0
  5 11  1  0  0  0  0
  8  3  1  0  0  0  0
 10  4  1  0  0  0  0
 12  5  1  0  0  0  0
 13  1  1  0  0  0  0
 14 13  1  0  0  0  0
 14 19  1  0  0  0  0
 15 14  2  0  0  0  0
 16 17  2  0  0  0  0
 16 15  1  0  0  0  0
 17 18  1  0  0  0  0
 18 13  2  0  0  0  0
 20 15  1  0  0  0  0
 21 17  1  0  0  0  0
 22 29  2  0  0  0  0
 22 23  1  0  0  0  0
 23 25  2  0  0  0  0
 24 23  1  0  0  0  0
 25 27  1  0  0  0  0
 25 26  1  0  0  0  0
 28 27  2  0  0  0  0
 29 28  1  0  0  0  0
M  END
>  <minimizedAffinity>
-4.68763351

$$$$

 OpenBabel03272503233D

 29 31  0  0  1  0  0  0  0  0999 V2000
   35.6770   29.7350   33.5270 N   0  0  0  0  0  0  0  0  0  0  0  0
   35.9290   28.3360   33.3270 C   0  0  1  0  0  0  0  0  0  0  0  0
   35.8980   28.1930   31.8180 C   0  0  0  0  0  0  0  0  0  0  0  0
   35.5490   29.5770   31.2620 C   0  0  0  0  0  0  0  0  0  0  0  0
   36.2090   30.4250   32.3510 C   0  0  0  0  0  0  0  0  0  0  0  0
   35.0530   27.7650   33.7190 H   0  0  0  0  0  0  0  0  0  0  0  0
   36.9760   28.0490   31.5180 H   0  0  0  0  0  0  0  0  0  0  0  0
   35.2470   27.4030   31.4470 H   0  0  0  0  0  0  0  0  0  0  0  0
   35.9670   29.7400   30.2690 H   0  0  0  0  0  0  0  0  0  0  0  0
   34.4520   29.6940   31.3380 H   0  0  0  0  0  0  0  0  0  0  0  0
   37.2950   30.3850   32.2760 H   0  0  0  0  0  0  0  0  0  0  0  0
   35.8770   31.4750   32.3100 H   0  0  0  0  0  0  0  0  0  0  0  0
   35.0400   30.3620   34.6310 C   0  0  0  0  0  0  0  0  0  0  0  0
   35.8340   31.1730   35.4400 C   0  0  0  0  0  0  0  0  0  0  0  0
   35.2420   31.8070   36.5380 C   0  0  0  0  0  0  0  0  0  0  0  0
   33.8990   31.5840   36.7450 N   0  0  0  0  0  0  0  0  0  0  0  0
   33.1640   30.7830   35.9260 C   0  0  0  0  0  0  0  0  0  0  0  0
   33.7380   30.1740   34.8700 N   0  0  0  0  0  0  0  0  0  0  0  0
   36.8870   31.3730   35.3110 H   0  0  0  0  0  0  0  0  0  0  0  0
   35.8060   32.4400   37.1910 H   0  0  0  0  0  0  0  0  0  0  0  0
   32.1150   30.6770   36.1810 H   0  0  0  0  0  0  0  0  0  0  0  0
   37.1610   27.8420   33.9520 C   0  0  0  0  0  0  0  0  0  0  0  0
   38.1890   27.3410   33.1470 C   0  0  0  0  0  0  0  0  0  0  0  0
   38.0230   27.3410   32.0780 H   0  0  0  0  0  0  0  0  0  0  0  0
   39.4050   26.8440   33.6060 C   0  0  0  0  0  0  0  0  0  0  0  0
   40.1180   26.4840   32.8770 H   0  0  0  0  0  0  0  0  0  0  0  0
   39.5780   26.8590   34.9590 C   0  0  0  0  0  3  0  0  0  0  0  0
   38.5630   27.3530   35.7490 C   0  0  0  0  0  3  0  0  0  0  0  0
   37.3920   27.8280   35.2570 N   0  0  0  0  0  0  0  0  0  0  0  0
  1 13  1  0  0  0  0
  2  1  1  0  0  0  0
  2  6  1  1  0  0  0
  2 22  1  0  0  0  0
  3  2  1  0  0  0  0
  4 10  1  0  0  0  0
  4  3  1  0  0  0  0
  4  5  1  0  0  0  0
  5  1  1  0  0  0  0
  7  3  1  0  0  0  0
  8  3  1  0  0  0  0
  9  4  1  0  0  0  0
 11  5  1  0  0  0  0
 12  5  1  0  0  0  0
 13 18  2  0  0  0  0
 13 14  1  0  0  0  0
 14 15  2  0  0  0  0
 15 16  1  0  0  0  0
 15 20  1  0  0  0  0
 17 21  1  0  0  0  0
 17 16  2  0  0  0  0
 18 17  1  0  0  0  0
 19 14  1  0  0  0  0
 22 29  1  0  0  0  0
 23 25  1  0  0  0  0
 23 22  2  0  0  0  0
 24 23  1  0  0  0  0
 25 27  2  0  0  0  0
 26 25  1  0  0  0  0
 27 28  1  0  0  0  0
 29 28  2  0  0  0  0
M  END
>  <minimizedAffinity>
-4.56535149

$$$$

 OpenBabel03272503233D

 29 31  0  0  1  0  0  0  0  0999 V2000
   37.7410   26.2570   33.6270 N   0  0  0  0  0  0  0  0  0  0  0  0
   37.0180   27.1960   34.4360 C   0  0  1  0  0  0  0  0  0  0  0  0
   38.0220   27.5690   35.5100 C   0  0  0  0  0  0  0  0  0  0  0  0
   39.2700   26.7200   35.2450 C   0  0  0  0  0  0  0  0  0  0  0  0
   39.1540   26.6260   33.7230 C   0  0  0  0  0  0  0  0  0  0  0  0
   36.1920   26.6490   34.9500 H   0  0  0  0  0  0  0  0  0  0  0  0
   38.3520   28.6160   35.2480 H   0  0  0  0  0  0  0  0  0  0  0  0
   37.6530   27.4870   36.5300 H   0  0  0  0  0  0  0  0  0  0  0  0
   40.1810   27.2110   35.5840 H   0  0  0  0  0  0  0  0  0  0  0  0
   39.0830   25.7190   35.6780 H   0  0  0  0  0  0  0  0  0  0  0  0
   39.3890   27.5800   33.2520 H   0  0  0  0  0  0  0  0  0  0  0  0
   39.8100   25.8420   33.3100 H   0  0  0  0  0  0  0  0  0  0  0  0
   37.2240   25.1710   32.8700 C   0  0  0  0  0  0  0  0  0  0  0  0
   37.7600   23.9110   33.1260 C   0  0  0  0  0  0  0  0  0  0  0  0
   37.2760   22.8180   32.4000 C   0  0  0  0  0  0  0  0  0  0  0  0
   36.2910   23.0650   31.4700 N   0  0  0  0  0  0  0  0  0  0  0  0
   35.7980   24.3160   31.2540 C   0  0  0  0  0  0  0  0  0  0  0  0
   36.2670   25.3660   31.9560 N   0  0  0  0  0  0  0  0  0  0  0  0
   38.5310   23.6760   33.8450 H   0  0  0  0  0  0  0  0  0  0  0  0
   37.6540   21.8280   32.5570 H   0  0  0  0  0  0  0  0  0  0  0  0
   35.0240   24.3980   30.4990 H   0  0  0  0  0  0  0  0  0  0  0  0
   36.4710   28.3420   33.7010 C   0  0  0  0  0  0  0  0  0  0  0  0
   35.6470   29.2560   34.3650 C   0  0  0  0  0  0  0  0  0  0  0  0
   35.4480   29.0710   35.4120 H   0  0  0  0  0  0  0  0  0  0  0  0
   35.0650   30.3820   33.7910 C   0  0  0  0  0  0  0  0  0  0  0  0
   34.4450   31.0120   34.4160 H   0  0  0  0  0  0  0  0  0  0  0  0
   35.3380   30.5840   32.4710 C   0  0  0  0  0  3  0  0  0  0  0  0
   36.1500   29.6810   31.8200 C   0  0  0  0  0  3  0  0  0  0  0  0
   36.6980   28.5940   32.4200 N   0  0  0  0  0  0  0  0  0  0  0  0
  1  5  1  0  0  0  0
  1  2  1  0  0  0  0
  2  6  1  1  0  0  0
  2  3  1  0  0  0  0
  3  8  1  0  0  0  0
  4  3  1  0  0  0  0
  4  9  1  0  0  0  0
  4 10  1  0  0  0  0
  5  4  1  0  0  0  0
  7  3  1  0  0  0  0
 11  5  1  0  0  0  0
 12  5  1  0  0  0  0
 13 14  1  0  0  0  0
 13  1  1  0  0  0  0
 14 19  1  0  0  0  0
 15 20  1  0  0  0  0
 15 14  2  0  0  0  0
 16 15  1  0  0  0  0
 17 16  2  0  0  0  0
 17 18  1  0  0  0  0
 18 13  2  0  0  0  0
 21 17  1  0  0  0  0
 22 23  1  0  0  0  0
 22  2  1  0  0  0  0
 23 24  1  0  0  0  0
 25 23  2  0  0  0  0
 25 26  1  0  0  0  0
 27 25  1  0  0  0  0
 28 29  1  0  0  0  0
 28 27  2  0  0  0  0
 29 22  2  0  0  0  0
M  END
>  <minimizedAffinity>
-4.56373405

$$$$

 OpenBabel03272503233D

 29 31  0  0  1  0  0  0  0  0999 V2000
   38.3880   22.5680   35.5280 N   0  0  0  0  0  0  0  0  0  0  0  0
   37.9980   23.6750   36.3540 C   0  0  1  0  0  0  0  0  0  0  0  0
   38.9720   23.5990   37.5130 C   0  0  0  0  0  0  0  0  0  0  0  0
   39.8330   22.3550   37.2700 C   0  0  0  0  0  0  0  0  0  0  0  0
   39.8220   22.3750   35.7410 C   0  0  0  0  0  0  0  0  0  0  0  0
   36.9860   23.4570   36.7730 H   0  0  0  0  0  0  0  0  0  0  0  0
   39.6870   24.4550   37.3480 H   0  0  0  0  0  0  0  0  0  0  0  0
   38.5110   23.6190   38.4990 H   0  0  0  0  0  0  0  0  0  0  0  0
   40.8290   22.4530   37.7010 H   0  0  0  0  0  0  0  0  0  0  0  0
   39.2520   21.4810   37.6180 H   0  0  0  0  0  0  0  0  0  0  0  0
   40.4340   23.1900   35.3540 H   0  0  0  0  0  0  0  0  0  0  0  0
   40.1730   21.4200   35.3170 H   0  0  0  0  0  0  0  0  0  0  0  0
   37.5720   21.7880   34.6640 C   0  0  0  0  0  0  0  0  0  0  0  0
   38.0340   21.5950   33.3640 C   0  0  0  0  0  0  0  0  0  0  0  0
   37.2580   20.8330   32.4840 C   0  0  0  0  0  0  0  0  0  0  0  0
   36.0760   20.3200   32.9700 N   0  0  0  0  0  0  0  0  0  0  0  0
   35.6660   20.5350   34.2500 C   0  0  0  0  0  0  0  0  0  0  0  0
   36.4170   21.2690   35.0940 N   0  0  0  0  0  0  0  0  0  0  0  0
   38.9530   21.9800   32.9460 H   0  0  0  0  0  0  0  0  0  0  0  0
   37.5670   20.6550   31.4740 H   0  0  0  0  0  0  0  0  0  0  0  0
   34.7190   20.0840   34.5280 H   0  0  0  0  0  0  0  0  0  0  0  0
   37.9800   24.9720   35.6680 C   0  0  0  0  0  0  0  0  0  0  0  0
   38.3560   26.1250   36.3650 C   0  0  0  0  0  0  0  0  0  0  0  0
   38.6470   26.0030   37.4000 H   0  0  0  0  0  0  0  0  0  0  0  0
   38.3860   27.4130   35.8380 C   0  0  0  0  0  0  0  0  0  0  0  0
   38.6960   28.2220   36.4860 H   0  0  0  0  0  0  0  0  0  0  0  0
   38.0120   27.5280   34.5320 C   0  0  0  0  0  3  0  0  0  0  0  0
   37.6430   26.3900   33.8480 C   0  0  0  0  0  3  0  0  0  0  0  0
   37.6290   25.1520   34.4020 N   0  0  0  0  0  0  0  0  0  0  0  0
  1  5  1  0  0  0  0
  1  2  1  0  0  0  0
  2  6  1  1  0  0  0
  2  3  1  0  0  0  0
  3  8  1  0  0  0  0
  4  3  1  0  0  0  0
  4 10  1  0  0  0  0
  4  9  1  0  0  0  0
  5  4  1  0  0  0  0
  7  3  1  0  0  0  0
 11  5  1  0  0  0  0
 12  5  1  0  0  0  0
 13 18  1  0  0  0  0
 13  1  1  0  0  0  0
 14 13  2  0  0  0  0
 15 16  2  0  0  0  0
 15 14  1  0  0  0  0
 16 17  1  0  0  0  0
 17 21  1  0  0  0  0
 17 18  2  0  0  0  0
 19 14  1  0  0  0  0
 20 15  1  0  0  0  0
 22  2  1  0  0  0  0
 22 23  1  0  0  0  0
 23 24  1  0  0  0  0
 25 23  2  0  0  0  0
 25 26  1  0  0  0  0
 27 25  1  0  0  0  0
 28 29  1  0  0  0  0
 28 27  2  0  0  0  0
 29 22  2  0  0  0  0
M  END
>  <minimizedAffinity>
-4.55784559

$$$$

 OpenBabel03272503233D

 29 31  0  0  1  0  0  0  0  0999 V2000
   38.5220   22.4250   35.0340 N   0  0  0  0  0  0  0  0  0  0  0  0
   38.1710   23.4370   35.9890 C   0  0  1  0  0  0  0  0  0  0  0  0
   39.2410   23.2900   37.0540 C   0  0  0  0  0  0  0  0  0  0  0  0
   40.1140   22.1070   36.6260 C   0  0  0  0  0  0  0  0  0  0  0  0
   39.9740   22.2650   35.1110 C   0  0  0  0  0  0  0  0  0  0  0  0
   37.2050   23.1450   36.4670 H   0  0  0  0  0  0  0  0  0  0  0  0
   39.9150   24.1840   36.9120 H   0  0  0  0  0  0  0  0  0  0  0  0
   38.8640   23.2030   38.0710 H   0  0  0  0  0  0  0  0  0  0  0  0
   41.1390   22.2010   36.9820 H   0  0  0  0  0  0  0  0  0  0  0  0
   39.5890   21.1840   36.9350 H   0  0  0  0  0  0  0  0  0  0  0  0
   40.5270   23.1340   34.7540 H   0  0  0  0  0  0  0  0  0  0  0  0
   40.3150   21.3670   34.5720 H   0  0  0  0  0  0  0  0  0  0  0  0
   37.6590   21.6980   34.1700 C   0  0  0  0  0  0  0  0  0  0  0  0
   36.4510   21.2580   34.7070 C   0  0  0  0  0  0  0  0  0  0  0  0
   35.5760   20.5390   33.8860 C   0  0  0  0  0  0  0  0  0  0  0  0
   35.9730   20.3130   32.5870 N   0  0  0  0  0  0  0  0  0  0  0  0
   37.1640   20.7640   32.1060 C   0  0  0  0  0  0  0  0  0  0  0  0
   38.0040   21.4560   32.9000 N   0  0  0  0  0  0  0  0  0  0  0  0
   36.1040   21.4140   35.7180 H   0  0  0  0  0  0  0  0  0  0  0  0
   34.6360   20.1780   34.2490 H   0  0  0  0  0  0  0  0  0  0  0  0
   37.3770   20.5300   31.0680 H   0  0  0  0  0  0  0  0  0  0  0  0
   38.0590   24.7900   35.4320 C   0  0  0  0  0  0  0  0  0  0  0  0
   38.2840   25.8960   36.2580 C   0  0  0  0  0  0  0  0  0  0  0  0
   38.5350   25.6970   37.2920 H   0  0  0  0  0  0  0  0  0  0  0  0
   38.2120   27.2280   35.8610 C   0  0  0  0  0  0  0  0  0  0  0  0
   38.4080   27.9920   36.6010 H   0  0  0  0  0  0  0  0  0  0  0  0
   37.8930   27.4400   34.5520 C   0  0  0  0  0  3  0  0  0  0  0  0
   37.6720   26.3480   33.7410 C   0  0  0  0  0  3  0  0  0  0  0  0
   37.7530   25.0640   34.1720 N   0  0  0  0  0  0  0  0  0  0  0  0
  1  5  1  0  0  0  0
  1  2  1  0  0  0  0
  2  6  1  1  0  0  0
  2  3  1  0  0  0  0
  3  8  1  0  0  0  0
  4 10  1  0  0  0  0
  4  9  1  0  0  0  0
  4  3  1  0  0  0  0
  5  4  1  0  0  0  0
  7  3  1  0  0  0  0
 11  5  1  0  0  0  0
 12  5  1  0  0  0  0
 13 14  1  0  0  0  0
 13  1  1  0  0  0  0
 14 19  1  0  0  0  0
 15 20  1  0  0  0  0
 15 14  2  0  0  0  0
 16 15  1  0  0  0  0
 17 16  2  0  0  0  0
 17 18  1  0  0  0  0
 18 13  2  0  0  0  0
 21 17  1  0  0  0  0
 22  2  1  0  0  0  0
 22 23  1  0  0  0  0
 23 24  1  0  0  0  0
 25 23  2  0  0  0  0
 25 26  1  0  0  0  0
 27 25  1  0  0  0  0
 28 29  1  0  0  0  0
 28 27  2  0  0  0  0
 29 22  2  0  0  0  0
M  END
>  <minimizedAffinity>
-4.54032898

$$$$

 OpenBabel03272503233D

 29 31  0  0  1  0  0  0  0  0999 V2000
   37.0320   27.4880   33.4100 N   0  0  0  0  0  0  0  0  0  0  0  0
   37.9040   26.4570   32.9250 C   0  0  1  0  0  0  0  0  0  0  0  0
   38.8670   26.2520   34.0780 C   0  0  0  0  0  0  0  0  0  0  0  0
   38.4820   27.2790   35.1480 C   0  0  0  0  0  0  0  0  0  0  0  0
   36.9810   27.3400   34.8650 C   0  0  0  0  0  0  0  0  0  0  0  0
   38.5030   26.8770   32.0810 H   0  0  0  0  0  0  0  0  0  0  0  0
   38.5660   25.2650   34.5350 H   0  0  0  0  0  0  0  0  0  0  0  0
   39.9210   26.2860   33.8060 H   0  0  0  0  0  0  0  0  0  0  0  0
   38.7230   26.9360   36.1530 H   0  0  0  0  0  0  0  0  0  0  0  0
   38.9380   28.2430   34.8560 H   0  0  0  0  0  0  0  0  0  0  0  0
   36.4810   26.4280   35.1930 H   0  0  0  0  0  0  0  0  0  0  0  0
   36.5080   28.2110   35.3480 H   0  0  0  0  0  0  0  0  0  0  0  0
   36.3380   28.4750   32.6590 C   0  0  0  0  0  0  0  0  0  0  0  0
   36.9560   28.9350   31.4980 C   0  0  0  0  0  0  0  0  0  0  0  0
   36.3030   29.9070   30.7330 C   0  0  0  0  0  0  0  0  0  0  0  0
   35.0800   30.3490   31.1850 N   0  0  0  0  0  0  0  0  0  0  0  0
   34.5160   29.8690   32.3270 C   0  0  0  0  0  0  0  0  0  0  0  0
   35.1470   28.9330   33.0610 N   0  0  0  0  0  0  0  0  0  0  0  0
   37.9120   28.6150   31.1100 H   0  0  0  0  0  0  0  0  0  0  0  0
   36.7340   30.2940   29.8320 H   0  0  0  0  0  0  0  0  0  0  0  0
   33.5490   30.2860   32.5910 H   0  0  0  0  0  0  0  0  0  0  0  0
   37.2210   25.2350   32.4870 C   0  0  0  0  0  0  0  0  0  0  0  0
   36.1230   25.3300   31.6270 C   0  0  0  0  0  0  0  0  0  0  0  0
   35.8220   26.3230   31.3190 H   0  0  0  0  0  0  0  0  0  0  0  0
   35.3870   24.2560   31.1360 C   0  0  0  0  0  0  0  0  0  0  0  0
   34.5560   24.4660   30.4760 H   0  0  0  0  0  0  0  0  0  0  0  0
   35.7950   23.0210   31.5450 C   0  0  0  0  0  3  0  0  0  0  0  0
   36.8780   22.9310   32.3920 C   0  0  0  0  0  3  0  0  0  0  0  0
   37.5670   24.0070   32.8470 N   0  0  0  0  0  0  0  0  0  0  0  0
  1  5  1  0  0  0  0
  2  6  1  6  0  0  0
  2  1  1  0  0  0  0
  2  3  1  0  0  0  0
  3  7  1  0  0  0  0
  3  4  1  0  0  0  0
  4  9  1  0  0  0  0
  5  4  1  0  0  0  0
  5 11  1  0  0  0  0
  5 12  1  0  0  0  0
  8  3  1  0  0  0  0
 10  4  1  0  0  0  0
 13 18  1  0  0  0  0
 13  1  1  0  0  0  0
 14 13  2  0  0  0  0
 15 16  2  0  0  0  0
 15 14  1  0  0  0  0
 16 17  1  0  0  0  0
 17 21  1  0  0  0  0
 17 18  2  0  0  0  0
 19 14  1  0  0  0  0
 20 15  1  0  0  0  0
 22 29  1  0  0  0  0
 22  2  1  0  0  0  0
 23 22  2  0  0  0  0
 24 23  1  0  0  0  0
 25 27  2  0  0  0  0
 25 23  1  0  0  0  0
 26 25  1  0  0  0  0
 27 28  1  0  0  0  0
 28 29  2  0  0  0  0
M  END
>  <minimizedAffinity>
-4.52440834

$$$$

 OpenBabel03272503233D

 29 31  0  0  1  0  0  0  0  0999 V2000
   39.4880   26.1540   34.3130 N   0  0  0  0  0  0  0  0  0  0  0  0
   39.5630   24.7310   34.4940 C   0  0  1  0  0  0  0  0  0  0  0  0
   40.9920   24.4100   34.1020 C   0  0  0  0  0  0  0  0  0  0  0  0
   41.6200   25.7310   33.6470 C   0  0  0  0  0  0  0  0  0  0  0  0
   40.8330   26.6750   34.5570 C   0  0  0  0  0  0  0  0  0  0  0  0
   38.9060   24.2490   33.7300 H   0  0  0  0  0  0  0  0  0  0  0  0
   41.5160   24.1860   35.0750 H   0  0  0  0  0  0  0  0  0  0  0  0
   41.0960   23.6080   33.3730 H   0  0  0  0  0  0  0  0  0  0  0  0
   42.6960   25.7550   33.8170 H   0  0  0  0  0  0  0  0  0  0  0  0
   41.3040   25.9010   32.6000 H   0  0  0  0  0  0  0  0  0  0  0  0
   41.1560   26.5810   35.5940 H   0  0  0  0  0  0  0  0  0  0  0  0
   40.9280   27.7250   34.2370 H   0  0  0  0  0  0  0  0  0  0  0  0
   38.3530   26.9350   33.9660 C   0  0  0  0  0  0  0  0  0  0  0  0
   38.0800   27.0820   32.6080 C   0  0  0  0  0  0  0  0  0  0  0  0
   36.9710   27.8450   32.2280 C   0  0  0  0  0  0  0  0  0  0  0  0
   36.2160   28.4050   33.2340 N   0  0  0  0  0  0  0  0  0  0  0  0
   36.5230   28.2330   34.5490 C   0  0  0  0  0  0  0  0  0  0  0  0
   37.5920   27.4970   34.9110 N   0  0  0  0  0  0  0  0  0  0  0  0
   38.6450   26.6600   31.7900 H   0  0  0  0  0  0  0  0  0  0  0  0
   36.7160   27.9900   31.1970 H   0  0  0  0  0  0  0  0  0  0  0  0
   35.8610   28.7180   35.2590 H   0  0  0  0  0  0  0  0  0  0  0  0
   39.1880   24.2660   35.8340 C   0  0  0  0  0  0  0  0  0  0  0  0
   40.0280   23.3790   36.5150 C   0  0  0  0  0  0  0  0  0  0  0  0
   40.9340   23.0710   36.0100 H   0  0  0  0  0  0  0  0  0  0  0  0
   39.7950   22.8610   37.7850 C   0  0  0  0  0  0  0  0  0  0  0  0
   40.5260   22.1810   38.2010 H   0  0  0  0  0  0  0  0  0  0  0  0
   38.6440   23.2700   38.3910 C   0  0  0  0  0  3  0  0  0  0  0  0
   37.8190   24.1440   37.7170 C   0  0  0  0  0  3  0  0  0  0  0  0
   38.0860   24.6250   36.4770 N   0  0  0  0  0  0  0  0  0  0  0  0
  1  2  1  0  0  0  0
  1  5  1  0  0  0  0
  2  6  1  6  0  0  0
  2 22  1  0  0  0  0
  3  2  1  0  0  0  0
  3  7  1  0  0  0  0
  4  9  1  0  0  0  0
  4  3  1  0  0  0  0
  4  5  1  0  0  0  0
  5 11  1  0  0  0  0
  8  3  1  0  0  0  0
 10  4  1  0  0  0  0
 12  5  1  0  0  0  0
 13  1  1  0  0  0  0
 13 18  1  0  0  0  0
 14 13  2  0  0  0  0
 15 14  1  0  0  0  0
 15 16  2  0  0  0  0
 16 17  1  0  0  0  0
 17 18  2  0  0  0  0
 17 21  1  0  0  0  0
 19 14  1  0  0  0  0
 20 15  1  0  0  0  0
 22 29  2  0  0  0  0
 22 23  1  0  0  0  0
 23 25  2  0  0  0  0
 24 23  1  0  0  0  0
 25 26  1  0  0  0  0
 25 27  1  0  0  0  0
 28 27  2  0  0  0  0
 29 28  1  0  0  0  0
M  END
>  <minimizedAffinity>
-4.50454569

$$$$
