
 OpenBabel03272501503D

 19 20  0  0  0  0  0  0  0  0999 V2000
   40.7320   22.9490   36.1290 C   0  0  0  0  0  0  0  0  0  0  0  0
   40.1140   23.9890   35.4140 C   0  0  0  0  0  0  0  0  0  0  0  0
   38.9600   24.5520   35.9860 C   0  0  0  0  0  0  0  0  0  0  0  0
   38.5080   24.0680   37.1830 N   0  0  0  0  0  0  0  0  0  0  0  0
   39.1380   23.0700   37.8270 C   0  0  0  0  0  0  0  0  0  0  0  0
   40.2600   22.4970   37.3080 N   0  0  0  0  0  0  0  0  0  0  0  0
   38.5630   22.6640   39.0580 N   0  0  0  0  0  0  0  0  0  0  0  0
   41.6020   22.5410   35.6790 H   0  0  0  0  0  0  0  0  0  0  0  0
   40.5320   24.3210   34.4670 H   0  0  0  0  0  0  0  0  0  0  0  0
   38.4790   21.6380   39.2640 H   0  0  0  0  0  0  0  0  0  0  0  0
   38.2450   23.4120   39.7150 H   0  0  0  0  0  0  0  0  0  0  0  0
   38.2820   25.6350   35.2800 C   0  0  0  0  0  0  0  0  0  0  0  0
   38.2130   26.8680   35.8970 C   0  0  0  0  0  0  0  0  0  0  0  0
   38.6310   27.0700   36.8630 H   0  0  0  0  0  0  0  0  0  0  0  0
   37.5710   27.8790   35.2190 C   0  0  0  0  0  0  0  0  0  0  0  0
   37.4450   28.8860   35.5820 H   0  0  0  0  0  0  0  0  0  0  0  0
   37.0510   27.5450   33.9660 C   0  0  0  0  0  3  0  0  0  0  0  0
   37.1320   26.3010   33.3680 C   0  0  0  0  0  3  0  0  0  0  0  0
   37.7730   25.3630   34.0870 N   0  0  0  0  0  0  0  0  0  0  0  0
  1  6  1  0  0  0  0
  2  3  1  0  0  0  0
  2  1  2  0  0  0  0
  3  4  2  0  0  0  0
  4  5  1  0  0  0  0
  5  7  1  0  0  0  0
  6  5  2  0  0  0  0
  7 10  1  0  0  0  0
  7 11  1  0  0  0  0
  8  1  1  0  0  0  0
  9  2  1  0  0  0  0
 12 13  1  0  0  0  0
 12  3  1  0  0  0  0
 13 14  1  0  0  0  0
 15 16  1  0  0  0  0
 15 13  2  0  0  0  0
 17 15  1  0  0  0  0
 18 17  2  0  0  0  0
 18 19  1  0  0  0  0
 19 12  2  0  0  0  0
M  END
>  <minimizedAffinity>
-4.5489397

$$$$

 OpenBabel03272501503D

 19 20  0  0  0  0  0  0  0  0999 V2000
   37.9540   24.2410   38.2330 C   0  0  0  0  0  0  0  0  0  0  0  0
   38.0610   24.9770   37.0410 C   0  0  0  0  0  0  0  0  0  0  0  0
   39.0560   24.5730   36.1350 C   0  0  0  0  0  0  0  0  0  0  0  0
   39.8520   23.5080   36.4540 N   0  0  0  0  0  0  0  0  0  0  0  0
   39.7080   22.8360   37.6100 C   0  0  0  0  0  0  0  0  0  0  0  0
   38.7560   23.1950   38.5160 N   0  0  0  0  0  0  0  0  0  0  0  0
   40.5990   21.7520   37.8150 N   0  0  0  0  0  0  0  0  0  0  0  0
   37.1950   24.5630   38.9010 H   0  0  0  0  0  0  0  0  0  0  0  0
   37.3910   25.8130   36.8560 H   0  0  0  0  0  0  0  0  0  0  0  0
   41.0460   21.6360   38.7580 H   0  0  0  0  0  0  0  0  0  0  0  0
   40.7750   21.1090   37.0100 H   0  0  0  0  0  0  0  0  0  0  0  0
   39.2060   25.3070   34.8820 C   0  0  0  0  0  0  0  0  0  0  0  0
   40.0570   26.3930   34.8640 C   0  0  0  0  0  0  0  0  0  0  0  0
   40.6110   26.7250   35.7190 H   0  0  0  0  0  0  0  0  0  0  0  0
   40.1880   27.0750   33.6750 C   0  0  0  0  0  0  0  0  0  0  0  0
   40.8150   27.9380   33.5210 H   0  0  0  0  0  0  0  0  0  0  0  0
   39.4360   26.5880   32.6020 C   0  0  0  0  0  3  0  0  0  0  0  0
   38.5890   25.4960   32.6440 C   0  0  0  0  0  3  0  0  0  0  0  0
   38.5110   24.8800   33.8360 N   0  0  0  0  0  0  0  0  0  0  0  0
  1  6  1  0  0  0  0
  1  8  1  0  0  0  0
  2  1  2  0  0  0  0
  3  4  2  0  0  0  0
  3  2  1  0  0  0  0
  4  5  1  0  0  0  0
  5  7  1  0  0  0  0
  5  6  2  0  0  0  0
  7 10  1  0  0  0  0
  9  2  1  0  0  0  0
 11  7  1  0  0  0  0
 12  3  1  0  0  0  0
 13 12  1  0  0  0  0
 13 14  1  0  0  0  0
 15 13  2  0  0  0  0
 16 15  1  0  0  0  0
 17 18  2  0  0  0  0
 17 15  1  0  0  0  0
 18 19  1  0  0  0  0
 19 12  2  0  0  0  0
M  END
>  <minimizedAffinity>
-4.48146725

$$$$

 OpenBabel03272501503D

 19 20  0  0  0  0  0  0  0  0999 V2000
   38.0600   24.1970   38.3520 C   0  0  0  0  0  0  0  0  0  0  0  0
   37.7170   24.5300   37.0310 C   0  0  0  0  0  0  0  0  0  0  0  0
   38.4240   23.8740   36.0090 C   0  0  0  0  0  0  0  0  0  0  0  0
   39.3900   22.9660   36.3470 N   0  0  0  0  0  0  0  0  0  0  0  0
   39.6800   22.6840   37.6290 C   0  0  0  0  0  0  0  0  0  0  0  0
   39.0180   23.2970   38.6500 N   0  0  0  0  0  0  0  0  0  0  0  0
   40.7020   21.7240   37.8380 N   0  0  0  0  0  0  0  0  0  0  0  0
   37.5120   24.7040   39.1070 H   0  0  0  0  0  0  0  0  0  0  0  0
   36.9360   25.2620   36.8390 H   0  0  0  0  0  0  0  0  0  0  0  0
   41.4260   21.9080   38.5760 H   0  0  0  0  0  0  0  0  0  0  0  0
   40.6920   20.8650   37.2430 H   0  0  0  0  0  0  0  0  0  0  0  0
   38.1030   24.1860   34.6190 C   0  0  0  0  0  0  0  0  0  0  0  0
   38.1810   23.1670   33.6910 C   0  0  0  0  0  0  0  0  0  0  0  0
   38.4620   22.1630   33.9370 H   0  0  0  0  0  0  0  0  0  0  0  0
   37.8750   23.4770   32.3850 C   0  0  0  0  0  0  0  0  0  0  0  0
   37.8940   22.7810   31.5620 H   0  0  0  0  0  0  0  0  0  0  0  0
   37.5160   24.8050   32.1370 C   0  0  0  0  0  3  0  0  0  0  0  0
   37.4460   25.8090   33.0850 C   0  0  0  0  0  3  0  0  0  0  0  0
   37.7570   25.4340   34.3370 N   0  0  0  0  0  0  0  0  0  0  0  0
  1  6  1  0  0  0  0
  1  8  1  0  0  0  0
  2  1  2  0  0  0  0
  3  4  2  0  0  0  0
  3  2  1  0  0  0  0
  4  5  1  0  0  0  0
  5  7  1  0  0  0  0
  5  6  2  0  0  0  0
  7 10  1  0  0  0  0
  9  2  1  0  0  0  0
 11  7  1  0  0  0  0
 12  3  1  0  0  0  0
 13 14  1  0  0  0  0
 13 12  2  0  0  0  0
 15 13  1  0  0  0  0
 16 15  1  0  0  0  0
 17 15  2  0  0  0  0
 17 18  1  0  0  0  0
 18 19  2  0  0  0  0
 19 12  1  0  0  0  0
M  END
>  <minimizedAffinity>
-4.26183796

$$$$

 OpenBabel03272501503D

 19 20  0  0  0  0  0  0  0  0999 V2000
   37.4080   27.7160   34.9330 C   0  0  0  0  0  0  0  0  0  0  0  0
   38.0160   26.8040   35.8130 C   0  0  0  0  0  0  0  0  0  0  0  0
   38.1500   25.4810   35.3590 C   0  0  0  0  0  0  0  0  0  0  0  0
   37.6910   25.1560   34.1130 N   0  0  0  0  0  0  0  0  0  0  0  0
   37.1150   26.0680   33.3100 C   0  0  0  0  0  0  0  0  0  0  0  0
   36.9650   27.3610   33.7100 N   0  0  0  0  0  0  0  0  0  0  0  0
   36.6830   25.5970   32.0440 N   0  0  0  0  0  0  0  0  0  0  0  0
   37.3180   28.7090   35.2970 H   0  0  0  0  0  0  0  0  0  0  0  0
   38.3580   27.1360   36.7900 H   0  0  0  0  0  0  0  0  0  0  0  0
   35.7430   25.8990   31.6850 H   0  0  0  0  0  0  0  0  0  0  0  0
   37.3250   24.9630   31.5160 H   0  0  0  0  0  0  0  0  0  0  0  0
   38.7770   24.4970   36.2370 C   0  0  0  0  0  0  0  0  0  0  0  0
   38.2050   24.2720   37.4720 C   0  0  0  0  0  0  0  0  0  0  0  0
   37.3270   24.7800   37.8190 H   0  0  0  0  0  0  0  0  0  0  0  0
   38.8070   23.3420   38.2890 C   0  0  0  0  0  0  0  0  0  0  0  0
   38.4670   23.0690   39.2750 H   0  0  0  0  0  0  0  0  0  0  0  0
   39.9470   22.7180   37.7730 C   0  0  0  0  0  3  0  0  0  0  0  0
   40.5020   22.9600   36.5290 C   0  0  0  0  0  3  0  0  0  0  0  0
   39.8620   23.8800   35.7880 N   0  0  0  0  0  0  0  0  0  0  0  0
  1  8  1  0  0  0  0
  1  2  1  0  0  0  0
  2  9  1  0  0  0  0
  3  2  2  0  0  0  0
  3 12  1  0  0  0  0
  4  3  1  0  0  0  0
  5  6  1  0  0  0  0
  5  4  2  0  0  0  0
  6  1  2  0  0  0  0
  7  5  1  0  0  0  0
 10  7  1  0  0  0  0
 11  7  1  0  0  0  0
 12 13  1  0  0  0  0
 13 14  1  0  0  0  0
 13 15  2  0  0  0  0
 15 16  1  0  0  0  0
 17 15  1  0  0  0  0
 18 17  2  0  0  0  0
 19 12  2  0  0  0  0
 19 18  1  0  0  0  0
M  END
>  <minimizedAffinity>
-4.23539639

$$$$

 OpenBabel03272501503D

 19 20  0  0  0  0  0  0  0  0999 V2000
   30.9110   28.6190   34.0090 C   0  0  0  0  0  0  0  0  0  0  0  0
   31.7740   29.6670   34.3750 C   0  0  0  0  0  0  0  0  0  0  0  0
   32.3630   29.5850   35.6480 C   0  0  0  0  0  0  0  0  0  0  0  0
   32.0720   28.5150   36.4480 N   0  0  0  0  0  0  0  0  0  0  0  0
   31.2380   27.5390   36.0490 C   0  0  0  0  0  0  0  0  0  0  0  0
   30.6460   27.5780   34.8230 N   0  0  0  0  0  0  0  0  0  0  0  0
   31.0240   26.4870   36.9770 N   0  0  0  0  0  0  0  0  0  0  0  0
   30.4780   28.7010   33.0440 H   0  0  0  0  0  0  0  0  0  0  0  0
   31.9570   30.4860   33.6850 H   0  0  0  0  0  0  0  0  0  0  0  0
   30.0470   26.1320   37.1220 H   0  0  0  0  0  0  0  0  0  0  0  0
   31.8560   26.1070   37.4810 H   0  0  0  0  0  0  0  0  0  0  0  0
   33.2670   30.6500   36.0730 C   0  0  0  0  0  0  0  0  0  0  0  0
   32.8570   31.4790   37.0970 C   0  0  0  0  0  0  0  0  0  0  0  0
   31.9130   31.3820   37.5950 H   0  0  0  0  0  0  0  0  0  0  0  0
   33.7210   32.4780   37.4870 C   0  0  0  0  0  0  0  0  0  0  0  0
   33.5280   33.1940   38.2690 H   0  0  0  0  0  0  0  0  0  0  0  0
   34.9340   32.5460   36.7950 C   0  0  0  0  0  3  0  0  0  0  0  0
   35.3230   31.7020   35.7710 C   0  0  0  0  0  3  0  0  0  0  0  0
   34.4300   30.7510   35.4440 N   0  0  0  0  0  0  0  0  0  0  0  0
  1  2  2  0  0  0  0
  1  6  1  0  0  0  0
  2  3  1  0  0  0  0
  3 12  1  0  0  0  0
  3  4  2  0  0  0  0
  5  4  1  0  0  0  0
  5  7  1  0  0  0  0
  6  5  2  0  0  0  0
  7 10  1  0  0  0  0
  7 11  1  0  0  0  0
  8  1  1  0  0  0  0
  9  2  1  0  0  0  0
 12 13  1  0  0  0  0
 13 15  2  0  0  0  0
 13 14  1  0  0  0  0
 15 16  1  0  0  0  0
 17 15  1  0  0  0  0
 18 17  2  0  0  0  0
 19 18  1  0  0  0  0
 19 12  2  0  0  0  0
M  END
>  <minimizedAffinity>
-4.07549667

$$$$

 OpenBabel03272501503D

 19 20  0  0  0  0  0  0  0  0999 V2000
   37.4990   24.6920   32.7550 C   0  0  0  0  0  0  0  0  0  0  0  0
   37.3270   23.2980   32.7840 C   0  0  0  0  0  0  0  0  0  0  0  0
   36.3290   22.7650   31.9500 C   0  0  0  0  0  0  0  0  0  0  0  0
   35.5920   23.6140   31.1710 N   0  0  0  0  0  0  0  0  0  0  0  0
   35.7970   24.9430   31.1820 C   0  0  0  0  0  0  0  0  0  0  0  0
   36.7540   25.5000   31.9750 N   0  0  0  0  0  0  0  0  0  0  0  0
   34.9630   25.7070   30.3260 N   0  0  0  0  0  0  0  0  0  0  0  0
   38.2580   25.0710   33.3920 H   0  0  0  0  0  0  0  0  0  0  0  0
   37.9520   22.6860   33.4300 H   0  0  0  0  0  0  0  0  0  0  0  0
   34.5460   26.5990   30.6900 H   0  0  0  0  0  0  0  0  0  0  0  0
   34.7970   25.3460   29.3590 H   0  0  0  0  0  0  0  0  0  0  0  0
   36.1130   21.3220   31.9450 C   0  0  0  0  0  0  0  0  0  0  0  0
   35.6440   20.7320   33.1010 C   0  0  0  0  0  0  0  0  0  0  0  0
   35.4300   21.2770   33.9980 H   0  0  0  0  0  0  0  0  0  0  0  0
   35.4460   19.3700   33.0800 C   0  0  0  0  0  0  0  0  0  0  0  0
   35.0840   18.7830   33.9090 H   0  0  0  0  0  0  0  0  0  0  0  0
   35.7450   18.7230   31.8770 C   0  0  0  0  0  3  0  0  0  0  0  0
   36.2150   19.3370   30.7310 C   0  0  0  0  0  3  0  0  0  0  0  0
   36.3850   20.6670   30.8240 N   0  0  0  0  0  0  0  0  0  0  0  0
  1  2  1  0  0  0  0
  1  8  1  0  0  0  0
  2  9  1  0  0  0  0
  3  2  2  0  0  0  0
  4  5  2  0  0  0  0
  4  3  1  0  0  0  0
  5  6  1  0  0  0  0
  6  1  2  0  0  0  0
  7 10  1  0  0  0  0
  7  5  1  0  0  0  0
 11  7  1  0  0  0  0
 12  3  1  0  0  0  0
 12 13  1  0  0  0  0
 13 14  1  0  0  0  0
 15 13  2  0  0  0  0
 15 16  1  0  0  0  0
 17 15  1  0  0  0  0
 18 19  1  0  0  0  0
 18 17  2  0  0  0  0
 19 12  2  0  0  0  0
M  END
>  <minimizedAffinity>
-4.07163477

$$$$

 OpenBabel03272501503D

 19 20  0  0  0  0  0  0  0  0999 V2000
   37.7960   25.5970   32.6820 C   0  0  0  0  0  0  0  0  0  0  0  0
   38.2690   24.7890   33.7310 C   0  0  0  0  0  0  0  0  0  0  0  0
   38.0450   25.2550   35.0380 C   0  0  0  0  0  0  0  0  0  0  0  0
   37.3940   26.4440   35.2170 N   0  0  0  0  0  0  0  0  0  0  0  0
   36.9620   27.1790   34.1770 C   0  0  0  0  0  0  0  0  0  0  0  0
   37.1580   26.7650   32.8940 N   0  0  0  0  0  0  0  0  0  0  0  0
   36.3020   28.3910   34.5040 N   0  0  0  0  0  0  0  0  0  0  0  0
   37.9760   25.2250   31.7040 H   0  0  0  0  0  0  0  0  0  0  0  0
   38.7780   23.8550   33.5100 H   0  0  0  0  0  0  0  0  0  0  0  0
   36.5340   29.2570   33.9590 H   0  0  0  0  0  0  0  0  0  0  0  0
   35.6050   28.3700   35.2830 H   0  0  0  0  0  0  0  0  0  0  0  0
   38.5170   24.4510   36.1610 C   0  0  0  0  0  0  0  0  0  0  0  0
   37.9020   24.6220   37.3850 C   0  0  0  0  0  0  0  0  0  0  0  0
   37.0990   25.3120   37.5530 H   0  0  0  0  0  0  0  0  0  0  0  0
   38.3580   23.8570   38.4340 C   0  0  0  0  0  0  0  0  0  0  0  0
   37.9710   23.8890   39.4400 H   0  0  0  0  0  0  0  0  0  0  0  0
   39.4070   22.9790   38.1440 C   0  0  0  0  0  3  0  0  0  0  0  0
   40.0070   22.8250   36.9080 C   0  0  0  0  0  3  0  0  0  0  0  0
   39.5110   23.6040   35.9320 N   0  0  0  0  0  0  0  0  0  0  0  0
  1  6  2  0  0  0  0
  1  2  1  0  0  0  0
  2  3  2  0  0  0  0
  3  4  1  0  0  0  0
  3 12  1  0  0  0  0
  5  7  1  0  0  0  0
  5  4  2  0  0  0  0
  6  5  1  0  0  0  0
  7 11  1  0  0  0  0
  8  1  1  0  0  0  0
  9  2  1  0  0  0  0
 10  7  1  0  0  0  0
 12 13  1  0  0  0  0
 13 14  1  0  0  0  0
 13 15  2  0  0  0  0
 15 16  1  0  0  0  0
 17 15  1  0  0  0  0
 18 17  2  0  0  0  0
 19 12  2  0  0  0  0
 19 18  1  0  0  0  0
M  END
>  <minimizedAffinity>
-4.06147528

$$$$

 OpenBabel03272501503D

 19 20  0  0  0  0  0  0  0  0999 V2000
   36.5770   28.2160   32.9620 C   0  0  0  0  0  0  0  0  0  0  0  0
   36.0070   28.8040   34.1040 C   0  0  0  0  0  0  0  0  0  0  0  0
   35.3550   30.0360   33.9240 C   0  0  0  0  0  0  0  0  0  0  0  0
   35.3120   30.5880   32.6730 N   0  0  0  0  0  0  0  0  0  0  0  0
   35.8750   29.9830   31.6120 C   0  0  0  0  0  0  0  0  0  0  0  0
   36.5160   28.7880   31.7430 N   0  0  0  0  0  0  0  0  0  0  0  0
   35.7570   30.6640   30.3740 N   0  0  0  0  0  0  0  0  0  0  0  0
   37.0620   27.2860   33.1220 H   0  0  0  0  0  0  0  0  0  0  0  0
   36.0810   28.3050   35.0670 H   0  0  0  0  0  0  0  0  0  0  0  0
   36.5960   30.7220   29.7460 H   0  0  0  0  0  0  0  0  0  0  0  0
   34.8300   31.0840   30.1360 H   0  0  0  0  0  0  0  0  0  0  0  0
   34.7470   30.6860   35.0810 C   0  0  0  0  0  0  0  0  0  0  0  0
   35.5260   31.5480   35.8250 C   0  0  0  0  0  0  0  0  0  0  0  0
   36.5510   31.7660   35.5970 H   0  0  0  0  0  0  0  0  0  0  0  0
   34.9380   32.1530   36.9120 C   0  0  0  0  0  0  0  0  0  0  0  0
   35.4280   32.8460   37.5770 H   0  0  0  0  0  0  0  0  0  0  0  0
   33.6000   31.8240   37.1500 C   0  0  0  0  0  3  0  0  0  0  0  0
   32.8390   30.9550   36.3890 C   0  0  0  0  0  3  0  0  0  0  0  0
   33.4780   30.4030   35.3440 N   0  0  0  0  0  0  0  0  0  0  0  0
  1  8  1  0  0  0  0
  1  2  1  0  0  0  0
  2  9  1  0  0  0  0
  3  2  2  0  0  0  0
  3 12  1  0  0  0  0
  4  3  1  0  0  0  0
  5  6  1  0  0  0  0
  5  4  2  0  0  0  0
  6  1  2  0  0  0  0
  7  5  1  0  0  0  0
 10  7  1  0  0  0  0
 11  7  1  0  0  0  0
 12 19  2  0  0  0  0
 12 13  1  0  0  0  0
 13 15  2  0  0  0  0
 14 13  1  0  0  0  0
 15 17  1  0  0  0  0
 15 16  1  0  0  0  0
 18 17  2  0  0  0  0
 19 18  1  0  0  0  0
M  END
>  <minimizedAffinity>
-3.97488141

$$$$

 OpenBabel03272501503D

 19 20  0  0  0  0  0  0  0  0999 V2000
   37.7230   22.7520   32.3580 C   0  0  0  0  0  0  0  0  0  0  0  0
   38.2500   23.0970   33.6140 C   0  0  0  0  0  0  0  0  0  0  0  0
   37.7810   22.3650   34.7190 C   0  0  0  0  0  0  0  0  0  0  0  0
   36.8560   21.3790   34.5190 N   0  0  0  0  0  0  0  0  0  0  0  0
   36.3830   21.0900   33.2940 C   0  0  0  0  0  0  0  0  0  0  0  0
   36.8100   21.7740   32.1960 N   0  0  0  0  0  0  0  0  0  0  0  0
   35.4260   20.0440   33.2280 N   0  0  0  0  0  0  0  0  0  0  0  0
   38.0920   23.3170   31.5390 H   0  0  0  0  0  0  0  0  0  0  0  0
   38.9850   23.8940   33.6960 H   0  0  0  0  0  0  0  0  0  0  0  0
   34.5770   20.1730   32.6240 H   0  0  0  0  0  0  0  0  0  0  0  0
   35.6100   19.1810   33.7880 H   0  0  0  0  0  0  0  0  0  0  0  0
   38.3000   22.6860   36.0460 C   0  0  0  0  0  0  0  0  0  0  0  0
   39.6110   22.3560   36.3270 C   0  0  0  0  0  0  0  0  0  0  0  0
   40.2650   21.8800   35.6240 H   0  0  0  0  0  0  0  0  0  0  0  0
   40.0850   22.6650   37.5810 C   0  0  0  0  0  0  0  0  0  0  0  0
   41.0840   22.4640   37.9330 H   0  0  0  0  0  0  0  0  0  0  0  0
   39.1780   23.2850   38.4460 C   0  0  0  0  0  3  0  0  0  0  0  0
   37.8680   23.6060   38.1410 C   0  0  0  0  0  3  0  0  0  0  0  0
   37.4740   23.2750   36.8990 N   0  0  0  0  0  0  0  0  0  0  0  0
  1  2  1  0  0  0  0
  2  9  1  0  0  0  0
  2  3  2  0  0  0  0
  3 12  1  0  0  0  0
  4  3  1  0  0  0  0
  5  4  2  0  0  0  0
  6  1  2  0  0  0  0
  6  5  1  0  0  0  0
  7  5  1  0  0  0  0
  7 11  1  0  0  0  0
  8  1  1  0  0  0  0
 10  7  1  0  0  0  0
 12 13  2  0  0  0  0
 12 19  1  0  0  0  0
 13 15  1  0  0  0  0
 14 13  1  0  0  0  0
 15 16  1  0  0  0  0
 15 17  2  0  0  0  0
 18 17  1  0  0  0  0
 19 18  2  0  0  0  0
M  END
>  <minimizedAffinity>
-3.95908594

$$$$
