
 OpenBabel03272508443D

 26 28  0  0  0  0  0  0  0  0999 V2000
   35.6260   29.6640   49.7890 C   0  0  0  0  0  0  0  0  0  0  0  0
   36.6480   29.3500   50.6670 C   0  0  0  0  0  0  0  0  0  0  0  0
   37.7530   29.9500   50.0650 C   0  0  0  0  0  0  0  0  0  0  0  0
   37.3790   30.5750   48.9010 C   0  0  0  0  0  0  0  0  0  0  0  0
   36.0840   30.3830   48.7610 O   0  0  0  0  0  0  0  0  0  0  0  0
   36.6020   28.7940   51.5720 H   0  0  0  0  0  0  0  0  0  0  0  0
   38.7710   29.9420   50.4350 H   0  0  0  0  0  0  0  0  0  0  0  0
   38.2230   31.3180   47.9690 C   0  0  0  0  0  0  0  0  0  0  0  0
   38.5240   30.7190   46.7480 C   0  0  0  0  0  0  0  0  0  0  0  0
   38.1740   29.7400   46.4440 H   0  0  0  0  0  0  0  0  0  0  0  0
   39.3320   31.4120   45.8380 C   0  0  0  0  0  0  0  0  0  0  0  0
   39.6330   31.0540   44.8650 H   0  0  0  0  0  0  0  0  0  0  0  0
   39.7450   32.6500   46.2800 C   0  0  0  0  0  3  0  0  0  0  0  0
   39.4640   33.2660   47.4790 C   0  0  0  0  0  3  0  0  0  0  0  0
   38.6800   32.5370   48.3050 N   0  0  0  0  0  0  0  0  0  0  0  0
   34.2260   29.2580   49.9670 C   0  0  0  0  0  0  0  0  0  0  0  0
   33.5740   29.8100   50.8930 O   0  0  0  0  0  0  0  0  0  0  0  0
   31.7140   27.1920   48.3580 C   0  0  0  0  0  0  0  0  0  0  0  0
   32.4620   26.3950   47.4840 C   0  0  0  0  0  0  0  0  0  0  0  0
   33.8400   26.5620   47.4420 C   0  0  0  0  0  0  0  0  0  0  0  0
   34.3840   27.5000   48.2590 N   0  0  0  0  0  0  0  0  0  0  0  0
   33.6380   28.2580   49.0950 C   0  0  0  0  0  0  0  0  0  0  0  0
   32.3030   28.1040   49.1460 N   0  0  0  0  0  0  0  0  0  0  0  0
   30.6370   27.0990   48.4270 H   0  0  0  0  0  0  0  0  0  0  0  0
   31.9620   25.6610   46.8560 H   0  0  0  0  0  0  0  0  0  0  0  0
   34.4620   25.9650   46.7780 H   0  0  0  0  0  0  0  0  0  0  0  0
  1 16  1  0  0  0  0
  1  2  2  0  0  0  0
  2  6  1  0  0  0  0
  3  7  1  0  0  0  0
  3  2  1  0  0  0  0
  4  3  2  0  0  0  0
  5  4  1  0  0  0  0
  5  1  1  0  0  0  0
  8 15  1  0  0  0  0
  8  4  1  0  0  0  0
  9  8  2  0  0  0  0
 10  9  1  0  0  0  0
 11 13  2  0  0  0  0
 11  9  1  0  0  0  0
 12 11  1  0  0  0  0
 13 14  1  0  0  0  0
 14 15  2  0  0  0  0
 16 17  2  0  0  0  0
 18 24  1  0  0  0  0
 18 23  1  0  0  0  0
 19 18  2  0  0  0  0
 20 19  1  0  0  0  0
 20 21  2  0  0  0  0
 21 22  1  0  0  0  0
 22 23  2  0  0  0  0
 22 16  1  0  0  0  0
 25 19  1  0  0  0  0
 26 20  1  0  0  0  0
M  END
>  <minimizedAffinity>
-5.39650536

>  <minimizedRMSD>
3.04692554

$$$$
