
 OpenBabel03272510083D

 43 47  0  0  0  0  0  0  0  0999 V2000
   35.2140   30.2030   47.6640 C   0  0  0  0  0  0  0  0  0  0  0  0
   35.1610   30.4170   49.0060 N   0  0  0  0  0  0  0  0  0  0  0  0
   36.2310   30.9220   49.6410 C   0  0  0  0  0  0  0  0  0  0  0  0
   37.4030   31.2500   49.0340 N   0  0  0  0  0  0  0  0  0  0  0  0
   37.4890   31.0500   47.7020 C   0  0  0  0  0  0  0  0  0  0  0  0
   38.6320   31.3770   46.9810 C   0  0  0  0  0  0  0  0  0  0  0  0
   38.6810   31.1850   45.6000 C   0  0  0  0  0  0  0  0  0  0  0  0
   37.5590   30.6560   44.9480 C   0  0  0  0  0  0  0  0  0  0  0  0
   36.4420   30.3430   45.7070 C   0  0  0  0  0  0  0  0  0  0  0  0
   36.3920   30.5320   47.0550 C   0  0  0  0  0  0  0  0  0  0  0  0
   36.2270   31.1080   50.7150 H   0  0  0  0  0  0  0  0  0  0  0  0
   39.4390   31.7760   47.5770 H   0  0  0  0  0  0  0  0  0  0  0  0
   39.6150   31.4750   45.1440 H   0  0  0  0  0  0  0  0  0  0  0  0
   37.7940   30.5870   43.8980 H   0  0  0  0  0  0  0  0  0  0  0  0
   33.6650   28.3280   46.9010 C   0  0  0  0  0  0  0  0  0  0  0  0
   34.0250   29.6830   47.0840 C   0  0  0  0  0  0  0  0  0  0  0  0
   33.1270   30.6840   46.6340 C   0  0  0  0  0  0  0  0  0  0  0  0
   31.9570   30.3200   46.0400 N   0  0  0  0  0  0  0  0  0  0  0  0
   31.6720   28.9940   45.8900 C   0  0  0  0  0  0  0  0  0  0  0  0
   32.4950   28.0270   46.3060 N   0  0  0  0  0  0  0  0  0  0  0  0
   30.4300   28.6660   45.2210 N   0  0  0  0  0  0  0  0  0  0  0  0
   29.1330   29.0380   45.7040 C   0  0  0  0  0  0  0  0  0  0  0  0
   28.2030   28.6960   44.5820 C   0  0  0  0  0  0  0  0  0  0  0  0
   29.0630   28.4000   43.3720 C   0  0  0  0  0  0  0  0  0  0  0  0
   30.3420   27.9130   43.9570 C   0  0  0  0  0  0  0  0  0  0  0  0
   34.3880   27.6280   47.2680 H   0  0  0  0  0  0  0  0  0  0  0  0
   33.3120   31.7270   46.7320 H   0  0  0  0  0  0  0  0  0  0  0  0
   29.0570   30.1070   45.9140 H   0  0  0  0  0  0  0  0  0  0  0  0
   28.9540   28.4110   46.6210 H   0  0  0  0  0  0  0  0  0  0  0  0
   27.6930   27.7330   44.8380 H   0  0  0  0  0  0  0  0  0  0  0  0
   27.4240   29.4500   44.3980 H   0  0  0  0  0  0  0  0  0  0  0  0
   29.2410   29.3630   42.8140 H   0  0  0  0  0  0  0  0  0  0  0  0
   28.6100   27.6520   42.6960 H   0  0  0  0  0  0  0  0  0  0  0  0
   30.4240   26.8330   44.1010 H   0  0  0  0  0  0  0  0  0  0  0  0
   31.1920   28.2690   43.3390 H   0  0  0  0  0  0  0  0  0  0  0  0
   35.5050   29.8500   44.7090 C   0  0  0  0  0  0  0  0  0  0  0  0
   35.2760   28.5720   44.2470 C   0  0  0  0  0  0  0  0  0  0  0  0
   35.8800   27.8200   44.7820 H   0  0  0  0  0  0  0  0  0  0  0  0
   34.4580   28.1290   43.2410 C   0  0  0  0  0  0  0  0  0  0  0  0
   34.4140   27.0730   43.0280 H   0  0  0  0  0  0  0  0  0  0  0  0
   33.7750   29.1490   42.6160 C   0  0  0  0  0  3  0  0  0  0  0  0
   33.9600   30.4470   43.0280 C   0  0  0  0  0  3  0  0  0  0  0  0
   34.7820   30.8030   44.0230 N   0  0  0  0  0  0  0  0  0  0  0  0
  1  2  1  0  0  0  0
  2  3  2  0  0  0  0
  3 11  1  0  0  0  0
  4  3  1  0  0  0  0
  5  4  2  0  0  0  0
  6 12  1  0  0  0  0
  6  5  1  0  0  0  0
  7  6  2  0  0  0  0
  8  7  1  0  0  0  0
  8  9  2  0  0  0  0
  9 10  1  0  0  0  0
 10  1  2  0  0  0  0
 10  5  1  0  0  0  0
 13  7  1  0  0  0  0
 14  8  1  0  0  0  0
 15 16  1  0  0  0  0
 15 26  1  0  0  0  0
 16  1  1  0  0  0  0
 17 27  1  0  0  0  0
 17 16  2  0  0  0  0
 18 17  1  0  0  0  0
 19 18  2  0  0  0  0
 19 20  1  0  0  0  0
 20 15  2  0  0  0  0
 21 22  1  0  0  0  0
 21 19  1  0  0  0  0
 22 28  1  0  0  0  0
 22 29  1  0  0  0  0
 23 30  1  0  0  0  0
 23 22  1  0  0  0  0
 24 25  1  0  0  0  0
 24 23  1  0  0  0  0
 25 34  1  0  0  0  0
 25 21  1  0  0  0  0
 31 23  1  0  0  0  0
 32 24  1  0  0  0  0
 33 24  1  0  0  0  0
 35 25  1  0  0  0  0
 36  9  1  0  0  0  0
 37 36  1  0  0  0  0
 37 38  1  0  0  0  0
 39 37  2  0  0  0  0
 40 39  1  0  0  0  0
 41 42  2  0  0  0  0
 41 39  1  0  0  0  0
 42 43  1  0  0  0  0
 43 36  2  0  0  0  0
M  END
>  <minimizedAffinity>
-4.85014677

>  <minimizedRMSD>
3.10878778

$$$$
