
 OpenBabel03262523453D

 27 29  0  0  0  0  0  0  0  0999 V2000
   37.0830   28.5310   29.6500 Cl  0  0  0  0  0  0  0  0  0  0  0  0
   36.4450   29.1980   31.1320 C   0  0  0  0  0  0  0  0  0  0  0  0
   36.0150   28.3560   32.1500 C   0  0  0  0  0  0  0  0  0  0  0  0
   35.5280   28.9590   33.2780 C   0  0  0  0  0  0  0  0  0  0  0  0
   35.4470   30.3180   33.4440 C   0  0  0  0  0  0  0  0  0  0  0  0
   35.8870   31.1240   32.4030 C   0  0  0  0  0  0  0  0  0  0  0  0
   35.7990   32.8550   32.6050 Cl  0  0  0  0  0  0  0  0  0  0  0  0
   36.3920   30.5820   31.2320 C   0  0  0  0  0  0  0  0  0  0  0  0
   35.2000   28.2880   34.0580 H   0  0  0  0  0  0  0  0  0  0  0  0
   36.7310   31.2090   30.4300 H   0  0  0  0  0  0  0  0  0  0  0  0
   37.2560   24.7890   32.2110 C   0  0  0  0  0  0  0  0  0  0  0  0
   37.1590   26.1700   32.4310 C   0  0  0  0  0  0  0  0  0  0  0  0
   36.1230   26.9290   31.9260 C   0  0  0  0  0  0  0  0  0  0  0  0
   35.1900   26.2440   31.1950 N   0  0  0  0  0  0  0  0  0  0  0  0
   35.2800   24.9220   30.9830 C   0  0  0  0  0  0  0  0  0  0  0  0
   36.3040   24.2070   31.4890 N   0  0  0  0  0  0  0  0  0  0  0  0
   38.1260   24.3220   32.6690 H   0  0  0  0  0  0  0  0  0  0  0  0
   37.9080   26.7100   33.0160 H   0  0  0  0  0  0  0  0  0  0  0  0
   34.5180   24.4160   30.3970 H   0  0  0  0  0  0  0  0  0  0  0  0
   34.9270   30.9470   34.6500 C   0  0  0  0  0  0  0  0  0  0  0  0
   35.7150   31.3900   35.6900 C   0  0  0  0  0  0  0  0  0  0  0  0
   36.7850   31.2750   35.6330 H   0  0  0  0  0  0  0  0  0  0  0  0
   35.1600   31.9790   36.8090 C   0  0  0  0  0  0  0  0  0  0  0  0
   35.8010   32.3300   37.6340 H   0  0  0  0  0  0  0  0  0  0  0  0
   33.8090   32.1590   36.9520 C   0  0  0  0  0  3  0  0  0  0  0  0
   33.0580   31.7040   35.8910 C   0  0  0  0  0  3  0  0  0  0  0  0
   33.6050   31.1350   34.8130 N   0  0  0  0  0  0  0  0  0  0  0  0
  1  2  1  0  0  0  0
  2  8  2  0  0  0  0
  2  3  1  0  0  0  0
  3  4  2  0  0  0  0
  4  5  1  0  0  0  0
  4  9  1  0  0  0  0
  5 20  1  0  0  0  0
  6  7  1  0  0  0  0
  6  5  2  0  0  0  0
  8  6  1  0  0  0  0
 10  8  1  0  0  0  0
 11 12  1  0  0  0  0
 11 17  1  0  0  0  0
 12 18  1  0  0  0  0
 13  3  1  0  0  0  0
 13 12  2  0  0  0  0
 14 13  1  0  0  0  0
 15 14  2  0  0  0  0
 15 16  1  0  0  0  0
 16 11  2  0  0  0  0
 19 15  1  0  0  0  0
 20 27  2  0  0  0  0
 20 21  1  0  0  0  0
 21 23  2  0  0  0  0
 22 21  1  0  0  0  0
 23 25  1  0  0  0  0
 23 24  1  0  0  0  0
 26 25  2  0  0  0  0
 27 26  1  0  0  0  0
M  END
>  <minimizedAffinity>
-5.27412176

$$$$

 OpenBabel03262523453D

 27 29  0  0  0  0  0  0  0  0999 V2000
   37.5430   27.6730   30.5200 Cl  0  0  0  0  0  0  0  0  0  0  0  0
   36.7930   28.4780   31.8750 C   0  0  0  0  0  0  0  0  0  0  0  0
   36.8810   27.9310   33.1490 C   0  0  0  0  0  0  0  0  0  0  0  0
   36.2650   28.6240   34.1560 C   0  0  0  0  0  0  0  0  0  0  0  0
   35.5840   29.8000   33.9690 C   0  0  0  0  0  0  0  0  0  0  0  0
   35.5200   30.3130   32.6810 C   0  0  0  0  0  0  0  0  0  0  0  0
   34.6660   31.8130   32.4310 Cl  0  0  0  0  0  0  0  0  0  0  0  0
   36.1210   29.6640   31.6130 C   0  0  0  0  0  0  0  0  0  0  0  0
   36.3440   28.1840   35.1390 H   0  0  0  0  0  0  0  0  0  0  0  0
   36.0690   30.0650   30.6180 H   0  0  0  0  0  0  0  0  0  0  0  0
   39.6250   25.4340   33.8560 C   0  0  0  0  0  0  0  0  0  0  0  0
   38.9230   26.6400   33.7170 C   0  0  0  0  0  0  0  0  0  0  0  0
   37.6110   26.6890   33.2940 C   0  0  0  0  0  0  0  0  0  0  0  0
   37.0340   25.4790   33.0180 N   0  0  0  0  0  0  0  0  0  0  0  0
   37.7010   24.3230   33.1500 C   0  0  0  0  0  0  0  0  0  0  0  0
   38.9830   24.3070   33.5660 N   0  0  0  0  0  0  0  0  0  0  0  0
   40.6510   25.5480   34.1990 H   0  0  0  0  0  0  0  0  0  0  0  0
   39.3930   27.6020   33.9390 H   0  0  0  0  0  0  0  0  0  0  0  0
   37.2060   23.3840   32.9210 H   0  0  0  0  0  0  0  0  0  0  0  0
   34.9320   30.5280   35.0490 C   0  0  0  0  0  0  0  0  0  0  0  0
   35.5750   31.4310   35.8680 C   0  0  0  0  0  0  0  0  0  0  0  0
   36.6250   31.6290   35.7210 H   0  0  0  0  0  0  0  0  0  0  0  0
   34.9000   32.0900   36.8770 C   0  0  0  0  0  0  0  0  0  0  0  0
   35.4250   32.8110   37.5250 H   0  0  0  0  0  0  0  0  0  0  0  0
   33.5670   31.8900   37.1220 C   0  0  0  0  0  3  0  0  0  0  0  0
   32.9630   30.9810   36.2820 C   0  0  0  0  0  3  0  0  0  0  0  0
   33.6250   30.3490   35.3090 N   0  0  0  0  0  0  0  0  0  0  0  0
  1  2  1  0  0  0  0
  2  3  1  0  0  0  0
  3 13  1  0  0  0  0
  3  4  2  0  0  0  0
  4  9  1  0  0  0  0
  5  4  1  0  0  0  0
  5 20  1  0  0  0  0
  6  5  2  0  0  0  0
  7  6  1  0  0  0  0
  8  2  2  0  0  0  0
  8  6  1  0  0  0  0
 10  8  1  0  0  0  0
 11 17  1  0  0  0  0
 12 11  1  0  0  0  0
 12 18  1  0  0  0  0
 13 12  2  0  0  0  0
 14 15  2  0  0  0  0
 14 13  1  0  0  0  0
 15 16  1  0  0  0  0
 16 11  2  0  0  0  0
 19 15  1  0  0  0  0
 20 27  2  0  0  0  0
 20 21  1  0  0  0  0
 21 23  2  0  0  0  0
 22 21  1  0  0  0  0
 23 25  1  0  0  0  0
 23 24  1  0  0  0  0
 26 25  2  0  0  0  0
 27 26  1  0  0  0  0
M  END
>  <minimizedAffinity>
-5.19635248

$$$$

 OpenBabel03262523453D

 27 29  0  0  0  0  0  0  0  0999 V2000
   35.8490   32.9090   32.4890 Cl  0  0  0  0  0  0  0  0  0  0  0  0
   35.9160   31.1700   32.3570 C   0  0  0  0  0  0  0  0  0  0  0  0
   35.4380   30.3710   33.3890 C   0  0  0  0  0  0  0  0  0  0  0  0
   35.5280   29.0180   33.2070 C   0  0  0  0  0  0  0  0  0  0  0  0
   36.0540   28.4310   32.0840 C   0  0  0  0  0  0  0  0  0  0  0  0
   36.5200   29.2640   31.0770 C   0  0  0  0  0  0  0  0  0  0  0  0
   37.1830   28.5310   29.6390 Cl  0  0  0  0  0  0  0  0  0  0  0  0
   36.4610   30.6440   31.1940 C   0  0  0  0  0  0  0  0  0  0  0  0
   35.1520   28.4130   34.0190 H   0  0  0  0  0  0  0  0  0  0  0  0
   36.8230   31.2840   30.4120 H   0  0  0  0  0  0  0  0  0  0  0  0
   35.1190   32.0000   36.7820 C   0  0  0  0  0  0  0  0  0  0  0  0
   35.6540   31.3510   35.6590 C   0  0  0  0  0  0  0  0  0  0  0  0
   34.8920   31.0390   34.5520 C   0  0  0  0  0  0  0  0  0  0  0  0
   33.5750   31.4060   34.6180 N   0  0  0  0  0  0  0  0  0  0  0  0
   33.0600   32.0270   35.6900 C   0  0  0  0  0  0  0  0  0  0  0  0
   33.8290   32.3190   36.7580 N   0  0  0  0  0  0  0  0  0  0  0  0
   35.8370   32.1820   37.5790 H   0  0  0  0  0  0  0  0  0  0  0  0
   36.7070   31.0620   35.6150 H   0  0  0  0  0  0  0  0  0  0  0  0
   32.0090   32.3010   35.7030 H   0  0  0  0  0  0  0  0  0  0  0  0
   36.1450   26.9890   31.9020 C   0  0  0  0  0  0  0  0  0  0  0  0
   37.1640   26.2110   32.4080 C   0  0  0  0  0  0  0  0  0  0  0  0
   37.9550   26.6730   32.9760 H   0  0  0  0  0  0  0  0  0  0  0  0
   37.1930   24.8450   32.2000 C   0  0  0  0  0  0  0  0  0  0  0  0
   38.0130   24.2330   32.6100 H   0  0  0  0  0  0  0  0  0  0  0  0
   36.2240   24.1890   31.4880 C   0  0  0  0  0  3  0  0  0  0  0  0
   35.2250   25.0030   31.0010 C   0  0  0  0  0  3  0  0  0  0  0  0
   35.2060   26.3220   31.2080 N   0  0  0  0  0  0  0  0  0  0  0  0
  2  1  1  0  0  0  0
  2  3  1  0  0  0  0
  3 13  1  0  0  0  0
  4  3  2  0  0  0  0
  4  9  1  0  0  0  0
  5  4  1  0  0  0  0
  6  8  1  0  0  0  0
  6  5  2  0  0  0  0
  7  6  1  0  0  0  0
  8  2  2  0  0  0  0
 10  8  1  0  0  0  0
 11 17  1  0  0  0  0
 12 11  2  0  0  0  0
 13 14  2  0  0  0  0
 13 12  1  0  0  0  0
 14 15  1  0  0  0  0
 15 19  1  0  0  0  0
 15 16  2  0  0  0  0
 16 11  1  0  0  0  0
 18 12  1  0  0  0  0
 20  5  1  0  0  0  0
 20 21  1  0  0  0  0
 21 22  1  0  0  0  0
 23 21  2  0  0  0  0
 23 24  1  0  0  0  0
 25 23  1  0  0  0  0
 26 27  1  0  0  0  0
 26 25  2  0  0  0  0
 27 20  2  0  0  0  0
M  END
>  <minimizedAffinity>
-5.03166199

$$$$

 OpenBabel03262523453D

 27 29  0  0  0  0  0  0  0  0999 V2000
   34.6350   30.8010   32.1180 Cl  0  0  0  0  0  0  0  0  0  0  0  0
   35.6820   29.5480   32.7330 C   0  0  0  0  0  0  0  0  0  0  0  0
   35.8070   29.3490   34.1030 C   0  0  0  0  0  0  0  0  0  0  0  0
   36.6490   28.3470   34.5010 C   0  0  0  0  0  0  0  0  0  0  0  0
   37.3550   27.5520   33.6350 C   0  0  0  0  0  0  0  0  0  0  0  0
   37.2020   27.7820   32.2750 C   0  0  0  0  0  0  0  0  0  0  0  0
   38.0880   26.7710   31.1620 Cl  0  0  0  0  0  0  0  0  0  0  0  0
   36.3670   28.7810   31.8000 C   0  0  0  0  0  0  0  0  0  0  0  0
   36.7320   28.2080   35.5690 H   0  0  0  0  0  0  0  0  0  0  0  0
   36.2520   28.9550   30.7470 H   0  0  0  0  0  0  0  0  0  0  0  0
   34.8650   32.0640   36.5540 C   0  0  0  0  0  0  0  0  0  0  0  0
   35.6140   31.2290   35.7130 C   0  0  0  0  0  0  0  0  0  0  0  0
   35.0390   30.2150   34.9750 C   0  0  0  0  0  0  0  0  0  0  0  0
   33.6850   30.0760   35.1140 N   0  0  0  0  0  0  0  0  0  0  0  0
   32.9650   30.8730   35.9180 C   0  0  0  0  0  0  0  0  0  0  0  0
   33.5550   31.8560   36.6270 N   0  0  0  0  0  0  0  0  0  0  0  0
   35.4510   32.8190   37.0740 H   0  0  0  0  0  0  0  0  0  0  0  0
   36.6960   31.3460   35.6070 H   0  0  0  0  0  0  0  0  0  0  0  0
   31.8920   30.7310   36.0000 H   0  0  0  0  0  0  0  0  0  0  0  0
   38.2480   26.4880   34.0730 C   0  0  0  0  0  0  0  0  0  0  0  0
   39.5680   26.6820   34.4170 C   0  0  0  0  0  0  0  0  0  0  0  0
   39.9910   27.6730   34.3680 H   0  0  0  0  0  0  0  0  0  0  0  0
   40.3650   25.6300   34.8240 C   0  0  0  0  0  0  0  0  0  0  0  0
   41.4190   25.7980   35.0970 H   0  0  0  0  0  0  0  0  0  0  0  0
   39.8980   24.3450   34.9100 C   0  0  0  0  0  3  0  0  0  0  0  0
   38.5750   24.1940   34.5580 C   0  0  0  0  0  3  0  0  0  0  0  0
   37.8130   25.2190   34.1650 N   0  0  0  0  0  0  0  0  0  0  0  0
  1  2  1  0  0  0  0
  2  3  1  0  0  0  0
  3  4  2  0  0  0  0
  3 13  1  0  0  0  0
  4  9  1  0  0  0  0
  5 20  1  0  0  0  0
  5  4  1  0  0  0  0
  6  5  2  0  0  0  0
  7  6  1  0  0  0  0
  8  6  1  0  0  0  0
  8  2  2  0  0  0  0
 10  8  1  0  0  0  0
 11 16  1  0  0  0  0
 11 17  1  0  0  0  0
 12 11  2  0  0  0  0
 13 14  2  0  0  0  0
 13 12  1  0  0  0  0
 14 15  1  0  0  0  0
 15 19  1  0  0  0  0
 15 16  2  0  0  0  0
 18 12  1  0  0  0  0
 20 27  2  0  0  0  0
 20 21  1  0  0  0  0
 21 23  2  0  0  0  0
 22 21  1  0  0  0  0
 23 25  1  0  0  0  0
 23 24  1  0  0  0  0
 26 25  2  0  0  0  0
 27 26  1  0  0  0  0
M  END
>  <minimizedAffinity>
-4.999897

$$$$

 OpenBabel03262523453D

 27 28  0  0  0  0  0  0  0  0999 V2000
   36.8360   26.8050   34.9410 Cl  0  0  0  0  0  0  0  0  0  0  0  0
   38.0140   25.5530   35.2410 C   0  0  0  0  0  0  0  0  0  0  0  0
   38.8970   25.1690   34.2380 C   0  0  0  0  0  0  0  0  0  0  0  0
   39.7880   24.1800   34.5540 C   0  0  0  0  0  0  0  0  0  0  0  0
   39.8480   23.5680   35.7800 C   0  0  0  0  0  0  0  0  0  0  0  0
   38.9500   23.9810   36.7540 C   0  0  0  0  0  3  0  0  0  0  0  0
   39.0220   23.2180   38.3210 Cl  0  0  0  0  0 15  0  0  0  0  0  0
   38.0190   24.9780   36.5040 C   0  0  0  0  0  0  0  0  0  0  0  0
   40.4650   23.8950   33.7630 H   0  0  0  0  0  0  0  0  0  0  0  0
   37.3260   25.2940   37.2600 H   0  0  0  0  0  0  0  0  0  0  0  0
   39.4880   27.5670   31.3800 C   0  0  0  0  0  0  0  0  0  0  0  0
   39.5920   26.9170   32.6180 C   0  0  0  0  0  0  0  0  0  0  0  0
   38.7930   25.8460   32.9620 C   0  0  0  0  0  0  0  0  0  0  0  0
   37.8880   25.4560   32.0130 N   0  0  0  0  0  0  0  0  0  0  0  0
   37.7840   26.0750   30.8270 C   0  0  0  0  0  0  0  0  0  0  0  0
   38.5790   27.1190   30.5200 N   0  0  0  0  0  0  0  0  0  0  0  0
   40.1810   28.3950   31.2480 H   0  0  0  0  0  0  0  0  0  0  0  0
   40.3180   27.2350   33.3710 H   0  0  0  0  0  0  0  0  0  0  0  0
   37.0530   25.7340   30.1000 H   0  0  0  0  0  0  0  0  0  0  0  0
   40.8020   22.5160   36.1040 C   0  0  0  0  0  0  0  0  0  0  0  0
   41.0140   22.0340   37.3780 C   0  0  0  0  0  0  0  0  0  0  0  0
   40.4520   22.4420   38.2020 H   0  0  0  0  0  0  0  0  0  0  0  0
   41.9350   21.0330   37.6200 C   0  0  0  0  0  0  0  0  0  0  0  0
   42.0950   20.6550   38.6430 H   0  0  0  0  0  0  0  0  0  0  0  0
   42.6840   20.4660   36.6240 C   0  0  0  0  0  3  0  0  0  0  0  0
   42.4420   20.9770   35.3670 C   0  0  0  0  0  3  0  0  0  0  0  0
   41.5490   21.9440   35.1430 N   0  0  0  0  0  0  0  0  0  0  0  0
  1  2  1  0  0  0  0
  2  8  1  0  0  0  0
  3  4  1  0  0  0  0
  3  2  2  0  0  0  0
  4  5  2  0  0  0  0
  5 20  1  0  0  0  0
  5  6  1  0  0  0  0
  8  6  2  0  0  0  0
  8 10  1  0  0  0  0
  9  4  1  0  0  0  0
 11 12  1  0  0  0  0
 12 13  2  0  0  0  0
 12 18  1  0  0  0  0
 13  3  1  0  0  0  0
 14 13  1  0  0  0  0
 15 14  2  0  0  0  0
 16 15  1  0  0  0  0
 16 11  2  0  0  0  0
 17 11  1  0  0  0  0
 19 15  1  0  0  0  0
 20 21  1  0  0  0  0
 21 23  2  0  0  0  0
 21 22  1  0  0  0  0
 23 24  1  0  0  0  0
 25 23  1  0  0  0  0
 26 25  2  0  0  0  0
 27 26  1  0  0  0  0
 27 20  2  0  0  0  0
M  END
>  <minimizedAffinity>
-4.92733717

$$$$

 OpenBabel03262523453D

 27 29  0  0  0  0  0  0  0  0999 V2000
   39.5110   26.2480   35.0620 Cl  0  0  0  0  0  0  0  0  0  0  0  0
   38.8960   24.9120   34.1230 C   0  0  0  0  0  0  0  0  0  0  0  0
   38.5250   23.7280   34.7500 C   0  0  0  0  0  0  0  0  0  0  0  0
   38.0540   22.7300   33.9410 C   0  0  0  0  0  0  0  0  0  0  0  0
   37.9360   22.8410   32.5790 C   0  0  0  0  0  0  0  0  0  0  0  0
   38.3170   24.0390   31.9920 C   0  0  0  0  0  0  0  0  0  0  0  0
   38.1630   24.1980   30.2610 Cl  0  0  0  0  0  0  0  0  0  0  0  0
   38.8030   25.0930   32.7500 C   0  0  0  0  0  0  0  0  0  0  0  0
   37.7700   21.8180   34.4460 H   0  0  0  0  0  0  0  0  0  0  0  0
   39.0970   26.0190   32.2910 H   0  0  0  0  0  0  0  0  0  0  0  0
   39.8540   22.9560   38.2000 C   0  0  0  0  0  0  0  0  0  0  0  0
   39.7200   23.0150   36.8050 C   0  0  0  0  0  0  0  0  0  0  0  0
   38.6680   23.6620   36.1890 C   0  0  0  0  0  0  0  0  0  0  0  0
   37.7600   24.2460   37.0300 N   0  0  0  0  0  0  0  0  0  0  0  0
   37.8840   24.1920   38.3640 C   0  0  0  0  0  0  0  0  0  0  0  0
   38.9230   23.5520   38.9380 N   0  0  0  0  0  0  0  0  0  0  0  0
   40.7310   22.4130   38.5440 H   0  0  0  0  0  0  0  0  0  0  0  0
   40.4500   22.5450   36.1410 H   0  0  0  0  0  0  0  0  0  0  0  0
   37.1410   24.6700   38.9970 H   0  0  0  0  0  0  0  0  0  0  0  0
   37.4330   21.7700   31.7290 C   0  0  0  0  0  0  0  0  0  0  0  0
   36.0950   21.5040   31.5340 C   0  0  0  0  0  0  0  0  0  0  0  0
   35.3540   22.1100   32.0300 H   0  0  0  0  0  0  0  0  0  0  0  0
   35.6810   20.4720   30.7150 C   0  0  0  0  0  0  0  0  0  0  0  0
   34.6080   20.2700   30.5670 H   0  0  0  0  0  0  0  0  0  0  0  0
   36.5640   19.6610   30.0520 C   0  0  0  0  0  3  0  0  0  0  0  0
   37.8900   19.9600   30.2730 C   0  0  0  0  0  3  0  0  0  0  0  0
   38.2800   20.9610   31.0680 N   0  0  0  0  0  0  0  0  0  0  0  0
  2  3  1  0  0  0  0
  2  1  1  0  0  0  0
  3 13  1  0  0  0  0
  4  9  1  0  0  0  0
  4  3  2  0  0  0  0
  5  4  1  0  0  0  0
  6  5  2  0  0  0  0
  6  8  1  0  0  0  0
  7  6  1  0  0  0  0
  8  2  2  0  0  0  0
 10  8  1  0  0  0  0
 11 17  1  0  0  0  0
 11 16  1  0  0  0  0
 12 11  2  0  0  0  0
 13 12  1  0  0  0  0
 13 14  2  0  0  0  0
 14 15  1  0  0  0  0
 15 16  2  0  0  0  0
 15 19  1  0  0  0  0
 18 12  1  0  0  0  0
 20  5  1  0  0  0  0
 21 20  1  0  0  0  0
 21 22  1  0  0  0  0
 23 21  2  0  0  0  0
 24 23  1  0  0  0  0
 25 26  2  0  0  0  0
 25 23  1  0  0  0  0
 26 27  1  0  0  0  0
 27 20  2  0  0  0  0
M  END
>  <minimizedAffinity>
-4.83633709

$$$$

 OpenBabel03262523453D

 27 29  0  0  0  0  0  0  0  0999 V2000
   38.4740   27.3250   34.2030 Cl  0  0  0  0  0  0  0  0  0  0  0  0
   37.9070   25.8180   33.5280 C   0  0  0  0  0  0  0  0  0  0  0  0
   37.0620   25.8200   32.4240 C   0  0  0  0  0  0  0  0  0  0  0  0
   36.6630   24.5970   31.9590 C   0  0  0  0  0  0  0  0  0  0  0  0
   37.0470   23.4030   32.5160 C   0  0  0  0  0  0  0  0  0  0  0  0
   37.8910   23.4460   33.6170 C   0  0  0  0  0  0  0  0  0  0  0  0
   38.3950   21.9350   34.3300 Cl  0  0  0  0  0  0  0  0  0  0  0  0
   38.3350   24.6490   34.1430 C   0  0  0  0  0  0  0  0  0  0  0  0
   36.0070   24.6180   31.1010 H   0  0  0  0  0  0  0  0  0  0  0  0
   38.9880   24.6770   34.9940 H   0  0  0  0  0  0  0  0  0  0  0  0
   36.9060   28.8760   30.2110 C   0  0  0  0  0  0  0  0  0  0  0  0
   37.2750   27.6310   30.7410 C   0  0  0  0  0  0  0  0  0  0  0  0
   36.6870   27.1050   31.8730 C   0  0  0  0  0  0  0  0  0  0  0  0
   35.7150   27.8780   32.4480 N   0  0  0  0  0  0  0  0  0  0  0  0
   35.3580   29.0690   31.9440 C   0  0  0  0  0  0  0  0  0  0  0  0
   35.9510   29.5580   30.8360 N   0  0  0  0  0  0  0  0  0  0  0  0
   37.4540   29.1640   29.3170 H   0  0  0  0  0  0  0  0  0  0  0  0
   38.0530   27.0210   30.2760 H   0  0  0  0  0  0  0  0  0  0  0  0
   34.5810   29.6510   32.4300 H   0  0  0  0  0  0  0  0  0  0  0  0
   36.6150   22.1080   32.0110 C   0  0  0  0  0  0  0  0  0  0  0  0
   35.4460   21.4840   32.3900 C   0  0  0  0  0  0  0  0  0  0  0  0
   34.7940   21.9620   33.1030 H   0  0  0  0  0  0  0  0  0  0  0  0
   35.0920   20.2520   31.8740 C   0  0  0  0  0  0  0  0  0  0  0  0
   34.1540   19.7630   32.1850 H   0  0  0  0  0  0  0  0  0  0  0  0
   35.8690   19.5840   30.9650 C   0  0  0  0  0  3  0  0  0  0  0  0
   37.0270   20.2420   30.6130 C   0  0  0  0  0  3  0  0  0  0  0  0
   37.3610   21.4330   31.1180 N   0  0  0  0  0  0  0  0  0  0  0  0
  2  8  1  0  0  0  0
  2  1  1  0  0  0  0
  3  2  2  0  0  0  0
  4  3  1  0  0  0  0
  4  5  2  0  0  0  0
  5  6  1  0  0  0  0
  6  8  2  0  0  0  0
  6  7  1  0  0  0  0
  8 10  1  0  0  0  0
  9  4  1  0  0  0  0
 11 12  2  0  0  0  0
 11 16  1  0  0  0  0
 12 13  1  0  0  0  0
 13  3  1  0  0  0  0
 13 14  2  0  0  0  0
 15 19  1  0  0  0  0
 15 14  1  0  0  0  0
 16 15  2  0  0  0  0
 17 11  1  0  0  0  0
 18 12  1  0  0  0  0
 20 21  1  0  0  0  0
 20  5  1  0  0  0  0
 21 22  1  0  0  0  0
 23 24  1  0  0  0  0
 23 21  2  0  0  0  0
 25 23  1  0  0  0  0
 26 25  2  0  0  0  0
 26 27  1  0  0  0  0
 27 20  2  0  0  0  0
M  END
>  <minimizedAffinity>
-4.76879025

$$$$

 OpenBabel03262523453D

 27 29  0  0  0  0  0  0  0  0999 V2000
   33.5740   31.2740   31.2060 Cl  0  0  0  0  0  0  0  0  0  0  0  0
   34.5590   30.1850   32.1480 C   0  0  0  0  0  0  0  0  0  0  0  0
   34.2020   29.8710   33.4550 C   0  0  0  0  0  0  0  0  0  0  0  0
   35.0290   29.0110   34.1240 C   0  0  0  0  0  0  0  0  0  0  0  0
   36.1610   28.4600   33.5810 C   0  0  0  0  0  0  0  0  0  0  0  0
   36.4830   28.7990   32.2740 C   0  0  0  0  0  0  0  0  0  0  0  0
   37.9160   28.0980   31.5680 Cl  0  0  0  0  0  0  0  0  0  0  0  0
   35.6910   29.6640   31.5360 C   0  0  0  0  0  0  0  0  0  0  0  0
   34.7350   28.7790   35.1380 H   0  0  0  0  0  0  0  0  0  0  0  0
   35.9430   29.9240   30.5250 H   0  0  0  0  0  0  0  0  0  0  0  0
   31.8360   32.2440   35.1980 C   0  0  0  0  0  0  0  0  0  0  0  0
   33.0060   31.6600   34.6920 C   0  0  0  0  0  0  0  0  0  0  0  0
   32.9970   30.4780   33.9810 C   0  0  0  0  0  0  0  0  0  0  0  0
   31.7660   29.9080   33.7980 N   0  0  0  0  0  0  0  0  0  0  0  0
   30.6440   30.4630   34.2790 C   0  0  0  0  0  0  0  0  0  0  0  0
   30.6850   31.6190   34.9710 N   0  0  0  0  0  0  0  0  0  0  0  0
   31.9950   33.1740   35.7380 H   0  0  0  0  0  0  0  0  0  0  0  0
   33.9860   32.1220   34.8430 H   0  0  0  0  0  0  0  0  0  0  0  0
   29.6860   29.9790   34.1120 H   0  0  0  0  0  0  0  0  0  0  0  0
   37.0330   27.5450   34.3050 C   0  0  0  0  0  0  0  0  0  0  0  0
   37.8430   27.9210   35.3550 C   0  0  0  0  0  0  0  0  0  0  0  0
   37.8500   28.9490   35.6810 H   0  0  0  0  0  0  0  0  0  0  0  0
   38.6490   27.0050   36.0020 C   0  0  0  0  0  0  0  0  0  0  0  0
   39.2920   27.3170   36.8410 H   0  0  0  0  0  0  0  0  0  0  0  0
   38.6930   25.6830   35.6450 C   0  0  0  0  0  3  0  0  0  0  0  0
   37.8690   25.3500   34.5920 C   0  0  0  0  0  3  0  0  0  0  0  0
   37.0940   26.2440   33.9730 N   0  0  0  0  0  0  0  0  0  0  0  0
  1  2  1  0  0  0  0
  2  3  1  0  0  0  0
  3 13  1  0  0  0  0
  3  4  2  0  0  0  0
  4  9  1  0  0  0  0
  5  4  1  0  0  0  0
  5 20  1  0  0  0  0
  6  5  2  0  0  0  0
  7  6  1  0  0  0  0
  8  2  2  0  0  0  0
  8  6  1  0  0  0  0
 10  8  1  0  0  0  0
 11 17  1  0  0  0  0
 12 18  1  0  0  0  0
 12 11  2  0  0  0  0
 13 12  1  0  0  0  0
 14 13  2  0  0  0  0
 14 15  1  0  0  0  0
 15 16  2  0  0  0  0
 16 11  1  0  0  0  0
 19 15  1  0  0  0  0
 20 21  1  0  0  0  0
 21 22  1  0  0  0  0
 21 23  2  0  0  0  0
 23 24  1  0  0  0  0
 25 23  1  0  0  0  0
 26 25  2  0  0  0  0
 27 20  2  0  0  0  0
 27 26  1  0  0  0  0
M  END
>  <minimizedAffinity>
-4.75616932

$$$$

 OpenBabel03262523453D

 27 29  0  0  0  0  0  0  0  0999 V2000
   38.6890   26.7360   31.1720 Cl  0  0  0  0  0  0  0  0  0  0  0  0
   37.5980   27.6140   32.2140 C   0  0  0  0  0  0  0  0  0  0  0  0
   37.5430   27.3250   33.5720 C   0  0  0  0  0  0  0  0  0  0  0  0
   36.6610   28.0580   34.3180 C   0  0  0  0  0  0  0  0  0  0  0  0
   35.8520   29.0370   33.8020 C   0  0  0  0  0  0  0  0  0  0  0  0
   35.9380   29.2960   32.4410 C   0  0  0  0  0  0  0  0  0  0  0  0
   34.9210   30.5460   31.7720 Cl  0  0  0  0  0  0  0  0  0  0  0  0
   36.8090   28.5920   31.6240 C   0  0  0  0  0  0  0  0  0  0  0  0
   36.6330   27.8190   35.3720 H   0  0  0  0  0  0  0  0  0  0  0  0
   36.8710   28.7950   30.5720 H   0  0  0  0  0  0  0  0  0  0  0  0
   38.8640   23.9680   34.6940 C   0  0  0  0  0  0  0  0  0  0  0  0
   38.0110   24.9730   34.2140 C   0  0  0  0  0  0  0  0  0  0  0  0
   38.4190   26.2830   34.0690 C   0  0  0  0  0  0  0  0  0  0  0  0
   39.7150   26.5410   34.4220 N   0  0  0  0  0  0  0  0  0  0  0  0
   40.5350   25.5830   34.8800 C   0  0  0  0  0  0  0  0  0  0  0  0
   40.1070   24.3110   35.0130 N   0  0  0  0  0  0  0  0  0  0  0  0
   38.4060   22.9830   34.7560 H   0  0  0  0  0  0  0  0  0  0  0  0
   36.9760   24.7580   33.9350 H   0  0  0  0  0  0  0  0  0  0  0  0
   41.5580   25.8290   35.1490 H   0  0  0  0  0  0  0  0  0  0  0  0
   34.9170   29.8110   34.6070 C   0  0  0  0  0  0  0  0  0  0  0  0
   33.5780   29.5130   34.7320 C   0  0  0  0  0  0  0  0  0  0  0  0
   33.1710   28.6600   34.2130 H   0  0  0  0  0  0  0  0  0  0  0  0
   32.7410   30.2870   35.5120 C   0  0  0  0  0  0  0  0  0  0  0  0
   31.6710   30.0380   35.6050 H   0  0  0  0  0  0  0  0  0  0  0  0
   33.1850   31.3850   36.2010 C   0  0  0  0  0  3  0  0  0  0  0  0
   34.5290   31.6480   36.0490 C   0  0  0  0  0  3  0  0  0  0  0  0
   35.3290   30.8920   35.2920 N   0  0  0  0  0  0  0  0  0  0  0  0
  1  2  1  0  0  0  0
  2  3  1  0  0  0  0
  3 13  1  0  0  0  0
  3  4  2  0  0  0  0
  4  9  1  0  0  0  0
  5  4  1  0  0  0  0
  5 20  1  0  0  0  0
  6  5  2  0  0  0  0
  7  6  1  0  0  0  0
  8  2  2  0  0  0  0
  8  6  1  0  0  0  0
 10  8  1  0  0  0  0
 11 17  1  0  0  0  0
 11 16  1  0  0  0  0
 12 11  2  0  0  0  0
 13 12  1  0  0  0  0
 13 14  2  0  0  0  0
 14 15  1  0  0  0  0
 15 16  2  0  0  0  0
 15 19  1  0  0  0  0
 18 12  1  0  0  0  0
 20 21  2  0  0  0  0
 20 27  1  0  0  0  0
 21 23  1  0  0  0  0
 22 21  1  0  0  0  0
 23 24  1  0  0  0  0
 23 25  2  0  0  0  0
 26 25  1  0  0  0  0
 27 26  2  0  0  0  0
M  END
>  <minimizedAffinity>
-4.75472355

$$$$
