
 OpenBabel03272510333D

 27 29  0  0  0  0  0  0  0  0999 V2000
   36.9680   30.7430   45.4910 C   0  0  0  0  0  0  0  0  0  0  0  0
   36.3200   30.4600   44.3270 C   0  0  0  0  0  0  0  0  0  0  0  0
   35.0420   29.9330   44.3090 C   0  0  0  0  0  0  0  0  0  0  0  0
   34.4300   29.6990   45.5300 C   0  0  0  0  0  0  0  0  0  0  0  0
   35.0610   29.9750   46.7290 C   0  0  0  0  0  0  0  0  0  0  0  0
   36.3420   30.5020   46.7010 C   0  0  0  0  0  0  0  0  0  0  0  0
   36.7930   30.6400   43.3490 H   0  0  0  0  0  0  0  0  0  0  0  0
   34.5440   29.7150   43.3840 H   0  0  0  0  0  0  0  0  0  0  0  0
   33.4290   29.2860   45.5340 H   0  0  0  0  0  0  0  0  0  0  0  0
   34.5360   29.7720   47.6560 H   0  0  0  0  0  0  0  0  0  0  0  0
   39.6420   33.1400   44.9270 C   0  0  0  0  0  0  0  0  0  0  0  0
   40.8130   32.4340   45.1900 C   0  0  0  0  0  0  0  0  0  0  0  0
   40.6660   31.0900   45.5740 C   0  0  0  0  0  0  0  0  0  0  0  0
   39.4200   30.5550   45.6670 N   0  0  0  0  0  0  0  0  0  0  0  0
   38.3120   31.2930   45.3970 C   0  0  0  0  0  0  0  0  0  0  0  0
   38.4200   32.6000   45.0220 N   0  0  0  0  0  0  0  0  0  0  0  0
   39.8170   34.1670   44.6380 H   0  0  0  0  0  0  0  0  0  0  0  0
   41.8130   32.7830   45.1390 H   0  0  0  0  0  0  0  0  0  0  0  0
   41.4540   30.3830   45.8180 H   0  0  0  0  0  0  0  0  0  0  0  0
   37.0450   30.8130   47.9410 C   0  0  0  0  0  0  0  0  0  0  0  0
   37.2530   29.8640   48.9150 C   0  0  0  0  0  0  0  0  0  0  0  0
   36.8590   28.8760   48.6930 H   0  0  0  0  0  0  0  0  0  0  0  0
   37.9050   30.0920   50.1030 C   0  0  0  0  0  0  0  0  0  0  0  0
   38.0250   29.2830   50.8170 H   0  0  0  0  0  0  0  0  0  0  0  0
   38.3910   31.3720   50.3430 C   0  0  0  0  0  3  0  0  0  0  0  0
   38.1890   32.3330   49.3740 C   0  0  0  0  0  3  0  0  0  0  0  0
   37.5430   32.0490   48.2280 N   0  0  0  0  0  0  0  0  0  0  0  0
  1  6  1  0  0  0  0
  2  1  2  0  0  0  0
  3  2  1  0  0  0  0
  3  4  2  0  0  0  0
  4  9  1  0  0  0  0
  4  5  1  0  0  0  0
  5 10  1  0  0  0  0
  6  5  2  0  0  0  0
  6 20  1  0  0  0  0
  7  2  1  0  0  0  0
  8  3  1  0  0  0  0
 11 16  2  0  0  0  0
 11 12  1  0  0  0  0
 12 13  2  0  0  0  0
 13 14  1  0  0  0  0
 13 19  1  0  0  0  0
 15  1  1  0  0  0  0
 15 14  2  0  0  0  0
 16 15  1  0  0  0  0
 17 11  1  0  0  0  0
 18 12  1  0  0  0  0
 20 27  2  0  0  0  0
 20 21  1  0  0  0  0
 21 23  2  0  0  0  0
 22 21  1  0  0  0  0
 23 25  1  0  0  0  0
 23 24  1  0  0  0  0
 26 25  2  0  0  0  0
 27 26  1  0  0  0  0
M  END
>  <minimizedAffinity>
-5.9089036

>  <minimizedRMSD>
3.54865026

$$$$
