
 OpenBabel03272510283D

 44 48  0  0  1  0  0  0  0  0999 V2000
   35.8750   29.8490   32.6650 C   0  0  0  0  0  0  0  0  0  0  0  0
   35.8790   29.4210   33.9910 C   0  0  0  0  0  0  0  0  0  0  0  0
   36.4840   28.2270   34.3480 C   0  0  0  0  0  0  0  0  0  0  0  0
   37.0750   27.4980   33.3230 C   0  0  0  0  0  0  0  0  0  0  0  0
   37.7260   26.2980   33.4410 N   0  0  0  0  0  0  0  0  0  0  0  0
   38.1260   25.9750   32.2010 C   0  0  0  0  0  0  0  0  0  0  0  0
   37.7590   26.9030   31.3430 N   0  0  0  0  0  0  0  0  0  0  0  0
   37.0970   27.8790   32.0100 C   0  0  0  0  0  0  0  0  0  0  0  0
   36.4790   29.0870   31.6750 C   0  0  0  0  0  0  0  0  0  0  0  0
   35.4050   30.7840   32.3620 H   0  0  0  0  0  0  0  0  0  0  0  0
   36.4840   27.9020   35.3730 H   0  0  0  0  0  0  0  0  0  0  0  0
   37.8820   25.7370   34.3240 H   0  0  0  0  0  0  0  0  0  0  0  0
   36.5070   29.3700   30.6320 H   0  0  0  0  0  0  0  0  0  0  0  0
   35.1330   31.9670   36.6390 C   0  0  0  0  0  0  0  0  0  0  0  0
   35.8750   31.2050   35.7540 C   0  0  0  0  0  0  0  0  0  0  0  0
   35.2160   30.2800   34.9520 C   0  0  0  0  0  0  0  0  0  0  0  0
   33.8660   30.1850   35.0940 N   0  0  0  0  0  0  0  0  0  0  0  0
   33.1530   30.9270   35.9550 C   0  0  0  0  0  0  0  0  0  0  0  0
   33.7890   31.8080   36.7150 N   0  0  0  0  0  0  0  0  0  0  0  0
   35.6840   32.6830   37.2510 H   0  0  0  0  0  0  0  0  0  0  0  0
   36.9570   31.2920   35.6490 H   0  0  0  0  0  0  0  0  0  0  0  0
   32.0820   30.7560   35.9720 H   0  0  0  0  0  0  0  0  0  0  0  0
   38.8360   24.7870   31.9500 O   0  0  0  0  0  0  0  0  0  0  0  0
   38.6550   23.0690   33.4360 N   0  0  0  0  0  0  0  0  0  0  0  0
   39.4780   24.2090   33.0870 C   0  0  1  0  0  0  0  0  0  0  0  0
   40.8290   23.7550   32.7730 C   0  0  0  0  0  0  0  0  0  0  0  0
   41.4000   23.2090   33.9340 O   0  0  0  0  0  0  0  0  0  0  0  0
   40.6840   22.2140   34.5240 C   0  0  0  0  0  0  0  0  0  0  0  0
   39.2220   22.5020   34.6580 C   0  0  1  0  0  0  0  0  0  0  0  0
   37.7130   23.4350   33.6940 H   0  0  0  0  0  0  0  0  0  0  0  0
   39.5350   24.9880   33.8660 H   0  0  0  0  0  0  0  0  0  0  0  0
   41.0840   23.0710   32.0120 H   0  0  0  0  0  0  0  0  0  0  0  0
   41.4560   24.6820   32.5920 H   0  0  0  0  0  0  0  0  0  0  0  0
   41.0930   22.0380   35.5240 H   0  0  0  0  0  0  0  0  0  0  0  0
   40.8350   21.2550   33.9650 H   0  0  0  0  0  0  0  0  0  0  0  0
   38.7340   21.4800   34.7090 H   0  0  0  0  0  0  0  0  0  0  0  0
   38.8200   23.1930   35.8810 C   0  0  0  0  0  0  0  0  0  0  0  0
   39.2290   22.7270   37.1390 C   0  0  0  0  0  0  0  0  0  0  0  0
   39.8600   21.8230   37.1190 H   0  0  0  0  0  0  0  0  0  0  0  0
   38.9280   23.2750   38.3680 C   0  0  0  0  0  0  0  0  0  0  0  0
   39.3250   22.7910   39.2500 H   0  0  0  0  0  0  0  0  0  0  0  0
   38.1430   24.3980   38.3630 C   0  0  0  0  0  3  0  0  0  0  0  0
   37.7370   24.8600   37.1280 C   0  0  0  0  0  3  0  0  0  0  0  0
   38.0540   24.2960   35.9510 N   0  0  0  0  0  0  0  0  0  0  0  0
  1  2  1  0  0  0  0
  2  3  2  0  0  0  0
  2 16  1  0  0  0  0
  3 11  1  0  0  0  0
  4  5  1  0  0  0  0
  4  3  1  0  0  0  0
  5 12  1  0  0  0  0
  6  5  1  0  0  0  0
  7  8  1  0  0  0  0
  7  6  2  0  0  0  0
  8  4  2  0  0  0  0
  9  8  1  0  0  0  0
  9  1  2  0  0  0  0
 10  1  1  0  0  0  0
 13  9  1  0  0  0  0
 14 19  1  0  0  0  0
 14 20  1  0  0  0  0
 15 14  2  0  0  0  0
 16 17  2  0  0  0  0
 16 15  1  0  0  0  0
 17 18  1  0  0  0  0
 18 22  1  0  0  0  0
 18 19  2  0  0  0  0
 21 15  1  0  0  0  0
 23  6  1  0  0  0  0
 23 25  1  0  0  0  0
 24 30  1  0  0  0  0
 24 29  1  0  0  0  0
 25 24  1  0  0  0  0
 25 31  1  1  0  0  0
 26 25  1  0  0  0  0
 26 27  1  0  0  0  0
 27 28  1  0  0  0  0
 28 29  1  0  0  0  0
 28 34  1  0  0  0  0
 29 36  1  1  0  0  0
 29 37  1  0  0  0  0
 32 26  1  0  0  0  0
 33 26  1  0  0  0  0
 35 28  1  0  0  0  0
 37 44  2  0  0  0  0
 37 38  1  0  0  0  0
 38 40  2  0  0  0  0
 39 38  1  0  0  0  0
 40 41  1  0  0  0  0
 42 40  1  0  0  0  0
 43 42  2  0  0  0  0
 44 43  1  0  0  0  0
M  END
>  <minimizedAffinity>
-6.29476833

$$$$

 OpenBabel03272510283D

 44 48  0  0  1  0  0  0  0  0999 V2000
   37.7950   24.8870   33.6830 C   0  0  0  0  0  0  0  0  0  0  0  0
   37.8350   25.4050   34.9750 C   0  0  0  0  0  0  0  0  0  0  0  0
   37.3420   26.6710   35.2470 C   0  0  0  0  0  0  0  0  0  0  0  0
   36.8160   27.3780   34.1720 C   0  0  0  0  0  0  0  0  0  0  0  0
   36.2780   28.6370   34.2050 N   0  0  0  0  0  0  0  0  0  0  0  0
   35.9040   28.9080   32.9450 C   0  0  0  0  0  0  0  0  0  0  0  0
   36.1810   27.8940   32.1540 N   0  0  0  0  0  0  0  0  0  0  0  0
   36.7550   26.9100   32.8890 C   0  0  0  0  0  0  0  0  0  0  0  0
   37.2590   25.6310   32.6400 C   0  0  0  0  0  0  0  0  0  0  0  0
   38.1770   23.8950   33.4460 H   0  0  0  0  0  0  0  0  0  0  0  0
   37.3760   27.0650   36.2470 H   0  0  0  0  0  0  0  0  0  0  0  0
   36.1760   29.2700   35.0470 H   0  0  0  0  0  0  0  0  0  0  0  0
   37.2020   25.2800   31.6200 H   0  0  0  0  0  0  0  0  0  0  0  0
   40.0130   23.0000   36.8520 C   0  0  0  0  0  0  0  0  0  0  0  0
   39.5510   23.7720   35.8010 C   0  0  0  0  0  0  0  0  0  0  0  0
   38.4210   24.5580   35.9950 C   0  0  0  0  0  0  0  0  0  0  0  0
   37.8370   24.5140   37.2240 N   0  0  0  0  0  0  0  0  0  0  0  0
   38.2920   23.7620   38.2380 C   0  0  0  0  0  0  0  0  0  0  0  0
   39.3700   23.0160   38.0450 N   0  0  0  0  0  0  0  0  0  0  0  0
   40.9030   22.3970   36.6620 H   0  0  0  0  0  0  0  0  0  0  0  0
   40.0280   23.7980   34.8210 H   0  0  0  0  0  0  0  0  0  0  0  0
   37.7360   23.8160   39.1680 H   0  0  0  0  0  0  0  0  0  0  0  0
   35.3030   30.1360   32.6100 O   0  0  0  0  0  0  0  0  0  0  0  0
   33.6830   30.8930   34.0220 N   0  0  0  0  0  0  0  0  0  0  0  0
   33.8850   30.1860   32.7730 C   0  0  1  0  0  0  0  0  0  0  0  0
   33.2410   30.9190   31.6890 C   0  0  0  0  0  0  0  0  0  0  0  0
   31.8540   30.9200   31.9090 O   0  0  0  0  0  0  0  0  0  0  0  0
   31.4570   31.4020   33.1180 C   0  0  0  0  0  0  0  0  0  0  0  0
   32.2440   30.8820   34.2790 C   0  0  1  0  0  0  0  0  0  0  0  0
   34.1190   30.3200   34.7750 H   0  0  0  0  0  0  0  0  0  0  0  0
   33.5160   29.1460   32.7710 H   0  0  0  0  0  0  0  0  0  0  0  0
   33.4590   31.9120   31.4050 H   0  0  0  0  0  0  0  0  0  0  0  0
   33.3500   30.2890   30.7530 H   0  0  0  0  0  0  0  0  0  0  0  0
   30.4050   31.1350   33.2690 H   0  0  0  0  0  0  0  0  0  0  0  0
   31.4830   32.5210   33.1080 H   0  0  0  0  0  0  0  0  0  0  0  0
   32.1280   31.6760   35.0800 H   0  0  0  0  0  0  0  0  0  0  0  0
   31.7530   29.6430   34.8780 C   0  0  0  0  0  0  0  0  0  0  0  0
   32.0400   29.3250   36.2130 C   0  0  0  0  0  0  0  0  0  0  0  0
   32.6490   30.0710   36.7500 H   0  0  0  0  0  0  0  0  0  0  0  0
   31.6450   28.2000   36.9040 C   0  0  0  0  0  0  0  0  0  0  0  0
   31.9520   28.1050   37.9370 H   0  0  0  0  0  0  0  0  0  0  0  0
   30.8880   27.2890   36.2130 C   0  0  0  0  0  3  0  0  0  0  0  0
   30.6040   27.5980   34.8990 C   0  0  0  0  0  3  0  0  0  0  0  0
   31.0090   28.7080   34.2610 N   0  0  0  0  0  0  0  0  0  0  0  0
  1  2  1  0  0  0  0
  2  3  2  0  0  0  0
  2 16  1  0  0  0  0
  3 11  1  0  0  0  0
  4  5  1  0  0  0  0
  4  3  1  0  0  0  0
  5 12  1  0  0  0  0
  6  5  1  0  0  0  0
  7  8  1  0  0  0  0
  7  6  2  0  0  0  0
  8  4  2  0  0  0  0
  9  8  1  0  0  0  0
  9  1  2  0  0  0  0
 10  1  1  0  0  0  0
 13  9  1  0  0  0  0
 14 19  1  0  0  0  0
 15 16  1  0  0  0  0
 15 14  2  0  0  0  0
 16 17  2  0  0  0  0
 17 18  1  0  0  0  0
 18 22  1  0  0  0  0
 19 18  2  0  0  0  0
 20 14  1  0  0  0  0
 21 15  1  0  0  0  0
 23 25  1  0  0  0  0
 23  6  1  0  0  0  0
 24 29  1  0  0  0  0
 24 30  1  0  0  0  0
 25 31  1  1  0  0  0
 25 24  1  0  0  0  0
 26 27  1  0  0  0  0
 26 25  1  0  0  0  0
 27 28  1  0  0  0  0
 28 34  1  0  0  0  0
 28 29  1  0  0  0  0
 29 37  1  0  0  0  0
 29 36  1  1  0  0  0
 32 26  1  0  0  0  0
 33 26  1  0  0  0  0
 35 28  1  0  0  0  0
 37 38  1  0  0  0  0
 38 39  1  0  0  0  0
 38 40  2  0  0  0  0
 40 41  1  0  0  0  0
 42 40  1  0  0  0  0
 43 42  2  0  0  0  0
 44 37  2  0  0  0  0
 44 43  1  0  0  0  0
M  END
>  <minimizedAffinity>
-6.25467968

$$$$

 OpenBabel03272510283D

 44 48  0  0  1  0  0  0  0  0999 V2000
   35.0450   29.1830   33.0070 C   0  0  0  0  0  0  0  0  0  0  0  0
   35.6130   29.3820   34.2630 C   0  0  0  0  0  0  0  0  0  0  0  0
   36.6700   28.5970   34.6940 C   0  0  0  0  0  0  0  0  0  0  0  0
   37.1190   27.6190   33.8140 C   0  0  0  0  0  0  0  0  0  0  0  0
   38.1420   26.7330   34.0270 N   0  0  0  0  0  0  0  0  0  0  0  0
   38.2150   25.9850   32.9150 C   0  0  0  0  0  0  0  0  0  0  0  0
   37.3020   26.3620   32.0450 N   0  0  0  0  0  0  0  0  0  0  0  0
   36.5930   27.3890   32.5740 C   0  0  0  0  0  0  0  0  0  0  0  0
   35.5270   28.1940   32.1610 C   0  0  0  0  0  0  0  0  0  0  0  0
   34.2140   29.7890   32.6470 H   0  0  0  0  0  0  0  0  0  0  0  0
   37.1050   28.7550   35.6650 H   0  0  0  0  0  0  0  0  0  0  0  0
   38.7520   26.6510   34.8870 H   0  0  0  0  0  0  0  0  0  0  0  0
   35.1250   27.9960   31.1780 H   0  0  0  0  0  0  0  0  0  0  0  0
   35.1160   32.2970   36.5670 C   0  0  0  0  0  0  0  0  0  0  0  0
   35.7830   31.3380   35.8240 C   0  0  0  0  0  0  0  0  0  0  0  0
   35.0370   30.4340   35.0770 C   0  0  0  0  0  0  0  0  0  0  0  0
   33.6820   30.5540   35.1270 N   0  0  0  0  0  0  0  0  0  0  0  0
   33.0440   31.4860   35.8510 C   0  0  0  0  0  0  0  0  0  0  0  0
   33.7620   32.3460   36.5600 N   0  0  0  0  0  0  0  0  0  0  0  0
   35.7350   32.9890   37.1400 H   0  0  0  0  0  0  0  0  0  0  0  0
   36.8690   31.2520   35.7920 H   0  0  0  0  0  0  0  0  0  0  0  0
   31.9600   31.4770   35.8070 H   0  0  0  0  0  0  0  0  0  0  0  0
   39.1700   24.9600   32.7870 O   0  0  0  0  0  0  0  0  0  0  0  0
   39.2890   24.6800   35.0450 N   0  0  0  0  0  0  0  0  0  0  0  0
   39.1270   23.9560   33.8010 C   0  0  1  0  0  0  0  0  0  0  0  0
   37.8490   23.2520   33.8110 C   0  0  0  0  0  0  0  0  0  0  0  0
   37.8810   22.2780   34.8220 O   0  0  0  0  0  0  0  0  0  0  0  0
   38.1860   22.7380   36.0660 C   0  0  0  0  0  0  0  0  0  0  0  0
   39.3490   23.6790   36.1070 C   0  0  1  0  0  0  0  0  0  0  0  0
   40.2270   25.1340   35.0180 H   0  0  0  0  0  0  0  0  0  0  0  0
   39.9320   23.2330   33.5840 H   0  0  0  0  0  0  0  0  0  0  0  0
   36.9010   23.7030   33.9160 H   0  0  0  0  0  0  0  0  0  0  0  0
   37.8040   22.6330   32.8620 H   0  0  0  0  0  0  0  0  0  0  0  0
   38.4150   21.8800   36.7070 H   0  0  0  0  0  0  0  0  0  0  0  0
   37.2860   23.2220   36.5230 H   0  0  0  0  0  0  0  0  0  0  0  0
   39.1810   24.2970   37.0430 H   0  0  0  0  0  0  0  0  0  0  0  0
   40.6620   23.0600   36.2730 C   0  0  0  0  0  0  0  0  0  0  0  0
   40.7940   21.8040   36.8850 C   0  0  0  0  0  0  0  0  0  0  0  0
   39.8490   21.3450   37.2160 H   0  0  0  0  0  0  0  0  0  0  0  0
   41.9610   21.1050   37.1050 C   0  0  0  0  0  0  0  0  0  0  0  0
   41.8920   20.1420   37.5930 H   0  0  0  0  0  0  0  0  0  0  0  0
   43.1220   21.6990   36.6830 C   0  0  0  0  0  3  0  0  0  0  0  0
   42.9970   22.9350   36.0810 C   0  0  0  0  0  3  0  0  0  0  0  0
   41.8370   23.5830   35.8840 N   0  0  0  0  0  0  0  0  0  0  0  0
  1  2  1  0  0  0  0
  2  3  2  0  0  0  0
  2 16  1  0  0  0  0
  3 11  1  0  0  0  0
  4  5  1  0  0  0  0
  4  3  1  0  0  0  0
  5 12  1  0  0  0  0
  6  5  1  0  0  0  0
  7  8  1  0  0  0  0
  7  6  2  0  0  0  0
  8  4  2  0  0  0  0
  9  8  1  0  0  0  0
  9  1  2  0  0  0  0
 10  1  1  0  0  0  0
 13  9  1  0  0  0  0
 14 20  1  0  0  0  0
 15 14  2  0  0  0  0
 16 17  2  0  0  0  0
 16 15  1  0  0  0  0
 17 18  1  0  0  0  0
 18 19  2  0  0  0  0
 19 14  1  0  0  0  0
 21 15  1  0  0  0  0
 22 18  1  0  0  0  0
 23  6  1  0  0  0  0
 23 25  1  0  0  0  0
 24 29  1  0  0  0  0
 25 31  1  6  0  0  0
 25 26  1  0  0  0  0
 25 24  1  0  0  0  0
 26 32  1  0  0  0  0
 26 27  1  0  0  0  0
 27 28  1  0  0  0  0
 28 29  1  0  0  0  0
 28 35  1  0  0  0  0
 28 34  1  0  0  0  0
 29 37  1  0  0  0  0
 29 36  1  1  0  0  0
 30 24  1  0  0  0  0
 33 26  1  0  0  0  0
 37 38  1  0  0  0  0
 38 40  2  0  0  0  0
 38 39  1  0  0  0  0
 40 41  1  0  0  0  0
 42 40  1  0  0  0  0
 43 42  2  0  0  0  0
 44 43  1  0  0  0  0
 44 37  2  0  0  0  0
M  END
>  <minimizedAffinity>
-6.08837414

$$$$

 OpenBabel03272510283D

 44 48  0  0  1  0  0  0  0  0999 V2000
   37.8750   23.5390   32.3240 C   0  0  0  0  0  0  0  0  0  0  0  0
   36.5830   23.2270   31.9060 C   0  0  0  0  0  0  0  0  0  0  0  0
   35.7740   24.1910   31.3260 C   0  0  0  0  0  0  0  0  0  0  0  0
   36.3200   25.4620   31.1900 C   0  0  0  0  0  0  0  0  0  0  0  0
   35.7070   26.5620   30.6500 N   0  0  0  0  0  0  0  0  0  0  0  0
   36.6060   27.5560   30.7290 C   0  0  0  0  0  0  0  0  0  0  0  0
   37.7200   27.1260   31.2810 N   0  0  0  0  0  0  0  0  0  0  0  0
   37.5810   25.8130   31.5840 C   0  0  0  0  0  0  0  0  0  0  0  0
   38.3770   24.8240   32.1670 C   0  0  0  0  0  0  0  0  0  0  0  0
   38.5280   22.7980   32.7820 H   0  0  0  0  0  0  0  0  0  0  0  0
   34.7780   23.9440   31.0050 H   0  0  0  0  0  0  0  0  0  0  0  0
   34.7290   26.6220   30.2520 H   0  0  0  0  0  0  0  0  0  0  0  0
   39.3700   25.1210   32.4720 H   0  0  0  0  0  0  0  0  0  0  0  0
   35.4930   19.6730   31.4250 C   0  0  0  0  0  0  0  0  0  0  0  0
   35.9150   20.9490   31.0960 C   0  0  0  0  0  0  0  0  0  0  0  0
   36.1450   21.8620   32.1190 C   0  0  0  0  0  0  0  0  0  0  0  0
   35.9350   21.4330   33.3930 N   0  0  0  0  0  0  0  0  0  0  0  0
   35.5250   20.1940   33.7040 C   0  0  0  0  0  0  0  0  0  0  0  0
   35.3090   19.3290   32.7230 N   0  0  0  0  0  0  0  0  0  0  0  0
   35.3240   18.9840   30.5960 H   0  0  0  0  0  0  0  0  0  0  0  0
   36.0800   21.2800   30.0700 H   0  0  0  0  0  0  0  0  0  0  0  0
   35.3950   19.9770   34.7590 H   0  0  0  0  0  0  0  0  0  0  0  0
   36.3080   28.8480   30.2580 O   0  0  0  0  0  0  0  0  0  0  0  0
   36.0610   29.1570   32.5020 N   0  0  0  0  0  0  0  0  0  0  0  0
   35.7080   29.7220   31.2160 C   0  0  1  0  0  0  0  0  0  0  0  0
   36.2390   31.0780   31.1180 C   0  0  0  0  0  0  0  0  0  0  0  0
   35.6010   31.8800   32.0770 O   0  0  0  0  0  0  0  0  0  0  0  0
   35.6750   31.4270   33.3580 C   0  0  0  0  0  0  0  0  0  0  0  0
   35.3850   29.9670   33.5140 C   0  0  1  0  0  0  0  0  0  0  0  0
   35.6310   28.2090   32.5520 H   0  0  0  0  0  0  0  0  0  0  0  0
   34.6250   29.7460   31.0080 H   0  0  0  0  0  0  0  0  0  0  0  0
   37.2570   31.3440   31.1920 H   0  0  0  0  0  0  0  0  0  0  0  0
   35.8670   31.5080   30.1380 H   0  0  0  0  0  0  0  0  0  0  0  0
   34.9560   31.9860   33.9660 H   0  0  0  0  0  0  0  0  0  0  0  0
   36.6810   31.6640   33.7880 H   0  0  0  0  0  0  0  0  0  0  0  0
   35.9190   29.6710   34.4690 H   0  0  0  0  0  0  0  0  0  0  0  0
   33.9810   29.6160   33.7210 C   0  0  0  0  0  0  0  0  0  0  0  0
   33.3720   29.7950   34.9720 C   0  0  0  0  0  0  0  0  0  0  0  0
   34.0270   30.2110   35.7540 H   0  0  0  0  0  0  0  0  0  0  0  0
   32.0660   29.5100   35.3090 C   0  0  0  0  0  0  0  0  0  0  0  0
   31.7500   29.7080   36.3250 H   0  0  0  0  0  0  0  0  0  0  0  0
   31.2740   28.9940   34.3170 C   0  0  0  0  0  3  0  0  0  0  0  0
   31.8700   28.8160   33.0850 C   0  0  0  0  0  3  0  0  0  0  0  0
   33.1490   29.1070   32.7960 N   0  0  0  0  0  0  0  0  0  0  0  0
  1 10  1  0  0  0  0
  2 16  1  0  0  0  0
  2  1  2  0  0  0  0
  3  2  1  0  0  0  0
  4  3  2  0  0  0  0
  4  8  1  0  0  0  0
  5  6  1  0  0  0  0
  5  4  1  0  0  0  0
  6  7  2  0  0  0  0
  7  8  1  0  0  0  0
  8  9  2  0  0  0  0
  9  1  1  0  0  0  0
  9 13  1  0  0  0  0
 11  3  1  0  0  0  0
 12  5  1  0  0  0  0
 14 19  1  0  0  0  0
 15 14  2  0  0  0  0
 15 16  1  0  0  0  0
 16 17  2  0  0  0  0
 17 18  1  0  0  0  0
 18 22  1  0  0  0  0
 19 18  2  0  0  0  0
 20 14  1  0  0  0  0
 21 15  1  0  0  0  0
 23  6  1  0  0  0  0
 23 25  1  0  0  0  0
 24 30  1  0  0  0  0
 24 29  1  0  0  0  0
 25 31  1  6  0  0  0
 25 24  1  0  0  0  0
 26 32  1  0  0  0  0
 26 25  1  0  0  0  0
 26 27  1  0  0  0  0
 27 28  1  0  0  0  0
 28 29  1  0  0  0  0
 28 35  1  0  0  0  0
 28 34  1  0  0  0  0
 29 37  1  0  0  0  0
 29 36  1  1  0  0  0
 33 26  1  0  0  0  0
 37 38  1  0  0  0  0
 38 40  2  0  0  0  0
 38 39  1  0  0  0  0
 40 41  1  0  0  0  0
 42 40  1  0  0  0  0
 43 42  2  0  0  0  0
 44 43  1  0  0  0  0
 44 37  2  0  0  0  0
M  END
>  <minimizedAffinity>
-6.08453465

$$$$

 OpenBabel03272510283D

 44 48  0  0  1  0  0  0  0  0999 V2000
   38.0040   24.5530   33.8570 C   0  0  0  0  0  0  0  0  0  0  0  0
   38.0000   25.1380   35.1220 C   0  0  0  0  0  0  0  0  0  0  0  0
   37.4870   26.4110   35.3110 C   0  0  0  0  0  0  0  0  0  0  0  0
   36.9880   27.0550   34.1850 C   0  0  0  0  0  0  0  0  0  0  0  0
   36.4380   28.3090   34.1350 N   0  0  0  0  0  0  0  0  0  0  0  0
   36.1010   28.5090   32.8510 C   0  0  0  0  0  0  0  0  0  0  0  0
   36.4130   27.4580   32.1240 N   0  0  0  0  0  0  0  0  0  0  0  0
   36.9720   26.5210   32.9270 C   0  0  0  0  0  0  0  0  0  0  0  0
   37.4950   25.2350   32.7610 C   0  0  0  0  0  0  0  0  0  0  0  0
   38.4030   23.5540   33.6850 H   0  0  0  0  0  0  0  0  0  0  0  0
   37.4860   26.8580   36.2890 H   0  0  0  0  0  0  0  0  0  0  0  0
   36.3040   28.9830   34.9390 H   0  0  0  0  0  0  0  0  0  0  0  0
   37.4730   24.8310   31.7590 H   0  0  0  0  0  0  0  0  0  0  0  0
   38.6510   23.5060   38.4330 C   0  0  0  0  0  0  0  0  0  0  0  0
   38.0210   24.2900   37.4820 C   0  0  0  0  0  0  0  0  0  0  0  0
   38.5600   24.3510   36.2020 C   0  0  0  0  0  0  0  0  0  0  0  0
   39.6870   23.6250   35.9670 N   0  0  0  0  0  0  0  0  0  0  0  0
   40.2920   22.8680   36.8950 C   0  0  0  0  0  0  0  0  0  0  0  0
   39.7710   22.8140   38.1130 N   0  0  0  0  0  0  0  0  0  0  0  0
   38.1980   23.4820   39.4250 H   0  0  0  0  0  0  0  0  0  0  0  0
   37.1180   24.8670   37.6840 H   0  0  0  0  0  0  0  0  0  0  0  0
   41.1850   22.3370   36.5810 H   0  0  0  0  0  0  0  0  0  0  0  0
   35.5010   29.7110   32.4340 O   0  0  0  0  0  0  0  0  0  0  0  0
   34.1170   31.4870   32.7870 N   0  0  0  0  0  0  0  0  0  0  0  0
   34.3570   30.1160   33.1880 C   0  0  1  0  0  0  0  0  0  0  0  0
   33.1860   29.3040   32.8720 C   0  0  0  0  0  0  0  0  0  0  0  0
   32.1080   29.7490   33.6530 O   0  0  0  0  0  0  0  0  0  0  0  0
   31.8170   31.0740   33.5450 C   0  0  0  0  0  0  0  0  0  0  0  0
   33.0110   31.9740   33.6080 C   0  0  1  0  0  0  0  0  0  0  0  0
   34.9540   32.0410   33.0650 H   0  0  0  0  0  0  0  0  0  0  0  0
   34.6040   29.9880   34.2560 H   0  0  0  0  0  0  0  0  0  0  0  0
   32.7730   29.1720   31.9110 H   0  0  0  0  0  0  0  0  0  0  0  0
   33.3840   28.2650   33.2800 H   0  0  0  0  0  0  0  0  0  0  0  0
   31.1370   31.3480   34.3580 H   0  0  0  0  0  0  0  0  0  0  0  0
   31.2470   31.2620   32.6000 H   0  0  0  0  0  0  0  0  0  0  0  0
   32.6880   32.9130   33.0600 H   0  0  0  0  0  0  0  0  0  0  0  0
   33.4060   32.4130   34.9450 C   0  0  0  0  0  0  0  0  0  0  0  0
   34.4150   33.3730   35.1180 C   0  0  0  0  0  0  0  0  0  0  0  0
   34.8640   33.7510   34.1860 H   0  0  0  0  0  0  0  0  0  0  0  0
   34.8870   33.8770   36.3110 C   0  0  0  0  0  0  0  0  0  0  0  0
   35.6740   34.6180   36.2730 H   0  0  0  0  0  0  0  0  0  0  0  0
   34.3100   33.3900   37.4550 C   0  0  0  0  0  3  0  0  0  0  0  0
   33.3170   32.4450   37.2890 C   0  0  0  0  0  3  0  0  0  0  0  0
   32.8850   31.9790   36.1060 N   0  0  0  0  0  0  0  0  0  0  0  0
  1  2  1  0  0  0  0
  2  3  2  0  0  0  0
  2 16  1  0  0  0  0
  3 11  1  0  0  0  0
  4  3  1  0  0  0  0
  5  4  1  0  0  0  0
  5 12  1  0  0  0  0
  6  5  1  0  0  0  0
  7  6  2  0  0  0  0
  7  8  1  0  0  0  0
  8  4  2  0  0  0  0
  9  8  1  0  0  0  0
  9  1  2  0  0  0  0
 10  1  1  0  0  0  0
 13  9  1  0  0  0  0
 14 20  1  0  0  0  0
 15 21  1  0  0  0  0
 15 14  2  0  0  0  0
 16 15  1  0  0  0  0
 17 16  2  0  0  0  0
 17 18  1  0  0  0  0
 18 19  2  0  0  0  0
 19 14  1  0  0  0  0
 22 18  1  0  0  0  0
 23  6  1  0  0  0  0
 23 25  1  0  0  0  0
 24 30  1  0  0  0  0
 24 25  1  0  0  0  0
 24 29  1  0  0  0  0
 25 31  1  1  0  0  0
 26 25  1  0  0  0  0
 26 33  1  0  0  0  0
 26 27  1  0  0  0  0
 28 29  1  0  0  0  0
 28 27  1  0  0  0  0
 28 34  1  0  0  0  0
 29 36  1  6  0  0  0
 29 37  1  0  0  0  0
 32 26  1  0  0  0  0
 35 28  1  0  0  0  0
 37 38  2  0  0  0  0
 37 44  1  0  0  0  0
 38 40  1  0  0  0  0
 39 38  1  0  0  0  0
 40 42  2  0  0  0  0
 41 40  1  0  0  0  0
 43 42  1  0  0  0  0
 44 43  2  0  0  0  0
M  END
>  <minimizedAffinity>
-6.01738977

$$$$

 OpenBabel03272510283D

 44 48  0  0  1  0  0  0  0  0999 V2000
   37.3640   28.2540   31.5140 C   0  0  0  0  0  0  0  0  0  0  0  0
   37.0180   28.1080   32.8560 C   0  0  0  0  0  0  0  0  0  0  0  0
   37.7990   27.3440   33.7090 C   0  0  0  0  0  0  0  0  0  0  0  0
   38.9240   26.7450   33.1540 C   0  0  0  0  0  0  0  0  0  0  0  0
   39.8320   25.9510   33.8030 N   0  0  0  0  0  0  0  0  0  0  0  0
   40.7390   25.6020   32.8780 C   0  0  0  0  0  0  0  0  0  0  0  0
   40.4360   26.1330   31.7130 N   0  0  0  0  0  0  0  0  0  0  0  0
   39.3010   26.8610   31.8460 C   0  0  0  0  0  0  0  0  0  0  0  0
   38.4970   27.6360   31.0050 C   0  0  0  0  0  0  0  0  0  0  0  0
   36.7650   28.8490   30.8260 H   0  0  0  0  0  0  0  0  0  0  0  0
   37.5270   27.2350   34.7440 H   0  0  0  0  0  0  0  0  0  0  0  0
   39.8250   25.6690   34.8230 H   0  0  0  0  0  0  0  0  0  0  0  0
   38.8130   27.7160   29.9750 H   0  0  0  0  0  0  0  0  0  0  0  0
   34.4970   30.0910   34.7950 C   0  0  0  0  0  0  0  0  0  0  0  0
   35.7050   29.4920   34.4850 C   0  0  0  0  0  0  0  0  0  0  0  0
   35.8130   28.7830   33.2930 C   0  0  0  0  0  0  0  0  0  0  0  0
   34.7070   28.7270   32.5010 N   0  0  0  0  0  0  0  0  0  0  0  0
   33.5390   29.3110   32.8100 C   0  0  0  0  0  0  0  0  0  0  0  0
   33.4450   29.9850   33.9480 N   0  0  0  0  0  0  0  0  0  0  0  0
   34.4510   30.6390   35.7380 H   0  0  0  0  0  0  0  0  0  0  0  0
   36.5840   29.5450   35.1280 H   0  0  0  0  0  0  0  0  0  0  0  0
   32.7330   29.1920   32.0940 H   0  0  0  0  0  0  0  0  0  0  0  0
   41.8310   24.7770   33.2020 O   0  0  0  0  0  0  0  0  0  0  0  0
   40.7760   23.0350   34.2250 N   0  0  0  0  0  0  0  0  0  0  0  0
   41.7330   24.0990   34.4550 C   0  0  1  0  0  0  0  0  0  0  0  0
   43.0110   23.5240   34.8620 C   0  0  0  0  0  0  0  0  0  0  0  0
   42.8410   22.8850   36.1010 O   0  0  0  0  0  0  0  0  0  0  0  0
   41.8580   21.9460   36.1420 C   0  0  0  0  0  0  0  0  0  0  0  0
   40.5700   22.3730   35.5110 C   0  0  1  0  0  0  0  0  0  0  0  0
   39.8690   23.4840   33.9780 H   0  0  0  0  0  0  0  0  0  0  0  0
   41.4190   24.8420   35.2080 H   0  0  0  0  0  0  0  0  0  0  0  0
   43.5860   22.8450   34.2960 H   0  0  0  0  0  0  0  0  0  0  0  0
   43.6970   24.3900   35.1140 H   0  0  0  0  0  0  0  0  0  0  0  0
   41.6610   21.6960   37.1900 H   0  0  0  0  0  0  0  0  0  0  0  0
   42.2180   20.9970   35.6710 H   0  0  0  0  0  0  0  0  0  0  0  0
   40.0630   21.4030   35.2150 H   0  0  0  0  0  0  0  0  0  0  0  0
   39.6260   23.0590   36.3920 C   0  0  0  0  0  0  0  0  0  0  0  0
   39.6650   22.8610   37.7800 C   0  0  0  0  0  0  0  0  0  0  0  0
   40.4450   22.1670   38.1320 H   0  0  0  0  0  0  0  0  0  0  0  0
   38.8430   23.4370   38.7260 C   0  0  0  0  0  0  0  0  0  0  0  0
   39.0040   23.1790   39.7630 H   0  0  0  0  0  0  0  0  0  0  0  0
   37.8820   24.2970   38.2610 C   0  0  0  0  0  3  0  0  0  0  0  0
   37.8410   24.4940   36.8960 C   0  0  0  0  0  3  0  0  0  0  0  0
   38.6620   23.9120   36.0070 N   0  0  0  0  0  0  0  0  0  0  0  0
  1  2  1  0  0  0  0
  2 16  1  0  0  0  0
  2  3  2  0  0  0  0
  3 11  1  0  0  0  0
  4  3  1  0  0  0  0
  4  5  1  0  0  0  0
  5 12  1  0  0  0  0
  6 23  1  0  0  0  0
  6  5  1  0  0  0  0
  7  8  1  0  0  0  0
  7  6  2  0  0  0  0
  8  4  2  0  0  0  0
  9  1  2  0  0  0  0
  9  8  1  0  0  0  0
 10  1  1  0  0  0  0
 13  9  1  0  0  0  0
 14 20  1  0  0  0  0
 15 14  1  0  0  0  0
 15 21  1  0  0  0  0
 16 15  2  0  0  0  0
 17 18  2  0  0  0  0
 17 16  1  0  0  0  0
 18 19  1  0  0  0  0
 19 14  2  0  0  0  0
 22 18  1  0  0  0  0
 23 25  1  0  0  0  0
 24 25  1  0  0  0  0
 24 29  1  0  0  0  0
 25 26  1  0  0  0  0
 25 31  1  1  0  0  0
 26 33  1  0  0  0  0
 26 27  1  0  0  0  0
 27 28  1  0  0  0  0
 28 34  1  0  0  0  0
 29 36  1  6  0  0  0
 29 28  1  0  0  0  0
 29 37  1  0  0  0  0
 30 24  1  0  0  0  0
 32 26  1  0  0  0  0
 35 28  1  0  0  0  0
 37 38  1  0  0  0  0
 38 39  1  0  0  0  0
 38 40  2  0  0  0  0
 40 41  1  0  0  0  0
 42 40  1  0  0  0  0
 43 42  2  0  0  0  0
 44 37  2  0  0  0  0
 44 43  1  0  0  0  0
M  END
>  <minimizedAffinity>
-5.94919348

$$$$

 OpenBabel03272510283D

 44 48  0  0  1  0  0  0  0  0999 V2000
   37.7880   24.8710   33.9130 C   0  0  0  0  0  0  0  0  0  0  0  0
   37.9520   25.3650   35.2060 C   0  0  0  0  0  0  0  0  0  0  0  0
   37.5450   26.6490   35.5300 C   0  0  0  0  0  0  0  0  0  0  0  0
   36.9750   27.3980   34.5080 C   0  0  0  0  0  0  0  0  0  0  0  0
   36.5040   28.6820   34.5980 N   0  0  0  0  0  0  0  0  0  0  0  0
   36.0500   28.9910   33.3740 C   0  0  0  0  0  0  0  0  0  0  0  0
   36.2150   27.9780   32.5520 N   0  0  0  0  0  0  0  0  0  0  0  0
   36.7930   26.9560   33.2280 C   0  0  0  0  0  0  0  0  0  0  0  0
   37.2120   25.6570   32.9250 C   0  0  0  0  0  0  0  0  0  0  0  0
   38.1000   23.8650   33.6360 H   0  0  0  0  0  0  0  0  0  0  0  0
   37.6750   27.0250   36.5290 H   0  0  0  0  0  0  0  0  0  0  0  0
   36.4990   29.3050   35.4530 H   0  0  0  0  0  0  0  0  0  0  0  0
   37.0600   25.3260   31.9070 H   0  0  0  0  0  0  0  0  0  0  0  0
   38.7650   23.3800   38.2800 C   0  0  0  0  0  0  0  0  0  0  0  0
   38.0830   24.2530   37.4500 C   0  0  0  0  0  0  0  0  0  0  0  0
   38.5700   24.4740   36.1670 C   0  0  0  0  0  0  0  0  0  0  0  0
   39.7010   23.8070   35.8080 N   0  0  0  0  0  0  0  0  0  0  0  0
   40.3570   22.9630   36.6190 C   0  0  0  0  0  0  0  0  0  0  0  0
   39.8850   22.7570   37.8410 N   0  0  0  0  0  0  0  0  0  0  0  0
   38.3520   23.2310   39.2790 H   0  0  0  0  0  0  0  0  0  0  0  0
   37.1770   24.7810   37.7490 H   0  0  0  0  0  0  0  0  0  0  0  0
   41.2470   22.4940   36.2140 H   0  0  0  0  0  0  0  0  0  0  0  0
   35.4880   30.2520   33.1020 O   0  0  0  0  0  0  0  0  0  0  0  0
   33.7120   29.3890   34.2380 N   0  0  0  0  0  0  0  0  0  0  0  0
   34.3990   30.6300   33.9460 C   0  0  1  0  0  0  0  0  0  0  0  0
   34.8630   31.2340   35.1900 C   0  0  0  0  0  0  0  0  0  0  0  0
   33.7440   31.5870   35.9620 O   0  0  0  0  0  0  0  0  0  0  0  0
   32.8690   30.5770   36.2150 C   0  0  0  0  0  0  0  0  0  0  0  0
   32.5300   29.7410   35.0210 C   0  0  1  0  0  0  0  0  0  0  0  0
   33.3600   29.0100   33.3330 H   0  0  0  0  0  0  0  0  0  0  0  0
   33.7950   31.3690   33.3930 H   0  0  0  0  0  0  0  0  0  0  0  0
   35.5230   30.7860   35.8800 H   0  0  0  0  0  0  0  0  0  0  0  0
   35.3150   32.2380   34.9220 H   0  0  0  0  0  0  0  0  0  0  0  0
   31.9420   31.0110   36.6050 H   0  0  0  0  0  0  0  0  0  0  0  0
   33.2650   29.9280   37.0360 H   0  0  0  0  0  0  0  0  0  0  0  0
   32.2110   28.7430   35.4550 H   0  0  0  0  0  0  0  0  0  0  0  0
   31.3970   30.2030   34.2220 C   0  0  0  0  0  0  0  0  0  0  0  0
   30.1020   30.2350   34.7590 C   0  0  0  0  0  0  0  0  0  0  0  0
   30.0210   29.8920   35.8030 H   0  0  0  0  0  0  0  0  0  0  0  0
   28.9480   30.6460   34.1250 C   0  0  0  0  0  0  0  0  0  0  0  0
   28.0230   30.6090   34.6840 H   0  0  0  0  0  0  0  0  0  0  0  0
   29.0780   31.0680   32.8280 C   0  0  0  0  0  3  0  0  0  0  0  0
   30.3500   31.0370   32.2950 C   0  0  0  0  0  3  0  0  0  0  0  0
   31.4510   30.6300   32.9480 N   0  0  0  0  0  0  0  0  0  0  0  0
  1  2  1  0  0  0  0
  2  3  2  0  0  0  0
  2 16  1  0  0  0  0
  3 11  1  0  0  0  0
  4  5  1  0  0  0  0
  4  3  1  0  0  0  0
  5 12  1  0  0  0  0
  6  5  1  0  0  0  0
  7  8  1  0  0  0  0
  7  6  2  0  0  0  0
  8  4  2  0  0  0  0
  9  8  1  0  0  0  0
  9  1  2  0  0  0  0
 10  1  1  0  0  0  0
 13  9  1  0  0  0  0
 14 20  1  0  0  0  0
 15 21  1  0  0  0  0
 15 14  2  0  0  0  0
 16 15  1  0  0  0  0
 17 16  2  0  0  0  0
 17 18  1  0  0  0  0
 18 19  2  0  0  0  0
 19 14  1  0  0  0  0
 22 18  1  0  0  0  0
 23  6  1  0  0  0  0
 23 25  1  0  0  0  0
 24 29  1  0  0  0  0
 25 31  1  6  0  0  0
 25 24  1  0  0  0  0
 25 26  1  0  0  0  0
 26 32  1  0  0  0  0
 26 27  1  0  0  0  0
 27 28  1  0  0  0  0
 28 34  1  0  0  0  0
 28 35  1  0  0  0  0
 29 36  1  1  0  0  0
 29 28  1  0  0  0  0
 30 24  1  0  0  0  0
 33 26  1  0  0  0  0
 37 38  1  0  0  0  0
 37 29  1  0  0  0  0
 38 39  1  0  0  0  0
 40 41  1  0  0  0  0
 40 38  2  0  0  0  0
 42 40  1  0  0  0  0
 43 42  2  0  0  0  0
 43 44  1  0  0  0  0
 44 37  2  0  0  0  0
M  END
>  <minimizedAffinity>
-5.94656754

$$$$

 OpenBabel03272510283D

 44 48  0  0  1  0  0  0  0  0999 V2000
   35.5450   30.7530   32.6550 C   0  0  0  0  0  0  0  0  0  0  0  0
   35.5420   30.0240   33.8410 C   0  0  0  0  0  0  0  0  0  0  0  0
   36.0810   28.7480   33.8890 C   0  0  0  0  0  0  0  0  0  0  0  0
   36.6110   28.2510   32.7040 C   0  0  0  0  0  0  0  0  0  0  0  0
   37.1900   27.0240   32.5180 N   0  0  0  0  0  0  0  0  0  0  0  0
   37.5510   26.9830   31.2260 C   0  0  0  0  0  0  0  0  0  0  0  0
   37.2280   28.1060   30.6210 N   0  0  0  0  0  0  0  0  0  0  0  0
   36.6350   28.9310   31.5180 C   0  0  0  0  0  0  0  0  0  0  0  0
   36.0860   30.2160   31.4960 C   0  0  0  0  0  0  0  0  0  0  0  0
   35.1270   31.7580   32.5940 H   0  0  0  0  0  0  0  0  0  0  0  0
   36.0760   28.1890   34.8080 H   0  0  0  0  0  0  0  0  0  0  0  0
   37.3260   26.2620   33.2390 H   0  0  0  0  0  0  0  0  0  0  0  0
   36.1150   30.7360   30.5490 H   0  0  0  0  0  0  0  0  0  0  0  0
   34.9510   32.0860   36.9150 C   0  0  0  0  0  0  0  0  0  0  0  0
   35.6270   31.5380   35.8390 C   0  0  0  0  0  0  0  0  0  0  0  0
   34.9470   30.6660   34.9970 C   0  0  0  0  0  0  0  0  0  0  0  0
   33.6440   30.4060   35.2910 N   0  0  0  0  0  0  0  0  0  0  0  0
   32.9960   30.9410   36.3370 C   0  0  0  0  0  0  0  0  0  0  0  0
   33.6510   31.7720   37.1360 N   0  0  0  0  0  0  0  0  0  0  0  0
   35.5170   32.7660   37.5540 H   0  0  0  0  0  0  0  0  0  0  0  0
   36.6720   31.7550   35.6140 H   0  0  0  0  0  0  0  0  0  0  0  0
   31.9580   30.6530   36.4630 H   0  0  0  0  0  0  0  0  0  0  0  0
   38.1850   25.8510   30.6810 O   0  0  0  0  0  0  0  0  0  0  0  0
   37.6440   24.0700   31.9960 N   0  0  0  0  0  0  0  0  0  0  0  0
   38.7410   24.9450   31.6360 C   0  0  1  0  0  0  0  0  0  0  0  0
   39.8260   24.1550   31.0630 C   0  0  0  0  0  0  0  0  0  0  0  0
   40.3290   23.2980   32.0560 O   0  0  0  0  0  0  0  0  0  0  0  0
   39.4080   22.4910   32.6500 C   0  0  0  0  0  0  0  0  0  0  0  0
   38.1440   23.1860   33.0470 C   0  0  1  0  0  0  0  0  0  0  0  0
   36.9090   24.6630   32.4380 H   0  0  0  0  0  0  0  0  0  0  0  0
   39.1390   25.5480   32.4690 H   0  0  0  0  0  0  0  0  0  0  0  0
   39.7540   23.5450   30.2060 H   0  0  0  0  0  0  0  0  0  0  0  0
   40.6900   24.8650   30.8780 H   0  0  0  0  0  0  0  0  0  0  0  0
   39.8570   22.0550   33.5480 H   0  0  0  0  0  0  0  0  0  0  0  0
   39.1740   21.6250   31.9810 H   0  0  0  0  0  0  0  0  0  0  0  0
   37.3640   22.3630   33.0730 H   0  0  0  0  0  0  0  0  0  0  0  0
   38.1370   23.7800   34.3820 C   0  0  0  0  0  0  0  0  0  0  0  0
   38.4480   23.0100   35.5130 C   0  0  0  0  0  0  0  0  0  0  0  0
   38.6900   21.9550   35.3080 H   0  0  0  0  0  0  0  0  0  0  0  0
   38.4810   23.4350   36.8250 C   0  0  0  0  0  0  0  0  0  0  0  0
   38.7420   22.7120   37.5860 H   0  0  0  0  0  0  0  0  0  0  0  0
   38.1760   24.7520   37.0510 C   0  0  0  0  0  3  0  0  0  0  0  0
   37.8680   25.5120   35.9420 C   0  0  0  0  0  3  0  0  0  0  0  0
   37.8480   25.0590   34.6770 N   0  0  0  0  0  0  0  0  0  0  0  0
  1  2  1  0  0  0  0
  2  3  2  0  0  0  0
  2 16  1  0  0  0  0
  3 11  1  0  0  0  0
  4  3  1  0  0  0  0
  5  4  1  0  0  0  0
  5 12  1  0  0  0  0
  6  5  1  0  0  0  0
  7  6  2  0  0  0  0
  7  8  1  0  0  0  0
  8  4  2  0  0  0  0
  9  8  1  0  0  0  0
  9  1  2  0  0  0  0
 10  1  1  0  0  0  0
 13  9  1  0  0  0  0
 14 19  1  0  0  0  0
 14 20  1  0  0  0  0
 15 14  2  0  0  0  0
 16 17  2  0  0  0  0
 16 15  1  0  0  0  0
 17 18  1  0  0  0  0
 18 22  1  0  0  0  0
 18 19  2  0  0  0  0
 21 15  1  0  0  0  0
 23  6  1  0  0  0  0
 23 25  1  0  0  0  0
 24 30  1  0  0  0  0
 24 29  1  0  0  0  0
 25 24  1  0  0  0  0
 25 31  1  1  0  0  0
 26 25  1  0  0  0  0
 26 27  1  0  0  0  0
 27 28  1  0  0  0  0
 28 29  1  0  0  0  0
 28 34  1  0  0  0  0
 29 36  1  1  0  0  0
 29 37  1  0  0  0  0
 32 26  1  0  0  0  0
 33 26  1  0  0  0  0
 35 28  1  0  0  0  0
 37 44  2  0  0  0  0
 37 38  1  0  0  0  0
 38 40  2  0  0  0  0
 39 38  1  0  0  0  0
 40 42  1  0  0  0  0
 40 41  1  0  0  0  0
 43 42  2  0  0  0  0
 44 43  1  0  0  0  0
M  END
>  <minimizedAffinity>
-5.93044806

$$$$

 OpenBabel03272510283D

 44 48  0  0  1  0  0  0  0  0999 V2000
   37.4840   22.8890   32.9630 C   0  0  0  0  0  0  0  0  0  0  0  0
   36.4540   22.5280   32.0980 C   0  0  0  0  0  0  0  0  0  0  0  0
   35.6980   23.4950   31.4550 C   0  0  0  0  0  0  0  0  0  0  0  0
   36.0230   24.8200   31.7230 C   0  0  0  0  0  0  0  0  0  0  0  0
   35.4150   25.9330   31.2060 N   0  0  0  0  0  0  0  0  0  0  0  0
   36.0560   26.9830   31.7430 C   0  0  0  0  0  0  0  0  0  0  0  0
   37.0110   26.5750   32.5510 N   0  0  0  0  0  0  0  0  0  0  0  0
   37.0240   25.2200   32.5640 C   0  0  0  0  0  0  0  0  0  0  0  0
   37.7730   24.2260   33.2000 C   0  0  0  0  0  0  0  0  0  0  0  0
   38.0920   22.1460   33.4790 H   0  0  0  0  0  0  0  0  0  0  0  0
   34.9040   23.2110   30.7880 H   0  0  0  0  0  0  0  0  0  0  0  0
   34.6060   25.9640   30.5250 H   0  0  0  0  0  0  0  0  0  0  0  0
   38.5590   24.5630   33.8610 H   0  0  0  0  0  0  0  0  0  0  0  0
   36.2340   19.0570   30.6990 C   0  0  0  0  0  0  0  0  0  0  0  0
   36.5040   20.4140   30.7490 C   0  0  0  0  0  0  0  0  0  0  0  0
   36.2230   21.1080   31.9200 C   0  0  0  0  0  0  0  0  0  0  0  0
   35.6950   20.3970   32.9530 N   0  0  0  0  0  0  0  0  0  0  0  0
   35.4360   19.0820   32.8970 C   0  0  0  0  0  0  0  0  0  0  0  0
   35.7070   18.4270   31.7770 N   0  0  0  0  0  0  0  0  0  0  0  0
   36.4680   18.5460   29.7640 H   0  0  0  0  0  0  0  0  0  0  0  0
   36.9270   20.9720   29.9140 H   0  0  0  0  0  0  0  0  0  0  0  0
   35.0150   18.6320   33.7890 H   0  0  0  0  0  0  0  0  0  0  0  0
   35.6860   28.3030   31.4270 O   0  0  0  0  0  0  0  0  0  0  0  0
   36.8560   28.2440   29.4720 N   0  0  0  0  0  0  0  0  0  0  0  0
   36.6460   29.0380   30.6650 C   0  0  1  0  0  0  0  0  0  0  0  0
   36.1430   30.3560   30.2900 C   0  0  0  0  0  0  0  0  0  0  0  0
   37.1370   31.0230   29.5560 O   0  0  0  0  0  0  0  0  0  0  0  0
   37.6000   30.3560   28.4640 C   0  0  0  0  0  0  0  0  0  0  0  0
   37.9060   28.9120   28.7060 C   0  0  1  0  0  0  0  0  0  0  0  0
   37.2520   27.3290   29.7760 H   0  0  0  0  0  0  0  0  0  0  0  0
   37.5420   29.1630   31.2970 H   0  0  0  0  0  0  0  0  0  0  0  0
   35.2540   30.5440   29.7540 H   0  0  0  0  0  0  0  0  0  0  0  0
   36.0760   30.9670   31.2430 H   0  0  0  0  0  0  0  0  0  0  0  0
   38.5160   30.8480   28.1200 H   0  0  0  0  0  0  0  0  0  0  0  0
   36.8710   30.4560   27.6210 H   0  0  0  0  0  0  0  0  0  0  0  0
   37.8170   28.4270   27.6850 H   0  0  0  0  0  0  0  0  0  0  0  0
   39.2620   28.6170   29.1670 C   0  0  0  0  0  0  0  0  0  0  0  0
   40.2760   29.5830   29.0830 C   0  0  0  0  0  0  0  0  0  0  0  0
   39.9660   30.5500   28.6550 H   0  0  0  0  0  0  0  0  0  0  0  0
   41.5900   29.4450   29.4770 C   0  0  0  0  0  0  0  0  0  0  0  0
   42.2500   30.2910   29.3450 H   0  0  0  0  0  0  0  0  0  0  0  0
   41.9480   28.2330   30.0070 C   0  0  0  0  0  3  0  0  0  0  0  0
   40.9540   27.2800   30.0900 C   0  0  0  0  0  3  0  0  0  0  0  0
   39.6820   27.4550   29.6950 N   0  0  0  0  0  0  0  0  0  0  0  0
  1  9  1  0  0  0  0
  1 10  1  0  0  0  0
  2  1  2  0  0  0  0
  3  4  2  0  0  0  0
  3  2  1  0  0  0  0
  4  8  1  0  0  0  0
  5  4  1  0  0  0  0
  5  6  1  0  0  0  0
  6  7  2  0  0  0  0
  7  8  1  0  0  0  0
  8  9  2  0  0  0  0
  9 13  1  0  0  0  0
 11  3  1  0  0  0  0
 12  5  1  0  0  0  0
 14 15  2  0  0  0  0
 14 19  1  0  0  0  0
 15 16  1  0  0  0  0
 16  2  1  0  0  0  0
 16 17  2  0  0  0  0
 18 17  1  0  0  0  0
 18 22  1  0  0  0  0
 19 18  2  0  0  0  0
 20 14  1  0  0  0  0
 21 15  1  0  0  0  0
 23  6  1  0  0  0  0
 24 30  1  0  0  0  0
 24 25  1  0  0  0  0
 25 31  1  1  0  0  0
 25 23  1  0  0  0  0
 26 25  1  0  0  0  0
 26 33  1  0  0  0  0
 27 26  1  0  0  0  0
 28 29  1  0  0  0  0
 28 27  1  0  0  0  0
 29 36  1  6  0  0  0
 29 37  1  0  0  0  0
 29 24  1  0  0  0  0
 32 26  1  0  0  0  0
 34 28  1  0  0  0  0
 35 28  1  0  0  0  0
 37 44  1  0  0  0  0
 38 37  2  0  0  0  0
 38 40  1  0  0  0  0
 39 38  1  0  0  0  0
 40 42  2  0  0  0  0
 41 40  1  0  0  0  0
 42 43  1  0  0  0  0
 44 43  2  0  0  0  0
M  END
>  <minimizedAffinity>
-5.92707157

$$$$
