
 OpenBabel03272510263D

 44 48  0  0  1  0  0  0  0  0999 V2000
   36.1590   30.2180   46.8740 C   0  0  0  0  0  0  0  0  0  0  0  0
   37.0590   30.7630   47.7870 C   0  0  0  0  0  0  0  0  0  0  0  0
   38.0580   31.6260   47.3670 C   0  0  0  0  0  0  0  0  0  0  0  0
   38.1060   31.9080   46.0070 C   0  0  0  0  0  0  0  0  0  0  0  0
   39.0030   32.7270   45.3720 N   0  0  0  0  0  0  0  0  0  0  0  0
   38.6690   32.6950   44.0730 C   0  0  0  0  0  0  0  0  0  0  0  0
   37.6310   31.9100   43.8830 N   0  0  0  0  0  0  0  0  0  0  0  0
   37.2460   31.3970   45.0760 C   0  0  0  0  0  0  0  0  0  0  0  0
   36.2470   30.5280   45.5240 C   0  0  0  0  0  0  0  0  0  0  0  0
   35.3660   29.5370   47.1810 H   0  0  0  0  0  0  0  0  0  0  0  0
   38.7490   32.0440   48.0770 H   0  0  0  0  0  0  0  0  0  0  0  0
   39.7950   33.2730   45.8110 H   0  0  0  0  0  0  0  0  0  0  0  0
   35.5770   30.1350   44.7720 H   0  0  0  0  0  0  0  0  0  0  0  0
   37.5550   30.2020   51.4600 C   0  0  0  0  0  0  0  0  0  0  0  0
   37.8260   30.6290   50.1720 C   0  0  0  0  0  0  0  0  0  0  0  0
   36.8920   30.3730   49.1730 C   0  0  0  0  0  0  0  0  0  0  0  0
   35.7600   29.7110   49.5360 N   0  0  0  0  0  0  0  0  0  0  0  0
   35.5060   29.3000   50.7870 C   0  0  0  0  0  0  0  0  0  0  0  0
   36.4010   29.5480   51.7340 N   0  0  0  0  0  0  0  0  0  0  0  0
   38.3100   30.4210   52.2160 H   0  0  0  0  0  0  0  0  0  0  0  0
   38.7370   31.1590   49.8940 H   0  0  0  0  0  0  0  0  0  0  0  0
   34.5660   28.7810   50.9460 H   0  0  0  0  0  0  0  0  0  0  0  0
   39.3900   33.4340   43.1170 O   0  0  0  0  0  0  0  0  0  0  0  0
   39.1470   31.5950   41.7930 N   0  0  0  0  0  0  0  0  0  0  0  0
   39.1800   33.0430   41.7590 C   0  0  1  0  0  0  0  0  0  0  0  0
   37.9130   33.5470   41.2410 C   0  0  0  0  0  0  0  0  0  0  0  0
   37.7790   33.1340   39.9050 O   0  0  0  0  0  0  0  0  0  0  0  0
   37.8850   31.7940   39.6960 C   0  0  0  0  0  0  0  0  0  0  0  0
   39.0310   31.1470   40.4070 C   0  0  1  0  0  0  0  0  0  0  0  0
   40.0800   31.2720   42.1280 H   0  0  0  0  0  0  0  0  0  0  0  0
   40.0060   33.4680   41.1630 H   0  0  0  0  0  0  0  0  0  0  0  0
   36.9630   33.3690   41.6640 H   0  0  0  0  0  0  0  0  0  0  0  0
   38.0160   34.6720   41.1500 H   0  0  0  0  0  0  0  0  0  0  0  0
   38.0040   31.6190   38.6220 H   0  0  0  0  0  0  0  0  0  0  0  0
   36.9260   31.2880   39.9770 H   0  0  0  0  0  0  0  0  0  0  0  0
   38.7200   30.0630   40.5200 H   0  0  0  0  0  0  0  0  0  0  0  0
   40.2990   31.1210   39.6790 C   0  0  0  0  0  0  0  0  0  0  0  0
   40.4160   31.7230   38.4170 C   0  0  0  0  0  0  0  0  0  0  0  0
   39.4970   32.1990   38.0410 H   0  0  0  0  0  0  0  0  0  0  0  0
   41.5410   31.7730   37.6220 C   0  0  0  0  0  0  0  0  0  0  0  0
   41.4660   32.2780   36.6690 H   0  0  0  0  0  0  0  0  0  0  0  0
   42.6700   31.1710   38.1160 C   0  0  0  0  0  3  0  0  0  0  0  0
   42.5580   30.5790   39.3560 C   0  0  0  0  0  3  0  0  0  0  0  0
   41.4400   30.5510   40.1020 N   0  0  0  0  0  0  0  0  0  0  0  0
  1 10  1  0  0  0  0
  1  2  1  0  0  0  0
  2 16  1  0  0  0  0
  3  2  2  0  0  0  0
  3 11  1  0  0  0  0
  4  3  1  0  0  0  0
  5 12  1  0  0  0  0
  5  4  1  0  0  0  0
  6  5  1  0  0  0  0
  7  6  2  0  0  0  0
  7  8  1  0  0  0  0
  8  9  1  0  0  0  0
  8  4  2  0  0  0  0
  9  1  2  0  0  0  0
 13  9  1  0  0  0  0
 14 19  1  0  0  0  0
 14 20  1  0  0  0  0
 15 14  2  0  0  0  0
 16 17  2  0  0  0  0
 16 15  1  0  0  0  0
 17 18  1  0  0  0  0
 18 22  1  0  0  0  0
 18 19  2  0  0  0  0
 21 15  1  0  0  0  0
 23  6  1  0  0  0  0
 24 30  1  0  0  0  0
 25 31  1  6  0  0  0
 25 24  1  0  0  0  0
 25 23  1  0  0  0  0
 26 32  1  0  0  0  0
 26 25  1  0  0  0  0
 27 26  1  0  0  0  0
 28 27  1  0  0  0  0
 28 35  1  0  0  0  0
 28 29  1  0  0  0  0
 29 36  1  1  0  0  0
 29 24  1  0  0  0  0
 33 26  1  0  0  0  0
 34 28  1  0  0  0  0
 37 44  1  0  0  0  0
 37 29  1  0  0  0  0
 38 37  2  0  0  0  0
 39 38  1  0  0  0  0
 40 42  2  0  0  0  0
 40 38  1  0  0  0  0
 41 40  1  0  0  0  0
 42 43  1  0  0  0  0
 43 44  2  0  0  0  0
M  END
>  <minimizedAffinity>
-5.94868755

>  <minimizedRMSD>
0.821416676

$$$$
