
 OpenBabel03272509533D

 42 45  0  0  0  0  0  0  0  0999 V2000
   34.4480   29.1030   47.7210 C   0  0  0  0  0  0  0  0  0  0  0  0
   33.8230   29.9660   48.0260 H   0  0  0  0  0  0  0  0  0  0  0  0
   35.2740   29.5220   47.0860 H   0  0  0  0  0  0  0  0  0  0  0  0
   33.7390   28.0590   46.9310 C   0  0  0  0  0  0  0  0  0  0  0  0
   34.2700   27.1110   47.0160 H   0  0  0  0  0  0  0  0  0  0  0  0
   33.7270   28.2960   45.8350 H   0  0  0  0  0  0  0  0  0  0  0  0
   32.3180   27.8820   47.3530 C   0  0  0  0  0  0  0  0  0  0  0  0
   32.0240   26.8050   48.1670 C   0  0  0  0  0  0  0  0  0  0  0  0
   30.7510   26.5610   48.6050 C   0  0  0  0  0  0  0  0  0  0  0  0
   29.7670   27.3840   48.2370 N   0  0  0  0  0  0  0  0  0  0  0  0
   30.0610   28.4400   47.4380 C   0  0  0  0  0  0  0  0  0  0  0  0
   31.3070   28.7030   46.9930 N   0  0  0  0  0  0  0  0  0  0  0  0
   32.8260   26.1330   48.4670 H   0  0  0  0  0  0  0  0  0  0  0  0
   30.5970   25.6950   49.2420 H   0  0  0  0  0  0  0  0  0  0  0  0
   28.9470   29.3130   47.0630 C   0  0  0  0  0  0  0  0  0  0  0  0
   27.8970   29.5440   47.9340 C   0  0  0  0  0  0  0  0  0  0  0  0
   27.9210   29.0650   48.8990 H   0  0  0  0  0  0  0  0  0  0  0  0
   26.8290   30.3620   47.6130 C   0  0  0  0  0  0  0  0  0  0  0  0
   26.0200   30.5240   48.3200 H   0  0  0  0  0  0  0  0  0  0  0  0
   26.8660   30.9520   46.3440 C   0  0  0  0  0  0  0  0  0  0  0  0
   27.9340   30.6970   45.4950 C   0  0  0  0  0  0  0  0  0  0  0  0
   28.9460   29.8960   45.8560 N   0  0  0  0  0  0  0  0  0  0  0  0
   35.1160   28.5210   48.8450 O   0  0  0  0  0  0  0  0  0  0  0  0
   37.2670   30.0680   51.2890 C   0  0  0  0  0  0  0  0  0  0  0  0
   38.0830   30.8660   50.4450 C   0  0  0  0  0  0  0  0  0  0  0  0
   37.8350   30.8160   49.0810 C   0  0  0  0  0  0  0  0  0  0  0  0
   36.8080   29.9870   48.6790 N   0  0  0  0  0  0  0  0  0  0  0  0
   36.0680   29.2560   49.4960 C   0  0  0  0  0  0  0  0  0  0  0  0
   36.3060   29.3010   50.8200 N   0  0  0  0  0  0  0  0  0  0  0  0
   37.4950   30.1340   52.3540 H   0  0  0  0  0  0  0  0  0  0  0  0
   38.8800   31.5080   50.7730 H   0  0  0  0  0  0  0  0  0  0  0  0
   38.8500   33.5230   49.2140 F   0  0  0  0  0  0  0  0  0  0  0  0
   39.0290   32.8170   48.1140 C   0  0  0  0  0  0  0  0  0  0  0  0
   38.5470   31.5470   48.0660 C   0  0  0  0  0  0  0  0  0  0  0  0
   38.7950   30.9060   46.8620 C   0  0  0  0  0  0  0  0  0  0  0  0
   39.4640   31.4900   45.8100 C   0  0  0  0  0  0  0  0  0  0  0  0
   39.9330   32.7770   45.9070 C   0  0  0  0  0  0  0  0  0  0  0  0
   39.7070   33.4390   47.0780 C   0  0  0  0  0  0  0  0  0  0  0  0
   38.4470   29.8740   46.7170 H   0  0  0  0  0  0  0  0  0  0  0  0
   39.6180   30.9220   44.9020 H   0  0  0  0  0  0  0  0  0  0  0  0
   40.4490   33.1830   45.0530 H   0  0  0  0  0  0  0  0  0  0  0  0
   40.0670   34.4520   47.1770 H   0  0  0  0  0  0  0  0  0  0  0  0
  1  2  1  0  0  0  0
  1 23  1  0  0  0  0
  3  1  1  0  0  0  0
  4  5  1  0  0  0  0
  4  7  1  0  0  0  0
  4  1  1  0  0  0  0
  6  4  1  0  0  0  0
  7  8  1  0  0  0  0
  8 13  1  0  0  0  0
  8  9  2  0  0  0  0
  9 14  1  0  0  0  0
 10  9  1  0  0  0  0
 11 10  2  0  0  0  0
 12  7  2  0  0  0  0
 12 11  1  0  0  0  0
 15 11  1  0  0  0  0
 15 16  1  0  0  0  0
 16 17  1  0  0  0  0
 18 16  2  0  0  0  0
 18 19  1  0  0  0  0
 20 18  1  0  0  0  0
 21 22  1  0  0  0  0
 21 20  2  0  0  0  0
 22 15  2  0  0  0  0
 23 28  1  0  0  0  0
 24 30  1  0  0  0  0
 25 31  1  0  0  0  0
 25 24  2  0  0  0  0
 26 25  1  0  0  0  0
 27 26  2  0  0  0  0
 27 28  1  0  0  0  0
 28 29  2  0  0  0  0
 29 24  1  0  0  0  0
 33 32  1  0  0  0  0
 34 33  1  0  0  0  0
 34 26  1  0  0  0  0
 35 34  2  0  0  0  0
 36 37  2  0  0  0  0
 36 35  1  0  0  0  0
 37 38  1  0  0  0  0
 38 42  1  0  0  0  0
 38 33  2  0  0  0  0
 39 35  1  0  0  0  0
 40 36  1  0  0  0  0
 41 37  1  0  0  0  0
M  END
>  <minimizedAffinity>
-6.88753986

>  <minimizedRMSD>
1.22814882

$$$$
