
 OpenBabel03272510263D

 44 48  0  0  1  0  0  0  0  0999 V2000
   36.1430   30.2010   46.8240 C   0  0  0  0  0  0  0  0  0  0  0  0
   37.0430   30.7650   47.7260 C   0  0  0  0  0  0  0  0  0  0  0  0
   38.0270   31.6380   47.2920 C   0  0  0  0  0  0  0  0  0  0  0  0
   38.0620   31.9090   45.9290 C   0  0  0  0  0  0  0  0  0  0  0  0
   38.9420   32.7340   45.2800 N   0  0  0  0  0  0  0  0  0  0  0  0
   38.5990   32.6880   43.9840 C   0  0  0  0  0  0  0  0  0  0  0  0
   37.5690   31.8880   43.8080 N   0  0  0  0  0  0  0  0  0  0  0  0
   37.2010   31.3790   45.0090 C   0  0  0  0  0  0  0  0  0  0  0  0
   36.2160   30.5020   45.4710 C   0  0  0  0  0  0  0  0  0  0  0  0
   35.3610   29.5130   47.1430 H   0  0  0  0  0  0  0  0  0  0  0  0
   38.7190   32.0700   47.9920 H   0  0  0  0  0  0  0  0  0  0  0  0
   39.7310   33.2940   45.7080 H   0  0  0  0  0  0  0  0  0  0  0  0
   35.5450   30.0940   44.7280 H   0  0  0  0  0  0  0  0  0  0  0  0
   37.5740   30.2410   51.3990 C   0  0  0  0  0  0  0  0  0  0  0  0
   37.8290   30.6610   50.1060 C   0  0  0  0  0  0  0  0  0  0  0  0
   36.8920   30.3840   49.1160 C   0  0  0  0  0  0  0  0  0  0  0  0
   35.7720   29.7090   49.4930 N   0  0  0  0  0  0  0  0  0  0  0  0
   35.5330   29.3050   50.7490 C   0  0  0  0  0  0  0  0  0  0  0  0
   36.4310   29.5730   51.6870 N   0  0  0  0  0  0  0  0  0  0  0  0
   38.3320   30.4770   52.1480 H   0  0  0  0  0  0  0  0  0  0  0  0
   38.7310   31.2020   49.8170 H   0  0  0  0  0  0  0  0  0  0  0  0
   34.6020   28.7750   50.9200 H   0  0  0  0  0  0  0  0  0  0  0  0
   39.3030   33.4280   43.0160 O   0  0  0  0  0  0  0  0  0  0  0  0
   39.1100   31.5960   41.6750 N   0  0  0  0  0  0  0  0  0  0  0  0
   39.0630   33.0440   41.6610 C   0  0  1  0  0  0  0  0  0  0  0  0
   37.7520   33.4840   41.1980 C   0  0  0  0  0  0  0  0  0  0  0  0
   37.5900   33.0830   39.8630 O   0  0  0  0  0  0  0  0  0  0  0  0
   37.7600   31.7530   39.6290 C   0  0  0  0  0  0  0  0  0  0  0  0
   38.9670   31.1610   40.2870 C   0  0  1  0  0  0  0  0  0  0  0  0
   40.0710   31.3200   41.9700 H   0  0  0  0  0  0  0  0  0  0  0  0
   39.8410   33.5210   41.0410 H   0  0  0  0  0  0  0  0  0  0  0  0
   36.8300   33.2490   41.6540 H   0  0  0  0  0  0  0  0  0  0  0  0
   37.7900   34.6140   41.1220 H   0  0  0  0  0  0  0  0  0  0  0  0
   37.8480   31.5990   38.5490 H   0  0  0  0  0  0  0  0  0  0  0  0
   36.8420   31.1920   39.9380 H   0  0  0  0  0  0  0  0  0  0  0  0
   38.7190   30.0590   40.3950 H   0  0  0  0  0  0  0  0  0  0  0  0
   40.2040   31.2140   39.5120 C   0  0  0  0  0  0  0  0  0  0  0  0
   41.3560   30.5410   39.9470 C   0  0  0  0  0  0  0  0  0  0  0  0
   41.2440   29.9900   40.8940 H   0  0  0  0  0  0  0  0  0  0  0  0
   42.5840   30.5040   39.3220 C   0  0  0  0  0  0  0  0  0  0  0  0
   43.3750   29.9360   39.7910 H   0  0  0  0  0  0  0  0  0  0  0  0
   42.6950   31.1990   38.1460 C   0  0  0  0  0  3  0  0  0  0  0  0
   41.5640   31.8610   37.7140 C   0  0  0  0  0  3  0  0  0  0  0  0
   40.3840   31.8730   38.3540 N   0  0  0  0  0  0  0  0  0  0  0  0
  1 10  1  0  0  0  0
  1  2  1  0  0  0  0
  2 16  1  0  0  0  0
  3  2  2  0  0  0  0
  3 11  1  0  0  0  0
  4  3  1  0  0  0  0
  5 12  1  0  0  0  0
  5  4  1  0  0  0  0
  6  5  1  0  0  0  0
  7  6  2  0  0  0  0
  7  8  1  0  0  0  0
  8  9  1  0  0  0  0
  8  4  2  0  0  0  0
  9  1  2  0  0  0  0
 13  9  1  0  0  0  0
 14 19  1  0  0  0  0
 14 20  1  0  0  0  0
 15 14  2  0  0  0  0
 16 17  2  0  0  0  0
 16 15  1  0  0  0  0
 17 18  1  0  0  0  0
 18 22  1  0  0  0  0
 18 19  2  0  0  0  0
 21 15  1  0  0  0  0
 23  6  1  0  0  0  0
 24 30  1  0  0  0  0
 25 31  1  6  0  0  0
 25 24  1  0  0  0  0
 25 23  1  0  0  0  0
 26 32  1  0  0  0  0
 26 25  1  0  0  0  0
 27 26  1  0  0  0  0
 28 27  1  0  0  0  0
 28 35  1  0  0  0  0
 28 29  1  0  0  0  0
 29 36  1  1  0  0  0
 29 24  1  0  0  0  0
 33 26  1  0  0  0  0
 34 28  1  0  0  0  0
 37 38  1  0  0  0  0
 37 29  1  0  0  0  0
 38 39  1  0  0  0  0
 40 41  1  0  0  0  0
 40 38  2  0  0  0  0
 42 40  1  0  0  0  0
 43 42  2  0  0  0  0
 43 44  1  0  0  0  0
 44 37  2  0  0  0  0
M  END
>  <minimizedAffinity>
-5.91623116

>  <minimizedRMSD>
0.789666831

$$$$
