
 OpenBabel03272501343D

 35 38  0  0  1  0  0  0  0  0999 V2000
   38.7820   32.1390   47.5280 C   0  0  2  0  0  0  0  0  0  0  0  0
   39.4390   33.2070   47.8410 O   0  0  0  0  0  0  0  0  0  0  0  0
   37.5640   30.6700   50.7290 C   0  0  0  0  0  0  0  0  0  0  0  0
   38.3100   31.3500   49.7970 C   0  0  0  0  0  0  0  0  0  0  0  0
   37.9350   31.4240   48.4370 C   0  0  0  0  0  0  0  0  0  0  0  0
   36.8310   30.8080   48.0970 N   0  0  0  0  0  0  0  0  0  0  0  0
   36.0930   30.1290   49.0500 C   0  0  0  0  0  0  0  0  0  0  0  0
   36.4400   30.0560   50.3240 N   0  0  0  0  0  0  0  0  0  0  0  0
   37.8670   30.6240   51.7620 H   0  0  0  0  0  0  0  0  0  0  0  0
   39.2100   31.8400   50.1330 H   0  0  0  0  0  0  0  0  0  0  0  0
   34.8700   29.4660   48.5890 C   0  0  0  0  0  0  0  0  0  0  0  0
   34.2210   28.5180   49.3530 C   0  0  0  0  0  0  0  0  0  0  0  0
   34.6500   28.2840   50.3040 H   0  0  0  0  0  0  0  0  0  0  0  0
   33.0680   27.9340   48.8520 C   0  0  0  0  0  0  0  0  0  0  0  0
   32.6010   27.2000   49.4890 H   0  0  0  0  0  0  0  0  0  0  0  0
   32.5550   28.2680   47.6240 C   0  0  0  0  0  0  0  0  0  0  0  0
   33.2380   29.2320   46.8740 C   0  0  0  0  0  0  0  0  0  0  0  0
   34.3410   29.7710   47.3890 N   0  0  0  0  0  0  0  0  0  0  0  0
   38.9130   31.5970   46.1240 C   0  0  2  0  0  0  0  0  0  0  0  0
   40.4340   31.1590   45.9310 C   0  0  0  0  0  0  0  0  0  0  0  0
   39.7380   32.2580   45.1690 C   0  0  1  0  0  0  0  0  0  0  0  0
   38.2710   30.7040   45.9280 H   0  0  0  0  0  0  0  0  0  0  0  0
   41.1380   31.4060   46.7120 H   0  0  0  0  0  0  0  0  0  0  0  0
   40.5530   30.1650   45.4330 H   0  0  0  0  0  0  0  0  0  0  0  0
   40.1460   33.2830   45.4490 H   0  0  0  0  0  0  0  0  0  0  0  0
   39.6980   32.0890   43.7160 C   0  0  0  0  0  0  0  0  0  0  0  0
   38.9810   33.0240   42.9720 C   0  0  0  0  0  0  0  0  0  0  0  0
   38.9580   32.8430   41.6160 C   0  0  0  0  0  0  0  0  0  0  0  0
   39.6020   31.7980   40.9870 C   0  0  0  0  0  0  0  0  0  0  0  0
   40.2970   30.8990   41.7580 C   0  0  0  0  0  0  0  0  0  0  0  0
   40.3310   31.0620   43.1010 N   0  0  0  0  0  0  0  0  0  0  0  0
   38.4830   33.8380   43.4820 H   0  0  0  0  0  0  0  0  0  0  0  0
   38.4100   33.5520   41.0090 H   0  0  0  0  0  0  0  0  0  0  0  0
   39.5550   31.6970   39.9100 H   0  0  0  0  0  0  0  0  0  0  0  0
   40.7980   30.0840   41.2510 H   0  0  0  0  0  0  0  0  0  0  0  0
  1  2  1  1  0  0  0
  1  5  1  0  0  0  0
  3  9  1  0  0  0  0
  4 10  1  0  0  0  0
  4  3  2  0  0  0  0
  5  4  1  0  0  0  0
  6  5  2  0  0  0  0
  6  7  1  0  0  0  0
  7  8  2  0  0  0  0
  8  3  1  0  0  0  0
 11  7  1  0  0  0  0
 11 12  1  0  0  0  0
 12 13  1  0  0  0  0
 14 12  2  0  0  0  0
 14 15  1  0  0  0  0
 16 14  1  0  0  0  0
 17 18  1  0  0  0  0
 17 16  2  0  0  0  0
 18 11  2  0  0  0  0
 19 22  1  6  0  0  0
 19  1  1  0  0  0  0
 20 19  1  0  0  0  0
 20 23  1  0  0  0  0
 21 25  1  1  0  0  0
 21 20  1  0  0  0  0
 21 19  1  0  0  0  0
 24 20  1  0  0  0  0
 26 21  1  0  0  0  0
 27 32  1  0  0  0  0
 27 26  2  0  0  0  0
 28 27  1  0  0  0  0
 29 28  2  0  0  0  0
 29 30  1  0  0  0  0
 30 31  2  0  0  0  0
 31 26  1  0  0  0  0
 33 28  1  0  0  0  0
 34 29  1  0  0  0  0
 35 30  1  0  0  0  0
M  END
>  <minimizedAffinity>
-6.21660376

>  <minimizedRMSD>
1.79047871

$$$$
