
 OpenBabel03272510333D

 27 29  0  0  0  0  0  0  0  0999 V2000
   35.9400   30.1390   46.7650 C   0  0  0  0  0  0  0  0  0  0  0  0
   35.3880   30.1280   45.5200 C   0  0  0  0  0  0  0  0  0  0  0  0
   34.2160   29.4490   45.2440 C   0  0  0  0  0  0  0  0  0  0  0  0
   33.6100   28.7690   46.2880 C   0  0  0  0  0  0  0  0  0  0  0  0
   34.1440   28.7600   47.5630 C   0  0  0  0  0  0  0  0  0  0  0  0
   35.3210   29.4540   47.7960 C   0  0  0  0  0  0  0  0  0  0  0  0
   35.8580   30.6630   44.6800 H   0  0  0  0  0  0  0  0  0  0  0  0
   33.7930   29.4490   44.2580 H   0  0  0  0  0  0  0  0  0  0  0  0
   32.6910   28.2320   46.0890 H   0  0  0  0  0  0  0  0  0  0  0  0
   33.6280   28.2120   48.3430 H   0  0  0  0  0  0  0  0  0  0  0  0
   38.2800   32.6050   48.0520 C   0  0  0  0  0  0  0  0  0  0  0  0
   39.4680   32.3570   47.3690 C   0  0  0  0  0  0  0  0  0  0  0  0
   39.4520   31.3040   46.4390 C   0  0  0  0  0  0  0  0  0  0  0  0
   38.3070   30.5950   46.2520 N   0  0  0  0  0  0  0  0  0  0  0  0
   37.1770   30.8840   46.9470 C   0  0  0  0  0  0  0  0  0  0  0  0
   37.1590   31.8990   47.8580 N   0  0  0  0  0  0  0  0  0  0  0  0
   38.3530   33.4240   48.7540 H   0  0  0  0  0  0  0  0  0  0  0  0
   40.3950   32.8650   47.4630 H   0  0  0  0  0  0  0  0  0  0  0  0
   40.2730   30.9620   45.8150 H   0  0  0  0  0  0  0  0  0  0  0  0
   35.9200   29.4760   49.1260 C   0  0  0  0  0  0  0  0  0  0  0  0
   37.2770   29.3430   49.3140 C   0  0  0  0  0  0  0  0  0  0  0  0
   37.8620   29.2240   48.4060 H   0  0  0  0  0  0  0  0  0  0  0  0
   37.9020   29.3550   50.5370 C   0  0  0  0  0  0  0  0  0  0  0  0
   38.9820   29.2440   50.5930 H   0  0  0  0  0  0  0  0  0  0  0  0
   37.1130   29.5110   51.6690 C   0  0  0  0  0  3  0  0  0  0  0  0
   35.7500   29.6450   51.4960 C   0  0  0  0  0  3  0  0  0  0  0  0
   35.1950   29.6260   50.2690 N   0  0  0  0  0  0  0  0  0  0  0  0
  1 15  1  0  0  0  0
  1  6  1  0  0  0  0
  2  1  2  0  0  0  0
  3  2  1  0  0  0  0
  3  4  2  0  0  0  0
  4  5  1  0  0  0  0
  5  6  2  0  0  0  0
  5 10  1  0  0  0  0
  6 20  1  0  0  0  0
  7  2  1  0  0  0  0
  8  3  1  0  0  0  0
  9  4  1  0  0  0  0
 11 17  1  0  0  0  0
 12 18  1  0  0  0  0
 12 11  2  0  0  0  0
 13 12  1  0  0  0  0
 14 13  2  0  0  0  0
 14 15  1  0  0  0  0
 15 16  2  0  0  0  0
 16 11  1  0  0  0  0
 19 13  1  0  0  0  0
 20 21  2  0  0  0  0
 20 27  1  0  0  0  0
 21 23  1  0  0  0  0
 22 21  1  0  0  0  0
 23 24  1  0  0  0  0
 23 25  2  0  0  0  0
 26 25  1  0  0  0  0
 27 26  2  0  0  0  0
M  END
>  <minimizedAffinity>
-4.59716606

>  <minimizedRMSD>
2.07796335

$$$$
