
 OpenBabel03272508483D

 39 43  0  0  0  0  0  0  0  0999 V2000
   35.6020   29.7660   49.6640 C   0  0  0  0  0  0  0  0  0  0  0  0
   36.5730   29.6720   50.6610 C   0  0  0  0  0  0  0  0  0  0  0  0
   37.7090   30.2000   50.0580 C   0  0  0  0  0  0  0  0  0  0  0  0
   37.3930   30.5760   48.7750 C   0  0  0  0  0  0  0  0  0  0  0  0
   36.1150   30.2980   48.5760 O   0  0  0  0  0  0  0  0  0  0  0  0
   36.4950   29.2860   51.6710 H   0  0  0  0  0  0  0  0  0  0  0  0
   38.6900   30.3000   50.5220 H   0  0  0  0  0  0  0  0  0  0  0  0
   38.7660   32.4480   47.9900 C   0  0  0  0  0  0  0  0  0  0  0  0
   38.2770   31.1740   47.7860 C   0  0  0  0  0  0  0  0  0  0  0  0
   38.6120   30.4470   46.6520 C   0  0  0  0  0  0  0  0  0  0  0  0
   39.4540   30.9930   45.6930 C   0  0  0  0  0  0  0  0  0  0  0  0
   39.9550   30.5630   44.5190 N   0  0  0  0  0  0  0  0  0  0  0  0
   40.7100   31.5290   44.0360 N   0  0  0  0  0  0  0  0  0  0  0  0
   40.7130   32.5880   44.8750 C   0  0  0  0  0  0  0  0  0  0  0  0
   39.9090   32.2650   45.9510 C   0  0  0  0  0  0  0  0  0  0  0  0
   39.6150   33.0400   47.0530 C   0  0  0  0  0  0  0  0  0  0  0  0
   38.5100   33.0270   48.8740 H   0  0  0  0  0  0  0  0  0  0  0  0
   38.2190   29.4540   46.5150 H   0  0  0  0  0  0  0  0  0  0  0  0
   39.7610   29.6200   44.0910 H   0  0  0  0  0  0  0  0  0  0  0  0
   41.2540   33.5150   44.7150 H   0  0  0  0  0  0  0  0  0  0  0  0
   40.0200   34.0330   47.1710 H   0  0  0  0  0  0  0  0  0  0  0  0
   34.2220   29.3280   49.8340 C   0  0  0  0  0  0  0  0  0  0  0  0
   33.6270   29.6290   50.8870 O   0  0  0  0  0  0  0  0  0  0  0  0
   31.8090   27.2020   48.1280 C   0  0  0  0  0  0  0  0  0  0  0  0
   32.3240   27.0980   46.8510 C   0  0  0  0  0  0  0  0  0  0  0  0
   33.4950   27.7400   46.5360 C   0  0  0  0  0  0  0  0  0  0  0  0
   34.0890   28.4560   47.5220 N   0  0  0  0  0  0  0  0  0  0  0  0
   33.5770   28.5540   48.7740 C   0  0  0  0  0  0  0  0  0  0  0  0
   32.4270   27.9170   49.0640 N   0  0  0  0  0  0  0  0  0  0  0  0
   30.8720   26.6600   48.2970 H   0  0  0  0  0  0  0  0  0  0  0  0
   31.8480   26.5260   46.0670 H   0  0  0  0  0  0  0  0  0  0  0  0
   34.1600   27.7250   45.2380 C   0  0  0  0  0  0  0  0  0  0  0  0
   34.2720   26.5770   44.4800 C   0  0  0  0  0  0  0  0  0  0  0  0
   33.8660   25.6430   44.8250 H   0  0  0  0  0  0  0  0  0  0  0  0
   34.8850   26.4880   43.2480 C   0  0  0  0  0  0  0  0  0  0  0  0
   34.9540   25.5800   42.6850 H   0  0  0  0  0  0  0  0  0  0  0  0
   35.4410   27.6490   42.7170 C   0  0  0  0  0  0  0  0  0  0  0  0
   35.3190   28.7830   43.4910 C   0  0  0  0  0  0  0  0  0  0  0  0
   34.7120   28.8320   44.6920 N   0  0  0  0  0  0  0  0  0  0  0  0
  1 22  1  0  0  0  0
  1  2  2  0  0  0  0
  2  6  1  0  0  0  0
  3  7  1  0  0  0  0
  3  2  1  0  0  0  0
  4  3  2  0  0  0  0
  5  4  1  0  0  0  0
  5  1  1  0  0  0  0
  8 17  1  0  0  0  0
  9  8  1  0  0  0  0
  9  4  1  0  0  0  0
 10  9  2  0  0  0  0
 11 15  2  0  0  0  0
 11 10  1  0  0  0  0
 12 11  1  0  0  0  0
 13 12  1  0  0  0  0
 13 14  2  0  0  0  0
 14 15  1  0  0  0  0
 15 16  1  0  0  0  0
 16 21  1  0  0  0  0
 16  8  2  0  0  0  0
 18 10  1  0  0  0  0
 19 12  1  0  0  0  0
 20 14  1  0  0  0  0
 22 23  2  0  0  0  0
 24 30  1  0  0  0  0
 24 29  1  0  0  0  0
 25 24  2  0  0  0  0
 26 25  1  0  0  0  0
 26 27  2  0  0  0  0
 27 28  1  0  0  0  0
 28 29  2  0  0  0  0
 28 22  1  0  0  0  0
 31 25  1  0  0  0  0
 32 26  1  0  0  0  0
 33 34  1  0  0  0  0
 33 32  2  0  0  0  0
 35 33  1  0  0  0  0
 36 35  1  0  0  0  0
 37 35  2  0  0  0  0
 37 38  1  0  0  0  0
 38 39  2  0  0  0  0
 39 32  1  0  0  0  0
M  END
>  <minimizedAffinity>
-6.6371069

>  <minimizedRMSD>
1.71523023

$$$$
