
 OpenBabel03272510333D

 27 29  0  0  0  0  0  0  0  0999 V2000
   36.9700   30.7440   45.4910 C   0  0  0  0  0  0  0  0  0  0  0  0
   36.3220   30.4610   44.3270 C   0  0  0  0  0  0  0  0  0  0  0  0
   35.0430   29.9340   44.3090 C   0  0  0  0  0  0  0  0  0  0  0  0
   34.4310   29.6990   45.5300 C   0  0  0  0  0  0  0  0  0  0  0  0
   35.0620   29.9760   46.7290 C   0  0  0  0  0  0  0  0  0  0  0  0
   36.3430   30.5020   46.7010 C   0  0  0  0  0  0  0  0  0  0  0  0
   36.7940   30.6410   43.3490 H   0  0  0  0  0  0  0  0  0  0  0  0
   34.5450   29.7160   43.3840 H   0  0  0  0  0  0  0  0  0  0  0  0
   33.4300   29.2870   45.5350 H   0  0  0  0  0  0  0  0  0  0  0  0
   34.5370   29.7720   47.6560 H   0  0  0  0  0  0  0  0  0  0  0  0
   39.6430   33.1410   44.9280 C   0  0  0  0  0  0  0  0  0  0  0  0
   40.8140   32.4340   45.1900 C   0  0  0  0  0  0  0  0  0  0  0  0
   40.6670   31.0910   45.5740 C   0  0  0  0  0  0  0  0  0  0  0  0
   39.4210   30.5550   45.6660 N   0  0  0  0  0  0  0  0  0  0  0  0
   38.3130   31.2940   45.3970 C   0  0  0  0  0  0  0  0  0  0  0  0
   38.4220   32.6010   45.0230 N   0  0  0  0  0  0  0  0  0  0  0  0
   39.8190   34.1680   44.6390 H   0  0  0  0  0  0  0  0  0  0  0  0
   41.8150   32.7840   45.1390 H   0  0  0  0  0  0  0  0  0  0  0  0
   41.4550   30.3840   45.8170 H   0  0  0  0  0  0  0  0  0  0  0  0
   37.0470   30.8130   47.9410 C   0  0  0  0  0  0  0  0  0  0  0  0
   37.2540   29.8650   48.9160 C   0  0  0  0  0  0  0  0  0  0  0  0
   36.8600   28.8770   48.6940 H   0  0  0  0  0  0  0  0  0  0  0  0
   37.9050   30.0930   50.1040 C   0  0  0  0  0  0  0  0  0  0  0  0
   38.0250   29.2850   50.8180 H   0  0  0  0  0  0  0  0  0  0  0  0
   38.3920   31.3720   50.3420 C   0  0  0  0  0  3  0  0  0  0  0  0
   38.1920   32.3330   49.3740 C   0  0  0  0  0  3  0  0  0  0  0  0
   37.5450   32.0490   48.2290 N   0  0  0  0  0  0  0  0  0  0  0  0
  1  6  1  0  0  0  0
  2  1  2  0  0  0  0
  3  2  1  0  0  0  0
  3  4  2  0  0  0  0
  4  9  1  0  0  0  0
  4  5  1  0  0  0  0
  5 10  1  0  0  0  0
  6  5  2  0  0  0  0
  6 20  1  0  0  0  0
  7  2  1  0  0  0  0
  8  3  1  0  0  0  0
 11 16  2  0  0  0  0
 11 12  1  0  0  0  0
 12 13  2  0  0  0  0
 13 14  1  0  0  0  0
 13 19  1  0  0  0  0
 15  1  1  0  0  0  0
 15 14  2  0  0  0  0
 16 15  1  0  0  0  0
 17 11  1  0  0  0  0
 18 12  1  0  0  0  0
 20 27  2  0  0  0  0
 20 21  1  0  0  0  0
 21 23  2  0  0  0  0
 22 21  1  0  0  0  0
 23 25  1  0  0  0  0
 23 24  1  0  0  0  0
 26 25  2  0  0  0  0
 27 26  1  0  0  0  0
M  END
>  <minimizedAffinity>
-5.90980482

>  <minimizedRMSD>
3.58369875

$$$$
