
 OpenBabel03272506063D

 29 31  0  0  0  0  0  0  0  0999 V2000
   34.8360   28.4370   49.3830 C   0  0  0  0  0  0  0  0  0  0  0  0
   34.9050   27.7220   50.2280 H   0  0  0  0  0  0  0  0  0  0  0  0
   35.7030   28.1800   48.7290 H   0  0  0  0  0  0  0  0  0  0  0  0
   33.5930   28.1790   48.5740 C   0  0  0  0  0  0  0  0  0  0  0  0
   33.7000   28.2120   47.1320 C   0  0  0  0  0  0  0  0  0  0  0  0
   32.0280   27.8610   46.6630 S   0  0  0  0  0  0  0  0  0  0  0  0
   31.4220   27.7200   48.4320 C   0  0  0  0  0  0  0  0  0  0  0  0
   32.4130   27.9250   49.0700 N   0  0  0  0  0  0  0  0  0  0  0  0
   34.5670   28.4000   46.5610 H   0  0  0  0  0  0  0  0  0  0  0  0
   29.9980   27.4150   48.8020 C   0  0  0  0  0  0  0  0  0  0  0  0
   29.7140   27.4870   50.1490 C   0  0  0  0  0  0  0  0  0  0  0  0
   30.4880   27.7450   50.8490 H   0  0  0  0  0  0  0  0  0  0  0  0
   28.4010   27.2020   50.4560 C   0  0  0  0  0  0  0  0  0  0  0  0
   28.1180   27.2430   51.4990 H   0  0  0  0  0  0  0  0  0  0  0  0
   27.4650   26.8760   49.4820 C   0  0  0  0  0  0  0  0  0  0  0  0
   27.8390   26.8270   48.1380 C   0  0  0  0  0  0  0  0  0  0  0  0
   29.1270   27.1070   47.8550 N   0  0  0  0  0  0  0  0  0  0  0  0
   34.8730   29.8210   49.9220 C   0  0  0  0  0  0  0  0  0  0  0  0
   34.9740   29.8660   51.0340 H   0  0  0  0  0  0  0  0  0  0  0  0
   33.9560   30.4050   49.6910 H   0  0  0  0  0  0  0  0  0  0  0  0
   37.6250   32.2810   49.5080 C   0  0  0  0  0  0  0  0  0  0  0  0
   38.3530   31.7420   48.4450 C   0  0  0  0  0  0  0  0  0  0  0  0
   37.9030   30.5460   47.8750 C   0  0  0  0  0  0  0  0  0  0  0  0
   36.7790   29.9860   48.3990 N   0  0  0  0  0  0  0  0  0  0  0  0
   36.1060   30.5360   49.4240 C   0  0  0  0  0  0  0  0  0  0  0  0
   36.5250   31.6820   49.9810 N   0  0  0  0  0  0  0  0  0  0  0  0
   37.9930   33.2140   49.9370 H   0  0  0  0  0  0  0  0  0  0  0  0
   39.2340   32.2110   48.0560 H   0  0  0  0  0  0  0  0  0  0  0  0
   38.4090   30.0680   47.0510 H   0  0  0  0  0  0  0  0  0  0  0  0
  1 18  1  0  0  0  0
  1  2  1  0  0  0  0
  3  1  1  0  0  0  0
  4  8  1  0  0  0  0
  4  1  1  0  0  0  0
  5  4  2  0  0  0  0
  6  5  1  0  0  0  0
  6  7  1  0  0  0  0
  7 10  1  0  0  0  0
  7  8  2  0  0  0  0
  9  5  1  0  0  0  0
 10 11  1  0  0  0  0
 11 13  2  0  0  0  0
 11 12  1  0  0  0  0
 13 14  1  0  0  0  0
 15 13  1  0  0  0  0
 16 15  2  0  0  0  0
 17 16  1  0  0  0  0
 17 10  2  0  0  0  0
 18 19  1  0  0  0  0
 20 18  1  0  0  0  0
 21 27  1  0  0  0  0
 21 26  1  0  0  0  0
 22 21  2  0  0  0  0
 23 24  2  0  0  0  0
 23 22  1  0  0  0  0
 24 25  1  0  0  0  0
 25 18  1  0  0  0  0
 25 26  2  0  0  0  0
 28 22  1  0  0  0  0
 29 23  1  0  0  0  0
M  END
>  <minimizedAffinity>
-5.44417143

>  <minimizedRMSD>
1.6455195

$$$$
