
 OpenBabel03262521333D

 24 26  0  0  1  0  0  0  0  0999 V2000
   37.6270   30.2890   46.7240 C   0  0  1  0  0  0  0  0  0  0  0  0
   37.3350   31.3090   45.7440 C   0  0  0  0  0  0  0  0  0  0  0  0
   38.7270   31.3090   46.3990 C   0  0  1  0  0  0  0  0  0  0  0  0
   37.8690   29.2490   46.3890 H   0  0  0  0  0  0  0  0  0  0  0  0
   37.2560   31.1350   44.6700 H   0  0  0  0  0  0  0  0  0  0  0  0
   36.6350   32.1190   46.0810 H   0  0  0  0  0  0  0  0  0  0  0  0
   39.5100   30.9490   45.7180 H   0  0  0  0  0  0  0  0  0  0  0  0
   37.5730   29.9440   50.4510 C   0  0  0  0  0  0  0  0  0  0  0  0
   38.0430   29.8960   49.1230 C   0  0  0  0  0  0  0  0  0  0  0  0
   37.1840   30.3420   48.1200 C   0  0  0  0  0  0  0  0  0  0  0  0
   35.9450   30.7950   48.5000 N   0  0  0  0  0  0  0  0  0  0  0  0
   35.5240   30.8300   49.7730 C   0  0  0  0  0  0  0  0  0  0  0  0
   36.3480   30.4000   50.7480 N   0  0  0  0  0  0  0  0  0  0  0  0
   38.2330   29.6010   51.2190 H   0  0  0  0  0  0  0  0  0  0  0  0
   39.0170   29.5390   48.8290 H   0  0  0  0  0  0  0  0  0  0  0  0
   34.5170   31.2230   49.8380 H   0  0  0  0  0  0  0  0  0  0  0  0
   38.9810   32.4120   47.3280 C   0  0  0  0  0  0  0  0  0  0  0  0
   40.0410   33.2710   47.1040 C   0  0  0  0  0  0  0  0  0  0  0  0
   40.7230   33.1900   46.2680 H   0  0  0  0  0  0  0  0  0  0  0  0
   40.2410   34.3010   48.0110 C   0  0  0  0  0  0  0  0  0  0  0  0
   41.0320   35.0370   47.9450 H   0  0  0  0  0  0  0  0  0  0  0  0
   39.3810   34.4340   49.0980 C   0  0  0  0  0  0  0  0  0  0  0  0
   38.3350   33.5610   49.2910 C   0  0  0  0  0  0  0  0  0  0  0  0
   38.1650   32.5610   48.3840 N   0  0  0  0  0  0  0  0  0  0  0  0
  1  4  1  6  0  0  0
  1 10  1  0  0  0  0
  2  6  1  0  0  0  0
  2  3  1  0  0  0  0
  2  1  1  0  0  0  0
  3  7  1  6  0  0  0
  3  1  1  0  0  0  0
  3 17  1  0  0  0  0
  5  2  1  0  0  0  0
  8 13  1  0  0  0  0
  8 14  1  0  0  0  0
  9  8  2  0  0  0  0
 10 11  2  0  0  0  0
 10  9  1  0  0  0  0
 11 12  1  0  0  0  0
 12 16  1  0  0  0  0
 12 13  2  0  0  0  0
 15  9  1  0  0  0  0
 17 24  1  0  0  0  0
 18 17  2  0  0  0  0
 18 20  1  0  0  0  0
 19 18  1  0  0  0  0
 20 22  2  0  0  0  0
 21 20  1  0  0  0  0
 22 23  1  0  0  0  0
 24 23  2  0  0  0  0
M  END
>  <minimizedAffinity>
-4.21426392

>  <minimizedRMSD>
2.3175509

$$$$
