
 OpenBabel03272501373D

 35 38  0  0  1  0  0  0  0  0999 V2000
   37.1220   26.7820   33.3600 C   0  0  2  0  0  3  0  0  0  0  0  0
   37.3420   25.9800   32.3690 O   0  0  0  0  0  1  0  0  0  0  0  0
   36.1950   30.0130   31.7510 C   0  0  0  0  0  0  0  0  0  0  0  0
   36.6770   28.7450   31.9650 C   0  0  0  0  0  0  0  0  0  0  0  0
   36.5750   28.0990   33.2180 C   0  0  0  0  0  0  0  0  0  0  0  0
   35.9920   28.7700   34.1780 N   0  0  0  0  0  0  0  0  0  0  0  0
   35.5120   30.0470   33.9430 C   0  0  0  0  0  0  0  0  0  0  0  0
   35.6070   30.6550   32.7730 N   0  0  0  0  0  0  0  0  0  0  0  0
   36.2840   30.4900   30.7880 H   0  0  0  0  0  0  0  0  0  0  0  0
   37.1480   28.2390   31.1370 H   0  0  0  0  0  0  0  0  0  0  0  0
   34.8720   30.7300   35.0700 C   0  0  0  0  0  0  0  0  0  0  0  0
   35.5820   31.5450   35.9280 C   0  0  0  0  0  0  0  0  0  0  0  0
   36.6280   31.6590   35.7350 H   0  0  0  0  0  0  0  0  0  0  0  0
   34.9090   32.1600   36.9730 C   0  0  0  0  0  0  0  0  0  0  0  0
   35.5110   32.7850   37.6120 H   0  0  0  0  0  0  0  0  0  0  0  0
   33.5650   31.9820   37.1800 C   0  0  0  0  0  3  0  0  0  0  0  0
   32.8750   31.1490   36.2930 C   0  0  0  0  0  3  0  0  0  0  0  0
   33.5550   30.5770   35.3010 N   0  0  0  0  0  0  0  0  0  0  0  0
   37.4670   26.3170   34.7540 C   0  0  2  0  0  0  0  0  0  0  0  0
   38.9520   26.8120   35.0600 C   0  0  0  0  0  0  0  0  0  0  0  0
   38.5120   25.3720   34.9630 C   0  0  1  0  0  0  0  0  0  0  0  0
   36.7970   26.7360   35.5440 H   0  0  0  0  0  0  0  0  0  0  0  0
   39.5150   27.2590   34.2540 H   0  0  0  0  0  0  0  0  0  0  0  0
   39.0730   27.2600   36.0770 H   0  0  0  0  0  0  0  0  0  0  0  0
   38.9510   24.8630   34.0440 H   0  0  0  0  0  0  0  0  0  0  0  0
   38.7320   24.5650   36.1630 C   0  0  0  0  0  0  0  0  0  0  0  0
   37.8960   24.7830   37.2560 C   0  0  0  0  0  0  0  0  0  0  0  0
   38.1230   24.0170   38.3670 C   0  0  0  0  0  0  0  0  0  0  0  0
   39.1210   23.0670   38.4320 C   0  0  0  0  0  0  0  0  0  0  0  0
   39.9240   22.8840   37.3320 C   0  0  0  0  0  0  0  0  0  0  0  0
   39.7130   23.6330   36.2250 N   0  0  0  0  0  0  0  0  0  0  0  0
   37.1170   25.5310   37.1860 H   0  0  0  0  0  0  0  0  0  0  0  0
   37.4900   24.1610   39.2330 H   0  0  0  0  0  0  0  0  0  0  0  0
   39.2620   22.4840   39.3340 H   0  0  0  0  0  0  0  0  0  0  0  0
   40.7020   22.1350   37.3980 H   0  0  0  0  0  0  0  0  0  0  0  0
  1  2  1  6  0  0  0
  1 19  1  0  0  0  0
  3  4  2  0  0  0  0
  3  8  1  0  0  0  0
  4  5  1  0  0  0  0
  5  1  1  0  0  0  0
  5  6  2  0  0  0  0
  7  6  1  0  0  0  0
  7 11  1  0  0  0  0
  8  7  2  0  0  0  0
  9  3  1  0  0  0  0
 10  4  1  0  0  0  0
 11 18  2  0  0  0  0
 11 12  1  0  0  0  0
 12 14  2  0  0  0  0
 13 12  1  0  0  0  0
 14 16  1  0  0  0  0
 14 15  1  0  0  0  0
 17 16  2  0  0  0  0
 18 17  1  0  0  0  0
 19 21  1  0  0  0  0
 19 20  1  0  0  0  0
 19 22  1  1  0  0  0
 20 24  1  0  0  0  0
 21 25  1  6  0  0  0
 21 20  1  0  0  0  0
 21 26  1  0  0  0  0
 23 20  1  0  0  0  0
 26 31  2  0  0  0  0
 26 27  1  0  0  0  0
 27 28  2  0  0  0  0
 28 29  1  0  0  0  0
 28 33  1  0  0  0  0
 29 34  1  0  0  0  0
 30 35  1  0  0  0  0
 30 29  2  0  0  0  0
 31 30  1  0  0  0  0
 32 27  1  0  0  0  0
M  END
>  <minimizedAffinity>
-6.30721617

$$$$

 OpenBabel03272501373D

 35 38  0  0  1  0  0  0  0  0999 V2000
   37.5090   25.6650   31.5330 C   0  0  2  0  0  3  0  0  0  0  0  0
   37.7910   26.5790   30.6640 O   0  0  0  0  0  1  0  0  0  0  0  0
   37.0650   27.2370   34.8820 C   0  0  0  0  0  0  0  0  0  0  0  0
   36.9980   26.9790   33.5340 C   0  0  0  0  0  0  0  0  0  0  0  0
   37.6110   25.8480   32.9510 C   0  0  0  0  0  0  0  0  0  0  0  0
   38.2540   25.0450   33.7600 N   0  0  0  0  0  0  0  0  0  0  0  0
   38.3100   25.3210   35.1150 C   0  0  0  0  0  0  0  0  0  0  0  0
   37.7390   26.3800   35.6650 N   0  0  0  0  0  0  0  0  0  0  0  0
   36.5920   28.1070   35.3090 H   0  0  0  0  0  0  0  0  0  0  0  0
   36.4540   27.6750   32.9150 H   0  0  0  0  0  0  0  0  0  0  0  0
   39.0480   24.3730   35.9530 C   0  0  0  0  0  0  0  0  0  0  0  0
   38.5640   23.9470   37.1730 C   0  0  0  0  0  0  0  0  0  0  0  0
   37.6200   24.3400   37.4860 H   0  0  0  0  0  0  0  0  0  0  0  0
   39.3190   23.0480   37.9120 C   0  0  0  0  0  0  0  0  0  0  0  0
   38.8950   22.7480   38.8560 H   0  0  0  0  0  0  0  0  0  0  0  0
   40.5260   22.5700   37.4680 C   0  0  0  0  0  3  0  0  0  0  0  0
   40.9880   23.0230   36.2270 C   0  0  0  0  0  3  0  0  0  0  0  0
   40.2360   23.8860   35.5470 N   0  0  0  0  0  0  0  0  0  0  0  0
   37.0500   24.3140   31.0350 C   0  0  2  0  0  0  0  0  0  0  0  0
   35.4570   24.3530   30.9790 C   0  0  0  0  0  0  0  0  0  0  0  0
   36.2790   23.4590   31.8740 C   0  0  1  0  0  0  0  0  0  0  0  0
   37.4230   24.0650   30.0120 H   0  0  0  0  0  0  0  0  0  0  0  0
   34.9530   25.2140   31.3930 H   0  0  0  0  0  0  0  0  0  0  0  0
   35.0310   23.9150   30.0420 H   0  0  0  0  0  0  0  0  0  0  0  0
   36.1740   23.7540   32.9680 H   0  0  0  0  0  0  0  0  0  0  0  0
   36.0660   22.0230   31.6950 C   0  0  0  0  0  0  0  0  0  0  0  0
   34.9880   21.4380   32.3560 C   0  0  0  0  0  0  0  0  0  0  0  0
   34.8120   20.0930   32.1740 C   0  0  0  0  0  0  0  0  0  0  0  0
   35.6420   19.3270   31.3810 C   0  0  0  0  0  0  0  0  0  0  0  0
   36.6930   19.9440   30.7480 C   0  0  0  0  0  0  0  0  0  0  0  0
   36.8830   21.2740   30.9170 N   0  0  0  0  0  0  0  0  0  0  0  0
   34.3470   22.0540   32.9730 H   0  0  0  0  0  0  0  0  0  0  0  0
   33.9830   19.6080   32.6740 H   0  0  0  0  0  0  0  0  0  0  0  0
   35.4610   18.2660   31.2680 H   0  0  0  0  0  0  0  0  0  0  0  0
   37.3350   19.3300   30.1300 H   0  0  0  0  0  0  0  0  0  0  0  0
  1  2  1  6  0  0  0
  1  5  1  0  0  0  0
  3  9  1  0  0  0  0
  3  8  1  0  0  0  0
  4  3  2  0  0  0  0
  5  4  1  0  0  0  0
  5  6  2  0  0  0  0
  6  7  1  0  0  0  0
  7  8  2  0  0  0  0
  7 11  1  0  0  0  0
 10  4  1  0  0  0  0
 11 12  1  0  0  0  0
 12 13  1  0  0  0  0
 12 14  2  0  0  0  0
 14 15  1  0  0  0  0
 16 14  1  0  0  0  0
 17 16  2  0  0  0  0
 18 11  2  0  0  0  0
 18 17  1  0  0  0  0
 19 22  1  6  0  0  0
 19  1  1  0  0  0  0
 19 21  1  0  0  0  0
 20 19  1  0  0  0  0
 20 23  1  0  0  0  0
 20 21  1  0  0  0  0
 21 25  1  1  0  0  0
 24 20  1  0  0  0  0
 26 21  1  0  0  0  0
 26 27  1  0  0  0  0
 27 32  1  0  0  0  0
 28 27  2  0  0  0  0
 28 33  1  0  0  0  0
 29 28  1  0  0  0  0
 30 31  1  0  0  0  0
 30 29  2  0  0  0  0
 31 26  2  0  0  0  0
 34 29  1  0  0  0  0
 35 30  1  0  0  0  0
M  END
>  <minimizedAffinity>
-6.00144577

$$$$

 OpenBabel03272501373D

 35 38  0  0  1  0  0  0  0  0999 V2000
   36.9100   27.8530   33.0300 C   0  0  2  0  0  3  0  0  0  0  0  0
   37.3520   28.5820   32.0580 O   0  0  0  0  0  1  0  0  0  0  0  0
   37.6380   24.2750   32.2840 C   0  0  0  0  0  0  0  0  0  0  0  0
   37.2970   25.6000   32.1550 C   0  0  0  0  0  0  0  0  0  0  0  0
   37.2990   26.4910   33.2510 C   0  0  0  0  0  0  0  0  0  0  0  0
   37.6460   25.9950   34.4110 N   0  0  0  0  0  0  0  0  0  0  0  0
   37.9870   24.6590   34.5220 C   0  0  0  0  0  0  0  0  0  0  0  0
   37.9840   23.8200   33.4990 N   0  0  0  0  0  0  0  0  0  0  0  0
   37.6280   23.6100   31.4360 H   0  0  0  0  0  0  0  0  0  0  0  0
   37.0200   25.9540   31.1740 H   0  0  0  0  0  0  0  0  0  0  0  0
   38.3630   24.1810   35.8550 C   0  0  0  0  0  0  0  0  0  0  0  0
   39.4180   23.3120   36.0480 C   0  0  0  0  0  0  0  0  0  0  0  0
   39.9540   22.9980   35.1780 H   0  0  0  0  0  0  0  0  0  0  0  0
   39.7160   22.9030   37.3390 C   0  0  0  0  0  0  0  0  0  0  0  0
   40.5480   22.2250   37.4340 H   0  0  0  0  0  0  0  0  0  0  0  0
   38.9980   23.3350   38.4250 C   0  0  0  0  0  3  0  0  0  0  0  0
   37.9340   24.2140   38.1950 C   0  0  0  0  0  3  0  0  0  0  0  0
   37.6790   24.5850   36.9420 N   0  0  0  0  0  0  0  0  0  0  0  0
   35.9180   28.4600   33.9940 C   0  0  2  0  0  0  0  0  0  0  0  0
   34.7100   29.0320   33.1240 C   0  0  0  0  0  0  0  0  0  0  0  0
   35.6490   29.8580   33.9680 C   0  0  1  0  0  0  0  0  0  0  0  0
   35.4970   27.7260   34.7230 H   0  0  0  0  0  0  0  0  0  0  0  0
   34.8120   29.0300   32.0480 H   0  0  0  0  0  0  0  0  0  0  0  0
   33.7030   28.7860   33.5410 H   0  0  0  0  0  0  0  0  0  0  0  0
   36.3230   30.5110   33.3230 H   0  0  0  0  0  0  0  0  0  0  0  0
   35.0150   30.6450   35.0260 C   0  0  0  0  0  0  0  0  0  0  0  0
   35.8220   31.5060   35.7680 C   0  0  0  0  0  0  0  0  0  0  0  0
   35.2060   32.2280   36.7530 C   0  0  0  0  0  0  0  0  0  0  0  0
   33.8560   32.1340   37.0220 C   0  0  0  0  0  0  0  0  0  0  0  0
   33.0980   31.2730   36.2670 C   0  0  0  0  0  0  0  0  0  0  0  0
   33.6900   30.5500   35.2880 N   0  0  0  0  0  0  0  0  0  0  0  0
   36.8780   31.5670   35.5420 H   0  0  0  0  0  0  0  0  0  0  0  0
   35.8050   32.9070   37.3480 H   0  0  0  0  0  0  0  0  0  0  0  0
   33.4150   32.7280   37.8120 H   0  0  0  0  0  0  0  0  0  0  0  0
   32.0410   31.2100   36.4890 H   0  0  0  0  0  0  0  0  0  0  0  0
  1  2  1  6  0  0  0
  1  5  1  0  0  0  0
  1 19  1  0  0  0  0
  3  8  1  0  0  0  0
  4  3  2  0  0  0  0
  4  5  1  0  0  0  0
  5  6  2  0  0  0  0
  6  7  1  0  0  0  0
  7 11  1  0  0  0  0
  8  7  2  0  0  0  0
  9  3  1  0  0  0  0
 10  4  1  0  0  0  0
 11 12  2  0  0  0  0
 11 18  1  0  0  0  0
 12 14  1  0  0  0  0
 13 12  1  0  0  0  0
 14 15  1  0  0  0  0
 14 16  2  0  0  0  0
 17 16  1  0  0  0  0
 18 17  2  0  0  0  0
 19 22  1  1  0  0  0
 20 24  1  0  0  0  0
 20 21  1  0  0  0  0
 20 19  1  0  0  0  0
 21 25  1  6  0  0  0
 21 19  1  0  0  0  0
 21 26  1  0  0  0  0
 23 20  1  0  0  0  0
 26 31  2  0  0  0  0
 26 27  1  0  0  0  0
 27 28  2  0  0  0  0
 28 29  1  0  0  0  0
 28 33  1  0  0  0  0
 29 34  1  0  0  0  0
 30 35  1  0  0  0  0
 30 29  2  0  0  0  0
 31 30  1  0  0  0  0
 32 27  1  0  0  0  0
M  END
>  <minimizedAffinity>
-5.99014139

$$$$

 OpenBabel03272501373D

 35 38  0  0  1  0  0  0  0  0999 V2000
   38.1720   26.9920   32.7540 C   0  0  2  0  0  3  0  0  0  0  0  0
   39.1720   26.6170   32.0250 O   0  0  0  0  0  1  0  0  0  0  0  0
   36.4640   29.5340   30.6300 C   0  0  0  0  0  0  0  0  0  0  0  0
   37.3670   28.6130   31.1050 C   0  0  0  0  0  0  0  0  0  0  0  0
   37.1700   27.9220   32.3220 C   0  0  0  0  0  0  0  0  0  0  0  0
   36.0760   28.1990   32.9850 N   0  0  0  0  0  0  0  0  0  0  0  0
   35.1790   29.1290   32.4900 C   0  0  0  0  0  0  0  0  0  0  0  0
   35.3600   29.7790   31.3520 N   0  0  0  0  0  0  0  0  0  0  0  0
   36.6330   30.0520   29.7000 H   0  0  0  0  0  0  0  0  0  0  0  0
   38.2500   28.4240   30.5170 H   0  0  0  0  0  0  0  0  0  0  0  0
   33.9800   29.3820   33.2920 C   0  0  0  0  0  0  0  0  0  0  0  0
   34.0540   29.7610   34.6170 C   0  0  0  0  0  0  0  0  0  0  0  0
   35.0310   29.8640   35.0390 H   0  0  0  0  0  0  0  0  0  0  0  0
   32.8750   29.9840   35.3130 C   0  0  0  0  0  0  0  0  0  0  0  0
   32.9900   30.2780   36.3430 H   0  0  0  0  0  0  0  0  0  0  0  0
   31.6430   29.8390   34.7270 C   0  0  0  0  0  3  0  0  0  0  0  0
   31.6030   29.4520   33.3830 C   0  0  0  0  0  3  0  0  0  0  0  0
   32.7550   29.2480   32.7480 N   0  0  0  0  0  0  0  0  0  0  0  0
   38.0460   26.4300   34.1500 C   0  0  2  0  0  0  0  0  0  0  0  0
   39.1400   27.1600   35.0500 C   0  0  0  0  0  0  0  0  0  0  0  0
   39.1140   25.6870   34.7290 C   0  0  1  0  0  0  0  0  0  0  0  0
   37.0450   26.6080   34.6150 H   0  0  0  0  0  0  0  0  0  0  0  0
   39.8530   27.8070   34.5600 H   0  0  0  0  0  0  0  0  0  0  0  0
   38.7520   27.4910   36.0460 H   0  0  0  0  0  0  0  0  0  0  0  0
   39.9780   25.3930   34.0480 H   0  0  0  0  0  0  0  0  0  0  0  0
   39.0300   24.7930   35.8830 C   0  0  0  0  0  0  0  0  0  0  0  0
   38.0540   25.0580   36.8420 C   0  0  0  0  0  0  0  0  0  0  0  0
   37.9970   24.2080   37.9130 C   0  0  0  0  0  0  0  0  0  0  0  0
   38.8480   23.1320   38.0640 C   0  0  0  0  0  0  0  0  0  0  0  0
   39.7950   22.9070   37.0960 C   0  0  0  0  0  0  0  0  0  0  0  0
   39.8660   23.7370   36.0290 N   0  0  0  0  0  0  0  0  0  0  0  0
   37.3950   25.9060   36.7070 H   0  0  0  0  0  0  0  0  0  0  0  0
   37.2500   24.3870   38.6760 H   0  0  0  0  0  0  0  0  0  0  0  0
   38.7630   22.4870   38.9300 H   0  0  0  0  0  0  0  0  0  0  0  0
   40.4550   22.0590   37.2280 H   0  0  0  0  0  0  0  0  0  0  0  0
  1  2  1  1  0  0  0
  1 19  1  0  0  0  0
  3  4  2  0  0  0  0
  3  8  1  0  0  0  0
  4  5  1  0  0  0  0
  5  1  1  0  0  0  0
  5  6  2  0  0  0  0
  7  6  1  0  0  0  0
  7 11  1  0  0  0  0
  8  7  2  0  0  0  0
  9  3  1  0  0  0  0
 10  4  1  0  0  0  0
 11 12  1  0  0  0  0
 12 13  1  0  0  0  0
 12 14  2  0  0  0  0
 14 15  1  0  0  0  0
 16 14  1  0  0  0  0
 17 16  2  0  0  0  0
 18 11  2  0  0  0  0
 18 17  1  0  0  0  0
 19 22  1  1  0  0  0
 19 21  1  0  0  0  0
 19 20  1  0  0  0  0
 20 24  1  0  0  0  0
 21 25  1  6  0  0  0
 21 20  1  0  0  0  0
 21 26  1  0  0  0  0
 23 20  1  0  0  0  0
 26 31  2  0  0  0  0
 26 27  1  0  0  0  0
 27 28  2  0  0  0  0
 28 29  1  0  0  0  0
 28 33  1  0  0  0  0
 29 34  1  0  0  0  0
 30 35  1  0  0  0  0
 30 29  2  0  0  0  0
 31 30  1  0  0  0  0
 32 27  1  0  0  0  0
M  END
>  <minimizedAffinity>
-5.68049908

$$$$

 OpenBabel03272501373D

 35 38  0  0  1  0  0  0  0  0999 V2000
   39.7070   25.3150   34.8210 C   0  0  2  0  0  3  0  0  0  0  0  0
   40.9900   25.3480   34.9800 O   0  0  0  0  0  1  0  0  0  0  0  0
   37.9650   22.6780   36.7950 C   0  0  0  0  0  0  0  0  0  0  0  0
   38.7130   23.7760   36.4440 C   0  0  0  0  0  0  0  0  0  0  0  0
   38.8950   24.1680   35.0990 C   0  0  0  0  0  0  0  0  0  0  0  0
   38.3100   23.4320   34.1890 N   0  0  0  0  0  0  0  0  0  0  0  0
   37.5600   22.3300   34.5610 C   0  0  0  0  0  0  0  0  0  0  0  0
   37.3890   21.9580   35.8190 N   0  0  0  0  0  0  0  0  0  0  0  0
   37.8400   22.3930   37.8270 H   0  0  0  0  0  0  0  0  0  0  0  0
   39.1710   24.3460   37.2370 H   0  0  0  0  0  0  0  0  0  0  0  0
   36.9390   21.5590   33.4810 C   0  0  0  0  0  0  0  0  0  0  0  0
   35.8280   20.7680   33.6950 C   0  0  0  0  0  0  0  0  0  0  0  0
   35.4350   20.7410   34.6890 H   0  0  0  0  0  0  0  0  0  0  0  0
   35.2940   20.0660   32.6250 C   0  0  0  0  0  0  0  0  0  0  0  0
   34.4280   19.4650   32.8470 H   0  0  0  0  0  0  0  0  0  0  0  0
   35.8340   20.1340   31.3660 C   0  0  0  0  0  3  0  0  0  0  0  0
   36.9600   20.9440   31.1840 C   0  0  0  0  0  3  0  0  0  0  0  0
   37.4440   21.6020   32.2340 N   0  0  0  0  0  0  0  0  0  0  0  0
   39.0130   26.5540   34.3050 C   0  0  2  0  0  0  0  0  0  0  0  0
   38.5660   27.4040   35.5770 C   0  0  0  0  0  0  0  0  0  0  0  0
   37.6320   26.7730   34.5750 C   0  0  1  0  0  0  0  0  0  0  0  0
   39.6680   27.2020   33.6730 H   0  0  0  0  0  0  0  0  0  0  0  0
   38.6880   26.9610   36.5550 H   0  0  0  0  0  0  0  0  0  0  0  0
   38.7820   28.4970   35.4830 H   0  0  0  0  0  0  0  0  0  0  0  0
   37.0450   25.9140   35.0360 H   0  0  0  0  0  0  0  0  0  0  0  0
   36.7430   27.6990   33.8740 C   0  0  0  0  0  0  0  0  0  0  0  0
   36.2650   28.8020   34.5790 C   0  0  0  0  0  0  0  0  0  0  0  0
   35.4340   29.6520   33.9020 C   0  0  0  0  0  0  0  0  0  0  0  0
   35.0690   29.4550   32.5860 C   0  0  0  0  0  0  0  0  0  0  0  0
   35.5620   28.3550   31.9280 C   0  0  0  0  0  0  0  0  0  0  0  0
   36.3860   27.5030   32.5820 N   0  0  0  0  0  0  0  0  0  0  0  0
   36.5630   28.9410   35.6100 H   0  0  0  0  0  0  0  0  0  0  0  0
   35.0450   30.5180   34.4210 H   0  0  0  0  0  0  0  0  0  0  0  0
   34.4080   30.1570   32.0920 H   0  0  0  0  0  0  0  0  0  0  0  0
   35.2670   28.2140   30.8960 H   0  0  0  0  0  0  0  0  0  0  0  0
  1  2  1  6  0  0  0
  1  5  1  0  0  0  0
  3  9  1  0  0  0  0
  4  3  1  0  0  0  0
  4 10  1  0  0  0  0
  5  4  2  0  0  0  0
  6  7  2  0  0  0  0
  6  5  1  0  0  0  0
  7  8  1  0  0  0  0
  8  3  2  0  0  0  0
 11 12  1  0  0  0  0
 11  7  1  0  0  0  0
 12 13  1  0  0  0  0
 14 15  1  0  0  0  0
 14 12  2  0  0  0  0
 16 14  1  0  0  0  0
 17 16  2  0  0  0  0
 17 18  1  0  0  0  0
 18 11  2  0  0  0  0
 19 22  1  6  0  0  0
 19 21  1  0  0  0  0
 19  1  1  0  0  0  0
 19 20  1  0  0  0  0
 20 23  1  0  0  0  0
 21 25  1  1  0  0  0
 21 20  1  0  0  0  0
 24 20  1  0  0  0  0
 26 21  1  0  0  0  0
 26 27  1  0  0  0  0
 27 32  1  0  0  0  0
 28 33  1  0  0  0  0
 28 27  2  0  0  0  0
 29 28  1  0  0  0  0
 30 31  1  0  0  0  0
 30 29  2  0  0  0  0
 31 26  2  0  0  0  0
 34 29  1  0  0  0  0
 35 30  1  0  0  0  0
M  END
>  <minimizedAffinity>
-5.61754704

$$$$

 OpenBabel03272501373D

 35 38  0  0  1  0  0  0  0  0999 V2000
   36.8780   28.2250   32.7010 C   0  0  2  0  0  3  0  0  0  0  0  0
   37.0630   28.9920   31.6770 O   0  0  0  0  0  1  0  0  0  0  0  0
   39.5560   25.7930   33.5940 C   0  0  0  0  0  0  0  0  0  0  0  0
   38.8500   26.9560   33.4030 C   0  0  0  0  0  0  0  0  0  0  0  0
   37.5350   26.9650   32.8870 C   0  0  0  0  0  0  0  0  0  0  0  0
   37.0110   25.8020   32.5950 N   0  0  0  0  0  0  0  0  0  0  0  0
   37.7370   24.6410   32.7950 C   0  0  0  0  0  0  0  0  0  0  0  0
   38.9690   24.6280   33.2760 N   0  0  0  0  0  0  0  0  0  0  0  0
   40.5600   25.8060   33.9880 H   0  0  0  0  0  0  0  0  0  0  0  0
   39.3320   27.8850   33.6620 H   0  0  0  0  0  0  0  0  0  0  0  0
   37.0780   23.3810   32.4440 C   0  0  0  0  0  0  0  0  0  0  0  0
   36.0750   23.3200   31.4970 C   0  0  0  0  0  0  0  0  0  0  0  0
   35.7950   24.2380   31.0270 H   0  0  0  0  0  0  0  0  0  0  0  0
   35.4970   22.0910   31.2170 C   0  0  0  0  0  0  0  0  0  0  0  0
   34.7200   22.1000   30.4710 H   0  0  0  0  0  0  0  0  0  0  0  0
   35.8910   20.9380   31.8480 C   0  0  0  0  0  3  0  0  0  0  0  0
   36.9100   21.0350   32.8030 C   0  0  0  0  0  3  0  0  0  0  0  0
   37.4400   22.2320   33.0450 N   0  0  0  0  0  0  0  0  0  0  0  0
   35.9070   28.6700   33.7690 C   0  0  2  0  0  0  0  0  0  0  0  0
   34.5750   29.1350   33.0260 C   0  0  0  0  0  0  0  0  0  0  0  0
   35.4810   30.0270   33.8380 C   0  0  1  0  0  0  0  0  0  0  0  0
   35.6330   27.8600   34.4890 H   0  0  0  0  0  0  0  0  0  0  0  0
   34.5870   29.1930   31.9480 H   0  0  0  0  0  0  0  0  0  0  0  0
   33.6390   28.7560   33.5060 H   0  0  0  0  0  0  0  0  0  0  0  0
   36.0230   30.7810   33.1800 H   0  0  0  0  0  0  0  0  0  0  0  0
   34.8530   30.6870   34.9820 C   0  0  0  0  0  0  0  0  0  0  0  0
   35.6520   31.5040   35.7810 C   0  0  0  0  0  0  0  0  0  0  0  0
   35.0410   32.1080   36.8460 C   0  0  0  0  0  0  0  0  0  0  0  0
   33.7040   31.9390   37.1400 C   0  0  0  0  0  0  0  0  0  0  0  0
   32.9540   31.1250   36.3280 C   0  0  0  0  0  0  0  0  0  0  0  0
   33.5410   30.5190   35.2690 N   0  0  0  0  0  0  0  0  0  0  0  0
   36.6980   31.6250   35.5340 H   0  0  0  0  0  0  0  0  0  0  0  0
   35.6340   32.7490   37.4860 H   0  0  0  0  0  0  0  0  0  0  0  0
   33.2670   32.4400   37.9950 H   0  0  0  0  0  0  0  0  0  0  0  0
   31.9060   31.0030   36.5710 H   0  0  0  0  0  0  0  0  0  0  0  0
  1  2  1  6  0  0  0
  1  5  1  0  0  0  0
  1 19  1  0  0  0  0
  3  9  1  0  0  0  0
  4  3  1  0  0  0  0
  4 10  1  0  0  0  0
  5  4  2  0  0  0  0
  6  7  2  0  0  0  0
  6  5  1  0  0  0  0
  7  8  1  0  0  0  0
  8  3  2  0  0  0  0
 11  7  1  0  0  0  0
 11 18  1  0  0  0  0
 12 11  2  0  0  0  0
 13 12  1  0  0  0  0
 14 12  1  0  0  0  0
 14 16  2  0  0  0  0
 15 14  1  0  0  0  0
 16 17  1  0  0  0  0
 17 18  2  0  0  0  0
 19 21  1  0  0  0  0
 19 22  1  1  0  0  0
 20 24  1  0  0  0  0
 20 19  1  0  0  0  0
 20 21  1  0  0  0  0
 21 25  1  6  0  0  0
 21 26  1  0  0  0  0
 23 20  1  0  0  0  0
 26 31  2  0  0  0  0
 26 27  1  0  0  0  0
 27 28  2  0  0  0  0
 28 29  1  0  0  0  0
 28 33  1  0  0  0  0
 29 34  1  0  0  0  0
 30 35  1  0  0  0  0
 30 29  2  0  0  0  0
 31 30  1  0  0  0  0
 32 27  1  0  0  0  0
M  END
>  <minimizedAffinity>
-5.56525946

$$$$

 OpenBabel03272501373D

 35 38  0  0  1  0  0  0  0  0999 V2000
   36.3420   27.5750   31.7990 C   0  0  2  0  0  3  0  0  0  0  0  0
   36.0490   27.2510   30.5820 O   0  0  0  0  0  1  0  0  0  0  0  0
   39.8690   26.8440   32.7540 C   0  0  0  0  0  0  0  0  0  0  0  0
   38.7580   27.3430   32.1180 C   0  0  0  0  0  0  0  0  0  0  0  0
   37.4450   27.0260   32.5310 C   0  0  0  0  0  0  0  0  0  0  0  0
   37.3300   26.2250   33.5600 N   0  0  0  0  0  0  0  0  0  0  0  0
   38.4600   25.7320   34.1880 C   0  0  0  0  0  0  0  0  0  0  0  0
   39.6920   26.0260   33.8040 N   0  0  0  0  0  0  0  0  0  0  0  0
   40.8630   27.0970   32.4230 H   0  0  0  0  0  0  0  0  0  0  0  0
   38.9120   28.0000   31.2760 H   0  0  0  0  0  0  0  0  0  0  0  0
   38.2460   24.8430   35.3320 C   0  0  0  0  0  0  0  0  0  0  0  0
   38.1900   25.3190   36.6260 C   0  0  0  0  0  0  0  0  0  0  0  0
   38.3110   26.3720   36.7620 H   0  0  0  0  0  0  0  0  0  0  0  0
   37.9840   24.4170   37.6590 C   0  0  0  0  0  0  0  0  0  0  0  0
   37.9490   24.8410   38.6490 H   0  0  0  0  0  0  0  0  0  0  0  0
   37.8350   23.0720   37.4350 C   0  0  0  0  0  3  0  0  0  0  0  0
   37.8980   22.6220   36.1110 C   0  0  0  0  0  3  0  0  0  0  0  0
   38.0970   23.5180   35.1460 N   0  0  0  0  0  0  0  0  0  0  0  0
   35.4700   28.5870   32.5050 C   0  0  2  0  0  0  0  0  0  0  0  0
   36.1080   30.0230   32.2350 C   0  0  0  0  0  0  0  0  0  0  0  0
   35.9880   29.3580   33.5840 C   0  0  1  0  0  0  0  0  0  0  0  0
   34.4160   28.6040   32.1340 H   0  0  0  0  0  0  0  0  0  0  0  0
   37.0670   30.0700   31.7400 H   0  0  0  0  0  0  0  0  0  0  0  0
   35.3540   30.8030   31.9620 H   0  0  0  0  0  0  0  0  0  0  0  0
   37.0080   29.0650   33.9960 H   0  0  0  0  0  0  0  0  0  0  0  0
   35.2120   30.0940   34.5820 C   0  0  0  0  0  0  0  0  0  0  0  0
   33.8430   29.8420   34.6570 C   0  0  0  0  0  0  0  0  0  0  0  0
   33.1400   30.5440   35.5970 C   0  0  0  0  0  0  0  0  0  0  0  0
   33.7260   31.4620   36.4440 C   0  0  0  0  0  0  0  0  0  0  0  0
   35.0780   31.6810   36.3350 C   0  0  0  0  0  0  0  0  0  0  0  0
   35.7900   30.9950   35.4110 N   0  0  0  0  0  0  0  0  0  0  0  0
   33.4010   29.1180   33.9860 H   0  0  0  0  0  0  0  0  0  0  0  0
   32.0740   30.3710   35.6810 H   0  0  0  0  0  0  0  0  0  0  0  0
   33.1270   31.9930   37.1720 H   0  0  0  0  0  0  0  0  0  0  0  0
   35.5240   32.4040   37.0060 H   0  0  0  0  0  0  0  0  0  0  0  0
  1  2  1  1  0  0  0
  1 19  1  0  0  0  0
  1  5  1  0  0  0  0
  3  8  1  0  0  0  0
  4  5  1  0  0  0  0
  4  3  2  0  0  0  0
  5  6  2  0  0  0  0
  6  7  1  0  0  0  0
  7 11  1  0  0  0  0
  8  7  2  0  0  0  0
  9  3  1  0  0  0  0
 10  4  1  0  0  0  0
 11 12  1  0  0  0  0
 12 13  1  0  0  0  0
 12 14  2  0  0  0  0
 14 15  1  0  0  0  0
 16 14  1  0  0  0  0
 17 16  2  0  0  0  0
 18 11  2  0  0  0  0
 18 17  1  0  0  0  0
 19 22  1  6  0  0  0
 19 21  1  0  0  0  0
 20 19  1  0  0  0  0
 20 21  1  0  0  0  0
 21 25  1  1  0  0  0
 21 26  1  0  0  0  0
 23 20  1  0  0  0  0
 24 20  1  0  0  0  0
 26 27  2  0  0  0  0
 26 31  1  0  0  0  0
 27 28  1  0  0  0  0
 28 33  1  0  0  0  0
 28 29  2  0  0  0  0
 29 34  1  0  0  0  0
 30 29  1  0  0  0  0
 30 35  1  0  0  0  0
 31 30  2  0  0  0  0
 32 27  1  0  0  0  0
M  END
>  <minimizedAffinity>
-5.52193356

$$$$

 OpenBabel03272501373D

 35 38  0  0  1  0  0  0  0  0999 V2000
   36.6890   25.2060   31.6540 C   0  0  2  0  0  3  0  0  0  0  0  0
   36.1760   24.3880   30.7940 O   0  0  0  0  0  1  0  0  0  0  0  0
   40.2730   24.6180   32.4870 C   0  0  0  0  0  0  0  0  0  0  0  0
   39.1130   24.9040   31.8080 C   0  0  0  0  0  0  0  0  0  0  0  0
   37.8500   24.9160   32.4420 C   0  0  0  0  0  0  0  0  0  0  0  0
   37.8320   24.6390   33.7200 N   0  0  0  0  0  0  0  0  0  0  0  0
   39.0110   24.3540   34.3870 C   0  0  0  0  0  0  0  0  0  0  0  0
   40.1950   24.3400   33.7980 N   0  0  0  0  0  0  0  0  0  0  0  0
   41.2280   24.6120   31.9850 H   0  0  0  0  0  0  0  0  0  0  0  0
   39.1880   25.1260   30.7550 H   0  0  0  0  0  0  0  0  0  0  0  0
   38.9050   24.0550   35.8180 C   0  0  0  0  0  0  0  0  0  0  0  0
   37.9460   24.6430   36.6170 C   0  0  0  0  0  0  0  0  0  0  0  0
   37.2770   25.3320   36.1470 H   0  0  0  0  0  0  0  0  0  0  0  0
   37.9060   24.3110   37.9630 C   0  0  0  0  0  0  0  0  0  0  0  0
   37.1390   24.7990   38.5420 H   0  0  0  0  0  0  0  0  0  0  0  0
   38.7870   23.4190   38.5210 C   0  0  0  0  0  3  0  0  0  0  0  0
   39.7470   22.8420   37.6830 C   0  0  0  0  0  3  0  0  0  0  0  0
   39.7540   23.1850   36.3970 N   0  0  0  0  0  0  0  0  0  0  0  0
   36.0280   26.5490   31.8540 C   0  0  2  0  0  0  0  0  0  0  0  0
   36.5940   27.5220   30.7260 C   0  0  0  0  0  0  0  0  0  0  0  0
   36.8020   27.6900   32.2100 C   0  0  1  0  0  0  0  0  0  0  0  0
   34.9150   26.5190   31.7540 H   0  0  0  0  0  0  0  0  0  0  0  0
   37.4020   27.1660   30.1040 H   0  0  0  0  0  0  0  0  0  0  0  0
   35.8040   28.1400   30.2300 H   0  0  0  0  0  0  0  0  0  0  0  0
   37.8890   27.5160   32.5000 H   0  0  0  0  0  0  0  0  0  0  0  0
   36.3020   28.9410   32.7790 C   0  0  0  0  0  0  0  0  0  0  0  0
   35.9350   28.9440   34.1230 C   0  0  0  0  0  0  0  0  0  0  0  0
   35.4680   30.1260   34.6300 C   0  0  0  0  0  0  0  0  0  0  0  0
   35.3570   31.2760   33.8750 C   0  0  0  0  0  0  0  0  0  0  0  0
   35.7310   31.2290   32.5540 C   0  0  0  0  0  0  0  0  0  0  0  0
   36.1940   30.0680   32.0350 N   0  0  0  0  0  0  0  0  0  0  0  0
   36.0290   28.0330   34.6990 H   0  0  0  0  0  0  0  0  0  0  0  0
   35.1740   30.1620   35.6710 H   0  0  0  0  0  0  0  0  0  0  0  0
   34.9830   32.1880   34.3230 H   0  0  0  0  0  0  0  0  0  0  0  0
   35.6380   32.1390   31.9750 H   0  0  0  0  0  0  0  0  0  0  0  0
  1  2  1  1  0  0  0
  1 19  1  0  0  0  0
  1  5  1  0  0  0  0
  3  8  1  0  0  0  0
  4  5  1  0  0  0  0
  4  3  2  0  0  0  0
  5  6  2  0  0  0  0
  6  7  1  0  0  0  0
  7 11  1  0  0  0  0
  8  7  2  0  0  0  0
  9  3  1  0  0  0  0
 10  4  1  0  0  0  0
 11 18  2  0  0  0  0
 11 12  1  0  0  0  0
 12 14  2  0  0  0  0
 13 12  1  0  0  0  0
 14 16  1  0  0  0  0
 14 15  1  0  0  0  0
 17 16  2  0  0  0  0
 18 17  1  0  0  0  0
 19 22  1  1  0  0  0
 19 21  1  0  0  0  0
 20 19  1  0  0  0  0
 20 21  1  0  0  0  0
 21 25  1  1  0  0  0
 21 26  1  0  0  0  0
 23 20  1  0  0  0  0
 24 20  1  0  0  0  0
 26 27  1  0  0  0  0
 27 28  2  0  0  0  0
 27 32  1  0  0  0  0
 28 33  1  0  0  0  0
 29 34  1  0  0  0  0
 29 28  1  0  0  0  0
 30 29  2  0  0  0  0
 31 30  1  0  0  0  0
 31 26  2  0  0  0  0
 35 30  1  0  0  0  0
M  END
>  <minimizedAffinity>
-5.46259069

$$$$

 OpenBabel03272501373D

 35 38  0  0  1  0  0  0  0  0999 V2000
   37.0410   26.6460   33.2560 C   0  0  2  0  0  3  0  0  0  0  0  0
   37.1000   25.7260   32.3480 O   0  0  0  0  0  1  0  0  0  0  0  0
   35.5140   29.9930   33.8480 C   0  0  0  0  0  0  0  0  0  0  0  0
   35.9520   28.7020   34.0170 C   0  0  0  0  0  0  0  0  0  0  0  0
   36.6370   27.9970   33.0020 C   0  0  0  0  0  0  0  0  0  0  0  0
   36.8410   28.6370   31.8790 N   0  0  0  0  0  0  0  0  0  0  0  0
   36.3940   29.9370   31.7270 C   0  0  0  0  0  0  0  0  0  0  0  0
   35.7510   30.6000   32.6730 N   0  0  0  0  0  0  0  0  0  0  0  0
   34.9910   30.5140   34.6340 H   0  0  0  0  0  0  0  0  0  0  0  0
   35.7570   28.2240   34.9640 H   0  0  0  0  0  0  0  0  0  0  0  0
   36.6630   30.5820   30.4390 C   0  0  0  0  0  0  0  0  0  0  0  0
   36.2620   31.8760   30.1730 C   0  0  0  0  0  0  0  0  0  0  0  0
   35.7420   32.3930   30.9510 H   0  0  0  0  0  0  0  0  0  0  0  0
   36.5510   32.4210   28.9310 C   0  0  0  0  0  0  0  0  0  0  0  0
   36.2160   33.4330   28.7760 H   0  0  0  0  0  0  0  0  0  0  0  0
   37.2220   31.7170   27.9640 C   0  0  0  0  0  3  0  0  0  0  0  0
   37.6130   30.4080   28.2650 C   0  0  0  0  0  3  0  0  0  0  0  0
   37.3180   29.9190   29.4680 N   0  0  0  0  0  0  0  0  0  0  0  0
   37.4270   26.2870   34.6710 C   0  0  2  0  0  0  0  0  0  0  0  0
   38.9750   26.6300   34.8360 C   0  0  0  0  0  0  0  0  0  0  0  0
   38.3710   25.2500   34.9220 C   0  0  1  0  0  0  0  0  0  0  0  0
   36.8640   26.8620   35.4470 H   0  0  0  0  0  0  0  0  0  0  0  0
   39.5290   26.9220   33.9550 H   0  0  0  0  0  0  0  0  0  0  0  0
   39.2170   27.1610   35.7900 H   0  0  0  0  0  0  0  0  0  0  0  0
   38.6840   24.6020   34.0410 H   0  0  0  0  0  0  0  0  0  0  0  0
   38.5810   24.5500   36.1890 C   0  0  0  0  0  0  0  0  0  0  0  0
   37.8100   24.9390   37.2830 C   0  0  0  0  0  0  0  0  0  0  0  0
   38.0270   24.2690   38.4570 C   0  0  0  0  0  0  0  0  0  0  0  0
   38.9530   23.2540   38.5830 C   0  0  0  0  0  0  0  0  0  0  0  0
   39.6910   22.9020   37.4790 C   0  0  0  0  0  0  0  0  0  0  0  0
   39.4900   23.5540   36.3100 N   0  0  0  0  0  0  0  0  0  0  0  0
   37.0890   25.7360   37.1660 H   0  0  0  0  0  0  0  0  0  0  0  0
   37.4450   24.5480   39.3260 H   0  0  0  0  0  0  0  0  0  0  0  0
   39.0870   22.7530   39.5330 H   0  0  0  0  0  0  0  0  0  0  0  0
   40.4130   22.1040   37.5930 H   0  0  0  0  0  0  0  0  0  0  0  0
  1  2  1  6  0  0  0
  1 19  1  0  0  0  0
  3  4  1  0  0  0  0
  3  9  1  0  0  0  0
  4 10  1  0  0  0  0
  5  1  1  0  0  0  0
  5  4  2  0  0  0  0
  6  5  1  0  0  0  0
  7  6  2  0  0  0  0
  7  8  1  0  0  0  0
  8  3  2  0  0  0  0
 11  7  1  0  0  0  0
 12 11  1  0  0  0  0
 12 13  1  0  0  0  0
 14 12  2  0  0  0  0
 15 14  1  0  0  0  0
 16 17  2  0  0  0  0
 16 14  1  0  0  0  0
 17 18  1  0  0  0  0
 18 11  2  0  0  0  0
 19 20  1  0  0  0  0
 19 21  1  0  0  0  0
 19 22  1  1  0  0  0
 20 21  1  0  0  0  0
 20 24  1  0  0  0  0
 21 25  1  6  0  0  0
 21 26  1  0  0  0  0
 23 20  1  0  0  0  0
 26 31  2  0  0  0  0
 26 27  1  0  0  0  0
 27 28  2  0  0  0  0
 28 29  1  0  0  0  0
 28 33  1  0  0  0  0
 29 34  1  0  0  0  0
 30 35  1  0  0  0  0
 30 29  2  0  0  0  0
 31 30  1  0  0  0  0
 32 27  1  0  0  0  0
M  END
>  <minimizedAffinity>
-5.41885614

$$$$
