
 OpenBabel03272504463D

 29 31  0  0  0  0  0  0  0  0999 V2000
   36.2530   30.2460   30.7900 C   0  0  0  0  0  0  0  0  0  0  0  0
   36.3270   28.8580   30.7450 C   0  0  0  0  0  0  0  0  0  0  0  0
   35.9850   28.0250   31.7820 C   0  0  0  0  0  0  0  0  0  0  0  0
   35.5550   28.6700   32.8930 N   0  0  0  0  0  0  0  0  0  0  0  0
   35.4780   30.0120   32.9550 C   0  0  0  0  0  0  0  0  0  0  0  0
   35.8130   30.7870   31.9440 N   0  0  0  0  0  0  0  0  0  0  0  0
   36.5470   30.8320   29.9150 H   0  0  0  0  0  0  0  0  0  0  0  0
   38.4180   26.9510   33.0520 Cl  0  0  0  0  0  0  0  0  0  0  0  0
   37.1820   25.9870   32.2940 C   0  0  0  0  0  0  0  0  0  0  0  0
   36.0670   26.5830   31.7200 C   0  0  0  0  0  0  0  0  0  0  0  0
   35.1420   25.7430   31.1460 C   0  0  0  0  0  0  0  0  0  0  0  0
   35.2680   24.3770   31.1150 C   0  0  0  0  0  0  0  0  0  0  0  0
   36.4130   23.8190   31.7090 C   0  0  0  0  0  0  0  0  0  0  0  0
   36.5460   22.0850   31.6550 Cl  0  0  0  0  0  0  0  0  0  0  0  0
   37.3670   24.6100   32.2960 C   0  0  0  0  0  0  0  0  0  0  0  0
   34.2790   26.2480   30.7050 H   0  0  0  0  0  0  0  0  0  0  0  0
   34.5180   23.7430   30.6520 H   0  0  0  0  0  0  0  0  0  0  0  0
   38.2400   24.1560   32.7460 H   0  0  0  0  0  0  0  0  0  0  0  0
   34.9940   30.5560   34.2310 C   0  0  0  0  0  0  0  0  0  0  0  0
   35.9020   31.2290   35.0360 C   0  0  0  0  0  0  0  0  0  0  0  0
   36.9440   31.3870   34.8030 H   0  0  0  0  0  0  0  0  0  0  0  0
   35.3440   31.7070   36.2260 C   0  0  0  0  0  0  0  0  0  0  0  0
   36.0270   32.2450   36.8910 H   0  0  0  0  0  0  0  0  0  0  0  0
   34.0310   31.5520   36.6040 C   0  0  0  0  0  3  0  0  0  0  0  0
   33.1910   30.8680   35.7430 C   0  0  0  0  0  3  0  0  0  0  0  0
   33.7070   30.3970   34.5880 N   0  0  0  0  0  0  0  0  0  0  0  0
   36.7950   28.2780   29.5200 N   0  0  0  0  0  0  0  0  0  0  0  0
   36.3180   27.6150   28.8510 H   0  0  0  0  0  0  0  0  0  0  0  0
   37.7680   28.6160   29.3370 H   0  0  0  0  0  0  0  0  0  0  0  0
  1  6  1  0  0  0  0
  2  1  2  0  0  0  0
  2  3  1  0  0  0  0
  3  4  2  0  0  0  0
  4  5  1  0  0  0  0
  5 19  1  0  0  0  0
  6  5  2  0  0  0  0
  7  1  1  0  0  0  0
  9 15  1  0  0  0  0
  9  8  1  0  0  0  0
 10  3  1  0  0  0  0
 10  9  2  0  0  0  0
 11 10  1  0  0  0  0
 12 11  2  0  0  0  0
 12 13  1  0  0  0  0
 13 15  2  0  0  0  0
 14 13  1  0  0  0  0
 15 18  1  0  0  0  0
 16 11  1  0  0  0  0
 17 12  1  0  0  0  0
 19 26  2  0  0  0  0
 19 20  1  0  0  0  0
 20 22  2  0  0  0  0
 21 20  1  0  0  0  0
 22 24  1  0  0  0  0
 22 23  1  0  0  0  0
 25 24  2  0  0  0  0
 26 25  1  0  0  0  0
 27  2  1  0  0  0  0
 28 27  1  0  0  0  0
 29 27  1  0  0  0  0
M  END
>  <minimizedAffinity>
-5.81327152

$$$$

 OpenBabel03272504463D

 29 31  0  0  0  0  0  0  0  0999 V2000
   35.8110   28.8100   31.8480 C   0  0  0  0  0  0  0  0  0  0  0  0
   35.4100   29.7940   32.7450 C   0  0  0  0  0  0  0  0  0  0  0  0
   35.6220   29.7460   34.1010 C   0  0  0  0  0  0  0  0  0  0  0  0
   36.2710   28.6330   34.5210 N   0  0  0  0  0  0  0  0  0  0  0  0
   36.6650   27.6700   33.6680 C   0  0  0  0  0  0  0  0  0  0  0  0
   36.4500   27.7430   32.3700 N   0  0  0  0  0  0  0  0  0  0  0  0
   35.6010   28.9320   30.7820 H   0  0  0  0  0  0  0  0  0  0  0  0
   32.8540   29.3840   35.0480 Cl  0  0  0  0  0  0  0  0  0  0  0  0
   33.9070   30.6880   35.5210 C   0  0  0  0  0  0  0  0  0  0  0  0
   35.1990   30.7760   35.0210 C   0  0  0  0  0  0  0  0  0  0  0  0
   35.9580   31.8400   35.4520 C   0  0  0  0  0  0  0  0  0  0  0  0
   35.5080   32.7930   36.3300 C   0  0  0  0  0  0  0  0  0  0  0  0
   34.1930   32.6610   36.8090 C   0  0  0  0  0  0  0  0  0  0  0  0
   33.6490   33.8840   37.9200 Cl  0  0  0  0  0  0  0  0  0  0  0  0
   33.3920   31.6210   36.4130 C   0  0  0  0  0  0  0  0  0  0  0  0
   36.9680   31.8760   35.0370 H   0  0  0  0  0  0  0  0  0  0  0  0
   36.1350   33.6200   36.6480 H   0  0  0  0  0  0  0  0  0  0  0  0
   32.3830   31.5430   36.7960 H   0  0  0  0  0  0  0  0  0  0  0  0
   37.3560   26.5290   34.2820 C   0  0  0  0  0  0  0  0  0  0  0  0
   37.8170   26.6730   35.5830 C   0  0  0  0  0  0  0  0  0  0  0  0
   37.7100   27.5610   36.1870 H   0  0  0  0  0  0  0  0  0  0  0  0
   38.4590   25.5330   36.0760 C   0  0  0  0  0  0  0  0  0  0  0  0
   38.8380   25.6040   37.1000 H   0  0  0  0  0  0  0  0  0  0  0  0
   38.6400   24.3610   35.3780 C   0  0  0  0  0  3  0  0  0  0  0  0
   38.1500   24.3010   34.0860 C   0  0  0  0  0  3  0  0  0  0  0  0
   37.5260   25.3890   33.5880 N   0  0  0  0  0  0  0  0  0  0  0  0
   34.7310   30.9300   32.1930 N   0  0  0  0  0  0  0  0  0  0  0  0
   34.9880   31.9540   32.2050 H   0  0  0  0  0  0  0  0  0  0  0  0
   33.8540   30.6040   31.7240 H   0  0  0  0  0  0  0  0  0  0  0  0
  1  6  2  0  0  0  0
  1  2  1  0  0  0  0
  2  3  2  0  0  0  0
  3  4  1  0  0  0  0
  3 10  1  0  0  0  0
  5 19  1  0  0  0  0
  5  4  2  0  0  0  0
  6  5  1  0  0  0  0
  7  1  1  0  0  0  0
  8  9  1  0  0  0  0
  9 15  1  0  0  0  0
 10 11  1  0  0  0  0
 10  9  2  0  0  0  0
 11 12  2  0  0  0  0
 12 17  1  0  0  0  0
 12 13  1  0  0  0  0
 13 14  1  0  0  0  0
 15 18  1  0  0  0  0
 15 13  2  0  0  0  0
 16 11  1  0  0  0  0
 19 20  1  0  0  0  0
 20 22  2  0  0  0  0
 20 21  1  0  0  0  0
 22 23  1  0  0  0  0
 24 22  1  0  0  0  0
 25 24  2  0  0  0  0
 26 25  1  0  0  0  0
 26 19  2  0  0  0  0
 27 28  1  0  0  0  0
 27  2  1  0  0  0  0
 29 27  1  0  0  0  0
M  END
>  <minimizedAffinity>
-5.5697484

$$$$

 OpenBabel03272504463D

 29 31  0  0  0  0  0  0  0  0999 V2000
   36.5500   29.4250   30.4270 C   0  0  0  0  0  0  0  0  0  0  0  0
   36.0600   30.0730   31.5550 C   0  0  0  0  0  0  0  0  0  0  0  0
   35.6370   29.4380   32.6970 C   0  0  0  0  0  0  0  0  0  0  0  0
   35.7340   28.0880   32.6480 N   0  0  0  0  0  0  0  0  0  0  0  0
   36.2060   27.4430   31.5650 C   0  0  0  0  0  0  0  0  0  0  0  0
   36.6050   28.0780   30.4830 N   0  0  0  0  0  0  0  0  0  0  0  0
   36.8660   30.0120   29.5600 H   0  0  0  0  0  0  0  0  0  0  0  0
   32.6930   29.5290   32.7920 Cl  0  0  0  0  0  0  0  0  0  0  0  0
   33.7500   30.2180   33.9920 C   0  0  0  0  0  0  0  0  0  0  0  0
   35.1290   30.1250   33.8620 C   0  0  0  0  0  0  0  0  0  0  0  0
   35.8840   30.6980   34.8590 C   0  0  0  0  0  0  0  0  0  0  0  0
   35.3510   31.3410   35.9470 C   0  0  0  0  0  0  0  0  0  0  0  0
   33.9490   31.4080   36.0350 C   0  0  0  0  0  0  0  0  0  0  0  0
   33.3000   32.2290   37.4260 Cl  0  0  0  0  0  0  0  0  0  0  0  0
   33.1480   30.8550   35.0700 C   0  0  0  0  0  0  0  0  0  0  0  0
   36.9640   30.6060   34.7220 H   0  0  0  0  0  0  0  0  0  0  0  0
   35.9770   31.7820   36.7160 H   0  0  0  0  0  0  0  0  0  0  0  0
   32.0720   30.9210   35.1620 H   0  0  0  0  0  0  0  0  0  0  0  0
   36.2460   25.9790   31.6720 C   0  0  0  0  0  0  0  0  0  0  0  0
   35.2770   25.2520   30.9950 C   0  0  0  0  0  0  0  0  0  0  0  0
   34.4890   25.6750   30.3910 H   0  0  0  0  0  0  0  0  0  0  0  0
   35.4010   23.8680   31.1600 C   0  0  0  0  0  0  0  0  0  0  0  0
   34.6560   23.2570   30.6420 H   0  0  0  0  0  0  0  0  0  0  0  0
   36.3710   23.2440   31.9090 C   0  0  0  0  0  3  0  0  0  0  0  0
   37.3000   24.0430   32.5530 C   0  0  0  0  0  3  0  0  0  0  0  0
   37.2000   25.3810   32.4080 N   0  0  0  0  0  0  0  0  0  0  0  0
   36.0000   31.5040   31.5000 N   0  0  0  0  0  0  0  0  0  0  0  0
   36.4750   32.2330   32.0990 H   0  0  0  0  0  0  0  0  0  0  0  0
   35.3660   31.7860   30.7160 H   0  0  0  0  0  0  0  0  0  0  0  0
  1  6  2  0  0  0  0
  1  2  1  0  0  0  0
  2  3  2  0  0  0  0
  3 10  1  0  0  0  0
  4  3  1  0  0  0  0
  5 19  1  0  0  0  0
  5  4  2  0  0  0  0
  6  5  1  0  0  0  0
  7  1  1  0  0  0  0
  8  9  1  0  0  0  0
  9 15  1  0  0  0  0
 10  9  2  0  0  0  0
 10 11  1  0  0  0  0
 11 12  2  0  0  0  0
 12 13  1  0  0  0  0
 12 17  1  0  0  0  0
 13 14  1  0  0  0  0
 15 18  1  0  0  0  0
 15 13  2  0  0  0  0
 16 11  1  0  0  0  0
 19 26  1  0  0  0  0
 20 22  1  0  0  0  0
 20 19  2  0  0  0  0
 21 20  1  0  0  0  0
 22 24  2  0  0  0  0
 23 22  1  0  0  0  0
 24 25  1  0  0  0  0
 26 25  2  0  0  0  0
 27  2  1  0  0  0  0
 27 28  1  0  0  0  0
 29 27  1  0  0  0  0
M  END
>  <minimizedAffinity>
-5.54463291

$$$$

 OpenBabel03272504463D

 29 31  0  0  0  0  0  0  0  0999 V2000
   37.6820   25.6090   32.8250 C   0  0  0  0  0  0  0  0  0  0  0  0
   37.4440   24.4820   32.0460 C   0  0  0  0  0  0  0  0  0  0  0  0
   37.5130   23.1890   32.5030 C   0  0  0  0  0  0  0  0  0  0  0  0
   37.8400   23.0810   33.8130 N   0  0  0  0  0  0  0  0  0  0  0  0
   38.0740   24.1600   34.5830 C   0  0  0  0  0  0  0  0  0  0  0  0
   38.0010   25.3900   34.1180 N   0  0  0  0  0  0  0  0  0  0  0  0
   37.6050   26.6030   32.3770 H   0  0  0  0  0  0  0  0  0  0  0  0
   39.9480   22.1410   31.2150 Cl  0  0  0  0  0  0  0  0  0  0  0  0
   38.3540   21.4640   31.0330 C   0  0  0  0  0  0  0  0  0  0  0  0
   37.2630   22.0270   31.6810 C   0  0  0  0  0  0  0  0  0  0  0  0
   36.0440   21.4240   31.4780 C   0  0  0  0  0  0  0  0  0  0  0  0
   35.8600   20.3190   30.6860 C   0  0  0  0  0  0  0  0  0  0  0  0
   36.9950   19.7840   30.0510 C   0  0  0  0  0  0  0  0  0  0  0  0
   36.7330   18.3840   29.0520 Cl  0  0  0  0  0  0  0  0  0  0  0  0
   38.2340   20.3450   30.2170 C   0  0  0  0  0  0  0  0  0  0  0  0
   35.2100   21.8950   32.0040 H   0  0  0  0  0  0  0  0  0  0  0  0
   34.8820   19.8690   30.5480 H   0  0  0  0  0  0  0  0  0  0  0  0
   39.0910   19.9140   29.7160 H   0  0  0  0  0  0  0  0  0  0  0  0
   38.4180   23.8730   35.9820 C   0  0  0  0  0  0  0  0  0  0  0  0
   37.6250   24.4340   36.9730 C   0  0  0  0  0  0  0  0  0  0  0  0
   36.7690   25.0690   36.8010 H   0  0  0  0  0  0  0  0  0  0  0  0
   38.0340   24.1010   38.2680 C   0  0  0  0  0  0  0  0  0  0  0  0
   37.4340   24.5230   39.0810 H   0  0  0  0  0  0  0  0  0  0  0  0
   39.1080   23.3010   38.5790 C   0  0  0  0  0  3  0  0  0  0  0  0
   39.8470   22.7820   37.5310 C   0  0  0  0  0  3  0  0  0  0  0  0
   39.4720   23.0890   36.2720 N   0  0  0  0  0  0  0  0  0  0  0  0
   37.1050   24.7100   30.6710 N   0  0  0  0  0  0  0  0  0  0  0  0
   36.2360   24.4560   30.1300 H   0  0  0  0  0  0  0  0  0  0  0  0
   37.8990   25.2100   30.2070 H   0  0  0  0  0  0  0  0  0  0  0  0
  1  6  1  0  0  0  0
  2  3  1  0  0  0  0
  2  1  2  0  0  0  0
  3  4  2  0  0  0  0
  4  5  1  0  0  0  0
  5 19  1  0  0  0  0
  6  5  2  0  0  0  0
  7  1  1  0  0  0  0
  9  8  1  0  0  0  0
  9 10  1  0  0  0  0
 10  3  1  0  0  0  0
 11 10  2  0  0  0  0
 11 16  1  0  0  0  0
 12 11  1  0  0  0  0
 13 15  1  0  0  0  0
 13 12  2  0  0  0  0
 14 13  1  0  0  0  0
 15  9  2  0  0  0  0
 17 12  1  0  0  0  0
 18 15  1  0  0  0  0
 19 26  2  0  0  0  0
 19 20  1  0  0  0  0
 20 22  2  0  0  0  0
 21 20  1  0  0  0  0
 22 24  1  0  0  0  0
 22 23  1  0  0  0  0
 25 24  2  0  0  0  0
 26 25  1  0  0  0  0
 27  2  1  0  0  0  0
 28 27  1  0  0  0  0
 29 27  1  0  0  0  0
M  END
>  <minimizedAffinity>
-5.4398942

$$$$

 OpenBabel03272504463D

 29 31  0  0  0  0  0  0  0  0999 V2000
   38.8440   24.3100   30.0680 C   0  0  0  0  0  0  0  0  0  0  0  0
   38.3570   25.4160   30.7550 C   0  0  0  0  0  0  0  0  0  0  0  0
   37.2810   25.3920   31.6090 C   0  0  0  0  0  0  0  0  0  0  0  0
   36.7070   24.1730   31.7420 N   0  0  0  0  0  0  0  0  0  0  0  0
   37.1640   23.0910   31.0850 C   0  0  0  0  0  0  0  0  0  0  0  0
   38.1980   23.1430   30.2710 N   0  0  0  0  0  0  0  0  0  0  0  0
   39.7080   24.4210   29.4070 H   0  0  0  0  0  0  0  0  0  0  0  0
   38.2970   25.5800   34.3690 Cl  0  0  0  0  0  0  0  0  0  0  0  0
   37.2130   26.7220   33.6260 C   0  0  0  0  0  0  0  0  0  0  0  0
   36.7870   26.5510   32.3160 C   0  0  0  0  0  0  0  0  0  0  0  0
   35.9320   27.5040   31.8140 C   0  0  0  0  0  0  0  0  0  0  0  0
   35.4910   28.5880   32.5300 C   0  0  0  0  0  0  0  0  0  0  0  0
   35.9500   28.7190   33.8520 C   0  0  0  0  0  0  0  0  0  0  0  0
   35.3760   30.1040   34.7360 Cl  0  0  0  0  0  0  0  0  0  0  0  0
   36.8030   27.7990   34.4040 C   0  0  0  0  0  0  0  0  0  0  0  0
   35.6180   27.3350   30.7810 H   0  0  0  0  0  0  0  0  0  0  0  0
   34.8150   29.3220   32.1010 H   0  0  0  0  0  0  0  0  0  0  0  0
   37.1420   27.9230   35.4240 H   0  0  0  0  0  0  0  0  0  0  0  0
   36.4300   21.8450   31.3370 C   0  0  0  0  0  0  0  0  0  0  0  0
   35.3560   21.8900   32.2150 C   0  0  0  0  0  0  0  0  0  0  0  0
   35.0110   22.7720   32.7320 H   0  0  0  0  0  0  0  0  0  0  0  0
   34.7240   20.6540   32.3870 C   0  0  0  0  0  0  0  0  0  0  0  0
   33.8710   20.6460   33.0720 H   0  0  0  0  0  0  0  0  0  0  0  0
   35.0950   19.4820   31.7700 C   0  0  0  0  0  3  0  0  0  0  0  0
   36.1780   19.5230   30.9100 C   0  0  0  0  0  3  0  0  0  0  0  0
   36.8030   20.7050   30.7270 N   0  0  0  0  0  0  0  0  0  0  0  0
   39.0400   26.6580   30.5420 N   0  0  0  0  0  0  0  0  0  0  0  0
   39.5470   27.2860   31.2220 H   0  0  0  0  0  0  0  0  0  0  0  0
   38.9780   26.9080   29.5270 H   0  0  0  0  0  0  0  0  0  0  0  0
  1  6  2  0  0  0  0
  1  2  1  0  0  0  0
  2  3  2  0  0  0  0
  3  4  1  0  0  0  0
  3 10  1  0  0  0  0
  5 19  1  0  0  0  0
  5  4  2  0  0  0  0
  6  5  1  0  0  0  0
  7  1  1  0  0  0  0
  9  8  1  0  0  0  0
  9 15  1  0  0  0  0
 10  9  2  0  0  0  0
 11 10  1  0  0  0  0
 11 12  2  0  0  0  0
 12 13  1  0  0  0  0
 13 15  2  0  0  0  0
 13 14  1  0  0  0  0
 15 18  1  0  0  0  0
 16 11  1  0  0  0  0
 17 12  1  0  0  0  0
 19 20  1  0  0  0  0
 20 22  2  0  0  0  0
 20 21  1  0  0  0  0
 22 23  1  0  0  0  0
 24 22  1  0  0  0  0
 25 24  2  0  0  0  0
 26 25  1  0  0  0  0
 26 19  2  0  0  0  0
 27  2  1  0  0  0  0
 27 28  1  0  0  0  0
 29 27  1  0  0  0  0
M  END
>  <minimizedAffinity>
-5.35071754

$$$$

 OpenBabel03272504463D

 29 31  0  0  0  0  0  0  0  0999 V2000
   34.5630   29.3700   32.3350 C   0  0  0  0  0  0  0  0  0  0  0  0
   34.2770   30.3370   33.2930 C   0  0  0  0  0  0  0  0  0  0  0  0
   34.8920   30.4260   34.5180 C   0  0  0  0  0  0  0  0  0  0  0  0
   35.8310   29.4750   34.7370 N   0  0  0  0  0  0  0  0  0  0  0  0
   36.1210   28.5320   33.8220 C   0  0  0  0  0  0  0  0  0  0  0  0
   35.5150   28.4700   32.6540 N   0  0  0  0  0  0  0  0  0  0  0  0
   34.0230   29.3740   31.3840 H   0  0  0  0  0  0  0  0  0  0  0  0
   36.5560   32.8440   34.2510 Cl  0  0  0  0  0  0  0  0  0  0  0  0
   35.3190   32.6130   35.4550 C   0  0  0  0  0  0  0  0  0  0  0  0
   34.5840   31.4360   35.5040 C   0  0  0  0  0  0  0  0  0  0  0  0
   33.6280   31.3440   36.4880 C   0  0  0  0  0  0  0  0  0  0  0  0
   33.3740   32.3360   37.4020 C   0  0  0  0  0  0  0  0  0  0  0  0
   34.1440   33.5090   37.3130 C   0  0  0  0  0  0  0  0  0  0  0  0
   33.8010   34.7490   38.4840 Cl  0  0  0  0  0  0  0  0  0  0  0  0
   35.1100   33.6550   36.3520 C   0  0  0  0  0  0  0  0  0  0  0  0
   33.0700   30.4040   36.4950 H   0  0  0  0  0  0  0  0  0  0  0  0
   32.6120   32.2290   38.1670 H   0  0  0  0  0  0  0  0  0  0  0  0
   35.6890   34.5680   36.3050 H   0  0  0  0  0  0  0  0  0  0  0  0
   37.1630   27.5730   34.2140 C   0  0  0  0  0  0  0  0  0  0  0  0
   37.8010   27.7710   35.4300 C   0  0  0  0  0  0  0  0  0  0  0  0
   37.5950   28.5760   36.1190 H   0  0  0  0  0  0  0  0  0  0  0  0
   38.7750   26.8060   35.7100 C   0  0  0  0  0  0  0  0  0  0  0  0
   39.3030   26.9240   36.6620 H   0  0  0  0  0  0  0  0  0  0  0  0
   39.1020   25.7500   34.8930 C   0  0  0  0  0  3  0  0  0  0  0  0
   38.4180   25.6260   33.6970 C   0  0  0  0  0  3  0  0  0  0  0  0
   37.4730   26.5450   33.4050 N   0  0  0  0  0  0  0  0  0  0  0  0
   33.2660   31.2960   32.9570 N   0  0  0  0  0  0  0  0  0  0  0  0
   33.3210   32.3460   32.8700 H   0  0  0  0  0  0  0  0  0  0  0  0
   32.3640   30.7910   32.7900 H   0  0  0  0  0  0  0  0  0  0  0  0
  1  6  2  0  0  0  0
  1  2  1  0  0  0  0
  2  3  2  0  0  0  0
  3  4  1  0  0  0  0
  3 10  1  0  0  0  0
  5 19  1  0  0  0  0
  5  4  2  0  0  0  0
  6  5  1  0  0  0  0
  7  1  1  0  0  0  0
  8  9  1  0  0  0  0
  9 10  2  0  0  0  0
  9 15  1  0  0  0  0
 10 11  1  0  0  0  0
 11 16  1  0  0  0  0
 11 12  2  0  0  0  0
 12 17  1  0  0  0  0
 13 12  1  0  0  0  0
 13 14  1  0  0  0  0
 15 13  2  0  0  0  0
 18 15  1  0  0  0  0
 19 20  1  0  0  0  0
 20 22  2  0  0  0  0
 20 21  1  0  0  0  0
 22 23  1  0  0  0  0
 24 22  1  0  0  0  0
 25 24  2  0  0  0  0
 26 25  1  0  0  0  0
 26 19  2  0  0  0  0
 27  2  1  0  0  0  0
 28 27  1  0  0  0  0
 29 27  1  0  0  0  0
M  END
>  <minimizedAffinity>
-5.30972815

$$$$

 OpenBabel03272504463D

 29 31  0  0  0  0  0  0  0  0999 V2000
   37.8190   22.6840   32.3300 C   0  0  0  0  0  0  0  0  0  0  0  0
   37.5740   23.9630   31.8410 C   0  0  0  0  0  0  0  0  0  0  0  0
   37.6010   25.1060   32.6010 C   0  0  0  0  0  0  0  0  0  0  0  0
   37.8930   24.8970   33.9080 N   0  0  0  0  0  0  0  0  0  0  0  0
   38.1320   23.6670   34.3990 C   0  0  0  0  0  0  0  0  0  0  0  0
   38.1000   22.5860   33.6460 N   0  0  0  0  0  0  0  0  0  0  0  0
   37.7760   21.8280   31.6510 H   0  0  0  0  0  0  0  0  0  0  0  0
   40.0050   26.3890   31.4790 Cl  0  0  0  0  0  0  0  0  0  0  0  0
   38.4210   27.1110   31.5290 C   0  0  0  0  0  0  0  0  0  0  0  0
   37.3440   26.4280   32.0790 C   0  0  0  0  0  0  0  0  0  0  0  0
   36.1320   27.0780   32.0740 C   0  0  0  0  0  0  0  0  0  0  0  0
   35.9420   28.3370   31.5640 C   0  0  0  0  0  0  0  0  0  0  0  0
   37.0610   28.9880   31.0170 C   0  0  0  0  0  0  0  0  0  0  0  0
   36.7910   30.5840   30.3770 Cl  0  0  0  0  0  0  0  0  0  0  0  0
   38.2940   28.3890   30.9950 C   0  0  0  0  0  0  0  0  0  0  0  0
   35.3090   26.5100   32.5160 H   0  0  0  0  0  0  0  0  0  0  0  0
   34.9700   28.8200   31.5770 H   0  0  0  0  0  0  0  0  0  0  0  0
   39.1390   28.9120   30.5690 H   0  0  0  0  0  0  0  0  0  0  0  0
   38.4340   23.6100   35.8350 C   0  0  0  0  0  0  0  0  0  0  0  0
   37.6440   24.3610   36.6940 C   0  0  0  0  0  0  0  0  0  0  0  0
   36.8190   24.9880   36.3930 H   0  0  0  0  0  0  0  0  0  0  0  0
   38.0110   24.2390   38.0380 C   0  0  0  0  0  0  0  0  0  0  0  0
   37.4120   24.8150   38.7500 H   0  0  0  0  0  0  0  0  0  0  0  0
   39.0450   23.4640   38.5100 C   0  0  0  0  0  3  0  0  0  0  0  0
   39.7840   22.7470   37.5860 C   0  0  0  0  0  3  0  0  0  0  0  0
   39.4480   22.8480   36.2830 N   0  0  0  0  0  0  0  0  0  0  0  0
   37.2750   24.0700   30.4430 N   0  0  0  0  0  0  0  0  0  0  0  0
   37.7780   24.5880   29.6740 H   0  0  0  0  0  0  0  0  0  0  0  0
   36.4060   23.5220   30.2410 H   0  0  0  0  0  0  0  0  0  0  0  0
  1  6  1  0  0  0  0
  2  1  2  0  0  0  0
  2  3  1  0  0  0  0
  3  4  2  0  0  0  0
  4  5  1  0  0  0  0
  5 19  1  0  0  0  0
  6  5  2  0  0  0  0
  7  1  1  0  0  0  0
  8  9  1  0  0  0  0
  9 10  1  0  0  0  0
 10  3  1  0  0  0  0
 11 10  2  0  0  0  0
 11 16  1  0  0  0  0
 12 17  1  0  0  0  0
 12 11  1  0  0  0  0
 13 12  2  0  0  0  0
 14 13  1  0  0  0  0
 15 13  1  0  0  0  0
 15  9  2  0  0  0  0
 18 15  1  0  0  0  0
 19 26  2  0  0  0  0
 19 20  1  0  0  0  0
 20 22  2  0  0  0  0
 21 20  1  0  0  0  0
 22 24  1  0  0  0  0
 22 23  1  0  0  0  0
 25 24  2  0  0  0  0
 26 25  1  0  0  0  0
 27  2  1  0  0  0  0
 28 27  1  0  0  0  0
 29 27  1  0  0  0  0
M  END
>  <minimizedAffinity>
-5.24296761

$$$$

 OpenBabel03272504463D

 29 31  0  0  0  0  0  0  0  0999 V2000
   36.7000   29.0830   31.8060 C   0  0  0  0  0  0  0  0  0  0  0  0
   35.6790   29.7340   32.4880 C   0  0  0  0  0  0  0  0  0  0  0  0
   35.2370   29.3920   33.7430 C   0  0  0  0  0  0  0  0  0  0  0  0
   35.8880   28.3380   34.2910 N   0  0  0  0  0  0  0  0  0  0  0  0
   36.8780   27.6940   33.6450 C   0  0  0  0  0  0  0  0  0  0  0  0
   37.2820   28.0450   32.4420 N   0  0  0  0  0  0  0  0  0  0  0  0
   36.9880   29.4240   30.8080 H   0  0  0  0  0  0  0  0  0  0  0  0
   36.2250   31.3300   35.7310 Cl  0  0  0  0  0  0  0  0  0  0  0  0
   34.5460   31.0130   35.3970 C   0  0  0  0  0  0  0  0  0  0  0  0
   34.1740   30.0790   34.4390 C   0  0  0  0  0  0  0  0  0  0  0  0
   32.8250   29.8970   34.2440 C   0  0  0  0  0  0  0  0  0  0  0  0
   31.8540   30.5770   34.9340 C   0  0  0  0  0  0  0  0  0  0  0  0
   32.2790   31.5130   35.8930 C   0  0  0  0  0  0  0  0  0  0  0  0
   31.0270   32.3620   36.7530 Cl  0  0  0  0  0  0  0  0  0  0  0  0
   33.6110   31.7360   36.1290 C   0  0  0  0  0  0  0  0  0  0  0  0
   32.5720   29.1540   33.4830 H   0  0  0  0  0  0  0  0  0  0  0  0
   30.7980   30.4080   34.7530 H   0  0  0  0  0  0  0  0  0  0  0  0
   33.9110   32.4610   36.8740 H   0  0  0  0  0  0  0  0  0  0  0  0
   37.4800   26.5720   34.3760 C   0  0  0  0  0  0  0  0  0  0  0  0
   37.8590   26.7840   35.6940 C   0  0  0  0  0  0  0  0  0  0  0  0
   37.7470   27.7130   36.2330 H   0  0  0  0  0  0  0  0  0  0  0  0
   38.4220   25.6560   36.3010 C   0  0  0  0  0  0  0  0  0  0  0  0
   38.7340   25.7810   37.3420 H   0  0  0  0  0  0  0  0  0  0  0  0
   38.6020   24.4360   35.6920 C   0  0  0  0  0  3  0  0  0  0  0  0
   38.1970   24.3090   34.3750 C   0  0  0  0  0  3  0  0  0  0  0  0
   37.6520   25.3840   33.7690 N   0  0  0  0  0  0  0  0  0  0  0  0
   35.0580   30.8380   31.8160 N   0  0  0  0  0  0  0  0  0  0  0  0
   34.9930   31.8560   32.0870 H   0  0  0  0  0  0  0  0  0  0  0  0
   34.6260   30.4920   30.9270 H   0  0  0  0  0  0  0  0  0  0  0  0
  1  6  2  0  0  0  0
  1  2  1  0  0  0  0
  2  3  2  0  0  0  0
  3  4  1  0  0  0  0
  3 10  1  0  0  0  0
  5  4  2  0  0  0  0
  5 19  1  0  0  0  0
  6  5  1  0  0  0  0
  7  1  1  0  0  0  0
  9  8  1  0  0  0  0
  9 15  1  0  0  0  0
 10  9  2  0  0  0  0
 11 10  1  0  0  0  0
 11 12  2  0  0  0  0
 12 13  1  0  0  0  0
 13 15  2  0  0  0  0
 13 14  1  0  0  0  0
 15 18  1  0  0  0  0
 16 11  1  0  0  0  0
 17 12  1  0  0  0  0
 19 20  1  0  0  0  0
 20 21  1  0  0  0  0
 20 22  2  0  0  0  0
 22 23  1  0  0  0  0
 24 22  1  0  0  0  0
 25 24  2  0  0  0  0
 26 25  1  0  0  0  0
 26 19  2  0  0  0  0
 27 28  1  0  0  0  0
 27  2  1  0  0  0  0
 29 27  1  0  0  0  0
M  END
>  <minimizedAffinity>
-5.17865515

$$$$

 OpenBabel03272504463D

 29 31  0  0  0  0  0  0  0  0999 V2000
   37.2400   28.8390   30.6430 C   0  0  0  0  0  0  0  0  0  0  0  0
   37.3410   27.4700   30.8630 C   0  0  0  0  0  0  0  0  0  0  0  0
   36.7280   26.7990   31.8930 C   0  0  0  0  0  0  0  0  0  0  0  0
   35.9920   27.5900   32.7090 N   0  0  0  0  0  0  0  0  0  0  0  0
   35.8830   28.9170   32.5130 C   0  0  0  0  0  0  0  0  0  0  0  0
   36.4820   29.5350   31.5160 N   0  0  0  0  0  0  0  0  0  0  0  0
   37.7630   29.2910   29.7960 H   0  0  0  0  0  0  0  0  0  0  0  0
   34.6020   25.2560   30.5570 Cl  0  0  0  0  0  0  0  0  0  0  0  0
   35.8820   24.5660   31.5160 C   0  0  0  0  0  0  0  0  0  0  0  0
   36.8420   25.3750   32.1090 C   0  0  0  0  0  0  0  0  0  0  0  0
   37.8140   24.7410   32.8470 C   0  0  0  0  0  0  0  0  0  0  0  0
   37.8770   23.3810   33.0200 C   0  0  0  0  0  0  0  0  0  0  0  0
   36.8830   22.6040   32.4000 C   0  0  0  0  0  0  0  0  0  0  0  0
   36.9880   20.8840   32.6380 Cl  0  0  0  0  0  0  0  0  0  0  0  0
   35.8900   23.1830   31.6530 C   0  0  0  0  0  0  0  0  0  0  0  0
   38.5520   25.4100   33.2970 H   0  0  0  0  0  0  0  0  0  0  0  0
   38.6600   22.9150   33.6100 H   0  0  0  0  0  0  0  0  0  0  0  0
   35.1370   22.5620   31.1870 H   0  0  0  0  0  0  0  0  0  0  0  0
   35.0490   29.6310   33.4870 C   0  0  0  0  0  0  0  0  0  0  0  0
   35.6900   30.3530   34.4840 C   0  0  0  0  0  0  0  0  0  0  0  0
   36.7590   30.4350   34.6050 H   0  0  0  0  0  0  0  0  0  0  0  0
   34.8090   30.9960   35.3600 C   0  0  0  0  0  0  0  0  0  0  0  0
   35.2730   31.5780   36.1620 H   0  0  0  0  0  0  0  0  0  0  0  0
   33.4360   30.9470   35.2810 C   0  0  0  0  0  3  0  0  0  0  0  0
   32.8780   30.2040   34.2570 C   0  0  0  0  0  3  0  0  0  0  0  0
   33.7080   29.5750   33.3990 N   0  0  0  0  0  0  0  0  0  0  0  0
   38.1450   26.7270   29.9380 N   0  0  0  0  0  0  0  0  0  0  0  0
   37.8880   25.9350   29.2890 H   0  0  0  0  0  0  0  0  0  0  0  0
   39.1270   27.0900   29.9760 H   0  0  0  0  0  0  0  0  0  0  0  0
  1  2  2  0  0  0  0
  1  6  1  0  0  0  0
  2  3  1  0  0  0  0
  3 10  1  0  0  0  0
  3  4  2  0  0  0  0
  5  4  1  0  0  0  0
  5 19  1  0  0  0  0
  6  5  2  0  0  0  0
  7  1  1  0  0  0  0
  8  9  1  0  0  0  0
  9 15  2  0  0  0  0
  9 10  1  0  0  0  0
 10 11  2  0  0  0  0
 11 12  1  0  0  0  0
 11 16  1  0  0  0  0
 12 17  1  0  0  0  0
 13 14  1  0  0  0  0
 13 12  2  0  0  0  0
 15 13  1  0  0  0  0
 18 15  1  0  0  0  0
 19 20  1  0  0  0  0
 20 21  1  0  0  0  0
 20 22  2  0  0  0  0
 22 23  1  0  0  0  0
 24 22  1  0  0  0  0
 25 24  2  0  0  0  0
 26 19  2  0  0  0  0
 26 25  1  0  0  0  0
 27 29  1  0  0  0  0
 27  2  1  0  0  0  0
 28 27  1  0  0  0  0
M  END
>  <minimizedAffinity>
-5.13764668

$$$$
