
 OpenBabel03272503373D

 18 19  0  0  0  0  0  0  0  0999 V2000
   37.2150   30.3020   50.6860 C   0  0  0  0  0  0  0  0  0  0  0  0
   38.1920   30.7880   49.7980 C   0  0  0  0  0  0  0  0  0  0  0  0
   37.7930   31.0970   48.5080 C   0  0  0  0  0  0  0  0  0  0  0  0
   36.4930   30.9210   48.1650 N   0  0  0  0  0  0  0  0  0  0  0  0
   35.5730   30.4530   49.0360 C   0  0  0  0  0  0  0  0  0  0  0  0
   35.9460   30.1530   50.2750 N   0  0  0  0  0  0  0  0  0  0  0  0
   39.2250   30.9290   50.0670 H   0  0  0  0  0  0  0  0  0  0  0  0
   34.5660   30.3370   48.7030 H   0  0  0  0  0  0  0  0  0  0  0  0
   38.6900   31.6070   47.4820 C   0  0  0  0  0  0  0  0  0  0  0  0
   39.1180   30.8750   46.3970 C   0  0  0  0  0  0  0  0  0  0  0  0
   38.7840   29.8580   46.2720 H   0  0  0  0  0  0  0  0  0  0  0  0
   39.9660   31.3350   45.4140 C   0  0  0  0  0  0  0  0  0  0  0  0
   40.2720   30.7180   44.5800 H   0  0  0  0  0  0  0  0  0  0  0  0
   40.4380   32.6270   45.4990 C   0  0  0  0  0  0  0  0  0  0  0  0
   40.0060   33.3550   46.5890 C   0  0  0  0  0  0  0  0  0  0  0  0
   39.1760   32.8600   47.5240 N   0  0  0  0  0  0  0  0  0  0  0  0
   37.7350   30.0300   51.9380 O   0  0  0  0  0  0  0  0  0  0  0  0
   38.4780   29.3420   52.0090 H   0  0  0  0  0  0  0  0  0  0  0  0
  1 17  1  0  0  0  0
  2  7  1  0  0  0  0
  2  1  2  0  0  0  0
  3  2  1  0  0  0  0
  4  3  2  0  0  0  0
  4  5  1  0  0  0  0
  5  6  2  0  0  0  0
  6  1  1  0  0  0  0
  8  5  1  0  0  0  0
  9 16  1  0  0  0  0
  9  3  1  0  0  0  0
 10  9  2  0  0  0  0
 11 10  1  0  0  0  0
 12 14  2  0  0  0  0
 12 10  1  0  0  0  0
 13 12  1  0  0  0  0
 14 15  1  0  0  0  0
 15 16  2  0  0  0  0
 17 18  1  0  0  0  0
M  END
>  <minimizedAffinity>
-5.08544302

>  <minimizedRMSD>
1.47223711

$$$$
