
 OpenBabel03272502193D

 32 34  0  0  1  0  0  0  0  0999 V2000
   38.0210   27.3400   32.3230 S   0  0  0  0  0  0  0  0  0  0  0  0
   36.5070   27.6490   30.1070 N   0  0  0  0  0  0  0  0  0  0  0  0
   36.4090   27.7660   31.5370 C   0  0  2  0  0  0  0  0  0  0  0  0
   36.0790   29.1910   31.8740 C   0  0  0  0  0  0  0  0  0  0  0  0
   35.5590   29.8670   30.7470 O   0  0  0  0  0  0  0  0  0  0  0  0
   36.6750   30.0090   29.8990 C   0  0  0  0  0  0  0  0  0  0  0  0
   37.3570   28.7020   29.6210 C   0  0  2  0  0  0  0  0  0  0  0  0
   36.9220   26.7180   29.8830 H   0  0  0  0  0  0  0  0  0  0  0  0
   35.6840   27.0520   31.9810 H   0  0  0  0  0  0  0  0  0  0  0  0
   35.2730   29.2620   32.6380 H   0  0  0  0  0  0  0  0  0  0  0  0
   36.9870   29.7180   32.2250 H   0  0  0  0  0  0  0  0  0  0  0  0
   36.4580   30.5840   28.9890 H   0  0  0  0  0  0  0  0  0  0  0  0
   37.3940   30.6400   30.4880 H   0  0  0  0  0  0  0  0  0  0  0  0
   38.3590   28.6280   30.1240 H   0  0  0  0  0  0  0  0  0  0  0  0
   37.5350   28.5210   28.2290 O   0  0  0  0  0  0  0  0  0  0  0  0
   38.5030   28.6090   28.0230 H   0  0  0  0  0  0  0  0  0  0  0  0
   37.9730   25.7250   33.0490 C   0  0  0  0  0  0  0  0  0  0  0  0
   37.5750   24.7430   32.1380 C   0  0  0  0  0  0  0  0  0  0  0  0
   37.4980   23.4180   32.5950 C   0  0  0  0  0  0  0  0  0  0  0  0
   37.8180   23.1750   33.9040 N   0  0  0  0  0  0  0  0  0  0  0  0
   38.1950   24.1420   34.7480 C   0  0  0  0  0  0  0  0  0  0  0  0
   38.2690   25.4040   34.3150 N   0  0  0  0  0  0  0  0  0  0  0  0
   37.3140   24.8650   31.1110 H   0  0  0  0  0  0  0  0  0  0  0  0
   37.2050   22.5950   31.9780 H   0  0  0  0  0  0  0  0  0  0  0  0
   38.5260   23.8320   36.1350 C   0  0  0  0  0  0  0  0  0  0  0  0
   37.7630   24.3980   37.1560 C   0  0  0  0  0  0  0  0  0  0  0  0
   36.9350   25.0580   36.9470 H   0  0  0  0  0  0  0  0  0  0  0  0
   38.0340   24.1360   38.5010 C   0  0  0  0  0  0  0  0  0  0  0  0
   37.4760   24.5480   39.3060 H   0  0  0  0  0  0  0  0  0  0  0  0
   39.1000   23.2860   38.7180 C   0  0  0  0  0  3  0  0  0  0  0  0
   39.8660   22.7160   37.7230 C   0  0  0  0  0  3  0  0  0  0  0  0
   39.5680   22.9980   36.4190 N   0  0  0  0  0  0  0  0  0  0  0  0
  1 17  1  0  0  0  0
  2  3  1  0  0  0  0
  3  4  1  0  0  0  0
  3  9  1  1  0  0  0
  3  1  1  0  0  0  0
  4 11  1  0  0  0  0
  4 10  1  0  0  0  0
  5  4  1  0  0  0  0
  6 13  1  0  0  0  0
  6  5  1  0  0  0  0
  7  6  1  0  0  0  0
  7  2  1  0  0  0  0
  7 14  1  1  0  0  0
  8  2  1  0  0  0  0
 12  6  1  0  0  0  0
 15  7  1  0  0  0  0
 16 15  1  0  0  0  0
 17 22  1  0  0  0  0
 18 19  1  0  0  0  0
 18 17  2  0  0  0  0
 19 20  2  0  0  0  0
 20 21  1  0  0  0  0
 21 25  1  0  0  0  0
 22 21  2  0  0  0  0
 23 18  1  0  0  0  0
 24 19  1  0  0  0  0
 25 32  2  0  0  0  0
 25 26  1  0  0  0  0
 26 28  2  0  0  0  0
 27 26  1  0  0  0  0
 28 30  1  0  0  0  0
 28 29  1  0  0  0  0
 31 30  2  0  0  0  0
 32 31  1  0  0  0  0
M  END
>  <minimizedAffinity>
-5.55361605

$$$$

 OpenBabel03272502193D

 32 34  0  0  1  0  0  0  0  0999 V2000
   37.2080   24.6000   31.1830 S   0  0  0  0  0  0  0  0  0  0  0  0
   35.9040   26.8450   30.4320 N   0  0  0  0  0  0  0  0  0  0  0  0
   36.0740   25.9980   31.5830 C   0  0  2  0  0  0  0  0  0  0  0  0
   36.6940   26.8110   32.6810 C   0  0  0  0  0  0  0  0  0  0  0  0
   36.5370   28.1940   32.4340 O   0  0  0  0  0  0  0  0  0  0  0  0
   37.4050   28.4400   31.3510 C   0  0  0  0  0  0  0  0  0  0  0  0
   37.1420   27.5320   30.1850 C   0  0  2  0  0  0  0  0  0  0  0  0
   35.6580   26.2410   29.6170 H   0  0  0  0  0  0  0  0  0  0  0  0
   35.1310   25.5100   31.9040 H   0  0  0  0  0  0  0  0  0  0  0  0
   36.1900   26.6440   33.6590 H   0  0  0  0  0  0  0  0  0  0  0  0
   37.7740   26.5790   32.7630 H   0  0  0  0  0  0  0  0  0  0  0  0
   37.4560   29.5000   31.0690 H   0  0  0  0  0  0  0  0  0  0  0  0
   38.4240   28.1850   31.7480 H   0  0  0  0  0  0  0  0  0  0  0  0
   37.9610   26.7760   30.0410 H   0  0  0  0  0  0  0  0  0  0  0  0
   37.0030   28.2830   28.9940 O   0  0  0  0  0  0  0  0  0  0  0  0
   37.8010   28.1180   28.4250 H   0  0  0  0  0  0  0  0  0  0  0  0
   37.2250   23.3970   32.4840 C   0  0  0  0  0  0  0  0  0  0  0  0
   36.4820   22.2580   32.1650 C   0  0  0  0  0  0  0  0  0  0  0  0
   36.4190   21.2300   33.1190 C   0  0  0  0  0  0  0  0  0  0  0  0
   37.0890   21.4110   34.2990 N   0  0  0  0  0  0  0  0  0  0  0  0
   37.7910   22.5180   34.5690 C   0  0  0  0  0  0  0  0  0  0  0  0
   37.8520   23.4980   33.6630 N   0  0  0  0  0  0  0  0  0  0  0  0
   35.9390   22.0550   31.2690 H   0  0  0  0  0  0  0  0  0  0  0  0
   35.8780   20.3180   32.9720 H   0  0  0  0  0  0  0  0  0  0  0  0
   38.4890   22.6640   35.8420 C   0  0  0  0  0  0  0  0  0  0  0  0
   37.8490   23.3200   36.8940 C   0  0  0  0  0  0  0  0  0  0  0  0
   36.8520   23.7210   36.7900 H   0  0  0  0  0  0  0  0  0  0  0  0
   38.4700   23.4880   38.1340 C   0  0  0  0  0  0  0  0  0  0  0  0
   38.0150   23.9810   38.9580 H   0  0  0  0  0  0  0  0  0  0  0  0
   39.7410   22.9580   38.2180 C   0  0  0  0  0  3  0  0  0  0  0  0
   40.3910   22.3070   37.1910 C   0  0  0  0  0  3  0  0  0  0  0  0
   39.7490   22.1620   35.9930 N   0  0  0  0  0  0  0  0  0  0  0  0
  1  3  1  0  0  0  0
  1 17  1  0  0  0  0
  2  3  1  0  0  0  0
  3  9  1  1  0  0  0
  3  4  1  0  0  0  0
  4 11  1  0  0  0  0
  4 10  1  0  0  0  0
  5  4  1  0  0  0  0
  6 13  1  0  0  0  0
  6  5  1  0  0  0  0
  7 14  1  6  0  0  0
  7  2  1  0  0  0  0
  7  6  1  0  0  0  0
  8  2  1  0  0  0  0
 12  6  1  0  0  0  0
 15  7  1  0  0  0  0
 16 15  1  0  0  0  0
 17 22  1  0  0  0  0
 18 17  2  0  0  0  0
 18 19  1  0  0  0  0
 19 20  2  0  0  0  0
 20 21  1  0  0  0  0
 21 25  1  0  0  0  0
 22 21  2  0  0  0  0
 23 18  1  0  0  0  0
 24 19  1  0  0  0  0
 25 32  2  0  0  0  0
 25 26  1  0  0  0  0
 26 28  2  0  0  0  0
 27 26  1  0  0  0  0
 28 30  1  0  0  0  0
 28 29  1  0  0  0  0
 31 30  2  0  0  0  0
 32 31  1  0  0  0  0
M  END
>  <minimizedAffinity>
-5.49667406

$$$$

 OpenBabel03272502193D

 32 34  0  0  1  0  0  0  0  0999 V2000
   38.2250   25.7040   36.0580 S   0  0  0  0  0  0  0  0  0  0  0  0
   37.8270   23.1620   36.8830 N   0  0  0  0  0  0  0  0  0  0  0  0
   38.1800   23.8970   35.6970 C   0  0  2  0  0  0  0  0  0  0  0  0
   39.5510   23.4670   35.2640 C   0  0  0  0  0  0  0  0  0  0  0  0
   39.8980   22.2280   35.8490 O   0  0  0  0  0  0  0  0  0  0  0  0
   40.0980   22.5450   37.2080 C   0  0  0  0  0  0  0  0  0  0  0  0
   38.9190   23.2480   37.8150 C   0  0  2  0  0  0  0  0  0  0  0  0
   36.9700   23.5940   37.2920 H   0  0  0  0  0  0  0  0  0  0  0  0
   37.4320   23.7930   34.8850 H   0  0  0  0  0  0  0  0  0  0  0  0
   39.6020   23.2800   34.1680 H   0  0  0  0  0  0  0  0  0  0  0  0
   40.2990   24.2280   35.5590 H   0  0  0  0  0  0  0  0  0  0  0  0
   40.4450   21.6920   37.8050 H   0  0  0  0  0  0  0  0  0  0  0  0
   40.9520   23.2740   37.2010 H   0  0  0  0  0  0  0  0  0  0  0  0
   39.1330   24.3300   38.0310 H   0  0  0  0  0  0  0  0  0  0  0  0
   38.5270   22.6130   39.0160 O   0  0  0  0  0  0  0  0  0  0  0  0
   38.7620   23.2090   39.7760 H   0  0  0  0  0  0  0  0  0  0  0  0
   37.3940   26.6300   34.7970 C   0  0  0  0  0  0  0  0  0  0  0  0
   37.4300   25.9910   33.5560 C   0  0  0  0  0  0  0  0  0  0  0  0
   36.8030   26.6280   32.4730 C   0  0  0  0  0  0  0  0  0  0  0  0
   36.1980   27.8340   32.7050 N   0  0  0  0  0  0  0  0  0  0  0  0
   36.1850   28.4170   33.9090 C   0  0  0  0  0  0  0  0  0  0  0  0
   36.7810   27.8130   34.9420 N   0  0  0  0  0  0  0  0  0  0  0  0
   37.8810   25.0560   33.3090 H   0  0  0  0  0  0  0  0  0  0  0  0
   36.7740   26.2220   31.4840 H   0  0  0  0  0  0  0  0  0  0  0  0
   35.5270   29.7040   34.1060 C   0  0  0  0  0  0  0  0  0  0  0  0
   35.9170   30.5080   35.1760 C   0  0  0  0  0  0  0  0  0  0  0  0
   36.6930   30.2030   35.8620 H   0  0  0  0  0  0  0  0  0  0  0  0
   35.3220   31.7500   35.4120 C   0  0  0  0  0  0  0  0  0  0  0  0
   35.5920   32.3900   36.2160 H   0  0  0  0  0  0  0  0  0  0  0  0
   34.3380   32.0960   34.5080 C   0  0  0  0  0  3  0  0  0  0  0  0
   33.9370   31.3170   33.4440 C   0  0  0  0  0  3  0  0  0  0  0  0
   34.5450   30.1080   33.2480 N   0  0  0  0  0  0  0  0  0  0  0  0
  2  8  1  0  0  0  0
  2  7  1  0  0  0  0
  3  9  1  6  0  0  0
  3  1  1  0  0  0  0
  3  2  1  0  0  0  0
  4 11  1  0  0  0  0
  4  3  1  0  0  0  0
  4  5  1  0  0  0  0
  5  6  1  0  0  0  0
  6 12  1  0  0  0  0
  6  7  1  0  0  0  0
  7 14  1  1  0  0  0
  7 15  1  0  0  0  0
 10  4  1  0  0  0  0
 13  6  1  0  0  0  0
 15 16  1  0  0  0  0
 17 22  1  0  0  0  0
 17  1  1  0  0  0  0
 18 17  2  0  0  0  0
 19 20  2  0  0  0  0
 19 18  1  0  0  0  0
 20 21  1  0  0  0  0
 21 25  1  0  0  0  0
 21 22  2  0  0  0  0
 23 18  1  0  0  0  0
 24 19  1  0  0  0  0
 25 26  1  0  0  0  0
 26 28  2  0  0  0  0
 26 27  1  0  0  0  0
 28 29  1  0  0  0  0
 30 28  1  0  0  0  0
 31 30  2  0  0  0  0
 32 31  1  0  0  0  0
 32 25  2  0  0  0  0
M  END
>  <minimizedAffinity>
-5.36348009

$$$$

 OpenBabel03272502193D

 32 34  0  0  1  0  0  0  0  0999 V2000
   38.4100   23.2420   34.1340 S   0  0  0  0  0  0  0  0  0  0  0  0
   39.9280   23.7670   36.3070 N   0  0  0  0  0  0  0  0  0  0  0  0
   38.9780   24.4120   35.4400 C   0  0  2  0  0  0  0  0  0  0  0  0
   37.7900   24.8200   36.2600 C   0  0  0  0  0  0  0  0  0  0  0  0
   38.1130   24.8480   37.6360 O   0  0  0  0  0  0  0  0  0  0  0  0
   38.2570   23.4860   37.9710 C   0  0  0  0  0  0  0  0  0  0  0  0
   39.2350   22.7750   37.0830 C   0  0  2  0  0  0  0  0  0  0  0  0
   40.6580   23.3150   35.7130 H   0  0  0  0  0  0  0  0  0  0  0  0
   39.4150   25.2660   34.8800 H   0  0  0  0  0  0  0  0  0  0  0  0
   37.4620   25.8590   36.0310 H   0  0  0  0  0  0  0  0  0  0  0  0
   36.9550   24.1110   36.0980 H   0  0  0  0  0  0  0  0  0  0  0  0
   38.4460   23.3210   39.0400 H   0  0  0  0  0  0  0  0  0  0  0  0
   37.2450   23.0420   37.7740 H   0  0  0  0  0  0  0  0  0  0  0  0
   38.7300   22.0500   36.3880 H   0  0  0  0  0  0  0  0  0  0  0  0
   40.1880   22.0720   37.8570 O   0  0  0  0  0  0  0  0  0  0  0  0
   40.0110   21.0990   37.7640 H   0  0  0  0  0  0  0  0  0  0  0  0
   37.4020   24.0650   32.9310 C   0  0  0  0  0  0  0  0  0  0  0  0
   36.6840   23.1690   32.1350 C   0  0  0  0  0  0  0  0  0  0  0  0
   35.8470   23.7020   31.1420 C   0  0  0  0  0  0  0  0  0  0  0  0
   35.7900   25.0640   31.0180 N   0  0  0  0  0  0  0  0  0  0  0  0
   36.4940   25.8910   31.7990 C   0  0  0  0  0  0  0  0  0  0  0  0
   37.2910   25.3870   32.7450 N   0  0  0  0  0  0  0  0  0  0  0  0
   36.6830   22.1030   32.1800 H   0  0  0  0  0  0  0  0  0  0  0  0
   35.2560   23.1020   30.4820 H   0  0  0  0  0  0  0  0  0  0  0  0
   36.3990   27.3370   31.6280 C   0  0  0  0  0  0  0  0  0  0  0  0
   36.0890   28.1310   32.7320 C   0  0  0  0  0  0  0  0  0  0  0  0
   35.9190   27.7040   33.7080 H   0  0  0  0  0  0  0  0  0  0  0  0
   35.9860   29.5210   32.6250 C   0  0  0  0  0  0  0  0  0  0  0  0
   35.7530   30.1580   33.4430 H   0  0  0  0  0  0  0  0  0  0  0  0
   36.2140   30.0190   31.3590 C   0  0  0  0  0  3  0  0  0  0  0  0
   36.5200   29.2520   30.2550 C   0  0  0  0  0  3  0  0  0  0  0  0
   36.6120   27.8960   30.4010 N   0  0  0  0  0  0  0  0  0  0  0  0
  1  3  1  0  0  0  0
  2  7  1  0  0  0  0
  3  9  1  6  0  0  0
  3  4  1  0  0  0  0
  3  2  1  0  0  0  0
  4  5  1  0  0  0  0
  5  6  1  0  0  0  0
  6 12  1  0  0  0  0
  7 14  1  6  0  0  0
  7 15  1  0  0  0  0
  7  6  1  0  0  0  0
  8  2  1  0  0  0  0
 10  4  1  0  0  0  0
 11  4  1  0  0  0  0
 13  6  1  0  0  0  0
 16 15  1  0  0  0  0
 17  1  1  0  0  0  0
 18 23  1  0  0  0  0
 18 17  2  0  0  0  0
 19 18  1  0  0  0  0
 20 19  2  0  0  0  0
 20 21  1  0  0  0  0
 21 22  2  0  0  0  0
 22 17  1  0  0  0  0
 24 19  1  0  0  0  0
 25 21  1  0  0  0  0
 25 26  1  0  0  0  0
 26 27  1  0  0  0  0
 28 26  2  0  0  0  0
 28 29  1  0  0  0  0
 30 28  1  0  0  0  0
 31 32  1  0  0  0  0
 31 30  2  0  0  0  0
 32 25  2  0  0  0  0
M  END
>  <minimizedAffinity>
-5.34231377

$$$$

 OpenBabel03272502193D

 32 34  0  0  1  0  0  0  0  0999 V2000
   38.7850   24.9630   35.4550 S   0  0  0  0  0  0  0  0  0  0  0  0
   38.4080   22.6330   36.7700 N   0  0  0  0  0  0  0  0  0  0  0  0
   38.9110   23.1250   35.5150 C   0  0  2  0  0  0  0  0  0  0  0  0
   40.3590   22.7450   35.4040 C   0  0  0  0  0  0  0  0  0  0  0  0
   40.6760   21.7020   36.3030 O   0  0  0  0  0  0  0  0  0  0  0  0
   40.6240   22.3230   37.5670 C   0  0  0  0  0  0  0  0  0  0  0  0
   39.3200   23.0240   37.8110 C   0  0  2  0  0  0  0  0  0  0  0  0
   37.4690   23.0590   36.9350 H   0  0  0  0  0  0  0  0  0  0  0  0
   38.3180   22.7750   34.6450 H   0  0  0  0  0  0  0  0  0  0  0  0
   40.6050   22.3320   34.4000 H   0  0  0  0  0  0  0  0  0  0  0  0
   40.9990   23.6210   35.6250 H   0  0  0  0  0  0  0  0  0  0  0  0
   40.9160   21.6570   38.3900 H   0  0  0  0  0  0  0  0  0  0  0  0
   41.4220   23.1130   37.5220 H   0  0  0  0  0  0  0  0  0  0  0  0
   39.4290   24.1430   37.8040 H   0  0  0  0  0  0  0  0  0  0  0  0
   38.7700   22.6300   39.0530 O   0  0  0  0  0  0  0  0  0  0  0  0
   38.8370   23.3960   39.6830 H   0  0  0  0  0  0  0  0  0  0  0  0
   37.8430   25.4950   34.0520 C   0  0  0  0  0  0  0  0  0  0  0  0
   37.6140   24.4600   33.1410 C   0  0  0  0  0  0  0  0  0  0  0  0
   36.8770   24.7590   31.9840 C   0  0  0  0  0  0  0  0  0  0  0  0
   36.4310   26.0430   31.8240 N   0  0  0  0  0  0  0  0  0  0  0  0
   36.6710   27.0080   32.7190 C   0  0  0  0  0  0  0  0  0  0  0  0
   37.3730   26.7270   33.8210 N   0  0  0  0  0  0  0  0  0  0  0  0
   37.9320   23.4440   33.2050 H   0  0  0  0  0  0  0  0  0  0  0  0
   36.6480   24.0380   31.2270 H   0  0  0  0  0  0  0  0  0  0  0  0
   36.1740   28.3630   32.5030 C   0  0  0  0  0  0  0  0  0  0  0  0
   35.8610   29.1540   33.6090 C   0  0  0  0  0  0  0  0  0  0  0  0
   35.9770   28.7900   34.6180 H   0  0  0  0  0  0  0  0  0  0  0  0
   35.3820   30.4580   33.4610 C   0  0  0  0  0  0  0  0  0  0  0  0
   35.1330   31.0900   34.2780 H   0  0  0  0  0  0  0  0  0  0  0  0
   35.2520   30.8780   32.1530 C   0  0  0  0  0  3  0  0  0  0  0  0
   35.5550   30.1130   31.0470 C   0  0  0  0  0  3  0  0  0  0  0  0
   36.0210   28.8420   31.2340 N   0  0  0  0  0  0  0  0  0  0  0  0
  1  3  1  0  0  0  0
  2  8  1  0  0  0  0
  2  7  1  0  0  0  0
  3  9  1  6  0  0  0
  3  2  1  0  0  0  0
  4  3  1  0  0  0  0
  4 11  1  0  0  0  0
  4  5  1  0  0  0  0
  5  6  1  0  0  0  0
  6  7  1  0  0  0  0
  6 12  1  0  0  0  0
  7 14  1  6  0  0  0
  7 15  1  0  0  0  0
 10  4  1  0  0  0  0
 13  6  1  0  0  0  0
 15 16  1  0  0  0  0
 17  1  1  0  0  0  0
 18 23  1  0  0  0  0
 18 17  2  0  0  0  0
 19 18  1  0  0  0  0
 20 19  2  0  0  0  0
 20 21  1  0  0  0  0
 21 22  2  0  0  0  0
 22 17  1  0  0  0  0
 24 19  1  0  0  0  0
 25 21  1  0  0  0  0
 25 26  1  0  0  0  0
 26 27  1  0  0  0  0
 28 26  2  0  0  0  0
 28 29  1  0  0  0  0
 30 28  1  0  0  0  0
 31 32  1  0  0  0  0
 31 30  2  0  0  0  0
 32 25  2  0  0  0  0
M  END
>  <minimizedAffinity>
-5.3210969

$$$$

 OpenBabel03272502193D

 32 34  0  0  1  0  0  0  0  0999 V2000
   37.4660   27.2280   32.2340 S   0  0  0  0  0  0  0  0  0  0  0  0
   37.2350   26.6970   34.8740 N   0  0  0  0  0  0  0  0  0  0  0  0
   37.1640   26.0290   33.6010 C   0  0  2  0  0  0  0  0  0  0  0  0
   38.2370   24.9800   33.5570 C   0  0  0  0  0  0  0  0  0  0  0  0
   38.6930   24.6710   34.8590 O   0  0  0  0  0  0  0  0  0  0  0  0
   39.4120   25.8210   35.2420 C   0  0  0  0  0  0  0  0  0  0  0  0
   38.6010   27.0770   35.1130 C   0  0  2  0  0  0  0  0  0  0  0  0
   36.6270   27.5440   34.8320 H   0  0  0  0  0  0  0  0  0  0  0  0
   36.1590   25.6100   33.3890 H   0  0  0  0  0  0  0  0  0  0  0  0
   37.8570   24.0120   33.1580 H   0  0  0  0  0  0  0  0  0  0  0  0
   39.0910   25.3360   32.9490 H   0  0  0  0  0  0  0  0  0  0  0  0
   39.9000   25.7210   36.2210 H   0  0  0  0  0  0  0  0  0  0  0  0
   40.2480   25.8880   34.4950 H   0  0  0  0  0  0  0  0  0  0  0  0
   38.9550   27.7290   34.2690 H   0  0  0  0  0  0  0  0  0  0  0  0
   38.6490   27.8240   36.3140 O   0  0  0  0  0  0  0  0  0  0  0  0
   39.1940   28.6390   36.1530 H   0  0  0  0  0  0  0  0  0  0  0  0
   36.4440   28.6650   32.4060 C   0  0  0  0  0  0  0  0  0  0  0  0
   36.1880   29.2850   31.1800 C   0  0  0  0  0  0  0  0  0  0  0  0
   35.3880   30.4390   31.1850 C   0  0  0  0  0  0  0  0  0  0  0  0
   34.9100   30.8800   32.3900 N   0  0  0  0  0  0  0  0  0  0  0  0
   35.1770   30.2580   33.5440 C   0  0  0  0  0  0  0  0  0  0  0  0
   35.9390   29.1600   33.5430 N   0  0  0  0  0  0  0  0  0  0  0  0
   36.5280   28.9950   30.2110 H   0  0  0  0  0  0  0  0  0  0  0  0
   35.1330   30.9860   30.3020 H   0  0  0  0  0  0  0  0  0  0  0  0
   34.6440   30.7670   34.8040 C   0  0  0  0  0  0  0  0  0  0  0  0
   35.4490   31.5810   35.6010 C   0  0  0  0  0  0  0  0  0  0  0  0
   36.4550   31.8430   35.3100 H   0  0  0  0  0  0  0  0  0  0  0  0
   34.9910   32.0960   36.8160 C   0  0  0  0  0  0  0  0  0  0  0  0
   35.5740   32.7180   37.4490 H   0  0  0  0  0  0  0  0  0  0  0  0
   33.7000   31.7340   37.1430 C   0  0  0  0  0  3  0  0  0  0  0  0
   32.8880   30.9310   36.3710 C   0  0  0  0  0  3  0  0  0  0  0  0
   33.3740   30.4470   35.1890 N   0  0  0  0  0  0  0  0  0  0  0  0
  1 17  1  0  0  0  0
  1  3  1  0  0  0  0
  2  7  1  0  0  0  0
  3  9  1  6  0  0  0
  3  2  1  0  0  0  0
  4  3  1  0  0  0  0
  4  5  1  0  0  0  0
  5  6  1  0  0  0  0
  6 12  1  0  0  0  0
  7 14  1  6  0  0  0
  7  6  1  0  0  0  0
  7 15  1  0  0  0  0
  8  2  1  0  0  0  0
 10  4  1  0  0  0  0
 11  4  1  0  0  0  0
 13  6  1  0  0  0  0
 16 15  1  0  0  0  0
 17 22  1  0  0  0  0
 18 19  1  0  0  0  0
 18 17  2  0  0  0  0
 19 20  2  0  0  0  0
 20 21  1  0  0  0  0
 21 25  1  0  0  0  0
 22 21  2  0  0  0  0
 23 18  1  0  0  0  0
 24 19  1  0  0  0  0
 25 32  2  0  0  0  0
 25 26  1  0  0  0  0
 26 28  2  0  0  0  0
 27 26  1  0  0  0  0
 28 30  1  0  0  0  0
 28 29  1  0  0  0  0
 31 30  2  0  0  0  0
 32 31  1  0  0  0  0
M  END
>  <minimizedAffinity>
-5.29774761

$$$$

 OpenBabel03272502193D

 32 34  0  0  1  0  0  0  0  0999 V2000
   37.4650   26.6920   32.2340 S   0  0  0  0  0  0  0  0  0  0  0  0
   36.2240   27.5550   29.9950 N   0  0  0  0  0  0  0  0  0  0  0  0
   36.0390   27.5310   31.4220 C   0  0  2  0  0  0  0  0  0  0  0  0
   35.9790   28.9470   31.9160 C   0  0  0  0  0  0  0  0  0  0  0  0
   35.6960   29.8380   30.8560 O   0  0  0  0  0  0  0  0  0  0  0  0
   36.8820   29.8360   30.0930 C   0  0  0  0  0  0  0  0  0  0  0  0
   37.3050   28.4530   29.6910 C   0  0  2  0  0  0  0  0  0  0  0  0
   36.4590   26.5880   29.6800 H   0  0  0  0  0  0  0  0  0  0  0  0
   35.1530   26.9400   31.7330 H   0  0  0  0  0  0  0  0  0  0  0  0
   35.1460   29.1010   32.6380 H   0  0  0  0  0  0  0  0  0  0  0  0
   36.9450   29.2290   32.3780 H   0  0  0  0  0  0  0  0  0  0  0  0
   36.8570   30.5410   29.2520 H   0  0  0  0  0  0  0  0  0  0  0  0
   37.6650   30.2320   30.7940 H   0  0  0  0  0  0  0  0  0  0  0  0
   38.2290   28.1150   30.2350 H   0  0  0  0  0  0  0  0  0  0  0  0
   37.5510   28.3950   28.2990 O   0  0  0  0  0  0  0  0  0  0  0  0
   38.5310   28.3000   28.1580 H   0  0  0  0  0  0  0  0  0  0  0  0
   37.6830   25.0490   31.6080 C   0  0  0  0  0  0  0  0  0  0  0  0
   38.6220   24.9930   30.5750 C   0  0  0  0  0  0  0  0  0  0  0  0
   38.8820   23.7420   29.9940 C   0  0  0  0  0  0  0  0  0  0  0  0
   38.2000   22.6580   30.4780 N   0  0  0  0  0  0  0  0  0  0  0  0
   37.3070   22.7510   31.4710 C   0  0  0  0  0  0  0  0  0  0  0  0
   37.0570   23.9410   32.0250 N   0  0  0  0  0  0  0  0  0  0  0  0
   39.1850   25.7950   30.1520 H   0  0  0  0  0  0  0  0  0  0  0  0
   39.5820   23.5930   29.1990 H   0  0  0  0  0  0  0  0  0  0  0  0
   36.6050   21.5660   31.9530 C   0  0  0  0  0  0  0  0  0  0  0  0
   36.2720   20.5600   31.0460 C   0  0  0  0  0  0  0  0  0  0  0  0
   36.5200   20.6350   29.9980 H   0  0  0  0  0  0  0  0  0  0  0  0
   35.6000   19.4040   31.4530 C   0  0  0  0  0  0  0  0  0  0  0  0
   35.3290   18.6180   30.7920 H   0  0  0  0  0  0  0  0  0  0  0  0
   35.3060   19.3540   32.8000 C   0  0  0  0  0  3  0  0  0  0  0  0
   35.6260   20.3360   33.7120 C   0  0  0  0  0  3  0  0  0  0  0  0
   36.2840   21.4520   33.2750 N   0  0  0  0  0  0  0  0  0  0  0  0
  2  3  1  0  0  0  0
  3  9  1  1  0  0  0
  3  4  1  0  0  0  0
  3  1  1  0  0  0  0
  4 11  1  0  0  0  0
  4 10  1  0  0  0  0
  5  4  1  0  0  0  0
  6 13  1  0  0  0  0
  6  5  1  0  0  0  0
  7  2  1  0  0  0  0
  7  6  1  0  0  0  0
  7 14  1  1  0  0  0
  8  2  1  0  0  0  0
 12  6  1  0  0  0  0
 15  7  1  0  0  0  0
 16 15  1  0  0  0  0
 17 22  1  0  0  0  0
 17  1  1  0  0  0  0
 18 17  2  0  0  0  0
 19 20  2  0  0  0  0
 19 18  1  0  0  0  0
 20 21  1  0  0  0  0
 21 25  1  0  0  0  0
 21 22  2  0  0  0  0
 23 18  1  0  0  0  0
 24 19  1  0  0  0  0
 25 32  1  0  0  0  0
 26 28  1  0  0  0  0
 26 25  2  0  0  0  0
 27 26  1  0  0  0  0
 28 30  2  0  0  0  0
 29 28  1  0  0  0  0
 30 31  1  0  0  0  0
 32 31  2  0  0  0  0
M  END
>  <minimizedAffinity>
-5.11731529

$$$$

 OpenBabel03272502193D

 32 34  0  0  1  0  0  0  0  0999 V2000
   38.6310   26.1470   33.1230 S   0  0  0  0  0  0  0  0  0  0  0  0
   37.7160   25.9710   30.5860 N   0  0  0  0  0  0  0  0  0  0  0  0
   38.0080   25.1300   31.7170 C   0  0  2  0  0  0  0  0  0  0  0  0
   36.7360   24.4570   32.1460 C   0  0  0  0  0  0  0  0  0  0  0  0
   35.7720   24.4970   31.1130 O   0  0  0  0  0  0  0  0  0  0  0  0
   35.3920   25.8530   31.0640 C   0  0  0  0  0  0  0  0  0  0  0  0
   36.5650   26.7740   30.9000 C   0  0  2  0  0  0  0  0  0  0  0  0
   38.5450   26.5810   30.4110 H   0  0  0  0  0  0  0  0  0  0  0  0
   38.8210   24.4020   31.5160 H   0  0  0  0  0  0  0  0  0  0  0  0
   36.8860   23.3720   32.3450 H   0  0  0  0  0  0  0  0  0  0  0  0
   36.3260   24.9580   33.0440 H   0  0  0  0  0  0  0  0  0  0  0  0
   34.5850   26.0510   30.3460 H   0  0  0  0  0  0  0  0  0  0  0  0
   34.9500   26.0550   32.0760 H   0  0  0  0  0  0  0  0  0  0  0  0
   36.7750   27.3690   31.8310 H   0  0  0  0  0  0  0  0  0  0  0  0
   36.3460   27.6710   29.8290 O   0  0  0  0  0  0  0  0  0  0  0  0
   36.2000   28.5790   30.2050 H   0  0  0  0  0  0  0  0  0  0  0  0
   38.8520   25.1600   34.5780 C   0  0  0  0  0  0  0  0  0  0  0  0
   37.8620   25.3940   35.5350 C   0  0  0  0  0  0  0  0  0  0  0  0
   37.9300   24.6700   36.7360 C   0  0  0  0  0  0  0  0  0  0  0  0
   38.9610   23.7830   36.8900 N   0  0  0  0  0  0  0  0  0  0  0  0
   39.8930   23.5870   35.9500 C   0  0  0  0  0  0  0  0  0  0  0  0
   39.8310   24.2750   34.8050 N   0  0  0  0  0  0  0  0  0  0  0  0
   37.0360   26.0660   35.4780 H   0  0  0  0  0  0  0  0  0  0  0  0
   37.2210   24.7740   37.5310 H   0  0  0  0  0  0  0  0  0  0  0  0
   40.9740   22.6300   36.1610 C   0  0  0  0  0  0  0  0  0  0  0  0
   40.9970   21.8830   37.3380 C   0  0  0  0  0  0  0  0  0  0  0  0
   40.2360   21.9940   38.0960 H   0  0  0  0  0  0  0  0  0  0  0  0
   42.0080   20.9530   37.5930 C   0  0  0  0  0  0  0  0  0  0  0  0
   42.0590   20.3660   38.4770 H   0  0  0  0  0  0  0  0  0  0  0  0
   42.9550   20.8460   36.5950 C   0  0  0  0  0  3  0  0  0  0  0  0
   42.9510   21.5740   35.4250 C   0  0  0  0  0  3  0  0  0  0  0  0
   41.9440   22.4740   35.2130 N   0  0  0  0  0  0  0  0  0  0  0  0
  1 17  1  0  0  0  0
  2  7  1  0  0  0  0
  2  3  1  0  0  0  0
  3  9  1  6  0  0  0
  3  4  1  0  0  0  0
  3  1  1  0  0  0  0
  4 10  1  0  0  0  0
  4 11  1  0  0  0  0
  5  4  1  0  0  0  0
  6  5  1  0  0  0  0
  6 13  1  0  0  0  0
  7  6  1  0  0  0  0
  7 14  1  1  0  0  0
  8  2  1  0  0  0  0
 12  6  1  0  0  0  0
 15 16  1  0  0  0  0
 15  7  1  0  0  0  0
 17 22  2  0  0  0  0
 17 18  1  0  0  0  0
 18 19  2  0  0  0  0
 19 20  1  0  0  0  0
 19 24  1  0  0  0  0
 21 25  1  0  0  0  0
 21 20  2  0  0  0  0
 22 21  1  0  0  0  0
 23 18  1  0  0  0  0
 25 26  1  0  0  0  0
 26 28  2  0  0  0  0
 26 27  1  0  0  0  0
 28 29  1  0  0  0  0
 30 28  1  0  0  0  0
 31 30  2  0  0  0  0
 32 31  1  0  0  0  0
 32 25  2  0  0  0  0
M  END
>  <minimizedAffinity>
-5.09454346

$$$$

 OpenBabel03272502193D

 32 34  0  0  1  0  0  0  0  0999 V2000
   37.1560   26.5250   32.7060 S   0  0  0  0  0  0  0  0  0  0  0  0
   36.3020   25.0130   30.6350 N   0  0  0  0  0  0  0  0  0  0  0  0
   37.3300   25.9660   30.9580 C   0  0  2  0  0  0  0  0  0  0  0  0
   38.6640   25.2930   30.8060 C   0  0  0  0  0  0  0  0  0  0  0  0
   38.5520   24.1260   30.0170 O   0  0  0  0  0  0  0  0  0  0  0  0
   37.8540   23.2270   30.8480 C   0  0  0  0  0  0  0  0  0  0  0  0
   36.5640   23.7980   31.3590 C   0  0  2  0  0  0  0  0  0  0  0  0
   35.3830   25.4140   30.9250 H   0  0  0  0  0  0  0  0  0  0  0  0
   37.2600   26.8970   30.3580 H   0  0  0  0  0  0  0  0  0  0  0  0
   39.3920   25.9310   30.2570 H   0  0  0  0  0  0  0  0  0  0  0  0
   39.0670   25.0200   31.8010 H   0  0  0  0  0  0  0  0  0  0  0  0
   37.7380   22.2290   30.4060 H   0  0  0  0  0  0  0  0  0  0  0  0
   38.5290   23.0860   31.7350 H   0  0  0  0  0  0  0  0  0  0  0  0
   36.6040   24.0270   32.4590 H   0  0  0  0  0  0  0  0  0  0  0  0
   35.4960   22.9020   31.1210 O   0  0  0  0  0  0  0  0  0  0  0  0
   35.2050   22.5220   31.9920 H   0  0  0  0  0  0  0  0  0  0  0  0
   36.5530   28.1890   32.7890 C   0  0  0  0  0  0  0  0  0  0  0  0
   36.7690   28.8930   31.6020 C   0  0  0  0  0  0  0  0  0  0  0  0
   36.3340   30.2270   31.5450 C   0  0  0  0  0  0  0  0  0  0  0  0
   35.7270   30.7500   32.6550 N   0  0  0  0  0  0  0  0  0  0  0  0
   35.5380   30.0430   33.7760 C   0  0  0  0  0  0  0  0  0  0  0  0
   35.9510   28.7730   33.8330 N   0  0  0  0  0  0  0  0  0  0  0  0
   37.2330   28.5480   30.7060 H   0  0  0  0  0  0  0  0  0  0  0  0
   36.4520   30.8510   30.6840 H   0  0  0  0  0  0  0  0  0  0  0  0
   34.8850   30.6440   34.9340 C   0  0  0  0  0  0  0  0  0  0  0  0
   35.6310   31.4630   35.7820 C   0  0  0  0  0  0  0  0  0  0  0  0
   36.6760   31.6630   35.6040 H   0  0  0  0  0  0  0  0  0  0  0  0
   35.0570   32.0650   36.9050 C   0  0  0  0  0  0  0  0  0  0  0  0
   35.5920   32.6940   37.5730 H   0  0  0  0  0  0  0  0  0  0  0  0
   33.7190   31.7810   37.0890 C   0  0  0  0  0  3  0  0  0  0  0  0
   32.9650   30.9750   36.2640 C   0  0  0  0  0  3  0  0  0  0  0  0
   33.5630   30.4040   35.1750 N   0  0  0  0  0  0  0  0  0  0  0  0
  1 17  1  0  0  0  0
  2  8  1  0  0  0  0
  2  3  1  0  0  0  0
  2  7  1  0  0  0  0
  3  9  1  6  0  0  0
  3  1  1  0  0  0  0
  4  3  1  0  0  0  0
  4 11  1  0  0  0  0
  5  4  1  0  0  0  0
  5  6  1  0  0  0  0
  6  7  1  0  0  0  0
  6 13  1  0  0  0  0
  7 14  1  1  0  0  0
 10  4  1  0  0  0  0
 12  6  1  0  0  0  0
 15  7  1  0  0  0  0
 15 16  1  0  0  0  0
 17 22  1  0  0  0  0
 18 17  2  0  0  0  0
 19 18  1  0  0  0  0
 19 20  2  0  0  0  0
 20 21  1  0  0  0  0
 21 22  2  0  0  0  0
 21 25  1  0  0  0  0
 23 18  1  0  0  0  0
 24 19  1  0  0  0  0
 25 32  2  0  0  0  0
 25 26  1  0  0  0  0
 26 28  2  0  0  0  0
 27 26  1  0  0  0  0
 28 30  1  0  0  0  0
 28 29  1  0  0  0  0
 31 30  2  0  0  0  0
 32 31  1  0  0  0  0
M  END
>  <minimizedAffinity>
-4.99665689

$$$$
