
 OpenBabel03262521493D

 31 33  0  0  1  0  0  0  0  0999 V2000
   37.2460   29.2550   50.3810 C   0  0  0  0  0  0  0  0  0  0  0  0
   37.3460   30.5880   50.7720 C   0  0  0  0  0  0  0  0  0  0  0  0
   36.5440   31.5390   50.0990 C   0  0  0  0  0  0  0  0  0  0  0  0
   35.7300   31.0820   49.1140 N   0  0  0  0  0  0  0  0  0  0  0  0
   35.6640   29.7890   48.7700 C   0  0  0  0  0  0  0  0  0  0  0  0
   36.4230   28.8890   49.4060 N   0  0  0  0  0  0  0  0  0  0  0  0
   34.7930   29.3750   47.7350 N   0  0  0  0  0  0  0  0  0  0  0  0
   34.1950   28.0450   47.7220 C   0  0  0  0  0  0  0  0  0  0  0  0
   32.7300   28.1620   47.5960 C   0  0  0  0  0  0  0  0  0  0  0  0
   32.2110   29.3810   47.1670 N   0  0  0  0  0  0  0  0  0  0  0  0
   33.0170   30.3070   46.4500 C   0  0  0  0  0  0  0  0  0  0  0  0
   34.4660   30.2860   46.6320 C   0  0  2  0  0  0  0  0  0  0  0  0
   37.8890   28.5850   50.9400 H   0  0  0  0  0  0  0  0  0  0  0  0
   37.9650   31.0160   51.5370 H   0  0  0  0  0  0  0  0  0  0  0  0
   36.4990   32.5910   50.2720 H   0  0  0  0  0  0  0  0  0  0  0  0
   34.5690   27.5980   46.7530 H   0  0  0  0  0  0  0  0  0  0  0  0
   34.5610   27.4170   48.5350 H   0  0  0  0  0  0  0  0  0  0  0  0
   32.2790   27.8840   48.5890 H   0  0  0  0  0  0  0  0  0  0  0  0
   32.3350   27.3460   46.9220 H   0  0  0  0  0  0  0  0  0  0  0  0
   31.3030   29.2690   46.6940 H   0  0  0  0  0  0  0  0  0  0  0  0
   32.7200   30.2750   45.3920 H   0  0  0  0  0  0  0  0  0  0  0  0
   32.6610   31.3320   46.7910 H   0  0  0  0  0  0  0  0  0  0  0  0
   34.9060   31.2960   46.8770 H   0  0  0  0  0  0  0  0  0  0  0  0
   35.2170   29.8190   45.4530 C   0  0  0  0  0  0  0  0  0  0  0  0
   34.9590   28.9390   44.4320 C   0  0  0  0  0  0  0  0  0  0  0  0
   33.9860   28.4810   44.5040 H   0  0  0  0  0  0  0  0  0  0  0  0
   35.8340   28.6590   43.4140 C   0  0  0  0  0  0  0  0  0  0  0  0
   35.4800   27.9510   42.6990 H   0  0  0  0  0  0  0  0  0  0  0  0
   37.0620   29.2680   43.3580 C   0  0  0  0  0  0  0  0  0  0  0  0
   37.3140   30.1500   44.3840 C   0  0  0  0  0  0  0  0  0  0  0  0
   36.4440   30.4010   45.3620 N   0  0  0  0  0  0  0  0  0  0  0  0
  1  2  1  0  0  0  0
  1 13  1  0  0  0  0
  2 14  1  0  0  0  0
  3 15  1  0  0  0  0
  3  2  2  0  0  0  0
  4  3  1  0  0  0  0
  5  4  2  0  0  0  0
  5  6  1  0  0  0  0
  6  1  2  0  0  0  0
  7  5  1  0  0  0  0
  8  7  1  0  0  0  0
  8 17  1  0  0  0  0
  9  8  1  0  0  0  0
  9 18  1  0  0  0  0
 10  9  1  0  0  0  0
 11 12  1  0  0  0  0
 11 22  1  0  0  0  0
 11 10  1  0  0  0  0
 12 23  1  1  0  0  0
 12  7  1  0  0  0  0
 16  8  1  0  0  0  0
 19  9  1  0  0  0  0
 20 10  1  0  0  0  0
 21 11  1  0  0  0  0
 24 12  1  0  0  0  0
 25 26  1  0  0  0  0
 25 24  2  0  0  0  0
 27 25  1  0  0  0  0
 28 27  1  0  0  0  0
 29 27  2  0  0  0  0
 29 30  1  0  0  0  0
 30 31  2  0  0  0  0
 31 24  1  0  0  0  0
M  END
>  <minimizedAffinity>
-4.66603947

>  <minimizedRMSD>
1.16651189

$$$$
