
 OpenBabel03272508183D

 24 26  0  0  0  0  0  0  0  0999 V2000
   39.2920   23.5820   36.7140 C   0  0  0  0  0  0  0  0  0  0  0  0
   39.5270   24.4580   35.6660 C   0  0  0  0  0  0  0  0  0  0  0  0
   40.7800   24.2920   35.0460 C   0  0  0  0  0  0  0  0  0  0  0  0
   41.6570   23.3590   35.4530 N   0  0  0  0  0  0  0  0  0  0  0  0
   41.3790   22.5210   36.4900 C   0  0  0  0  0  0  0  0  0  0  0  0
   40.1990   22.6490   37.1040 N   0  0  0  0  0  0  0  0  0  0  0  0
   41.2040   24.8290   34.2290 H   0  0  0  0  0  0  0  0  0  0  0  0
   41.9790   21.7480   36.9070 H   0  0  0  0  0  0  0  0  0  0  0  0
   37.9190   23.6130   37.3490 C   0  0  0  0  0  0  0  0  0  0  0  0
   37.6630   22.9680   38.6180 C   0  0  0  0  0  0  0  0  0  0  0  0
   37.9520   24.4500   38.6460 C   0  0  0  0  0  0  0  0  0  0  0  0
   37.0630   24.0020   36.7320 H   0  0  0  0  0  0  0  0  0  0  0  0
   38.4870   22.2850   38.9830 H   0  0  0  0  0  0  0  0  0  0  0  0
   36.6850   22.5720   38.9140 H   0  0  0  0  0  0  0  0  0  0  0  0
   37.0620   25.0410   38.9210 H   0  0  0  0  0  0  0  0  0  0  0  0
   38.9040   24.7690   39.0570 H   0  0  0  0  0  0  0  0  0  0  0  0
   38.6630   25.4970   35.1620 C   0  0  0  0  0  0  0  0  0  0  0  0
   38.6100   26.7090   35.7840 C   0  0  0  0  0  0  0  0  0  0  0  0
   39.1680   27.0010   36.6630 H   0  0  0  0  0  0  0  0  0  0  0  0
   37.8200   27.7570   35.3680 C   0  0  0  0  0  0  0  0  0  0  0  0
   37.7760   28.7380   35.8700 H   0  0  0  0  0  0  0  0  0  0  0  0
   37.0210   27.6470   34.2790 C   0  0  0  0  0  3  0  0  0  0  0  0
   37.0830   26.4200   33.6590 C   0  0  0  0  0  3  0  0  0  0  0  0
   37.8630   25.4420   34.1030 N   0  0  0  0  0  0  0  0  0  0  0  0
  1  6  1  0  0  0  0
  1  9  1  0  0  0  0
  2  1  2  0  0  0  0
  3  4  2  0  0  0  0
  3  2  1  0  0  0  0
  4  5  1  0  0  0  0
  5  8  1  0  0  0  0
  5  6  2  0  0  0  0
  7  3  1  0  0  0  0
  9 10  1  0  0  0  0
  9 11  1  0  0  0  0
 10 11  1  0  0  0  0
 10 14  1  0  0  0  0
 10 13  1  0  0  0  0
 11 15  1  0  0  0  0
 11 16  1  0  0  0  0
 12  9  1  0  0  0  0
 17  2  1  0  0  0  0
 17 18  1  0  0  0  0
 18 19  1  0  0  0  0
 20 18  2  0  0  0  0
 20 21  1  0  0  0  0
 22 20  1  0  0  0  0
 23 24  1  0  0  0  0
 23 22  2  0  0  0  0
 24 17  2  0  0  0  0
M  END
>  <minimizedAffinity>
-4.47403002

$$$$

 OpenBabel03272508183D

 24 26  0  0  0  0  0  0  0  0999 V2000
   39.1060   24.9020   33.7690 C   0  0  0  0  0  0  0  0  0  0  0  0
   38.5570   23.8940   34.5460 C   0  0  0  0  0  0  0  0  0  0  0  0
   37.7740   22.9730   33.8260 C   0  0  0  0  0  0  0  0  0  0  0  0
   37.5860   23.0810   32.5010 N   0  0  0  0  0  0  0  0  0  0  0  0
   38.1460   24.0910   31.7790 C   0  0  0  0  0  0  0  0  0  0  0  0
   38.8970   24.9860   32.4290 N   0  0  0  0  0  0  0  0  0  0  0  0
   37.2450   22.1170   34.1800 H   0  0  0  0  0  0  0  0  0  0  0  0
   38.0770   24.2900   30.7370 H   0  0  0  0  0  0  0  0  0  0  0  0
   40.0620   25.8590   34.4460 C   0  0  0  0  0  0  0  0  0  0  0  0
   40.3940   27.1360   33.8540 C   0  0  0  0  0  0  0  0  0  0  0  0
   39.3110   27.1250   34.9070 C   0  0  0  0  0  0  0  0  0  0  0  0
   40.6410   25.4820   35.3330 H   0  0  0  0  0  0  0  0  0  0  0  0
   40.0570   27.2690   32.7820 H   0  0  0  0  0  0  0  0  0  0  0  0
   41.3450   27.6560   34.0190 H   0  0  0  0  0  0  0  0  0  0  0  0
   39.6310   27.6260   35.8360 H   0  0  0  0  0  0  0  0  0  0  0  0
   38.2900   27.2950   34.5800 H   0  0  0  0  0  0  0  0  0  0  0  0
   38.6860   23.6960   35.9690 C   0  0  0  0  0  0  0  0  0  0  0  0
   37.7800   24.2490   36.8250 C   0  0  0  0  0  0  0  0  0  0  0  0
   36.9290   24.8560   36.5490 H   0  0  0  0  0  0  0  0  0  0  0  0
   37.8240   24.1060   38.1940 C   0  0  0  0  0  0  0  0  0  0  0  0
   37.0920   24.5530   38.8870 H   0  0  0  0  0  0  0  0  0  0  0  0
   38.8000   23.3840   38.7950 C   0  0  0  0  0  3  0  0  0  0  0  0
   39.7080   22.8310   37.9220 C   0  0  0  0  0  3  0  0  0  0  0  0
   39.6190   23.0000   36.6090 N   0  0  0  0  0  0  0  0  0  0  0  0
  1  9  1  0  0  0  0
  1  2  1  0  0  0  0
  2 17  1  0  0  0  0
  3  7  1  0  0  0  0
  3  2  2  0  0  0  0
  4  3  1  0  0  0  0
  5  6  1  0  0  0  0
  5  4  2  0  0  0  0
  6  1  2  0  0  0  0
  8  5  1  0  0  0  0
  9 11  1  0  0  0  0
  9 12  1  0  0  0  0
 10 14  1  0  0  0  0
 10  9  1  0  0  0  0
 10 11  1  0  0  0  0
 11 15  1  0  0  0  0
 13 10  1  0  0  0  0
 16 11  1  0  0  0  0
 17 24  2  0  0  0  0
 17 18  1  0  0  0  0
 18 20  2  0  0  0  0
 19 18  1  0  0  0  0
 20 22  1  0  0  0  0
 20 21  1  0  0  0  0
 23 22  2  0  0  0  0
 24 23  1  0  0  0  0
M  END
>  <minimizedAffinity>
-4.30517864

$$$$

 OpenBabel03272508183D

 24 26  0  0  0  0  0  0  0  0999 V2000
   36.8770   27.8450   33.4790 C   0  0  0  0  0  0  0  0  0  0  0  0
   36.0730   28.9480   33.2430 C   0  0  0  0  0  0  0  0  0  0  0  0
   36.1130   29.4180   31.9170 C   0  0  0  0  0  0  0  0  0  0  0  0
   36.8740   28.8330   30.9780 N   0  0  0  0  0  0  0  0  0  0  0  0
   37.6490   27.7490   31.2580 C   0  0  0  0  0  0  0  0  0  0  0  0
   37.6370   27.2740   32.5080 N   0  0  0  0  0  0  0  0  0  0  0  0
   35.5980   30.2410   31.4780 H   0  0  0  0  0  0  0  0  0  0  0  0
   38.2900   27.1970   30.6140 H   0  0  0  0  0  0  0  0  0  0  0  0
   36.7930   27.2030   34.8470 C   0  0  0  0  0  0  0  0  0  0  0  0
   37.6590   26.1060   35.2180 C   0  0  0  0  0  0  0  0  0  0  0  0
   38.0800   27.4910   35.6490 C   0  0  0  0  0  0  0  0  0  0  0  0
   35.9280   27.4850   35.5070 H   0  0  0  0  0  0  0  0  0  0  0  0
   38.2400   25.6440   34.3640 H   0  0  0  0  0  0  0  0  0  0  0  0
   37.3890   25.3370   35.9510 H   0  0  0  0  0  0  0  0  0  0  0  0
   38.0070   27.6250   36.7420 H   0  0  0  0  0  0  0  0  0  0  0  0
   38.9370   27.9340   35.1520 H   0  0  0  0  0  0  0  0  0  0  0  0
   35.2340   29.6550   34.1790 C   0  0  0  0  0  0  0  0  0  0  0  0
   35.7560   30.6440   34.9600 C   0  0  0  0  0  0  0  0  0  0  0  0
   36.7830   30.9780   34.9650 H   0  0  0  0  0  0  0  0  0  0  0  0
   35.0270   31.3720   35.8730 C   0  0  0  0  0  0  0  0  0  0  0  0
   35.4480   32.1710   36.5060 H   0  0  0  0  0  0  0  0  0  0  0  0
   33.7040   31.1460   36.0590 C   0  0  0  0  0  3  0  0  0  0  0  0
   33.1880   30.1470   35.2660 C   0  0  0  0  0  3  0  0  0  0  0  0
   33.9360   29.4750   34.4000 N   0  0  0  0  0  0  0  0  0  0  0  0
  1  9  1  0  0  0  0
  2  1  1  0  0  0  0
  2 17  1  0  0  0  0
  3  2  2  0  0  0  0
  4  5  2  0  0  0  0
  4  3  1  0  0  0  0
  5  6  1  0  0  0  0
  6  1  2  0  0  0  0
  7  3  1  0  0  0  0
  8  5  1  0  0  0  0
  9 10  1  0  0  0  0
  9 12  1  0  0  0  0
  9 11  1  0  0  0  0
 10 11  1  0  0  0  0
 10 14  1  0  0  0  0
 11 15  1  0  0  0  0
 13 10  1  0  0  0  0
 16 11  1  0  0  0  0
 17 24  2  0  0  0  0
 17 18  1  0  0  0  0
 18 19  1  0  0  0  0
 18 20  2  0  0  0  0
 20 22  1  0  0  0  0
 20 21  1  0  0  0  0
 23 22  2  0  0  0  0
 24 23  1  0  0  0  0
M  END
>  <minimizedAffinity>
-4.26440716

$$$$

 OpenBabel03272508183D

 24 26  0  0  0  0  0  0  0  0999 V2000
   37.2230   24.3260   32.4430 C   0  0  0  0  0  0  0  0  0  0  0  0
   36.2450   23.6380   31.7430 C   0  0  0  0  0  0  0  0  0  0  0  0
   35.3100   24.4670   31.0940 C   0  0  0  0  0  0  0  0  0  0  0  0
   35.3790   25.8070   31.1630 N   0  0  0  0  0  0  0  0  0  0  0  0
   36.3600   26.4370   31.8660 C   0  0  0  0  0  0  0  0  0  0  0  0
   37.2670   25.6830   32.4960 N   0  0  0  0  0  0  0  0  0  0  0  0
   34.4690   24.1960   30.4980 H   0  0  0  0  0  0  0  0  0  0  0  0
   36.5270   27.4790   31.9990 H   0  0  0  0  0  0  0  0  0  0  0  0
   38.3360   23.5100   33.0620 C   0  0  0  0  0  0  0  0  0  0  0  0
   39.2660   24.0970   34.0020 C   0  0  0  0  0  0  0  0  0  0  0  0
   38.0920   23.3390   34.5770 C   0  0  0  0  0  0  0  0  0  0  0  0
   38.5300   22.4840   32.6460 H   0  0  0  0  0  0  0  0  0  0  0  0
   39.2240   25.2250   34.0760 H   0  0  0  0  0  0  0  0  0  0  0  0
   40.2950   23.7460   34.1420 H   0  0  0  0  0  0  0  0  0  0  0  0
   38.4030   22.4000   35.0630 H   0  0  0  0  0  0  0  0  0  0  0  0
   37.3120   23.9150   35.0640 H   0  0  0  0  0  0  0  0  0  0  0  0
   36.0750   22.2120   31.6170 C   0  0  0  0  0  0  0  0  0  0  0  0
   35.1630   21.5570   32.3910 C   0  0  0  0  0  0  0  0  0  0  0  0
   34.5170   22.0040   33.1330 H   0  0  0  0  0  0  0  0  0  0  0  0
   34.9330   20.2000   32.3320 C   0  0  0  0  0  0  0  0  0  0  0  0
   34.1960   19.6700   32.9570 H   0  0  0  0  0  0  0  0  0  0  0  0
   35.6180   19.4070   31.4740 C   0  0  0  0  0  3  0  0  0  0  0  0
   36.5350   20.0780   30.6980 C   0  0  0  0  0  3  0  0  0  0  0  0
   36.7180   21.3890   30.7950 N   0  0  0  0  0  0  0  0  0  0  0  0
  1  6  1  0  0  0  0
  1  9  1  0  0  0  0
  2  1  2  0  0  0  0
  3  4  2  0  0  0  0
  3  2  1  0  0  0  0
  4  5  1  0  0  0  0
  5  8  1  0  0  0  0
  5  6  2  0  0  0  0
  7  3  1  0  0  0  0
  9 10  1  0  0  0  0
  9 11  1  0  0  0  0
 10 13  1  0  0  0  0
 10 14  1  0  0  0  0
 10 11  1  0  0  0  0
 11 15  1  0  0  0  0
 11 16  1  0  0  0  0
 12  9  1  0  0  0  0
 17  2  1  0  0  0  0
 17 18  1  0  0  0  0
 18 19  1  0  0  0  0
 20 18  2  0  0  0  0
 20 21  1  0  0  0  0
 22 20  1  0  0  0  0
 23 24  1  0  0  0  0
 23 22  2  0  0  0  0
 24 17  2  0  0  0  0
M  END
>  <minimizedAffinity>
-4.05792856

$$$$

 OpenBabel03272508183D

 24 26  0  0  0  0  0  0  0  0999 V2000
   36.9440   27.6440   33.8340 C   0  0  0  0  0  0  0  0  0  0  0  0
   36.5920   27.2350   32.5580 C   0  0  0  0  0  0  0  0  0  0  0  0
   35.5330   27.9670   31.9890 C   0  0  0  0  0  0  0  0  0  0  0  0
   34.9290   28.9710   32.6460 N   0  0  0  0  0  0  0  0  0  0  0  0
   35.3100   29.3360   33.9010 C   0  0  0  0  0  0  0  0  0  0  0  0
   36.3140   28.6630   34.4740 N   0  0  0  0  0  0  0  0  0  0  0  0
   35.0740   27.8560   31.0340 H   0  0  0  0  0  0  0  0  0  0  0  0
   34.9200   30.1050   34.5250 H   0  0  0  0  0  0  0  0  0  0  0  0
   38.1550   26.9910   34.4640 C   0  0  0  0  0  0  0  0  0  0  0  0
   38.4880   27.2060   35.8540 C   0  0  0  0  0  0  0  0  0  0  0  0
   37.7120   25.9540   35.5180 C   0  0  0  0  0  0  0  0  0  0  0  0
   38.8850   26.4730   33.7830 H   0  0  0  0  0  0  0  0  0  0  0  0
   37.9110   28.0370   36.3620 H   0  0  0  0  0  0  0  0  0  0  0  0
   39.5080   27.1560   36.2520 H   0  0  0  0  0  0  0  0  0  0  0  0
   38.3180   25.0420   35.6540 H   0  0  0  0  0  0  0  0  0  0  0  0
   36.6730   25.9090   35.8250 H   0  0  0  0  0  0  0  0  0  0  0  0
   37.1650   26.1680   31.7750 C   0  0  0  0  0  0  0  0  0  0  0  0
   36.5610   24.9460   31.7330 C   0  0  0  0  0  0  0  0  0  0  0  0
   35.6540   24.6640   32.2480 H   0  0  0  0  0  0  0  0  0  0  0  0
   37.0340   23.8750   31.0080 C   0  0  0  0  0  0  0  0  0  0  0  0
   36.5480   22.8870   30.9730 H   0  0  0  0  0  0  0  0  0  0  0  0
   38.1650   23.9710   30.2670 C   0  0  0  0  0  3  0  0  0  0  0  0
   38.7650   25.2080   30.3160 C   0  0  0  0  0  3  0  0  0  0  0  0
   38.2660   26.2080   31.0330 N   0  0  0  0  0  0  0  0  0  0  0  0
  1  9  1  0  0  0  0
  1  6  1  0  0  0  0
  2  1  2  0  0  0  0
  3  2  1  0  0  0  0
  3  4  2  0  0  0  0
  4  5  1  0  0  0  0
  5  6  2  0  0  0  0
  5  8  1  0  0  0  0
  7  3  1  0  0  0  0
  9 11  1  0  0  0  0
  9 10  1  0  0  0  0
 10 14  1  0  0  0  0
 10 13  1  0  0  0  0
 11 15  1  0  0  0  0
 11 16  1  0  0  0  0
 11 10  1  0  0  0  0
 12  9  1  0  0  0  0
 17  2  1  0  0  0  0
 18 17  1  0  0  0  0
 18 19  1  0  0  0  0
 20 18  2  0  0  0  0
 21 20  1  0  0  0  0
 22 23  2  0  0  0  0
 22 20  1  0  0  0  0
 23 24  1  0  0  0  0
 24 17  2  0  0  0  0
M  END
>  <minimizedAffinity>
-4.0512886

$$$$

 OpenBabel03272508183D

 24 26  0  0  0  0  0  0  0  0999 V2000
   38.1530   24.8840   35.3420 C   0  0  0  0  0  0  0  0  0  0  0  0
   38.1540   23.8830   34.3840 C   0  0  0  0  0  0  0  0  0  0  0  0
   37.9430   22.5910   34.9000 C   0  0  0  0  0  0  0  0  0  0  0  0
   37.7610   22.3700   36.2120 N   0  0  0  0  0  0  0  0  0  0  0  0
   37.7690   23.3880   37.1170 C   0  0  0  0  0  0  0  0  0  0  0  0
   37.9670   24.6300   36.6630 N   0  0  0  0  0  0  0  0  0  0  0  0
   37.9000   21.6590   34.3850 H   0  0  0  0  0  0  0  0  0  0  0  0
   37.6380   23.3500   38.1710 H   0  0  0  0  0  0  0  0  0  0  0  0
   38.2480   26.3130   34.8540 C   0  0  0  0  0  0  0  0  0  0  0  0
   38.4910   27.4060   35.7680 C   0  0  0  0  0  0  0  0  0  0  0  0
   39.6860   26.8430   35.0350 C   0  0  0  0  0  0  0  0  0  0  0  0
   37.9540   26.5250   33.7890 H   0  0  0  0  0  0  0  0  0  0  0  0
   38.4000   27.1430   36.8650 H   0  0  0  0  0  0  0  0  0  0  0  0
   38.1480   28.4330   35.5970 H   0  0  0  0  0  0  0  0  0  0  0  0
   40.0890   27.5530   34.2930 H   0  0  0  0  0  0  0  0  0  0  0  0
   40.4030   26.2680   35.6100 H   0  0  0  0  0  0  0  0  0  0  0  0
   38.3520   24.0120   32.9610 C   0  0  0  0  0  0  0  0  0  0  0  0
   37.2820   24.0190   32.1160 C   0  0  0  0  0  0  0  0  0  0  0  0
   36.2430   23.9320   32.4000 H   0  0  0  0  0  0  0  0  0  0  0  0
   37.3790   24.1430   30.7480 C   0  0  0  0  0  0  0  0  0  0  0  0
   36.5150   24.1490   30.0630 H   0  0  0  0  0  0  0  0  0  0  0  0
   38.5810   24.2700   30.1360 C   0  0  0  0  0  3  0  0  0  0  0  0
   39.6540   24.2620   30.9980 C   0  0  0  0  0  3  0  0  0  0  0  0
   39.5040   24.1390   32.3110 N   0  0  0  0  0  0  0  0  0  0  0  0
  1  6  1  0  0  0  0
  2  3  1  0  0  0  0
  2  1  2  0  0  0  0
  3  4  2  0  0  0  0
  4  5  1  0  0  0  0
  5  8  1  0  0  0  0
  6  5  2  0  0  0  0
  7  3  1  0  0  0  0
  9 11  1  0  0  0  0
  9  1  1  0  0  0  0
  9 10  1  0  0  0  0
 10 13  1  0  0  0  0
 11 16  1  0  0  0  0
 11 10  1  0  0  0  0
 12  9  1  0  0  0  0
 14 10  1  0  0  0  0
 15 11  1  0  0  0  0
 17  2  1  0  0  0  0
 18 19  1  0  0  0  0
 18 17  2  0  0  0  0
 20 18  1  0  0  0  0
 21 20  1  0  0  0  0
 22 20  2  0  0  0  0
 22 23  1  0  0  0  0
 23 24  2  0  0  0  0
 24 17  1  0  0  0  0
M  END
>  <minimizedAffinity>
-4.05082512

$$$$

 OpenBabel03272508183D

 24 26  0  0  0  0  0  0  0  0999 V2000
   37.7790   25.3250   34.0150 C   0  0  0  0  0  0  0  0  0  0  0  0
   38.3660   25.4530   35.2630 C   0  0  0  0  0  0  0  0  0  0  0  0
   38.2090   26.7240   35.8470 C   0  0  0  0  0  0  0  0  0  0  0  0
   37.5450   27.7140   35.2270 N   0  0  0  0  0  0  0  0  0  0  0  0
   36.9860   27.5400   33.9980 C   0  0  0  0  0  0  0  0  0  0  0  0
   37.1150   26.3450   33.4120 N   0  0  0  0  0  0  0  0  0  0  0  0
   38.5600   27.0810   36.7880 H   0  0  0  0  0  0  0  0  0  0  0  0
   36.4400   28.2340   33.4040 H   0  0  0  0  0  0  0  0  0  0  0  0
   37.7950   23.9530   33.3770 C   0  0  0  0  0  0  0  0  0  0  0  0
   37.3820   23.7560   32.0050 C   0  0  0  0  0  0  0  0  0  0  0  0
   38.8640   23.8950   32.2650 C   0  0  0  0  0  0  0  0  0  0  0  0
   37.9710   23.0660   34.0450 H   0  0  0  0  0  0  0  0  0  0  0  0
   36.8670   24.6430   31.5280 H   0  0  0  0  0  0  0  0  0  0  0  0
   36.9550   22.8210   31.6250 H   0  0  0  0  0  0  0  0  0  0  0  0
   39.4050   22.9490   32.0960 H   0  0  0  0  0  0  0  0  0  0  0  0
   39.3490   24.8090   31.9360 H   0  0  0  0  0  0  0  0  0  0  0  0
   39.1060   24.4620   36.0060 C   0  0  0  0  0  0  0  0  0  0  0  0
   38.5970   23.9460   37.1610 C   0  0  0  0  0  0  0  0  0  0  0  0
   37.6520   24.2080   37.6150 H   0  0  0  0  0  0  0  0  0  0  0  0
   39.2320   22.9950   37.9280 C   0  0  0  0  0  0  0  0  0  0  0  0
   38.8220   22.5770   38.8610 H   0  0  0  0  0  0  0  0  0  0  0  0
   40.4400   22.4960   37.5720 C   0  0  0  0  0  3  0  0  0  0  0  0
   40.9450   23.0230   36.4050 C   0  0  0  0  0  3  0  0  0  0  0  0
   40.2900   23.9400   35.7030 N   0  0  0  0  0  0  0  0  0  0  0  0
  1  2  1  0  0  0  0
  2  3  2  0  0  0  0
  2 17  1  0  0  0  0
  3  7  1  0  0  0  0
  4  3  1  0  0  0  0
  5  4  2  0  0  0  0
  6  5  1  0  0  0  0
  6  1  2  0  0  0  0
  8  5  1  0  0  0  0
  9  1  1  0  0  0  0
  9 12  1  0  0  0  0
 10 11  1  0  0  0  0
 10  9  1  0  0  0  0
 11  9  1  0  0  0  0
 13 10  1  0  0  0  0
 14 10  1  0  0  0  0
 15 11  1  0  0  0  0
 16 11  1  0  0  0  0
 17 18  1  0  0  0  0
 18 19  1  0  0  0  0
 18 20  2  0  0  0  0
 20 21  1  0  0  0  0
 22 20  1  0  0  0  0
 23 22  2  0  0  0  0
 24 17  2  0  0  0  0
 24 23  1  0  0  0  0
M  END
>  <minimizedAffinity>
-4.04337168

$$$$

 OpenBabel03272508183D

 24 26  0  0  0  0  0  0  0  0999 V2000
   33.5460   30.4650   35.3490 C   0  0  0  0  0  0  0  0  0  0  0  0
   34.8970   30.4950   35.0440 C   0  0  0  0  0  0  0  0  0  0  0  0
   35.6530   31.3610   35.8570 C   0  0  0  0  0  0  0  0  0  0  0  0
   35.0910   32.0880   36.8360 N   0  0  0  0  0  0  0  0  0  0  0  0
   33.7560   32.0250   37.0980 C   0  0  0  0  0  0  0  0  0  0  0  0
   33.0050   31.2130   36.3460 N   0  0  0  0  0  0  0  0  0  0  0  0
   36.6980   31.5680   35.8310 H   0  0  0  0  0  0  0  0  0  0  0  0
   33.1910   32.5420   37.8360 H   0  0  0  0  0  0  0  0  0  0  0  0
   32.6880   29.4660   34.6050 C   0  0  0  0  0  0  0  0  0  0  0  0
   31.2440   29.5280   34.6570 C   0  0  0  0  0  0  0  0  0  0  0  0
   31.9180   30.1690   33.4660 C   0  0  0  0  0  0  0  0  0  0  0  0
   33.1970   28.5720   34.1500 H   0  0  0  0  0  0  0  0  0  0  0  0
   30.8220   30.2300   35.4380 H   0  0  0  0  0  0  0  0  0  0  0  0
   30.5910   28.6550   34.5410 H   0  0  0  0  0  0  0  0  0  0  0  0
   31.7250   29.6140   32.5330 H   0  0  0  0  0  0  0  0  0  0  0  0
   31.9130   31.2530   33.4090 H   0  0  0  0  0  0  0  0  0  0  0  0
   35.5940   29.7690   34.0110 C   0  0  0  0  0  0  0  0  0  0  0  0
   36.1990   28.5800   34.2950 C   0  0  0  0  0  0  0  0  0  0  0  0
   36.2230   28.0900   35.2590 H   0  0  0  0  0  0  0  0  0  0  0  0
   36.8790   27.8190   33.3710 C   0  0  0  0  0  0  0  0  0  0  0  0
   37.3690   26.8580   33.6000 H   0  0  0  0  0  0  0  0  0  0  0  0
   36.9930   28.2150   32.0810 C   0  0  0  0  0  3  0  0  0  0  0  0
   36.3780   29.4150   31.8040 C   0  0  0  0  0  3  0  0  0  0  0  0
   35.7350   30.1100   32.7350 N   0  0  0  0  0  0  0  0  0  0  0  0
  1  6  1  0  0  0  0
  2  1  2  0  0  0  0
  2  3  1  0  0  0  0
  3  4  2  0  0  0  0
  4  5  1  0  0  0  0
  5  8  1  0  0  0  0
  6  5  2  0  0  0  0
  7  3  1  0  0  0  0
  9 10  1  0  0  0  0
  9  1  1  0  0  0  0
 10 13  1  0  0  0  0
 11  9  1  0  0  0  0
 11 10  1  0  0  0  0
 12  9  1  0  0  0  0
 14 10  1  0  0  0  0
 15 11  1  0  0  0  0
 16 11  1  0  0  0  0
 17 18  1  0  0  0  0
 17  2  1  0  0  0  0
 18 19  1  0  0  0  0
 20 21  1  0  0  0  0
 20 18  2  0  0  0  0
 22 20  1  0  0  0  0
 23 22  2  0  0  0  0
 23 24  1  0  0  0  0
 24 17  2  0  0  0  0
M  END
>  <minimizedAffinity>
-4.04188061

$$$$

 OpenBabel03272508183D

 24 26  0  0  0  0  0  0  0  0999 V2000
   40.2800   23.9620   35.6890 C   0  0  0  0  0  0  0  0  0  0  0  0
   39.0610   24.5240   36.0340 C   0  0  0  0  0  0  0  0  0  0  0  0
   38.4910   23.9900   37.2050 C   0  0  0  0  0  0  0  0  0  0  0  0
   39.0930   23.0190   37.9100 N   0  0  0  0  0  0  0  0  0  0  0  0
   40.2920   22.4970   37.5300 C   0  0  0  0  0  0  0  0  0  0  0  0
   40.8650   22.9790   36.4220 N   0  0  0  0  0  0  0  0  0  0  0  0
   37.5710   24.2420   37.6810 H   0  0  0  0  0  0  0  0  0  0  0  0
   40.8690   21.7340   37.9940 H   0  0  0  0  0  0  0  0  0  0  0  0
   41.0170   24.5680   34.5150 C   0  0  0  0  0  0  0  0  0  0  0  0
   42.1620   23.9100   33.9250 C   0  0  0  0  0  0  0  0  0  0  0  0
   40.8240   23.6940   33.2570 C   0  0  0  0  0  0  0  0  0  0  0  0
   40.7600   25.6220   34.2210 H   0  0  0  0  0  0  0  0  0  0  0  0
   42.5760   23.0430   34.5210 H   0  0  0  0  0  0  0  0  0  0  0  0
   42.9750   24.4410   33.4150 H   0  0  0  0  0  0  0  0  0  0  0  0
   40.7690   24.1850   32.2710 H   0  0  0  0  0  0  0  0  0  0  0  0
   40.3700   22.7130   33.3480 H   0  0  0  0  0  0  0  0  0  0  0  0
   38.3280   25.5560   35.3420 C   0  0  0  0  0  0  0  0  0  0  0  0
   38.2250   26.8040   35.8810 C   0  0  0  0  0  0  0  0  0  0  0  0
   38.6480   27.1310   36.8200 H   0  0  0  0  0  0  0  0  0  0  0  0
   37.5510   27.8480   35.2880 C   0  0  0  0  0  0  0  0  0  0  0  0
   37.4670   28.8580   35.7220 H   0  0  0  0  0  0  0  0  0  0  0  0
   36.9290   27.6960   34.0940 C   0  0  0  0  0  3  0  0  0  0  0  0
   37.0400   26.4330   33.5590 C   0  0  0  0  0  3  0  0  0  0  0  0
   37.7030   25.4610   34.1740 N   0  0  0  0  0  0  0  0  0  0  0  0
  1  2  2  0  0  0  0
  1  6  1  0  0  0  0
  2  3  1  0  0  0  0
  3  7  1  0  0  0  0
  3  4  2  0  0  0  0
  5  4  1  0  0  0  0
  5  8  1  0  0  0  0
  6  5  2  0  0  0  0
  9  1  1  0  0  0  0
 10  9  1  0  0  0  0
 10 13  1  0  0  0  0
 11 16  1  0  0  0  0
 11 10  1  0  0  0  0
 11  9  1  0  0  0  0
 12  9  1  0  0  0  0
 14 10  1  0  0  0  0
 15 11  1  0  0  0  0
 17 18  1  0  0  0  0
 17  2  1  0  0  0  0
 18 19  1  0  0  0  0
 20 21  1  0  0  0  0
 20 18  2  0  0  0  0
 22 20  1  0  0  0  0
 23 22  2  0  0  0  0
 23 24  1  0  0  0  0
 24 17  2  0  0  0  0
M  END
>  <minimizedAffinity>
-4.03629112

$$$$
