
 OpenBabel03272510203D

 35 38  0  0  0  0  0  0  0  0999 V2000
   37.3890   29.2200   50.8930 Br  0  0  0  0  0  0  0  0  0  0  0  0
   35.9920   29.2710   49.5900 C   0  0  0  0  0  0  0  0  0  0  0  0
   35.9890   30.2340   48.5910 C   0  0  0  0  0  0  0  0  0  0  0  0
   34.9520   30.2090   47.6880 C   0  0  0  0  0  0  0  0  0  0  0  0
   33.9260   29.2820   47.7300 C   0  0  0  0  0  0  0  0  0  0  0  0
   33.9640   28.3540   48.7240 C   0  0  0  0  0  0  0  0  0  0  0  0
   34.9900   28.3540   49.6430 C   0  0  0  0  0  0  0  0  0  0  0  0
   34.8960   30.9410   46.8810 H   0  0  0  0  0  0  0  0  0  0  0  0
   33.2000   27.5770   48.8440 H   0  0  0  0  0  0  0  0  0  0  0  0
   35.0100   27.6050   50.4350 H   0  0  0  0  0  0  0  0  0  0  0  0
   37.9910   33.1680   49.4380 C   0  0  0  0  0  0  0  0  0  0  0  0
   39.0080   33.1640   48.4370 C   0  0  0  0  0  0  0  0  0  0  0  0
   38.9830   32.1590   47.4990 C   0  0  0  0  0  0  0  0  0  0  0  0
   37.9950   31.2050   47.5540 N   0  0  0  0  0  0  0  0  0  0  0  0
   37.0510   31.2330   48.5060 C   0  0  0  0  0  0  0  0  0  0  0  0
   37.0600   32.2140   49.4380 N   0  0  0  0  0  0  0  0  0  0  0  0
   37.9930   33.9500   50.1850 H   0  0  0  0  0  0  0  0  0  0  0  0
   39.7680   33.9400   48.4360 H   0  0  0  0  0  0  0  0  0  0  0  0
   39.7290   32.1040   46.7160 H   0  0  0  0  0  0  0  0  0  0  0  0
   32.8350   29.2550   46.7810 C   0  0  0  0  0  0  0  0  0  0  0  0
   32.0200   28.1700   46.5430 C   0  0  0  0  0  0  0  0  0  0  0  0
   30.9830   28.1970   45.6170 C   0  0  0  0  0  0  0  0  0  0  0  0
   30.7460   29.3160   44.9140 N   0  0  0  0  0  0  0  0  0  0  0  0
   31.5330   30.3750   45.1390 C   0  0  0  0  0  0  0  0  0  0  0  0
   32.5320   30.3330   46.0370 N   0  0  0  0  0  0  0  0  0  0  0  0
   32.2070   27.2540   47.1140 H   0  0  0  0  0  0  0  0  0  0  0  0
   30.3540   27.3290   45.4480 H   0  0  0  0  0  0  0  0  0  0  0  0
   31.3050   31.6070   44.3910 C   0  0  0  0  0  0  0  0  0  0  0  0
   32.3630   32.4110   44.0080 C   0  0  0  0  0  0  0  0  0  0  0  0
   33.3430   32.0560   44.3010 H   0  0  0  0  0  0  0  0  0  0  0  0
   32.1180   33.5730   43.3010 C   0  0  0  0  0  0  0  0  0  0  0  0
   33.0410   34.0960   43.0710 H   0  0  0  0  0  0  0  0  0  0  0  0
   30.8440   33.9520   42.9670 C   0  0  0  0  0  3  0  0  0  0  0  0
   29.8210   33.1290   43.3650 C   0  0  0  0  0  3  0  0  0  0  0  0
   30.0540   31.9870   44.0600 N   0  0  0  0  0  0  0  0  0  0  0  0
  2  7  1  0  0  0  0
  2  1  1  0  0  0  0
  3  2  2  0  0  0  0
  4  5  2  0  0  0  0
  4  3  1  0  0  0  0
  5  6  1  0  0  0  0
  6  9  1  0  0  0  0
  6  7  2  0  0  0  0
  7 10  1  0  0  0  0
  8  4  1  0  0  0  0
 11 17  1  0  0  0  0
 12 11  2  0  0  0  0
 13 14  2  0  0  0  0
 13 12  1  0  0  0  0
 14 15  1  0  0  0  0
 15  3  1  0  0  0  0
 15 16  2  0  0  0  0
 16 11  1  0  0  0  0
 18 12  1  0  0  0  0
 19 13  1  0  0  0  0
 20  5  1  0  0  0  0
 21 20  1  0  0  0  0
 21 26  1  0  0  0  0
 22 21  2  0  0  0  0
 23 24  2  0  0  0  0
 23 22  1  0  0  0  0
 24 25  1  0  0  0  0
 25 20  2  0  0  0  0
 27 22  1  0  0  0  0
 28 24  1  0  0  0  0
 29 30  1  0  0  0  0
 29 28  2  0  0  0  0
 31 29  1  0  0  0  0
 32 31  1  0  0  0  0
 33 31  2  0  0  0  0
 33 34  1  0  0  0  0
 34 35  2  0  0  0  0
 35 28  1  0  0  0  0
M  END
>  <minimizedAffinity>
-6.40225124

>  <minimizedRMSD>
0.290359348

$$$$
