
 OpenBabel03272505153D

 27 29  0  0  0  0  0  0  0  0999 V2000
   37.7850   23.0150   33.4870 Cl  0  0  0  0  0  0  0  0  0  0  0  0
   36.7670   23.9760   32.4510 C   0  0  0  0  0  0  0  0  0  0  0  0
   35.9250   23.3850   31.5790 C   0  0  0  0  0  0  0  0  0  0  0  0
   35.1510   24.2140   30.7910 C   0  0  0  0  0  0  0  0  0  0  0  0
   35.1900   25.5750   30.8490 C   0  0  0  0  0  0  0  0  0  0  0  0
   36.0500   26.1530   31.7410 C   0  0  0  0  0  0  0  0  0  0  0  0
   36.8470   25.3650   32.5510 C   0  0  0  0  0  0  0  0  0  0  0  0
   34.4630   23.7470   30.0770 H   0  0  0  0  0  0  0  0  0  0  0  0
   34.5610   26.1780   30.2080 H   0  0  0  0  0  0  0  0  0  0  0  0
   36.0860   27.2320   31.7910 H   0  0  0  0  0  0  0  0  0  0  0  0
   34.9500   19.7680   32.1290 C   0  0  0  0  0  0  0  0  0  0  0  0
   34.9690   21.1600   32.2090 C   0  0  0  0  0  0  0  0  0  0  0  0
   35.8810   21.9340   31.5150 C   0  0  0  0  0  0  0  0  0  0  0  0
   36.7620   21.2290   30.7440 N   0  0  0  0  0  0  0  0  0  0  0  0
   36.7410   19.8890   30.6690 C   0  0  0  0  0  0  0  0  0  0  0  0
   35.8510   19.1680   31.3490 N   0  0  0  0  0  0  0  0  0  0  0  0
   34.2330   19.1710   32.6750 H   0  0  0  0  0  0  0  0  0  0  0  0
   34.2420   21.6600   32.8390 H   0  0  0  0  0  0  0  0  0  0  0  0
   37.5270   19.5380   30.0010 H   0  0  0  0  0  0  0  0  0  0  0  0
   37.7740   25.9410   33.5120 C   0  0  0  0  0  0  0  0  0  0  0  0
   37.4440   26.3000   34.7770 C   0  0  0  0  0  0  0  0  0  0  0  0
   36.4570   26.1710   35.1400 H   0  0  0  0  0  0  0  0  0  0  0  0
   38.3200   26.8490   35.6930 C   0  0  0  0  0  0  0  0  0  0  0  0
   38.0370   27.1260   36.6940 H   0  0  0  0  0  0  0  0  0  0  0  0
   39.6440   27.0560   35.3050 C   0  0  0  0  0  3  0  0  0  0  0  0
   39.9680   26.6940   34.0350 C   0  0  0  0  0  3  0  0  0  0  0  0
   39.0750   26.1620   33.1770 N   0  0  0  0  0  0  0  0  0  0  0  0
  2  7  1  0  0  0  0
  2  1  1  0  0  0  0
  3  2  2  0  0  0  0
  4  5  2  0  0  0  0
  4  3  1  0  0  0  0
  5  6  1  0  0  0  0
  6 10  1  0  0  0  0
  6  7  2  0  0  0  0
  7 20  1  0  0  0  0
  8  4  1  0  0  0  0
  9  5  1  0  0  0  0
 11 12  1  0  0  0  0
 11 17  1  0  0  0  0
 12 18  1  0  0  0  0
 13  3  1  0  0  0  0
 13 12  2  0  0  0  0
 14 13  1  0  0  0  0
 15 14  2  0  0  0  0
 15 16  1  0  0  0  0
 16 11  2  0  0  0  0
 19 15  1  0  0  0  0
 20 21  1  0  0  0  0
 21 22  1  0  0  0  0
 21 23  2  0  0  0  0
 23 24  1  0  0  0  0
 25 23  1  0  0  0  0
 26 25  2  0  0  0  0
 27 20  2  0  0  0  0
 27 26  1  0  0  0  0
M  END
>  <minimizedAffinity>
-5.24888182

$$$$

 OpenBabel03272505153D

 27 29  0  0  0  0  0  0  0  0999 V2000
   37.8240   23.0930   33.5420 Cl  0  0  0  0  0  0  0  0  0  0  0  0
   36.8520   24.1330   32.5390 C   0  0  0  0  0  0  0  0  0  0  0  0
   36.9560   25.4730   32.6400 C   0  0  0  0  0  0  0  0  0  0  0  0
   36.1510   26.2310   31.8120 C   0  0  0  0  0  0  0  0  0  0  0  0
   35.2750   25.7050   30.9120 C   0  0  0  0  0  0  0  0  0  0  0  0
   35.1860   24.3440   30.8260 C   0  0  0  0  0  0  0  0  0  0  0  0
   35.9700   23.5420   31.6350 C   0  0  0  0  0  0  0  0  0  0  0  0
   36.2250   27.3220   31.8840 H   0  0  0  0  0  0  0  0  0  0  0  0
   34.6670   26.3450   30.2860 H   0  0  0  0  0  0  0  0  0  0  0  0
   34.4920   23.9210   30.1130 H   0  0  0  0  0  0  0  0  0  0  0  0
   38.4640   26.9520   35.7840 C   0  0  0  0  0  0  0  0  0  0  0  0
   37.5440   26.4120   34.8840 C   0  0  0  0  0  0  0  0  0  0  0  0
   37.8910   26.0380   33.5990 C   0  0  0  0  0  0  0  0  0  0  0  0
   39.2040   26.2360   33.2790 N   0  0  0  0  0  0  0  0  0  0  0  0
   40.0870   26.7550   34.1470 C   0  0  0  0  0  0  0  0  0  0  0  0
   39.7250   27.1080   35.3800 N   0  0  0  0  0  0  0  0  0  0  0  0
   38.1830   27.2410   36.7870 H   0  0  0  0  0  0  0  0  0  0  0  0
   36.5160   26.2790   35.2000 H   0  0  0  0  0  0  0  0  0  0  0  0
   41.0710   26.8260   33.6850 H   0  0  0  0  0  0  0  0  0  0  0  0
   35.9050   22.0910   31.5730 C   0  0  0  0  0  0  0  0  0  0  0  0
   35.0080   21.3320   32.2500 C   0  0  0  0  0  0  0  0  0  0  0  0
   34.2830   21.7790   32.8800 H   0  0  0  0  0  0  0  0  0  0  0  0
   34.9420   19.9530   32.1950 C   0  0  0  0  0  0  0  0  0  0  0  0
   34.2200   19.3710   32.7400 H   0  0  0  0  0  0  0  0  0  0  0  0
   35.8580   19.2760   31.3890 C   0  0  0  0  0  3  0  0  0  0  0  0
   36.7550   20.0430   30.7120 C   0  0  0  0  0  3  0  0  0  0  0  0
   36.7780   21.3870   30.8000 N   0  0  0  0  0  0  0  0  0  0  0  0
  2  3  1  0  0  0  0
  2  1  1  0  0  0  0
  3 13  1  0  0  0  0
  4  8  1  0  0  0  0
  4  3  2  0  0  0  0
  5  4  1  0  0  0  0
  6  5  2  0  0  0  0
  6  7  1  0  0  0  0
  7  2  2  0  0  0  0
  9  5  1  0  0  0  0
 10  6  1  0  0  0  0
 11 17  1  0  0  0  0
 12 18  1  0  0  0  0
 12 11  2  0  0  0  0
 13 12  1  0  0  0  0
 14 13  2  0  0  0  0
 14 15  1  0  0  0  0
 15 16  2  0  0  0  0
 16 11  1  0  0  0  0
 19 15  1  0  0  0  0
 20  7  1  0  0  0  0
 20 21  1  0  0  0  0
 21 22  1  0  0  0  0
 23 21  2  0  0  0  0
 23 24  1  0  0  0  0
 25 23  1  0  0  0  0
 26 27  1  0  0  0  0
 26 25  2  0  0  0  0
 27 20  2  0  0  0  0
M  END
>  <minimizedAffinity>
-5.20399189

$$$$

 OpenBabel03272505153D

 27 29  0  0  0  0  0  0  0  0999 V2000
   40.5790   24.6110   34.3150 Cl  0  0  0  0  0  0  0  0  0  0  0  0
   39.8670   24.0820   35.8140 C   0  0  0  0  0  0  0  0  0  0  0  0
   40.4640   23.1290   36.5570 C   0  0  0  0  0  0  0  0  0  0  0  0
   39.8390   22.7620   37.7320 C   0  0  0  0  0  0  0  0  0  0  0  0
   38.6710   23.3050   38.1750 C   0  0  0  0  0  0  0  0  0  0  0  0
   38.0820   24.2710   37.4060 C   0  0  0  0  0  0  0  0  0  0  0  0
   38.6700   24.6710   36.2200 C   0  0  0  0  0  0  0  0  0  0  0  0
   40.3130   21.9880   38.3450 H   0  0  0  0  0  0  0  0  0  0  0  0
   38.2230   22.9820   39.1040 H   0  0  0  0  0  0  0  0  0  0  0  0
   37.1550   24.7060   37.7530 H   0  0  0  0  0  0  0  0  0  0  0  0
   44.1430   22.4280   35.9890 C   0  0  0  0  0  0  0  0  0  0  0  0
   42.9620   23.0060   36.4570 C   0  0  0  0  0  0  0  0  0  0  0  0
   41.7110   22.5480   36.0870 C   0  0  0  0  0  0  0  0  0  0  0  0
   41.7210   21.4840   35.2290 N   0  0  0  0  0  0  0  0  0  0  0  0
   42.8590   20.9300   34.7810 C   0  0  0  0  0  0  0  0  0  0  0  0
   44.0510   21.3930   35.1540 N   0  0  0  0  0  0  0  0  0  0  0  0
   45.1160   22.7940   36.2850 H   0  0  0  0  0  0  0  0  0  0  0  0
   43.0220   23.8480   37.1360 H   0  0  0  0  0  0  0  0  0  0  0  0
   42.6340   20.1000   34.1120 H   0  0  0  0  0  0  0  0  0  0  0  0
   38.0760   25.6950   35.3760 C   0  0  0  0  0  0  0  0  0  0  0  0
   37.9650   27.0030   35.7160 C   0  0  0  0  0  0  0  0  0  0  0  0
   38.3210   27.3540   36.6500 H   0  0  0  0  0  0  0  0  0  0  0  0
   37.4000   27.9790   34.9180 C   0  0  0  0  0  0  0  0  0  0  0  0
   37.3240   29.0130   35.2080 H   0  0  0  0  0  0  0  0  0  0  0  0
   36.9030   27.6100   33.6680 C   0  0  0  0  0  3  0  0  0  0  0  0
   37.0180   26.2960   33.3330 C   0  0  0  0  0  3  0  0  0  0  0  0
   37.5770   25.3810   34.1480 N   0  0  0  0  0  0  0  0  0  0  0  0
  1  2  1  0  0  0  0
  2  7  2  0  0  0  0
  2  3  1  0  0  0  0
  3  4  2  0  0  0  0
  4  5  1  0  0  0  0
  4  8  1  0  0  0  0
  5  9  1  0  0  0  0
  6 10  1  0  0  0  0
  6  5  2  0  0  0  0
  7  6  1  0  0  0  0
 11 17  1  0  0  0  0
 11 12  1  0  0  0  0
 12 18  1  0  0  0  0
 13 12  2  0  0  0  0
 13  3  1  0  0  0  0
 14 13  1  0  0  0  0
 15 16  1  0  0  0  0
 15 14  2  0  0  0  0
 16 11  2  0  0  0  0
 19 15  1  0  0  0  0
 20 21  1  0  0  0  0
 20  7  1  0  0  0  0
 21 22  1  0  0  0  0
 23 24  1  0  0  0  0
 23 21  2  0  0  0  0
 25 23  1  0  0  0  0
 26 25  2  0  0  0  0
 26 27  1  0  0  0  0
 27 20  2  0  0  0  0
M  END
>  <minimizedAffinity>
-5.12545919

$$$$

 OpenBabel03272505153D

 27 29  0  0  0  0  0  0  0  0999 V2000
   36.2800   28.1400   34.6510 Cl  0  0  0  0  0  0  0  0  0  0  0  0
   36.1330   29.0030   33.1440 C   0  0  0  0  0  0  0  0  0  0  0  0
   36.5820   28.4570   31.9960 C   0  0  0  0  0  0  0  0  0  0  0  0
   36.4310   29.2020   30.8440 C   0  0  0  0  0  0  0  0  0  0  0  0
   35.8590   30.4380   30.8050 C   0  0  0  0  0  0  0  0  0  0  0  0
   35.4110   30.9720   31.9800 C   0  0  0  0  0  0  0  0  0  0  0  0
   35.5410   30.2650   33.1610 C   0  0  0  0  0  0  0  0  0  0  0  0
   36.7920   28.7700   29.9030 H   0  0  0  0  0  0  0  0  0  0  0  0
   35.7650   30.9790   29.8730 H   0  0  0  0  0  0  0  0  0  0  0  0
   34.9570   31.9530   31.9550 H   0  0  0  0  0  0  0  0  0  0  0  0
   39.1120   25.6420   32.1320 C   0  0  0  0  0  0  0  0  0  0  0  0
   38.5550   26.9200   32.0980 C   0  0  0  0  0  0  0  0  0  0  0  0
   37.1910   27.1380   32.0350 C   0  0  0  0  0  0  0  0  0  0  0  0
   36.4310   26.0030   32.0110 N   0  0  0  0  0  0  0  0  0  0  0  0
   36.9690   24.7730   32.0450 C   0  0  0  0  0  0  0  0  0  0  0  0
   38.2880   24.5940   32.1050 N   0  0  0  0  0  0  0  0  0  0  0  0
   40.1800   25.4820   32.1820 H   0  0  0  0  0  0  0  0  0  0  0  0
   39.2140   27.7810   32.1190 H   0  0  0  0  0  0  0  0  0  0  0  0
   36.1840   24.0180   32.0160 H   0  0  0  0  0  0  0  0  0  0  0  0
   35.0760   30.7990   34.4320 C   0  0  0  0  0  0  0  0  0  0  0  0
   35.8310   31.5480   35.2730 C   0  0  0  0  0  0  0  0  0  0  0  0
   36.8350   31.7890   35.0340 H   0  0  0  0  0  0  0  0  0  0  0  0
   35.3950   32.0570   36.4810 C   0  0  0  0  0  0  0  0  0  0  0  0
   36.0120   32.6510   37.1330 H   0  0  0  0  0  0  0  0  0  0  0  0
   34.0840   31.7910   36.8790 C   0  0  0  0  0  3  0  0  0  0  0  0
   33.3320   31.0390   36.0310 C   0  0  0  0  0  3  0  0  0  0  0  0
   33.8060   30.5650   34.8620 N   0  0  0  0  0  0  0  0  0  0  0  0
  2  7  1  0  0  0  0
  2  1  1  0  0  0  0
  3 13  1  0  0  0  0
  3  2  2  0  0  0  0
  4  3  1  0  0  0  0
  5  4  2  0  0  0  0
  5  6  1  0  0  0  0
  6  7  2  0  0  0  0
  7 20  1  0  0  0  0
  8  4  1  0  0  0  0
  9  5  1  0  0  0  0
 10  6  1  0  0  0  0
 11 17  1  0  0  0  0
 12 18  1  0  0  0  0
 12 11  2  0  0  0  0
 13 12  1  0  0  0  0
 14 13  2  0  0  0  0
 14 15  1  0  0  0  0
 15 16  2  0  0  0  0
 16 11  1  0  0  0  0
 19 15  1  0  0  0  0
 20 27  2  0  0  0  0
 20 21  1  0  0  0  0
 21 23  2  0  0  0  0
 22 21  1  0  0  0  0
 23 25  1  0  0  0  0
 23 24  1  0  0  0  0
 26 25  2  0  0  0  0
 27 26  1  0  0  0  0
M  END
>  <minimizedAffinity>
-4.89063168

$$$$

 OpenBabel03272505153D

 27 29  0  0  0  0  0  0  0  0999 V2000
   38.0730   27.1500   33.3930 Cl  0  0  0  0  0  0  0  0  0  0  0  0
   37.1400   25.9400   32.5560 C   0  0  0  0  0  0  0  0  0  0  0  0
   37.3640   24.6290   32.7780 C   0  0  0  0  0  0  0  0  0  0  0  0
   36.5850   23.7310   32.0760 C   0  0  0  0  0  0  0  0  0  0  0  0
   35.6170   24.0920   31.1870 C   0  0  0  0  0  0  0  0  0  0  0  0
   35.4080   25.4270   30.9780 C   0  0  0  0  0  0  0  0  0  0  0  0
   36.1630   26.3650   31.6570 C   0  0  0  0  0  0  0  0  0  0  0  0
   36.7560   22.6620   32.2460 H   0  0  0  0  0  0  0  0  0  0  0  0
   35.0350   23.3460   30.6630 H   0  0  0  0  0  0  0  0  0  0  0  0
   34.6410   25.7190   30.2740 H   0  0  0  0  0  0  0  0  0  0  0  0
   40.6690   23.5840   34.3030 C   0  0  0  0  0  0  0  0  0  0  0  0
   39.7000   23.9560   33.3710 C   0  0  0  0  0  0  0  0  0  0  0  0
   38.3940   24.2400   33.7260 C   0  0  0  0  0  0  0  0  0  0  0  0
   38.1270   24.1300   35.0610 N   0  0  0  0  0  0  0  0  0  0  0  0
   39.0610   23.7730   35.9570 C   0  0  0  0  0  0  0  0  0  0  0  0
   40.3120   23.5040   35.5860 N   0  0  0  0  0  0  0  0  0  0  0  0
   41.6870   23.3640   34.0160 H   0  0  0  0  0  0  0  0  0  0  0  0
   39.9760   24.0250   32.3250 H   0  0  0  0  0  0  0  0  0  0  0  0
   38.6320   23.7490   36.9580 H   0  0  0  0  0  0  0  0  0  0  0  0
   35.9700   27.7930   31.4620 C   0  0  0  0  0  0  0  0  0  0  0  0
   36.6150   28.5350   30.5280 C   0  0  0  0  0  0  0  0  0  0  0  0
   37.3180   28.0920   29.8710 H   0  0  0  0  0  0  0  0  0  0  0  0
   36.4360   29.8920   30.3390 C   0  0  0  0  0  0  0  0  0  0  0  0
   36.9590   30.4620   29.5900 H   0  0  0  0  0  0  0  0  0  0  0  0
   35.5290   30.5630   31.1600 C   0  0  0  0  0  3  0  0  0  0  0  0
   34.8850   29.8130   32.0940 C   0  0  0  0  0  3  0  0  0  0  0  0
   35.0960   28.4900   32.2390 N   0  0  0  0  0  0  0  0  0  0  0  0
  2  3  1  0  0  0  0
  2  1  1  0  0  0  0
  3 13  1  0  0  0  0
  4  8  1  0  0  0  0
  4  3  2  0  0  0  0
  5  4  1  0  0  0  0
  6  5  2  0  0  0  0
  6  7  1  0  0  0  0
  7  2  2  0  0  0  0
  9  5  1  0  0  0  0
 10  6  1  0  0  0  0
 11 16  1  0  0  0  0
 12 13  1  0  0  0  0
 12 11  2  0  0  0  0
 13 14  2  0  0  0  0
 14 15  1  0  0  0  0
 15 19  1  0  0  0  0
 16 15  2  0  0  0  0
 17 11  1  0  0  0  0
 18 12  1  0  0  0  0
 20  7  1  0  0  0  0
 20 27  1  0  0  0  0
 21 20  2  0  0  0  0
 22 21  1  0  0  0  0
 23 21  1  0  0  0  0
 23 25  2  0  0  0  0
 24 23  1  0  0  0  0
 25 26  1  0  0  0  0
 26 27  2  0  0  0  0
M  END
>  <minimizedAffinity>
-4.75020361

$$$$

 OpenBabel03272505153D

 27 29  0  0  0  0  0  0  0  0999 V2000
   39.9570   24.5960   32.5400 Cl  0  0  0  0  0  0  0  0  0  0  0  0
   39.1240   25.6050   33.6910 C   0  0  0  0  0  0  0  0  0  0  0  0
   37.7770   25.6230   33.7350 C   0  0  0  0  0  0  0  0  0  0  0  0
   37.1890   26.4480   34.6740 C   0  0  0  0  0  0  0  0  0  0  0  0
   37.8870   27.2300   35.5450 C   0  0  0  0  0  0  0  0  0  0  0  0
   39.2520   27.1950   35.4820 C   0  0  0  0  0  0  0  0  0  0  0  0
   39.8870   26.3850   34.5590 C   0  0  0  0  0  0  0  0  0  0  0  0
   36.0950   26.4730   34.7210 H   0  0  0  0  0  0  0  0  0  0  0  0
   37.3760   27.8590   36.2610 H   0  0  0  0  0  0  0  0  0  0  0  0
   39.8110   27.8140   36.1710 H   0  0  0  0  0  0  0  0  0  0  0  0
   35.5120   24.4640   30.9300 C   0  0  0  0  0  0  0  0  0  0  0  0
   36.2190   25.2880   31.8060 C   0  0  0  0  0  0  0  0  0  0  0  0
   37.0300   24.7900   32.8080 C   0  0  0  0  0  0  0  0  0  0  0  0
   37.0860   23.4260   32.8740 N   0  0  0  0  0  0  0  0  0  0  0  0
   36.4060   22.6350   32.0300 C   0  0  0  0  0  0  0  0  0  0  0  0
   35.6310   23.1430   31.0720 N   0  0  0  0  0  0  0  0  0  0  0  0
   34.8810   24.8630   30.1490 H   0  0  0  0  0  0  0  0  0  0  0  0
   36.1310   26.3640   31.7010 H   0  0  0  0  0  0  0  0  0  0  0  0
   36.5960   21.5870   32.2610 H   0  0  0  0  0  0  0  0  0  0  0  0
   41.3360   26.3210   34.4620 C   0  0  0  0  0  0  0  0  0  0  0  0
   42.0950   27.1600   33.7140 C   0  0  0  0  0  0  0  0  0  0  0  0
   41.6490   27.9330   33.1430 H   0  0  0  0  0  0  0  0  0  0  0  0
   43.4720   27.1020   33.6180 C   0  0  0  0  0  0  0  0  0  0  0  0
   44.0540   27.7800   33.0180 H   0  0  0  0  0  0  0  0  0  0  0  0
   44.1470   26.1150   34.3360 C   0  0  0  0  0  3  0  0  0  0  0  0
   43.3800   25.2760   35.0840 C   0  0  0  0  0  3  0  0  0  0  0  0
   42.0380   25.3740   35.1440 N   0  0  0  0  0  0  0  0  0  0  0  0
  1  2  1  0  0  0  0
  2  3  2  0  0  0  0
  2  7  1  0  0  0  0
  3  4  1  0  0  0  0
  4  8  1  0  0  0  0
  4  5  2  0  0  0  0
  5  9  1  0  0  0  0
  6  5  1  0  0  0  0
  6 10  1  0  0  0  0
  7  6  2  0  0  0  0
 11 16  2  0  0  0  0
 11 12  1  0  0  0  0
 12 13  2  0  0  0  0
 13 14  1  0  0  0  0
 13  3  1  0  0  0  0
 15 19  1  0  0  0  0
 15 14  2  0  0  0  0
 16 15  1  0  0  0  0
 17 11  1  0  0  0  0
 18 12  1  0  0  0  0
 20  7  1  0  0  0  0
 20 27  1  0  0  0  0
 21 20  2  0  0  0  0
 22 21  1  0  0  0  0
 23 21  1  0  0  0  0
 23 25  2  0  0  0  0
 24 23  1  0  0  0  0
 25 26  1  0  0  0  0
 26 27  2  0  0  0  0
M  END
>  <minimizedAffinity>
-4.74364948

$$$$

 OpenBabel03272505153D

 27 29  0  0  0  0  0  0  0  0999 V2000
   38.3410   25.6380   34.5150 Cl  0  0  0  0  0  0  0  0  0  0  0  0
   37.9200   24.1370   33.7380 C   0  0  0  0  0  0  0  0  0  0  0  0
   37.5520   24.1170   32.4410 C   0  0  0  0  0  0  0  0  0  0  0  0
   37.2330   22.8900   31.8960 C   0  0  0  0  0  0  0  0  0  0  0  0
   37.2720   21.7160   32.5870 C   0  0  0  0  0  0  0  0  0  0  0  0
   37.6480   21.7590   33.9000 C   0  0  0  0  0  0  0  0  0  0  0  0
   37.9770   22.9650   34.4910 C   0  0  0  0  0  0  0  0  0  0  0  0
   36.9310   22.8590   30.8430 H   0  0  0  0  0  0  0  0  0  0  0  0
   37.0110   20.7800   32.1110 H   0  0  0  0  0  0  0  0  0  0  0  0
   37.6810   20.8300   34.4540 H   0  0  0  0  0  0  0  0  0  0  0  0
   38.5100   27.0800   30.2860 C   0  0  0  0  0  0  0  0  0  0  0  0
   38.5790   25.8760   30.9870 C   0  0  0  0  0  0  0  0  0  0  0  0
   37.5100   25.3680   31.7020 C   0  0  0  0  0  0  0  0  0  0  0  0
   36.3810   26.1360   31.6670 N   0  0  0  0  0  0  0  0  0  0  0  0
   36.3160   27.2940   30.9910 C   0  0  0  0  0  0  0  0  0  0  0  0
   37.3630   27.7600   30.3110 N   0  0  0  0  0  0  0  0  0  0  0  0
   39.3510   27.4700   29.7300 H   0  0  0  0  0  0  0  0  0  0  0  0
   39.5050   25.3140   30.9750 H   0  0  0  0  0  0  0  0  0  0  0  0
   35.3270   27.7380   31.0990 H   0  0  0  0  0  0  0  0  0  0  0  0
   38.3820   23.0520   35.8850 C   0  0  0  0  0  0  0  0  0  0  0  0
   39.6180   22.7380   36.3470 C   0  0  0  0  0  0  0  0  0  0  0  0
   40.3760   22.4020   35.6880 H   0  0  0  0  0  0  0  0  0  0  0  0
   40.0080   22.8180   37.6700 C   0  0  0  0  0  0  0  0  0  0  0  0
   40.9960   22.5650   38.0140 H   0  0  0  0  0  0  0  0  0  0  0  0
   39.0760   23.2520   38.6120 C   0  0  0  0  0  3  0  0  0  0  0  0
   37.8380   23.5650   38.1430 C   0  0  0  0  0  3  0  0  0  0  0  0
   37.5060   23.4690   36.8400 N   0  0  0  0  0  0  0  0  0  0  0  0
  2  7  1  0  0  0  0
  2  1  1  0  0  0  0
  3  2  2  0  0  0  0
  4  3  1  0  0  0  0
  4  5  2  0  0  0  0
  5  6  1  0  0  0  0
  6 10  1  0  0  0  0
  6  7  2  0  0  0  0
  7 20  1  0  0  0  0
  8  4  1  0  0  0  0
  9  5  1  0  0  0  0
 11 16  2  0  0  0  0
 11 12  1  0  0  0  0
 12 13  2  0  0  0  0
 13  3  1  0  0  0  0
 14 13  1  0  0  0  0
 15 19  1  0  0  0  0
 15 14  2  0  0  0  0
 16 15  1  0  0  0  0
 17 11  1  0  0  0  0
 18 12  1  0  0  0  0
 20 21  2  0  0  0  0
 20 27  1  0  0  0  0
 21 23  1  0  0  0  0
 22 21  1  0  0  0  0
 23 24  1  0  0  0  0
 23 25  2  0  0  0  0
 26 25  1  0  0  0  0
 27 26  2  0  0  0  0
M  END
>  <minimizedAffinity>
-4.73569345

$$$$

 OpenBabel03272505153D

 27 29  0  0  0  0  0  0  0  0999 V2000
   38.4040   26.0100   34.8120 Cl  0  0  0  0  0  0  0  0  0  0  0  0
   37.9680   24.5680   33.9360 C   0  0  0  0  0  0  0  0  0  0  0  0
   38.0010   23.3640   34.5410 C   0  0  0  0  0  0  0  0  0  0  0  0
   37.6430   22.2680   33.7820 C   0  0  0  0  0  0  0  0  0  0  0  0
   37.2600   22.3370   32.4760 C   0  0  0  0  0  0  0  0  0  0  0  0
   37.2330   23.5690   31.8830 C   0  0  0  0  0  0  0  0  0  0  0  0
   37.5840   24.6960   32.6020 C   0  0  0  0  0  0  0  0  0  0  0  0
   37.6660   21.2820   34.2610 H   0  0  0  0  0  0  0  0  0  0  0  0
   36.9890   21.4470   31.9260 H   0  0  0  0  0  0  0  0  0  0  0  0
   36.9300   23.6300   30.8470 H   0  0  0  0  0  0  0  0  0  0  0  0
   40.0250   22.8140   37.6950 C   0  0  0  0  0  0  0  0  0  0  0  0
   39.6630   22.8800   36.3490 C   0  0  0  0  0  0  0  0  0  0  0  0
   38.4080   23.2860   35.9350 C   0  0  0  0  0  0  0  0  0  0  0  0
   37.5510   23.6200   36.9450 N   0  0  0  0  0  0  0  0  0  0  0  0
   37.9020   23.5570   38.2390 C   0  0  0  0  0  0  0  0  0  0  0  0
   39.1190   23.1610   38.6100 N   0  0  0  0  0  0  0  0  0  0  0  0
   41.0080   22.4950   38.0100 H   0  0  0  0  0  0  0  0  0  0  0  0
   40.3900   22.6010   35.5950 H   0  0  0  0  0  0  0  0  0  0  0  0
   37.0690   23.8660   38.8700 H   0  0  0  0  0  0  0  0  0  0  0  0
   37.5670   26.0230   32.0070 C   0  0  0  0  0  0  0  0  0  0  0  0
   38.6210   26.5940   31.3720 C   0  0  0  0  0  0  0  0  0  0  0  0
   39.5420   26.0800   31.2770 H   0  0  0  0  0  0  0  0  0  0  0  0
   38.6110   27.8540   30.8060 C   0  0  0  0  0  0  0  0  0  0  0  0
   39.4590   28.2880   30.3060 H   0  0  0  0  0  0  0  0  0  0  0  0
   37.4390   28.6080   30.8830 C   0  0  0  0  0  3  0  0  0  0  0  0
   36.3860   28.0290   31.5200 C   0  0  0  0  0  3  0  0  0  0  0  0
   36.4470   26.7950   32.0580 N   0  0  0  0  0  0  0  0  0  0  0  0
  2  3  1  0  0  0  0
  2  1  1  0  0  0  0
  3 13  1  0  0  0  0
  4  8  1  0  0  0  0
  4  3  2  0  0  0  0
  5  4  1  0  0  0  0
  6  5  2  0  0  0  0
  6  7  1  0  0  0  0
  7  2  2  0  0  0  0
  9  5  1  0  0  0  0
 10  6  1  0  0  0  0
 11 17  1  0  0  0  0
 11 16  1  0  0  0  0
 12 11  2  0  0  0  0
 13 12  1  0  0  0  0
 13 14  2  0  0  0  0
 14 15  1  0  0  0  0
 15 16  2  0  0  0  0
 15 19  1  0  0  0  0
 18 12  1  0  0  0  0
 20 27  1  0  0  0  0
 20  7  1  0  0  0  0
 21 20  2  0  0  0  0
 22 21  1  0  0  0  0
 23 25  2  0  0  0  0
 23 21  1  0  0  0  0
 24 23  1  0  0  0  0
 25 26  1  0  0  0  0
 26 27  2  0  0  0  0
M  END
>  <minimizedAffinity>
-4.73206377

$$$$

 OpenBabel03272505153D

 27 29  0  0  0  0  0  0  0  0999 V2000
   37.2330   25.5700   33.0610 Cl  0  0  0  0  0  0  0  0  0  0  0  0
   38.8470   26.0440   33.5150 C   0  0  0  0  0  0  0  0  0  0  0  0
   39.4390   25.5040   34.5990 C   0  0  0  0  0  0  0  0  0  0  0  0
   40.7180   25.9310   34.8950 C   0  0  0  0  0  0  0  0  0  0  0  0
   41.4030   26.8520   34.1620 C   0  0  0  0  0  0  0  0  0  0  0  0
   40.7840   27.3870   33.0670 C   0  0  0  0  0  0  0  0  0  0  0  0
   39.5020   26.9920   32.7300 C   0  0  0  0  0  0  0  0  0  0  0  0
   41.2110   25.5000   35.7740 H   0  0  0  0  0  0  0  0  0  0  0  0
   42.4050   27.1520   34.4390 H   0  0  0  0  0  0  0  0  0  0  0  0
   41.3230   28.1180   32.4810 H   0  0  0  0  0  0  0  0  0  0  0  0
   37.3990   23.8350   37.3180 C   0  0  0  0  0  0  0  0  0  0  0  0
   38.0900   24.8010   36.5870 C   0  0  0  0  0  0  0  0  0  0  0  0
   38.7110   24.5210   35.3830 C   0  0  0  0  0  0  0  0  0  0  0  0
   38.5920   23.2250   34.9650 N   0  0  0  0  0  0  0  0  0  0  0  0
   37.9250   22.2980   35.6710 C   0  0  0  0  0  0  0  0  0  0  0  0
   37.3370   22.5960   36.8290 N   0  0  0  0  0  0  0  0  0  0  0  0
   36.9170   24.0640   38.2580 H   0  0  0  0  0  0  0  0  0  0  0  0
   38.1480   25.8120   36.9730 H   0  0  0  0  0  0  0  0  0  0  0  0
   37.9560   21.3390   35.1560 H   0  0  0  0  0  0  0  0  0  0  0  0
   38.8100   27.5360   31.5720 C   0  0  0  0  0  0  0  0  0  0  0  0
   39.2210   27.3840   30.2890 C   0  0  0  0  0  0  0  0  0  0  0  0
   40.1000   26.8390   30.0610 H   0  0  0  0  0  0  0  0  0  0  0  0
   38.5680   27.9010   29.1870 C   0  0  0  0  0  0  0  0  0  0  0  0
   38.9120   27.7660   28.1760 H   0  0  0  0  0  0  0  0  0  0  0  0
   37.3990   28.6340   29.3910 C   0  0  0  0  0  3  0  0  0  0  0  0
   36.9920   28.7830   30.6800 C   0  0  0  0  0  3  0  0  0  0  0  0
   37.6660   28.2590   31.7220 N   0  0  0  0  0  0  0  0  0  0  0  0
  1  2  1  0  0  0  0
  2  3  1  0  0  0  0
  3  4  2  0  0  0  0
  3 13  1  0  0  0  0
  4  8  1  0  0  0  0
  5  9  1  0  0  0  0
  5  4  1  0  0  0  0
  6  5  2  0  0  0  0
  7  6  1  0  0  0  0
  7  2  2  0  0  0  0
 10  6  1  0  0  0  0
 11 17  1  0  0  0  0
 12 18  1  0  0  0  0
 12 11  2  0  0  0  0
 13 12  1  0  0  0  0
 14 13  2  0  0  0  0
 14 15  1  0  0  0  0
 15 16  2  0  0  0  0
 16 11  1  0  0  0  0
 19 15  1  0  0  0  0
 20 27  1  0  0  0  0
 20  7  1  0  0  0  0
 21 20  2  0  0  0  0
 22 21  1  0  0  0  0
 23 25  2  0  0  0  0
 23 21  1  0  0  0  0
 24 23  1  0  0  0  0
 25 26  1  0  0  0  0
 26 27  2  0  0  0  0
M  END
>  <minimizedAffinity>
-4.71252966

$$$$
