
 OpenBabel03272506123D

 43 46  0  0  1  0  0  0  0  0999 V2000
   35.6740   30.2100   47.3160 C   0  0  1  0  0  0  0  0  0  0  0  0
   34.6640   29.0630   47.7300 C   0  0  0  0  0  0  0  0  0  0  0  0
   34.2070   29.2560   49.1740 C   0  0  0  0  0  0  0  0  0  0  0  0
   35.3740   29.5740   50.0610 C   0  0  0  0  0  0  0  0  0  0  0  0
   36.6160   29.1250   49.3750 C   0  0  0  0  0  0  0  0  0  0  0  0
   36.8750   30.0360   48.1920 C   0  0  2  0  0  0  0  0  0  0  0  0
   35.1530   30.9680   47.8000 H   0  0  0  0  0  0  0  0  0  0  0  0
   35.1050   28.0940   47.5260 H   0  0  0  0  0  0  0  0  0  0  0  0
   33.7850   29.2160   47.0860 H   0  0  0  0  0  0  0  0  0  0  0  0
   33.7240   28.3100   49.4530 H   0  0  0  0  0  0  0  0  0  0  0  0
   33.5240   30.1240   49.1780 H   0  0  0  0  0  0  0  0  0  0  0  0
   35.3780   30.6280   50.3750 H   0  0  0  0  0  0  0  0  0  0  0  0
   35.2720   28.9670   51.0120 H   0  0  0  0  0  0  0  0  0  0  0  0
   37.5100   29.1960   50.0120 H   0  0  0  0  0  0  0  0  0  0  0  0
   36.4960   28.1040   49.0170 H   0  0  0  0  0  0  0  0  0  0  0  0
   37.7800   29.6280   47.7190 H   0  0  0  0  0  0  0  0  0  0  0  0
   34.8280   29.8890   45.0310 C   0  0  0  0  0  0  0  0  0  0  0  0
   35.1260   29.8050   43.6840 C   0  0  0  0  0  0  0  0  0  0  0  0
   36.3880   29.8480   43.1520 C   0  0  0  0  0  0  0  0  0  0  0  0
   37.4770   29.9840   44.0160 C   0  0  0  0  0  0  0  0  0  0  0  0
   37.1800   30.0650   45.3730 C   0  0  0  0  0  0  0  0  0  0  0  0
   35.8990   30.0250   45.9100 C   0  0  0  0  0  0  0  0  0  0  0  0
   34.3350   29.7010   42.9240 H   0  0  0  0  0  0  0  0  0  0  0  0
   36.5440   29.7810   42.0910 H   0  0  0  0  0  0  0  0  0  0  0  0
   38.4590   30.0160   43.5760 H   0  0  0  0  0  0  0  0  0  0  0  0
   38.1110   30.1500   45.9180 H   0  0  0  0  0  0  0  0  0  0  0  0
   32.9030   28.4640   45.4950 C   0  0  0  0  0  0  0  0  0  0  0  0
   33.4500   29.7930   45.3710 C   0  0  0  0  0  0  0  0  0  0  0  0
   32.6030   30.8580   45.6140 C   0  0  0  0  0  0  0  0  0  0  0  0
   31.3130   30.6370   45.9600 N   0  0  0  0  0  0  0  0  0  0  0  0
   30.8090   29.3660   46.0760 C   0  0  0  0  0  0  0  0  0  0  0  0
   31.6090   28.3010   45.8410 N   0  0  0  0  0  0  0  0  0  0  0  0
   33.4380   27.5460   45.3380 H   0  0  0  0  0  0  0  0  0  0  0  0
   32.7350   31.8900   45.5180 H   0  0  0  0  0  0  0  0  0  0  0  0
   29.7810   29.1510   46.3530 H   0  0  0  0  0  0  0  0  0  0  0  0
   37.3750   31.3840   48.6870 C   0  0  0  0  0  0  0  0  0  0  0  0
   38.4960   31.9590   48.0890 C   0  0  0  0  0  0  0  0  0  0  0  0
   39.0340   31.4660   47.2660 H   0  0  0  0  0  0  0  0  0  0  0  0
   39.0380   33.1880   48.4580 C   0  0  0  0  0  0  0  0  0  0  0  0
   39.9060   33.5880   47.9610 H   0  0  0  0  0  0  0  0  0  0  0  0
   38.4170   33.8680   49.4820 C   0  0  0  0  0  0  0  0  0  0  0  0
   37.3280   33.2560   50.0300 C   0  0  0  0  0  0  0  0  0  0  0  0
   36.8220   32.0780   49.6640 N   0  0  0  0  0  0  0  0  0  0  0  0
  1  2  1  0  0  0  0
  1  7  1  1  0  0  0
  1  6  1  0  0  0  0
  2  3  1  0  0  0  0
  3 11  1  0  0  0  0
  3 10  1  0  0  0  0
  3  4  1  0  0  0  0
  4 12  1  0  0  0  0
  4 13  1  0  0  0  0
  5 14  1  0  0  0  0
  5  4  1  0  0  0  0
  6 16  1  6  0  0  0
  6 36  1  0  0  0  0
  6  5  1  0  0  0  0
  8  2  1  0  0  0  0
  9  2  1  0  0  0  0
 15  5  1  0  0  0  0
 17 28  1  0  0  0  0
 17 22  1  0  0  0  0
 18 17  2  0  0  0  0
 19 18  1  0  0  0  0
 19 20  2  0  0  0  0
 20 21  1  0  0  0  0
 21 22  2  0  0  0  0
 21 26  1  0  0  0  0
 22  1  1  0  0  0  0
 23 18  1  0  0  0  0
 24 19  1  0  0  0  0
 25 20  1  0  0  0  0
 27 32  1  0  0  0  0
 28 27  2  0  0  0  0
 28 29  1  0  0  0  0
 29 30  2  0  0  0  0
 30 31  1  0  0  0  0
 31 35  1  0  0  0  0
 32 31  2  0  0  0  0
 33 27  1  0  0  0  0
 34 29  1  0  0  0  0
 36 43  1  0  0  0  0
 37 39  1  0  0  0  0
 37 36  2  0  0  0  0
 38 37  1  0  0  0  0
 39 41  2  0  0  0  0
 40 39  1  0  0  0  0
 41 42  1  0  0  0  0
 43 42  2  0  0  0  0
M  END
>  <minimizedAffinity>
-5.50297642

>  <minimizedRMSD>
3.74023509

$$$$
