
 OpenBabel03272507103D

 26 28  0  0  0  0  0  0  0  0999 V2000
   36.1330   29.7230   49.8650 C   0  0  0  0  0  0  0  0  0  0  0  0
   35.0380   29.5500   50.6650 C   0  0  0  0  0  0  0  0  0  0  0  0
   34.0990   28.8200   49.9200 C   0  0  0  0  0  0  0  0  0  0  0  0
   34.6990   28.5970   48.6960 C   0  0  0  0  0  0  0  0  0  0  0  0
   35.8830   29.1390   48.7060 O   0  0  0  0  0  0  0  0  0  0  0  0
   34.8270   29.8670   51.6840 H   0  0  0  0  0  0  0  0  0  0  0  0
   33.1040   28.4860   50.2080 H   0  0  0  0  0  0  0  0  0  0  0  0
   34.0910   27.8700   47.5870 C   0  0  0  0  0  0  0  0  0  0  0  0
   33.7680   26.5370   47.7190 C   0  0  0  0  0  0  0  0  0  0  0  0
   33.9440   25.9760   48.6290 H   0  0  0  0  0  0  0  0  0  0  0  0
   33.1910   25.8240   46.6870 C   0  0  0  0  0  0  0  0  0  0  0  0
   32.9330   24.7950   46.7690 H   0  0  0  0  0  0  0  0  0  0  0  0
   32.9270   26.4680   45.4720 C   0  0  0  0  0  0  0  0  0  0  0  0
   33.2660   27.8220   45.3680 C   0  0  0  0  0  0  0  0  0  0  0  0
   33.8350   28.4830   46.4170 N   0  0  0  0  0  0  0  0  0  0  0  0
   37.3160   30.4370   50.3000 C   0  0  0  0  0  0  0  0  0  0  0  0
   37.7090   30.2930   51.4810 O   0  0  0  0  0  0  0  0  0  0  0  0
   37.9800   31.2830   49.3390 C   0  0  0  0  0  0  0  0  0  0  0  0
   38.2730   32.5850   49.7220 C   0  0  0  0  0  0  0  0  0  0  0  0
   38.9100   33.4330   48.8290 C   0  0  0  0  0  0  0  0  0  0  0  0
   39.2180   32.9130   47.5880 N   0  0  0  0  0  0  0  0  0  0  0  0
   38.9260   31.6510   47.2350 C   0  0  0  0  0  0  0  0  0  0  0  0
   38.3110   30.8450   48.1070 N   0  0  0  0  0  0  0  0  0  0  0  0
   38.0110   32.9480   50.7120 H   0  0  0  0  0  0  0  0  0  0  0  0
   39.1480   34.4430   49.1010 H   0  0  0  0  0  0  0  0  0  0  0  0
   39.1980   31.3170   46.2450 H   0  0  0  0  0  0  0  0  0  0  0  0
  1 16  1  0  0  0  0
  1  2  2  0  0  0  0
  2  6  1  0  0  0  0
  3  7  1  0  0  0  0
  3  2  1  0  0  0  0
  4  5  1  0  0  0  0
  4  3  2  0  0  0  0
  5  1  1  0  0  0  0
  8  9  1  0  0  0  0
  8  4  1  0  0  0  0
  9 10  1  0  0  0  0
 11 12  1  0  0  0  0
 11  9  2  0  0  0  0
 13 11  1  0  0  0  0
 14 13  2  0  0  0  0
 14 15  1  0  0  0  0
 15  8  2  0  0  0  0
 16 17  2  0  0  0  0
 18 19  1  0  0  0  0
 18 16  1  0  0  0  0
 19 24  1  0  0  0  0
 20 25  1  0  0  0  0
 20 19  2  0  0  0  0
 21 20  1  0  0  0  0
 22 21  2  0  0  0  0
 22 23  1  0  0  0  0
 23 18  2  0  0  0  0
 26 22  1  0  0  0  0
M  END
>  <minimizedAffinity>
-5.32136011

>  <minimizedRMSD>
1.56297171

$$$$
