
 OpenBabel03272507113D

 26 28  0  0  0  0  0  0  0  0999 V2000
   37.0370   26.5640   33.5040 C   0  0  0  0  0  0  0  0  0  0  0  0
   37.2440   27.5860   34.3880 C   0  0  0  0  0  0  0  0  0  0  0  0
   37.8640   27.0300   35.5170 C   0  0  0  0  0  0  0  0  0  0  0  0
   37.9930   25.6830   35.2350 C   0  0  0  0  0  0  0  0  0  0  0  0
   37.4990   25.4540   34.0530 O   0  0  0  0  0  0  0  0  0  0  0  0
   37.0170   28.6490   34.3340 H   0  0  0  0  0  0  0  0  0  0  0  0
   38.1880   27.5190   36.4330 H   0  0  0  0  0  0  0  0  0  0  0  0
   38.5890   24.6960   36.1280 C   0  0  0  0  0  0  0  0  0  0  0  0
   38.0490   24.4660   37.3750 C   0  0  0  0  0  0  0  0  0  0  0  0
   37.1780   24.9910   37.7450 H   0  0  0  0  0  0  0  0  0  0  0  0
   38.5930   23.5370   38.2410 C   0  0  0  0  0  0  0  0  0  0  0  0
   38.1910   23.3440   39.2070 H   0  0  0  0  0  0  0  0  0  0  0  0
   39.7220   22.8090   37.8470 C   0  0  0  0  0  3  0  0  0  0  0  0
   40.2470   23.0650   36.5750 C   0  0  0  0  0  3  0  0  0  0  0  0
   39.6740   23.9930   35.7560 N   0  0  0  0  0  0  0  0  0  0  0  0
   36.4110   26.7610   32.2110 C   0  0  0  0  0  0  0  0  0  0  0  0
   36.2090   25.7650   31.4800 O   0  0  0  0  0  0  0  0  0  0  0  0
   36.0540   28.1080   31.8380 C   0  0  0  0  0  0  0  0  0  0  0  0
   36.8770   28.7640   30.9330 C   0  0  0  0  0  0  0  0  0  0  0  0
   36.5720   30.0600   30.5460 C   0  0  0  0  0  0  0  0  0  0  0  0
   35.4410   30.6250   31.1010 N   0  0  0  0  0  0  0  0  0  0  0  0
   34.6560   29.9750   31.9750 C   0  0  0  0  0  0  0  0  0  0  0  0
   34.9640   28.7250   32.3380 N   0  0  0  0  0  0  0  0  0  0  0  0
   37.7580   28.2760   30.5230 H   0  0  0  0  0  0  0  0  0  0  0  0
   37.1920   30.5890   29.8490 H   0  0  0  0  0  0  0  0  0  0  0  0
   33.7880   30.4840   32.3650 H   0  0  0  0  0  0  0  0  0  0  0  0
  1  5  1  0  0  0  0
  1  2  2  0  0  0  0
  2  3  1  0  0  0  0
  3  7  1  0  0  0  0
  4  3  2  0  0  0  0
  4  8  1  0  0  0  0
  5  4  1  0  0  0  0
  6  2  1  0  0  0  0
  8  9  1  0  0  0  0
  9 10  1  0  0  0  0
  9 11  2  0  0  0  0
 11 12  1  0  0  0  0
 13 11  1  0  0  0  0
 14 13  2  0  0  0  0
 15  8  2  0  0  0  0
 15 14  1  0  0  0  0
 16  1  1  0  0  0  0
 17 16  2  0  0  0  0
 18 16  1  0  0  0  0
 18 23  1  0  0  0  0
 19 18  2  0  0  0  0
 20 19  1  0  0  0  0
 20 21  2  0  0  0  0
 21 22  1  0  0  0  0
 22 23  2  0  0  0  0
 22 26  1  0  0  0  0
 24 19  1  0  0  0  0
 25 20  1  0  0  0  0
M  END
>  <minimizedAffinity>
-5.14352417

$$$$

 OpenBabel03272507113D

 26 28  0  0  0  0  0  0  0  0999 V2000
   36.7200   25.8130   31.6590 C   0  0  0  0  0  0  0  0  0  0  0  0
   35.4770   25.8900   31.0970 C   0  0  0  0  0  0  0  0  0  0  0  0
   35.0110   24.5750   30.9520 C   0  0  0  0  0  0  0  0  0  0  0  0
   36.0230   23.7730   31.4450 C   0  0  0  0  0  0  0  0  0  0  0  0
   37.0000   24.5340   31.8470 O   0  0  0  0  0  0  0  0  0  0  0  0
   34.8740   26.7410   30.7850 H   0  0  0  0  0  0  0  0  0  0  0  0
   34.0660   24.2220   30.5450 H   0  0  0  0  0  0  0  0  0  0  0  0
   35.9850   22.3170   31.4990 C   0  0  0  0  0  0  0  0  0  0  0  0
   35.0010   21.6700   32.2170 C   0  0  0  0  0  0  0  0  0  0  0  0
   34.2290   22.1960   32.7620 H   0  0  0  0  0  0  0  0  0  0  0  0
   34.9410   20.2920   32.2850 C   0  0  0  0  0  0  0  0  0  0  0  0
   34.1900   19.7740   32.8320 H   0  0  0  0  0  0  0  0  0  0  0  0
   35.9010   19.5280   31.6100 C   0  0  0  0  0  3  0  0  0  0  0  0
   36.8860   20.2130   30.8910 C   0  0  0  0  0  3  0  0  0  0  0  0
   36.9040   21.5770   30.8530 N   0  0  0  0  0  0  0  0  0  0  0  0
   37.5190   26.9840   31.9600 C   0  0  0  0  0  0  0  0  0  0  0  0
   37.6260   27.8810   31.0930 O   0  0  0  0  0  0  0  0  0  0  0  0
   38.1500   27.0500   33.2550 C   0  0  0  0  0  0  0  0  0  0  0  0
   37.3530   27.3800   34.3430 C   0  0  0  0  0  0  0  0  0  0  0  0
   37.9190   27.4550   35.6070 C   0  0  0  0  0  0  0  0  0  0  0  0
   39.2700   27.1890   35.7010 N   0  0  0  0  0  0  0  0  0  0  0  0
   40.0250   26.8710   34.6380 C   0  0  0  0  0  0  0  0  0  0  0  0
   39.4650   26.8030   33.4250 N   0  0  0  0  0  0  0  0  0  0  0  0
   36.2920   27.5810   34.2180 H   0  0  0  0  0  0  0  0  0  0  0  0
   37.3240   27.7080   36.4640 H   0  0  0  0  0  0  0  0  0  0  0  0
   41.0750   26.6770   34.7920 H   0  0  0  0  0  0  0  0  0  0  0  0
  1  5  1  0  0  0  0
  1 16  1  0  0  0  0
  2  1  2  0  0  0  0
  3  2  1  0  0  0  0
  3  4  2  0  0  0  0
  4  8  1  0  0  0  0
  4  5  1  0  0  0  0
  6  2  1  0  0  0  0
  7  3  1  0  0  0  0
  8  9  1  0  0  0  0
  9 11  2  0  0  0  0
  9 10  1  0  0  0  0
 11 12  1  0  0  0  0
 13 11  1  0  0  0  0
 14 13  2  0  0  0  0
 15 14  1  0  0  0  0
 15  8  2  0  0  0  0
 16 18  1  0  0  0  0
 17 16  2  0  0  0  0
 18 23  2  0  0  0  0
 18 19  1  0  0  0  0
 19 20  2  0  0  0  0
 20 21  1  0  0  0  0
 20 25  1  0  0  0  0
 22 26  1  0  0  0  0
 22 21  2  0  0  0  0
 23 22  1  0  0  0  0
 24 19  1  0  0  0  0
M  END
>  <minimizedAffinity>
-5.06354427

$$$$

 OpenBabel03272507113D

 26 28  0  0  0  0  0  0  0  0999 V2000
   38.0250   25.4090   35.8670 C   0  0  0  0  0  0  0  0  0  0  0  0
   38.3810   26.6090   36.4150 C   0  0  0  0  0  0  0  0  0  0  0  0
   38.1180   27.5930   35.4500 C   0  0  0  0  0  0  0  0  0  0  0  0
   37.6110   26.9090   34.3610 C   0  0  0  0  0  0  0  0  0  0  0  0
   37.5730   25.6390   34.6460 O   0  0  0  0  0  0  0  0  0  0  0  0
   38.7930   26.8690   37.3880 H   0  0  0  0  0  0  0  0  0  0  0  0
   38.2680   28.6690   35.5080 H   0  0  0  0  0  0  0  0  0  0  0  0
   37.1920   27.5260   33.1080 C   0  0  0  0  0  0  0  0  0  0  0  0
   36.2660   28.5470   33.1080 C   0  0  0  0  0  0  0  0  0  0  0  0
   35.8150   28.9330   34.0130 H   0  0  0  0  0  0  0  0  0  0  0  0
   35.8500   29.1490   31.9360 C   0  0  0  0  0  0  0  0  0  0  0  0
   35.1380   29.9390   31.9140 H   0  0  0  0  0  0  0  0  0  0  0  0
   36.3810   28.7140   30.7150 C   0  0  0  0  0  3  0  0  0  0  0  0
   37.3180   27.6760   30.7480 C   0  0  0  0  0  3  0  0  0  0  0  0
   37.6970   27.1130   31.9320 N   0  0  0  0  0  0  0  0  0  0  0  0
   38.1570   24.1530   36.5790 C   0  0  0  0  0  0  0  0  0  0  0  0
   37.2180   23.7760   37.3180 O   0  0  0  0  0  0  0  0  0  0  0  0
   39.3740   23.4010   36.3920 C   0  0  0  0  0  0  0  0  0  0  0  0
   39.8820   22.7190   37.4890 C   0  0  0  0  0  0  0  0  0  0  0  0
   41.0500   21.9840   37.3560 C   0  0  0  0  0  0  0  0  0  0  0  0
   41.6440   21.9800   36.1100 N   0  0  0  0  0  0  0  0  0  0  0  0
   41.1380   22.6470   35.0600 C   0  0  0  0  0  0  0  0  0  0  0  0
   40.0110   23.3510   35.2050 N   0  0  0  0  0  0  0  0  0  0  0  0
   39.3760   22.7520   38.4510 H   0  0  0  0  0  0  0  0  0  0  0  0
   41.4630   21.4470   38.1880 H   0  0  0  0  0  0  0  0  0  0  0  0
   41.6610   22.5960   34.1170 H   0  0  0  0  0  0  0  0  0  0  0  0
  1  2  2  0  0  0  0
  1 16  1  0  0  0  0
  2  6  1  0  0  0  0
  3  7  1  0  0  0  0
  3  2  1  0  0  0  0
  4  5  1  0  0  0  0
  4  3  2  0  0  0  0
  5  1  1  0  0  0  0
  8  9  1  0  0  0  0
  8  4  1  0  0  0  0
  9 10  1  0  0  0  0
 11  9  2  0  0  0  0
 12 11  1  0  0  0  0
 13 14  2  0  0  0  0
 13 11  1  0  0  0  0
 14 15  1  0  0  0  0
 15  8  2  0  0  0  0
 16 17  2  0  0  0  0
 18 16  1  0  0  0  0
 18 19  1  0  0  0  0
 19 24  1  0  0  0  0
 20 19  2  0  0  0  0
 20 25  1  0  0  0  0
 21 20  1  0  0  0  0
 22 23  1  0  0  0  0
 22 21  2  0  0  0  0
 23 18  2  0  0  0  0
 26 22  1  0  0  0  0
M  END
>  <minimizedAffinity>
-5.05338526

$$$$

 OpenBabel03272507113D

 26 28  0  0  0  0  0  0  0  0999 V2000
   37.0470   26.3380   33.1870 C   0  0  0  0  0  0  0  0  0  0  0  0
   37.0080   27.3630   34.0910 C   0  0  0  0  0  0  0  0  0  0  0  0
   37.5520   26.8730   35.2880 C   0  0  0  0  0  0  0  0  0  0  0  0
   37.8910   25.5590   35.0240 C   0  0  0  0  0  0  0  0  0  0  0  0
   37.5800   25.2890   33.7890 O   0  0  0  0  0  0  0  0  0  0  0  0
   36.6510   28.3880   34.0100 H   0  0  0  0  0  0  0  0  0  0  0  0
   37.6930   27.3850   36.2380 H   0  0  0  0  0  0  0  0  0  0  0  0
   38.4960   24.6440   35.9830 C   0  0  0  0  0  0  0  0  0  0  0  0
   37.9480   24.4820   37.2380 C   0  0  0  0  0  0  0  0  0  0  0  0
   37.0630   25.0120   37.5650 H   0  0  0  0  0  0  0  0  0  0  0  0
   38.5010   23.6220   38.1660 C   0  0  0  0  0  0  0  0  0  0  0  0
   38.0920   23.4830   39.1380 H   0  0  0  0  0  0  0  0  0  0  0  0
   39.6480   22.8940   37.8290 C   0  0  0  0  0  3  0  0  0  0  0  0
   40.1820   23.0790   36.5490 C   0  0  0  0  0  3  0  0  0  0  0  0
   39.5990   23.9410   35.6670 N   0  0  0  0  0  0  0  0  0  0  0  0
   36.5650   26.4730   31.8270 C   0  0  0  0  0  0  0  0  0  0  0  0
   35.5550   25.8210   31.4760 O   0  0  0  0  0  0  0  0  0  0  0  0
   37.2840   27.3610   30.9460 C   0  0  0  0  0  0  0  0  0  0  0  0
   38.6640   27.2210   30.8790 C   0  0  0  0  0  0  0  0  0  0  0  0
   39.3960   28.0530   30.0460 C   0  0  0  0  0  0  0  0  0  0  0  0
   38.6850   28.9880   29.3200 N   0  0  0  0  0  0  0  0  0  0  0  0
   37.3510   29.1090   29.3980 C   0  0  0  0  0  0  0  0  0  0  0  0
   36.6590   28.2990   30.2060 N   0  0  0  0  0  0  0  0  0  0  0  0
   39.1790   26.4680   31.4710 H   0  0  0  0  0  0  0  0  0  0  0  0
   40.4630   27.9650   29.9770 H   0  0  0  0  0  0  0  0  0  0  0  0
   36.8670   29.8640   28.7990 H   0  0  0  0  0  0  0  0  0  0  0  0
  1  5  1  0  0  0  0
  1  2  2  0  0  0  0
  2  3  1  0  0  0  0
  3  7  1  0  0  0  0
  4  3  2  0  0  0  0
  4  8  1  0  0  0  0
  5  4  1  0  0  0  0
  6  2  1  0  0  0  0
  8  9  1  0  0  0  0
  9 10  1  0  0  0  0
  9 11  2  0  0  0  0
 11 12  1  0  0  0  0
 13 11  1  0  0  0  0
 14 13  2  0  0  0  0
 15  8  2  0  0  0  0
 15 14  1  0  0  0  0
 16  1  1  0  0  0  0
 17 16  2  0  0  0  0
 18 16  1  0  0  0  0
 19 18  1  0  0  0  0
 19 24  1  0  0  0  0
 20 19  2  0  0  0  0
 21 22  2  0  0  0  0
 21 20  1  0  0  0  0
 22 23  1  0  0  0  0
 23 18  2  0  0  0  0
 25 20  1  0  0  0  0
 26 22  1  0  0  0  0
M  END
>  <minimizedAffinity>
-5.00290823

$$$$

 OpenBabel03272507113D

 26 28  0  0  0  0  0  0  0  0999 V2000
   36.4210   27.8240   32.4740 C   0  0  0  0  0  0  0  0  0  0  0  0
   37.1110   27.3550   33.5570 C   0  0  0  0  0  0  0  0  0  0  0  0
   36.7540   28.1610   34.6490 C   0  0  0  0  0  0  0  0  0  0  0  0
   35.8540   29.0820   34.1430 C   0  0  0  0  0  0  0  0  0  0  0  0
   35.6890   28.8490   32.8730 O   0  0  0  0  0  0  0  0  0  0  0  0
   37.8180   26.5350   33.6680 H   0  0  0  0  0  0  0  0  0  0  0  0
   37.0900   28.1060   35.6820 H   0  0  0  0  0  0  0  0  0  0  0  0
   35.2070   30.1310   34.9210 C   0  0  0  0  0  0  0  0  0  0  0  0
   35.9610   31.0380   35.6340 C   0  0  0  0  0  0  0  0  0  0  0  0
   37.0430   31.0180   35.6520 H   0  0  0  0  0  0  0  0  0  0  0  0
   35.3750   32.0420   36.3800 C   0  0  0  0  0  0  0  0  0  0  0  0
   35.9390   32.7530   36.9360 H   0  0  0  0  0  0  0  0  0  0  0  0
   33.9790   32.1450   36.4150 C   0  0  0  0  0  3  0  0  0  0  0  0
   33.2410   31.2100   35.6810 C   0  0  0  0  0  3  0  0  0  0  0  0
   33.8670   30.2360   34.9600 N   0  0  0  0  0  0  0  0  0  0  0  0
   36.5380   27.2330   31.1560 C   0  0  0  0  0  0  0  0  0  0  0  0
   36.5330   27.9850   30.1540 O   0  0  0  0  0  0  0  0  0  0  0  0
   36.6530   25.7980   31.0720 C   0  0  0  0  0  0  0  0  0  0  0  0
   35.5070   25.0460   31.2920 C   0  0  0  0  0  0  0  0  0  0  0  0
   35.5720   23.6630   31.2220 C   0  0  0  0  0  0  0  0  0  0  0  0
   36.8030   23.1120   30.9320 N   0  0  0  0  0  0  0  0  0  0  0  0
   37.9020   23.8540   30.7220 C   0  0  0  0  0  0  0  0  0  0  0  0
   37.8230   25.1870   30.7930 N   0  0  0  0  0  0  0  0  0  0  0  0
   34.5580   25.5280   31.5170 H   0  0  0  0  0  0  0  0  0  0  0  0
   34.6990   23.0610   31.3880 H   0  0  0  0  0  0  0  0  0  0  0  0
   38.8300   23.3500   30.5000 H   0  0  0  0  0  0  0  0  0  0  0  0
  1  5  1  0  0  0  0
  1  2  2  0  0  0  0
  2  6  1  0  0  0  0
  2  3  1  0  0  0  0
  3  7  1  0  0  0  0
  4  3  2  0  0  0  0
  4  8  1  0  0  0  0
  5  4  1  0  0  0  0
  8 15  2  0  0  0  0
  8  9  1  0  0  0  0
  9 10  1  0  0  0  0
  9 11  2  0  0  0  0
 11 13  1  0  0  0  0
 11 12  1  0  0  0  0
 14 13  2  0  0  0  0
 15 14  1  0  0  0  0
 16  1  1  0  0  0  0
 17 16  2  0  0  0  0
 18 16  1  0  0  0  0
 18 19  1  0  0  0  0
 19 24  1  0  0  0  0
 20 19  2  0  0  0  0
 20 25  1  0  0  0  0
 21 20  1  0  0  0  0
 22 23  1  0  0  0  0
 22 21  2  0  0  0  0
 23 18  2  0  0  0  0
 26 22  1  0  0  0  0
M  END
>  <minimizedAffinity>
-5.00043821

$$$$

 OpenBabel03272507113D

 26 28  0  0  0  0  0  0  0  0999 V2000
   38.0690   23.9500   33.8090 C   0  0  0  0  0  0  0  0  0  0  0  0
   37.4410   24.5500   32.7530 C   0  0  0  0  0  0  0  0  0  0  0  0
   36.7670   23.5390   32.0510 C   0  0  0  0  0  0  0  0  0  0  0  0
   37.0380   22.3720   32.7410 C   0  0  0  0  0  0  0  0  0  0  0  0
   37.7990   22.6560   33.7580 O   0  0  0  0  0  0  0  0  0  0  0  0
   37.4010   25.5870   32.4270 H   0  0  0  0  0  0  0  0  0  0  0  0
   36.1550   23.6170   31.1550 H   0  0  0  0  0  0  0  0  0  0  0  0
   36.5420   21.0510   32.3750 C   0  0  0  0  0  0  0  0  0  0  0  0
   35.8460   20.2880   33.2880 C   0  0  0  0  0  0  0  0  0  0  0  0
   35.6370   20.6220   34.2960 H   0  0  0  0  0  0  0  0  0  0  0  0
   35.3650   19.0330   32.9690 C   0  0  0  0  0  0  0  0  0  0  0  0
   34.8250   18.4290   33.6580 H   0  0  0  0  0  0  0  0  0  0  0  0
   35.5880   18.5190   31.6860 C   0  0  0  0  0  3  0  0  0  0  0  0
   36.2980   19.3160   30.7810 C   0  0  0  0  0  3  0  0  0  0  0  0
   36.7530   20.5500   31.1440 N   0  0  0  0  0  0  0  0  0  0  0  0
   38.8710   24.6860   34.7650 C   0  0  0  0  0  0  0  0  0  0  0  0
   39.4810   25.7100   34.3800 O   0  0  0  0  0  0  0  0  0  0  0  0
   38.9200   24.1920   36.1190 C   0  0  0  0  0  0  0  0  0  0  0  0
   37.9810   24.6810   37.0170 C   0  0  0  0  0  0  0  0  0  0  0  0
   37.9920   24.2340   38.3290 C   0  0  0  0  0  0  0  0  0  0  0  0
   38.9600   23.3090   38.6630 N   0  0  0  0  0  0  0  0  0  0  0  0
   39.8610   22.8470   37.7820 C   0  0  0  0  0  0  0  0  0  0  0  0
   39.8380   23.2890   36.5200 N   0  0  0  0  0  0  0  0  0  0  0  0
   37.2360   25.4100   36.7050 H   0  0  0  0  0  0  0  0  0  0  0  0
   37.2760   24.5960   39.0420 H   0  0  0  0  0  0  0  0  0  0  0  0
   40.5880   22.1250   38.1190 H   0  0  0  0  0  0  0  0  0  0  0  0
  1 16  1  0  0  0  0
  2  1  2  0  0  0  0
  3  4  2  0  0  0  0
  3  2  1  0  0  0  0
  4  5  1  0  0  0  0
  5  1  1  0  0  0  0
  6  2  1  0  0  0  0
  7  3  1  0  0  0  0
  8  4  1  0  0  0  0
  8  9  1  0  0  0  0
  9 10  1  0  0  0  0
 11  9  2  0  0  0  0
 11 12  1  0  0  0  0
 13 11  1  0  0  0  0
 14 15  1  0  0  0  0
 14 13  2  0  0  0  0
 15  8  2  0  0  0  0
 16 18  1  0  0  0  0
 17 16  2  0  0  0  0
 18 23  2  0  0  0  0
 18 19  1  0  0  0  0
 19 20  2  0  0  0  0
 20 21  1  0  0  0  0
 20 25  1  0  0  0  0
 22 26  1  0  0  0  0
 22 21  2  0  0  0  0
 23 22  1  0  0  0  0
 24 19  1  0  0  0  0
M  END
>  <minimizedAffinity>
-4.94053221

$$$$

 OpenBabel03272507113D

 26 28  0  0  0  0  0  0  0  0999 V2000
   37.9150   25.7030   34.8300 C   0  0  0  0  0  0  0  0  0  0  0  0
   38.5480   26.5670   35.6790 C   0  0  0  0  0  0  0  0  0  0  0  0
   37.9480   27.8230   35.5060 C   0  0  0  0  0  0  0  0  0  0  0  0
   36.9730   27.6320   34.5450 C   0  0  0  0  0  0  0  0  0  0  0  0
   36.9870   26.3830   34.1790 O   0  0  0  0  0  0  0  0  0  0  0  0
   39.3610   26.4220   36.3880 H   0  0  0  0  0  0  0  0  0  0  0  0
   38.1730   28.7660   36.0010 H   0  0  0  0  0  0  0  0  0  0  0  0
   36.0830   28.6710   34.0390 C   0  0  0  0  0  0  0  0  0  0  0  0
   35.8180   29.7920   34.7950 C   0  0  0  0  0  0  0  0  0  0  0  0
   36.2450   29.9550   35.7760 H   0  0  0  0  0  0  0  0  0  0  0  0
   34.9790   30.7910   34.3400 C   0  0  0  0  0  0  0  0  0  0  0  0
   34.7620   31.6650   34.9070 H   0  0  0  0  0  0  0  0  0  0  0  0
   34.3820   30.6660   33.0800 C   0  0  0  0  0  3  0  0  0  0  0  0
   34.6700   29.5160   32.3370 C   0  0  0  0  0  3  0  0  0  0  0  0
   35.5050   28.5560   32.8290 N   0  0  0  0  0  0  0  0  0  0  0  0
   38.2690   24.3010   34.7310 C   0  0  0  0  0  0  0  0  0  0  0  0
   37.9070   23.6560   33.7200 O   0  0  0  0  0  0  0  0  0  0  0  0
   39.0260   23.7230   35.8150 C   0  0  0  0  0  0  0  0  0  0  0  0
   40.3380   23.3510   35.5560 C   0  0  0  0  0  0  0  0  0  0  0  0
   41.1030   22.7910   36.5680 C   0  0  0  0  0  0  0  0  0  0  0  0
   40.4920   22.6370   37.7960 N   0  0  0  0  0  0  0  0  0  0  0  0
   39.2210   23.0030   38.0290 C   0  0  0  0  0  0  0  0  0  0  0  0
   38.4970   23.5410   37.0420 N   0  0  0  0  0  0  0  0  0  0  0  0
   40.7750   23.4930   34.5700 H   0  0  0  0  0  0  0  0  0  0  0  0
   42.1190   22.4960   36.3930 H   0  0  0  0  0  0  0  0  0  0  0  0
   38.8140   22.8500   39.0160 H   0  0  0  0  0  0  0  0  0  0  0  0
  1  2  2  0  0  0  0
  2  6  1  0  0  0  0
  3  2  1  0  0  0  0
  3  7  1  0  0  0  0
  4  3  2  0  0  0  0
  5  4  1  0  0  0  0
  5  1  1  0  0  0  0
  8  4  1  0  0  0  0
  8  9  1  0  0  0  0
  9 10  1  0  0  0  0
 11  9  2  0  0  0  0
 11 12  1  0  0  0  0
 13 11  1  0  0  0  0
 14 15  1  0  0  0  0
 14 13  2  0  0  0  0
 15  8  2  0  0  0  0
 16  1  1  0  0  0  0
 16 18  1  0  0  0  0
 17 16  2  0  0  0  0
 18 23  1  0  0  0  0
 19 18  2  0  0  0  0
 19 20  1  0  0  0  0
 20 21  2  0  0  0  0
 21 22  1  0  0  0  0
 22 26  1  0  0  0  0
 23 22  2  0  0  0  0
 24 19  1  0  0  0  0
 25 20  1  0  0  0  0
M  END
>  <minimizedAffinity>
-4.86601353

$$$$

 OpenBabel03272507113D

 26 28  0  0  0  0  0  0  0  0999 V2000
   37.8780   27.2000   34.5140 C   0  0  0  0  0  0  0  0  0  0  0  0
   37.5200   27.2240   33.1950 C   0  0  0  0  0  0  0  0  0  0  0  0
   36.5140   28.1930   33.0620 C   0  0  0  0  0  0  0  0  0  0  0  0
   36.3260   28.7000   34.3340 C   0  0  0  0  0  0  0  0  0  0  0  0
   37.1410   28.0940   35.1490 O   0  0  0  0  0  0  0  0  0  0  0  0
   37.8740   26.6550   32.3370 H   0  0  0  0  0  0  0  0  0  0  0  0
   35.9750   28.5050   32.1700 H   0  0  0  0  0  0  0  0  0  0  0  0
   35.3690   29.7420   34.6850 C   0  0  0  0  0  0  0  0  0  0  0  0
   35.7830   30.8770   35.3480 C   0  0  0  0  0  0  0  0  0  0  0  0
   36.8130   31.0480   35.6330 H   0  0  0  0  0  0  0  0  0  0  0  0
   34.8990   31.8800   35.6920 C   0  0  0  0  0  0  0  0  0  0  0  0
   35.1980   32.7640   36.2030 H   0  0  0  0  0  0  0  0  0  0  0  0
   33.5450   31.7450   35.3620 C   0  0  0  0  0  3  0  0  0  0  0  0
   33.1540   30.5810   34.6890 C   0  0  0  0  0  3  0  0  0  0  0  0
   34.0670   29.6180   34.3710 N   0  0  0  0  0  0  0  0  0  0  0  0
   38.9000   26.3120   35.0320 C   0  0  0  0  0  0  0  0  0  0  0  0
   40.0790   26.7280   35.1080 O   0  0  0  0  0  0  0  0  0  0  0  0
   38.4960   24.9880   35.4350 C   0  0  0  0  0  0  0  0  0  0  0  0
   38.0500   24.8200   36.7390 C   0  0  0  0  0  0  0  0  0  0  0  0
   37.6520   23.5630   37.1690 C   0  0  0  0  0  0  0  0  0  0  0  0
   37.7270   22.5380   36.2480 N   0  0  0  0  0  0  0  0  0  0  0  0
   38.1610   22.7190   34.9910 C   0  0  0  0  0  0  0  0  0  0  0  0
   38.5420   23.9370   34.5910 N   0  0  0  0  0  0  0  0  0  0  0  0
   38.0090   25.6600   37.4280 H   0  0  0  0  0  0  0  0  0  0  0  0
   37.3040   23.4080   38.1720 H   0  0  0  0  0  0  0  0  0  0  0  0
   38.1910   21.8670   34.3290 H   0  0  0  0  0  0  0  0  0  0  0  0
  1 16  1  0  0  0  0
  1  5  1  0  0  0  0
  2  1  2  0  0  0  0
  3  2  1  0  0  0  0
  3  4  2  0  0  0  0
  4  8  1  0  0  0  0
  4  5  1  0  0  0  0
  6  2  1  0  0  0  0
  7  3  1  0  0  0  0
  8  9  1  0  0  0  0
  9 10  1  0  0  0  0
  9 11  2  0  0  0  0
 11 12  1  0  0  0  0
 13 11  1  0  0  0  0
 14 13  2  0  0  0  0
 15  8  2  0  0  0  0
 15 14  1  0  0  0  0
 16 17  2  0  0  0  0
 16 18  1  0  0  0  0
 18 19  1  0  0  0  0
 19 20  2  0  0  0  0
 19 24  1  0  0  0  0
 20 25  1  0  0  0  0
 21 20  1  0  0  0  0
 22 21  2  0  0  0  0
 23 22  1  0  0  0  0
 23 18  2  0  0  0  0
 26 22  1  0  0  0  0
M  END
>  <minimizedAffinity>
-4.79521656

$$$$

 OpenBabel03272507113D

 26 28  0  0  0  0  0  0  0  0999 V2000
   36.8660   25.2240   31.9610 C   0  0  0  0  0  0  0  0  0  0  0  0
   35.6890   25.3260   31.2750 C   0  0  0  0  0  0  0  0  0  0  0  0
   35.1770   24.0250   31.1470 C   0  0  0  0  0  0  0  0  0  0  0  0
   36.0970   23.2080   31.7770 C   0  0  0  0  0  0  0  0  0  0  0  0
   37.0650   23.9470   32.2370 O   0  0  0  0  0  0  0  0  0  0  0  0
   35.1600   26.1830   30.8640 H   0  0  0  0  0  0  0  0  0  0  0  0
   34.2600   23.6920   30.6650 H   0  0  0  0  0  0  0  0  0  0  0  0
   35.9840   21.7600   31.8960 C   0  0  0  0  0  0  0  0  0  0  0  0
   35.6200   21.1830   33.0940 C   0  0  0  0  0  0  0  0  0  0  0  0
   35.4050   21.7620   33.9840 H   0  0  0  0  0  0  0  0  0  0  0  0
   35.5050   19.8140   33.2360 C   0  0  0  0  0  0  0  0  0  0  0  0
   35.2240   19.3500   34.1510 H   0  0  0  0  0  0  0  0  0  0  0  0
   35.7640   18.9860   32.1370 C   0  0  0  0  0  3  0  0  0  0  0  0
   36.1310   19.6000   30.9340 C   0  0  0  0  0  3  0  0  0  0  0  0
   36.2320   20.9580   30.8440 N   0  0  0  0  0  0  0  0  0  0  0  0
   37.6860   26.3750   32.2840 C   0  0  0  0  0  0  0  0  0  0  0  0
   38.9330   26.2510   32.2710 O   0  0  0  0  0  0  0  0  0  0  0  0
   37.0130   27.6090   32.6060 C   0  0  0  0  0  0  0  0  0  0  0  0
   36.9380   28.5780   31.6150 C   0  0  0  0  0  0  0  0  0  0  0  0
   36.3000   29.7800   31.8810 C   0  0  0  0  0  0  0  0  0  0  0  0
   35.7680   29.9360   33.1450 N   0  0  0  0  0  0  0  0  0  0  0  0
   35.8490   28.9870   34.0910 C   0  0  0  0  0  0  0  0  0  0  0  0
   36.4680   27.8330   33.8190 N   0  0  0  0  0  0  0  0  0  0  0  0
   37.3730   28.4080   30.6330 H   0  0  0  0  0  0  0  0  0  0  0  0
   36.2290   30.5450   31.1320 H   0  0  0  0  0  0  0  0  0  0  0  0
   35.4080   29.1830   35.0560 H   0  0  0  0  0  0  0  0  0  0  0  0
  1  5  1  0  0  0  0
  1 16  1  0  0  0  0
  2  1  2  0  0  0  0
  3  2  1  0  0  0  0
  3  4  2  0  0  0  0
  4  8  1  0  0  0  0
  4  5  1  0  0  0  0
  6  2  1  0  0  0  0
  7  3  1  0  0  0  0
  8  9  1  0  0  0  0
  9 11  2  0  0  0  0
  9 10  1  0  0  0  0
 11 12  1  0  0  0  0
 13 11  1  0  0  0  0
 14 13  2  0  0  0  0
 15 14  1  0  0  0  0
 15  8  2  0  0  0  0
 16 18  1  0  0  0  0
 17 16  2  0  0  0  0
 18 23  1  0  0  0  0
 19 20  1  0  0  0  0
 19 18  2  0  0  0  0
 20 21  2  0  0  0  0
 21 22  1  0  0  0  0
 22 26  1  0  0  0  0
 23 22  2  0  0  0  0
 24 19  1  0  0  0  0
 25 20  1  0  0  0  0
M  END
>  <minimizedAffinity>
-4.7839241

$$$$
