
 OpenBabel03262521263D

 46 49  0  0  0  0  0  0  0  0999 V2000
   36.6730   25.3730   31.5920 C   0  0  0  0  0  0  0  0  0  0  0  0
   36.8650   25.8960   30.6240 H   0  0  0  0  0  0  0  0  0  0  0  0
   35.5620   25.2640   31.6340 H   0  0  0  0  0  0  0  0  0  0  0  0
   37.2800   23.9910   31.6310 C   0  0  0  0  0  0  0  0  0  0  0  0
   36.5800   23.3630   32.2250 H   0  0  0  0  0  0  0  0  0  0  0  0
   37.1320   23.5940   30.5830 H   0  0  0  0  0  0  0  0  0  0  0  0
   38.5850   23.9690   32.0120 C   0  0  0  0  0  0  0  0  0  0  0  0
   38.9030   24.8540   32.6270 H   0  0  0  0  0  0  0  0  0  0  0  0
   39.3390   23.8710   31.2040 H   0  0  0  0  0  0  0  0  0  0  0  0
   38.5440   22.8260   32.7640 O   0  0  0  0  0  0  0  0  0  0  0  0
   38.7630   22.9190   34.1120 C   0  0  0  0  0  0  0  0  0  0  0  0
   39.8580   22.1960   34.5230 C   0  0  0  0  0  0  0  0  0  0  0  0
   40.2030   22.2010   35.8910 C   0  0  0  0  0  0  0  0  0  0  0  0
   39.4160   22.9320   36.7310 N   0  0  0  0  0  0  0  0  0  0  0  0
   38.3310   23.6410   36.2880 C   0  0  0  0  0  0  0  0  0  0  0  0
   38.0250   23.6200   34.9790 N   0  0  0  0  0  0  0  0  0  0  0  0
   38.0250   24.2240   38.5860 C   0  0  0  0  0  0  0  0  0  0  0  0
   39.0030   23.5220   38.9650 O   0  0  0  0  0  0  0  0  0  0  0  0
   37.5820   24.3670   37.2550 N   0  0  0  0  0  0  0  0  0  0  0  0
   40.5490   21.5860   33.9580 H   0  0  0  0  0  0  0  0  0  0  0  0
   41.0390   21.6680   36.3020 H   0  0  0  0  0  0  0  0  0  0  0  0
   37.5430   24.7220   39.4140 H   0  0  0  0  0  0  0  0  0  0  0  0
   36.7820   24.9490   36.9970 H   0  0  0  0  0  0  0  0  0  0  0  0
   37.1740   26.4440   32.9270 S   0  0  0  0  0  0  0  0  0  0  0  0
   35.8860   28.7620   33.9580 C   0  0  0  0  0  0  0  0  0  0  0  0
   36.4430   28.0460   32.8940 C   0  0  0  0  0  0  0  0  0  0  0  0
   36.4120   28.6920   31.6450 C   0  0  0  0  0  0  0  0  0  0  0  0
   35.8820   29.9260   31.4690 C   0  0  0  0  0  0  0  0  0  0  0  0
   35.7180   30.7570   30.4510 N   0  0  0  0  0  0  0  0  0  0  0  0
   35.1050   31.9220   30.8090 C   0  0  0  0  0  0  0  0  0  0  0  0
   34.8730   31.7970   32.1630 C   0  0  0  0  0  0  0  0  0  0  0  0
   35.3510   30.5670   32.5740 C   0  0  0  0  0  0  0  0  0  0  0  0
   35.3440   30.0100   33.8080 C   0  0  0  0  0  0  0  0  0  0  0  0
   35.9580   28.1860   34.8650 H   0  0  0  0  0  0  0  0  0  0  0  0
   36.8190   28.2220   30.7590 H   0  0  0  0  0  0  0  0  0  0  0  0
   36.0340   30.5260   29.4680 H   0  0  0  0  0  0  0  0  0  0  0  0
   34.8980   32.7050   30.0910 H   0  0  0  0  0  0  0  0  0  0  0  0
   34.3890   32.6190   32.6570 H   0  0  0  0  0  0  0  0  0  0  0  0
   34.7880   30.6740   34.9790 C   0  0  0  0  0  0  0  0  0  0  0  0
   33.5050   30.5230   35.3940 C   0  0  0  0  0  0  0  0  0  0  0  0
   32.8140   29.8990   34.8810 H   0  0  0  0  0  0  0  0  0  0  0  0
   32.9350   31.1290   36.4950 C   0  0  0  0  0  0  0  0  0  0  0  0
   31.9070   30.9970   36.8110 H   0  0  0  0  0  0  0  0  0  0  0  0
   33.7340   31.9770   37.2620 C   0  0  0  0  0  3  0  0  0  0  0  0
   35.0240   32.1030   36.8080 C   0  0  0  0  0  3  0  0  0  0  0  0
   35.5400   31.4940   35.7310 N   0  0  0  0  0  0  0  0  0  0  0  0
  1  4  1  0  0  0  0
  1  3  1  0  0  0  0
  1 24  1  0  0  0  0
  2  1  1  0  0  0  0
  4  7  1  0  0  0  0
  4  5  1  0  0  0  0
  6  4  1  0  0  0  0
  7  8  1  0  0  0  0
  7 10  1  0  0  0  0
  9  7  1  0  0  0  0
 10 11  1  0  0  0  0
 11 12  2  0  0  0  0
 11 16  1  0  0  0  0
 12 13  1  0  0  0  0
 13 21  1  0  0  0  0
 13 14  2  0  0  0  0
 15 14  1  0  0  0  0
 15 19  1  0  0  0  0
 16 15  2  0  0  0  0
 17 18  2  0  0  0  0
 17 22  1  0  0  0  0
 19 17  1  0  0  0  0
 20 12  1  0  0  0  0
 23 19  1  0  0  0  0
 25 34  1  0  0  0  0
 26 24  1  0  0  0  0
 26 25  2  0  0  0  0
 27 26  1  0  0  0  0
 28 27  2  0  0  0  0
 28 32  1  0  0  0  0
 29 30  1  0  0  0  0
 29 28  1  0  0  0  0
 30 31  2  0  0  0  0
 31 32  1  0  0  0  0
 31 38  1  0  0  0  0
 32 33  2  0  0  0  0
 33 25  1  0  0  0  0
 33 39  1  0  0  0  0
 35 27  1  0  0  0  0
 36 29  1  0  0  0  0
 37 30  1  0  0  0  0
 39 40  2  0  0  0  0
 39 46  1  0  0  0  0
 40 42  1  0  0  0  0
 41 40  1  0  0  0  0
 42 43  1  0  0  0  0
 42 44  2  0  0  0  0
 45 44  1  0  0  0  0
 46 45  2  0  0  0  0
M  END
>  <minimizedAffinity>
-5.90126085

$$$$

 OpenBabel03262521263D

 46 49  0  0  0  0  0  0  0  0999 V2000
   37.9590   24.4220   36.1610 C   0  0  0  0  0  0  0  0  0  0  0  0
   37.1090   24.1330   35.4960 H   0  0  0  0  0  0  0  0  0  0  0  0
   37.4690   24.8700   37.0600 H   0  0  0  0  0  0  0  0  0  0  0  0
   38.7680   23.2320   36.6150 C   0  0  0  0  0  0  0  0  0  0  0  0
   39.7410   23.6370   36.9710 H   0  0  0  0  0  0  0  0  0  0  0  0
   38.2720   22.9100   37.5770 H   0  0  0  0  0  0  0  0  0  0  0  0
   38.8310   22.2240   35.7040 C   0  0  0  0  0  0  0  0  0  0  0  0
   39.1760   21.2400   36.1260 H   0  0  0  0  0  0  0  0  0  0  0  0
   39.4500   22.4040   34.8010 H   0  0  0  0  0  0  0  0  0  0  0  0
   37.5040   22.1860   35.3710 O   0  0  0  0  0  0  0  0  0  0  0  0
   37.1280   21.4980   34.2490 C   0  0  0  0  0  0  0  0  0  0  0  0
   35.9220   20.8550   34.4000 C   0  0  0  0  0  0  0  0  0  0  0  0
   35.4110   20.1050   33.3210 C   0  0  0  0  0  0  0  0  0  0  0  0
   36.1550   20.0640   32.1790 N   0  0  0  0  0  0  0  0  0  0  0  0
   37.3540   20.7170   32.0620 C   0  0  0  0  0  0  0  0  0  0  0  0
   37.8180   21.4250   33.1060 N   0  0  0  0  0  0  0  0  0  0  0  0
   37.4250   19.7740   29.8660 C   0  0  0  0  0  0  0  0  0  0  0  0
   36.3410   19.1480   30.0260 O   0  0  0  0  0  0  0  0  0  0  0  0
   38.0440   20.6040   30.8240 N   0  0  0  0  0  0  0  0  0  0  0  0
   35.2490   20.8130   35.2460 H   0  0  0  0  0  0  0  0  0  0  0  0
   34.4800   19.5710   33.3470 H   0  0  0  0  0  0  0  0  0  0  0  0
   37.8480   19.6040   28.8870 H   0  0  0  0  0  0  0  0  0  0  0  0
   38.9260   21.0910   30.6470 H   0  0  0  0  0  0  0  0  0  0  0  0
   38.9040   25.7010   35.3520 S   0  0  0  0  0  0  0  0  0  0  0  0
   37.0160   27.7640   34.8270 C   0  0  0  0  0  0  0  0  0  0  0  0
   37.9470   26.8180   34.3850 C   0  0  0  0  0  0  0  0  0  0  0  0
   38.1360   26.7580   32.9920 C   0  0  0  0  0  0  0  0  0  0  0  0
   37.4690   27.5570   32.1250 C   0  0  0  0  0  0  0  0  0  0  0  0
   37.4400   27.7230   30.8120 N   0  0  0  0  0  0  0  0  0  0  0  0
   36.5660   28.6940   30.4180 C   0  0  0  0  0  0  0  0  0  0  0  0
   36.0110   29.1660   31.5890 C   0  0  0  0  0  0  0  0  0  0  0  0
   36.5660   28.4670   32.6440 C   0  0  0  0  0  0  0  0  0  0  0  0
   36.3300   28.5840   33.9720 C   0  0  0  0  0  0  0  0  0  0  0  0
   36.9440   27.7320   35.9010 H   0  0  0  0  0  0  0  0  0  0  0  0
   38.8340   26.0600   32.5490 H   0  0  0  0  0  0  0  0  0  0  0  0
   38.0370   27.1530   30.1490 H   0  0  0  0  0  0  0  0  0  0  0  0
   36.4250   28.9500   29.3750 H   0  0  0  0  0  0  0  0  0  0  0  0
   35.2820   29.9510   31.5060 H   0  0  0  0  0  0  0  0  0  0  0  0
   35.3820   29.5370   34.5330 C   0  0  0  0  0  0  0  0  0  0  0  0
   35.7430   30.7090   35.1140 C   0  0  0  0  0  0  0  0  0  0  0  0
   36.7590   31.0090   35.1970 H   0  0  0  0  0  0  0  0  0  0  0  0
   34.8830   31.6410   35.6570 C   0  0  0  0  0  0  0  0  0  0  0  0
   35.1900   32.5720   36.1180 H   0  0  0  0  0  0  0  0  0  0  0  0
   33.5150   31.3720   35.6140 C   0  0  0  0  0  3  0  0  0  0  0  0
   33.1910   30.1780   35.0190 C   0  0  0  0  0  3  0  0  0  0  0  0
   34.0610   29.2970   34.5020 N   0  0  0  0  0  0  0  0  0  0  0  0
  1  4  1  0  0  0  0
  1  3  1  0  0  0  0
  2  1  1  0  0  0  0
  4  5  1  0  0  0  0
  4  6  1  0  0  0  0
  7  8  1  0  0  0  0
  7  4  1  0  0  0  0
  9  7  1  0  0  0  0
 10  7  1  0  0  0  0
 11 12  1  0  0  0  0
 11 10  1  0  0  0  0
 12 20  1  0  0  0  0
 13 21  1  0  0  0  0
 13 12  2  0  0  0  0
 14 13  1  0  0  0  0
 15 14  2  0  0  0  0
 15 16  1  0  0  0  0
 16 11  2  0  0  0  0
 17 18  2  0  0  0  0
 17 19  1  0  0  0  0
 19 15  1  0  0  0  0
 22 17  1  0  0  0  0
 23 19  1  0  0  0  0
 24  1  1  0  0  0  0
 25 34  1  0  0  0  0
 26 25  1  0  0  0  0
 26 24  1  0  0  0  0
 27 26  2  0  0  0  0
 28 32  2  0  0  0  0
 28 27  1  0  0  0  0
 29 28  1  0  0  0  0
 30 29  1  0  0  0  0
 30 31  2  0  0  0  0
 31 32  1  0  0  0  0
 32 33  1  0  0  0  0
 33 39  1  0  0  0  0
 33 25  2  0  0  0  0
 35 27  1  0  0  0  0
 36 29  1  0  0  0  0
 37 30  1  0  0  0  0
 38 31  1  0  0  0  0
 39 40  1  0  0  0  0
 40 41  1  0  0  0  0
 40 42  2  0  0  0  0
 42 43  1  0  0  0  0
 44 42  1  0  0  0  0
 45 44  2  0  0  0  0
 46 39  2  0  0  0  0
 46 45  1  0  0  0  0
M  END
>  <minimizedAffinity>
-5.86303663

$$$$

 OpenBabel03262521263D

 46 49  0  0  0  0  0  0  0  0999 V2000
   36.7440   21.8760   31.3690 C   0  0  0  0  0  0  0  0  0  0  0  0
   35.7690   21.8520   31.9140 H   0  0  0  0  0  0  0  0  0  0  0  0
   36.5540   21.2960   30.4320 H   0  0  0  0  0  0  0  0  0  0  0  0
   37.1520   23.2750   30.9770 C   0  0  0  0  0  0  0  0  0  0  0  0
   38.2530   23.3300   31.1280 H   0  0  0  0  0  0  0  0  0  0  0  0
   37.0610   23.2850   29.8500 H   0  0  0  0  0  0  0  0  0  0  0  0
   36.4120   24.2530   31.5630 C   0  0  0  0  0  0  0  0  0  0  0  0
   35.5810   23.8750   32.2190 H   0  0  0  0  0  0  0  0  0  0  0  0
   35.9510   25.0030   30.8870 H   0  0  0  0  0  0  0  0  0  0  0  0
   37.4090   24.8300   32.3020 O   0  0  0  0  0  0  0  0  0  0  0  0
   37.1310   25.9720   33.0040 C   0  0  0  0  0  0  0  0  0  0  0  0
   37.5480   25.9050   34.3130 C   0  0  0  0  0  0  0  0  0  0  0  0
   37.3250   27.0140   35.1550 C   0  0  0  0  0  0  0  0  0  0  0  0
   36.7000   28.0970   34.6110 N   0  0  0  0  0  0  0  0  0  0  0  0
   36.2970   28.1300   33.3030 C   0  0  0  0  0  0  0  0  0  0  0  0
   36.5220   27.0600   32.5210 N   0  0  0  0  0  0  0  0  0  0  0  0
   35.4590   30.3080   33.8250 C   0  0  0  0  0  0  0  0  0  0  0  0
   35.8020   30.2230   35.0370 O   0  0  0  0  0  0  0  0  0  0  0  0
   35.6540   29.3130   32.8440 N   0  0  0  0  0  0  0  0  0  0  0  0
   38.0470   25.1110   34.8510 H   0  0  0  0  0  0  0  0  0  0  0  0
   37.6160   27.0520   36.1880 H   0  0  0  0  0  0  0  0  0  0  0  0
   34.9820   31.2520   33.6060 H   0  0  0  0  0  0  0  0  0  0  0  0
   35.3570   29.4280   31.8720 H   0  0  0  0  0  0  0  0  0  0  0  0
   37.9560   20.9880   32.3310 S   0  0  0  0  0  0  0  0  0  0  0  0
   39.6590   22.4030   34.1180 C   0  0  0  0  0  0  0  0  0  0  0  0
   38.4370   21.7910   33.8220 C   0  0  0  0  0  0  0  0  0  0  0  0
   37.4770   21.8260   34.8500 C   0  0  0  0  0  0  0  0  0  0  0  0
   37.7070   22.4090   36.0500 C   0  0  0  0  0  0  0  0  0  0  0  0
   37.0210   22.5920   37.1680 N   0  0  0  0  0  0  0  0  0  0  0  0
   37.7270   23.2660   38.1220 C   0  0  0  0  0  0  0  0  0  0  0  0
   38.9510   23.5190   37.5400 C   0  0  0  0  0  0  0  0  0  0  0  0
   38.9430   22.9930   36.2620 C   0  0  0  0  0  0  0  0  0  0  0  0
   39.9170   23.0000   35.3220 C   0  0  0  0  0  0  0  0  0  0  0  0
   40.3220   22.3240   33.2730 H   0  0  0  0  0  0  0  0  0  0  0  0
   36.4990   21.3800   34.7210 H   0  0  0  0  0  0  0  0  0  0  0  0
   36.0290   22.2450   37.2940 H   0  0  0  0  0  0  0  0  0  0  0  0
   37.3060   23.4940   39.0930 H   0  0  0  0  0  0  0  0  0  0  0  0
   39.6750   24.0510   38.1300 H   0  0  0  0  0  0  0  0  0  0  0  0
   41.2230   23.6110   35.5320 C   0  0  0  0  0  0  0  0  0  0  0  0
   42.2090   23.0460   36.2740 C   0  0  0  0  0  0  0  0  0  0  0  0
   42.0880   22.1080   36.7560 H   0  0  0  0  0  0  0  0  0  0  0  0
   43.4590   23.5860   36.5000 C   0  0  0  0  0  0  0  0  0  0  0  0
   44.2350   23.1200   37.0960 H   0  0  0  0  0  0  0  0  0  0  0  0
   43.7540   24.8210   35.9220 C   0  0  0  0  0  3  0  0  0  0  0  0
   42.7300   25.3570   35.1810 C   0  0  0  0  0  3  0  0  0  0  0  0
   41.5260   24.7990   34.9850 N   0  0  0  0  0  0  0  0  0  0  0  0
  1  2  1  0  0  0  0
  1 24  1  0  0  0  0
  3  1  1  0  0  0  0
  4  5  1  0  0  0  0
  4  1  1  0  0  0  0
  4  7  1  0  0  0  0
  6  4  1  0  0  0  0
  7  8  1  0  0  0  0
  7 10  1  0  0  0  0
  9  7  1  0  0  0  0
 10 11  1  0  0  0  0
 11 12  1  0  0  0  0
 12 20  1  0  0  0  0
 12 13  2  0  0  0  0
 13 21  1  0  0  0  0
 14 13  1  0  0  0  0
 15 14  2  0  0  0  0
 16 11  2  0  0  0  0
 16 15  1  0  0  0  0
 17 18  2  0  0  0  0
 19 15  1  0  0  0  0
 19 17  1  0  0  0  0
 22 17  1  0  0  0  0
 23 19  1  0  0  0  0
 24 26  1  0  0  0  0
 25 33  1  0  0  0  0
 26 25  2  0  0  0  0
 26 27  1  0  0  0  0
 27 28  2  0  0  0  0
 28 32  1  0  0  0  0
 28 29  1  0  0  0  0
 29 36  1  0  0  0  0
 29 30  1  0  0  0  0
 30 37  1  0  0  0  0
 31 30  2  0  0  0  0
 31 38  1  0  0  0  0
 32 31  1  0  0  0  0
 33 39  1  0  0  0  0
 33 32  2  0  0  0  0
 34 25  1  0  0  0  0
 35 27  1  0  0  0  0
 39 40  1  0  0  0  0
 40 42  2  0  0  0  0
 40 41  1  0  0  0  0
 42 43  1  0  0  0  0
 44 42  1  0  0  0  0
 45 44  2  0  0  0  0
 46 45  1  0  0  0  0
 46 39  2  0  0  0  0
M  END
>  <minimizedAffinity>
-5.82800245

$$$$

 OpenBabel03262521263D

 46 49  0  0  0  0  0  0  0  0999 V2000
   35.7840   24.6190   31.0090 C   0  0  0  0  0  0  0  0  0  0  0  0
   35.9990   24.4850   29.9210 H   0  0  0  0  0  0  0  0  0  0  0  0
   34.8150   25.1750   31.0360 H   0  0  0  0  0  0  0  0  0  0  0  0
   35.5890   23.3040   31.7250 C   0  0  0  0  0  0  0  0  0  0  0  0
   35.3960   23.5580   32.7900 H   0  0  0  0  0  0  0  0  0  0  0  0
   34.5760   22.9450   31.3740 H   0  0  0  0  0  0  0  0  0  0  0  0
   36.5690   22.3930   31.4880 C   0  0  0  0  0  0  0  0  0  0  0  0
   37.5840   22.8410   31.3050 H   0  0  0  0  0  0  0  0  0  0  0  0
   36.3970   21.6780   30.6560 H   0  0  0  0  0  0  0  0  0  0  0  0
   36.5190   21.7420   32.6910 O   0  0  0  0  0  0  0  0  0  0  0  0
   37.5420   21.9280   33.5820 C   0  0  0  0  0  0  0  0  0  0  0  0
   38.7820   21.8190   32.9970 C   0  0  0  0  0  0  0  0  0  0  0  0
   39.9290   21.9880   33.7990 C   0  0  0  0  0  0  0  0  0  0  0  0
   39.7340   22.2520   35.1230 N   0  0  0  0  0  0  0  0  0  0  0  0
   38.4840   22.3540   35.6730 C   0  0  0  0  0  0  0  0  0  0  0  0
   37.4060   22.1890   34.8860 N   0  0  0  0  0  0  0  0  0  0  0  0
   39.6390   22.7190   37.7340 C   0  0  0  0  0  0  0  0  0  0  0  0
   40.7740   22.5720   37.2020 O   0  0  0  0  0  0  0  0  0  0  0  0
   38.4010   22.6320   37.0650 N   0  0  0  0  0  0  0  0  0  0  0  0
   39.0600   21.6150   31.9720 H   0  0  0  0  0  0  0  0  0  0  0  0
   40.9350   21.9210   33.4310 H   0  0  0  0  0  0  0  0  0  0  0  0
   39.7140   22.9240   38.7920 H   0  0  0  0  0  0  0  0  0  0  0  0
   37.5040   22.7590   37.5410 H   0  0  0  0  0  0  0  0  0  0  0  0
   37.0420   25.6700   31.7110 S   0  0  0  0  0  0  0  0  0  0  0  0
   36.0520   28.0800   32.8540 C   0  0  0  0  0  0  0  0  0  0  0  0
   36.6140   27.3760   31.7840 C   0  0  0  0  0  0  0  0  0  0  0  0
   36.8680   28.1330   30.6260 C   0  0  0  0  0  0  0  0  0  0  0  0
   36.5900   29.4560   30.5370 C   0  0  0  0  0  0  0  0  0  0  0  0
   36.7140   30.3960   29.6130 N   0  0  0  0  0  0  0  0  0  0  0  0
   36.2720   31.6170   30.0330 C   0  0  0  0  0  0  0  0  0  0  0  0
   35.8400   31.4090   31.3260 C   0  0  0  0  0  0  0  0  0  0  0  0
   36.0340   30.0780   31.6410 C   0  0  0  0  0  0  0  0  0  0  0  0
   35.7630   29.4160   32.7910 C   0  0  0  0  0  0  0  0  0  0  0  0
   35.8980   27.4170   33.6880 H   0  0  0  0  0  0  0  0  0  0  0  0
   37.3020   27.6820   29.7430 H   0  0  0  0  0  0  0  0  0  0  0  0
   37.1160   30.2050   28.6530 H   0  0  0  0  0  0  0  0  0  0  0  0
   36.3050   32.4900   29.3940 H   0  0  0  0  0  0  0  0  0  0  0  0
   35.4440   32.2570   31.8550 H   0  0  0  0  0  0  0  0  0  0  0  0
   35.1770   30.0580   33.9600 C   0  0  0  0  0  0  0  0  0  0  0  0
   35.8990   30.7240   34.8970 C   0  0  0  0  0  0  0  0  0  0  0  0
   36.9550   30.8190   34.8340 H   0  0  0  0  0  0  0  0  0  0  0  0
   35.3900   31.3460   36.0180 C   0  0  0  0  0  0  0  0  0  0  0  0
   35.9830   31.8730   36.7570 H   0  0  0  0  0  0  0  0  0  0  0  0
   34.0110   31.2970   36.2240 C   0  0  0  0  0  3  0  0  0  0  0  0
   33.3180   30.6150   35.2550 C   0  0  0  0  0  3  0  0  0  0  0  0
   33.8530   30.0230   34.1770 N   0  0  0  0  0  0  0  0  0  0  0  0
  1  3  1  0  0  0  0
  1 24  1  0  0  0  0
  1  4  1  0  0  0  0
  2  1  1  0  0  0  0
  4  5  1  0  0  0  0
  6  4  1  0  0  0  0
  7  4  1  0  0  0  0
  7 10  1  0  0  0  0
  8  7  1  0  0  0  0
  9  7  1  0  0  0  0
 10 11  1  0  0  0  0
 11 16  1  0  0  0  0
 12 11  2  0  0  0  0
 12 13  1  0  0  0  0
 13 14  2  0  0  0  0
 14 15  1  0  0  0  0
 15 19  1  0  0  0  0
 16 15  2  0  0  0  0
 17 22  1  0  0  0  0
 18 17  2  0  0  0  0
 19 23  1  0  0  0  0
 19 17  1  0  0  0  0
 20 12  1  0  0  0  0
 21 13  1  0  0  0  0
 24 26  1  0  0  0  0
 25 34  1  0  0  0  0
 26 25  2  0  0  0  0
 27 26  1  0  0  0  0
 28 27  2  0  0  0  0
 28 32  1  0  0  0  0
 29 30  1  0  0  0  0
 29 28  1  0  0  0  0
 30 31  2  0  0  0  0
 31 32  1  0  0  0  0
 31 38  1  0  0  0  0
 32 33  2  0  0  0  0
 33 25  1  0  0  0  0
 33 39  1  0  0  0  0
 35 27  1  0  0  0  0
 36 29  1  0  0  0  0
 37 30  1  0  0  0  0
 39 46  2  0  0  0  0
 39 40  1  0  0  0  0
 40 42  2  0  0  0  0
 41 40  1  0  0  0  0
 42 44  1  0  0  0  0
 42 43  1  0  0  0  0
 45 44  2  0  0  0  0
 46 45  1  0  0  0  0
M  END
>  <minimizedAffinity>
-5.81240368

$$$$

 OpenBabel03262521263D

 46 49  0  0  0  0  0  0  0  0999 V2000
   36.3700   21.4560   31.2330 C   0  0  0  0  0  0  0  0  0  0  0  0
   35.7340   20.6150   30.8630 H   0  0  0  0  0  0  0  0  0  0  0  0
   36.9130   21.8150   30.3250 H   0  0  0  0  0  0  0  0  0  0  0  0
   35.5530   22.6050   31.7730 C   0  0  0  0  0  0  0  0  0  0  0  0
   34.5120   22.2240   31.8720 H   0  0  0  0  0  0  0  0  0  0  0  0
   35.8810   22.6960   32.8510 H   0  0  0  0  0  0  0  0  0  0  0  0
   35.7090   23.7680   31.0870 C   0  0  0  0  0  0  0  0  0  0  0  0
   34.7640   24.1620   30.6210 H   0  0  0  0  0  0  0  0  0  0  0  0
   36.4720   23.7740   30.2810 H   0  0  0  0  0  0  0  0  0  0  0  0
   36.1160   24.5520   32.1310 O   0  0  0  0  0  0  0  0  0  0  0  0
   36.4230   25.8640   31.8880 C   0  0  0  0  0  0  0  0  0  0  0  0
   36.6880   26.5700   33.0380 C   0  0  0  0  0  0  0  0  0  0  0  0
   37.0190   27.9370   32.9360 C   0  0  0  0  0  0  0  0  0  0  0  0
   37.0560   28.4800   31.6860 N   0  0  0  0  0  0  0  0  0  0  0  0
   36.7850   27.7480   30.5600 C   0  0  0  0  0  0  0  0  0  0  0  0
   36.4720   26.4460   30.6850 N   0  0  0  0  0  0  0  0  0  0  0  0
   37.1440   29.7980   29.3830 C   0  0  0  0  0  0  0  0  0  0  0  0
   37.3410   30.4520   30.4450 O   0  0  0  0  0  0  0  0  0  0  0  0
   36.8520   28.4200   29.3090 N   0  0  0  0  0  0  0  0  0  0  0  0
   36.6910   26.2520   34.0720 H   0  0  0  0  0  0  0  0  0  0  0  0
   37.2420   28.5650   33.7770 H   0  0  0  0  0  0  0  0  0  0  0  0
   37.2220   30.4220   28.5050 H   0  0  0  0  0  0  0  0  0  0  0  0
   36.6990   27.9340   28.4220 H   0  0  0  0  0  0  0  0  0  0  0  0
   37.5750   20.7990   32.3730 S   0  0  0  0  0  0  0  0  0  0  0  0
   38.9900   22.9450   33.5920 C   0  0  0  0  0  0  0  0  0  0  0  0
   38.0530   21.9090   33.6530 C   0  0  0  0  0  0  0  0  0  0  0  0
   37.4170   21.7370   34.8970 C   0  0  0  0  0  0  0  0  0  0  0  0
   37.6840   22.5170   35.9710 C   0  0  0  0  0  0  0  0  0  0  0  0
   37.2600   22.5910   37.2240 N   0  0  0  0  0  0  0  0  0  0  0  0
   37.8630   23.5900   37.9310 C   0  0  0  0  0  0  0  0  0  0  0  0
   38.7320   24.1800   37.0380 C   0  0  0  0  0  0  0  0  0  0  0  0
   38.6250   23.5210   35.8270 C   0  0  0  0  0  0  0  0  0  0  0  0
   39.2770   23.7480   34.6630 C   0  0  0  0  0  0  0  0  0  0  0  0
   39.4170   22.9940   32.6050 H   0  0  0  0  0  0  0  0  0  0  0  0
   36.6770   20.9630   35.0470 H   0  0  0  0  0  0  0  0  0  0  0  0
   36.5290   21.9360   37.6200 H   0  0  0  0  0  0  0  0  0  0  0  0
   37.6260   23.7810   38.9700 H   0  0  0  0  0  0  0  0  0  0  0  0
   39.3200   25.0060   37.3950 H   0  0  0  0  0  0  0  0  0  0  0  0
   40.2700   24.8010   34.4970 C   0  0  0  0  0  0  0  0  0  0  0  0
   39.9830   26.0400   34.0220 C   0  0  0  0  0  0  0  0  0  0  0  0
   39.0000   26.3230   33.7370 H   0  0  0  0  0  0  0  0  0  0  0  0
   40.8880   27.0680   33.8490 C   0  0  0  0  0  0  0  0  0  0  0  0
   40.6410   28.0510   33.4670 H   0  0  0  0  0  0  0  0  0  0  0  0
   42.2210   26.8310   34.1860 C   0  0  0  0  0  3  0  0  0  0  0  0
   42.4680   25.5660   34.6610 C   0  0  0  0  0  3  0  0  0  0  0  0
   41.5580   24.5940   34.8150 N   0  0  0  0  0  0  0  0  0  0  0  0
  1  4  1  0  0  0  0
  1 24  1  0  0  0  0
  2  1  1  0  0  0  0
  3  1  1  0  0  0  0
  4  5  1  0  0  0  0
  4  6  1  0  0  0  0
  7  4  1  0  0  0  0
  7 10  1  0  0  0  0
  8  7  1  0  0  0  0
  9  7  1  0  0  0  0
 11 10  1  0  0  0  0
 11 12  1  0  0  0  0
 12 20  1  0  0  0  0
 13 12  2  0  0  0  0
 13 21  1  0  0  0  0
 14 13  1  0  0  0  0
 15 16  1  0  0  0  0
 15 14  2  0  0  0  0
 16 11  2  0  0  0  0
 17 18  2  0  0  0  0
 19 17  1  0  0  0  0
 19 15  1  0  0  0  0
 22 17  1  0  0  0  0
 23 19  1  0  0  0  0
 24 26  1  0  0  0  0
 25 26  2  0  0  0  0
 25 33  1  0  0  0  0
 26 27  1  0  0  0  0
 27 35  1  0  0  0  0
 27 28  2  0  0  0  0
 28 29  1  0  0  0  0
 29 36  1  0  0  0  0
 29 30  1  0  0  0  0
 30 37  1  0  0  0  0
 31 38  1  0  0  0  0
 31 30  2  0  0  0  0
 32 28  1  0  0  0  0
 32 31  1  0  0  0  0
 33 32  2  0  0  0  0
 34 25  1  0  0  0  0
 39 33  1  0  0  0  0
 39 46  1  0  0  0  0
 40 39  2  0  0  0  0
 41 40  1  0  0  0  0
 42 40  1  0  0  0  0
 42 44  2  0  0  0  0
 43 42  1  0  0  0  0
 44 45  1  0  0  0  0
 45 46  2  0  0  0  0
M  END
>  <minimizedAffinity>
-5.79698896

$$$$

 OpenBabel03262521263D

 46 49  0  0  0  0  0  0  0  0999 V2000
   36.3030   28.4500   30.8080 C   0  0  0  0  0  0  0  0  0  0  0  0
   35.8480   28.3750   29.7900 H   0  0  0  0  0  0  0  0  0  0  0  0
   37.3500   28.7920   30.6210 H   0  0  0  0  0  0  0  0  0  0  0  0
   35.6200   29.4830   31.6710 C   0  0  0  0  0  0  0  0  0  0  0  0
   36.4090   30.2090   31.9670 H   0  0  0  0  0  0  0  0  0  0  0  0
   34.9980   30.0840   30.9440 H   0  0  0  0  0  0  0  0  0  0  0  0
   34.8720   28.9580   32.6780 C   0  0  0  0  0  0  0  0  0  0  0  0
   34.8430   27.8340   32.6960 H   0  0  0  0  0  0  0  0  0  0  0  0
   33.8150   29.2920   32.7420 H   0  0  0  0  0  0  0  0  0  0  0  0
   35.5920   29.4560   33.7290 O   0  0  0  0  0  0  0  0  0  0  0  0
   34.9970   30.3670   34.5610 C   0  0  0  0  0  0  0  0  0  0  0  0
   35.8880   30.9590   35.4240 C   0  0  0  0  0  0  0  0  0  0  0  0
   35.4110   31.9200   36.3400 C   0  0  0  0  0  0  0  0  0  0  0  0
   34.0780   32.2050   36.3100 N   0  0  0  0  0  0  0  0  0  0  0  0
   33.2170   31.5950   35.4370 C   0  0  0  0  0  0  0  0  0  0  0  0
   33.6970   30.6830   34.5730 N   0  0  0  0  0  0  0  0  0  0  0  0
   31.5250   32.9050   36.5040 C   0  0  0  0  0  0  0  0  0  0  0  0
   32.3380   33.4110   37.3250 O   0  0  0  0  0  0  0  0  0  0  0  0
   31.8470   31.9710   35.4970 N   0  0  0  0  0  0  0  0  0  0  0  0
   36.9540   30.8170   35.5400 H   0  0  0  0  0  0  0  0  0  0  0  0
   36.0320   32.4340   37.0490 H   0  0  0  0  0  0  0  0  0  0  0  0
   30.5200   33.2700   36.6550 H   0  0  0  0  0  0  0  0  0  0  0  0
   31.1500   31.5880   34.8530 H   0  0  0  0  0  0  0  0  0  0  0  0
   36.3750   26.8150   31.5190 S   0  0  0  0  0  0  0  0  0  0  0  0
   37.7790   25.7850   33.7690 C   0  0  0  0  0  0  0  0  0  0  0  0
   37.7420   26.5450   32.5950 C   0  0  0  0  0  0  0  0  0  0  0  0
   38.9520   27.1660   32.2350 C   0  0  0  0  0  0  0  0  0  0  0  0
   40.0850   27.0460   32.9670 C   0  0  0  0  0  0  0  0  0  0  0  0
   41.3270   27.4970   32.8810 N   0  0  0  0  0  0  0  0  0  0  0  0
   42.1190   27.0740   33.9080 C   0  0  0  0  0  0  0  0  0  0  0  0
   41.2930   26.2960   34.6930 C   0  0  0  0  0  0  0  0  0  0  0  0
   40.0370   26.2770   34.1150 C   0  0  0  0  0  0  0  0  0  0  0  0
   38.9110   25.6480   34.5250 C   0  0  0  0  0  0  0  0  0  0  0  0
   36.8110   25.3540   33.9560 H   0  0  0  0  0  0  0  0  0  0  0  0
   39.0270   27.7750   31.3440 H   0  0  0  0  0  0  0  0  0  0  0  0
   41.6560   28.1200   32.0910 H   0  0  0  0  0  0  0  0  0  0  0  0
   43.1610   27.3560   33.9830 H   0  0  0  0  0  0  0  0  0  0  0  0
   41.7230   25.8550   35.5730 H   0  0  0  0  0  0  0  0  0  0  0  0
   38.8470   24.8340   35.7330 C   0  0  0  0  0  0  0  0  0  0  0  0
   38.1150   25.1640   36.8270 C   0  0  0  0  0  0  0  0  0  0  0  0
   37.5330   26.0520   36.8710 H   0  0  0  0  0  0  0  0  0  0  0  0
   38.0240   24.4270   37.9900 C   0  0  0  0  0  0  0  0  0  0  0  0
   37.4340   24.7070   38.8550 H   0  0  0  0  0  0  0  0  0  0  0  0
   38.7410   23.2330   38.0670 C   0  0  0  0  0  3  0  0  0  0  0  0
   39.4680   22.9370   36.9400 C   0  0  0  0  0  3  0  0  0  0  0  0
   39.5300   23.6820   35.8270 N   0  0  0  0  0  0  0  0  0  0  0  0
  1 24  1  0  0  0  0
  1  4  1  0  0  0  0
  2  1  1  0  0  0  0
  3  1  1  0  0  0  0
  4  5  1  0  0  0  0
  4  7  1  0  0  0  0
  6  4  1  0  0  0  0
  7  8  1  0  0  0  0
  7  9  1  0  0  0  0
  7 10  1  0  0  0  0
 10 11  1  0  0  0  0
 11 16  2  0  0  0  0
 11 12  1  0  0  0  0
 12 20  1  0  0  0  0
 12 13  2  0  0  0  0
 13 21  1  0  0  0  0
 14 13  1  0  0  0  0
 15 19  1  0  0  0  0
 15 14  2  0  0  0  0
 16 15  1  0  0  0  0
 17 22  1  0  0  0  0
 17 18  2  0  0  0  0
 19 17  1  0  0  0  0
 23 19  1  0  0  0  0
 24 26  1  0  0  0  0
 25 34  1  0  0  0  0
 25 33  1  0  0  0  0
 26 25  2  0  0  0  0
 27 26  1  0  0  0  0
 27 28  2  0  0  0  0
 28 32  1  0  0  0  0
 29 28  1  0  0  0  0
 29 30  1  0  0  0  0
 30 37  1  0  0  0  0
 30 31  2  0  0  0  0
 31 38  1  0  0  0  0
 32 33  2  0  0  0  0
 32 31  1  0  0  0  0
 33 39  1  0  0  0  0
 35 27  1  0  0  0  0
 36 29  1  0  0  0  0
 39 46  2  0  0  0  0
 39 40  1  0  0  0  0
 40 41  1  0  0  0  0
 40 42  2  0  0  0  0
 42 44  1  0  0  0  0
 42 43  1  0  0  0  0
 45 44  2  0  0  0  0
 46 45  1  0  0  0  0
M  END
>  <minimizedAffinity>
-5.77972937

$$$$

 OpenBabel03262521263D

 46 49  0  0  0  0  0  0  0  0999 V2000
   37.8750   27.9540   31.7490 C   0  0  0  0  0  0  0  0  0  0  0  0
   38.2910   28.7920   31.1380 H   0  0  0  0  0  0  0  0  0  0  0  0
   38.2100   28.1750   32.7910 H   0  0  0  0  0  0  0  0  0  0  0  0
   36.3650   27.9260   31.7390 C   0  0  0  0  0  0  0  0  0  0  0  0
   36.0700   27.5550   30.7330 H   0  0  0  0  0  0  0  0  0  0  0  0
   36.1000   27.0540   32.4070 H   0  0  0  0  0  0  0  0  0  0  0  0
   35.7870   29.0850   32.1510 C   0  0  0  0  0  0  0  0  0  0  0  0
   34.7570   29.2620   31.7350 H   0  0  0  0  0  0  0  0  0  0  0  0
   36.3550   30.0200   31.9670 H   0  0  0  0  0  0  0  0  0  0  0  0
   35.7440   28.8110   33.4910 O   0  0  0  0  0  0  0  0  0  0  0  0
   35.0730   29.6730   34.3170 C   0  0  0  0  0  0  0  0  0  0  0  0
   33.7110   29.4900   34.2800 C   0  0  0  0  0  0  0  0  0  0  0  0
   32.8930   30.3110   35.0840 C   0  0  0  0  0  0  0  0  0  0  0  0
   33.5140   31.2470   35.8570 N   0  0  0  0  0  0  0  0  0  0  0  0
   34.8740   31.4030   35.8690 C   0  0  0  0  0  0  0  0  0  0  0  0
   35.6320   30.6070   35.0940 N   0  0  0  0  0  0  0  0  0  0  0  0
   34.4570   33.1820   37.4110 C   0  0  0  0  0  0  0  0  0  0  0  0
   33.2040   33.0410   37.3380 O   0  0  0  0  0  0  0  0  0  0  0  0
   35.4110   32.4130   36.7140 N   0  0  0  0  0  0  0  0  0  0  0  0
   33.1110   28.7900   33.7150 H   0  0  0  0  0  0  0  0  0  0  0  0
   31.8220   30.2410   35.1200 H   0  0  0  0  0  0  0  0  0  0  0  0
   34.7340   33.9800   38.0840 H   0  0  0  0  0  0  0  0  0  0  0  0
   36.4190   32.5650   36.8060 H   0  0  0  0  0  0  0  0  0  0  0  0
   38.6510   26.4340   31.2310 S   0  0  0  0  0  0  0  0  0  0  0  0
   38.5010   24.8430   33.5850 C   0  0  0  0  0  0  0  0  0  0  0  0
   38.2540   25.0340   32.2220 C   0  0  0  0  0  0  0  0  0  0  0  0
   37.6060   23.9700   31.5680 C   0  0  0  0  0  0  0  0  0  0  0  0
   37.2400   22.8310   32.2030 C   0  0  0  0  0  0  0  0  0  0  0  0
   36.6380   21.7020   31.8640 N   0  0  0  0  0  0  0  0  0  0  0  0
   36.4990   20.8370   32.9100 C   0  0  0  0  0  0  0  0  0  0  0  0
   37.0620   21.4910   33.9850 C   0  0  0  0  0  0  0  0  0  0  0  0
   37.5210   22.7220   33.5530 C   0  0  0  0  0  0  0  0  0  0  0  0
   38.1410   23.7030   34.2510 C   0  0  0  0  0  0  0  0  0  0  0  0
   38.9970   25.7080   33.9920 H   0  0  0  0  0  0  0  0  0  0  0  0
   37.3690   24.0190   30.5130 H   0  0  0  0  0  0  0  0  0  0  0  0
   36.3050   21.5040   30.8780 H   0  0  0  0  0  0  0  0  0  0  0  0
   36.0270   19.8700   32.7960 H   0  0  0  0  0  0  0  0  0  0  0  0
   37.0600   20.9790   34.9300 H   0  0  0  0  0  0  0  0  0  0  0  0
   38.4430   23.6010   35.6720 C   0  0  0  0  0  0  0  0  0  0  0  0
   37.6910   24.1720   36.6470 C   0  0  0  0  0  0  0  0  0  0  0  0
   36.8190   24.7380   36.4290 H   0  0  0  0  0  0  0  0  0  0  0  0
   37.9370   24.1030   38.0030 C   0  0  0  0  0  0  0  0  0  0  0  0
   37.3250   24.5660   38.7680 H   0  0  0  0  0  0  0  0  0  0  0  0
   39.0560   23.3860   38.4290 C   0  0  0  0  0  3  0  0  0  0  0  0
   39.7900   22.8250   37.4130 C   0  0  0  0  0  3  0  0  0  0  0  0
   39.5150   22.9170   36.1040 N   0  0  0  0  0  0  0  0  0  0  0  0
  1  3  1  0  0  0  0
  2  1  1  0  0  0  0
  4  1  1  0  0  0  0
  4  7  1  0  0  0  0
  4  6  1  0  0  0  0
  5  4  1  0  0  0  0
  7 10  1  0  0  0  0
  8  7  1  0  0  0  0
  9  7  1  0  0  0  0
 10 11  1  0  0  0  0
 11 16  1  0  0  0  0
 12 11  2  0  0  0  0
 12 13  1  0  0  0  0
 13 21  1  0  0  0  0
 13 14  2  0  0  0  0
 14 15  1  0  0  0  0
 15 19  1  0  0  0  0
 16 15  2  0  0  0  0
 17 22  1  0  0  0  0
 18 17  2  0  0  0  0
 19 23  1  0  0  0  0
 19 17  1  0  0  0  0
 20 12  1  0  0  0  0
 24  1  1  0  0  0  0
 24 26  1  0  0  0  0
 25 34  1  0  0  0  0
 25 33  1  0  0  0  0
 26 25  2  0  0  0  0
 27 28  2  0  0  0  0
 27 26  1  0  0  0  0
 28 32  1  0  0  0  0
 29 28  1  0  0  0  0
 29 30  1  0  0  0  0
 30 31  2  0  0  0  0
 31 38  1  0  0  0  0
 32 31  1  0  0  0  0
 32 33  2  0  0  0  0
 33 39  1  0  0  0  0
 35 27  1  0  0  0  0
 36 29  1  0  0  0  0
 37 30  1  0  0  0  0
 39 46  2  0  0  0  0
 39 40  1  0  0  0  0
 40 42  2  0  0  0  0
 41 40  1  0  0  0  0
 42 44  1  0  0  0  0
 42 43  1  0  0  0  0
 45 44  2  0  0  0  0
 46 45  1  0  0  0  0
M  END
>  <minimizedAffinity>
-5.72630692

$$$$

 OpenBabel03262521263D

 46 49  0  0  0  0  0  0  0  0999 V2000
   43.7560   24.2720   34.6960 C   0  0  0  0  0  0  0  0  0  0  0  0
   43.7490   24.1400   33.5870 H   0  0  0  0  0  0  0  0  0  0  0  0
   44.8400   24.3300   34.9630 H   0  0  0  0  0  0  0  0  0  0  0  0
   43.0980   25.5600   35.1280 C   0  0  0  0  0  0  0  0  0  0  0  0
   42.7060   25.3780   36.1530 H   0  0  0  0  0  0  0  0  0  0  0  0
   43.9630   26.2620   35.3210 H   0  0  0  0  0  0  0  0  0  0  0  0
   42.2180   26.0640   34.2230 C   0  0  0  0  0  0  0  0  0  0  0  0
   41.9540   25.3560   33.3900 H   0  0  0  0  0  0  0  0  0  0  0  0
   42.4950   27.0210   33.7350 H   0  0  0  0  0  0  0  0  0  0  0  0
   41.1610   26.2530   35.0710 O   0  0  0  0  0  0  0  0  0  0  0  0
   39.9600   26.6500   34.5470 C   0  0  0  0  0  0  0  0  0  0  0  0
   38.9780   26.7720   35.5020 C   0  0  0  0  0  0  0  0  0  0  0  0
   37.6860   27.1740   35.1020 C   0  0  0  0  0  0  0  0  0  0  0  0
   37.4910   27.4190   33.7740 N   0  0  0  0  0  0  0  0  0  0  0  0
   38.4920   27.2860   32.8490 C   0  0  0  0  0  0  0  0  0  0  0  0
   39.7140   26.9020   33.2570 N   0  0  0  0  0  0  0  0  0  0  0  0
   36.8240   27.9040   31.2520 C   0  0  0  0  0  0  0  0  0  0  0  0
   35.9150   27.9700   32.1250 O   0  0  0  0  0  0  0  0  0  0  0  0
   38.1720   27.5680   31.4920 N   0  0  0  0  0  0  0  0  0  0  0  0
   39.0130   26.6070   36.5700 H   0  0  0  0  0  0  0  0  0  0  0  0
   36.8600   27.2960   35.7750 H   0  0  0  0  0  0  0  0  0  0  0  0
   36.4520   28.1390   30.2650 H   0  0  0  0  0  0  0  0  0  0  0  0
   38.8740   27.5270   30.7490 H   0  0  0  0  0  0  0  0  0  0  0  0
   43.0810   22.8020   35.4480 S   0  0  0  0  0  0  0  0  0  0  0  0
   40.3210   22.8210   34.7580 C   0  0  0  0  0  0  0  0  0  0  0  0
   41.3410   22.8490   35.7140 C   0  0  0  0  0  0  0  0  0  0  0  0
   40.9170   22.9240   37.0540 C   0  0  0  0  0  0  0  0  0  0  0  0
   39.6100   22.9660   37.4080 C   0  0  0  0  0  0  0  0  0  0  0  0
   38.9330   23.0350   38.5440 N   0  0  0  0  0  0  0  0  0  0  0  0
   37.5820   23.0520   38.3580 C   0  0  0  0  0  0  0  0  0  0  0  0
   37.4130   22.9870   36.9910 C   0  0  0  0  0  0  0  0  0  0  0  0
   38.6630   22.9340   36.4010 C   0  0  0  0  0  0  0  0  0  0  0  0
   38.9940   22.8610   35.0910 C   0  0  0  0  0  0  0  0  0  0  0  0
   40.7460   22.7630   33.7710 H   0  0  0  0  0  0  0  0  0  0  0  0
   41.6290   22.9510   37.8680 H   0  0  0  0  0  0  0  0  0  0  0  0
   39.4050   23.0740   39.4910 H   0  0  0  0  0  0  0  0  0  0  0  0
   36.8890   23.1060   39.1880 H   0  0  0  0  0  0  0  0  0  0  0  0
   36.4060   22.9870   36.6180 H   0  0  0  0  0  0  0  0  0  0  0  0
   38.0060   22.8270   34.0200 C   0  0  0  0  0  0  0  0  0  0  0  0
   37.2830   21.7250   33.6950 C   0  0  0  0  0  0  0  0  0  0  0  0
   37.3950   20.8030   34.2110 H   0  0  0  0  0  0  0  0  0  0  0  0
   36.3390   21.6450   32.6920 C   0  0  0  0  0  0  0  0  0  0  0  0
   35.7710   20.7550   32.4460 H   0  0  0  0  0  0  0  0  0  0  0  0
   36.0930   22.7890   31.9320 C   0  0  0  0  0  3  0  0  0  0  0  0
   36.8440   23.8800   32.2920 C   0  0  0  0  0  3  0  0  0  0  0  0
   37.7540   23.9160   33.2770 N   0  0  0  0  0  0  0  0  0  0  0  0
  1  3  1  0  0  0  0
  1  4  1  0  0  0  0
  1 24  1  0  0  0  0
  2  1  1  0  0  0  0
  4  6  1  0  0  0  0
  4  5  1  0  0  0  0
  7 10  1  0  0  0  0
  7  4  1  0  0  0  0
  8  7  1  0  0  0  0
  9  7  1  0  0  0  0
 11 10  1  0  0  0  0
 11 12  1  0  0  0  0
 12 20  1  0  0  0  0
 13 12  2  0  0  0  0
 13 21  1  0  0  0  0
 14 13  1  0  0  0  0
 15 16  1  0  0  0  0
 15 14  2  0  0  0  0
 16 11  2  0  0  0  0
 17 19  1  0  0  0  0
 17 18  2  0  0  0  0
 19 15  1  0  0  0  0
 22 17  1  0  0  0  0
 23 19  1  0  0  0  0
 24 26  1  0  0  0  0
 25 33  2  0  0  0  0
 25 26  1  0  0  0  0
 26 27  2  0  0  0  0
 27 28  1  0  0  0  0
 27 35  1  0  0  0  0
 28 29  1  0  0  0  0
 29 36  1  0  0  0  0
 30 29  1  0  0  0  0
 30 37  1  0  0  0  0
 31 30  2  0  0  0  0
 32 31  1  0  0  0  0
 32 28  2  0  0  0  0
 33 32  1  0  0  0  0
 34 25  1  0  0  0  0
 38 31  1  0  0  0  0
 39 33  1  0  0  0  0
 40 39  1  0  0  0  0
 40 41  1  0  0  0  0
 42 40  2  0  0  0  0
 43 42  1  0  0  0  0
 44 45  2  0  0  0  0
 44 42  1  0  0  0  0
 45 46  1  0  0  0  0
 46 39  2  0  0  0  0
M  END
>  <minimizedAffinity>
-5.7168169

$$$$

 OpenBabel03262521263D

 46 49  0  0  0  0  0  0  0  0999 V2000
   41.6380   25.9760   30.8140 C   0  0  0  0  0  0  0  0  0  0  0  0
   40.8160   26.5490   30.3200 H   0  0  0  0  0  0  0  0  0  0  0  0
   42.4650   25.9710   30.0620 H   0  0  0  0  0  0  0  0  0  0  0  0
   42.1460   26.6570   32.0620 C   0  0  0  0  0  0  0  0  0  0  0  0
   42.6500   25.8670   32.6610 H   0  0  0  0  0  0  0  0  0  0  0  0
   43.0170   27.2810   31.7020 H   0  0  0  0  0  0  0  0  0  0  0  0
   41.2100   27.4020   32.7070 C   0  0  0  0  0  0  0  0  0  0  0  0
   40.1520   27.1970   32.3870 H   0  0  0  0  0  0  0  0  0  0  0  0
   41.3340   28.5040   32.6660 H   0  0  0  0  0  0  0  0  0  0  0  0
   41.4450   26.9460   33.9760 O   0  0  0  0  0  0  0  0  0  0  0  0
   40.4800   26.1980   34.5950 C   0  0  0  0  0  0  0  0  0  0  0  0
   39.5360   26.9700   35.2300 C   0  0  0  0  0  0  0  0  0  0  0  0
   38.4800   26.3310   35.9120 C   0  0  0  0  0  0  0  0  0  0  0  0
   38.4610   24.9670   35.8960 N   0  0  0  0  0  0  0  0  0  0  0  0
   39.4180   24.2280   35.2530 C   0  0  0  0  0  0  0  0  0  0  0  0
   40.4140   24.8630   34.6110 N   0  0  0  0  0  0  0  0  0  0  0  0
   38.2150   22.3300   36.0710 C   0  0  0  0  0  0  0  0  0  0  0  0
   37.3790   23.0420   36.6920 O   0  0  0  0  0  0  0  0  0  0  0  0
   39.2970   22.8120   35.3050 N   0  0  0  0  0  0  0  0  0  0  0  0
   39.4470   28.0450   35.3110 H   0  0  0  0  0  0  0  0  0  0  0  0
   37.7000   26.8510   36.4350 H   0  0  0  0  0  0  0  0  0  0  0  0
   38.0140   21.2760   36.1910 H   0  0  0  0  0  0  0  0  0  0  0  0
   39.9510   22.1930   34.8190 H   0  0  0  0  0  0  0  0  0  0  0  0
   41.0970   24.2930   31.0510 S   0  0  0  0  0  0  0  0  0  0  0  0
   38.6310   22.9420   31.4860 C   0  0  0  0  0  0  0  0  0  0  0  0
   39.3500   24.0930   31.1510 C   0  0  0  0  0  0  0  0  0  0  0  0
   38.5740   25.2300   30.8570 C   0  0  0  0  0  0  0  0  0  0  0  0
   37.2200   25.2240   30.8940 C   0  0  0  0  0  0  0  0  0  0  0  0
   36.2570   26.1070   30.6760 N   0  0  0  0  0  0  0  0  0  0  0  0
   35.0090   25.5850   30.8520 C   0  0  0  0  0  0  0  0  0  0  0  0
   35.2220   24.2710   31.2090 C   0  0  0  0  0  0  0  0  0  0  0  0
   36.5850   24.0440   31.2360 C   0  0  0  0  0  0  0  0  0  0  0  0
   37.2640   22.9100   31.5320 C   0  0  0  0  0  0  0  0  0  0  0  0
   39.3110   22.1330   31.6920 H   0  0  0  0  0  0  0  0  0  0  0  0
   39.0350   26.1710   30.5860 H   0  0  0  0  0  0  0  0  0  0  0  0
   36.4520   27.1080   30.3950 H   0  0  0  0  0  0  0  0  0  0  0  0
   34.1140   26.1790   30.7120 H   0  0  0  0  0  0  0  0  0  0  0  0
   34.3550   23.6650   31.3980 H   0  0  0  0  0  0  0  0  0  0  0  0
   36.6080   21.6600   31.8930 C   0  0  0  0  0  0  0  0  0  0  0  0
   36.2320   21.3430   33.1580 C   0  0  0  0  0  0  0  0  0  0  0  0
   36.3950   21.9990   33.9770 H   0  0  0  0  0  0  0  0  0  0  0  0
   35.6090   20.1740   33.5470 C   0  0  0  0  0  0  0  0  0  0  0  0
   35.3170   19.9380   34.5630 H   0  0  0  0  0  0  0  0  0  0  0  0
   35.3340   19.2220   32.5660 C   0  0  0  0  0  3  0  0  0  0  0  0
   35.7300   19.5800   31.3010 C   0  0  0  0  0  3  0  0  0  0  0  0
   36.3340   20.7300   30.9640 N   0  0  0  0  0  0  0  0  0  0  0  0
  1 24  1  0  0  0  0
  1  4  1  0  0  0  0
  2  1  1  0  0  0  0
  3  1  1  0  0  0  0
  4  5  1  0  0  0  0
  4  7  1  0  0  0  0
  6  4  1  0  0  0  0
  7 10  1  0  0  0  0
  8  7  1  0  0  0  0
  9  7  1  0  0  0  0
 10 11  1  0  0  0  0
 11 16  2  0  0  0  0
 11 12  1  0  0  0  0
 12 20  1  0  0  0  0
 12 13  2  0  0  0  0
 13 21  1  0  0  0  0
 14 13  1  0  0  0  0
 15 19  1  0  0  0  0
 15 14  2  0  0  0  0
 16 15  1  0  0  0  0
 17 22  1  0  0  0  0
 17 18  2  0  0  0  0
 19 17  1  0  0  0  0
 23 19  1  0  0  0  0
 24 26  1  0  0  0  0
 25 33  1  0  0  0  0
 25 34  1  0  0  0  0
 26 25  2  0  0  0  0
 27 28  2  0  0  0  0
 27 26  1  0  0  0  0
 28 32  1  0  0  0  0
 29 30  1  0  0  0  0
 29 28  1  0  0  0  0
 30 31  2  0  0  0  0
 31 32  1  0  0  0  0
 31 38  1  0  0  0  0
 32 33  2  0  0  0  0
 33 39  1  0  0  0  0
 35 27  1  0  0  0  0
 36 29  1  0  0  0  0
 37 30  1  0  0  0  0
 39 40  1  0  0  0  0
 40 42  2  0  0  0  0
 40 41  1  0  0  0  0
 42 43  1  0  0  0  0
 44 42  1  0  0  0  0
 45 44  2  0  0  0  0
 46 45  1  0  0  0  0
 46 39  2  0  0  0  0
M  END
>  <minimizedAffinity>
-5.69479036

$$$$
