
 OpenBabel03262521503D

 31 33  0  0  1  0  0  0  0  0999 V2000
   37.8720   24.1980   38.1280 C   0  0  0  0  0  0  0  0  0  0  0  0
   38.9000   23.3780   38.5890 C   0  0  0  0  0  0  0  0  0  0  0  0
   39.7640   22.7960   37.6330 C   0  0  0  0  0  0  0  0  0  0  0  0
   39.5290   23.0790   36.3270 N   0  0  0  0  0  0  0  0  0  0  0  0
   38.5280   23.8740   35.9260 C   0  0  0  0  0  0  0  0  0  0  0  0
   37.7100   24.4250   36.8300 N   0  0  0  0  0  0  0  0  0  0  0  0
   38.3370   24.1320   34.5480 N   0  0  0  0  0  0  0  0  0  0  0  0
   37.7590   25.3860   34.0760 C   0  0  0  0  0  0  0  0  0  0  0  0
   38.6580   26.0000   33.0810 C   0  0  0  0  0  0  0  0  0  0  0  0
   39.6400   25.1950   32.5080 N   0  0  0  0  0  0  0  0  0  0  0  0
   39.5170   23.7790   32.5100 C   0  0  0  0  0  0  0  0  0  0  0  0
   38.7170   23.1300   33.5460 C   0  0  2  0  0  0  0  0  0  0  0  0
   37.2520   24.6080   38.9160 H   0  0  0  0  0  0  0  0  0  0  0  0
   39.1410   23.1130   39.6000 H   0  0  0  0  0  0  0  0  0  0  0  0
   40.5940   22.1500   37.8140 H   0  0  0  0  0  0  0  0  0  0  0  0
   36.8340   25.0550   33.5170 H   0  0  0  0  0  0  0  0  0  0  0  0
   37.4350   26.0290   34.8950 H   0  0  0  0  0  0  0  0  0  0  0  0
   39.1350   26.9000   33.5600 H   0  0  0  0  0  0  0  0  0  0  0  0
   38.0500   26.4690   32.2520 H   0  0  0  0  0  0  0  0  0  0  0  0
   39.9080   25.5210   31.5690 H   0  0  0  0  0  0  0  0  0  0  0  0
   39.2410   23.4560   31.4960 H   0  0  0  0  0  0  0  0  0  0  0  0
   40.5800   23.3920   32.6280 H   0  0  0  0  0  0  0  0  0  0  0  0
   39.2600   22.2980   34.0800 H   0  0  0  0  0  0  0  0  0  0  0  0
   37.4700   22.5200   33.0540 C   0  0  0  0  0  0  0  0  0  0  0  0
   36.6700   22.7120   31.9560 C   0  0  0  0  0  0  0  0  0  0  0  0
   37.0320   23.4860   31.2990 H   0  0  0  0  0  0  0  0  0  0  0  0
   35.5250   22.0020   31.7000 C   0  0  0  0  0  0  0  0  0  0  0  0
   35.0180   22.2740   30.8020 H   0  0  0  0  0  0  0  0  0  0  0  0
   35.1020   21.0220   32.5610 C   0  0  0  0  0  3  0  0  0  0  0  0
   35.9080   20.8330   33.6600 C   0  0  0  0  0  3  0  0  0  0  0  0
   37.0160   21.5410   33.8840 N   0  0  0  0  0  0  0  0  0  0  0  0
  1  2  1  0  0  0  0
  1 13  1  0  0  0  0
  2 14  1  0  0  0  0
  3 15  1  0  0  0  0
  3  2  2  0  0  0  0
  4  3  1  0  0  0  0
  5  4  2  0  0  0  0
  5  6  1  0  0  0  0
  6  1  2  0  0  0  0
  7  5  1  0  0  0  0
  8  7  1  0  0  0  0
  8 17  1  0  0  0  0
  9 18  1  0  0  0  0
  9  8  1  0  0  0  0
 10 11  1  0  0  0  0
 10  9  1  0  0  0  0
 11 22  1  0  0  0  0
 11 12  1  0  0  0  0
 12 23  1  1  0  0  0
 12  7  1  0  0  0  0
 16  8  1  0  0  0  0
 19  9  1  0  0  0  0
 20 10  1  0  0  0  0
 21 11  1  0  0  0  0
 24 12  1  0  0  0  0
 24 31  1  0  0  0  0
 25 24  2  0  0  0  0
 26 25  1  0  0  0  0
 27 25  1  0  0  0  0
 27 29  2  0  0  0  0
 28 27  1  0  0  0  0
 29 30  1  0  0  0  0
 30 31  2  0  0  0  0
M  END
>  <minimizedAffinity>
-5.17498159

$$$$

 OpenBabel03262521503D

 31 33  0  0  1  0  0  0  0  0999 V2000
   37.0210   27.8670   34.5540 C   0  0  0  0  0  0  0  0  0  0  0  0
   36.6640   27.6680   33.2230 C   0  0  0  0  0  0  0  0  0  0  0  0
   36.8710   26.3850   32.6650 C   0  0  0  0  0  0  0  0  0  0  0  0
   37.4070   25.4340   33.4710 N   0  0  0  0  0  0  0  0  0  0  0  0
   37.7360   25.6690   34.7490 C   0  0  0  0  0  0  0  0  0  0  0  0
   37.5410   26.8820   35.2770 N   0  0  0  0  0  0  0  0  0  0  0  0
   38.2900   24.6330   35.5390 N   0  0  0  0  0  0  0  0  0  0  0  0
   38.0870   24.5790   36.9820 C   0  0  0  0  0  0  0  0  0  0  0  0
   37.5420   23.2600   37.3550 C   0  0  0  0  0  0  0  0  0  0  0  0
   37.6470   22.2270   36.4260 N   0  0  0  0  0  0  0  0  0  0  0  0
   38.6110   22.2790   35.3820 C   0  0  0  0  0  0  0  0  0  0  0  0
   39.0950   23.5760   34.9170 C   0  0  2  0  0  0  0  0  0  0  0  0
   36.8340   28.8730   34.9120 H   0  0  0  0  0  0  0  0  0  0  0  0
   36.2390   28.3700   32.5320 H   0  0  0  0  0  0  0  0  0  0  0  0
   36.6550   26.0650   31.6700 H   0  0  0  0  0  0  0  0  0  0  0  0
   39.1370   24.6250   37.3970 H   0  0  0  0  0  0  0  0  0  0  0  0
   37.5470   25.4480   37.3590 H   0  0  0  0  0  0  0  0  0  0  0  0
   36.4630   23.4050   37.6430 H   0  0  0  0  0  0  0  0  0  0  0  0
   38.0000   22.9160   38.3280 H   0  0  0  0  0  0  0  0  0  0  0  0
   37.6700   21.3020   36.8770 H   0  0  0  0  0  0  0  0  0  0  0  0
   39.4260   21.5850   35.6330 H   0  0  0  0  0  0  0  0  0  0  0  0
   38.1070   21.7810   34.4930 H   0  0  0  0  0  0  0  0  0  0  0  0
   39.0320   23.7070   33.7990 H   0  0  0  0  0  0  0  0  0  0  0  0
   40.5020   23.8530   35.2560 C   0  0  0  0  0  0  0  0  0  0  0  0
   41.3960   24.8420   34.9290 C   0  0  0  0  0  0  0  0  0  0  0  0
   40.9800   25.5880   34.2740 H   0  0  0  0  0  0  0  0  0  0  0  0
   42.6900   24.8930   35.3820 C   0  0  0  0  0  0  0  0  0  0  0  0
   43.2550   25.7280   35.0330 H   0  0  0  0  0  0  0  0  0  0  0  0
   43.1790   23.9230   36.2190 C   0  0  0  0  0  3  0  0  0  0  0  0
   42.2770   22.9350   36.5450 C   0  0  0  0  0  3  0  0  0  0  0  0
   41.0240   22.9110   36.0880 N   0  0  0  0  0  0  0  0  0  0  0  0
  1 13  1  0  0  0  0
  1  6  1  0  0  0  0
  2  1  2  0  0  0  0
  3  2  1  0  0  0  0
  3  4  2  0  0  0  0
  4  5  1  0  0  0  0
  5  6  2  0  0  0  0
  5  7  1  0  0  0  0
  7  8  1  0  0  0  0
  8  9  1  0  0  0  0
  8 17  1  0  0  0  0
  8 16  1  0  0  0  0
  9 18  1  0  0  0  0
  9 19  1  0  0  0  0
 10 20  1  0  0  0  0
 10  9  1  0  0  0  0
 11 21  1  0  0  0  0
 11 10  1  0  0  0  0
 12 23  1  6  0  0  0
 12 24  1  0  0  0  0
 12 11  1  0  0  0  0
 12  7  1  0  0  0  0
 14  2  1  0  0  0  0
 15  3  1  0  0  0  0
 22 11  1  0  0  0  0
 24 31  1  0  0  0  0
 25 24  2  0  0  0  0
 25 27  1  0  0  0  0
 26 25  1  0  0  0  0
 27 29  2  0  0  0  0
 28 27  1  0  0  0  0
 29 30  1  0  0  0  0
 31 30  2  0  0  0  0
M  END
>  <minimizedAffinity>
-5.08387804

$$$$

 OpenBabel03262521503D

 31 33  0  0  1  0  0  0  0  0999 V2000
   37.3140   29.5900   30.1120 C   0  0  0  0  0  0  0  0  0  0  0  0
   37.5280   28.2150   30.1640 C   0  0  0  0  0  0  0  0  0  0  0  0
   36.6470   27.4360   30.9500 C   0  0  0  0  0  0  0  0  0  0  0  0
   35.6520   28.0880   31.6020 N   0  0  0  0  0  0  0  0  0  0  0  0
   35.4810   29.4150   31.5240 C   0  0  0  0  0  0  0  0  0  0  0  0
   36.3140   30.1520   30.7810 N   0  0  0  0  0  0  0  0  0  0  0  0
   34.4210   30.0360   32.2260 N   0  0  0  0  0  0  0  0  0  0  0  0
   33.7890   31.2560   31.7380 C   0  0  0  0  0  0  0  0  0  0  0  0
   32.3300   31.0540   31.6480 C   0  0  0  0  0  0  0  0  0  0  0  0
   31.7810   29.9730   32.3330 N   0  0  0  0  0  0  0  0  0  0  0  0
   32.4710   29.3690   33.4190 C   0  0  0  0  0  0  0  0  0  0  0  0
   33.9280   29.4610   33.4830 C   0  0  2  0  0  0  0  0  0  0  0  0
   38.0270   30.1210   29.4920 H   0  0  0  0  0  0  0  0  0  0  0  0
   38.2900   27.6380   29.6780 H   0  0  0  0  0  0  0  0  0  0  0  0
   36.6680   26.3790   31.0980 H   0  0  0  0  0  0  0  0  0  0  0  0
   33.9640   31.9950   32.5740 H   0  0  0  0  0  0  0  0  0  0  0  0
   34.2770   31.6480   30.8450 H   0  0  0  0  0  0  0  0  0  0  0  0
   32.0600   30.9910   30.5570 H   0  0  0  0  0  0  0  0  0  0  0  0
   31.7920   31.9940   31.9690 H   0  0  0  0  0  0  0  0  0  0  0  0
   30.7980   30.1390   32.5930 H   0  0  0  0  0  0  0  0  0  0  0  0
   31.9840   29.6820   34.3540 H   0  0  0  0  0  0  0  0  0  0  0  0
   32.2170   28.2620   33.3500 H   0  0  0  0  0  0  0  0  0  0  0  0
   34.4370   28.4650   33.6300 H   0  0  0  0  0  0  0  0  0  0  0  0
   34.4330   30.3140   34.5720 C   0  0  0  0  0  0  0  0  0  0  0  0
   35.6780   30.7270   34.9760 C   0  0  0  0  0  0  0  0  0  0  0  0
   36.4720   30.3410   34.3590 H   0  0  0  0  0  0  0  0  0  0  0  0
   35.9090   31.5480   36.0500 C   0  0  0  0  0  0  0  0  0  0  0  0
   36.9350   31.7740   36.2300 H   0  0  0  0  0  0  0  0  0  0  0  0
   34.8670   32.0210   36.8070 C   0  0  0  0  0  3  0  0  0  0  0  0
   33.6210   31.6050   36.3970 C   0  0  0  0  0  3  0  0  0  0  0  0
   33.4270   30.8040   35.3480 N   0  0  0  0  0  0  0  0  0  0  0  0
  1  2  2  0  0  0  0
  1  6  1  0  0  0  0
  2  3  1  0  0  0  0
  3 15  1  0  0  0  0
  3  4  2  0  0  0  0
  5  4  1  0  0  0  0
  5  7  1  0  0  0  0
  6  5  2  0  0  0  0
  7 12  1  0  0  0  0
  8  7  1  0  0  0  0
  8 16  1  0  0  0  0
  9  8  1  0  0  0  0
  9 19  1  0  0  0  0
  9 10  1  0  0  0  0
 10 20  1  0  0  0  0
 10 11  1  0  0  0  0
 11 12  1  0  0  0  0
 11 21  1  0  0  0  0
 12 23  1  1  0  0  0
 12 24  1  0  0  0  0
 13  1  1  0  0  0  0
 14  2  1  0  0  0  0
 17  8  1  0  0  0  0
 18  9  1  0  0  0  0
 22 11  1  0  0  0  0
 24 25  2  0  0  0  0
 24 31  1  0  0  0  0
 25 27  1  0  0  0  0
 26 25  1  0  0  0  0
 27 28  1  0  0  0  0
 27 29  2  0  0  0  0
 30 29  1  0  0  0  0
 31 30  2  0  0  0  0
M  END
>  <minimizedAffinity>
-4.98087549

$$$$

 OpenBabel03262521503D

 31 33  0  0  1  0  0  0  0  0999 V2000
   35.7090   20.7680   35.1160 C   0  0  0  0  0  0  0  0  0  0  0  0
   35.6620   20.3490   33.7890 C   0  0  0  0  0  0  0  0  0  0  0  0
   36.6820   20.7950   32.9160 C   0  0  0  0  0  0  0  0  0  0  0  0
   37.6390   21.6030   33.4370 N   0  0  0  0  0  0  0  0  0  0  0  0
   37.6470   21.9820   34.7220 C   0  0  0  0  0  0  0  0  0  0  0  0
   36.6820   21.5620   35.5480 N   0  0  0  0  0  0  0  0  0  0  0  0
   38.6750   22.8260   35.2050 N   0  0  0  0  0  0  0  0  0  0  0  0
   39.1240   22.7700   36.5920 C   0  0  0  0  0  0  0  0  0  0  0  0
   40.5850   22.5760   36.6300 C   0  0  0  0  0  0  0  0  0  0  0  0
   41.3050   22.8320   35.4660 N   0  0  0  0  0  0  0  0  0  0  0  0
   40.7700   23.6620   34.4440 C   0  0  0  0  0  0  0  0  0  0  0  0
   39.3210   23.7930   34.3120 C   0  0  2  0  0  0  0  0  0  0  0  0
   34.8960   20.3890   35.7250 H   0  0  0  0  0  0  0  0  0  0  0  0
   34.9390   19.7160   33.3130 H   0  0  0  0  0  0  0  0  0  0  0  0
   36.7950   20.5700   31.8780 H   0  0  0  0  0  0  0  0  0  0  0  0
   38.9240   23.8140   36.9750 H   0  0  0  0  0  0  0  0  0  0  0  0
   38.5300   22.0810   37.1940 H   0  0  0  0  0  0  0  0  0  0  0  0
   40.7810   21.5230   36.9760 H   0  0  0  0  0  0  0  0  0  0  0  0
   41.0320   23.1860   37.4700 H   0  0  0  0  0  0  0  0  0  0  0  0
   42.2780   23.1060   35.6650 H   0  0  0  0  0  0  0  0  0  0  0  0
   41.2840   24.6330   34.4850 H   0  0  0  0  0  0  0  0  0  0  0  0
   41.1470   23.2080   33.4700 H   0  0  0  0  0  0  0  0  0  0  0  0
   38.9440   23.6020   33.2660 H   0  0  0  0  0  0  0  0  0  0  0  0
   38.8000   25.1240   34.6700 C   0  0  0  0  0  0  0  0  0  0  0  0
   39.1620   26.0900   35.5740 C   0  0  0  0  0  0  0  0  0  0  0  0
   40.0250   25.8190   36.1600 H   0  0  0  0  0  0  0  0  0  0  0  0
   38.5090   27.2860   35.7310 C   0  0  0  0  0  0  0  0  0  0  0  0
   38.9180   27.9270   36.4780 H   0  0  0  0  0  0  0  0  0  0  0  0
   37.4160   27.5930   34.9610 C   0  0  0  0  0  3  0  0  0  0  0  0
   37.0580   26.6200   34.0550 C   0  0  0  0  0  3  0  0  0  0  0  0
   37.7120   25.4650   33.9270 N   0  0  0  0  0  0  0  0  0  0  0  0
  1  6  1  0  0  0  0
  1 13  1  0  0  0  0
  2  1  2  0  0  0  0
  3  4  2  0  0  0  0
  3  2  1  0  0  0  0
  4  5  1  0  0  0  0
  5  7  1  0  0  0  0
  5  6  2  0  0  0  0
  7  8  1  0  0  0  0
  8  9  1  0  0  0  0
  8 16  1  0  0  0  0
  8 17  1  0  0  0  0
  9 18  1  0  0  0  0
  9 19  1  0  0  0  0
 10 20  1  0  0  0  0
 10  9  1  0  0  0  0
 11 21  1  0  0  0  0
 11 10  1  0  0  0  0
 12 23  1  6  0  0  0
 12 11  1  0  0  0  0
 12 24  1  0  0  0  0
 12  7  1  0  0  0  0
 14  2  1  0  0  0  0
 15  3  1  0  0  0  0
 22 11  1  0  0  0  0
 24 25  1  0  0  0  0
 25 27  2  0  0  0  0
 25 26  1  0  0  0  0
 27 28  1  0  0  0  0
 29 27  1  0  0  0  0
 30 29  2  0  0  0  0
 31 30  1  0  0  0  0
 31 24  2  0  0  0  0
M  END
>  <minimizedAffinity>
-4.96881533

$$$$

 OpenBabel03262521503D

 31 33  0  0  1  0  0  0  0  0999 V2000
   39.6180   22.7960   37.7580 C   0  0  0  0  0  0  0  0  0  0  0  0
   38.7920   23.4440   38.6730 C   0  0  0  0  0  0  0  0  0  0  0  0
   37.9120   24.4370   38.1850 C   0  0  0  0  0  0  0  0  0  0  0  0
   37.9350   24.6900   36.8520 N   0  0  0  0  0  0  0  0  0  0  0  0
   38.7460   24.0420   36.0060 C   0  0  0  0  0  0  0  0  0  0  0  0
   39.5800   23.1030   36.4660 N   0  0  0  0  0  0  0  0  0  0  0  0
   38.7210   24.3500   34.6250 N   0  0  0  0  0  0  0  0  0  0  0  0
   39.0390   23.3520   33.6100 C   0  0  0  0  0  0  0  0  0  0  0  0
   37.9400   23.2760   32.6300 C   0  0  0  0  0  0  0  0  0  0  0  0
   37.0250   24.3250   32.5960 N   0  0  0  0  0  0  0  0  0  0  0  0
   37.3600   25.6020   33.1250 C   0  0  0  0  0  0  0  0  0  0  0  0
   38.3720   25.7020   34.1730 C   0  0  2  0  0  0  0  0  0  0  0  0
   40.2650   22.0490   38.2030 H   0  0  0  0  0  0  0  0  0  0  0  0
   38.7230   23.2960   39.7330 H   0  0  0  0  0  0  0  0  0  0  0  0
   37.2180   25.0240   38.7450 H   0  0  0  0  0  0  0  0  0  0  0  0
   39.9250   23.7990   33.0700 H   0  0  0  0  0  0  0  0  0  0  0  0
   39.3640   22.4060   34.0450 H   0  0  0  0  0  0  0  0  0  0  0  0
   37.3980   22.3030   32.7990 H   0  0  0  0  0  0  0  0  0  0  0  0
   38.3610   23.1320   31.5910 H   0  0  0  0  0  0  0  0  0  0  0  0
   36.5950   24.4340   31.6670 H   0  0  0  0  0  0  0  0  0  0  0  0
   37.5500   26.2840   32.2830 H   0  0  0  0  0  0  0  0  0  0  0  0
   36.3900   25.9990   33.5690 H   0  0  0  0  0  0  0  0  0  0  0  0
   38.0320   26.2890   35.0740 H   0  0  0  0  0  0  0  0  0  0  0  0
   39.6240   26.3480   33.7440 C   0  0  0  0  0  0  0  0  0  0  0  0
   40.7940   26.6950   34.3720 C   0  0  0  0  0  0  0  0  0  0  0  0
   40.8040   26.4410   35.4190 H   0  0  0  0  0  0  0  0  0  0  0  0
   41.8550   27.3030   33.7490 C   0  0  0  0  0  0  0  0  0  0  0  0
   42.6900   27.5070   34.3800 H   0  0  0  0  0  0  0  0  0  0  0  0
   41.8020   27.6050   32.4120 C   0  0  0  0  0  3  0  0  0  0  0  0
   40.6270   27.2530   31.7870 C   0  0  0  0  0  3  0  0  0  0  0  0
   39.6110   26.6640   32.4210 N   0  0  0  0  0  0  0  0  0  0  0  0
  1 13  1  0  0  0  0
  1  2  1  0  0  0  0
  2 14  1  0  0  0  0
  3  2  2  0  0  0  0
  3 15  1  0  0  0  0
  4  3  1  0  0  0  0
  5  6  1  0  0  0  0
  5  4  2  0  0  0  0
  6  1  2  0  0  0  0
  7  5  1  0  0  0  0
  8 17  1  0  0  0  0
  8  7  1  0  0  0  0
  9 18  1  0  0  0  0
  9  8  1  0  0  0  0
 10  9  1  0  0  0  0
 10 11  1  0  0  0  0
 11 22  1  0  0  0  0
 11 12  1  0  0  0  0
 12  7  1  0  0  0  0
 12 23  1  1  0  0  0
 16  8  1  0  0  0  0
 19  9  1  0  0  0  0
 20 10  1  0  0  0  0
 21 11  1  0  0  0  0
 24 12  1  0  0  0  0
 24 25  1  0  0  0  0
 25 26  1  0  0  0  0
 27 25  2  0  0  0  0
 27 28  1  0  0  0  0
 29 27  1  0  0  0  0
 30 29  2  0  0  0  0
 30 31  1  0  0  0  0
 31 24  2  0  0  0  0
M  END
>  <minimizedAffinity>
-4.84787178

$$$$

 OpenBabel03262521503D

 31 33  0  0  1  0  0  0  0  0999 V2000
   39.5520   22.8290   37.8000 C   0  0  0  0  0  0  0  0  0  0  0  0
   40.8640   22.4520   37.5220 C   0  0  0  0  0  0  0  0  0  0  0  0
   41.4480   22.9160   36.3210 C   0  0  0  0  0  0  0  0  0  0  0  0
   40.6840   23.7010   35.5190 N   0  0  0  0  0  0  0  0  0  0  0  0
   39.4250   24.0410   35.8250 C   0  0  0  0  0  0  0  0  0  0  0  0
   38.8710   23.6020   36.9610 N   0  0  0  0  0  0  0  0  0  0  0  0
   38.6810   24.8650   34.9480 N   0  0  0  0  0  0  0  0  0  0  0  0
   37.6410   25.7640   35.4370 C   0  0  0  0  0  0  0  0  0  0  0  0
   37.9030   27.1320   34.9520 C   0  0  0  0  0  0  0  0  0  0  0  0
   38.7940   27.2870   33.8940 N   0  0  0  0  0  0  0  0  0  0  0  0
   39.0870   26.2030   33.0210 C   0  0  0  0  0  0  0  0  0  0  0  0
   38.9380   24.8330   33.5040 C   0  0  2  0  0  0  0  0  0  0  0  0
   39.1720   22.4360   38.7350 H   0  0  0  0  0  0  0  0  0  0  0  0
   41.5210   21.8370   38.1060 H   0  0  0  0  0  0  0  0  0  0  0  0
   42.4340   22.7230   35.9590 H   0  0  0  0  0  0  0  0  0  0  0  0
   36.7110   25.4030   34.9060 H   0  0  0  0  0  0  0  0  0  0  0  0
   37.4690   25.6560   36.5090 H   0  0  0  0  0  0  0  0  0  0  0  0
   38.2450   27.7460   35.8320 H   0  0  0  0  0  0  0  0  0  0  0  0
   36.9290   27.6360   34.6790 H   0  0  0  0  0  0  0  0  0  0  0  0
   38.5980   28.1350   33.3440 H   0  0  0  0  0  0  0  0  0  0  0  0
   38.5650   26.3780   32.0690 H   0  0  0  0  0  0  0  0  0  0  0  0
   40.1830   26.3350   32.7460 H   0  0  0  0  0  0  0  0  0  0  0  0
   39.8500   24.1920   33.3300 H   0  0  0  0  0  0  0  0  0  0  0  0
   37.8250   24.0920   32.8860 C   0  0  0  0  0  0  0  0  0  0  0  0
   37.4090   22.7840   32.9040 C   0  0  0  0  0  0  0  0  0  0  0  0
   38.0390   22.1490   33.5050 H   0  0  0  0  0  0  0  0  0  0  0  0
   36.3080   22.3140   32.2340 C   0  0  0  0  0  0  0  0  0  0  0  0
   36.1230   21.2700   32.3520 H   0  0  0  0  0  0  0  0  0  0  0  0
   35.5320   23.1590   31.4830 C   0  0  0  0  0  3  0  0  0  0  0  0
   35.9530   24.4690   31.4700 C   0  0  0  0  0  3  0  0  0  0  0  0
   37.0300   24.8970   32.1300 N   0  0  0  0  0  0  0  0  0  0  0  0
  1 13  1  0  0  0  0
  2  1  1  0  0  0  0
  2 14  1  0  0  0  0
  3  2  2  0  0  0  0
  4  5  2  0  0  0  0
  4  3  1  0  0  0  0
  5  6  1  0  0  0  0
  6  1  2  0  0  0  0
  7  8  1  0  0  0  0
  7  5  1  0  0  0  0
  8 17  1  0  0  0  0
  9  8  1  0  0  0  0
  9 18  1  0  0  0  0
 10  9  1  0  0  0  0
 11 12  1  0  0  0  0
 11 10  1  0  0  0  0
 12 23  1  6  0  0  0
 12  7  1  0  0  0  0
 15  3  1  0  0  0  0
 16  8  1  0  0  0  0
 19  9  1  0  0  0  0
 20 10  1  0  0  0  0
 21 11  1  0  0  0  0
 22 11  1  0  0  0  0
 24 25  1  0  0  0  0
 24 12  1  0  0  0  0
 25 26  1  0  0  0  0
 27 28  1  0  0  0  0
 27 25  2  0  0  0  0
 29 27  1  0  0  0  0
 30 29  2  0  0  0  0
 30 31  1  0  0  0  0
 31 24  2  0  0  0  0
M  END
>  <minimizedAffinity>
-4.75425816

$$$$

 OpenBabel03262521503D

 31 33  0  0  1  0  0  0  0  0999 V2000
   35.8570   23.0980   31.7380 C   0  0  0  0  0  0  0  0  0  0  0  0
   35.7730   24.3710   31.1790 C   0  0  0  0  0  0  0  0  0  0  0  0
   36.7970   25.2980   31.4840 C   0  0  0  0  0  0  0  0  0  0  0  0
   37.7930   24.8800   32.3040 N   0  0  0  0  0  0  0  0  0  0  0  0
   37.8350   23.6440   32.8210 C   0  0  0  0  0  0  0  0  0  0  0  0
   36.8680   22.7660   32.5330 N   0  0  0  0  0  0  0  0  0  0  0  0
   38.9030   23.2670   33.6690 N   0  0  0  0  0  0  0  0  0  0  0  0
   39.3710   21.8880   33.7470 C   0  0  0  0  0  0  0  0  0  0  0  0
   40.8240   21.8450   33.4980 C   0  0  0  0  0  0  0  0  0  0  0  0
   41.5360   23.0380   33.5960 N   0  0  0  0  0  0  0  0  0  0  0  0
   41.0180   24.1390   34.3300 C   0  0  0  0  0  0  0  0  0  0  0  0
   39.5740   24.2690   34.5060 C   0  0  2  0  0  0  0  0  0  0  0  0
   35.0400   22.4430   31.4610 H   0  0  0  0  0  0  0  0  0  0  0  0
   35.0190   24.7670   30.5270 H   0  0  0  0  0  0  0  0  0  0  0  0
   36.8850   26.3060   31.1420 H   0  0  0  0  0  0  0  0  0  0  0  0
   39.2190   21.6200   34.8340 H   0  0  0  0  0  0  0  0  0  0  0  0
   38.7600   21.2080   33.1530 H   0  0  0  0  0  0  0  0  0  0  0  0
   40.9840   21.3870   32.4820 H   0  0  0  0  0  0  0  0  0  0  0  0
   41.3080   21.0820   34.1780 H   0  0  0  0  0  0  0  0  0  0  0  0
   42.5210   22.8810   33.8490 H   0  0  0  0  0  0  0  0  0  0  0  0
   41.5710   24.2110   35.2780 H   0  0  0  0  0  0  0  0  0  0  0  0
   41.3610   25.0610   33.7580 H   0  0  0  0  0  0  0  0  0  0  0  0
   39.1730   25.2830   34.2180 H   0  0  0  0  0  0  0  0  0  0  0  0
   39.1110   24.0530   35.8880 C   0  0  0  0  0  0  0  0  0  0  0  0
   37.9890   24.4030   36.5950 C   0  0  0  0  0  0  0  0  0  0  0  0
   37.2800   24.9660   36.0110 H   0  0  0  0  0  0  0  0  0  0  0  0
   37.7700   24.0770   37.9100 C   0  0  0  0  0  0  0  0  0  0  0  0
   36.8460   24.4260   38.3110 H   0  0  0  0  0  0  0  0  0  0  0  0
   38.6980   23.3550   38.6150 C   0  0  0  0  0  3  0  0  0  0  0  0
   39.8220   23.0050   37.9010 C   0  0  0  0  0  3  0  0  0  0  0  0
   40.0070   23.3380   36.6220 N   0  0  0  0  0  0  0  0  0  0  0  0
  1  6  1  0  0  0  0
  2  3  1  0  0  0  0
  2  1  2  0  0  0  0
  3  4  2  0  0  0  0
  4  5  1  0  0  0  0
  5  7  1  0  0  0  0
  6  5  2  0  0  0  0
  7  8  1  0  0  0  0
  7 12  1  0  0  0  0
  8 16  1  0  0  0  0
  9 10  1  0  0  0  0
  9  8  1  0  0  0  0
  9 19  1  0  0  0  0
 10 20  1  0  0  0  0
 10 11  1  0  0  0  0
 11 12  1  0  0  0  0
 11 21  1  0  0  0  0
 12 23  1  6  0  0  0
 12 24  1  0  0  0  0
 13  1  1  0  0  0  0
 14  2  1  0  0  0  0
 15  3  1  0  0  0  0
 17  8  1  0  0  0  0
 18  9  1  0  0  0  0
 22 11  1  0  0  0  0
 24 25  2  0  0  0  0
 24 31  1  0  0  0  0
 25 27  1  0  0  0  0
 26 25  1  0  0  0  0
 27 28  1  0  0  0  0
 27 29  2  0  0  0  0
 30 29  1  0  0  0  0
 31 30  2  0  0  0  0
M  END
>  <minimizedAffinity>
-4.7435956

$$$$

 OpenBabel03262521503D

 31 33  0  0  1  0  0  0  0  0999 V2000
   37.8830   21.3630   31.0100 C   0  0  0  0  0  0  0  0  0  0  0  0
   36.5630   20.9210   30.9660 C   0  0  0  0  0  0  0  0  0  0  0  0
   35.5360   21.8800   31.1300 C   0  0  0  0  0  0  0  0  0  0  0  0
   35.9130   23.1700   31.3200 N   0  0  0  0  0  0  0  0  0  0  0  0
   37.1960   23.5520   31.3540 C   0  0  0  0  0  0  0  0  0  0  0  0
   38.1680   22.6460   31.2000 N   0  0  0  0  0  0  0  0  0  0  0  0
   37.5240   24.9150   31.5540 N   0  0  0  0  0  0  0  0  0  0  0  0
   38.7390   25.5000   30.9990 C   0  0  0  0  0  0  0  0  0  0  0  0
   38.3940   26.6960   30.2070 C   0  0  0  0  0  0  0  0  0  0  0  0
   37.1350   27.2600   30.3970 N   0  0  0  0  0  0  0  0  0  0  0  0
   36.3950   27.0110   31.5850 C   0  0  0  0  0  0  0  0  0  0  0  0
   36.6380   25.7830   32.3380 C   0  0  2  0  0  0  0  0  0  0  0  0
   38.6140   20.5740   30.8770 H   0  0  0  0  0  0  0  0  0  0  0  0
   36.1960   19.9230   30.8210 H   0  0  0  0  0  0  0  0  0  0  0  0
   34.4820   21.7120   31.1230 H   0  0  0  0  0  0  0  0  0  0  0  0
   39.2960   25.8650   31.9120 H   0  0  0  0  0  0  0  0  0  0  0  0
   39.3690   24.7600   30.5040 H   0  0  0  0  0  0  0  0  0  0  0  0
   38.5360   26.4390   29.1200 H   0  0  0  0  0  0  0  0  0  0  0  0
   39.1740   27.4980   30.3630 H   0  0  0  0  0  0  0  0  0  0  0  0
   37.1260   28.2670   30.1850 H   0  0  0  0  0  0  0  0  0  0  0  0
   36.4400   27.9120   32.2140 H   0  0  0  0  0  0  0  0  0  0  0  0
   35.3070   26.9790   31.2520 H   0  0  0  0  0  0  0  0  0  0  0  0
   35.7000   25.2010   32.5680 H   0  0  0  0  0  0  0  0  0  0  0  0
   37.2890   25.9930   33.6430 C   0  0  0  0  0  0  0  0  0  0  0  0
   37.9820   25.1920   34.5150 C   0  0  0  0  0  0  0  0  0  0  0  0
   38.0730   24.1740   34.1730 H   0  0  0  0  0  0  0  0  0  0  0  0
   38.5130   25.6220   35.7040 C   0  0  0  0  0  0  0  0  0  0  0  0
   39.0220   24.8730   36.2670 H   0  0  0  0  0  0  0  0  0  0  0  0
   38.3770   26.9290   36.1000 C   0  0  0  0  0  3  0  0  0  0  0  0
   37.6830   27.7280   35.2200 C   0  0  0  0  0  3  0  0  0  0  0  0
   37.1760   27.2800   34.0710 N   0  0  0  0  0  0  0  0  0  0  0  0
  1  6  1  0  0  0  0
  2  1  2  0  0  0  0
  2  3  1  0  0  0  0
  3  4  2  0  0  0  0
  4  5  1  0  0  0  0
  5  7  1  0  0  0  0
  6  5  2  0  0  0  0
  7 12  1  0  0  0  0
  8  7  1  0  0  0  0
  8 16  1  0  0  0  0
  9 19  1  0  0  0  0
  9 10  1  0  0  0  0
  9  8  1  0  0  0  0
 10 11  1  0  0  0  0
 11 21  1  0  0  0  0
 11 12  1  0  0  0  0
 12 23  1  1  0  0  0
 12 24  1  0  0  0  0
 13  1  1  0  0  0  0
 14  2  1  0  0  0  0
 15  3  1  0  0  0  0
 17  8  1  0  0  0  0
 18  9  1  0  0  0  0
 20 10  1  0  0  0  0
 22 11  1  0  0  0  0
 24 31  2  0  0  0  0
 24 25  1  0  0  0  0
 25 27  2  0  0  0  0
 26 25  1  0  0  0  0
 27 29  1  0  0  0  0
 27 28  1  0  0  0  0
 30 29  2  0  0  0  0
 31 30  1  0  0  0  0
M  END
>  <minimizedAffinity>
-4.66718912

$$$$

 OpenBabel03262521503D

 31 33  0  0  1  0  0  0  0  0999 V2000
   36.4980   26.6470   32.1320 C   0  0  0  0  0  0  0  0  0  0  0  0
   37.4320   27.6140   31.7710 C   0  0  0  0  0  0  0  0  0  0  0  0
   38.7950   27.3570   32.0480 C   0  0  0  0  0  0  0  0  0  0  0  0
   39.0970   26.1790   32.6500 N   0  0  0  0  0  0  0  0  0  0  0  0
   38.1650   25.2750   32.9810 C   0  0  0  0  0  0  0  0  0  0  0  0
   36.8760   25.5170   32.7200 N   0  0  0  0  0  0  0  0  0  0  0  0
   38.5450   24.0630   33.6050 N   0  0  0  0  0  0  0  0  0  0  0  0
   37.7800   22.8350   33.4250 C   0  0  0  0  0  0  0  0  0  0  0  0
   38.6760   21.7570   32.9650 C   0  0  0  0  0  0  0  0  0  0  0  0
   40.0470   21.9420   33.1200 N   0  0  0  0  0  0  0  0  0  0  0  0
   40.5560   22.8740   34.0660 C   0  0  0  0  0  0  0  0  0  0  0  0
   39.7330   24.0120   34.4650 C   0  0  2  0  0  0  0  0  0  0  0  0
   35.4760   26.9120   31.8900 H   0  0  0  0  0  0  0  0  0  0  0  0
   37.2650   28.5610   31.2960 H   0  0  0  0  0  0  0  0  0  0  0  0
   39.6320   27.9860   31.8380 H   0  0  0  0  0  0  0  0  0  0  0  0
   37.4620   22.5660   34.4760 H   0  0  0  0  0  0  0  0  0  0  0  0
   36.8740   22.9920   32.8380 H   0  0  0  0  0  0  0  0  0  0  0  0
   38.4380   21.5540   31.8830 H   0  0  0  0  0  0  0  0  0  0  0  0
   38.3870   20.7810   33.4560 H   0  0  0  0  0  0  0  0  0  0  0  0
   40.5510   21.0490   33.2040 H   0  0  0  0  0  0  0  0  0  0  0  0
   40.9510   22.3120   34.9240 H   0  0  0  0  0  0  0  0  0  0  0  0
   41.4920   23.3020   33.5810 H   0  0  0  0  0  0  0  0  0  0  0  0
   40.2630   25.0050   34.3800 H   0  0  0  0  0  0  0  0  0  0  0  0
   39.2530   23.9530   35.8570 C   0  0  0  0  0  0  0  0  0  0  0  0
   38.2510   24.5740   36.5590 C   0  0  0  0  0  0  0  0  0  0  0  0
   37.6820   25.2650   35.9600 H   0  0  0  0  0  0  0  0  0  0  0  0
   37.9830   24.3500   37.8860 C   0  0  0  0  0  0  0  0  0  0  0  0
   37.1700   24.9140   38.2820 H   0  0  0  0  0  0  0  0  0  0  0  0
   38.7320   23.4560   38.6100 C   0  0  0  0  0  3  0  0  0  0  0  0
   39.7340   22.8360   37.9000 C   0  0  0  0  0  3  0  0  0  0  0  0
   39.9720   23.0750   36.6090 N   0  0  0  0  0  0  0  0  0  0  0  0
  1  6  1  0  0  0  0
  2  3  1  0  0  0  0
  2  1  2  0  0  0  0
  3  4  2  0  0  0  0
  4  5  1  0  0  0  0
  5  7  1  0  0  0  0
  6  5  2  0  0  0  0
  7 12  1  0  0  0  0
  8  7  1  0  0  0  0
  8 16  1  0  0  0  0
  9 10  1  0  0  0  0
  9  8  1  0  0  0  0
  9 19  1  0  0  0  0
 10 20  1  0  0  0  0
 10 11  1  0  0  0  0
 11 12  1  0  0  0  0
 11 21  1  0  0  0  0
 12 23  1  6  0  0  0
 12 24  1  0  0  0  0
 13  1  1  0  0  0  0
 14  2  1  0  0  0  0
 15  3  1  0  0  0  0
 17  8  1  0  0  0  0
 18  9  1  0  0  0  0
 22 11  1  0  0  0  0
 24 25  2  0  0  0  0
 24 31  1  0  0  0  0
 25 27  1  0  0  0  0
 26 25  1  0  0  0  0
 27 28  1  0  0  0  0
 27 29  2  0  0  0  0
 30 29  1  0  0  0  0
 31 30  2  0  0  0  0
M  END
>  <minimizedAffinity>
-4.65625191

$$$$
