
 OpenBabel03272510203D

 35 38  0  0  0  0  0  0  0  0999 V2000
   37.4680   29.1820   50.8330 Br  0  0  0  0  0  0  0  0  0  0  0  0
   36.0360   29.2780   49.5710 C   0  0  0  0  0  0  0  0  0  0  0  0
   36.0120   30.2700   48.5990 C   0  0  0  0  0  0  0  0  0  0  0  0
   34.9510   30.2760   47.7250 C   0  0  0  0  0  0  0  0  0  0  0  0
   33.9210   29.3530   47.7700 C   0  0  0  0  0  0  0  0  0  0  0  0
   33.9790   28.3980   48.7360 C   0  0  0  0  0  0  0  0  0  0  0  0
   35.0310   28.3660   49.6260 C   0  0  0  0  0  0  0  0  0  0  0  0
   34.8780   31.0300   46.9400 H   0  0  0  0  0  0  0  0  0  0  0  0
   33.2140   27.6230   48.8560 H   0  0  0  0  0  0  0  0  0  0  0  0
   35.0670   27.5950   50.3960 H   0  0  0  0  0  0  0  0  0  0  0  0
   38.0230   33.2000   49.4390 C   0  0  0  0  0  0  0  0  0  0  0  0
   39.0420   33.1880   48.4410 C   0  0  0  0  0  0  0  0  0  0  0  0
   39.0160   32.1780   47.5080 C   0  0  0  0  0  0  0  0  0  0  0  0
   38.0250   31.2280   47.5640 N   0  0  0  0  0  0  0  0  0  0  0  0
   37.0780   31.2640   48.5140 C   0  0  0  0  0  0  0  0  0  0  0  0
   37.0880   32.2490   49.4410 N   0  0  0  0  0  0  0  0  0  0  0  0
   38.0250   33.9850   50.1820 H   0  0  0  0  0  0  0  0  0  0  0  0
   39.8050   33.9600   48.4390 H   0  0  0  0  0  0  0  0  0  0  0  0
   39.7640   32.1170   46.7270 H   0  0  0  0  0  0  0  0  0  0  0  0
   32.8030   29.3600   46.8510 C   0  0  0  0  0  0  0  0  0  0  0  0
   31.8940   28.3350   46.7050 C   0  0  0  0  0  0  0  0  0  0  0  0
   30.8360   28.3910   45.8040 C   0  0  0  0  0  0  0  0  0  0  0  0
   30.6730   29.4800   45.0340 N   0  0  0  0  0  0  0  0  0  0  0  0
   31.5530   30.4790   45.1690 C   0  0  0  0  0  0  0  0  0  0  0  0
   32.5710   30.4090   46.0440 N   0  0  0  0  0  0  0  0  0  0  0  0
   32.0200   27.4450   47.3300 H   0  0  0  0  0  0  0  0  0  0  0  0
   30.1320   27.5720   45.7070 H   0  0  0  0  0  0  0  0  0  0  0  0
   31.4070   31.6770   44.3470 C   0  0  0  0  0  0  0  0  0  0  0  0
   32.5100   32.2860   43.7790 C   0  0  0  0  0  0  0  0  0  0  0  0
   33.4600   31.8130   43.9920 H   0  0  0  0  0  0  0  0  0  0  0  0
   32.3430   33.4190   43.0060 C   0  0  0  0  0  0  0  0  0  0  0  0
   33.2930   33.7830   42.6290 H   0  0  0  0  0  0  0  0  0  0  0  0
   31.1030   33.9580   42.7850 C   0  0  0  0  0  3  0  0  0  0  0  0
   30.0330   33.3250   43.3650 C   0  0  0  0  0  3  0  0  0  0  0  0
   30.1890   32.2130   44.1260 N   0  0  0  0  0  0  0  0  0  0  0  0
  2  7  1  0  0  0  0
  2  1  1  0  0  0  0
  3  2  2  0  0  0  0
  4  5  2  0  0  0  0
  4  3  1  0  0  0  0
  5  6  1  0  0  0  0
  6  9  1  0  0  0  0
  6  7  2  0  0  0  0
  7 10  1  0  0  0  0
  8  4  1  0  0  0  0
 11 16  1  0  0  0  0
 11 17  1  0  0  0  0
 12 11  2  0  0  0  0
 13 14  2  0  0  0  0
 13 12  1  0  0  0  0
 14 15  1  0  0  0  0
 15  3  1  0  0  0  0
 15 16  2  0  0  0  0
 18 12  1  0  0  0  0
 19 13  1  0  0  0  0
 20  5  1  0  0  0  0
 21 20  1  0  0  0  0
 21 26  1  0  0  0  0
 22 21  2  0  0  0  0
 23 24  2  0  0  0  0
 23 22  1  0  0  0  0
 24 25  1  0  0  0  0
 25 20  2  0  0  0  0
 27 22  1  0  0  0  0
 28 24  1  0  0  0  0
 29 30  1  0  0  0  0
 29 28  2  0  0  0  0
 31 29  1  0  0  0  0
 32 31  1  0  0  0  0
 33 31  2  0  0  0  0
 33 34  1  0  0  0  0
 34 35  2  0  0  0  0
 35 28  1  0  0  0  0
M  END
>  <minimizedAffinity>
-6.38217258

>  <minimizedRMSD>
0.473454624

$$$$
