
 OpenBabel03272507073D

 38 42  0  0  0  0  0  0  0  0999 V2000
   38.0600   32.7130   49.6280 C   0  0  0  0  0  0  0  0  0  0  0  0
   38.8060   32.9070   48.4580 C   0  0  0  0  0  0  0  0  0  0  0  0
   38.4490   32.1250   47.3410 C   0  0  0  0  0  0  0  0  0  0  0  0
   37.4250   31.2450   47.4480 N   0  0  0  0  0  0  0  0  0  0  0  0
   36.7360   31.0940   48.5990 C   0  0  0  0  0  0  0  0  0  0  0  0
   37.0540   31.8290   49.6850 N   0  0  0  0  0  0  0  0  0  0  0  0
   38.3430   33.3190   50.4810 H   0  0  0  0  0  0  0  0  0  0  0  0
   39.6270   33.6010   48.3410 H   0  0  0  0  0  0  0  0  0  0  0  0
   35.6880   29.1040   49.5780 C   0  0  0  0  0  0  0  0  0  0  0  0
   35.6430   30.1220   48.6310 C   0  0  0  0  0  0  0  0  0  0  0  0
   34.6020   30.1980   47.7590 C   0  0  0  0  0  0  0  0  0  0  0  0
   33.5800   29.2920   47.7840 C   0  0  0  0  0  0  0  0  0  0  0  0
   32.4560   29.1520   47.0440 N   0  0  0  0  0  0  0  0  0  0  0  0
   31.8480   28.0430   47.5700 C   0  0  0  0  0  0  0  0  0  0  0  0
   32.5720   27.5310   48.5880 N   0  0  0  0  0  0  0  0  0  0  0  0
   33.6590   28.2990   48.7360 C   0  0  0  0  0  0  0  0  0  0  0  0
   34.6740   28.1670   49.6370 C   0  0  0  0  0  0  0  0  0  0  0  0
   36.5190   29.0400   50.2770 H   0  0  0  0  0  0  0  0  0  0  0  0
   34.5710   30.9890   47.0250 H   0  0  0  0  0  0  0  0  0  0  0  0
   32.1500   29.7570   46.2650 H   0  0  0  0  0  0  0  0  0  0  0  0
   30.9060   27.6490   47.1980 H   0  0  0  0  0  0  0  0  0  0  0  0
   34.7470   27.3940   50.3870 H   0  0  0  0  0  0  0  0  0  0  0  0
   39.1140   32.1990   46.0550 C   0  0  0  0  0  0  0  0  0  0  0  0
   39.6310   33.3570   45.5190 C   0  0  0  0  0  0  0  0  0  0  0  0
   40.2680   33.4670   44.3040 C   0  0  0  0  0  0  0  0  0  0  0  0
   40.3840   32.3350   43.5950 N   0  0  0  0  0  0  0  0  0  0  0  0
   39.8950   31.1820   44.0750 C   0  0  0  0  0  0  0  0  0  0  0  0
   39.2880   31.1330   45.2560 N   0  0  0  0  0  0  0  0  0  0  0  0
   39.5430   34.2920   46.0910 H   0  0  0  0  0  0  0  0  0  0  0  0
   40.6470   34.4220   43.9580 H   0  0  0  0  0  0  0  0  0  0  0  0
   40.0270   29.9510   43.2940 C   0  0  0  0  0  0  0  0  0  0  0  0
   39.1200   28.9090   43.4790 C   0  0  0  0  0  0  0  0  0  0  0  0
   38.3070   29.0180   44.2140 H   0  0  0  0  0  0  0  0  0  0  0  0
   39.1800   27.7230   42.7800 C   0  0  0  0  0  0  0  0  0  0  0  0
   38.4750   26.9150   42.9260 H   0  0  0  0  0  0  0  0  0  0  0  0
   40.2300   27.6380   41.8610 C   0  0  0  0  0  0  0  0  0  0  0  0
   41.1370   28.6570   41.6640 C   0  0  0  0  0  0  0  0  0  0  0  0
   41.0240   29.8050   42.3850 N   0  0  0  0  0  0  0  0  0  0  0  0
  1  6  1  0  0  0  0
  1  7  1  0  0  0  0
  2  1  2  0  0  0  0
  3  4  2  0  0  0  0
  3  2  1  0  0  0  0
  4  5  1  0  0  0  0
  5 10  1  0  0  0  0
  5  6  2  0  0  0  0
  8  2  1  0  0  0  0
  9 17  1  0  0  0  0
  9 18  1  0  0  0  0
 10  9  2  0  0  0  0
 11 12  2  0  0  0  0
 11 10  1  0  0  0  0
 12 16  1  0  0  0  0
 13 14  1  0  0  0  0
 13 12  1  0  0  0  0
 14 15  2  0  0  0  0
 15 16  1  0  0  0  0
 16 17  2  0  0  0  0
 17 22  1  0  0  0  0
 19 11  1  0  0  0  0
 20 13  1  0  0  0  0
 21 14  1  0  0  0  0
 23  3  1  0  0  0  0
 24 23  1  0  0  0  0
 24 29  1  0  0  0  0
 25 24  2  0  0  0  0
 26 27  2  0  0  0  0
 26 25  1  0  0  0  0
 27 28  1  0  0  0  0
 28 23  2  0  0  0  0
 30 25  1  0  0  0  0
 31 32  1  0  0  0  0
 31 27  1  0  0  0  0
 32 33  1  0  0  0  0
 34 35  1  0  0  0  0
 34 32  2  0  0  0  0
 36 34  1  0  0  0  0
 37 36  2  0  0  0  0
 37 38  1  0  0  0  0
 38 31  2  0  0  0  0
M  END
>  <minimizedAffinity>
-7.60496664

>  <minimizedRMSD>
1.67437196

$$$$
