
 OpenBabel03272502173D

 32 34  0  0  1  0  0  0  0  0999 V2000
   36.2950   29.1800   49.6090 S   0  0  0  0  0  0  0  0  0  0  0  0
   33.7970   28.2680   49.1370 N   0  0  0  0  0  0  0  0  0  0  0  0
   34.5130   29.5080   49.2710 C   0  0  2  0  0  0  0  0  0  0  0  0
   34.4070   30.2580   47.9750 C   0  0  0  0  0  0  0  0  0  0  0  0
   33.3360   29.7670   47.1960 O   0  0  0  0  0  0  0  0  0  0  0  0
   33.7850   28.5000   46.7730 C   0  0  0  0  0  0  0  0  0  0  0  0
   34.2140   27.6300   47.9170 C   0  0  2  0  0  0  0  0  0  0  0  0
   34.0300   27.6650   49.9570 H   0  0  0  0  0  0  0  0  0  0  0  0
   34.1710   30.1130   50.1360 H   0  0  0  0  0  0  0  0  0  0  0  0
   34.1640   31.3330   48.1350 H   0  0  0  0  0  0  0  0  0  0  0  0
   35.3490   30.1600   47.4010 H   0  0  0  0  0  0  0  0  0  0  0  0
   33.0870   27.9990   46.0880 H   0  0  0  0  0  0  0  0  0  0  0  0
   34.7010   28.7190   46.1610 H   0  0  0  0  0  0  0  0  0  0  0  0
   35.3280   27.4780   47.9440 H   0  0  0  0  0  0  0  0  0  0  0  0
   33.5860   26.3640   47.8420 O   0  0  0  0  0  0  0  0  0  0  0  0
   34.2720   25.6880   47.5970 H   0  0  0  0  0  0  0  0  0  0  0  0
   37.3140   30.5020   49.0130 C   0  0  0  0  0  0  0  0  0  0  0  0
   37.6020   31.4410   50.0060 C   0  0  0  0  0  0  0  0  0  0  0  0
   38.4040   32.5390   49.6550 C   0  0  0  0  0  0  0  0  0  0  0  0
   38.8500   32.6180   48.3630 N   0  0  0  0  0  0  0  0  0  0  0  0
   38.5510   31.6980   47.4390 C   0  0  0  0  0  0  0  0  0  0  0  0
   37.7890   30.6520   47.7700 N   0  0  0  0  0  0  0  0  0  0  0  0
   37.2890   31.4400   51.0260 H   0  0  0  0  0  0  0  0  0  0  0  0
   38.6820   33.3120   50.3410 H   0  0  0  0  0  0  0  0  0  0  0  0
   39.0510   31.8260   46.0730 C   0  0  0  0  0  0  0  0  0  0  0  0
   40.2390   31.1840   45.7240 C   0  0  0  0  0  0  0  0  0  0  0  0
   40.7970   30.5960   46.4360 H   0  0  0  0  0  0  0  0  0  0  0  0
   40.7630   31.2730   44.4310 C   0  0  0  0  0  0  0  0  0  0  0  0
   41.6640   30.7990   44.1280 H   0  0  0  0  0  0  0  0  0  0  0  0
   40.0130   32.0340   43.5580 C   0  0  0  0  0  0  0  0  0  0  0  0
   38.8370   32.6750   43.8830 C   0  0  0  0  0  0  0  0  0  0  0  0
   38.3580   32.5650   45.1580 N   0  0  0  0  0  0  0  0  0  0  0  0
  2  3  1  0  0  0  0
  2  8  1  0  0  0  0
  3  1  1  0  0  0  0
  3  9  1  1  0  0  0
  4 10  1  0  0  0  0
  4  3  1  0  0  0  0
  5  4  1  0  0  0  0
  6  5  1  0  0  0  0
  6  7  1  0  0  0  0
  7 14  1  6  0  0  0
  7  2  1  0  0  0  0
 11  4  1  0  0  0  0
 12  6  1  0  0  0  0
 13  6  1  0  0  0  0
 15  7  1  0  0  0  0
 16 15  1  0  0  0  0
 17  1  1  0  0  0  0
 17 18  1  0  0  0  0
 18 23  1  0  0  0  0
 19 18  2  0  0  0  0
 19 24  1  0  0  0  0
 20 19  1  0  0  0  0
 21 22  1  0  0  0  0
 21 20  2  0  0  0  0
 22 17  2  0  0  0  0
 25 21  1  0  0  0  0
 26 25  1  0  0  0  0
 26 27  1  0  0  0  0
 28 26  2  0  0  0  0
 29 28  1  0  0  0  0
 30 31  2  0  0  0  0
 30 28  1  0  0  0  0
 31 32  1  0  0  0  0
 32 25  2  0  0  0  0
M  END
>  <minimizedAffinity>
-5.87471914

>  <minimizedRMSD>
0.822532892

$$$$
