
 OpenBabel03272509233D

 45 49  0  0  0  0  0  0  0  0999 V2000
   35.8730   29.1150   33.5120 C   0  0  0  0  0  0  0  0  0  0  0  0
   35.3140   30.3760   33.6130 C   0  0  0  0  0  0  0  0  0  0  0  0
   35.2930   31.0960   32.4080 C   0  0  0  0  0  0  0  0  0  0  0  0
   35.8020   30.5620   31.2210 C   0  0  0  0  0  0  0  0  0  0  0  0
   36.3540   29.2620   31.2210 C   0  0  0  0  0  0  0  0  0  0  0  0
   36.3780   28.5380   32.4130 C   0  0  0  0  0  0  0  0  0  0  0  0
   34.8790   32.0880   32.3790 H   0  0  0  0  0  0  0  0  0  0  0  0
   35.7770   31.1310   30.3060 H   0  0  0  0  0  0  0  0  0  0  0  0
   36.7410   28.8690   30.2890 H   0  0  0  0  0  0  0  0  0  0  0  0
   35.6040   31.6870   35.6470 C   0  0  0  0  0  0  0  0  0  0  0  0
   34.7960   30.9230   34.8200 C   0  0  0  0  0  0  0  0  0  0  0  0
   33.4620   30.7170   35.2240 C   0  0  0  0  0  0  0  0  0  0  0  0
   33.0410   31.2680   36.3860 N   0  0  0  0  0  0  0  0  0  0  0  0
   33.8750   32.0120   37.1620 C   0  0  0  0  0  0  0  0  0  0  0  0
   35.1490   32.2200   36.7960 N   0  0  0  0  0  0  0  0  0  0  0  0
   36.6240   31.8630   35.3700 H   0  0  0  0  0  0  0  0  0  0  0  0
   33.4090   32.3920   38.0630 H   0  0  0  0  0  0  0  0  0  0  0  0
   32.5490   29.9070   34.3800 C   0  0  0  0  0  0  0  0  0  0  0  0
   31.6640   29.6390   34.9900 H   0  0  0  0  0  0  0  0  0  0  0  0
   33.0620   29.0260   33.9380 H   0  0  0  0  0  0  0  0  0  0  0  0
   32.1990   30.5760   33.5640 H   0  0  0  0  0  0  0  0  0  0  0  0
   35.9410   28.3150   34.6580 O   0  0  0  0  0  0  0  0  0  0  0  0
   35.1990   27.7280   34.9820 H   0  0  0  0  0  0  0  0  0  0  0  0
   36.9340   27.2710   32.3390 O   0  0  0  0  0  0  0  0  0  0  0  0
   37.8770   25.9770   34.2230 C   0  0  0  0  0  0  0  0  0  0  0  0
   37.9410   26.7880   33.1180 C   0  0  0  0  0  0  0  0  0  0  0  0
   39.1920   27.2130   32.6840 C   0  0  0  0  0  0  0  0  0  0  0  0
   40.3640   26.8210   33.3560 C   0  0  0  0  0  0  0  0  0  0  0  0
   41.6770   27.0470   33.1990 N   0  0  0  0  0  0  0  0  0  0  0  0
   42.3840   26.4190   34.1420 C   0  0  0  0  0  0  0  0  0  0  0  0
   41.4870   25.7750   34.9190 N   0  0  0  0  0  0  0  0  0  0  0  0
   40.2330   26.0040   34.4600 C   0  0  0  0  0  0  0  0  0  0  0  0
   39.0070   25.5800   34.8980 C   0  0  0  0  0  0  0  0  0  0  0  0
   36.8930   25.6820   34.5120 H   0  0  0  0  0  0  0  0  0  0  0  0
   39.3910   27.8510   31.8310 H   0  0  0  0  0  0  0  0  0  0  0  0
   42.0830   27.6370   32.4390 H   0  0  0  0  0  0  0  0  0  0  0  0
   43.4660   26.4210   34.2650 H   0  0  0  0  0  0  0  0  0  0  0  0
   38.9380   24.7190   36.0700 C   0  0  0  0  0  0  0  0  0  0  0  0
   38.1470   24.9620   37.1670 C   0  0  0  0  0  0  0  0  0  0  0  0
   37.5250   25.8440   37.1870 H   0  0  0  0  0  0  0  0  0  0  0  0
   38.0760   24.1520   38.2810 C   0  0  0  0  0  0  0  0  0  0  0  0
   37.4400   24.3750   39.1300 H   0  0  0  0  0  0  0  0  0  0  0  0
   38.8430   23.0080   38.3250 C   0  0  0  0  0  3  0  0  0  0  0  0
   39.6330   22.7740   37.2200 C   0  0  0  0  0  3  0  0  0  0  0  0
   39.6710   23.5930   36.1560 N   0  0  0  0  0  0  0  0  0  0  0  0
  1  2  1  0  0  0  0
  1 22  1  0  0  0  0
  2 11  1  0  0  0  0
  3  2  2  0  0  0  0
  4  5  2  0  0  0  0
  4  3  1  0  0  0  0
  5  6  1  0  0  0  0
  6  1  2  0  0  0  0
  7  3  1  0  0  0  0
  8  4  1  0  0  0  0
  9  5  1  0  0  0  0
 10 15  1  0  0  0  0
 11 12  1  0  0  0  0
 11 10  2  0  0  0  0
 12 13  2  0  0  0  0
 13 14  1  0  0  0  0
 14 17  1  0  0  0  0
 15 14  2  0  0  0  0
 16 10  1  0  0  0  0
 18 19  1  0  0  0  0
 18 12  1  0  0  0  0
 20 18  1  0  0  0  0
 21 18  1  0  0  0  0
 22 23  1  0  0  0  0
 24  6  1  0  0  0  0
 24 26  1  0  0  0  0
 25 34  1  0  0  0  0
 25 33  1  0  0  0  0
 26 25  2  0  0  0  0
 27 26  1  0  0  0  0
 27 28  2  0  0  0  0
 28 32  1  0  0  0  0
 29 28  1  0  0  0  0
 29 30  1  0  0  0  0
 30 37  1  0  0  0  0
 30 31  2  0  0  0  0
 32 33  2  0  0  0  0
 32 31  1  0  0  0  0
 33 38  1  0  0  0  0
 35 27  1  0  0  0  0
 36 29  1  0  0  0  0
 38 45  2  0  0  0  0
 38 39  1  0  0  0  0
 39 40  1  0  0  0  0
 39 41  2  0  0  0  0
 41 43  1  0  0  0  0
 41 42  1  0  0  0  0
 44 43  2  0  0  0  0
 45 44  1  0  0  0  0
M  END
>  <minimizedAffinity>
-6.84864426

$$$$

 OpenBabel03272509233D

 45 49  0  0  0  0  0  0  0  0999 V2000
   36.1020   24.7870   31.6410 C   0  0  0  0  0  0  0  0  0  0  0  0
   36.7220   23.6840   32.2010 C   0  0  0  0  0  0  0  0  0  0  0  0
   37.6970   23.9950   33.1610 C   0  0  0  0  0  0  0  0  0  0  0  0
   37.9980   25.3150   33.5050 C   0  0  0  0  0  0  0  0  0  0  0  0
   37.3090   26.3750   32.8750 C   0  0  0  0  0  0  0  0  0  0  0  0
   36.3380   26.0760   31.9200 C   0  0  0  0  0  0  0  0  0  0  0  0
   38.2370   23.2080   33.6560 H   0  0  0  0  0  0  0  0  0  0  0  0
   38.7510   25.5330   34.2460 H   0  0  0  0  0  0  0  0  0  0  0  0
   37.5600   27.3900   33.1590 H   0  0  0  0  0  0  0  0  0  0  0  0
   35.3010   21.7120   32.3850 C   0  0  0  0  0  0  0  0  0  0  0  0
   36.4170   22.3380   31.8520 C   0  0  0  0  0  0  0  0  0  0  0  0
   37.2200   21.5930   30.9660 C   0  0  0  0  0  0  0  0  0  0  0  0
   36.8670   20.3190   30.6830 N   0  0  0  0  0  0  0  0  0  0  0  0
   35.7590   19.7490   31.2310 C   0  0  0  0  0  0  0  0  0  0  0  0
   34.9810   20.4410   32.0770 N   0  0  0  0  0  0  0  0  0  0  0  0
   34.6680   22.2500   33.0620 H   0  0  0  0  0  0  0  0  0  0  0  0
   35.5950   18.7250   30.9190 H   0  0  0  0  0  0  0  0  0  0  0  0
   38.4280   22.2110   30.3650 C   0  0  0  0  0  0  0  0  0  0  0  0
   39.0520   21.4010   29.9390 H   0  0  0  0  0  0  0  0  0  0  0  0
   38.9740   22.8510   31.0910 H   0  0  0  0  0  0  0  0  0  0  0  0
   38.0720   22.8370   29.5180 H   0  0  0  0  0  0  0  0  0  0  0  0
   35.1130   24.5850   30.6720 O   0  0  0  0  0  0  0  0  0  0  0  0
   34.1490   24.4130   30.8760 H   0  0  0  0  0  0  0  0  0  0  0  0
   35.7020   27.1640   31.3440 O   0  0  0  0  0  0  0  0  0  0  0  0
   35.2660   29.0020   32.9400 C   0  0  0  0  0  0  0  0  0  0  0  0
   35.7570   28.4520   31.7820 C   0  0  0  0  0  0  0  0  0  0  0  0
   36.4150   29.2850   30.8840 C   0  0  0  0  0  0  0  0  0  0  0  0
   36.5770   30.6570   31.1540 C   0  0  0  0  0  0  0  0  0  0  0  0
   37.1430   31.6950   30.5190 N   0  0  0  0  0  0  0  0  0  0  0  0
   37.0140   32.8160   31.2340 C   0  0  0  0  0  0  0  0  0  0  0  0
   36.3450   32.4730   32.3560 N   0  0  0  0  0  0  0  0  0  0  0  0
   36.0620   31.1480   32.3360 C   0  0  0  0  0  0  0  0  0  0  0  0
   35.4110   30.3380   33.2270 C   0  0  0  0  0  0  0  0  0  0  0  0
   34.7700   28.3170   33.5920 H   0  0  0  0  0  0  0  0  0  0  0  0
   36.8500   28.9900   29.9370 H   0  0  0  0  0  0  0  0  0  0  0  0
   37.6170   31.6270   29.5920 H   0  0  0  0  0  0  0  0  0  0  0  0
   37.3730   33.8100   30.9710 H   0  0  0  0  0  0  0  0  0  0  0  0
   34.8910   30.9200   34.4550 C   0  0  0  0  0  0  0  0  0  0  0  0
   35.6680   31.3280   35.5120 C   0  0  0  0  0  0  0  0  0  0  0  0
   36.7410   31.2190   35.4550 H   0  0  0  0  0  0  0  0  0  0  0  0
   35.1830   31.8810   36.6790 C   0  0  0  0  0  0  0  0  0  0  0  0
   35.8260   32.1910   37.4940 H   0  0  0  0  0  0  0  0  0  0  0  0
   33.8230   32.0490   36.8240 C   0  0  0  0  0  3  0  0  0  0  0  0
   33.0520   31.6380   35.7570 C   0  0  0  0  0  3  0  0  0  0  0  0
   33.5690   31.1030   34.6390 N   0  0  0  0  0  0  0  0  0  0  0  0
  1  6  2  0  0  0  0
  1  2  1  0  0  0  0
  2  3  2  0  0  0  0
  3  4  1  0  0  0  0
  3  7  1  0  0  0  0
  4  8  1  0  0  0  0
  5  9  1  0  0  0  0
  5  4  2  0  0  0  0
  6  5  1  0  0  0  0
 10 16  1  0  0  0  0
 11  2  1  0  0  0  0
 11 10  2  0  0  0  0
 12 11  1  0  0  0  0
 13 12  2  0  0  0  0
 13 14  1  0  0  0  0
 14 15  2  0  0  0  0
 15 10  1  0  0  0  0
 17 14  1  0  0  0  0
 18 12  1  0  0  0  0
 18 20  1  0  0  0  0
 19 18  1  0  0  0  0
 21 18  1  0  0  0  0
 22 23  1  0  0  0  0
 22  1  1  0  0  0  0
 24 26  1  0  0  0  0
 24  6  1  0  0  0  0
 25 33  1  0  0  0  0
 25 34  1  0  0  0  0
 26 25  2  0  0  0  0
 27 28  2  0  0  0  0
 27 26  1  0  0  0  0
 28 32  1  0  0  0  0
 29 28  1  0  0  0  0
 29 30  1  0  0  0  0
 30 31  2  0  0  0  0
 32 31  1  0  0  0  0
 32 33  2  0  0  0  0
 33 38  1  0  0  0  0
 35 27  1  0  0  0  0
 36 29  1  0  0  0  0
 37 30  1  0  0  0  0
 38 45  2  0  0  0  0
 38 39  1  0  0  0  0
 39 41  2  0  0  0  0
 40 39  1  0  0  0  0
 41 43  1  0  0  0  0
 41 42  1  0  0  0  0
 44 43  2  0  0  0  0
 45 44  1  0  0  0  0
M  END
>  <minimizedAffinity>
-6.54185772

$$$$

 OpenBabel03272509233D

 45 49  0  0  0  0  0  0  0  0999 V2000
   35.9390   29.1000   33.6030 C   0  0  0  0  0  0  0  0  0  0  0  0
   34.8400   29.9400   33.6290 C   0  0  0  0  0  0  0  0  0  0  0  0
   34.4600   30.4290   32.3690 C   0  0  0  0  0  0  0  0  0  0  0  0
   35.1490   30.0830   31.2050 C   0  0  0  0  0  0  0  0  0  0  0  0
   36.2610   29.2160   31.2830 C   0  0  0  0  0  0  0  0  0  0  0  0
   36.6470   28.7240   32.5300 C   0  0  0  0  0  0  0  0  0  0  0  0
   33.6160   31.0920   32.2800 H   0  0  0  0  0  0  0  0  0  0  0  0
   34.8400   30.4700   30.2460 H   0  0  0  0  0  0  0  0  0  0  0  0
   36.7790   28.9620   30.3670 H   0  0  0  0  0  0  0  0  0  0  0  0
   32.9720   29.6310   35.1620 C   0  0  0  0  0  0  0  0  0  0  0  0
   34.1370   30.2950   34.8140 C   0  0  0  0  0  0  0  0  0  0  0  0
   34.5840   31.3190   35.6720 C   0  0  0  0  0  0  0  0  0  0  0  0
   33.8620   31.6000   36.7800 N   0  0  0  0  0  0  0  0  0  0  0  0
   32.7230   30.9180   37.0790 C   0  0  0  0  0  0  0  0  0  0  0  0
   32.2800   29.9400   36.2750 N   0  0  0  0  0  0  0  0  0  0  0  0
   32.6030   28.8470   34.5310 H   0  0  0  0  0  0  0  0  0  0  0  0
   32.2450   31.2460   37.9950 H   0  0  0  0  0  0  0  0  0  0  0  0
   35.8250   32.0650   35.3500 C   0  0  0  0  0  0  0  0  0  0  0  0
   35.8470   32.9810   35.9740 H   0  0  0  0  0  0  0  0  0  0  0  0
   35.9180   32.2720   34.2620 H   0  0  0  0  0  0  0  0  0  0  0  0
   36.6720   31.4220   35.6760 H   0  0  0  0  0  0  0  0  0  0  0  0
   36.3990   28.5570   34.8090 O   0  0  0  0  0  0  0  0  0  0  0  0
   36.0380   27.7240   35.2270 H   0  0  0  0  0  0  0  0  0  0  0  0
   37.7460   27.8800   32.5320 O   0  0  0  0  0  0  0  0  0  0  0  0
   38.3340   25.9490   33.9600 C   0  0  0  0  0  0  0  0  0  0  0  0
   37.7480   26.5650   32.8820 C   0  0  0  0  0  0  0  0  0  0  0  0
   37.0430   25.7780   31.9780 C   0  0  0  0  0  0  0  0  0  0  0  0
   36.9270   24.3880   32.1610 C   0  0  0  0  0  0  0  0  0  0  0  0
   36.3380   23.3820   31.4980 N   0  0  0  0  0  0  0  0  0  0  0  0
   36.5410   22.2180   32.1210 C   0  0  0  0  0  0  0  0  0  0  0  0
   37.2830   22.5000   33.2130 N   0  0  0  0  0  0  0  0  0  0  0  0
   37.5380   23.8300   33.2660 C   0  0  0  0  0  0  0  0  0  0  0  0
   38.2360   24.5930   34.1630 C   0  0  0  0  0  0  0  0  0  0  0  0
   38.8620   26.5990   34.6210 H   0  0  0  0  0  0  0  0  0  0  0  0
   36.5330   26.1270   31.0870 H   0  0  0  0  0  0  0  0  0  0  0  0
   35.7950   23.5020   30.6140 H   0  0  0  0  0  0  0  0  0  0  0  0
   36.1820   21.2360   31.8160 H   0  0  0  0  0  0  0  0  0  0  0  0
   38.8560   23.9410   35.3070 C   0  0  0  0  0  0  0  0  0  0  0  0
   38.3140   23.9030   36.5680 C   0  0  0  0  0  0  0  0  0  0  0  0
   37.3640   24.3830   36.7520 H   0  0  0  0  0  0  0  0  0  0  0  0
   38.8950   23.2880   37.6570 C   0  0  0  0  0  0  0  0  0  0  0  0
   38.4380   23.2780   38.6400 H   0  0  0  0  0  0  0  0  0  0  0  0
   40.1090   22.6550   37.4980 C   0  0  0  0  0  3  0  0  0  0  0  0
   40.6450   22.6990   36.2290 C   0  0  0  0  0  3  0  0  0  0  0  0
   40.0420   23.3120   35.1960 N   0  0  0  0  0  0  0  0  0  0  0  0
  1  2  1  0  0  0  0
  1 22  1  0  0  0  0
  2 11  1  0  0  0  0
  3  2  2  0  0  0  0
  4  5  2  0  0  0  0
  4  3  1  0  0  0  0
  5  6  1  0  0  0  0
  6 24  1  0  0  0  0
  6  1  2  0  0  0  0
  7  3  1  0  0  0  0
  8  4  1  0  0  0  0
  9  5  1  0  0  0  0
 10 15  1  0  0  0  0
 11 10  2  0  0  0  0
 11 12  1  0  0  0  0
 12 13  2  0  0  0  0
 13 14  1  0  0  0  0
 14 17  1  0  0  0  0
 15 14  2  0  0  0  0
 16 10  1  0  0  0  0
 18 12  1  0  0  0  0
 18 21  1  0  0  0  0
 18 19  1  0  0  0  0
 20 18  1  0  0  0  0
 22 23  1  0  0  0  0
 24 26  1  0  0  0  0
 25 33  1  0  0  0  0
 25 34  1  0  0  0  0
 26 25  2  0  0  0  0
 27 28  2  0  0  0  0
 27 26  1  0  0  0  0
 28 32  1  0  0  0  0
 29 30  1  0  0  0  0
 29 28  1  0  0  0  0
 30 31  2  0  0  0  0
 31 32  1  0  0  0  0
 32 33  2  0  0  0  0
 33 38  1  0  0  0  0
 35 27  1  0  0  0  0
 36 29  1  0  0  0  0
 37 30  1  0  0  0  0
 38 39  1  0  0  0  0
 39 40  1  0  0  0  0
 39 41  2  0  0  0  0
 41 42  1  0  0  0  0
 43 41  1  0  0  0  0
 44 43  2  0  0  0  0
 45 38  2  0  0  0  0
 45 44  1  0  0  0  0
M  END
>  <minimizedAffinity>
-6.54065657

$$$$

 OpenBabel03272509233D

 45 49  0  0  0  0  0  0  0  0999 V2000
   38.3400   26.0840   34.1020 C   0  0  0  0  0  0  0  0  0  0  0  0
   39.3080   25.6050   34.9670 C   0  0  0  0  0  0  0  0  0  0  0  0
   40.6050   26.0620   34.6900 C   0  0  0  0  0  0  0  0  0  0  0  0
   40.8710   26.9250   33.6240 C   0  0  0  0  0  0  0  0  0  0  0  0
   39.8130   27.3590   32.7960 C   0  0  0  0  0  0  0  0  0  0  0  0
   38.5190   26.9120   33.0640 C   0  0  0  0  0  0  0  0  0  0  0  0
   41.4310   25.7470   35.3040 H   0  0  0  0  0  0  0  0  0  0  0  0
   41.8760   27.2650   33.4290 H   0  0  0  0  0  0  0  0  0  0  0  0
   40.0440   28.0290   31.9770 H   0  0  0  0  0  0  0  0  0  0  0  0
   38.3440   25.1750   37.1640 C   0  0  0  0  0  0  0  0  0  0  0  0
   39.0390   24.7250   36.0530 C   0  0  0  0  0  0  0  0  0  0  0  0
   39.4600   23.3800   36.0480 C   0  0  0  0  0  0  0  0  0  0  0  0
   39.1690   22.6040   37.1170 N   0  0  0  0  0  0  0  0  0  0  0  0
   38.4810   23.0930   38.1850 C   0  0  0  0  0  0  0  0  0  0  0  0
   38.0720   24.3710   38.2080 N   0  0  0  0  0  0  0  0  0  0  0  0
   38.0090   26.1920   37.2000 H   0  0  0  0  0  0  0  0  0  0  0  0
   38.3170   22.3640   38.9690 H   0  0  0  0  0  0  0  0  0  0  0  0
   40.2090   22.8430   34.8860 C   0  0  0  0  0  0  0  0  0  0  0  0
   40.6760   21.8850   35.1910 H   0  0  0  0  0  0  0  0  0  0  0  0
   40.9380   23.5790   34.4820 H   0  0  0  0  0  0  0  0  0  0  0  0
   39.4520   22.6090   34.1060 H   0  0  0  0  0  0  0  0  0  0  0  0
   37.0110   25.6890   34.2930 O   0  0  0  0  0  0  0  0  0  0  0  0
   36.3720   26.1380   34.9180 H   0  0  0  0  0  0  0  0  0  0  0  0
   37.5310   27.3770   32.2120 O   0  0  0  0  0  0  0  0  0  0  0  0
   36.2190   29.0070   33.5290 C   0  0  0  0  0  0  0  0  0  0  0  0
   36.7840   28.5010   32.3850 C   0  0  0  0  0  0  0  0  0  0  0  0
   36.5960   29.1970   31.1950 C   0  0  0  0  0  0  0  0  0  0  0  0
   35.8500   30.3890   31.1620 C   0  0  0  0  0  0  0  0  0  0  0  0
   35.4960   31.2690   30.2130 N   0  0  0  0  0  0  0  0  0  0  0  0
   34.7610   32.2560   30.7310 C   0  0  0  0  0  0  0  0  0  0  0  0
   34.6480   31.9900   32.0500 N   0  0  0  0  0  0  0  0  0  0  0  0
   35.3090   30.8450   32.3470 C   0  0  0  0  0  0  0  0  0  0  0  0
   35.4860   30.1690   33.5240 C   0  0  0  0  0  0  0  0  0  0  0  0
   36.3940   28.4330   34.4120 H   0  0  0  0  0  0  0  0  0  0  0  0
   36.9820   28.9160   30.2220 H   0  0  0  0  0  0  0  0  0  0  0  0
   35.7630   31.1850   29.2070 H   0  0  0  0  0  0  0  0  0  0  0  0
   34.3350   33.1080   30.2020 H   0  0  0  0  0  0  0  0  0  0  0  0
   34.8870   30.7050   34.7380 C   0  0  0  0  0  0  0  0  0  0  0  0
   35.5440   31.5080   35.6390 C   0  0  0  0  0  0  0  0  0  0  0  0
   36.5750   31.7740   35.4590 H   0  0  0  0  0  0  0  0  0  0  0  0
   34.9840   32.0190   36.7920 C   0  0  0  0  0  0  0  0  0  0  0  0
   35.5330   32.6500   37.4810 H   0  0  0  0  0  0  0  0  0  0  0  0
   33.6720   31.7210   37.0870 C   0  0  0  0  0  3  0  0  0  0  0  0
   33.0220   30.9150   36.1760 C   0  0  0  0  0  3  0  0  0  0  0  0
   33.6090   30.4380   35.0650 N   0  0  0  0  0  0  0  0  0  0  0  0
  1 22  1  0  0  0  0
  1  2  1  0  0  0  0
  2 11  1  0  0  0  0
  3  2  2  0  0  0  0
  3  7  1  0  0  0  0
  4  3  1  0  0  0  0
  5  6  1  0  0  0  0
  5  4  2  0  0  0  0
  6  1  2  0  0  0  0
  8  4  1  0  0  0  0
  9  5  1  0  0  0  0
 10 16  1  0  0  0  0
 10 15  1  0  0  0  0
 11 10  2  0  0  0  0
 12 11  1  0  0  0  0
 12 13  2  0  0  0  0
 13 14  1  0  0  0  0
 14 15  2  0  0  0  0
 14 17  1  0  0  0  0
 18 19  1  0  0  0  0
 18 12  1  0  0  0  0
 20 18  1  0  0  0  0
 21 18  1  0  0  0  0
 22 23  1  0  0  0  0
 24 26  1  0  0  0  0
 24  6  1  0  0  0  0
 25 34  1  0  0  0  0
 26 25  2  0  0  0  0
 27 26  1  0  0  0  0
 28 27  2  0  0  0  0
 28 32  1  0  0  0  0
 29 30  1  0  0  0  0
 29 28  1  0  0  0  0
 30 31  2  0  0  0  0
 31 32  1  0  0  0  0
 32 33  2  0  0  0  0
 33 25  1  0  0  0  0
 33 38  1  0  0  0  0
 35 27  1  0  0  0  0
 36 29  1  0  0  0  0
 37 30  1  0  0  0  0
 38 45  2  0  0  0  0
 38 39  1  0  0  0  0
 39 41  2  0  0  0  0
 40 39  1  0  0  0  0
 41 43  1  0  0  0  0
 41 42  1  0  0  0  0
 44 43  2  0  0  0  0
 45 44  1  0  0  0  0
M  END
>  <minimizedAffinity>
-6.50851822

$$$$

 OpenBabel03272509233D

 45 49  0  0  0  0  0  0  0  0999 V2000
   38.0800   25.9140   33.9930 C   0  0  0  0  0  0  0  0  0  0  0  0
   38.1050   24.5580   34.2660 C   0  0  0  0  0  0  0  0  0  0  0  0
   37.5050   23.7600   33.2790 C   0  0  0  0  0  0  0  0  0  0  0  0
   36.9360   24.3130   32.1290 C   0  0  0  0  0  0  0  0  0  0  0  0
   36.9610   25.7130   31.9420 C   0  0  0  0  0  0  0  0  0  0  0  0
   37.5560   26.5140   32.9160 C   0  0  0  0  0  0  0  0  0  0  0  0
   37.4720   22.6910   33.3960 H   0  0  0  0  0  0  0  0  0  0  0  0
   36.4800   23.6820   31.3830 H   0  0  0  0  0  0  0  0  0  0  0  0
   36.5150   26.1180   31.0420 H   0  0  0  0  0  0  0  0  0  0  0  0
   37.9160   23.8050   36.5760 C   0  0  0  0  0  0  0  0  0  0  0  0
   38.6830   23.9920   35.4370 C   0  0  0  0  0  0  0  0  0  0  0  0
   40.0360   23.6040   35.4930 C   0  0  0  0  0  0  0  0  0  0  0  0
   40.5140   23.0740   36.6420 N   0  0  0  0  0  0  0  0  0  0  0  0
   39.7190   22.9090   37.7340 C   0  0  0  0  0  0  0  0  0  0  0  0
   38.4280   23.2730   37.7010 N   0  0  0  0  0  0  0  0  0  0  0  0
   36.8830   24.0900   36.5680 H   0  0  0  0  0  0  0  0  0  0  0  0
   40.2300   22.4740   38.5840 H   0  0  0  0  0  0  0  0  0  0  0  0
   40.9060   23.7800   34.3040 C   0  0  0  0  0  0  0  0  0  0  0  0
   41.9600   23.6820   34.6320 H   0  0  0  0  0  0  0  0  0  0  0  0
   40.6990   24.7350   33.7730 H   0  0  0  0  0  0  0  0  0  0  0  0
   40.6890   22.9270   33.6250 H   0  0  0  0  0  0  0  0  0  0  0  0
   38.6540   26.7970   34.9150 O   0  0  0  0  0  0  0  0  0  0  0  0
   39.6250   27.0350   34.9390 H   0  0  0  0  0  0  0  0  0  0  0  0
   37.5440   27.8770   32.6670 O   0  0  0  0  0  0  0  0  0  0  0  0
   35.6720   28.9440   33.8790 C   0  0  0  0  0  0  0  0  0  0  0  0
   36.4730   28.7070   32.7890 C   0  0  0  0  0  0  0  0  0  0  0  0
   36.1960   29.3860   31.6080 C   0  0  0  0  0  0  0  0  0  0  0  0
   35.1240   30.2950   31.5290 C   0  0  0  0  0  0  0  0  0  0  0  0
   34.6090   31.0830   30.5730 N   0  0  0  0  0  0  0  0  0  0  0  0
   33.5580   31.7660   31.0360 C   0  0  0  0  0  0  0  0  0  0  0  0
   33.4060   31.3950   32.3260 N   0  0  0  0  0  0  0  0  0  0  0  0
   34.3570   30.4890   32.6590 C   0  0  0  0  0  0  0  0  0  0  0  0
   34.6190   29.8260   33.8280 C   0  0  0  0  0  0  0  0  0  0  0  0
   35.9300   28.3960   34.7580 H   0  0  0  0  0  0  0  0  0  0  0  0
   36.7410   29.2990   30.6760 H   0  0  0  0  0  0  0  0  0  0  0  0
   34.9840   31.1480   29.6010 H   0  0  0  0  0  0  0  0  0  0  0  0
   32.9430   32.4790   30.4890 H   0  0  0  0  0  0  0  0  0  0  0  0
   33.7700   30.0760   34.9830 C   0  0  0  0  0  0  0  0  0  0  0  0
   33.9380   31.1220   35.8580 C   0  0  0  0  0  0  0  0  0  0  0  0
   34.7470   31.8200   35.7020 H   0  0  0  0  0  0  0  0  0  0  0  0
   33.1380   31.3660   36.9560 C   0  0  0  0  0  0  0  0  0  0  0  0
   33.3000   32.2020   37.6260 H   0  0  0  0  0  0  0  0  0  0  0  0
   32.0850   30.5160   37.2180 C   0  0  0  0  0  3  0  0  0  0  0  0
   31.9260   29.4710   36.3330 C   0  0  0  0  0  3  0  0  0  0  0  0
   32.7320   29.2710   35.2770 N   0  0  0  0  0  0  0  0  0  0  0  0
  1  2  1  0  0  0  0
  1 22  1  0  0  0  0
  2 11  1  0  0  0  0
  3  7  1  0  0  0  0
  3  2  2  0  0  0  0
  4  3  1  0  0  0  0
  5  4  2  0  0  0  0
  5  6  1  0  0  0  0
  6  1  2  0  0  0  0
  8  4  1  0  0  0  0
  9  5  1  0  0  0  0
 10 15  1  0  0  0  0
 11 12  1  0  0  0  0
 11 10  2  0  0  0  0
 12 13  2  0  0  0  0
 13 14  1  0  0  0  0
 14 17  1  0  0  0  0
 15 14  2  0  0  0  0
 16 10  1  0  0  0  0
 18 19  1  0  0  0  0
 18 12  1  0  0  0  0
 20 18  1  0  0  0  0
 21 18  1  0  0  0  0
 22 23  1  0  0  0  0
 24 26  1  0  0  0  0
 24  6  1  0  0  0  0
 25 34  1  0  0  0  0
 26 25  2  0  0  0  0
 27 26  1  0  0  0  0
 28 27  2  0  0  0  0
 28 32  1  0  0  0  0
 29 30  1  0  0  0  0
 29 28  1  0  0  0  0
 30 31  2  0  0  0  0
 31 32  1  0  0  0  0
 32 33  2  0  0  0  0
 33 25  1  0  0  0  0
 33 38  1  0  0  0  0
 35 27  1  0  0  0  0
 36 29  1  0  0  0  0
 37 30  1  0  0  0  0
 38 45  2  0  0  0  0
 38 39  1  0  0  0  0
 39 41  2  0  0  0  0
 40 39  1  0  0  0  0
 41 43  1  0  0  0  0
 41 42  1  0  0  0  0
 44 43  2  0  0  0  0
 45 44  1  0  0  0  0
M  END
>  <minimizedAffinity>
-6.50579596

$$$$

 OpenBabel03272509233D

 45 49  0  0  0  0  0  0  0  0999 V2000
   37.5970   25.0110   31.7590 C   0  0  0  0  0  0  0  0  0  0  0  0
   37.1350   23.7500   31.4240 C   0  0  0  0  0  0  0  0  0  0  0  0
   35.7820   23.7130   31.0520 C   0  0  0  0  0  0  0  0  0  0  0  0
   34.9910   24.8640   31.0310 C   0  0  0  0  0  0  0  0  0  0  0  0
   35.5570   26.1070   31.3900 C   0  0  0  0  0  0  0  0  0  0  0  0
   36.9010   26.1550   31.7610 C   0  0  0  0  0  0  0  0  0  0  0  0
   35.3250   22.7790   30.7740 H   0  0  0  0  0  0  0  0  0  0  0  0
   33.9530   24.8130   30.7420 H   0  0  0  0  0  0  0  0  0  0  0  0
   34.9240   26.9850   31.3650 H   0  0  0  0  0  0  0  0  0  0  0  0
   38.5950   22.1550   30.3010 C   0  0  0  0  0  0  0  0  0  0  0  0
   37.9390   22.5760   31.4470 C   0  0  0  0  0  0  0  0  0  0  0  0
   38.1020   21.8020   32.6120 C   0  0  0  0  0  0  0  0  0  0  0  0
   38.8810   20.6980   32.5560 N   0  0  0  0  0  0  0  0  0  0  0  0
   39.5060   20.3260   31.4050 C   0  0  0  0  0  0  0  0  0  0  0  0
   39.3640   21.0500   30.2850 N   0  0  0  0  0  0  0  0  0  0  0  0
   38.4920   22.7210   29.3970 H   0  0  0  0  0  0  0  0  0  0  0  0
   40.0980   19.4240   31.5020 H   0  0  0  0  0  0  0  0  0  0  0  0
   37.4230   22.2030   33.8690 C   0  0  0  0  0  0  0  0  0  0  0  0
   37.4480   21.3410   34.5640 H   0  0  0  0  0  0  0  0  0  0  0  0
   36.3970   22.5890   33.6840 H   0  0  0  0  0  0  0  0  0  0  0  0
   38.0440   23.0100   34.3170 H   0  0  0  0  0  0  0  0  0  0  0  0
   38.9350   25.1570   32.1440 O   0  0  0  0  0  0  0  0  0  0  0  0
   39.6960   25.2790   31.5070 H   0  0  0  0  0  0  0  0  0  0  0  0
   37.3880   27.4060   32.1010 O   0  0  0  0  0  0  0  0  0  0  0  0
   36.0920   29.0040   33.4710 C   0  0  0  0  0  0  0  0  0  0  0  0
   36.6470   28.5290   32.3100 C   0  0  0  0  0  0  0  0  0  0  0  0
   36.4560   29.2580   31.1420 C   0  0  0  0  0  0  0  0  0  0  0  0
   35.7150   30.4540   31.1470 C   0  0  0  0  0  0  0  0  0  0  0  0
   35.3600   31.3620   30.2260 N   0  0  0  0  0  0  0  0  0  0  0  0
   34.6320   32.3380   30.7760 C   0  0  0  0  0  0  0  0  0  0  0  0
   34.5260   32.0350   32.0870 N   0  0  0  0  0  0  0  0  0  0  0  0
   35.1830   30.8790   32.3470 C   0  0  0  0  0  0  0  0  0  0  0  0
   35.3640   30.1690   33.5040 C   0  0  0  0  0  0  0  0  0  0  0  0
   36.2690   28.4050   34.3370 H   0  0  0  0  0  0  0  0  0  0  0  0
   36.8350   29.0040   30.1590 H   0  0  0  0  0  0  0  0  0  0  0  0
   35.6210   31.3060   29.2160 H   0  0  0  0  0  0  0  0  0  0  0  0
   34.2080   33.2060   30.2740 H   0  0  0  0  0  0  0  0  0  0  0  0
   34.7750   30.6730   34.7360 C   0  0  0  0  0  0  0  0  0  0  0  0
   35.4250   31.4870   35.6320 C   0  0  0  0  0  0  0  0  0  0  0  0
   36.4430   31.7870   35.4340 H   0  0  0  0  0  0  0  0  0  0  0  0
   34.8750   31.9680   36.8020 C   0  0  0  0  0  0  0  0  0  0  0  0
   35.4180   32.6090   37.4870 H   0  0  0  0  0  0  0  0  0  0  0  0
   33.5790   31.6250   37.1210 C   0  0  0  0  0  3  0  0  0  0  0  0
   32.9350   30.8090   36.2150 C   0  0  0  0  0  3  0  0  0  0  0  0
   33.5130   30.3620   35.0870 N   0  0  0  0  0  0  0  0  0  0  0  0
  1  6  1  0  0  0  0
  1 22  1  0  0  0  0
  2 11  1  0  0  0  0
  2  1  2  0  0  0  0
  3  2  1  0  0  0  0
  4  3  2  0  0  0  0
  4  5  1  0  0  0  0
  5  6  2  0  0  0  0
  6 24  1  0  0  0  0
  7  3  1  0  0  0  0
  8  4  1  0  0  0  0
  9  5  1  0  0  0  0
 10 11  1  0  0  0  0
 11 12  2  0  0  0  0
 12 18  1  0  0  0  0
 13 12  1  0  0  0  0
 14 17  1  0  0  0  0
 14 13  2  0  0  0  0
 15 10  2  0  0  0  0
 15 14  1  0  0  0  0
 16 10  1  0  0  0  0
 18 21  1  0  0  0  0
 18 19  1  0  0  0  0
 20 18  1  0  0  0  0
 23 22  1  0  0  0  0
 24 26  1  0  0  0  0
 25 33  1  0  0  0  0
 25 34  1  0  0  0  0
 26 25  2  0  0  0  0
 27 28  2  0  0  0  0
 27 26  1  0  0  0  0
 28 32  1  0  0  0  0
 29 30  1  0  0  0  0
 29 28  1  0  0  0  0
 30 31  2  0  0  0  0
 31 32  1  0  0  0  0
 32 33  2  0  0  0  0
 33 38  1  0  0  0  0
 35 27  1  0  0  0  0
 36 29  1  0  0  0  0
 37 30  1  0  0  0  0
 38 45  2  0  0  0  0
 38 39  1  0  0  0  0
 39 41  2  0  0  0  0
 40 39  1  0  0  0  0
 41 43  1  0  0  0  0
 41 42  1  0  0  0  0
 44 43  2  0  0  0  0
 45 44  1  0  0  0  0
M  END
>  <minimizedAffinity>
-6.29197073

$$$$

 OpenBabel03272509233D

 45 49  0  0  0  0  0  0  0  0999 V2000
   33.1170   31.6660   35.1650 C   0  0  0  0  0  0  0  0  0  0  0  0
   32.6490   31.9240   36.4410 C   0  0  0  0  0  0  0  0  0  0  0  0
   32.0490   30.8220   37.0690 C   0  0  0  0  0  0  0  0  0  0  0  0
   31.9430   29.5800   36.4370 C   0  0  0  0  0  0  0  0  0  0  0  0
   32.4520   29.4170   35.1300 C   0  0  0  0  0  0  0  0  0  0  0  0
   33.0520   30.5060   34.4980 C   0  0  0  0  0  0  0  0  0  0  0  0
   31.6530   30.9180   38.0650 H   0  0  0  0  0  0  0  0  0  0  0  0
   31.4780   28.7460   36.9380 H   0  0  0  0  0  0  0  0  0  0  0  0
   32.3600   28.4450   34.6620 H   0  0  0  0  0  0  0  0  0  0  0  0
   33.9310   33.5540   37.7210 C   0  0  0  0  0  0  0  0  0  0  0  0
   32.7550   33.1880   37.0870 C   0  0  0  0  0  0  0  0  0  0  0  0
   31.6890   34.1090   37.1100 C   0  0  0  0  0  0  0  0  0  0  0  0
   31.8630   35.2910   37.7440 N   0  0  0  0  0  0  0  0  0  0  0  0
   33.0400   35.6040   38.3520 C   0  0  0  0  0  0  0  0  0  0  0  0
   34.0670   34.7410   38.3420 N   0  0  0  0  0  0  0  0  0  0  0  0
   34.7620   32.8780   37.7230 H   0  0  0  0  0  0  0  0  0  0  0  0
   33.0420   36.5810   38.8210 H   0  0  0  0  0  0  0  0  0  0  0  0
   30.4050   33.7710   36.4470 C   0  0  0  0  0  0  0  0  0  0  0  0
   29.6340   34.4800   36.8100 H   0  0  0  0  0  0  0  0  0  0  0  0
   30.1260   32.7050   36.5950 H   0  0  0  0  0  0  0  0  0  0  0  0
   30.5500   33.9670   35.3620 H   0  0  0  0  0  0  0  0  0  0  0  0
   33.7330   32.7000   34.4520 O   0  0  0  0  0  0  0  0  0  0  0  0
   34.7010   32.9400   34.5280 H   0  0  0  0  0  0  0  0  0  0  0  0
   33.5280   30.2740   33.2170 O   0  0  0  0  0  0  0  0  0  0  0  0
   35.4270   28.7500   33.6460 C   0  0  0  0  0  0  0  0  0  0  0  0
   34.6750   29.6170   32.8930 C   0  0  0  0  0  0  0  0  0  0  0  0
   35.0990   29.9050   31.6010 C   0  0  0  0  0  0  0  0  0  0  0  0
   36.2670   29.3240   31.0740 C   0  0  0  0  0  0  0  0  0  0  0  0
   36.9260   29.3910   29.9080 N   0  0  0  0  0  0  0  0  0  0  0  0
   38.0150   28.6180   29.9310 C   0  0  0  0  0  0  0  0  0  0  0  0
   38.0430   28.0450   31.1540 N   0  0  0  0  0  0  0  0  0  0  0  0
   36.9790   28.4610   31.8820 C   0  0  0  0  0  0  0  0  0  0  0  0
   36.5720   28.1690   33.1560 C   0  0  0  0  0  0  0  0  0  0  0  0
   35.0560   28.5650   34.6290 H   0  0  0  0  0  0  0  0  0  0  0  0
   34.6070   30.5670   30.8980 H   0  0  0  0  0  0  0  0  0  0  0  0
   36.6210   29.9730   29.0960 H   0  0  0  0  0  0  0  0  0  0  0  0
   38.7380   28.4740   29.1300 H   0  0  0  0  0  0  0  0  0  0  0  0
   37.3700   27.2500   33.9550 C   0  0  0  0  0  0  0  0  0  0  0  0
   38.1890   27.6300   34.9900 C   0  0  0  0  0  0  0  0  0  0  0  0
   38.2660   28.6760   35.2490 H   0  0  0  0  0  0  0  0  0  0  0  0
   38.9470   26.7660   35.7520 C   0  0  0  0  0  0  0  0  0  0  0  0
   39.5840   27.1020   36.5630 H   0  0  0  0  0  0  0  0  0  0  0  0
   38.8990   25.4170   35.4790 C   0  0  0  0  0  3  0  0  0  0  0  0
   38.0740   25.0450   34.4390 C   0  0  0  0  0  3  0  0  0  0  0  0
   37.3530   25.9240   33.7220 N   0  0  0  0  0  0  0  0  0  0  0  0
  1  2  1  0  0  0  0
  2  3  2  0  0  0  0
  2 11  1  0  0  0  0
  3  7  1  0  0  0  0
  4  8  1  0  0  0  0
  4  3  1  0  0  0  0
  5  4  2  0  0  0  0
  6  5  1  0  0  0  0
  6  1  2  0  0  0  0
  9  5  1  0  0  0  0
 10 16  1  0  0  0  0
 10 15  1  0  0  0  0
 11 12  1  0  0  0  0
 11 10  2  0  0  0  0
 12 13  2  0  0  0  0
 13 14  1  0  0  0  0
 14 17  1  0  0  0  0
 15 14  2  0  0  0  0
 18 20  1  0  0  0  0
 18 19  1  0  0  0  0
 18 12  1  0  0  0  0
 21 18  1  0  0  0  0
 22 23  1  0  0  0  0
 22  1  1  0  0  0  0
 24  6  1  0  0  0  0
 25 34  1  0  0  0  0
 26 24  1  0  0  0  0
 26 25  2  0  0  0  0
 27 26  1  0  0  0  0
 28 27  2  0  0  0  0
 28 32  1  0  0  0  0
 29 30  1  0  0  0  0
 29 28  1  0  0  0  0
 30 31  2  0  0  0  0
 31 32  1  0  0  0  0
 32 33  2  0  0  0  0
 33 25  1  0  0  0  0
 33 38  1  0  0  0  0
 35 27  1  0  0  0  0
 36 29  1  0  0  0  0
 37 30  1  0  0  0  0
 38 39  1  0  0  0  0
 39 40  1  0  0  0  0
 39 41  2  0  0  0  0
 41 42  1  0  0  0  0
 43 41  1  0  0  0  0
 44 43  2  0  0  0  0
 45 38  2  0  0  0  0
 45 44  1  0  0  0  0
M  END
>  <minimizedAffinity>
-6.26921749

$$$$

 OpenBabel03272509233D

 45 49  0  0  0  0  0  0  0  0999 V2000
   38.0050   26.0630   32.7890 C   0  0  0  0  0  0  0  0  0  0  0  0
   38.8960   25.3560   33.5760 C   0  0  0  0  0  0  0  0  0  0  0  0
   40.2300   25.7770   33.4570 C   0  0  0  0  0  0  0  0  0  0  0  0
   40.6000   26.8220   32.6060 C   0  0  0  0  0  0  0  0  0  0  0  0
   39.6130   27.4820   31.8410 C   0  0  0  0  0  0  0  0  0  0  0  0
   38.2850   27.0720   31.9540 C   0  0  0  0  0  0  0  0  0  0  0  0
   41.0020   25.2920   34.0280 H   0  0  0  0  0  0  0  0  0  0  0  0
   41.6310   27.1300   32.5290 H   0  0  0  0  0  0  0  0  0  0  0  0
   39.9250   28.2890   31.1900 H   0  0  0  0  0  0  0  0  0  0  0  0
   38.5090   22.9850   33.9810 C   0  0  0  0  0  0  0  0  0  0  0  0
   38.5220   24.2910   34.4430 C   0  0  0  0  0  0  0  0  0  0  0  0
   38.1540   24.5110   35.7850 C   0  0  0  0  0  0  0  0  0  0  0  0
   37.8100   23.4480   36.5470 N   0  0  0  0  0  0  0  0  0  0  0  0
   37.8140   22.1830   36.0470 C   0  0  0  0  0  0  0  0  0  0  0  0
   38.1610   21.9520   34.7720 N   0  0  0  0  0  0  0  0  0  0  0  0
   38.7830   22.7820   32.9650 H   0  0  0  0  0  0  0  0  0  0  0  0
   37.5170   21.4280   36.7660 H   0  0  0  0  0  0  0  0  0  0  0  0
   38.1490   25.8890   36.3350 C   0  0  0  0  0  0  0  0  0  0  0  0
   37.5790   25.8780   37.2850 H   0  0  0  0  0  0  0  0  0  0  0  0
   37.7650   26.6300   35.6010 H   0  0  0  0  0  0  0  0  0  0  0  0
   39.2050   26.1320   36.5840 H   0  0  0  0  0  0  0  0  0  0  0  0
   36.6490   25.7210   32.8350 O   0  0  0  0  0  0  0  0  0  0  0  0
   36.0010   26.0720   33.5120 H   0  0  0  0  0  0  0  0  0  0  0  0
   37.3720   27.7630   31.1740 O   0  0  0  0  0  0  0  0  0  0  0  0
   36.2230   29.2780   32.7550 C   0  0  0  0  0  0  0  0  0  0  0  0
   36.7080   28.8970   31.5290 C   0  0  0  0  0  0  0  0  0  0  0  0
   36.5210   29.7560   30.4510 C   0  0  0  0  0  0  0  0  0  0  0  0
   35.8540   30.9850   30.6110 C   0  0  0  0  0  0  0  0  0  0  0  0
   35.5220   32.0030   29.8030 N   0  0  0  0  0  0  0  0  0  0  0  0
   34.8750   32.9550   30.4810 C   0  0  0  0  0  0  0  0  0  0  0  0
   34.7960   32.5220   31.7580 N   0  0  0  0  0  0  0  0  0  0  0  0
   35.3910   31.3100   31.8690 C   0  0  0  0  0  0  0  0  0  0  0  0
   35.5690   30.4730   32.9380 C   0  0  0  0  0  0  0  0  0  0  0  0
   36.3940   28.5810   33.5460 H   0  0  0  0  0  0  0  0  0  0  0  0
   36.8480   29.5860   29.4320 H   0  0  0  0  0  0  0  0  0  0  0  0
   35.7430   32.0390   28.7840 H   0  0  0  0  0  0  0  0  0  0  0  0
   34.4860   33.8940   30.0900 H   0  0  0  0  0  0  0  0  0  0  0  0
   35.0550   30.8750   34.2390 C   0  0  0  0  0  0  0  0  0  0  0  0
   35.7810   31.5600   35.1830 C   0  0  0  0  0  0  0  0  0  0  0  0
   36.8060   31.8280   34.9720 H   0  0  0  0  0  0  0  0  0  0  0  0
   35.3020   31.9450   36.4180 C   0  0  0  0  0  0  0  0  0  0  0  0
   35.9050   32.4850   37.1400 H   0  0  0  0  0  0  0  0  0  0  0  0
   34.0030   31.6360   36.7570 C   0  0  0  0  0  3  0  0  0  0  0  0
   33.2830   30.9500   35.8020 C   0  0  0  0  0  3  0  0  0  0  0  0
   33.7920   30.5930   34.6110 N   0  0  0  0  0  0  0  0  0  0  0  0
  1 22  1  0  0  0  0
  1  2  1  0  0  0  0
  2 11  1  0  0  0  0
  3  2  2  0  0  0  0
  3  7  1  0  0  0  0
  4  3  1  0  0  0  0
  5  6  1  0  0  0  0
  5  4  2  0  0  0  0
  6  1  2  0  0  0  0
  8  4  1  0  0  0  0
  9  5  1  0  0  0  0
 10 11  2  0  0  0  0
 10 15  1  0  0  0  0
 11 12  1  0  0  0  0
 12 18  1  0  0  0  0
 12 13  2  0  0  0  0
 14 13  1  0  0  0  0
 14 17  1  0  0  0  0
 15 14  2  0  0  0  0
 16 10  1  0  0  0  0
 18 21  1  0  0  0  0
 18 19  1  0  0  0  0
 20 18  1  0  0  0  0
 22 23  1  0  0  0  0
 24 26  1  0  0  0  0
 24  6  1  0  0  0  0
 25 33  1  0  0  0  0
 25 34  1  0  0  0  0
 26 25  2  0  0  0  0
 27 28  2  0  0  0  0
 27 26  1  0  0  0  0
 28 32  1  0  0  0  0
 29 30  1  0  0  0  0
 29 28  1  0  0  0  0
 30 31  2  0  0  0  0
 31 32  1  0  0  0  0
 32 33  2  0  0  0  0
 33 38  1  0  0  0  0
 35 27  1  0  0  0  0
 36 29  1  0  0  0  0
 37 30  1  0  0  0  0
 38 45  2  0  0  0  0
 38 39  1  0  0  0  0
 39 41  2  0  0  0  0
 40 39  1  0  0  0  0
 41 43  1  0  0  0  0
 41 42  1  0  0  0  0
 44 43  2  0  0  0  0
 45 44  1  0  0  0  0
M  END
>  <minimizedAffinity>
-6.20126772

$$$$

 OpenBabel03272509233D

 45 49  0  0  0  0  0  0  0  0999 V2000
   37.2020   25.7620   32.0320 C   0  0  0  0  0  0  0  0  0  0  0  0
   37.4000   24.5110   32.5900 C   0  0  0  0  0  0  0  0  0  0  0  0
   37.9460   24.5370   33.8830 C   0  0  0  0  0  0  0  0  0  0  0  0
   38.2550   25.7370   34.5290 C   0  0  0  0  0  0  0  0  0  0  0  0
   38.0160   26.9650   33.8740 C   0  0  0  0  0  0  0  0  0  0  0  0
   37.4730   26.9490   32.5890 C   0  0  0  0  0  0  0  0  0  0  0  0
   38.1390   23.6170   34.4060 H   0  0  0  0  0  0  0  0  0  0  0  0
   38.6740   25.7340   35.5230 H   0  0  0  0  0  0  0  0  0  0  0  0
   38.2630   27.8810   34.3950 H   0  0  0  0  0  0  0  0  0  0  0  0
   35.8110   22.7530   32.0210 C   0  0  0  0  0  0  0  0  0  0  0  0
   37.0870   23.2880   31.9340 C   0  0  0  0  0  0  0  0  0  0  0  0
   38.0410   22.5770   31.1800 C   0  0  0  0  0  0  0  0  0  0  0  0
   37.6690   21.4200   30.5850 N   0  0  0  0  0  0  0  0  0  0  0  0
   36.4020   20.9370   30.7000 C   0  0  0  0  0  0  0  0  0  0  0  0
   35.4790   21.5990   31.4130 N   0  0  0  0  0  0  0  0  0  0  0  0
   35.0620   23.2680   32.5870 H   0  0  0  0  0  0  0  0  0  0  0  0
   36.2420   20.0030   30.1740 H   0  0  0  0  0  0  0  0  0  0  0  0
   39.4230   23.1000   31.0510 C   0  0  0  0  0  0  0  0  0  0  0  0
   40.0670   22.2820   30.6710 H   0  0  0  0  0  0  0  0  0  0  0  0
   39.7910   23.5440   32.0020 H   0  0  0  0  0  0  0  0  0  0  0  0
   39.3890   23.8880   30.2670 H   0  0  0  0  0  0  0  0  0  0  0  0
   36.6610   25.8450   30.7440 O   0  0  0  0  0  0  0  0  0  0  0  0
   35.6820   25.8340   30.5410 H   0  0  0  0  0  0  0  0  0  0  0  0
   37.2650   28.1890   32.0070 O   0  0  0  0  0  0  0  0  0  0  0  0
   35.6090   29.2830   33.4820 C   0  0  0  0  0  0  0  0  0  0  0  0
   36.2500   29.0510   32.2910 C   0  0  0  0  0  0  0  0  0  0  0  0
   35.8440   29.7720   31.1740 C   0  0  0  0  0  0  0  0  0  0  0  0
   34.8060   30.7180   31.2590 C   0  0  0  0  0  0  0  0  0  0  0  0
   34.1980   31.5490   30.4000 N   0  0  0  0  0  0  0  0  0  0  0  0
   33.2430   32.2530   31.0140 C   0  0  0  0  0  0  0  0  0  0  0  0
   33.2500   31.8510   32.3040 N   0  0  0  0  0  0  0  0  0  0  0  0
   34.2020   30.9050   32.4860 C   0  0  0  0  0  0  0  0  0  0  0  0
   34.5920   30.2010   33.5930 C   0  0  0  0  0  0  0  0  0  0  0  0
   35.9610   28.7020   34.3060 H   0  0  0  0  0  0  0  0  0  0  0  0
   36.2580   29.6930   30.1750 H   0  0  0  0  0  0  0  0  0  0  0  0
   34.4440   31.6290   29.3880 H   0  0  0  0  0  0  0  0  0  0  0  0
   32.5880   33.0010   30.5720 H   0  0  0  0  0  0  0  0  0  0  0  0
   33.9140   30.4460   34.8570 C   0  0  0  0  0  0  0  0  0  0  0  0
   34.2750   31.4180   35.7570 C   0  0  0  0  0  0  0  0  0  0  0  0
   35.1180   32.0570   35.5380 H   0  0  0  0  0  0  0  0  0  0  0  0
   33.6380   31.6570   36.9570 C   0  0  0  0  0  0  0  0  0  0  0  0
   33.9510   32.4350   37.6440 H   0  0  0  0  0  0  0  0  0  0  0  0
   32.5540   30.8800   37.3040 C   0  0  0  0  0  3  0  0  0  0  0  0
   32.1990   29.9080   36.3940 C   0  0  0  0  0  3  0  0  0  0  0  0
   32.8510   29.7100   35.2360 N   0  0  0  0  0  0  0  0  0  0  0  0
  1  6  2  0  0  0  0
  1  2  1  0  0  0  0
  2  3  2  0  0  0  0
  3  7  1  0  0  0  0
  3  4  1  0  0  0  0
  4  8  1  0  0  0  0
  5  9  1  0  0  0  0
  5  4  2  0  0  0  0
  6  5  1  0  0  0  0
 10 16  1  0  0  0  0
 11 10  1  0  0  0  0
 11  2  1  0  0  0  0
 12 11  2  0  0  0  0
 13 14  2  0  0  0  0
 13 12  1  0  0  0  0
 14 15  1  0  0  0  0
 15 10  2  0  0  0  0
 17 14  1  0  0  0  0
 18 12  1  0  0  0  0
 18 20  1  0  0  0  0
 19 18  1  0  0  0  0
 21 18  1  0  0  0  0
 22  1  1  0  0  0  0
 23 22  1  0  0  0  0
 24 26  1  0  0  0  0
 24  6  1  0  0  0  0
 25 33  1  0  0  0  0
 25 34  1  0  0  0  0
 26 25  2  0  0  0  0
 27 28  2  0  0  0  0
 27 26  1  0  0  0  0
 28 32  1  0  0  0  0
 29 30  1  0  0  0  0
 29 28  1  0  0  0  0
 30 31  2  0  0  0  0
 31 32  1  0  0  0  0
 32 33  2  0  0  0  0
 33 38  1  0  0  0  0
 35 27  1  0  0  0  0
 36 29  1  0  0  0  0
 37 30  1  0  0  0  0
 38 45  2  0  0  0  0
 38 39  1  0  0  0  0
 39 41  2  0  0  0  0
 40 39  1  0  0  0  0
 41 43  1  0  0  0  0
 41 42  1  0  0  0  0
 44 43  2  0  0  0  0
 45 44  1  0  0  0  0
M  END
>  <minimizedAffinity>
-6.17858362

$$$$
