
 OpenBabel03262522323D

 26 28  0  0  0  0  0  0  0  0999 V2000
   38.0070   31.9790   49.1140 C   0  0  0  0  0  0  0  0  0  0  0  0
   38.5400   33.1020   49.6860 C   0  0  0  0  0  0  0  0  0  0  0  0
   39.3700   33.9860   49.0260 C   0  0  0  0  0  0  0  0  0  0  0  0
   39.6970   33.7460   47.7120 C   0  0  0  0  0  0  0  0  0  0  0  0
   39.1560   32.6170   47.1520 C   0  0  0  0  0  0  0  0  0  0  0  0
   38.3460   31.7640   47.8130 N   0  0  0  0  0  0  0  0  0  0  0  0
   38.2810   33.2920   50.7210 H   0  0  0  0  0  0  0  0  0  0  0  0
   39.7470   34.8550   49.5640 H   0  0  0  0  0  0  0  0  0  0  0  0
   40.3460   34.4450   47.2140 H   0  0  0  0  0  0  0  0  0  0  0  0
   37.4900   30.3940   51.0060 C   0  0  0  0  0  0  0  0  0  0  0  0
   37.1310   31.0460   49.8100 C   0  0  0  0  0  0  0  0  0  0  0  0
   35.8830   30.7910   49.2680 C   0  0  0  0  0  0  0  0  0  0  0  0
   35.0530   29.9140   49.9180 N   0  0  0  0  0  0  0  0  0  0  0  0
   35.4270   29.3100   51.0550 C   0  0  0  0  0  0  0  0  0  0  0  0
   36.6230   29.5400   51.5970 N   0  0  0  0  0  0  0  0  0  0  0  0
   38.4740   30.6350   51.3770 H   0  0  0  0  0  0  0  0  0  0  0  0
   35.5570   31.2660   48.3500 H   0  0  0  0  0  0  0  0  0  0  0  0
   34.6860   28.6410   51.4750 H   0  0  0  0  0  0  0  0  0  0  0  0
   39.4740   32.3200   45.7610 C   0  0  0  0  0  0  0  0  0  0  0  0
   40.3210   31.2720   45.4150 C   0  0  0  0  0  0  0  0  0  0  0  0
   40.7510   30.6640   46.2200 H   0  0  0  0  0  0  0  0  0  0  0  0
   40.6730   30.9250   44.1260 C   0  0  0  0  0  0  0  0  0  0  0  0
   41.3350   30.0990   43.9590 H   0  0  0  0  0  0  0  0  0  0  0  0
   40.1330   31.6870   43.1270 C   0  0  0  0  0  0  0  0  0  0  0  0
   39.2920   32.7300   43.4510 C   0  0  0  0  0  0  0  0  0  0  0  0
   38.9810   33.0240   44.7400 N   0  0  0  0  0  0  0  0  0  0  0  0
  1  2  1  0  0  0  0
  1 11  1  0  0  0  0
  2  7  1  0  0  0  0
  3  8  1  0  0  0  0
  3  2  2  0  0  0  0
  4  3  1  0  0  0  0
  5  4  2  0  0  0  0
  5  6  1  0  0  0  0
  6  1  2  0  0  0  0
  9  4  1  0  0  0  0
 10 16  1  0  0  0  0
 10 15  1  0  0  0  0
 11 10  2  0  0  0  0
 12 11  1  0  0  0  0
 12 13  2  0  0  0  0
 13 14  1  0  0  0  0
 14 18  1  0  0  0  0
 14 15  2  0  0  0  0
 17 12  1  0  0  0  0
 19  5  1  0  0  0  0
 20 19  1  0  0  0  0
 20 21  1  0  0  0  0
 22 20  2  0  0  0  0
 23 22  1  0  0  0  0
 24 25  2  0  0  0  0
 24 22  1  0  0  0  0
 25 26  1  0  0  0  0
 26 19  2  0  0  0  0
M  END
>  <minimizedAffinity>
-6.31294727

>  <minimizedRMSD>
0.249590933

$$$$
