
 OpenBabel03272505013D

 27 29  0  0  0  0  0  0  0  0999 V2000
   37.8220   23.0200   33.6360 Cl  0  0  0  0  0  0  0  0  0  0  0  0
   36.8150   23.9240   32.5370 C   0  0  0  0  0  0  0  0  0  0  0  0
   36.0200   23.2370   31.6550 C   0  0  0  0  0  0  0  0  0  0  0  0
   35.2470   24.0130   30.8070 C   0  0  0  0  0  0  0  0  0  0  0  0
   35.2890   25.3970   30.8640 C   0  0  0  0  0  0  0  0  0  0  0  0
   36.0960   26.0420   31.7600 C   0  0  0  0  0  0  0  0  0  0  0  0
   36.8670   25.2820   32.6060 C   0  0  0  0  0  0  0  0  0  0  0  0
   34.6030   23.5360   30.0920 H   0  0  0  0  0  0  0  0  0  0  0  0
   34.6600   25.9440   30.1730 H   0  0  0  0  0  0  0  0  0  0  0  0
   36.0830   27.1200   31.7530 H   0  0  0  0  0  0  0  0  0  0  0  0
   34.9660   21.0500   32.2680 C   0  0  0  0  0  0  0  0  0  0  0  0
   35.9550   21.7810   31.5730 C   0  0  0  0  0  0  0  0  0  0  0  0
   36.8650   21.0600   30.8100 C   0  0  0  0  0  0  0  0  0  0  0  0
   36.7750   19.7110   30.7580 N   0  0  0  0  0  0  0  0  0  0  0  0
   35.8130   19.0460   31.4380 C   0  0  0  0  0  0  0  0  0  0  0  0
   34.9050   19.7100   32.1950 N   0  0  0  0  0  0  0  0  0  0  0  0
   34.2490   21.5940   32.8680 H   0  0  0  0  0  0  0  0  0  0  0  0
   37.6080   21.6460   30.2910 H   0  0  0  0  0  0  0  0  0  0  0  0
   35.8240   17.9690   31.3330 H   0  0  0  0  0  0  0  0  0  0  0  0
   37.7400   25.9320   33.5750 C   0  0  0  0  0  0  0  0  0  0  0  0
   37.3840   26.3490   34.8250 C   0  0  0  0  0  0  0  0  0  0  0  0
   36.3740   26.1940   35.1490 H   0  0  0  0  0  0  0  0  0  0  0  0
   38.2250   26.9570   35.7160 C   0  0  0  0  0  0  0  0  0  0  0  0
   37.9010   27.2720   36.7010 H   0  0  0  0  0  0  0  0  0  0  0  0
   39.5300   27.1860   35.3730 C   0  0  0  0  0  3  0  0  0  0  0  0
   39.9030   26.7710   34.1130 C   0  0  0  0  0  3  0  0  0  0  0  0
   39.0460   26.1760   33.2660 N   0  0  0  0  0  0  0  0  0  0  0  0
  2  7  1  0  0  0  0
  2  1  1  0  0  0  0
  3  2  2  0  0  0  0
  4  5  2  0  0  0  0
  4  3  1  0  0  0  0
  5  6  1  0  0  0  0
  6  7  2  0  0  0  0
  7 20  1  0  0  0  0
  8  4  1  0  0  0  0
  9  5  1  0  0  0  0
 10  6  1  0  0  0  0
 11 17  1  0  0  0  0
 12  3  1  0  0  0  0
 12 11  2  0  0  0  0
 13 12  1  0  0  0  0
 14 13  2  0  0  0  0
 14 15  1  0  0  0  0
 15 16  2  0  0  0  0
 16 11  1  0  0  0  0
 18 13  1  0  0  0  0
 19 15  1  0  0  0  0
 20 21  1  0  0  0  0
 21 22  1  0  0  0  0
 21 23  2  0  0  0  0
 23 24  1  0  0  0  0
 25 23  1  0  0  0  0
 26 25  2  0  0  0  0
 27 20  2  0  0  0  0
 27 26  1  0  0  0  0
M  END
>  <minimizedAffinity>
-5.11285543

$$$$

 OpenBabel03272505013D

 27 29  0  0  0  0  0  0  0  0999 V2000
   38.2400   22.9010   33.1830 Cl  0  0  0  0  0  0  0  0  0  0  0  0
   37.1690   24.0170   32.3770 C   0  0  0  0  0  0  0  0  0  0  0  0
   37.4300   25.3610   32.4650 C   0  0  0  0  0  0  0  0  0  0  0  0
   36.5400   26.1940   31.8070 C   0  0  0  0  0  0  0  0  0  0  0  0
   35.4590   25.6790   31.1080 C   0  0  0  0  0  0  0  0  0  0  0  0
   35.2360   24.3320   31.0470 C   0  0  0  0  0  0  0  0  0  0  0  0
   36.1130   23.4960   31.6960 C   0  0  0  0  0  0  0  0  0  0  0  0
   36.6880   27.2570   31.8370 H   0  0  0  0  0  0  0  0  0  0  0  0
   34.8010   26.3840   30.6170 H   0  0  0  0  0  0  0  0  0  0  0  0
   34.3770   23.9950   30.4870 H   0  0  0  0  0  0  0  0  0  0  0  0
   39.8190   26.1040   32.5740 C   0  0  0  0  0  0  0  0  0  0  0  0
   38.5600   25.9310   33.1920 C   0  0  0  0  0  0  0  0  0  0  0  0
   38.4410   26.3220   34.5200 C   0  0  0  0  0  0  0  0  0  0  0  0
   39.5100   26.8450   35.1630 N   0  0  0  0  0  0  0  0  0  0  0  0
   40.7000   26.9960   34.5370 C   0  0  0  0  0  0  0  0  0  0  0  0
   40.8610   26.6270   33.2410 N   0  0  0  0  0  0  0  0  0  0  0  0
   39.9310   25.8050   31.5410 H   0  0  0  0  0  0  0  0  0  0  0  0
   37.4680   26.1780   34.9640 H   0  0  0  0  0  0  0  0  0  0  0  0
   41.4930   27.4230   35.1350 H   0  0  0  0  0  0  0  0  0  0  0  0
   35.9090   22.0530   31.6540 C   0  0  0  0  0  0  0  0  0  0  0  0
   35.0500   21.3390   32.4370 C   0  0  0  0  0  0  0  0  0  0  0  0
   34.4570   21.8650   33.1590 H   0  0  0  0  0  0  0  0  0  0  0  0
   34.8780   19.9840   32.3760 C   0  0  0  0  0  0  0  0  0  0  0  0
   34.1840   19.4550   33.0180 H   0  0  0  0  0  0  0  0  0  0  0  0
   35.6000   19.2460   31.4780 C   0  0  0  0  0  3  0  0  0  0  0  0
   36.4730   19.9540   30.6790 C   0  0  0  0  0  3  0  0  0  0  0  0
   36.6130   21.2880   30.7700 N   0  0  0  0  0  0  0  0  0  0  0  0
  2  3  1  0  0  0  0
  2  1  1  0  0  0  0
  3 12  1  0  0  0  0
  4  8  1  0  0  0  0
  4  3  2  0  0  0  0
  5  4  1  0  0  0  0
  6  5  2  0  0  0  0
  6  7  1  0  0  0  0
  7  2  2  0  0  0  0
  9  5  1  0  0  0  0
 10  6  1  0  0  0  0
 11 12  2  0  0  0  0
 11 16  1  0  0  0  0
 12 13  1  0  0  0  0
 13 18  1  0  0  0  0
 13 14  2  0  0  0  0
 15 19  1  0  0  0  0
 15 14  1  0  0  0  0
 16 15  2  0  0  0  0
 17 11  1  0  0  0  0
 20  7  1  0  0  0  0
 20 21  1  0  0  0  0
 21 22  1  0  0  0  0
 23 21  2  0  0  0  0
 23 24  1  0  0  0  0
 25 23  1  0  0  0  0
 26 27  1  0  0  0  0
 26 25  2  0  0  0  0
 27 20  2  0  0  0  0
M  END
>  <minimizedAffinity>
-4.93240595

$$$$

 OpenBabel03272505013D

 27 29  0  0  0  0  0  0  0  0999 V2000
   36.4190   28.0700   34.7870 Cl  0  0  0  0  0  0  0  0  0  0  0  0
   36.1970   28.8470   33.2420 C   0  0  0  0  0  0  0  0  0  0  0  0
   36.6720   28.2220   32.1160 C   0  0  0  0  0  0  0  0  0  0  0  0
   36.4670   28.8920   30.9210 C   0  0  0  0  0  0  0  0  0  0  0  0
   35.8190   30.1170   30.8880 C   0  0  0  0  0  0  0  0  0  0  0  0
   35.3610   30.7040   32.0340 C   0  0  0  0  0  0  0  0  0  0  0  0
   35.5590   30.0480   33.2260 C   0  0  0  0  0  0  0  0  0  0  0  0
   36.8150   28.4570   30.0030 H   0  0  0  0  0  0  0  0  0  0  0  0
   35.6920   30.5880   29.9220 H   0  0  0  0  0  0  0  0  0  0  0  0
   34.8660   31.6580   31.9410 H   0  0  0  0  0  0  0  0  0  0  0  0
   36.6350   25.7180   32.0820 C   0  0  0  0  0  0  0  0  0  0  0  0
   37.3560   26.9330   32.1210 C   0  0  0  0  0  0  0  0  0  0  0  0
   38.7420   26.8520   32.1670 C   0  0  0  0  0  0  0  0  0  0  0  0
   39.3430   25.6400   32.1720 N   0  0  0  0  0  0  0  0  0  0  0  0
   38.6180   24.4980   32.1330 C   0  0  0  0  0  0  0  0  0  0  0  0
   37.2630   24.5310   32.0870 N   0  0  0  0  0  0  0  0  0  0  0  0
   35.5550   25.7620   32.0460 H   0  0  0  0  0  0  0  0  0  0  0  0
   39.2650   27.7960   32.1970 H   0  0  0  0  0  0  0  0  0  0  0  0
   39.1900   23.5790   32.1400 H   0  0  0  0  0  0  0  0  0  0  0  0
   35.0850   30.6410   34.4700 C   0  0  0  0  0  0  0  0  0  0  0  0
   35.8250   31.3950   35.3340 C   0  0  0  0  0  0  0  0  0  0  0  0
   36.8540   31.5840   35.0990 H   0  0  0  0  0  0  0  0  0  0  0  0
   35.3540   31.9410   36.4970 C   0  0  0  0  0  0  0  0  0  0  0  0
   35.9760   32.5340   37.1560 H   0  0  0  0  0  0  0  0  0  0  0  0
   34.0500   31.7430   36.8620 C   0  0  0  0  0  3  0  0  0  0  0  0
   33.2910   30.9830   35.9990 C   0  0  0  0  0  3  0  0  0  0  0  0
   33.7910   30.4640   34.8650 N   0  0  0  0  0  0  0  0  0  0  0  0
  2  1  1  0  0  0  0
  3 12  1  0  0  0  0
  3  2  2  0  0  0  0
  4  3  1  0  0  0  0
  5  4  2  0  0  0  0
  5  6  1  0  0  0  0
  6  7  2  0  0  0  0
  7  2  1  0  0  0  0
  7 20  1  0  0  0  0
  8  4  1  0  0  0  0
  9  5  1  0  0  0  0
 10  6  1  0  0  0  0
 11 16  2  0  0  0  0
 11 12  1  0  0  0  0
 12 13  2  0  0  0  0
 13 14  1  0  0  0  0
 13 18  1  0  0  0  0
 15 19  1  0  0  0  0
 15 14  2  0  0  0  0
 16 15  1  0  0  0  0
 17 11  1  0  0  0  0
 20 27  2  0  0  0  0
 20 21  1  0  0  0  0
 21 23  2  0  0  0  0
 22 21  1  0  0  0  0
 23 25  1  0  0  0  0
 23 24  1  0  0  0  0
 26 25  2  0  0  0  0
 27 26  1  0  0  0  0
M  END
>  <minimizedAffinity>
-4.90963697

$$$$

 OpenBabel03272505013D

 27 29  0  0  0  0  0  0  0  0999 V2000
   36.2820   28.2380   34.5120 Cl  0  0  0  0  0  0  0  0  0  0  0  0
   36.1090   29.1780   33.0540 C   0  0  0  0  0  0  0  0  0  0  0  0
   36.5740   28.6550   31.8740 C   0  0  0  0  0  0  0  0  0  0  0  0
   36.4090   29.4520   30.7530 C   0  0  0  0  0  0  0  0  0  0  0  0
   35.8080   30.6980   30.8410 C   0  0  0  0  0  0  0  0  0  0  0  0
   35.3580   31.1810   32.0380 C   0  0  0  0  0  0  0  0  0  0  0  0
   35.5160   30.3980   33.1570 C   0  0  0  0  0  0  0  0  0  0  0  0
   36.7520   29.1010   29.7980 H   0  0  0  0  0  0  0  0  0  0  0  0
   35.7100   31.2700   29.9280 H   0  0  0  0  0  0  0  0  0  0  0  0
   34.8990   32.1570   32.0400 H   0  0  0  0  0  0  0  0  0  0  0  0
   38.6050   27.1900   31.9180 C   0  0  0  0  0  0  0  0  0  0  0  0
   37.2100   27.3470   31.7510 C   0  0  0  0  0  0  0  0  0  0  0  0
   36.4690   26.2080   31.4650 C   0  0  0  0  0  0  0  0  0  0  0  0
   37.0930   25.0120   31.3570 N   0  0  0  0  0  0  0  0  0  0  0  0
   38.4310   24.9010   31.5230 C   0  0  0  0  0  0  0  0  0  0  0  0
   39.1930   25.9880   31.8050 N   0  0  0  0  0  0  0  0  0  0  0  0
   39.1990   28.0660   32.1410 H   0  0  0  0  0  0  0  0  0  0  0  0
   35.4080   26.3590   31.3430 H   0  0  0  0  0  0  0  0  0  0  0  0
   38.8360   23.9040   31.4180 H   0  0  0  0  0  0  0  0  0  0  0  0
   35.0490   30.8770   34.4520 C   0  0  0  0  0  0  0  0  0  0  0  0
   35.7820   31.5870   35.3590 C   0  0  0  0  0  0  0  0  0  0  0  0
   36.7990   31.8270   35.1200 H   0  0  0  0  0  0  0  0  0  0  0  0
   35.3180   32.0250   36.5680 C   0  0  0  0  0  0  0  0  0  0  0  0
   35.9340   32.5860   37.2600 H   0  0  0  0  0  0  0  0  0  0  0  0
   34.0290   31.7560   36.9410 C   0  0  0  0  0  3  0  0  0  0  0  0
   33.2770   31.0400   36.0350 C   0  0  0  0  0  3  0  0  0  0  0  0
   33.7700   30.6270   34.8550 N   0  0  0  0  0  0  0  0  0  0  0  0
  2  7  1  0  0  0  0
  2  1  1  0  0  0  0
  3  2  2  0  0  0  0
  4  5  2  0  0  0  0
  4  3  1  0  0  0  0
  5  6  1  0  0  0  0
  6 10  1  0  0  0  0
  6  7  2  0  0  0  0
  7 20  1  0  0  0  0
  8  4  1  0  0  0  0
  9  5  1  0  0  0  0
 11 17  1  0  0  0  0
 12  3  1  0  0  0  0
 12 11  2  0  0  0  0
 13 12  1  0  0  0  0
 14 13  2  0  0  0  0
 14 15  1  0  0  0  0
 15 16  2  0  0  0  0
 16 11  1  0  0  0  0
 18 13  1  0  0  0  0
 19 15  1  0  0  0  0
 20 27  2  0  0  0  0
 20 21  1  0  0  0  0
 21 23  2  0  0  0  0
 22 21  1  0  0  0  0
 23 25  1  0  0  0  0
 23 24  1  0  0  0  0
 26 25  2  0  0  0  0
 27 26  1  0  0  0  0
M  END
>  <minimizedAffinity>
-4.86114931

$$$$

 OpenBabel03272505013D

 27 29  0  0  0  0  0  0  0  0999 V2000
   40.5810   24.5330   34.2350 Cl  0  0  0  0  0  0  0  0  0  0  0  0
   39.6770   24.1490   35.6760 C   0  0  0  0  0  0  0  0  0  0  0  0
   38.4490   24.7330   35.8590 C   0  0  0  0  0  0  0  0  0  0  0  0
   37.7840   24.3900   37.0240 C   0  0  0  0  0  0  0  0  0  0  0  0
   38.3440   23.5080   37.9350 C   0  0  0  0  0  0  0  0  0  0  0  0
   39.5710   22.9480   37.7140 C   0  0  0  0  0  0  0  0  0  0  0  0
   40.2400   23.2820   36.5600 C   0  0  0  0  0  0  0  0  0  0  0  0
   36.8180   24.8120   37.2280 H   0  0  0  0  0  0  0  0  0  0  0  0
   37.7720   23.2820   38.8270 H   0  0  0  0  0  0  0  0  0  0  0  0
   39.9510   22.2700   38.4610 H   0  0  0  0  0  0  0  0  0  0  0  0
   37.4130   25.2410   33.6360 C   0  0  0  0  0  0  0  0  0  0  0  0
   37.8360   25.6640   34.9170 C   0  0  0  0  0  0  0  0  0  0  0  0
   37.6460   27.0010   35.2420 C   0  0  0  0  0  0  0  0  0  0  0  0
   37.0750   27.8350   34.3430 N   0  0  0  0  0  0  0  0  0  0  0  0
   36.6830   27.3930   33.1260 C   0  0  0  0  0  0  0  0  0  0  0  0
   36.8490   26.0950   32.7670 N   0  0  0  0  0  0  0  0  0  0  0  0
   37.5530   24.2030   33.3640 H   0  0  0  0  0  0  0  0  0  0  0  0
   37.9780   27.2940   36.2260 H   0  0  0  0  0  0  0  0  0  0  0  0
   36.2370   28.1350   32.4780 H   0  0  0  0  0  0  0  0  0  0  0  0
   41.5510   22.7070   36.2870 C   0  0  0  0  0  0  0  0  0  0  0  0
   41.7910   21.4880   35.7220 C   0  0  0  0  0  0  0  0  0  0  0  0
   40.9550   20.8770   35.4440 H   0  0  0  0  0  0  0  0  0  0  0  0
   43.0340   20.9710   35.4770 C   0  0  0  0  0  0  0  0  0  0  0  0
   43.1810   19.9970   35.0250 H   0  0  0  0  0  0  0  0  0  0  0  0
   44.1490   21.6940   35.8050 C   0  0  0  0  0  3  0  0  0  0  0  0
   43.9210   22.9270   36.3760 C   0  0  0  0  0  3  0  0  0  0  0  0
   42.6830   23.4000   36.6020 N   0  0  0  0  0  0  0  0  0  0  0  0
  1  2  1  0  0  0  0
  2  3  2  0  0  0  0
  2  7  1  0  0  0  0
  3  4  1  0  0  0  0
  4  8  1  0  0  0  0
  4  5  2  0  0  0  0
  5  9  1  0  0  0  0
  6  5  1  0  0  0  0
  6 10  1  0  0  0  0
  7  6  2  0  0  0  0
 11 12  1  0  0  0  0
 12 13  2  0  0  0  0
 12  3  1  0  0  0  0
 13 18  1  0  0  0  0
 14 13  1  0  0  0  0
 15 14  2  0  0  0  0
 16 15  1  0  0  0  0
 16 11  2  0  0  0  0
 17 11  1  0  0  0  0
 19 15  1  0  0  0  0
 20  7  1  0  0  0  0
 20 27  1  0  0  0  0
 21 20  2  0  0  0  0
 22 21  1  0  0  0  0
 23 21  1  0  0  0  0
 23 25  2  0  0  0  0
 24 23  1  0  0  0  0
 25 26  1  0  0  0  0
 26 27  2  0  0  0  0
M  END
>  <minimizedAffinity>
-4.78304052

$$$$

 OpenBabel03272505013D

 27 29  0  0  0  0  0  0  0  0999 V2000
   36.4710   27.9860   34.8360 Cl  0  0  0  0  0  0  0  0  0  0  0  0
   36.1600   28.8420   33.3490 C   0  0  0  0  0  0  0  0  0  0  0  0
   35.5010   30.0450   33.4060 C   0  0  0  0  0  0  0  0  0  0  0  0
   35.2820   30.6720   32.1910 C   0  0  0  0  0  0  0  0  0  0  0  0
   35.7110   30.1030   31.0030 C   0  0  0  0  0  0  0  0  0  0  0  0
   36.3630   28.9020   30.9910 C   0  0  0  0  0  0  0  0  0  0  0  0
   36.5860   28.2700   32.1910 C   0  0  0  0  0  0  0  0  0  0  0  0
   34.7720   31.6170   32.1670 H   0  0  0  0  0  0  0  0  0  0  0  0
   35.5070   30.6450   30.0880 H   0  0  0  0  0  0  0  0  0  0  0  0
   36.6700   28.5130   30.0330 H   0  0  0  0  0  0  0  0  0  0  0  0
   33.7160   30.4920   35.1050 C   0  0  0  0  0  0  0  0  0  0  0  0
   35.0400   30.6680   34.6430 C   0  0  0  0  0  0  0  0  0  0  0  0
   35.8850   31.4590   35.4110 C   0  0  0  0  0  0  0  0  0  0  0  0
   35.4230   32.0220   36.5510 N   0  0  0  0  0  0  0  0  0  0  0  0
   34.1470   31.8300   36.9610 C   0  0  0  0  0  0  0  0  0  0  0  0
   33.2890   31.0650   36.2420 N   0  0  0  0  0  0  0  0  0  0  0  0
   33.0440   29.8790   34.5200 H   0  0  0  0  0  0  0  0  0  0  0  0
   36.8890   31.5750   35.0330 H   0  0  0  0  0  0  0  0  0  0  0  0
   33.8730   32.3220   37.8850 H   0  0  0  0  0  0  0  0  0  0  0  0
   37.2800   26.9880   32.2200 C   0  0  0  0  0  0  0  0  0  0  0  0
   38.6320   26.8070   32.2490 C   0  0  0  0  0  0  0  0  0  0  0  0
   39.2660   27.6710   32.2510 H   0  0  0  0  0  0  0  0  0  0  0  0
   39.2570   25.5900   32.2760 C   0  0  0  0  0  0  0  0  0  0  0  0
   40.3360   25.4900   32.2980 H   0  0  0  0  0  0  0  0  0  0  0  0
   38.5130   24.4420   32.2760 C   0  0  0  0  0  3  0  0  0  0  0  0
   37.1450   24.6100   32.2470 C   0  0  0  0  0  3  0  0  0  0  0  0
   36.5690   25.8240   32.2200 N   0  0  0  0  0  0  0  0  0  0  0  0
  2  3  1  0  0  0  0
  2  1  1  0  0  0  0
  3 12  1  0  0  0  0
  4  3  2  0  0  0  0
  5  4  1  0  0  0  0
  6  5  2  0  0  0  0
  6  7  1  0  0  0  0
  7 20  1  0  0  0  0
  7  2  2  0  0  0  0
  8  4  1  0  0  0  0
  9  5  1  0  0  0  0
 10  6  1  0  0  0  0
 11 16  1  0  0  0  0
 12 11  2  0  0  0  0
 12 13  1  0  0  0  0
 13 14  2  0  0  0  0
 14 15  1  0  0  0  0
 15 19  1  0  0  0  0
 16 15  2  0  0  0  0
 17 11  1  0  0  0  0
 18 13  1  0  0  0  0
 20 21  1  0  0  0  0
 21 22  1  0  0  0  0
 21 23  2  0  0  0  0
 23 24  1  0  0  0  0
 25 23  1  0  0  0  0
 26 25  2  0  0  0  0
 27 20  2  0  0  0  0
 27 26  1  0  0  0  0
M  END
>  <minimizedAffinity>
-4.74110413

$$$$

 OpenBabel03272505013D

 27 29  0  0  0  0  0  0  0  0999 V2000
   38.3620   25.8040   34.5640 Cl  0  0  0  0  0  0  0  0  0  0  0  0
   37.8950   24.3400   33.7380 C   0  0  0  0  0  0  0  0  0  0  0  0
   37.4900   24.4220   32.4300 C   0  0  0  0  0  0  0  0  0  0  0  0
   37.1290   23.2250   31.8330 C   0  0  0  0  0  0  0  0  0  0  0  0
   37.1830   22.0300   32.5330 C   0  0  0  0  0  0  0  0  0  0  0  0
   37.5930   21.9940   33.8370 C   0  0  0  0  0  0  0  0  0  0  0  0
   37.9540   23.1760   34.4390 C   0  0  0  0  0  0  0  0  0  0  0  0
   36.8020   23.2210   30.8100 H   0  0  0  0  0  0  0  0  0  0  0  0
   36.8870   21.1310   32.0080 H   0  0  0  0  0  0  0  0  0  0  0  0
   37.6130   21.0320   34.3250 H   0  0  0  0  0  0  0  0  0  0  0  0
   38.5480   26.1560   30.9660 C   0  0  0  0  0  0  0  0  0  0  0  0
   37.4240   25.6650   31.6690 C   0  0  0  0  0  0  0  0  0  0  0  0
   36.2560   26.4140   31.6080 C   0  0  0  0  0  0  0  0  0  0  0  0
   36.2320   27.5620   30.8940 N   0  0  0  0  0  0  0  0  0  0  0  0
   37.3280   28.0000   30.2330 C   0  0  0  0  0  0  0  0  0  0  0  0
   38.4900   27.3010   30.2650 N   0  0  0  0  0  0  0  0  0  0  0  0
   39.4670   25.5870   31.0020 H   0  0  0  0  0  0  0  0  0  0  0  0
   35.4150   26.0140   32.1540 H   0  0  0  0  0  0  0  0  0  0  0  0
   37.2090   28.9290   29.6900 H   0  0  0  0  0  0  0  0  0  0  0  0
   38.3970   23.1780   35.8280 C   0  0  0  0  0  0  0  0  0  0  0  0
   39.6460   22.8550   36.2730 C   0  0  0  0  0  0  0  0  0  0  0  0
   40.3890   22.5690   35.5550 H   0  0  0  0  0  0  0  0  0  0  0  0
   40.0360   22.8660   37.5830 C   0  0  0  0  0  0  0  0  0  0  0  0
   41.0400   22.6020   37.8950 H   0  0  0  0  0  0  0  0  0  0  0  0
   39.1430   23.2220   38.5570 C   0  0  0  0  0  3  0  0  0  0  0  0
   37.8770   23.5510   38.1220 C   0  0  0  0  0  3  0  0  0  0  0  0
   37.5320   23.5270   36.8230 N   0  0  0  0  0  0  0  0  0  0  0  0
  2  7  1  0  0  0  0
  2  1  1  0  0  0  0
  3  2  2  0  0  0  0
  4  3  1  0  0  0  0
  4  5  2  0  0  0  0
  5  6  1  0  0  0  0
  6 10  1  0  0  0  0
  6  7  2  0  0  0  0
  7 20  1  0  0  0  0
  8  4  1  0  0  0  0
  9  5  1  0  0  0  0
 11 17  1  0  0  0  0
 11 12  1  0  0  0  0
 12  3  1  0  0  0  0
 13 12  2  0  0  0  0
 13 18  1  0  0  0  0
 14 13  1  0  0  0  0
 15 16  1  0  0  0  0
 15 14  2  0  0  0  0
 16 11  2  0  0  0  0
 19 15  1  0  0  0  0
 20 21  2  0  0  0  0
 20 27  1  0  0  0  0
 21 23  1  0  0  0  0
 22 21  1  0  0  0  0
 23 24  1  0  0  0  0
 23 25  2  0  0  0  0
 26 25  1  0  0  0  0
 27 26  2  0  0  0  0
M  END
>  <minimizedAffinity>
-4.73254156

$$$$

 OpenBabel03272505013D

 27 29  0  0  0  0  0  0  0  0999 V2000
   38.0920   27.1920   33.4220 Cl  0  0  0  0  0  0  0  0  0  0  0  0
   37.1770   25.9670   32.5830 C   0  0  0  0  0  0  0  0  0  0  0  0
   37.4570   24.6470   32.8340 C   0  0  0  0  0  0  0  0  0  0  0  0
   36.6980   23.7250   32.1340 C   0  0  0  0  0  0  0  0  0  0  0  0
   35.7200   24.1320   31.2390 C   0  0  0  0  0  0  0  0  0  0  0  0
   35.4740   25.4590   31.0190 C   0  0  0  0  0  0  0  0  0  0  0  0
   36.2220   26.3830   31.7090 C   0  0  0  0  0  0  0  0  0  0  0  0
   36.8670   22.6750   32.2840 H   0  0  0  0  0  0  0  0  0  0  0  0
   35.1630   23.3600   30.7230 H   0  0  0  0  0  0  0  0  0  0  0  0
   34.7010   25.7100   30.3100 H   0  0  0  0  0  0  0  0  0  0  0  0
   38.1870   23.9990   35.1400 C   0  0  0  0  0  0  0  0  0  0  0  0
   38.4790   24.1900   33.7700 C   0  0  0  0  0  0  0  0  0  0  0  0
   39.7760   23.9270   33.3510 C   0  0  0  0  0  0  0  0  0  0  0  0
   40.6980   23.5050   34.2470 N   0  0  0  0  0  0  0  0  0  0  0  0
   40.3810   23.3340   35.5510 C   0  0  0  0  0  0  0  0  0  0  0  0
   39.1260   23.5790   36.0040 N   0  0  0  0  0  0  0  0  0  0  0  0
   37.1820   24.1990   35.4850 H   0  0  0  0  0  0  0  0  0  0  0  0
   39.9680   24.0810   32.3000 H   0  0  0  0  0  0  0  0  0  0  0  0
   41.1860   22.9940   36.1880 H   0  0  0  0  0  0  0  0  0  0  0  0
   35.9890   27.8070   31.5020 C   0  0  0  0  0  0  0  0  0  0  0  0
   36.5870   28.5900   30.5570 C   0  0  0  0  0  0  0  0  0  0  0  0
   37.2970   28.1400   29.8930 H   0  0  0  0  0  0  0  0  0  0  0  0
   36.3490   29.9260   30.3850 C   0  0  0  0  0  0  0  0  0  0  0  0
   36.8460   30.5120   29.6210 H   0  0  0  0  0  0  0  0  0  0  0  0
   35.4540   30.5690   31.1960 C   0  0  0  0  0  3  0  0  0  0  0  0
   34.8430   29.7900   32.1550 C   0  0  0  0  0  3  0  0  0  0  0  0
   35.1040   28.4790   32.2930 N   0  0  0  0  0  0  0  0  0  0  0  0
  2  3  1  0  0  0  0
  2  1  1  0  0  0  0
  3 12  1  0  0  0  0
  4  8  1  0  0  0  0
  4  3  2  0  0  0  0
  5  4  1  0  0  0  0
  6  5  2  0  0  0  0
  6  7  1  0  0  0  0
  7  2  2  0  0  0  0
  9  5  1  0  0  0  0
 10  6  1  0  0  0  0
 11 17  1  0  0  0  0
 11 16  1  0  0  0  0
 12 11  2  0  0  0  0
 13 12  1  0  0  0  0
 13 14  2  0  0  0  0
 14 15  1  0  0  0  0
 15 16  2  0  0  0  0
 15 19  1  0  0  0  0
 18 13  1  0  0  0  0
 20  7  1  0  0  0  0
 20 27  1  0  0  0  0
 21 20  2  0  0  0  0
 22 21  1  0  0  0  0
 23 21  1  0  0  0  0
 23 25  2  0  0  0  0
 24 23  1  0  0  0  0
 25 26  1  0  0  0  0
 26 27  2  0  0  0  0
M  END
>  <minimizedAffinity>
-4.67898893

$$$$

 OpenBabel03272505013D

 27 29  0  0  0  0  0  0  0  0999 V2000
   38.0710   27.1950   33.5130 Cl  0  0  0  0  0  0  0  0  0  0  0  0
   37.1970   25.9630   32.6410 C   0  0  0  0  0  0  0  0  0  0  0  0
   37.4950   24.6460   32.8840 C   0  0  0  0  0  0  0  0  0  0  0  0
   36.7680   23.7180   32.1580 C   0  0  0  0  0  0  0  0  0  0  0  0
   35.8030   24.1170   31.2470 C   0  0  0  0  0  0  0  0  0  0  0  0
   35.5370   25.4410   31.0350 C   0  0  0  0  0  0  0  0  0  0  0  0
   36.2530   26.3710   31.7510 C   0  0  0  0  0  0  0  0  0  0  0  0
   36.9540   22.6700   32.3010 H   0  0  0  0  0  0  0  0  0  0  0  0
   35.2710   23.3410   30.7110 H   0  0  0  0  0  0  0  0  0  0  0  0
   34.7750   25.6850   30.3120 H   0  0  0  0  0  0  0  0  0  0  0  0
   39.8440   23.9800   33.4420 C   0  0  0  0  0  0  0  0  0  0  0  0
   38.5050   24.1970   33.8380 C   0  0  0  0  0  0  0  0  0  0  0  0
   38.1870   23.9660   35.1700 C   0  0  0  0  0  0  0  0  0  0  0  0
   39.1490   23.5490   36.0260 N   0  0  0  0  0  0  0  0  0  0  0  0
   40.4210   23.3520   35.6090 C   0  0  0  0  0  0  0  0  0  0  0  0
   40.7750   23.5660   34.3170 N   0  0  0  0  0  0  0  0  0  0  0  0
   40.1100   24.1540   32.4080 H   0  0  0  0  0  0  0  0  0  0  0  0
   37.1580   24.1410   35.4430 H   0  0  0  0  0  0  0  0  0  0  0  0
   41.1160   23.0190   36.3680 H   0  0  0  0  0  0  0  0  0  0  0  0
   35.9980   27.7930   31.5540 C   0  0  0  0  0  0  0  0  0  0  0  0
   36.5790   28.5900   30.6100 C   0  0  0  0  0  0  0  0  0  0  0  0
   37.2910   28.1540   29.9390 H   0  0  0  0  0  0  0  0  0  0  0  0
   36.3210   29.9230   30.4470 C   0  0  0  0  0  0  0  0  0  0  0  0
   36.8040   30.5210   29.6840 H   0  0  0  0  0  0  0  0  0  0  0  0
   35.4220   30.5480   31.2680 C   0  0  0  0  0  3  0  0  0  0  0  0
   34.8280   29.7550   32.2260 C   0  0  0  0  0  3  0  0  0  0  0  0
   35.1080   28.4470   32.3540 N   0  0  0  0  0  0  0  0  0  0  0  0
  2  3  1  0  0  0  0
  2  1  1  0  0  0  0
  3 12  1  0  0  0  0
  4  8  1  0  0  0  0
  4  3  2  0  0  0  0
  5  4  1  0  0  0  0
  6  5  2  0  0  0  0
  6  7  1  0  0  0  0
  7  2  2  0  0  0  0
  9  5  1  0  0  0  0
 10  6  1  0  0  0  0
 11 12  2  0  0  0  0
 11 16  1  0  0  0  0
 12 13  1  0  0  0  0
 13 18  1  0  0  0  0
 13 14  2  0  0  0  0
 15 14  1  0  0  0  0
 15 19  1  0  0  0  0
 16 15  2  0  0  0  0
 17 11  1  0  0  0  0
 20  7  1  0  0  0  0
 20 27  1  0  0  0  0
 21 20  2  0  0  0  0
 22 21  1  0  0  0  0
 23 21  1  0  0  0  0
 23 25  2  0  0  0  0
 24 23  1  0  0  0  0
 25 26  1  0  0  0  0
 26 27  2  0  0  0  0
M  END
>  <minimizedAffinity>
-4.66624928

$$$$
