
 OpenBabel03272509213D

 45 49  0  0  0  0  0  0  0  0999 V2000
   38.1320   31.4080   47.9240 C   0  0  0  0  0  0  0  0  0  0  0  0
   37.2680   31.5930   48.9880 C   0  0  0  0  0  0  0  0  0  0  0  0
   37.4580   32.7980   49.6820 C   0  0  0  0  0  0  0  0  0  0  0  0
   38.4440   33.7150   49.3110 C   0  0  0  0  0  0  0  0  0  0  0  0
   39.2790   33.4340   48.2070 C   0  0  0  0  0  0  0  0  0  0  0  0
   39.0970   32.2390   47.5100 C   0  0  0  0  0  0  0  0  0  0  0  0
   36.8360   33.0380   50.5270 H   0  0  0  0  0  0  0  0  0  0  0  0
   38.5740   34.6360   49.8580 H   0  0  0  0  0  0  0  0  0  0  0  0
   40.0350   34.1600   47.9380 H   0  0  0  0  0  0  0  0  0  0  0  0
   35.1640   30.4420   48.5540 C   0  0  0  0  0  0  0  0  0  0  0  0
   36.2630   30.6600   49.3700 C   0  0  0  0  0  0  0  0  0  0  0  0
   36.3380   29.9270   50.5700 C   0  0  0  0  0  0  0  0  0  0  0  0
   35.3440   29.0580   50.8660 N   0  0  0  0  0  0  0  0  0  0  0  0
   34.2840   28.8800   50.0300 C   0  0  0  0  0  0  0  0  0  0  0  0
   34.1940   29.5680   48.8820 N   0  0  0  0  0  0  0  0  0  0  0  0
   35.0750   30.9830   47.6340 H   0  0  0  0  0  0  0  0  0  0  0  0
   33.5630   28.1560   50.3890 H   0  0  0  0  0  0  0  0  0  0  0  0
   37.4910   30.1180   51.4840 C   0  0  0  0  0  0  0  0  0  0  0  0
   37.2280   29.6790   52.4660 H   0  0  0  0  0  0  0  0  0  0  0  0
   37.8010   31.1840   51.5470 H   0  0  0  0  0  0  0  0  0  0  0  0
   38.3270   29.5170   51.0640 H   0  0  0  0  0  0  0  0  0  0  0  0
   38.0240   30.2360   47.1660 O   0  0  0  0  0  0  0  0  0  0  0  0
   37.3930   30.1160   46.3990 H   0  0  0  0  0  0  0  0  0  0  0  0
   39.9510   32.0290   46.4390 O   0  0  0  0  0  0  0  0  0  0  0  0
   40.0580   30.8320   44.2790 C   0  0  0  0  0  0  0  0  0  0  0  0
   39.5810   31.7750   45.1540 C   0  0  0  0  0  0  0  0  0  0  0  0
   38.5740   32.6290   44.7180 C   0  0  0  0  0  0  0  0  0  0  0  0
   38.0520   32.5280   43.4150 C   0  0  0  0  0  0  0  0  0  0  0  0
   37.1110   33.1740   42.7100 N   0  0  0  0  0  0  0  0  0  0  0  0
   37.0070   32.6660   41.4790 C   0  0  0  0  0  0  0  0  0  0  0  0
   37.9130   31.6670   41.4060 N   0  0  0  0  0  0  0  0  0  0  0  0
   38.5730   31.5570   42.5840 C   0  0  0  0  0  0  0  0  0  0  0  0
   39.5650   30.7120   43.0010 C   0  0  0  0  0  0  0  0  0  0  0  0
   40.8300   30.2040   44.6660 H   0  0  0  0  0  0  0  0  0  0  0  0
   38.1060   33.4160   45.2980 H   0  0  0  0  0  0  0  0  0  0  0  0
   36.5410   33.9660   43.0820 H   0  0  0  0  0  0  0  0  0  0  0  0
   36.3300   32.9870   40.6890 H   0  0  0  0  0  0  0  0  0  0  0  0
   40.0710   29.7100   42.0740 C   0  0  0  0  0  0  0  0  0  0  0  0
   41.1640   29.8850   41.2610 C   0  0  0  0  0  0  0  0  0  0  0  0
   41.7030   30.8200   41.2920 H   0  0  0  0  0  0  0  0  0  0  0  0
   41.6490   28.9410   40.3800 C   0  0  0  0  0  0  0  0  0  0  0  0
   42.5170   29.1120   39.7520 H   0  0  0  0  0  0  0  0  0  0  0  0
   41.0110   27.7230   40.2880 C   0  0  0  0  0  3  0  0  0  0  0  0
   39.9150   27.5580   41.1080 C   0  0  0  0  0  3  0  0  0  0  0  0
   39.4770   28.5080   41.9510 N   0  0  0  0  0  0  0  0  0  0  0  0
  1  2  1  0  0  0  0
  2 11  1  0  0  0  0
  2  3  2  0  0  0  0
  3  7  1  0  0  0  0
  4  3  1  0  0  0  0
  4  8  1  0  0  0  0
  5  4  2  0  0  0  0
  6  1  2  0  0  0  0
  6  5  1  0  0  0  0
  9  5  1  0  0  0  0
 10 15  2  0  0  0  0
 10 11  1  0  0  0  0
 11 12  2  0  0  0  0
 12 13  1  0  0  0  0
 12 18  1  0  0  0  0
 14 17  1  0  0  0  0
 14 13  2  0  0  0  0
 15 14  1  0  0  0  0
 16 10  1  0  0  0  0
 18 20  1  0  0  0  0
 18 19  1  0  0  0  0
 21 18  1  0  0  0  0
 22  1  1  0  0  0  0
 23 22  1  0  0  0  0
 24  6  1  0  0  0  0
 25 34  1  0  0  0  0
 25 26  1  0  0  0  0
 26 24  1  0  0  0  0
 27 26  2  0  0  0  0
 27 35  1  0  0  0  0
 28 27  1  0  0  0  0
 29 36  1  0  0  0  0
 29 28  1  0  0  0  0
 30 29  1  0  0  0  0
 31 30  2  0  0  0  0
 31 32  1  0  0  0  0
 32 33  1  0  0  0  0
 32 28  2  0  0  0  0
 33 25  2  0  0  0  0
 37 30  1  0  0  0  0
 38 33  1  0  0  0  0
 39 40  1  0  0  0  0
 39 38  2  0  0  0  0
 41 39  1  0  0  0  0
 42 41  1  0  0  0  0
 43 41  2  0  0  0  0
 43 44  1  0  0  0  0
 44 45  2  0  0  0  0
 45 38  1  0  0  0  0
M  END
>  <minimizedAffinity>
-7.5608139

>  <minimizedRMSD>
0.871091723

$$$$
