
 OpenBabel03272505053D

 44 47  0  0  1  0  0  0  0  0999 V2000
   38.7330   22.7520   35.3640 C   0  0  2  0  0  0  0  0  0  0  0  0
   37.5820   22.9940   36.3870 C   0  0  0  0  0  0  0  0  0  0  0  0
   37.9660   24.1270   37.2920 C   0  0  0  0  0  0  0  0  0  0  0  0
   39.0020   23.6360   38.2670 C   0  0  0  0  0  0  0  0  0  0  0  0
   39.7830   22.5430   37.6530 C   0  0  0  0  0  0  0  0  0  0  0  0
   39.9770   22.7020   36.1760 C   0  0  2  0  0  0  0  0  0  0  0  0
   38.4370   21.8270   34.8300 H   0  0  0  0  0  0  0  0  0  0  0  0
   36.6560   23.2590   35.8420 H   0  0  0  0  0  0  0  0  0  0  0  0
   37.3890   22.0890   36.9550 H   0  0  0  0  0  0  0  0  0  0  0  0
   37.0530   24.4650   37.8560 H   0  0  0  0  0  0  0  0  0  0  0  0
   38.5130   24.9520   36.8470 H   0  0  0  0  0  0  0  0  0  0  0  0
   38.4180   23.1890   39.1250 H   0  0  0  0  0  0  0  0  0  0  0  0
   39.6360   24.4050   38.7120 H   0  0  0  0  0  0  0  0  0  0  0  0
   39.2950   21.5390   37.8170 H   0  0  0  0  0  0  0  0  0  0  0  0
   40.8020   22.4060   38.0870 H   0  0  0  0  0  0  0  0  0  0  0  0
   40.4350   21.6850   35.8940 H   0  0  0  0  0  0  0  0  0  0  0  0
   41.0480   23.6470   35.7820 C   0  0  0  0  0  0  0  0  0  0  0  0
   42.3860   23.3430   36.0600 C   0  0  0  0  0  0  0  0  0  0  0  0
   42.6850   22.4130   36.5690 H   0  0  0  0  0  0  0  0  0  0  0  0
   43.4740   24.1620   35.7330 C   0  0  0  0  0  0  0  0  0  0  0  0
   44.4860   23.8700   35.9750 H   0  0  0  0  0  0  0  0  0  0  0  0
   43.2230   25.3560   35.0900 C   0  0  0  0  0  3  0  0  0  0  0  0
   41.9280   25.6500   34.8210 C   0  0  0  0  0  3  0  0  0  0  0  0
   40.9600   24.8320   35.1580 N   0  0  0  0  0  0  0  0  0  0  0  0
   38.7110   23.8530   34.5620 O   0  0  0  0  0  0  0  0  0  0  0  0
   38.3770   26.6770   33.9690 Cl  0  0  0  0  0  0  0  0  0  0  0  0
   37.6390   25.3840   33.0730 C   0  0  0  0  0  0  0  0  0  0  0  0
   36.8410   25.7180   32.0120 C   0  0  0  0  0  0  0  0  0  0  0  0
   36.2650   24.6620   31.3200 C   0  0  0  0  0  0  0  0  0  0  0  0
   36.5140   23.3620   31.7210 C   0  0  0  0  0  0  0  0  0  0  0  0
   37.3240   23.0690   32.7950 C   0  0  0  0  0  0  0  0  0  0  0  0
   37.8920   24.1020   33.4760 C   0  0  0  0  0  0  0  0  0  0  0  0
   35.6330   24.9190   30.4800 H   0  0  0  0  0  0  0  0  0  0  0  0
   36.0300   22.5830   31.1340 H   0  0  0  0  0  0  0  0  0  0  0  0
   37.4930   22.0400   33.0760 H   0  0  0  0  0  0  0  0  0  0  0  0
   37.2510   27.6720   30.4980 C   0  0  0  0  0  0  0  0  0  0  0  0
   36.5690   27.0970   31.5800 C   0  0  0  0  0  0  0  0  0  0  0  0
   35.6200   27.8710   32.2390 C   0  0  0  0  0  0  0  0  0  0  0  0
   35.4130   29.1380   31.7920 N   0  0  0  0  0  0  0  0  0  0  0  0
   36.0650   29.6590   30.7730 C   0  0  0  0  0  0  0  0  0  0  0  0
   36.9920   28.9380   30.1110 N   0  0  0  0  0  0  0  0  0  0  0  0
   37.9890   27.1030   29.9670 H   0  0  0  0  0  0  0  0  0  0  0  0
   35.0860   27.4410   33.0730 H   0  0  0  0  0  0  0  0  0  0  0  0
   35.8440   30.6700   30.4810 H   0  0  0  0  0  0  0  0  0  0  0  0
  1  7  1  6  0  0  0
  1  6  1  0  0  0  0
  1  2  1  0  0  0  0
  2  9  1  0  0  0  0
  2  3  1  0  0  0  0
  3 10  1  0  0  0  0
  3  4  1  0  0  0  0
  4 13  1  0  0  0  0
  4 12  1  0  0  0  0
  5 14  1  0  0  0  0
  5 15  1  0  0  0  0
  5  4  1  0  0  0  0
  6 16  1  6  0  0  0
  6  5  1  0  0  0  0
  8  2  1  0  0  0  0
 11  3  1  0  0  0  0
 17 18  1  0  0  0  0
 17  6  1  0  0  0  0
 18 19  1  0  0  0  0
 20 21  1  0  0  0  0
 20 18  2  0  0  0  0
 22 20  1  0  0  0  0
 23 22  2  0  0  0  0
 23 24  1  0  0  0  0
 24 17  2  0  0  0  0
 25  1  1  0  0  0  0
 27 32  1  0  0  0  0
 27 26  1  0  0  0  0
 28 27  2  0  0  0  0
 29 30  2  0  0  0  0
 29 28  1  0  0  0  0
 30 31  1  0  0  0  0
 31 35  1  0  0  0  0
 31 32  2  0  0  0  0
 32 25  1  0  0  0  0
 33 29  1  0  0  0  0
 34 30  1  0  0  0  0
 36 37  1  0  0  0  0
 37 28  1  0  0  0  0
 37 38  2  0  0  0  0
 38 43  1  0  0  0  0
 39 38  1  0  0  0  0
 40 39  2  0  0  0  0
 41 36  2  0  0  0  0
 41 40  1  0  0  0  0
 42 36  1  0  0  0  0
 44 40  1  0  0  0  0
M  END
>  <minimizedAffinity>
-5.80889273

$$$$

 OpenBabel03272505053D

 44 47  0  0  1  0  0  0  0  0999 V2000
   38.5060   26.2290   33.4490 C   0  0  2  0  0  0  0  0  0  0  0  0
   39.4550   27.0100   32.4890 C   0  0  0  0  0  0  0  0  0  0  0  0
   40.8430   26.4570   32.6210 C   0  0  0  0  0  0  0  0  0  0  0  0
   41.4320   26.9370   33.9190 C   0  0  0  0  0  0  0  0  0  0  0  0
   40.3520   27.1610   34.9020 C   0  0  0  0  0  0  0  0  0  0  0  0
   39.2070   26.2070   34.7610 C   0  0  2  0  0  0  0  0  0  0  0  0
   37.5460   26.7780   33.3950 H   0  0  0  0  0  0  0  0  0  0  0  0
   39.1070   26.8820   31.4460 H   0  0  0  0  0  0  0  0  0  0  0  0
   39.4320   28.0700   32.7220 H   0  0  0  0  0  0  0  0  0  0  0  0
   41.4650   26.8370   31.7650 H   0  0  0  0  0  0  0  0  0  0  0  0
   40.9370   25.3860   32.7640 H   0  0  0  0  0  0  0  0  0  0  0  0
   41.8880   27.9440   33.6870 H   0  0  0  0  0  0  0  0  0  0  0  0
   42.2460   26.3320   34.3230 H   0  0  0  0  0  0  0  0  0  0  0  0
   39.9270   28.2030   34.8230 H   0  0  0  0  0  0  0  0  0  0  0  0
   40.6790   27.0980   35.9660 H   0  0  0  0  0  0  0  0  0  0  0  0
   38.4350   26.6670   35.4790 H   0  0  0  0  0  0  0  0  0  0  0  0
   39.4270   24.8680   35.3560 C   0  0  0  0  0  0  0  0  0  0  0  0
   38.4160   24.2650   36.1150 C   0  0  0  0  0  0  0  0  0  0  0  0
   37.4450   24.7520   36.2940 H   0  0  0  0  0  0  0  0  0  0  0  0
   38.5180   23.0070   36.7220 C   0  0  0  0  0  0  0  0  0  0  0  0
   37.7000   22.5960   37.2970 H   0  0  0  0  0  0  0  0  0  0  0  0
   39.6920   22.3010   36.5670 C   0  0  0  0  0  3  0  0  0  0  0  0
   40.6700   22.8840   35.8310 C   0  0  0  0  0  3  0  0  0  0  0  0
   40.5020   24.0680   35.2930 N   0  0  0  0  0  0  0  0  0  0  0  0
   38.4300   24.9810   32.9100 O   0  0  0  0  0  0  0  0  0  0  0  0
   38.4570   22.0850   33.1320 Cl  0  0  0  0  0  0  0  0  0  0  0  0
   37.2050   23.0050   32.3540 C   0  0  0  0  0  0  0  0  0  0  0  0
   36.1550   22.3180   31.8050 C   0  0  0  0  0  0  0  0  0  0  0  0
   35.1750   23.0850   31.1890 C   0  0  0  0  0  0  0  0  0  0  0  0
   35.2980   24.4620   31.1590 C   0  0  0  0  0  0  0  0  0  0  0  0
   36.3710   25.1130   31.7250 C   0  0  0  0  0  0  0  0  0  0  0  0
   37.3350   24.3660   32.3300 C   0  0  0  0  0  0  0  0  0  0  0  0
   34.3430   22.5480   30.7530 H   0  0  0  0  0  0  0  0  0  0  0  0
   34.4940   24.9990   30.6610 H   0  0  0  0  0  0  0  0  0  0  0  0
   36.4300   26.1910   31.6800 H   0  0  0  0  0  0  0  0  0  0  0  0
   36.4790   20.0590   30.7730 C   0  0  0  0  0  0  0  0  0  0  0  0
   36.0170   20.8550   31.8300 C   0  0  0  0  0  0  0  0  0  0  0  0
   35.4190   20.2200   32.9130 C   0  0  0  0  0  0  0  0  0  0  0  0
   35.3200   18.8640   32.8790 N   0  0  0  0  0  0  0  0  0  0  0  0
   35.7620   18.1340   31.8740 C   0  0  0  0  0  0  0  0  0  0  0  0
   36.3460   18.7170   30.8090 N   0  0  0  0  0  0  0  0  0  0  0  0
   36.9450   20.5160   29.9220 H   0  0  0  0  0  0  0  0  0  0  0  0
   35.0580   20.8200   33.7360 H   0  0  0  0  0  0  0  0  0  0  0  0
   35.6460   17.0660   31.9220 H   0  0  0  0  0  0  0  0  0  0  0  0
  1  7  1  1  0  0  0
  1  6  1  0  0  0  0
  2  3  1  0  0  0  0
  2  9  1  0  0  0  0
  2  1  1  0  0  0  0
  3 11  1  0  0  0  0
  3  4  1  0  0  0  0
  4 13  1  0  0  0  0
  4  5  1  0  0  0  0
  5 15  1  0  0  0  0
  6  5  1  0  0  0  0
  6 17  1  0  0  0  0
  6 16  1  1  0  0  0
  8  2  1  0  0  0  0
 10  3  1  0  0  0  0
 12  4  1  0  0  0  0
 14  5  1  0  0  0  0
 17 18  1  0  0  0  0
 18 19  1  0  0  0  0
 18 20  2  0  0  0  0
 20 21  1  0  0  0  0
 22 20  1  0  0  0  0
 23 22  2  0  0  0  0
 24 17  2  0  0  0  0
 24 23  1  0  0  0  0
 25  1  1  0  0  0  0
 27 26  1  0  0  0  0
 28 37  1  0  0  0  0
 28 27  2  0  0  0  0
 29 28  1  0  0  0  0
 30 29  2  0  0  0  0
 30 31  1  0  0  0  0
 31 32  2  0  0  0  0
 32 27  1  0  0  0  0
 32 25  1  0  0  0  0
 33 29  1  0  0  0  0
 34 30  1  0  0  0  0
 35 31  1  0  0  0  0
 36 41  2  0  0  0  0
 36 37  1  0  0  0  0
 37 38  2  0  0  0  0
 38 43  1  0  0  0  0
 39 38  1  0  0  0  0
 40 44  1  0  0  0  0
 40 39  2  0  0  0  0
 41 40  1  0  0  0  0
 42 36  1  0  0  0  0
M  END
>  <minimizedAffinity>
-5.8067174

$$$$

 OpenBabel03272505053D

 44 47  0  0  1  0  0  0  0  0999 V2000
   34.6280   31.6670   33.7860 C   0  0  2  0  0  0  0  0  0  0  0  0
   35.8900   32.0880   34.5980 C   0  0  0  0  0  0  0  0  0  0  0  0
   35.8510   31.4200   35.9400 C   0  0  0  0  0  0  0  0  0  0  0  0
   34.8230   32.1110   36.7930 C   0  0  0  0  0  0  0  0  0  0  0  0
   33.7650   32.6810   35.9340 C   0  0  0  0  0  0  0  0  0  0  0  0
   33.4810   31.8630   34.7130 C   0  0  2  0  0  0  0  0  0  0  0  0
   34.6600   32.2990   32.8770 H   0  0  0  0  0  0  0  0  0  0  0  0
   36.8000   31.7670   34.0550 H   0  0  0  0  0  0  0  0  0  0  0  0
   35.9250   33.1680   34.7000 H   0  0  0  0  0  0  0  0  0  0  0  0
   36.8630   31.5160   36.4210 H   0  0  0  0  0  0  0  0  0  0  0  0
   35.4650   30.4060   35.9760 H   0  0  0  0  0  0  0  0  0  0  0  0
   35.3660   32.9770   37.2750 H   0  0  0  0  0  0  0  0  0  0  0  0
   34.4190   31.5220   37.6190 H   0  0  0  0  0  0  0  0  0  0  0  0
   34.0290   33.7200   35.5830 H   0  0  0  0  0  0  0  0  0  0  0  0
   32.7850   32.8250   36.4460 H   0  0  0  0  0  0  0  0  0  0  0  0
   32.7840   32.5630   34.1240 H   0  0  0  0  0  0  0  0  0  0  0  0
   32.6180   30.6790   34.9360 C   0  0  0  0  0  0  0  0  0  0  0  0
   31.5530   30.4160   34.0650 C   0  0  0  0  0  0  0  0  0  0  0  0
   31.3230   31.0640   33.2040 H   0  0  0  0  0  0  0  0  0  0  0  0
   30.6770   29.3300   34.1830 C   0  0  0  0  0  0  0  0  0  0  0  0
   29.8720   29.1820   33.4760 H   0  0  0  0  0  0  0  0  0  0  0  0
   30.8660   28.4480   35.2250 C   0  0  0  0  0  3  0  0  0  0  0  0
   31.8970   28.7030   36.0680 C   0  0  0  0  0  3  0  0  0  0  0  0
   32.6770   29.7420   35.8950 N   0  0  0  0  0  0  0  0  0  0  0  0
   34.8230   30.3460   33.5170 O   0  0  0  0  0  0  0  0  0  0  0  0
   36.3820   28.0950   34.4850 Cl  0  0  0  0  0  0  0  0  0  0  0  0
   36.4420   28.7130   32.8630 C   0  0  0  0  0  0  0  0  0  0  0  0
   37.2850   28.0980   31.9760 C   0  0  0  0  0  0  0  0  0  0  0  0
   37.3100   28.6190   30.6900 C   0  0  0  0  0  0  0  0  0  0  0  0
   36.5090   29.7020   30.3730 C   0  0  0  0  0  0  0  0  0  0  0  0
   35.6750   30.2910   31.2950 C   0  0  0  0  0  0  0  0  0  0  0  0
   35.6460   29.7830   32.5580 C   0  0  0  0  0  0  0  0  0  0  0  0
   37.9740   28.1380   29.9840 H   0  0  0  0  0  0  0  0  0  0  0  0
   36.5790   30.0590   29.3470 H   0  0  0  0  0  0  0  0  0  0  0  0
   35.0650   31.1350   31.0070 H   0  0  0  0  0  0  0  0  0  0  0  0
   37.6710   25.6330   32.1940 C   0  0  0  0  0  0  0  0  0  0  0  0
   38.1400   26.9490   32.3050 C   0  0  0  0  0  0  0  0  0  0  0  0
   39.4480   27.1410   32.7380 C   0  0  0  0  0  0  0  0  0  0  0  0
   40.1900   26.0390   33.0270 N   0  0  0  0  0  0  0  0  0  0  0  0
   39.7290   24.8100   32.9150 C   0  0  0  0  0  0  0  0  0  0  0  0
   38.4660   24.5860   32.4990 N   0  0  0  0  0  0  0  0  0  0  0  0
   36.6680   25.4480   31.8620 H   0  0  0  0  0  0  0  0  0  0  0  0
   39.8240   28.1500   32.8280 H   0  0  0  0  0  0  0  0  0  0  0  0
   40.3790   23.9900   33.1630 H   0  0  0  0  0  0  0  0  0  0  0  0
  1  7  1  6  0  0  0
  1  2  1  0  0  0  0
  1  6  1  0  0  0  0
  2  9  1  0  0  0  0
  2  3  1  0  0  0  0
  3 11  1  0  0  0  0
  3 10  1  0  0  0  0
  3  4  1  0  0  0  0
  4 12  1  0  0  0  0
  4 13  1  0  0  0  0
  5 15  1  0  0  0  0
  5  4  1  0  0  0  0
  6 16  1  6  0  0  0
  6 17  1  0  0  0  0
  6  5  1  0  0  0  0
  8  2  1  0  0  0  0
 14  5  1  0  0  0  0
 17 24  1  0  0  0  0
 18 20  1  0  0  0  0
 18 17  2  0  0  0  0
 19 18  1  0  0  0  0
 20 22  2  0  0  0  0
 21 20  1  0  0  0  0
 22 23  1  0  0  0  0
 24 23  2  0  0  0  0
 25  1  1  0  0  0  0
 27 26  1  0  0  0  0
 28 37  1  0  0  0  0
 28 27  2  0  0  0  0
 29 28  1  0  0  0  0
 30 29  2  0  0  0  0
 30 31  1  0  0  0  0
 31 32  2  0  0  0  0
 32 27  1  0  0  0  0
 32 25  1  0  0  0  0
 33 29  1  0  0  0  0
 34 30  1  0  0  0  0
 35 31  1  0  0  0  0
 36 37  2  0  0  0  0
 36 41  1  0  0  0  0
 37 38  1  0  0  0  0
 38 43  1  0  0  0  0
 38 39  2  0  0  0  0
 40 39  1  0  0  0  0
 40 44  1  0  0  0  0
 41 40  2  0  0  0  0
 42 36  1  0  0  0  0
M  END
>  <minimizedAffinity>
-5.54548979

$$$$

 OpenBabel03272505053D

 44 47  0  0  1  0  0  0  0  0999 V2000
   34.8940   30.3040   33.7360 C   0  0  2  0  0  0  0  0  0  0  0  0
   35.8390   31.2790   34.5010 C   0  0  0  0  0  0  0  0  0  0  0  0
   35.3870   31.3740   35.9280 C   0  0  0  0  0  0  0  0  0  0  0  0
   34.1420   32.2160   35.9850 C   0  0  0  0  0  0  0  0  0  0  0  0
   33.4020   32.0940   34.7120 C   0  0  0  0  0  0  0  0  0  0  0  0
   33.5150   30.7410   34.0810 C   0  0  2  0  0  0  0  0  0  0  0  0
   35.2050   30.3930   32.6760 H   0  0  0  0  0  0  0  0  0  0  0  0
   36.8740   30.8870   34.4700 H   0  0  0  0  0  0  0  0  0  0  0  0
   35.8360   32.2540   34.0250 H   0  0  0  0  0  0  0  0  0  0  0  0
   36.1990   31.8650   36.5320 H   0  0  0  0  0  0  0  0  0  0  0  0
   35.0140   30.4660   36.3900 H   0  0  0  0  0  0  0  0  0  0  0  0
   34.5040   33.2830   36.0600 H   0  0  0  0  0  0  0  0  0  0  0  0
   33.5030   32.0590   36.8560 H   0  0  0  0  0  0  0  0  0  0  0  0
   33.7570   32.8460   33.9510 H   0  0  0  0  0  0  0  0  0  0  0  0
   32.3100   32.3090   34.7930 H   0  0  0  0  0  0  0  0  0  0  0  0
   33.0330   30.9270   33.0530 H   0  0  0  0  0  0  0  0  0  0  0  0
   32.6310   29.7020   34.6580 C   0  0  0  0  0  0  0  0  0  0  0  0
   31.7380   29.0060   33.8320 C   0  0  0  0  0  0  0  0  0  0  0  0
   31.6630   29.2010   32.7510 H   0  0  0  0  0  0  0  0  0  0  0  0
   30.8590   28.0090   34.2710 C   0  0  0  0  0  0  0  0  0  0  0  0
   30.1940   27.5080   33.5820 H   0  0  0  0  0  0  0  0  0  0  0  0
   30.8630   27.6780   35.6090 C   0  0  0  0  0  3  0  0  0  0  0  0
   31.7270   28.3510   36.4080 C   0  0  0  0  0  3  0  0  0  0  0  0
   32.5220   29.2750   35.9250 N   0  0  0  0  0  0  0  0  0  0  0  0
   35.1690   29.0790   34.2640 O   0  0  0  0  0  0  0  0  0  0  0  0
   35.9710   28.2500   31.5980 Cl  0  0  0  0  0  0  0  0  0  0  0  0
   36.8750   27.9280   33.0470 C   0  0  0  0  0  0  0  0  0  0  0  0
   38.0480   27.2320   32.9270 C   0  0  0  0  0  0  0  0  0  0  0  0
   38.7420   26.9900   34.1050 C   0  0  0  0  0  0  0  0  0  0  0  0
   38.2340   27.4470   35.3070 C   0  0  0  0  0  0  0  0  0  0  0  0
   37.0490   28.1430   35.3840 C   0  0  0  0  0  0  0  0  0  0  0  0
   36.3640   28.3840   34.2310 C   0  0  0  0  0  0  0  0  0  0  0  0
   39.6700   26.4410   34.0160 H   0  0  0  0  0  0  0  0  0  0  0  0
   38.8290   27.2220   36.1900 H   0  0  0  0  0  0  0  0  0  0  0  0
   36.6870   28.4840   36.3430 H   0  0  0  0  0  0  0  0  0  0  0  0
   39.4080   27.5500   30.8480 C   0  0  0  0  0  0  0  0  0  0  0  0
   38.5940   26.7410   31.6540 C   0  0  0  0  0  0  0  0  0  0  0  0
   38.3150   25.4520   31.2140 C   0  0  0  0  0  0  0  0  0  0  0  0
   38.8500   25.0550   30.0280 N   0  0  0  0  0  0  0  0  0  0  0  0
   39.6130   25.8320   29.2860 C   0  0  0  0  0  0  0  0  0  0  0  0
   39.9040   27.0870   29.6820 N   0  0  0  0  0  0  0  0  0  0  0  0
   39.6440   28.5500   31.1570 H   0  0  0  0  0  0  0  0  0  0  0  0
   37.6900   24.8170   31.8250 H   0  0  0  0  0  0  0  0  0  0  0  0
   39.9980   25.4440   28.3600 H   0  0  0  0  0  0  0  0  0  0  0  0
  1  7  1  6  0  0  0
  1  6  1  0  0  0  0
  1 25  1  0  0  0  0
  1  2  1  0  0  0  0
  2  3  1  0  0  0  0
  3  4  1  0  0  0  0
  3 11  1  0  0  0  0
  3 10  1  0  0  0  0
  4 12  1  0  0  0  0
  4 13  1  0  0  0  0
  5 15  1  0  0  0  0
  5  4  1  0  0  0  0
  6 16  1  6  0  0  0
  6 17  1  0  0  0  0
  6  5  1  0  0  0  0
  8  2  1  0  0  0  0
  9  2  1  0  0  0  0
 14  5  1  0  0  0  0
 17 24  1  0  0  0  0
 18 20  1  0  0  0  0
 18 17  2  0  0  0  0
 19 18  1  0  0  0  0
 20 22  2  0  0  0  0
 21 20  1  0  0  0  0
 22 23  1  0  0  0  0
 24 23  2  0  0  0  0
 26 27  1  0  0  0  0
 27 32  1  0  0  0  0
 28 27  2  0  0  0  0
 28 29  1  0  0  0  0
 29 30  2  0  0  0  0
 30 31  1  0  0  0  0
 30 34  1  0  0  0  0
 31 35  1  0  0  0  0
 32 25  1  0  0  0  0
 32 31  2  0  0  0  0
 33 29  1  0  0  0  0
 36 42  1  0  0  0  0
 36 37  1  0  0  0  0
 37 28  1  0  0  0  0
 38 37  2  0  0  0  0
 38 43  1  0  0  0  0
 39 38  1  0  0  0  0
 40 41  1  0  0  0  0
 40 39  2  0  0  0  0
 41 36  2  0  0  0  0
 44 40  1  0  0  0  0
M  END
>  <minimizedAffinity>
-5.4012723

$$$$

 OpenBabel03272505053D

 44 47  0  0  1  0  0  0  0  0999 V2000
   36.9730   26.8030   31.1010 C   0  0  2  0  0  0  0  0  0  0  0  0
   35.8570   25.9340   30.4450 C   0  0  0  0  0  0  0  0  0  0  0  0
   35.3070   24.9910   31.4720 C   0  0  0  0  0  0  0  0  0  0  0  0
   36.3080   23.8910   31.7030 C   0  0  0  0  0  0  0  0  0  0  0  0
   37.6710   24.3990   31.4460 C   0  0  0  0  0  0  0  0  0  0  0  0
   37.8530   25.8390   31.8130 C   0  0  2  0  0  0  0  0  0  0  0  0
   37.4160   27.3670   30.2570 H   0  0  0  0  0  0  0  0  0  0  0  0
   35.0450   26.5930   30.0810 H   0  0  0  0  0  0  0  0  0  0  0  0
   36.2570   25.3930   29.5920 H   0  0  0  0  0  0  0  0  0  0  0  0
   34.3490   24.5490   31.0820 H   0  0  0  0  0  0  0  0  0  0  0  0
   35.2120   25.3650   32.4860 H   0  0  0  0  0  0  0  0  0  0  0  0
   36.0860   23.1130   30.9150 H   0  0  0  0  0  0  0  0  0  0  0  0
   36.2290   23.3710   32.6600 H   0  0  0  0  0  0  0  0  0  0  0  0
   37.9550   24.2950   30.3590 H   0  0  0  0  0  0  0  0  0  0  0  0
   38.4770   23.8380   31.9750 H   0  0  0  0  0  0  0  0  0  0  0  0
   38.8940   26.0580   31.3730 H   0  0  0  0  0  0  0  0  0  0  0  0
   38.0640   26.0970   33.2570 C   0  0  0  0  0  0  0  0  0  0  0  0
   39.1360   26.8950   33.6750 C   0  0  0  0  0  0  0  0  0  0  0  0
   39.8450   27.3490   32.9640 H   0  0  0  0  0  0  0  0  0  0  0  0
   39.4280   27.2020   35.0100 C   0  0  0  0  0  0  0  0  0  0  0  0
   40.2720   27.8260   35.2680 H   0  0  0  0  0  0  0  0  0  0  0  0
   38.6080   26.6890   35.9920 C   0  0  0  0  0  3  0  0  0  0  0  0
   37.5700   25.9170   35.5870 C   0  0  0  0  0  3  0  0  0  0  0  0
   37.3590   25.6720   34.3170 N   0  0  0  0  0  0  0  0  0  0  0  0
   36.3070   27.6030   31.9790 O   0  0  0  0  0  0  0  0  0  0  0  0
   35.6360   28.8300   34.5250 Cl  0  0  0  0  0  0  0  0  0  0  0  0
   35.7830   29.6900   33.0220 C   0  0  0  0  0  0  0  0  0  0  0  0
   35.5670   31.0410   33.0360 C   0  0  0  0  0  0  0  0  0  0  0  0
   35.6900   31.6960   31.8170 C   0  0  0  0  0  0  0  0  0  0  0  0
   36.0150   30.9760   30.6820 C   0  0  0  0  0  0  0  0  0  0  0  0
   36.2250   29.6160   30.7120 C   0  0  0  0  0  0  0  0  0  0  0  0
   36.1060   28.9700   31.9050 C   0  0  0  0  0  0  0  0  0  0  0  0
   35.5200   32.7640   31.8220 H   0  0  0  0  0  0  0  0  0  0  0  0
   36.0950   31.5520   29.7620 H   0  0  0  0  0  0  0  0  0  0  0  0
   36.4770   29.0910   29.8020 H   0  0  0  0  0  0  0  0  0  0  0  0
   33.8850   31.9920   34.6300 C   0  0  0  0  0  0  0  0  0  0  0  0
   35.2190   31.8140   34.2370 C   0  0  0  0  0  0  0  0  0  0  0  0
   36.2130   32.3910   35.0200 C   0  0  0  0  0  0  0  0  0  0  0  0
   35.8290   33.0930   36.1180 N   0  0  0  0  0  0  0  0  0  0  0  0
   34.5690   33.2490   36.4700 C   0  0  0  0  0  0  0  0  0  0  0  0
   33.5790   32.7030   35.7360 N   0  0  0  0  0  0  0  0  0  0  0  0
   33.0930   31.5600   34.0500 H   0  0  0  0  0  0  0  0  0  0  0  0
   37.2460   32.2610   34.7290 H   0  0  0  0  0  0  0  0  0  0  0  0
   34.3470   33.8190   37.3550 H   0  0  0  0  0  0  0  0  0  0  0  0
  1  7  1  6  0  0  0
  1  6  1  0  0  0  0
  1 25  1  0  0  0  0
  2  1  1  0  0  0  0
  2  3  1  0  0  0  0
  3  4  1  0  0  0  0
  3 11  1  0  0  0  0
  4 13  1  0  0  0  0
  5  4  1  0  0  0  0
  5  6  1  0  0  0  0
  5 15  1  0  0  0  0
  6 16  1  6  0  0  0
  6 17  1  0  0  0  0
  8  2  1  0  0  0  0
  9  2  1  0  0  0  0
 10  3  1  0  0  0  0
 12  4  1  0  0  0  0
 14  5  1  0  0  0  0
 17 18  2  0  0  0  0
 17 24  1  0  0  0  0
 18 20  1  0  0  0  0
 19 18  1  0  0  0  0
 20 21  1  0  0  0  0
 20 22  2  0  0  0  0
 23 22  1  0  0  0  0
 24 23  2  0  0  0  0
 27 28  1  0  0  0  0
 27 26  1  0  0  0  0
 28 37  1  0  0  0  0
 29 33  1  0  0  0  0
 29 28  2  0  0  0  0
 30 31  2  0  0  0  0
 30 29  1  0  0  0  0
 31 32  1  0  0  0  0
 32 25  1  0  0  0  0
 32 27  2  0  0  0  0
 34 30  1  0  0  0  0
 35 31  1  0  0  0  0
 36 41  1  0  0  0  0
 37 36  2  0  0  0  0
 37 38  1  0  0  0  0
 38 39  2  0  0  0  0
 39 40  1  0  0  0  0
 40 44  1  0  0  0  0
 41 40  2  0  0  0  0
 42 36  1  0  0  0  0
 43 38  1  0  0  0  0
M  END
>  <minimizedAffinity>
-5.36870956

$$$$

 OpenBabel03272505053D

 44 47  0  0  1  0  0  0  0  0999 V2000
   38.2930   27.4020   30.6960 C   0  0  2  0  0  0  0  0  0  0  0  0
   39.5190   27.5040   29.7380 C   0  0  0  0  0  0  0  0  0  0  0  0
   39.8300   28.9510   29.4970 C   0  0  0  0  0  0  0  0  0  0  0  0
   38.7960   29.5160   28.5620 C   0  0  0  0  0  0  0  0  0  0  0  0
   37.5230   28.7860   28.7270 C   0  0  0  0  0  0  0  0  0  0  0  0
   37.2750   28.3260   30.1300 C   0  0  2  0  0  0  0  0  0  0  0  0
   38.0460   26.3230   30.7150 H   0  0  0  0  0  0  0  0  0  0  0  0
   40.3940   27.0150   30.2090 H   0  0  0  0  0  0  0  0  0  0  0  0
   39.3090   26.9890   28.8060 H   0  0  0  0  0  0  0  0  0  0  0  0
   40.8460   29.0280   29.0220 H   0  0  0  0  0  0  0  0  0  0  0  0
   39.7070   29.6290   30.3350 H   0  0  0  0  0  0  0  0  0  0  0  0
   39.1780   29.2930   27.5220 H   0  0  0  0  0  0  0  0  0  0  0  0
   38.6640   30.6000   28.6000 H   0  0  0  0  0  0  0  0  0  0  0  0
   37.4790   27.8730   28.0660 H   0  0  0  0  0  0  0  0  0  0  0  0
   36.6190   29.3640   28.4250 H   0  0  0  0  0  0  0  0  0  0  0  0
   36.3550   27.6490   29.9900 H   0  0  0  0  0  0  0  0  0  0  0  0
   36.7600   29.3670   31.0500 C   0  0  0  0  0  0  0  0  0  0  0  0
   36.9080   30.7210   30.7260 C   0  0  0  0  0  0  0  0  0  0  0  0
   37.4000   31.0540   29.7980 H   0  0  0  0  0  0  0  0  0  0  0  0
   36.4610   31.7850   31.5210 C   0  0  0  0  0  0  0  0  0  0  0  0
   36.6060   32.8110   31.2140 H   0  0  0  0  0  0  0  0  0  0  0  0
   35.8280   31.4900   32.7090 C   0  0  0  0  0  3  0  0  0  0  0  0
   35.6850   30.1790   33.0230 C   0  0  0  0  0  3  0  0  0  0  0  0
   36.1300   29.2360   32.2280 N   0  0  0  0  0  0  0  0  0  0  0  0
   38.7590   27.8560   31.8930 O   0  0  0  0  0  0  0  0  0  0  0  0
   37.0710   26.0480   33.4150 Cl  0  0  0  0  0  0  0  0  0  0  0  0
   38.7770   26.2570   33.6690 C   0  0  0  0  0  0  0  0  0  0  0  0
   39.3700   25.5180   34.6580 C   0  0  0  0  0  0  0  0  0  0  0  0
   40.7330   25.7120   34.8350 C   0  0  0  0  0  0  0  0  0  0  0  0
   41.4080   26.6130   34.0330 C   0  0  0  0  0  0  0  0  0  0  0  0
   40.7730   27.3360   33.0490 C   0  0  0  0  0  0  0  0  0  0  0  0
   39.4360   27.1490   32.8700 C   0  0  0  0  0  0  0  0  0  0  0  0
   41.2070   25.1310   35.6150 H   0  0  0  0  0  0  0  0  0  0  0  0
   42.4740   26.7140   34.2270 H   0  0  0  0  0  0  0  0  0  0  0  0
   41.3380   28.0300   32.4420 H   0  0  0  0  0  0  0  0  0  0  0  0
   38.4730   23.2270   35.1260 C   0  0  0  0  0  0  0  0  0  0  0  0
   38.6590   24.5600   35.5170 C   0  0  0  0  0  0  0  0  0  0  0  0
   38.1500   24.9560   36.7490 C   0  0  0  0  0  0  0  0  0  0  0  0
   37.5030   24.0250   37.4990 N   0  0  0  0  0  0  0  0  0  0  0  0
   37.3400   22.7760   37.1120 C   0  0  0  0  0  0  0  0  0  0  0  0
   37.8200   22.3570   35.9240 N   0  0  0  0  0  0  0  0  0  0  0  0
   38.8530   22.8870   34.1820 H   0  0  0  0  0  0  0  0  0  0  0  0
   38.2870   25.9810   37.0640 H   0  0  0  0  0  0  0  0  0  0  0  0
   36.8150   22.0980   37.7630 H   0  0  0  0  0  0  0  0  0  0  0  0
  1  7  1  1  0  0  0
  1 25  1  0  0  0  0
  2  8  1  0  0  0  0
  2  1  1  0  0  0  0
  3  2  1  0  0  0  0
  3 11  1  0  0  0  0
  4 13  1  0  0  0  0
  4  5  1  0  0  0  0
  4  3  1  0  0  0  0
  5  6  1  0  0  0  0
  6 16  1  6  0  0  0
  6  1  1  0  0  0  0
  6 17  1  0  0  0  0
  9  2  1  0  0  0  0
 10  3  1  0  0  0  0
 12  4  1  0  0  0  0
 14  5  1  0  0  0  0
 15  5  1  0  0  0  0
 17 24  1  0  0  0  0
 18 17  2  0  0  0  0
 18 20  1  0  0  0  0
 19 18  1  0  0  0  0
 20 22  2  0  0  0  0
 21 20  1  0  0  0  0
 22 23  1  0  0  0  0
 24 23  2  0  0  0  0
 25 32  1  0  0  0  0
 26 27  1  0  0  0  0
 27 28  1  0  0  0  0
 28 29  2  0  0  0  0
 28 37  1  0  0  0  0
 29 33  1  0  0  0  0
 30 34  1  0  0  0  0
 30 29  1  0  0  0  0
 31 30  2  0  0  0  0
 32 31  1  0  0  0  0
 32 27  2  0  0  0  0
 35 31  1  0  0  0  0
 36 37  2  0  0  0  0
 36 41  1  0  0  0  0
 37 38  1  0  0  0  0
 38 43  1  0  0  0  0
 38 39  2  0  0  0  0
 40 39  1  0  0  0  0
 40 44  1  0  0  0  0
 41 40  2  0  0  0  0
 42 36  1  0  0  0  0
M  END
>  <minimizedAffinity>
-5.36663532

$$$$

 OpenBabel03272505053D

 44 47  0  0  1  0  0  0  0  0999 V2000
   35.4480   30.5240   34.0250 C   0  0  2  0  0  0  0  0  0  0  0  0
   36.1810   31.4270   35.0630 C   0  0  0  0  0  0  0  0  0  0  0  0
   35.3490   31.5130   36.3070 C   0  0  0  0  0  0  0  0  0  0  0  0
   34.1790   32.4200   36.0430 C   0  0  0  0  0  0  0  0  0  0  0  0
   33.8250   32.3700   34.6100 C   0  0  0  0  0  0  0  0  0  0  0  0
   34.0500   31.0290   33.9840 C   0  0  2  0  0  0  0  0  0  0  0  0
   36.0500   30.6210   33.1000 H   0  0  0  0  0  0  0  0  0  0  0  0
   37.1630   30.9790   35.3100 H   0  0  0  0  0  0  0  0  0  0  0  0
   36.3590   32.4120   34.6430 H   0  0  0  0  0  0  0  0  0  0  0  0
   35.9780   31.9440   37.1340 H   0  0  0  0  0  0  0  0  0  0  0  0
   34.8180   30.6160   36.6100 H   0  0  0  0  0  0  0  0  0  0  0  0
   34.5540   33.4640   36.2590 H   0  0  0  0  0  0  0  0  0  0  0  0
   33.3130   32.2790   36.6930 H   0  0  0  0  0  0  0  0  0  0  0  0
   34.4160   33.1200   34.0090 H   0  0  0  0  0  0  0  0  0  0  0  0
   32.7660   32.6430   34.3890 H   0  0  0  0  0  0  0  0  0  0  0  0
   33.8870   31.2650   32.8700 H   0  0  0  0  0  0  0  0  0  0  0  0
   32.9910   30.0270   34.2480 C   0  0  0  0  0  0  0  0  0  0  0  0
   32.3420   29.3970   33.1780 C   0  0  0  0  0  0  0  0  0  0  0  0
   32.5880   29.6190   32.1280 H   0  0  0  0  0  0  0  0  0  0  0  0
   31.3290   28.4390   33.3130 C   0  0  0  0  0  0  0  0  0  0  0  0
   30.8670   27.9890   32.4460 H   0  0  0  0  0  0  0  0  0  0  0  0
   30.9350   28.0800   34.5850 C   0  0  0  0  0  3  0  0  0  0  0  0
   31.5640   28.6890   35.6190 C   0  0  0  0  0  3  0  0  0  0  0  0
   32.5040   29.5790   35.4160 N   0  0  0  0  0  0  0  0  0  0  0  0
   35.5050   29.2740   34.5620 O   0  0  0  0  0  0  0  0  0  0  0  0
   35.6380   27.7300   32.1050 Cl  0  0  0  0  0  0  0  0  0  0  0  0
   36.7510   27.5770   33.4300 C   0  0  0  0  0  0  0  0  0  0  0  0
   37.7630   26.6620   33.3110 C   0  0  0  0  0  0  0  0  0  0  0  0
   38.6320   26.5630   34.3900 C   0  0  0  0  0  0  0  0  0  0  0  0
   38.4420   27.3660   35.4990 C   0  0  0  0  0  0  0  0  0  0  0  0
   37.4110   28.2740   35.5790 C   0  0  0  0  0  0  0  0  0  0  0  0
   36.5560   28.3750   34.5230 C   0  0  0  0  0  0  0  0  0  0  0  0
   39.4340   25.8420   34.3020 H   0  0  0  0  0  0  0  0  0  0  0  0
   39.1600   27.2360   36.3070 H   0  0  0  0  0  0  0  0  0  0  0  0
   37.2970   28.8830   36.4640 H   0  0  0  0  0  0  0  0  0  0  0  0
   37.3030   24.5780   31.9990 C   0  0  0  0  0  0  0  0  0  0  0  0
   37.9710   25.8030   32.1370 C   0  0  0  0  0  0  0  0  0  0  0  0
   38.8440   26.1880   31.1240 C   0  0  0  0  0  0  0  0  0  0  0  0
   38.9940   25.3510   30.0630 N   0  0  0  0  0  0  0  0  0  0  0  0
   38.3550   24.2040   29.9540 C   0  0  0  0  0  0  0  0  0  0  0  0
   37.5030   23.7990   30.9160 N   0  0  0  0  0  0  0  0  0  0  0  0
   36.6230   24.2510   32.7610 H   0  0  0  0  0  0  0  0  0  0  0  0
   39.3660   27.1290   31.2160 H   0  0  0  0  0  0  0  0  0  0  0  0
   38.5290   23.5970   29.0820 H   0  0  0  0  0  0  0  0  0  0  0  0
  1  7  1  6  0  0  0
  1 25  1  0  0  0  0
  1  2  1  0  0  0  0
  2  8  1  0  0  0  0
  2  3  1  0  0  0  0
  3 11  1  0  0  0  0
  3 10  1  0  0  0  0
  4 12  1  0  0  0  0
  4  3  1  0  0  0  0
  4 13  1  0  0  0  0
  5  4  1  0  0  0  0
  6 16  1  6  0  0  0
  6  1  1  0  0  0  0
  6 17  1  0  0  0  0
  6  5  1  0  0  0  0
  9  2  1  0  0  0  0
 14  5  1  0  0  0  0
 15  5  1  0  0  0  0
 17 24  1  0  0  0  0
 18 20  1  0  0  0  0
 18 17  2  0  0  0  0
 19 18  1  0  0  0  0
 20 22  2  0  0  0  0
 21 20  1  0  0  0  0
 22 23  1  0  0  0  0
 24 23  2  0  0  0  0
 26 27  1  0  0  0  0
 27 32  1  0  0  0  0
 28 27  2  0  0  0  0
 28 29  1  0  0  0  0
 29 30  2  0  0  0  0
 30 31  1  0  0  0  0
 30 34  1  0  0  0  0
 31 35  1  0  0  0  0
 32 25  1  0  0  0  0
 32 31  2  0  0  0  0
 33 29  1  0  0  0  0
 36 37  1  0  0  0  0
 36 42  1  0  0  0  0
 37 28  1  0  0  0  0
 38 43  1  0  0  0  0
 38 37  2  0  0  0  0
 39 38  1  0  0  0  0
 40 39  2  0  0  0  0
 40 41  1  0  0  0  0
 41 36  2  0  0  0  0
 44 40  1  0  0  0  0
M  END
>  <minimizedAffinity>
-5.32998896

$$$$

 OpenBabel03272505053D

 44 47  0  0  1  0  0  0  0  0999 V2000
   38.7350   22.9550   33.8840 C   0  0  2  0  0  0  0  0  0  0  0  0
   38.2820   22.3080   35.2270 C   0  0  0  0  0  0  0  0  0  0  0  0
   38.8380   23.1100   36.3660 C   0  0  0  0  0  0  0  0  0  0  0  0
   40.3090   22.8180   36.4880 C   0  0  0  0  0  0  0  0  0  0  0  0
   40.8550   22.4570   35.1640 C   0  0  0  0  0  0  0  0  0  0  0  0
   40.1980   23.1770   34.0280 C   0  0  2  0  0  0  0  0  0  0  0  0
   38.4040   22.2380   33.1060 H   0  0  0  0  0  0  0  0  0  0  0  0
   37.1760   22.3120   35.2830 H   0  0  0  0  0  0  0  0  0  0  0  0
   38.6160   21.2760   35.2770 H   0  0  0  0  0  0  0  0  0  0  0  0
   38.3160   22.8030   37.3130 H   0  0  0  0  0  0  0  0  0  0  0  0
   38.8760   24.1870   36.2390 H   0  0  0  0  0  0  0  0  0  0  0  0
   40.3800   21.9000   37.1410 H   0  0  0  0  0  0  0  0  0  0  0  0
   40.9040   23.5840   36.9910 H   0  0  0  0  0  0  0  0  0  0  0  0
   40.7540   21.3520   34.9590 H   0  0  0  0  0  0  0  0  0  0  0  0
   41.9510   22.6380   35.0540 H   0  0  0  0  0  0  0  0  0  0  0  0
   40.6390   22.6250   33.1200 H   0  0  0  0  0  0  0  0  0  0  0  0
   40.6680   24.5650   33.8080 C   0  0  0  0  0  0  0  0  0  0  0  0
   40.8890   25.0300   32.5050 C   0  0  0  0  0  0  0  0  0  0  0  0
   40.7260   24.3970   31.6190 H   0  0  0  0  0  0  0  0  0  0  0  0
   41.3320   26.3190   32.1830 C   0  0  0  0  0  0  0  0  0  0  0  0
   41.4840   26.6170   31.1560 H   0  0  0  0  0  0  0  0  0  0  0  0
   41.5700   27.2040   33.2140 C   0  0  0  0  0  3  0  0  0  0  0  0
   41.3560   26.7540   34.4740 C   0  0  0  0  0  3  0  0  0  0  0  0
   40.9400   25.5310   34.6990 N   0  0  0  0  0  0  0  0  0  0  0  0
   38.0590   24.1370   33.8320 O   0  0  0  0  0  0  0  0  0  0  0  0
   37.8970   27.0290   33.6130 Cl  0  0  0  0  0  0  0  0  0  0  0  0
   36.9940   25.9110   32.6360 C   0  0  0  0  0  0  0  0  0  0  0  0
   36.1420   26.4280   31.6970 C   0  0  0  0  0  0  0  0  0  0  0  0
   35.4340   25.5070   30.9360 C   0  0  0  0  0  0  0  0  0  0  0  0
   35.6140   24.1540   31.1550 C   0  0  0  0  0  0  0  0  0  0  0  0
   36.4810   23.6760   32.1110 C   0  0  0  0  0  0  0  0  0  0  0  0
   37.1790   24.5750   32.8590 C   0  0  0  0  0  0  0  0  0  0  0  0
   34.7600   25.9100   30.1920 H   0  0  0  0  0  0  0  0  0  0  0  0
   35.0280   23.4890   30.5240 H   0  0  0  0  0  0  0  0  0  0  0  0
   36.5930   22.6100   32.2500 H   0  0  0  0  0  0  0  0  0  0  0  0
   35.0460   28.6160   32.2310 C   0  0  0  0  0  0  0  0  0  0  0  0
   35.9430   27.8650   31.4590 C   0  0  0  0  0  0  0  0  0  0  0  0
   36.6460   28.5200   30.4530 C   0  0  0  0  0  0  0  0  0  0  0  0
   36.4190   29.8490   30.2810 N   0  0  0  0  0  0  0  0  0  0  0  0
   35.5710   30.5370   31.0190 C   0  0  0  0  0  0  0  0  0  0  0  0
   34.8730   29.9350   32.0020 N   0  0  0  0  0  0  0  0  0  0  0  0
   34.4880   28.1430   33.0150 H   0  0  0  0  0  0  0  0  0  0  0  0
   37.3410   27.9540   29.8500 H   0  0  0  0  0  0  0  0  0  0  0  0
   35.4470   31.5870   30.8210 H   0  0  0  0  0  0  0  0  0  0  0  0
  1  7  1  6  0  0  0
  1  6  1  0  0  0  0
  1  2  1  0  0  0  0
  2  9  1  0  0  0  0
  2  8  1  0  0  0  0
  2  3  1  0  0  0  0
  3  4  1  0  0  0  0
  3 10  1  0  0  0  0
  4 13  1  0  0  0  0
  4 12  1  0  0  0  0
  5  4  1  0  0  0  0
  6 16  1  6  0  0  0
  6  5  1  0  0  0  0
 11  3  1  0  0  0  0
 14  5  1  0  0  0  0
 15  5  1  0  0  0  0
 17  6  1  0  0  0  0
 17 24  1  0  0  0  0
 18 17  2  0  0  0  0
 19 18  1  0  0  0  0
 20 18  1  0  0  0  0
 20 22  2  0  0  0  0
 21 20  1  0  0  0  0
 22 23  1  0  0  0  0
 23 24  2  0  0  0  0
 25  1  1  0  0  0  0
 27 32  1  0  0  0  0
 27 26  1  0  0  0  0
 28 27  2  0  0  0  0
 29 30  2  0  0  0  0
 29 28  1  0  0  0  0
 30 31  1  0  0  0  0
 31 35  1  0  0  0  0
 31 32  2  0  0  0  0
 32 25  1  0  0  0  0
 33 29  1  0  0  0  0
 34 30  1  0  0  0  0
 36 42  1  0  0  0  0
 37 28  1  0  0  0  0
 37 36  2  0  0  0  0
 38 37  1  0  0  0  0
 39 38  2  0  0  0  0
 39 40  1  0  0  0  0
 40 41  2  0  0  0  0
 41 36  1  0  0  0  0
 43 38  1  0  0  0  0
 44 40  1  0  0  0  0
M  END
>  <minimizedAffinity>
-5.32188988

$$$$

 OpenBabel03272505053D

 44 47  0  0  1  0  0  0  0  0999 V2000
   39.9040   27.0000   33.8070 C   0  0  2  0  0  0  0  0  0  0  0  0
   40.7750   26.9110   32.5180 C   0  0  0  0  0  0  0  0  0  0  0  0
   40.9570   25.4670   32.1540 C   0  0  0  0  0  0  0  0  0  0  0  0
   41.9440   24.8510   33.1070 C   0  0  0  0  0  0  0  0  0  0  0  0
   41.8830   25.5490   34.4060 C   0  0  0  0  0  0  0  0  0  0  0  0
   40.5120   26.0350   34.7610 C   0  0  2  0  0  0  0  0  0  0  0  0
   39.9300   28.0730   34.0850 H   0  0  0  0  0  0  0  0  0  0  0  0
   40.2600   27.4350   31.6900 H   0  0  0  0  0  0  0  0  0  0  0  0
   41.7320   27.3970   32.6790 H   0  0  0  0  0  0  0  0  0  0  0  0
   41.3610   25.4070   31.1060 H   0  0  0  0  0  0  0  0  0  0  0  0
   40.1120   24.8060   32.3150 H   0  0  0  0  0  0  0  0  0  0  0  0
   42.9620   25.0590   32.6620 H   0  0  0  0  0  0  0  0  0  0  0  0
   41.8870   23.7650   33.2120 H   0  0  0  0  0  0  0  0  0  0  0  0
   42.5690   26.4440   34.4300 H   0  0  0  0  0  0  0  0  0  0  0  0
   42.2300   24.9380   35.2730 H   0  0  0  0  0  0  0  0  0  0  0  0
   40.7310   26.6820   35.6870 H   0  0  0  0  0  0  0  0  0  0  0  0
   39.6010   25.0030   35.3080 C   0  0  0  0  0  0  0  0  0  0  0  0
   39.7730   23.6590   34.9510 C   0  0  0  0  0  0  0  0  0  0  0  0
   40.5700   23.3290   34.2660 H   0  0  0  0  0  0  0  0  0  0  0  0
   38.9710   22.6050   35.4070 C   0  0  0  0  0  0  0  0  0  0  0  0
   39.1560   21.5870   35.0930 H   0  0  0  0  0  0  0  0  0  0  0  0
   37.9380   22.8970   36.2710 C   0  0  0  0  0  3  0  0  0  0  0  0
   37.7730   24.1970   36.6170 C   0  0  0  0  0  3  0  0  0  0  0  0
   38.5640   25.1320   36.1490 N   0  0  0  0  0  0  0  0  0  0  0  0
   38.6670   26.5890   33.4110 O   0  0  0  0  0  0  0  0  0  0  0  0
   37.2670   28.1420   35.4270 Cl  0  0  0  0  0  0  0  0  0  0  0  0
   36.8800   28.1430   33.7330 C   0  0  0  0  0  0  0  0  0  0  0  0
   35.8400   28.9300   33.3170 C   0  0  0  0  0  0  0  0  0  0  0  0
   35.5560   28.9050   31.9580 C   0  0  0  0  0  0  0  0  0  0  0  0
   36.3110   28.1110   31.1140 C   0  0  0  0  0  0  0  0  0  0  0  0
   37.3500   27.3340   31.5750 C   0  0  0  0  0  0  0  0  0  0  0  0
   37.6330   27.3560   32.9070 C   0  0  0  0  0  0  0  0  0  0  0  0
   34.7360   29.5250   31.6220 H   0  0  0  0  0  0  0  0  0  0  0  0
   36.0340   28.1390   30.0620 H   0  0  0  0  0  0  0  0  0  0  0  0
   37.9160   26.7280   30.8820 H   0  0  0  0  0  0  0  0  0  0  0  0
   33.7560   29.3770   34.6320 C   0  0  0  0  0  0  0  0  0  0  0  0
   35.0310   29.7750   34.2060 C   0  0  0  0  0  0  0  0  0  0  0  0
   35.5150   31.0010   34.6520 C   0  0  0  0  0  0  0  0  0  0  0  0
   34.7200   31.7370   35.4730 N   0  0  0  0  0  0  0  0  0  0  0  0
   33.5240   31.3440   35.8610 C   0  0  0  0  0  0  0  0  0  0  0  0
   33.0230   30.1620   35.4490 N   0  0  0  0  0  0  0  0  0  0  0  0
   33.3520   28.4380   34.3080 H   0  0  0  0  0  0  0  0  0  0  0  0
   36.4960   31.3200   34.3330 H   0  0  0  0  0  0  0  0  0  0  0  0
   32.9560   31.9840   36.5130 H   0  0  0  0  0  0  0  0  0  0  0  0
  1  7  1  1  0  0  0
  1  6  1  0  0  0  0
  2  9  1  0  0  0  0
  2  1  1  0  0  0  0
  3 11  1  0  0  0  0
  3  2  1  0  0  0  0
  3  4  1  0  0  0  0
  4 13  1  0  0  0  0
  4  5  1  0  0  0  0
  5 14  1  0  0  0  0
  5  6  1  0  0  0  0
  5 15  1  0  0  0  0
  6 17  1  0  0  0  0
  6 16  1  1  0  0  0
  8  2  1  0  0  0  0
 10  3  1  0  0  0  0
 12  4  1  0  0  0  0
 17 24  1  0  0  0  0
 18 17  2  0  0  0  0
 18 20  1  0  0  0  0
 19 18  1  0  0  0  0
 20 22  2  0  0  0  0
 21 20  1  0  0  0  0
 22 23  1  0  0  0  0
 24 23  2  0  0  0  0
 25  1  1  0  0  0  0
 27 26  1  0  0  0  0
 28 27  1  0  0  0  0
 28 37  1  0  0  0  0
 29 28  2  0  0  0  0
 30 31  2  0  0  0  0
 30 29  1  0  0  0  0
 31 32  1  0  0  0  0
 32 25  1  0  0  0  0
 32 27  2  0  0  0  0
 33 29  1  0  0  0  0
 34 30  1  0  0  0  0
 35 31  1  0  0  0  0
 36 41  1  0  0  0  0
 37 36  2  0  0  0  0
 37 38  1  0  0  0  0
 38 39  2  0  0  0  0
 39 40  1  0  0  0  0
 40 44  1  0  0  0  0
 41 40  2  0  0  0  0
 42 36  1  0  0  0  0
 43 38  1  0  0  0  0
M  END
>  <minimizedAffinity>
-5.30933905

$$$$
