
 OpenBabel03272509213D

 45 49  0  0  0  0  0  0  0  0999 V2000
   37.9780   31.2750   47.7760 C   0  0  0  0  0  0  0  0  0  0  0  0
   37.0620   31.2960   48.8120 C   0  0  0  0  0  0  0  0  0  0  0  0
   37.1820   32.4040   49.6660 C   0  0  0  0  0  0  0  0  0  0  0  0
   38.1540   33.3870   49.4650 C   0  0  0  0  0  0  0  0  0  0  0  0
   39.0450   33.2750   48.3750 C   0  0  0  0  0  0  0  0  0  0  0  0
   38.9330   32.1780   47.5210 C   0  0  0  0  0  0  0  0  0  0  0  0
   36.5160   32.5150   50.5040 H   0  0  0  0  0  0  0  0  0  0  0  0
   38.2300   34.2310   50.1320 H   0  0  0  0  0  0  0  0  0  0  0  0
   39.7890   34.0500   48.2400 H   0  0  0  0  0  0  0  0  0  0  0  0
   34.9020   30.3030   48.2770 C   0  0  0  0  0  0  0  0  0  0  0  0
   36.0710   30.2950   49.0200 C   0  0  0  0  0  0  0  0  0  0  0  0
   36.2310   29.2700   49.9720 C   0  0  0  0  0  0  0  0  0  0  0  0
   35.2460   28.3540   50.1130 N   0  0  0  0  0  0  0  0  0  0  0  0
   34.1150   28.4040   49.3580 C   0  0  0  0  0  0  0  0  0  0  0  0
   33.9440   29.3720   48.4460 N   0  0  0  0  0  0  0  0  0  0  0  0
   34.7480   31.0690   47.5440 H   0  0  0  0  0  0  0  0  0  0  0  0
   33.4100   27.6100   49.5740 H   0  0  0  0  0  0  0  0  0  0  0  0
   37.4620   29.2110   50.7980 C   0  0  0  0  0  0  0  0  0  0  0  0
   37.2740   28.5260   51.6490 H   0  0  0  0  0  0  0  0  0  0  0  0
   37.8020   30.2210   51.1140 H   0  0  0  0  0  0  0  0  0  0  0  0
   38.2450   28.7430   50.1620 H   0  0  0  0  0  0  0  0  0  0  0  0
   37.9420   30.2110   46.8680 O   0  0  0  0  0  0  0  0  0  0  0  0
   37.3500   30.1760   46.0620 H   0  0  0  0  0  0  0  0  0  0  0  0
   39.8400   32.1330   46.4740 O   0  0  0  0  0  0  0  0  0  0  0  0
   40.2230   31.3110   44.1740 C   0  0  0  0  0  0  0  0  0  0  0  0
   39.5390   31.9850   45.1550 C   0  0  0  0  0  0  0  0  0  0  0  0
   38.3590   32.6320   44.8090 C   0  0  0  0  0  0  0  0  0  0  0  0
   37.8730   32.5980   43.4890 C   0  0  0  0  0  0  0  0  0  0  0  0
   36.8060   33.1000   42.8490 N   0  0  0  0  0  0  0  0  0  0  0  0
   36.8230   32.7610   41.5570 C   0  0  0  0  0  0  0  0  0  0  0  0
   37.9380   32.0210   41.3770 N   0  0  0  0  0  0  0  0  0  0  0  0
   38.6070   31.9030   42.5490 C   0  0  0  0  0  0  0  0  0  0  0  0
   39.7710   31.2610   42.8770 C   0  0  0  0  0  0  0  0  0  0  0  0
   41.1210   30.8320   44.4960 H   0  0  0  0  0  0  0  0  0  0  0  0
   37.7200   33.1990   45.4760 H   0  0  0  0  0  0  0  0  0  0  0  0
   36.0670   33.6770   43.3080 H   0  0  0  0  0  0  0  0  0  0  0  0
   36.0890   33.0250   40.7980 H   0  0  0  0  0  0  0  0  0  0  0  0
   40.4960   30.5460   41.8380 C   0  0  0  0  0  0  0  0  0  0  0  0
   40.7240   31.0330   40.5740 C   0  0  0  0  0  0  0  0  0  0  0  0
   40.3510   32.0100   40.3060 H   0  0  0  0  0  0  0  0  0  0  0  0
   41.4100   30.3620   39.5830 C   0  0  0  0  0  0  0  0  0  0  0  0
   41.5720   30.7770   38.5940 H   0  0  0  0  0  0  0  0  0  0  0  0
   41.9160   29.1080   39.8520 C   0  0  0  0  0  3  0  0  0  0  0  0
   41.6810   28.6280   41.1240 C   0  0  0  0  0  3  0  0  0  0  0  0
   41.0070   29.3190   42.0580 N   0  0  0  0  0  0  0  0  0  0  0  0
  1  2  1  0  0  0  0
  2 11  1  0  0  0  0
  2  3  2  0  0  0  0
  3  7  1  0  0  0  0
  4  3  1  0  0  0  0
  4  8  1  0  0  0  0
  5  4  2  0  0  0  0
  6  1  2  0  0  0  0
  6  5  1  0  0  0  0
  9  5  1  0  0  0  0
 10 15  2  0  0  0  0
 10 11  1  0  0  0  0
 11 12  2  0  0  0  0
 12 13  1  0  0  0  0
 12 18  1  0  0  0  0
 14 17  1  0  0  0  0
 14 13  2  0  0  0  0
 15 14  1  0  0  0  0
 16 10  1  0  0  0  0
 18 20  1  0  0  0  0
 18 19  1  0  0  0  0
 21 18  1  0  0  0  0
 22  1  1  0  0  0  0
 23 22  1  0  0  0  0
 24  6  1  0  0  0  0
 25 34  1  0  0  0  0
 25 26  1  0  0  0  0
 26 24  1  0  0  0  0
 27 26  2  0  0  0  0
 27 35  1  0  0  0  0
 28 27  1  0  0  0  0
 29 36  1  0  0  0  0
 29 28  1  0  0  0  0
 30 29  1  0  0  0  0
 31 30  2  0  0  0  0
 31 32  1  0  0  0  0
 32 33  1  0  0  0  0
 32 28  2  0  0  0  0
 33 25  2  0  0  0  0
 37 30  1  0  0  0  0
 38 45  1  0  0  0  0
 38 33  1  0  0  0  0
 39 38  2  0  0  0  0
 40 39  1  0  0  0  0
 41 43  2  0  0  0  0
 41 39  1  0  0  0  0
 42 41  1  0  0  0  0
 43 44  1  0  0  0  0
 44 45  2  0  0  0  0
M  END
>  <minimizedAffinity>
-7.70680761

>  <minimizedRMSD>
0.520274162

$$$$
