
 OpenBabel03272506343D

 18 19  0  0  0  0  0  0  0  0999 V2000
   37.4860   30.1190   50.9140 C   0  0  0  0  0  0  0  0  0  0  0  0
   38.2690   31.1340   50.3180 C   0  0  0  0  0  0  0  0  0  0  0  0
   37.8990   31.5750   49.0570 C   0  0  0  0  0  0  0  0  0  0  0  0
   36.8170   31.0290   48.4470 N   0  0  0  0  0  0  0  0  0  0  0  0
   36.0740   30.0490   49.0430 C   0  0  0  0  0  0  0  0  0  0  0  0
   36.4270   29.6200   50.2600 N   0  0  0  0  0  0  0  0  0  0  0  0
   39.1360   31.5890   50.7780 H   0  0  0  0  0  0  0  0  0  0  0  0
   38.4540   32.3530   48.5330 H   0  0  0  0  0  0  0  0  0  0  0  0
   34.9080   29.4580   48.3910 C   0  0  0  0  0  0  0  0  0  0  0  0
   34.4550   28.2460   48.8420 C   0  0  0  0  0  0  0  0  0  0  0  0
   34.9460   27.7330   49.6630 H   0  0  0  0  0  0  0  0  0  0  0  0
   33.3690   27.6110   48.2970 C   0  0  0  0  0  0  0  0  0  0  0  0
   32.9400   26.6690   48.5760 H   0  0  0  0  0  0  0  0  0  0  0  0
   32.7530   28.2840   47.2460 C   0  0  0  0  0  0  0  0  0  0  0  0
   33.2080   29.5040   46.7920 C   0  0  0  0  0  0  0  0  0  0  0  0
   34.2800   30.0750   47.3710 N   0  0  0  0  0  0  0  0  0  0  0  0
   37.9520   29.7670   52.1650 O   0  0  0  0  0  0  0  0  0  0  0  0
   37.4320   30.1280   52.9570 H   0  0  0  0  0  0  0  0  0  0  0  0
  1 17  1  0  0  0  0
  2  7  1  0  0  0  0
  2  1  1  0  0  0  0
  3  2  2  0  0  0  0
  4  5  2  0  0  0  0
  4  3  1  0  0  0  0
  5  6  1  0  0  0  0
  6  1  2  0  0  0  0
  8  3  1  0  0  0  0
  9 10  1  0  0  0  0
  9  5  1  0  0  0  0
 10 11  1  0  0  0  0
 12 13  1  0  0  0  0
 12 10  2  0  0  0  0
 14 12  1  0  0  0  0
 15 14  2  0  0  0  0
 15 16  1  0  0  0  0
 16  9  2  0  0  0  0
 17 18  1  0  0  0  0
M  END
>  <minimizedAffinity>
-4.78970909

>  <minimizedRMSD>
1.74300635

$$$$
