
 OpenBabel03272509213D

 45 49  0  0  0  0  0  0  0  0999 V2000
   38.0130   31.2580   47.7080 C   0  0  0  0  0  0  0  0  0  0  0  0
   37.0990   31.2930   48.7460 C   0  0  0  0  0  0  0  0  0  0  0  0
   37.2340   32.4030   49.5950 C   0  0  0  0  0  0  0  0  0  0  0  0
   38.2170   33.3740   49.3890 C   0  0  0  0  0  0  0  0  0  0  0  0
   39.1050   33.2480   48.2980 C   0  0  0  0  0  0  0  0  0  0  0  0
   38.9780   32.1500   47.4480 C   0  0  0  0  0  0  0  0  0  0  0  0
   36.5710   32.5240   50.4340 H   0  0  0  0  0  0  0  0  0  0  0  0
   38.3030   34.2190   50.0530 H   0  0  0  0  0  0  0  0  0  0  0  0
   39.8570   34.0140   48.1580 H   0  0  0  0  0  0  0  0  0  0  0  0
   34.9400   30.3060   48.1970 C   0  0  0  0  0  0  0  0  0  0  0  0
   36.0980   30.3040   48.9580 C   0  0  0  0  0  0  0  0  0  0  0  0
   36.2350   29.2980   49.9340 C   0  0  0  0  0  0  0  0  0  0  0  0
   35.2400   28.3920   50.0790 N   0  0  0  0  0  0  0  0  0  0  0  0
   34.1220   28.4360   49.3050 C   0  0  0  0  0  0  0  0  0  0  0  0
   33.9720   29.3870   48.3700 N   0  0  0  0  0  0  0  0  0  0  0  0
   34.8030   31.0580   47.4470 H   0  0  0  0  0  0  0  0  0  0  0  0
   33.4070   27.6520   49.5270 H   0  0  0  0  0  0  0  0  0  0  0  0
   37.4530   29.2460   50.7790 C   0  0  0  0  0  0  0  0  0  0  0  0
   37.2470   28.5810   51.6410 H   0  0  0  0  0  0  0  0  0  0  0  0
   37.7960   30.2600   51.0790 H   0  0  0  0  0  0  0  0  0  0  0  0
   38.2420   28.7590   50.1650 H   0  0  0  0  0  0  0  0  0  0  0  0
   37.9630   30.1910   46.8030 O   0  0  0  0  0  0  0  0  0  0  0  0
   37.3690   30.1600   45.9990 H   0  0  0  0  0  0  0  0  0  0  0  0
   39.8830   32.0900   46.4000 O   0  0  0  0  0  0  0  0  0  0  0  0
   40.1750   31.0570   44.1730 C   0  0  0  0  0  0  0  0  0  0  0  0
   39.5810   31.8910   45.0880 C   0  0  0  0  0  0  0  0  0  0  0  0
   38.5110   32.6730   44.6690 C   0  0  0  0  0  0  0  0  0  0  0  0
   38.0430   32.6120   43.3430 C   0  0  0  0  0  0  0  0  0  0  0  0
   37.0680   33.2130   42.6450 N   0  0  0  0  0  0  0  0  0  0  0  0
   37.0530   32.7820   41.3810 C   0  0  0  0  0  0  0  0  0  0  0  0
   38.0520   31.8800   41.2790 N   0  0  0  0  0  0  0  0  0  0  0  0
   38.6820   31.7530   42.4720 C   0  0  0  0  0  0  0  0  0  0  0  0
   39.7370   30.9790   42.8720 C   0  0  0  0  0  0  0  0  0  0  0  0
   40.9910   30.4810   44.5480 H   0  0  0  0  0  0  0  0  0  0  0  0
   37.9510   33.3720   45.2790 H   0  0  0  0  0  0  0  0  0  0  0  0
   36.4130   33.9210   43.0450 H   0  0  0  0  0  0  0  0  0  0  0  0
   36.3740   33.0920   40.5880 H   0  0  0  0  0  0  0  0  0  0  0  0
   40.3670   30.0940   41.9020 C   0  0  0  0  0  0  0  0  0  0  0  0
   41.2340   30.5080   40.9210 C   0  0  0  0  0  0  0  0  0  0  0  0
   41.4840   31.5550   40.8400 H   0  0  0  0  0  0  0  0  0  0  0  0
   41.8340   29.6760   39.9990 C   0  0  0  0  0  0  0  0  0  0  0  0
   42.5150   30.0360   39.2360 H   0  0  0  0  0  0  0  0  0  0  0  0
   41.5620   28.3250   40.0400 C   0  0  0  0  0  3  0  0  0  0  0  0
   40.6900   27.9210   41.0290 C   0  0  0  0  0  3  0  0  0  0  0  0
   40.1280   28.7680   41.9070 N   0  0  0  0  0  0  0  0  0  0  0  0
  1  2  1  0  0  0  0
  2 11  1  0  0  0  0
  2  3  2  0  0  0  0
  3  7  1  0  0  0  0
  4  3  1  0  0  0  0
  4  8  1  0  0  0  0
  5  4  2  0  0  0  0
  6  1  2  0  0  0  0
  6  5  1  0  0  0  0
  9  5  1  0  0  0  0
 10 15  2  0  0  0  0
 10 11  1  0  0  0  0
 11 12  2  0  0  0  0
 12 13  1  0  0  0  0
 12 18  1  0  0  0  0
 14 17  1  0  0  0  0
 14 13  2  0  0  0  0
 15 14  1  0  0  0  0
 16 10  1  0  0  0  0
 18 20  1  0  0  0  0
 18 19  1  0  0  0  0
 21 18  1  0  0  0  0
 22  1  1  0  0  0  0
 23 22  1  0  0  0  0
 24  6  1  0  0  0  0
 25 34  1  0  0  0  0
 25 26  1  0  0  0  0
 26 24  1  0  0  0  0
 27 26  2  0  0  0  0
 27 35  1  0  0  0  0
 28 27  1  0  0  0  0
 29 36  1  0  0  0  0
 29 28  1  0  0  0  0
 30 29  1  0  0  0  0
 31 30  2  0  0  0  0
 31 32  1  0  0  0  0
 32 33  1  0  0  0  0
 32 28  2  0  0  0  0
 33 25  2  0  0  0  0
 37 30  1  0  0  0  0
 38 45  1  0  0  0  0
 38 33  1  0  0  0  0
 39 38  2  0  0  0  0
 40 39  1  0  0  0  0
 41 43  2  0  0  0  0
 41 39  1  0  0  0  0
 42 41  1  0  0  0  0
 43 44  1  0  0  0  0
 44 45  2  0  0  0  0
M  END
>  <minimizedAffinity>
-7.51105642

>  <minimizedRMSD>
0.485546768

$$$$
