
 OpenBabel03272508133D

 33 35  0  0  0  0  0  0  0  0999 V2000
   38.0970   23.1070   33.2770 Cl  0  0  0  0  0  0  0  0  0  0  0  0
   37.0230   24.2260   32.4160 C   0  0  0  0  0  0  0  0  0  0  0  0
   37.1440   25.6130   32.4990 C   0  0  0  0  0  0  0  0  0  0  0  0
   36.2440   26.3790   31.7780 C   0  0  0  0  0  0  0  0  0  0  0  0
   35.2710   25.7980   31.0090 C   0  0  0  0  0  0  0  0  0  0  0  0
   35.1480   24.4510   30.9240 C   0  0  0  0  0  0  0  0  0  0  0  0
   36.0160   23.6740   31.6210 C   0  0  0  0  0  0  0  0  0  0  0  0
   36.4090   27.4490   31.8980 H   0  0  0  0  0  0  0  0  0  0  0  0
   34.6520   26.5360   30.5110 H   0  0  0  0  0  0  0  0  0  0  0  0
   34.3550   24.0940   30.2980 H   0  0  0  0  0  0  0  0  0  0  0  0
   35.9170   22.2200   31.5560 C   0  0  0  0  0  0  0  0  0  0  0  0
   35.0350   21.4840   32.3110 C   0  0  0  0  0  0  0  0  0  0  0  0
   34.3720   21.9570   32.9890 H   0  0  0  0  0  0  0  0  0  0  0  0
   34.9320   20.1100   32.2610 C   0  0  0  0  0  0  0  0  0  0  0  0
   34.2180   19.5630   32.8770 H   0  0  0  0  0  0  0  0  0  0  0  0
   35.7520   19.4000   31.4080 C   0  0  0  0  0  3  0  0  0  0  0  0
   36.6360   20.1400   30.6530 C   0  0  0  0  0  3  0  0  0  0  0  0
   36.6960   21.4820   30.7400 N   0  0  0  0  0  0  0  0  0  0  0  0
   38.1730   26.0090   33.3130 O   0  0  0  0  0  0  0  0  0  0  0  0
   39.4800   27.1350   35.2290 O   0  0  0  0  0  0  0  0  0  0  0  0
   38.1350   26.6290   34.8620 P   0  0  1  0  0  0  0  0  0  0  0  0
   37.0220   27.9310   34.7860 O   0  0  0  0  0  0  0  0  0  0  0  0
   37.5130   28.7980   34.7760 H   0  0  0  0  0  0  0  0  0  0  0  0
   37.5420   25.4490   35.9200 O   0  0  0  0  0  0  0  0  0  0  0  0
   38.8210   23.3460   38.6740 C   0  0  0  0  0  0  0  0  0  0  0  0
   37.9690   24.2810   38.0450 C   0  0  0  0  0  0  0  0  0  0  0  0
   38.2090   24.6030   36.7100 C   0  0  0  0  0  0  0  0  0  0  0  0
   39.2680   23.9870   36.0870 N   0  0  0  0  0  0  0  0  0  0  0  0
   40.0520   23.1050   36.7220 C   0  0  0  0  0  0  0  0  0  0  0  0
   39.8290   22.7850   38.0130 N   0  0  0  0  0  0  0  0  0  0  0  0
   38.5600   23.1570   39.7070 H   0  0  0  0  0  0  0  0  0  0  0  0
   37.1390   24.7930   38.4610 H   0  0  0  0  0  0  0  0  0  0  0  0
   40.8870   22.6200   36.2240 H   0  0  0  0  0  0  0  0  0  0  0  0
  2  3  1  0  0  0  0
  2  1  1  0  0  0  0
  3 19  1  0  0  0  0
  4  8  1  0  0  0  0
  4  3  2  0  0  0  0
  5  4  1  0  0  0  0
  6  5  2  0  0  0  0
  6  7  1  0  0  0  0
  7  2  2  0  0  0  0
  9  5  1  0  0  0  0
 10  6  1  0  0  0  0
 11  7  1  0  0  0  0
 11 12  1  0  0  0  0
 12 13  1  0  0  0  0
 14 12  2  0  0  0  0
 14 15  1  0  0  0  0
 16 14  1  0  0  0  0
 17 18  1  0  0  0  0
 17 16  2  0  0  0  0
 18 11  2  0  0  0  0
 19 21  1  0  0  0  0
 21 20  2  1  0  0  0
 21 24  1  0  0  0  0
 22 21  1  0  0  0  0
 23 22  1  0  0  0  0
 24 27  1  0  0  0  0
 25 31  1  0  0  0  0
 26 32  1  0  0  0  0
 26 25  1  0  0  0  0
 27 26  2  0  0  0  0
 28 27  1  0  0  0  0
 28 29  2  0  0  0  0
 29 30  1  0  0  0  0
 30 25  2  0  0  0  0
 33 29  1  0  0  0  0
M  END
>  <minimizedAffinity>
-6.20733643

$$$$

 OpenBabel03272508133D

 33 35  0  0  0  0  0  0  0  0999 V2000
   35.9580   30.4080   35.3190 Cl  0  0  0  0  0  0  0  0  0  0  0  0
   36.0040   29.6910   33.6970 C   0  0  0  0  0  0  0  0  0  0  0  0
   36.3000   28.3470   33.4670 C   0  0  0  0  0  0  0  0  0  0  0  0
   36.3030   27.9080   32.1530 C   0  0  0  0  0  0  0  0  0  0  0  0
   36.0250   28.7610   31.1180 C   0  0  0  0  0  0  0  0  0  0  0  0
   35.7370   30.0670   31.3350 C   0  0  0  0  0  0  0  0  0  0  0  0
   35.7260   30.5260   32.6120 C   0  0  0  0  0  0  0  0  0  0  0  0
   36.5430   26.8500   32.0620 H   0  0  0  0  0  0  0  0  0  0  0  0
   36.0690   28.2590   30.1570 H   0  0  0  0  0  0  0  0  0  0  0  0
   35.5350   30.6510   30.4600 H   0  0  0  0  0  0  0  0  0  0  0  0
   35.4220   31.9250   32.8890 C   0  0  0  0  0  0  0  0  0  0  0  0
   36.3710   32.9190   32.9200 C   0  0  0  0  0  0  0  0  0  0  0  0
   37.3930   32.7020   32.7380 H   0  0  0  0  0  0  0  0  0  0  0  0
   36.0980   34.2440   33.1810 C   0  0  0  0  0  0  0  0  0  0  0  0
   36.8810   35.0030   33.1960 H   0  0  0  0  0  0  0  0  0  0  0  0
   34.7960   34.6310   33.4300 C   0  0  0  0  0  3  0  0  0  0  0  0
   33.8460   33.6330   33.3980 C   0  0  0  0  0  3  0  0  0  0  0  0
   34.1670   32.3530   33.1380 N   0  0  0  0  0  0  0  0  0  0  0  0
   36.5500   27.6530   34.6200 O   0  0  0  0  0  0  0  0  0  0  0  0
   38.8780   26.7540   33.9720 O   0  0  0  0  0  0  0  0  0  0  0  0
   37.9260   26.8440   35.1060 P   0  0  1  0  0  0  0  0  0  0  0  0
   38.5920   27.8170   36.3510 O   0  0  0  0  0  0  0  0  0  0  0  0
   39.3770   28.3230   36.0040 H   0  0  0  0  0  0  0  0  0  0  0  0
   37.4920   25.3380   35.7460 O   0  0  0  0  0  0  0  0  0  0  0  0
   38.7950   23.3450   38.5690 C   0  0  0  0  0  0  0  0  0  0  0  0
   37.9230   24.2360   37.9040 C   0  0  0  0  0  0  0  0  0  0  0  0
   38.1740   24.5340   36.5660 C   0  0  0  0  0  0  0  0  0  0  0  0
   39.2620   23.9400   35.9740 N   0  0  0  0  0  0  0  0  0  0  0  0
   40.0650   23.1000   36.6430 C   0  0  0  0  0  0  0  0  0  0  0  0
   39.8320   22.8030   37.9380 N   0  0  0  0  0  0  0  0  0  0  0  0
   38.5230   23.1730   39.6020 H   0  0  0  0  0  0  0  0  0  0  0  0
   37.0690   24.7290   38.2950 H   0  0  0  0  0  0  0  0  0  0  0  0
   40.9240   22.6320   36.1690 H   0  0  0  0  0  0  0  0  0  0  0  0
  2  1  1  0  0  0  0
  3  2  1  0  0  0  0
  3 19  1  0  0  0  0
  4  3  2  0  0  0  0
  5  6  2  0  0  0  0
  5  4  1  0  0  0  0
  6  7  1  0  0  0  0
  7 11  1  0  0  0  0
  7  2  2  0  0  0  0
  8  4  1  0  0  0  0
  9  5  1  0  0  0  0
 10  6  1  0  0  0  0
 11 12  2  0  0  0  0
 11 18  1  0  0  0  0
 12 14  1  0  0  0  0
 13 12  1  0  0  0  0
 14 15  1  0  0  0  0
 14 16  2  0  0  0  0
 17 16  1  0  0  0  0
 18 17  2  0  0  0  0
 19 21  1  0  0  0  0
 21 20  2  6  0  0  0
 21 24  1  0  0  0  0
 21 22  1  0  0  0  0
 23 22  1  0  0  0  0
 24 27  1  0  0  0  0
 25 31  1  0  0  0  0
 26 32  1  0  0  0  0
 26 25  2  0  0  0  0
 27 26  1  0  0  0  0
 28 27  2  0  0  0  0
 28 29  1  0  0  0  0
 29 30  2  0  0  0  0
 30 25  1  0  0  0  0
 33 29  1  0  0  0  0
M  END
>  <minimizedAffinity>
-5.52330542

$$$$

 OpenBabel03272508133D

 33 35  0  0  0  0  0  0  0  0999 V2000
   36.5990   27.9710   34.9020 Cl  0  0  0  0  0  0  0  0  0  0  0  0
   36.3640   28.6210   33.2690 C   0  0  0  0  0  0  0  0  0  0  0  0
   36.8600   27.9980   32.1230 C   0  0  0  0  0  0  0  0  0  0  0  0
   36.6090   28.6050   30.9040 C   0  0  0  0  0  0  0  0  0  0  0  0
   35.8990   29.7750   30.8250 C   0  0  0  0  0  0  0  0  0  0  0  0
   35.4150   30.3850   31.9330 C   0  0  0  0  0  0  0  0  0  0  0  0
   35.6460   29.8130   33.1430 C   0  0  0  0  0  0  0  0  0  0  0  0
   37.0280   28.0550   30.0640 H   0  0  0  0  0  0  0  0  0  0  0  0
   35.7920   30.1150   29.8000 H   0  0  0  0  0  0  0  0  0  0  0  0
   34.8750   31.2950   31.7670 H   0  0  0  0  0  0  0  0  0  0  0  0
   35.1430   30.4380   34.3610 C   0  0  0  0  0  0  0  0  0  0  0  0
   35.8970   31.2670   35.1570 C   0  0  0  0  0  0  0  0  0  0  0  0
   36.9030   31.4930   34.9100 H   0  0  0  0  0  0  0  0  0  0  0  0
   35.4350   31.8640   36.3110 C   0  0  0  0  0  0  0  0  0  0  0  0
   36.0660   32.5160   36.9150 H   0  0  0  0  0  0  0  0  0  0  0  0
   34.1370   31.6340   36.7190 C   0  0  0  0  0  3  0  0  0  0  0  0
   33.3830   30.8020   35.9190 C   0  0  0  0  0  3  0  0  0  0  0  0
   33.8830   30.2450   34.8010 N   0  0  0  0  0  0  0  0  0  0  0  0
   37.5410   26.8420   32.3990 O   0  0  0  0  0  0  0  0  0  0  0  0
   35.8390   24.9650   31.9190 O   0  0  0  0  0  0  0  0  0  0  0  0
   37.2850   25.2900   31.8420 P   0  0  1  0  0  0  0  0  0  0  0  0
   37.7890   25.3230   30.2040 O   0  0  0  0  0  0  0  0  0  0  0  0
   36.9940   25.3440   29.6040 H   0  0  0  0  0  0  0  0  0  0  0  0
   38.2680   24.2180   32.7070 O   0  0  0  0  0  0  0  0  0  0  0  0
   37.8530   22.2590   35.8120 C   0  0  0  0  0  0  0  0  0  0  0  0
   37.9490   22.4770   34.4180 C   0  0  0  0  0  0  0  0  0  0  0  0
   38.1480   23.7800   33.9640 C   0  0  0  0  0  0  0  0  0  0  0  0
   38.2370   24.7760   34.9050 N   0  0  0  0  0  0  0  0  0  0  0  0
   38.1400   24.5260   36.2180 C   0  0  0  0  0  0  0  0  0  0  0  0
   37.9490   23.2690   36.6700 N   0  0  0  0  0  0  0  0  0  0  0  0
   37.6990   21.2200   36.0720 H   0  0  0  0  0  0  0  0  0  0  0  0
   37.8890   21.7610   33.6390 H   0  0  0  0  0  0  0  0  0  0  0  0
   38.2130   25.3180   36.9590 H   0  0  0  0  0  0  0  0  0  0  0  0
  2  1  1  0  0  0  0
  3 19  1  0  0  0  0
  3  2  2  0  0  0  0
  4  3  1  0  0  0  0
  5  4  2  0  0  0  0
  5  6  1  0  0  0  0
  6  7  2  0  0  0  0
  7  2  1  0  0  0  0
  7 11  1  0  0  0  0
  8  4  1  0  0  0  0
  9  5  1  0  0  0  0
 10  6  1  0  0  0  0
 11 18  2  0  0  0  0
 11 12  1  0  0  0  0
 12 14  2  0  0  0  0
 13 12  1  0  0  0  0
 14 16  1  0  0  0  0
 14 15  1  0  0  0  0
 17 16  2  0  0  0  0
 18 17  1  0  0  0  0
 21 20  2  1  0  0  0
 21 19  1  0  0  0  0
 21 24  1  0  0  0  0
 22 21  1  0  0  0  0
 23 22  1  0  0  0  0
 24 27  1  0  0  0  0
 25 31  1  0  0  0  0
 25 30  1  0  0  0  0
 26 25  2  0  0  0  0
 27 26  1  0  0  0  0
 27 28  2  0  0  0  0
 28 29  1  0  0  0  0
 29 30  2  0  0  0  0
 29 33  1  0  0  0  0
 32 26  1  0  0  0  0
M  END
>  <minimizedAffinity>
-5.47765923

$$$$

 OpenBabel03272508133D

 33 35  0  0  0  0  0  0  0  0999 V2000
   36.9100   24.9950   32.5830 Cl  0  0  0  0  0  0  0  0  0  0  0  0
   37.5090   25.7540   34.0700 C   0  0  0  0  0  0  0  0  0  0  0  0
   37.9450   25.0230   35.1760 C   0  0  0  0  0  0  0  0  0  0  0  0
   38.3910   25.7330   36.2770 C   0  0  0  0  0  0  0  0  0  0  0  0
   38.4060   27.1030   36.2830 C   0  0  0  0  0  0  0  0  0  0  0  0
   37.9860   27.8190   35.2120 C   0  0  0  0  0  0  0  0  0  0  0  0
   37.5410   27.1500   34.1170 C   0  0  0  0  0  0  0  0  0  0  0  0
   38.7120   25.0880   37.0940 H   0  0  0  0  0  0  0  0  0  0  0  0
   38.7840   27.5010   37.2180 H   0  0  0  0  0  0  0  0  0  0  0  0
   38.0350   28.8840   35.3140 H   0  0  0  0  0  0  0  0  0  0  0  0
   37.0790   27.8830   32.9440 C   0  0  0  0  0  0  0  0  0  0  0  0
   37.8230   28.0300   31.7970 C   0  0  0  0  0  0  0  0  0  0  0  0
   38.7900   27.6040   31.7170 H   0  0  0  0  0  0  0  0  0  0  0  0
   37.3990   28.7200   30.6820 C   0  0  0  0  0  0  0  0  0  0  0  0
   38.0200   28.8140   29.7910 H   0  0  0  0  0  0  0  0  0  0  0  0
   36.1520   29.3120   30.6850 C   0  0  0  0  0  3  0  0  0  0  0  0
   35.4080   29.1640   31.8360 C   0  0  0  0  0  3  0  0  0  0  0  0
   35.8700   28.4790   32.8990 N   0  0  0  0  0  0  0  0  0  0  0  0
   37.8570   23.6690   34.9860 O   0  0  0  0  0  0  0  0  0  0  0  0
   40.3700   23.1950   34.6610 O   0  0  0  0  0  0  0  0  0  0  0  0
   39.0650   22.5230   34.8740 P   0  0  1  0  0  0  0  0  0  0  0  0
   39.0580   21.7280   36.3920 O   0  0  0  0  0  0  0  0  0  0  0  0
   39.8250   22.0430   36.9450 H   0  0  0  0  0  0  0  0  0  0  0  0
   38.6680   21.4130   33.6590 O   0  0  0  0  0  0  0  0  0  0  0  0
   35.1460   20.7850   32.7430 C   0  0  0  0  0  0  0  0  0  0  0  0
   36.2460   20.9780   33.6090 C   0  0  0  0  0  0  0  0  0  0  0  0
   37.5000   21.2060   33.0450 C   0  0  0  0  0  0  0  0  0  0  0  0
   37.5890   21.2270   31.6740 N   0  0  0  0  0  0  0  0  0  0  0  0
   36.5180   21.0390   30.8890 C   0  0  0  0  0  0  0  0  0  0  0  0
   35.2990   20.8180   31.4230 N   0  0  0  0  0  0  0  0  0  0  0  0
   34.2150   20.6150   33.2670 H   0  0  0  0  0  0  0  0  0  0  0  0
   36.2520   20.9740   34.6690 H   0  0  0  0  0  0  0  0  0  0  0  0
   36.5940   21.0570   29.8050 H   0  0  0  0  0  0  0  0  0  0  0  0
  1  2  1  0  0  0  0
  2  7  2  0  0  0  0
  2  3  1  0  0  0  0
  3  4  2  0  0  0  0
  4  5  1  0  0  0  0
  4  8  1  0  0  0  0
  5  9  1  0  0  0  0
  6 10  1  0  0  0  0
  6  5  2  0  0  0  0
  7  6  1  0  0  0  0
 11  7  1  0  0  0  0
 12 11  2  0  0  0  0
 13 12  1  0  0  0  0
 14 16  2  0  0  0  0
 14 12  1  0  0  0  0
 15 14  1  0  0  0  0
 16 17  1  0  0  0  0
 17 18  2  0  0  0  0
 18 11  1  0  0  0  0
 19  3  1  0  0  0  0
 21 20  2  6  0  0  0
 21 19  1  0  0  0  0
 21 22  1  0  0  0  0
 22 23  1  0  0  0  0
 24 21  1  0  0  0  0
 25 31  1  0  0  0  0
 25 26  1  0  0  0  0
 26 32  1  0  0  0  0
 27 26  2  0  0  0  0
 27 24  1  0  0  0  0
 28 27  1  0  0  0  0
 29 30  1  0  0  0  0
 29 28  2  0  0  0  0
 30 25  2  0  0  0  0
 33 29  1  0  0  0  0
M  END
>  <minimizedAffinity>
-5.44277143

$$$$

 OpenBabel03272508133D

 33 35  0  0  0  0  0  0  0  0999 V2000
   37.8390   22.9520   34.3370 Cl  0  0  0  0  0  0  0  0  0  0  0  0
   38.5410   24.5720   34.1810 C   0  0  0  0  0  0  0  0  0  0  0  0
   37.9360   25.5970   33.4520 C   0  0  0  0  0  0  0  0  0  0  0  0
   38.5850   26.8200   33.4060 C   0  0  0  0  0  0  0  0  0  0  0  0
   39.7760   27.0180   34.0530 C   0  0  0  0  0  0  0  0  0  0  0  0
   40.3680   26.0270   34.7630 C   0  0  0  0  0  0  0  0  0  0  0  0
   39.7560   24.8170   34.8260 C   0  0  0  0  0  0  0  0  0  0  0  0
   38.0470   27.5610   32.8180 H   0  0  0  0  0  0  0  0  0  0  0  0
   40.1480   28.0270   33.9180 H   0  0  0  0  0  0  0  0  0  0  0  0
   41.2980   26.2810   35.2320 H   0  0  0  0  0  0  0  0  0  0  0  0
   40.3600   23.7240   35.5790 C   0  0  0  0  0  0  0  0  0  0  0  0
   41.4060   22.9640   35.1100 C   0  0  0  0  0  0  0  0  0  0  0  0
   41.8270   23.1480   34.1540 H   0  0  0  0  0  0  0  0  0  0  0  0
   41.9860   21.9280   35.8100 C   0  0  0  0  0  0  0  0  0  0  0  0
   42.8140   21.3490   35.4020 H   0  0  0  0  0  0  0  0  0  0  0  0
   41.5100   21.6090   37.0650 C   0  0  0  0  0  3  0  0  0  0  0  0
   40.4620   22.3720   37.5340 C   0  0  0  0  0  3  0  0  0  0  0  0
   39.9310   23.3740   36.8090 N   0  0  0  0  0  0  0  0  0  0  0  0
   36.7540   25.2140   32.8760 O   0  0  0  0  0  0  0  0  0  0  0  0
   35.5880   26.2360   30.8160 O   0  0  0  0  0  0  0  0  0  0  0  0
   36.3530   25.0460   31.2650 P   0  0  1  0  0  0  0  0  0  0  0  0
   37.8560   24.9740   30.4430 O   0  0  0  0  0  0  0  0  0  0  0  0
   38.0400   25.8440   29.9940 H   0  0  0  0  0  0  0  0  0  0  0  0
   35.5250   23.5860   31.0450 O   0  0  0  0  0  0  0  0  0  0  0  0
   35.6640   20.2310   32.5830 C   0  0  0  0  0  0  0  0  0  0  0  0
   35.1130   21.4960   32.2780 C   0  0  0  0  0  0  0  0  0  0  0  0
   35.8440   22.3580   31.4620 C   0  0  0  0  0  0  0  0  0  0  0  0
   37.0620   21.9200   31.0030 N   0  0  0  0  0  0  0  0  0  0  0  0
   37.5480   20.7100   31.3170 C   0  0  0  0  0  0  0  0  0  0  0  0
   36.8500   19.8680   32.1050 N   0  0  0  0  0  0  0  0  0  0  0  0
   35.0280   19.6310   33.2210 H   0  0  0  0  0  0  0  0  0  0  0  0
   34.1850   21.8990   32.5950 H   0  0  0  0  0  0  0  0  0  0  0  0
   38.5120   20.3690   30.9500 H   0  0  0  0  0  0  0  0  0  0  0  0
  2  1  1  0  0  0  0
  2  7  1  0  0  0  0
  3  2  2  0  0  0  0
  4  3  1  0  0  0  0
  4  5  2  0  0  0  0
  5  6  1  0  0  0  0
  6  7  2  0  0  0  0
  6 10  1  0  0  0  0
  7 11  1  0  0  0  0
  8  4  1  0  0  0  0
  9  5  1  0  0  0  0
 11 18  1  0  0  0  0
 12 11  2  0  0  0  0
 12 14  1  0  0  0  0
 13 12  1  0  0  0  0
 14 16  2  0  0  0  0
 15 14  1  0  0  0  0
 16 17  1  0  0  0  0
 18 17  2  0  0  0  0
 19  3  1  0  0  0  0
 21 20  2  6  0  0  0
 21 19  1  0  0  0  0
 22 21  1  0  0  0  0
 23 22  1  0  0  0  0
 24 21  1  0  0  0  0
 24 27  1  0  0  0  0
 25 31  1  0  0  0  0
 26 25  1  0  0  0  0
 26 32  1  0  0  0  0
 27 26  2  0  0  0  0
 28 29  2  0  0  0  0
 28 27  1  0  0  0  0
 29 30  1  0  0  0  0
 30 25  2  0  0  0  0
 33 29  1  0  0  0  0
M  END
>  <minimizedAffinity>
-5.35562801

$$$$

 OpenBabel03272508133D

 33 35  0  0  0  0  0  0  0  0999 V2000
   38.7210   26.9780   32.4760 Cl  0  0  0  0  0  0  0  0  0  0  0  0
   37.4190   25.9280   31.8870 C   0  0  0  0  0  0  0  0  0  0  0  0
   37.5630   24.5470   31.7390 C   0  0  0  0  0  0  0  0  0  0  0  0
   36.4700   23.8370   31.2700 C   0  0  0  0  0  0  0  0  0  0  0  0
   35.2920   24.4640   30.9640 C   0  0  0  0  0  0  0  0  0  0  0  0
   35.1460   25.8030   31.1060 C   0  0  0  0  0  0  0  0  0  0  0  0
   36.2000   26.5270   31.5630 C   0  0  0  0  0  0  0  0  0  0  0  0
   36.6670   22.7690   31.1840 H   0  0  0  0  0  0  0  0  0  0  0  0
   34.5400   23.7650   30.6120 H   0  0  0  0  0  0  0  0  0  0  0  0
   34.1870   26.1990   30.8390 H   0  0  0  0  0  0  0  0  0  0  0  0
   36.0840   27.9710   31.7290 C   0  0  0  0  0  0  0  0  0  0  0  0
   35.7430   28.5750   32.9160 C   0  0  0  0  0  0  0  0  0  0  0  0
   35.5450   27.9980   33.7840 H   0  0  0  0  0  0  0  0  0  0  0  0
   35.6300   29.9380   33.0880 C   0  0  0  0  0  0  0  0  0  0  0  0
   35.3570   30.3780   34.0470 H   0  0  0  0  0  0  0  0  0  0  0  0
   35.8680   30.7780   32.0180 C   0  0  0  0  0  3  0  0  0  0  0  0
   36.2100   30.1700   30.8290 C   0  0  0  0  0  3  0  0  0  0  0  0
   36.3070   28.8330   30.7150 N   0  0  0  0  0  0  0  0  0  0  0  0
   38.8080   24.1020   32.0940 O   0  0  0  0  0  0  0  0  0  0  0  0
   38.3920   22.0980   33.6630 O   0  0  0  0  0  0  0  0  0  0  0  0
   39.2960   23.2540   33.4460 P   0  0  1  0  0  0  0  0  0  0  0  0
   40.8740   22.6990   33.0700 O   0  0  0  0  0  0  0  0  0  0  0  0
   40.8480   21.7290   32.8440 H   0  0  0  0  0  0  0  0  0  0  0  0
   39.3750   24.3100   34.7660 O   0  0  0  0  0  0  0  0  0  0  0  0
   37.9400   24.2480   38.1690 C   0  0  0  0  0  0  0  0  0  0  0  0
   38.0540   24.6410   36.8170 C   0  0  0  0  0  0  0  0  0  0  0  0
   39.0790   24.0890   36.0500 C   0  0  0  0  0  0  0  0  0  0  0  0
   39.9210   23.1930   36.6630 N   0  0  0  0  0  0  0  0  0  0  0  0
   39.7770   22.8470   37.9510 C   0  0  0  0  0  0  0  0  0  0  0  0
   38.7890   23.3740   38.7020 N   0  0  0  0  0  0  0  0  0  0  0  0
   37.1170   24.7250   38.6850 H   0  0  0  0  0  0  0  0  0  0  0  0
   37.4450   25.3230   36.2800 H   0  0  0  0  0  0  0  0  0  0  0  0
   40.4450   22.1370   38.4300 H   0  0  0  0  0  0  0  0  0  0  0  0
  2  1  1  0  0  0  0
  3  2  1  0  0  0  0
  3 19  1  0  0  0  0
  4  3  2  0  0  0  0
  5  6  2  0  0  0  0
  5  4  1  0  0  0  0
  6  7  1  0  0  0  0
  7 11  1  0  0  0  0
  7  2  2  0  0  0  0
  8  4  1  0  0  0  0
  9  5  1  0  0  0  0
 10  6  1  0  0  0  0
 11 12  1  0  0  0  0
 12 14  2  0  0  0  0
 12 13  1  0  0  0  0
 14 15  1  0  0  0  0
 16 14  1  0  0  0  0
 17 16  2  0  0  0  0
 18 17  1  0  0  0  0
 18 11  2  0  0  0  0
 19 21  1  0  0  0  0
 21 20  2  1  0  0  0
 21 24  1  0  0  0  0
 22 21  1  0  0  0  0
 23 22  1  0  0  0  0
 24 27  1  0  0  0  0
 25 31  1  0  0  0  0
 25 30  1  0  0  0  0
 26 25  2  0  0  0  0
 27 28  2  0  0  0  0
 27 26  1  0  0  0  0
 28 29  1  0  0  0  0
 29 33  1  0  0  0  0
 29 30  2  0  0  0  0
 32 26  1  0  0  0  0
M  END
>  <minimizedAffinity>
-5.34550285

$$$$

 OpenBabel03272508133D

 33 35  0  0  0  0  0  0  0  0999 V2000
   38.0900   27.1410   35.5840 Cl  0  0  0  0  0  0  0  0  0  0  0  0
   37.5800   26.3400   34.0870 C   0  0  0  0  0  0  0  0  0  0  0  0
   36.9550   27.0140   33.0370 C   0  0  0  0  0  0  0  0  0  0  0  0
   36.6060   26.2750   31.9190 C   0  0  0  0  0  0  0  0  0  0  0  0
   36.8660   24.9320   31.8440 C   0  0  0  0  0  0  0  0  0  0  0  0
   37.4730   24.2720   32.8600 C   0  0  0  0  0  0  0  0  0  0  0  0
   37.8260   24.9690   33.9690 C   0  0  0  0  0  0  0  0  0  0  0  0
   36.1250   26.8760   31.1490 H   0  0  0  0  0  0  0  0  0  0  0  0
   36.5300   24.5060   30.9050 H   0  0  0  0  0  0  0  0  0  0  0  0
   37.6310   23.2230   32.7060 H   0  0  0  0  0  0  0  0  0  0  0  0
   38.4810   24.2960   35.0850 C   0  0  0  0  0  0  0  0  0  0  0  0
   39.8180   23.9750   35.1000 C   0  0  0  0  0  0  0  0  0  0  0  0
   40.4440   24.2110   34.2790 H   0  0  0  0  0  0  0  0  0  0  0  0
   40.4500   23.3390   36.1470 C   0  0  0  0  0  0  0  0  0  0  0  0
   41.5130   23.1010   36.1200 H   0  0  0  0  0  0  0  0  0  0  0  0
   39.7210   22.9890   37.2660 C   0  0  0  0  0  3  0  0  0  0  0  0
   38.3810   23.3110   37.2480 C   0  0  0  0  0  3  0  0  0  0  0  0
   37.8130   23.9340   36.1990 N   0  0  0  0  0  0  0  0  0  0  0  0
   36.7800   28.3480   33.2920 O   0  0  0  0  0  0  0  0  0  0  0  0
   36.1820   29.6260   31.1330 O   0  0  0  0  0  0  0  0  0  0  0  0
   35.7760   29.4570   32.5500 P   0  0  1  0  0  0  0  0  0  0  0  0
   34.2140   28.7570   32.6310 O   0  0  0  0  0  0  0  0  0  0  0  0
   33.9600   28.3870   31.7420 H   0  0  0  0  0  0  0  0  0  0  0  0
   35.7890   30.8990   33.4350 O   0  0  0  0  0  0  0  0  0  0  0  0
   35.0050   31.9760   36.8800 C   0  0  0  0  0  0  0  0  0  0  0  0
   35.8050   31.7870   35.7310 C   0  0  0  0  0  0  0  0  0  0  0  0
   35.2310   31.1770   34.6170 C   0  0  0  0  0  0  0  0  0  0  0  0
   33.9150   30.7940   34.7070 N   0  0  0  0  0  0  0  0  0  0  0  0
   33.1910   30.9930   35.8180 C   0  0  0  0  0  0  0  0  0  0  0  0
   33.7350   31.5830   36.9020 N   0  0  0  0  0  0  0  0  0  0  0  0
   35.5320   32.4570   37.6940 H   0  0  0  0  0  0  0  0  0  0  0  0
   36.8210   32.0550   35.5910 H   0  0  0  0  0  0  0  0  0  0  0  0
   32.1500   30.6890   35.8840 H   0  0  0  0  0  0  0  0  0  0  0  0
  2  1  1  0  0  0  0
  3 19  1  0  0  0  0
  3  2  2  0  0  0  0
  4  3  1  0  0  0  0
  5  4  2  0  0  0  0
  5  6  1  0  0  0  0
  6  7  2  0  0  0  0
  7  2  1  0  0  0  0
  7 11  1  0  0  0  0
  8  4  1  0  0  0  0
  9  5  1  0  0  0  0
 10  6  1  0  0  0  0
 11 12  2  0  0  0  0
 11 18  1  0  0  0  0
 12 14  1  0  0  0  0
 13 12  1  0  0  0  0
 14 16  2  0  0  0  0
 15 14  1  0  0  0  0
 17 16  1  0  0  0  0
 18 17  2  0  0  0  0
 21 20  2  6  0  0  0
 21 22  1  0  0  0  0
 21 19  1  0  0  0  0
 21 24  1  0  0  0  0
 23 22  1  0  0  0  0
 24 27  1  0  0  0  0
 25 30  1  0  0  0  0
 25 31  1  0  0  0  0
 26 25  2  0  0  0  0
 27 28  2  0  0  0  0
 27 26  1  0  0  0  0
 28 29  1  0  0  0  0
 29 33  1  0  0  0  0
 29 30  2  0  0  0  0
 32 26  1  0  0  0  0
M  END
>  <minimizedAffinity>
-5.29459476

$$$$

 OpenBabel03272508133D

 33 35  0  0  0  0  0  0  0  0999 V2000
   39.1210   25.9070   34.6520 Cl  0  0  0  0  0  0  0  0  0  0  0  0
   38.4000   24.5630   33.7470 C   0  0  0  0  0  0  0  0  0  0  0  0
   38.1010   24.6340   32.3860 C   0  0  0  0  0  0  0  0  0  0  0  0
   37.5400   23.5150   31.7940 C   0  0  0  0  0  0  0  0  0  0  0  0
   37.2890   22.3790   32.5160 C   0  0  0  0  0  0  0  0  0  0  0  0
   37.5780   22.3020   33.8380 C   0  0  0  0  0  0  0  0  0  0  0  0
   38.1280   23.3840   34.4470 C   0  0  0  0  0  0  0  0  0  0  0  0
   37.3390   23.6550   30.7340 H   0  0  0  0  0  0  0  0  0  0  0  0
   36.8510   21.5980   31.9040 H   0  0  0  0  0  0  0  0  0  0  0  0
   37.3430   21.3710   34.3140 H   0  0  0  0  0  0  0  0  0  0  0  0
   38.4530   23.3440   35.8670 C   0  0  0  0  0  0  0  0  0  0  0  0
   39.6240   22.8230   36.3650 C   0  0  0  0  0  0  0  0  0  0  0  0
   40.3600   22.4200   35.7170 H   0  0  0  0  0  0  0  0  0  0  0  0
   39.9440   22.7780   37.7050 C   0  0  0  0  0  0  0  0  0  0  0  0
   40.8850   22.3570   38.0590 H   0  0  0  0  0  0  0  0  0  0  0  0
   39.0530   23.2800   38.6320 C   0  0  0  0  0  3  0  0  0  0  0  0
   37.8790   23.8000   38.1310 C   0  0  0  0  0  3  0  0  0  0  0  0
   37.6150   23.8200   36.8110 N   0  0  0  0  0  0  0  0  0  0  0  0
   38.4210   25.8470   31.8350 O   0  0  0  0  0  0  0  0  0  0  0  0
   38.2690   28.2530   30.9210 O   0  0  0  0  0  0  0  0  0  0  0  0
   37.4610   27.1830   31.5560 P   0  0  1  0  0  0  0  0  0  0  0  0
   36.2560   26.6370   30.4650 O   0  0  0  0  0  0  0  0  0  0  0  0
   36.4550   26.9650   29.5460 H   0  0  0  0  0  0  0  0  0  0  0  0
   36.7300   27.6570   33.0060 O   0  0  0  0  0  0  0  0  0  0  0  0
   34.8120   30.4740   34.4290 C   0  0  0  0  0  0  0  0  0  0  0  0
   35.7640   29.4300   34.4140 C   0  0  0  0  0  0  0  0  0  0  0  0
   35.9040   28.6790   33.2480 C   0  0  0  0  0  0  0  0  0  0  0  0
   35.1010   29.0020   32.1810 N   0  0  0  0  0  0  0  0  0  0  0  0
   34.2100   30.0020   32.2390 C   0  0  0  0  0  0  0  0  0  0  0  0
   34.0660   30.7360   33.3610 N   0  0  0  0  0  0  0  0  0  0  0  0
   34.7730   31.0030   35.3730 H   0  0  0  0  0  0  0  0  0  0  0  0
   36.4130   29.1250   35.1950 H   0  0  0  0  0  0  0  0  0  0  0  0
   33.5780   30.2530   31.3920 H   0  0  0  0  0  0  0  0  0  0  0  0
  2  7  1  0  0  0  0
  2  1  1  0  0  0  0
  3  2  2  0  0  0  0
  4  3  1  0  0  0  0
  4  5  2  0  0  0  0
  5  6  1  0  0  0  0
  6 10  1  0  0  0  0
  6  7  2  0  0  0  0
  7 11  1  0  0  0  0
  8  4  1  0  0  0  0
  9  5  1  0  0  0  0
 11 12  2  0  0  0  0
 11 18  1  0  0  0  0
 12 14  1  0  0  0  0
 13 12  1  0  0  0  0
 14 15  1  0  0  0  0
 14 16  2  0  0  0  0
 17 16  1  0  0  0  0
 18 17  2  0  0  0  0
 19  3  1  0  0  0  0
 21 20  2  6  0  0  0
 21 19  1  0  0  0  0
 21 24  1  0  0  0  0
 22 21  1  0  0  0  0
 23 22  1  0  0  0  0
 24 27  1  0  0  0  0
 25 31  1  0  0  0  0
 26 25  1  0  0  0  0
 26 32  1  0  0  0  0
 27 26  2  0  0  0  0
 28 29  2  0  0  0  0
 28 27  1  0  0  0  0
 29 30  1  0  0  0  0
 30 25  2  0  0  0  0
 33 29  1  0  0  0  0
M  END
>  <minimizedAffinity>
-5.276474

$$$$

 OpenBabel03272508133D

 33 35  0  0  0  0  0  0  0  0999 V2000
   37.4300   24.9550   33.2070 Cl  0  0  0  0  0  0  0  0  0  0  0  0
   38.9390   25.8850   33.2470 C   0  0  0  0  0  0  0  0  0  0  0  0
   39.3720   26.6800   32.1840 C   0  0  0  0  0  0  0  0  0  0  0  0
   40.5690   27.3580   32.3380 C   0  0  0  0  0  0  0  0  0  0  0  0
   41.3030   27.2550   33.4900 C   0  0  0  0  0  0  0  0  0  0  0  0
   40.8880   26.4850   34.5250 C   0  0  0  0  0  0  0  0  0  0  0  0
   39.7180   25.8070   34.4040 C   0  0  0  0  0  0  0  0  0  0  0  0
   40.8320   27.9540   31.4650 H   0  0  0  0  0  0  0  0  0  0  0  0
   42.2100   27.8480   33.4480 H   0  0  0  0  0  0  0  0  0  0  0  0
   41.5320   26.4690   35.3820 H   0  0  0  0  0  0  0  0  0  0  0  0
   39.2370   24.9670   35.4940 C   0  0  0  0  0  0  0  0  0  0  0  0
   38.3220   25.3870   36.4310 C   0  0  0  0  0  0  0  0  0  0  0  0
   37.9170   26.3660   36.3960 H   0  0  0  0  0  0  0  0  0  0  0  0
   37.8590   24.6040   37.4660 C   0  0  0  0  0  0  0  0  0  0  0  0
   37.1310   24.9750   38.1890 H   0  0  0  0  0  0  0  0  0  0  0  0
   38.3250   23.3120   37.5990 C   0  0  0  0  0  3  0  0  0  0  0  0
   39.2420   22.8930   36.6600 C   0  0  0  0  0  3  0  0  0  0  0  0
   39.6620   23.6990   35.6670 N   0  0  0  0  0  0  0  0  0  0  0  0
   38.5100   26.6590   31.1200 O   0  0  0  0  0  0  0  0  0  0  0  0
   37.9290   28.4320   29.3400 O   0  0  0  0  0  0  0  0  0  0  0  0
   37.4300   27.8190   30.5950 P   0  0  1  0  0  0  0  0  0  0  0  0
   35.9790   26.9600   30.2880 O   0  0  0  0  0  0  0  0  0  0  0  0
   35.8570   26.8370   29.3070 H   0  0  0  0  0  0  0  0  0  0  0  0
   37.1660   28.9380   31.8370 O   0  0  0  0  0  0  0  0  0  0  0  0
   34.5150   29.4200   34.3640 C   0  0  0  0  0  0  0  0  0  0  0  0
   35.7920   29.0620   33.8760 C   0  0  0  0  0  0  0  0  0  0  0  0
   36.0460   29.2090   32.5130 C   0  0  0  0  0  0  0  0  0  0  0  0
   35.0320   29.6960   31.7250 N   0  0  0  0  0  0  0  0  0  0  0  0
   33.8340   30.0240   32.2290 C   0  0  0  0  0  0  0  0  0  0  0  0
   33.5770   29.8870   33.5460 N   0  0  0  0  0  0  0  0  0  0  0  0
   34.4090   29.2740   35.4300 H   0  0  0  0  0  0  0  0  0  0  0  0
   36.6180   28.6810   34.4220 H   0  0  0  0  0  0  0  0  0  0  0  0
   33.0350   30.4090   31.6010 H   0  0  0  0  0  0  0  0  0  0  0  0
  1  2  1  0  0  0  0
  2  7  1  0  0  0  0
  3  4  1  0  0  0  0
  3  2  2  0  0  0  0
  4  5  2  0  0  0  0
  5  6  1  0  0  0  0
  6 10  1  0  0  0  0
  7  6  2  0  0  0  0
  7 11  1  0  0  0  0
  8  4  1  0  0  0  0
  9  5  1  0  0  0  0
 11 18  2  0  0  0  0
 11 12  1  0  0  0  0
 12 14  2  0  0  0  0
 13 12  1  0  0  0  0
 14 16  1  0  0  0  0
 14 15  1  0  0  0  0
 17 16  2  0  0  0  0
 18 17  1  0  0  0  0
 19  3  1  0  0  0  0
 21 20  2  6  0  0  0
 21 19  1  0  0  0  0
 21 24  1  0  0  0  0
 22 21  1  0  0  0  0
 23 22  1  0  0  0  0
 24 27  1  0  0  0  0
 25 31  1  0  0  0  0
 26 25  1  0  0  0  0
 26 32  1  0  0  0  0
 27 26  2  0  0  0  0
 28 29  2  0  0  0  0
 28 27  1  0  0  0  0
 29 30  1  0  0  0  0
 30 25  2  0  0  0  0
 33 29  1  0  0  0  0
M  END
>  <minimizedAffinity>
-5.27092409

$$$$
