
 OpenBabel03272510163D

 27 29  0  0  0  0  0  0  0  0999 V2000
   37.4390   29.1930   50.8580 Br  0  0  0  0  0  0  0  0  0  0  0  0
   36.0250   29.2740   49.5710 C   0  0  0  0  0  0  0  0  0  0  0  0
   36.0060   30.2610   48.5990 C   0  0  0  0  0  0  0  0  0  0  0  0
   34.9460   30.2500   47.7060 C   0  0  0  0  0  0  0  0  0  0  0  0
   33.9370   29.3190   47.7450 C   0  0  0  0  0  0  0  0  0  0  0  0
   33.9880   28.3570   48.7210 C   0  0  0  0  0  0  0  0  0  0  0  0
   35.0300   28.3450   49.6220 C   0  0  0  0  0  0  0  0  0  0  0  0
   34.9670   31.0370   46.9610 H   0  0  0  0  0  0  0  0  0  0  0  0
   33.2050   27.6150   48.7710 H   0  0  0  0  0  0  0  0  0  0  0  0
   35.0310   27.5580   50.3830 H   0  0  0  0  0  0  0  0  0  0  0  0
   38.0090   33.1820   49.4330 C   0  0  0  0  0  0  0  0  0  0  0  0
   39.0300   33.1990   48.4590 C   0  0  0  0  0  0  0  0  0  0  0  0
   39.0080   32.1780   47.5080 C   0  0  0  0  0  0  0  0  0  0  0  0
   38.0230   31.2390   47.5730 N   0  0  0  0  0  0  0  0  0  0  0  0
   37.0590   31.2620   48.5300 C   0  0  0  0  0  0  0  0  0  0  0  0
   37.0550   32.2440   49.4670 N   0  0  0  0  0  0  0  0  0  0  0  0
   38.0290   33.9870   50.1800 H   0  0  0  0  0  0  0  0  0  0  0  0
   39.7750   33.9870   48.4850 H   0  0  0  0  0  0  0  0  0  0  0  0
   39.7630   32.1590   46.7600 H   0  0  0  0  0  0  0  0  0  0  0  0
   32.8840   29.4200   46.7480 C   0  0  0  0  0  0  0  0  0  0  0  0
   32.0610   28.3720   46.3900 C   0  0  0  0  0  0  0  0  0  0  0  0
   32.1850   27.4240   46.8560 H   0  0  0  0  0  0  0  0  0  0  0  0
   31.0630   28.4880   45.4380 C   0  0  0  0  0  0  0  0  0  0  0  0
   30.4540   27.6330   45.2020 H   0  0  0  0  0  0  0  0  0  0  0  0
   30.9080   29.7270   44.8340 C   0  0  0  0  0  3  0  0  0  0  0  0
   31.7350   30.7780   45.1960 C   0  0  0  0  0  3  0  0  0  0  0  0
   32.6860   30.5850   46.1330 N   0  0  0  0  0  0  0  0  0  0  0  0
  2  7  1  0  0  0  0
  2  1  1  0  0  0  0
  3  2  2  0  0  0  0
  4  5  2  0  0  0  0
  4  3  1  0  0  0  0
  5  6  1  0  0  0  0
  6  9  1  0  0  0  0
  6  7  2  0  0  0  0
  7 10  1  0  0  0  0
  8  4  1  0  0  0  0
 11 16  1  0  0  0  0
 11 17  1  0  0  0  0
 12 18  1  0  0  0  0
 12 11  2  0  0  0  0
 13 14  2  0  0  0  0
 13 12  1  0  0  0  0
 14 15  1  0  0  0  0
 15  3  1  0  0  0  0
 15 16  2  0  0  0  0
 19 13  1  0  0  0  0
 20  5  1  0  0  0  0
 21 20  1  0  0  0  0
 21 22  1  0  0  0  0
 23 21  2  0  0  0  0
 24 23  1  0  0  0  0
 25 26  2  0  0  0  0
 25 23  1  0  0  0  0
 26 27  1  0  0  0  0
 27 20  2  0  0  0  0
M  END
>  <minimizedAffinity>
-5.88867569

>  <minimizedRMSD>
0.277025133

$$$$
