
 OpenBabel03272510163D

 27 29  0  0  0  0  0  0  0  0999 V2000
   37.3920   29.2180   50.8850 Br  0  0  0  0  0  0  0  0  0  0  0  0
   36.0050   29.2820   49.5680 C   0  0  0  0  0  0  0  0  0  0  0  0
   36.0040   30.2590   48.5860 C   0  0  0  0  0  0  0  0  0  0  0  0
   34.9640   30.2350   47.6710 C   0  0  0  0  0  0  0  0  0  0  0  0
   33.9560   29.3020   47.6980 C   0  0  0  0  0  0  0  0  0  0  0  0
   33.9890   28.3510   48.6850 C   0  0  0  0  0  0  0  0  0  0  0  0
   35.0110   28.3510   49.6080 C   0  0  0  0  0  0  0  0  0  0  0  0
   34.9990   31.0150   46.9170 H   0  0  0  0  0  0  0  0  0  0  0  0
   33.2060   27.6070   48.7270 H   0  0  0  0  0  0  0  0  0  0  0  0
   34.9970   27.5720   50.3780 H   0  0  0  0  0  0  0  0  0  0  0  0
   38.0030   33.1740   49.4510 C   0  0  0  0  0  0  0  0  0  0  0  0
   39.0260   33.2010   48.4790 C   0  0  0  0  0  0  0  0  0  0  0  0
   39.0070   32.1880   47.5190 C   0  0  0  0  0  0  0  0  0  0  0  0
   38.0220   31.2480   47.5730 N   0  0  0  0  0  0  0  0  0  0  0  0
   37.0570   31.2620   48.5280 C   0  0  0  0  0  0  0  0  0  0  0  0
   37.0500   32.2350   49.4740 N   0  0  0  0  0  0  0  0  0  0  0  0
   38.0200   33.9710   50.2050 H   0  0  0  0  0  0  0  0  0  0  0  0
   39.7700   33.9890   48.5140 H   0  0  0  0  0  0  0  0  0  0  0  0
   39.7630   32.1780   46.7720 H   0  0  0  0  0  0  0  0  0  0  0  0
   32.9240   29.3900   46.6780 C   0  0  0  0  0  0  0  0  0  0  0  0
   32.5930   30.5540   46.0160 C   0  0  0  0  0  0  0  0  0  0  0  0
   33.1090   31.4540   46.2480 H   0  0  0  0  0  0  0  0  0  0  0  0
   31.6060   30.6160   45.0480 C   0  0  0  0  0  0  0  0  0  0  0  0
   31.3950   31.5560   44.5670 H   0  0  0  0  0  0  0  0  0  0  0  0
   30.9370   29.4380   44.7520 C   0  0  0  0  0  3  0  0  0  0  0  0
   31.2710   28.2710   45.4180 C   0  0  0  0  0  3  0  0  0  0  0  0
   32.2450   28.2900   46.3510 N   0  0  0  0  0  0  0  0  0  0  0  0
  2  7  1  0  0  0  0
  2  1  1  0  0  0  0
  3  2  2  0  0  0  0
  4  5  2  0  0  0  0
  4  3  1  0  0  0  0
  5  6  1  0  0  0  0
  6  9  1  0  0  0  0
  6  7  2  0  0  0  0
  7 10  1  0  0  0  0
  8  4  1  0  0  0  0
 11 16  1  0  0  0  0
 11 17  1  0  0  0  0
 12 18  1  0  0  0  0
 12 11  2  0  0  0  0
 13 14  2  0  0  0  0
 13 12  1  0  0  0  0
 14 15  1  0  0  0  0
 15  3  1  0  0  0  0
 15 16  2  0  0  0  0
 19 13  1  0  0  0  0
 20  5  1  0  0  0  0
 21 22  1  0  0  0  0
 21 20  2  0  0  0  0
 23 21  1  0  0  0  0
 24 23  1  0  0  0  0
 25 23  2  0  0  0  0
 25 26  1  0  0  0  0
 26 27  2  0  0  0  0
 27 20  1  0  0  0  0
M  END
>  <minimizedAffinity>
-5.91496515

>  <minimizedRMSD>
0.240500242

$$$$
