
 OpenBabel03272506153D

 23 24  0  0  0  0  0  0  0  0999 V2000
   38.4600   24.6730   35.1690 C   0  0  0  0  0  0  0  0  0  0  0  0
   37.9360   25.9530   34.9050 C   0  0  0  0  0  0  0  0  0  0  0  0
   37.2810   26.1720   33.6990 C   0  0  0  0  0  0  0  0  0  0  0  0
   37.1920   25.1230   32.8450 N   0  0  0  0  0  0  0  0  0  0  0  0
   37.6970   23.8990   33.1100 C   0  0  0  0  0  0  0  0  0  0  0  0
   38.3320   23.6820   34.2770 N   0  0  0  0  0  0  0  0  0  0  0  0
   38.0720   26.6910   35.6550 H   0  0  0  0  0  0  0  0  0  0  0  0
   37.5970   23.0880   32.3860 H   0  0  0  0  0  0  0  0  0  0  0  0
   36.7350   27.4930   33.4160 C   0  0  0  0  0  0  0  0  0  0  0  0
   36.3140   28.2950   34.4580 C   0  0  0  0  0  0  0  0  0  0  0  0
   36.3620   28.0080   35.4970 H   0  0  0  0  0  0  0  0  0  0  0  0
   35.8110   29.5300   34.0750 C   0  0  0  0  0  0  0  0  0  0  0  0
   35.4640   30.2070   34.8490 H   0  0  0  0  0  0  0  0  0  0  0  0
   35.7340   29.9340   32.7380 C   0  0  0  0  0  3  0  0  0  0  0  0
   36.1810   29.0630   31.7410 C   0  0  0  0  0  3  0  0  0  0  0  0
   36.6730   27.8510   32.1270 N   0  0  0  0  0  0  0  0  0  0  0  0
   39.1380   24.3200   36.3370 O   0  0  0  0  0  0  0  0  0  0  0  0
   37.7240   24.3600   38.6300 O   0  0  0  0  0  0  0  0  0  0  0  0
   38.3700   23.4420   37.5970 P   0  0  0  0  0  0  0  0  0  0  0  0
   37.2160   22.4590   36.8480 O   0  0  0  0  0  0  0  0  0  0  0  0
   36.3260   22.7740   37.1520 H   0  0  0  0  0  0  0  0  0  0  0  0
   39.5170   22.5090   38.4150 O   0  0  0  0  0  0  0  0  0  0  0  0
   40.1370   22.1170   37.7510 H   0  0  0  0  0  0  0  0  0  0  0  0
  1 17  1  0  0  0  0
  2  1  1  0  0  0  0
  2  7  1  0  0  0  0
  3  2  2  0  0  0  0
  4  5  2  0  0  0  0
  4  3  1  0  0  0  0
  5  6  1  0  0  0  0
  6  1  2  0  0  0  0
  8  5  1  0  0  0  0
  9  3  1  0  0  0  0
  9 10  1  0  0  0  0
 10 11  1  0  0  0  0
 12 10  2  0  0  0  0
 12 13  1  0  0  0  0
 14 12  1  0  0  0  0
 15 16  1  0  0  0  0
 15 14  2  0  0  0  0
 16  9  2  0  0  0  0
 17 19  1  0  0  0  0
 19 22  1  0  0  0  0
 19 18  2  0  0  0  0
 20 21  1  0  0  0  0
 20 19  1  0  0  0  0
 23 22  1  0  0  0  0
M  END
>  <minimizedAffinity>
-4.95276499

$$$$

 OpenBabel03272506153D

 23 24  0  0  0  0  0  0  0  0999 V2000
   38.3240   24.3490   35.7670 C   0  0  0  0  0  0  0  0  0  0  0  0
   37.6370   25.3430   35.0430 C   0  0  0  0  0  0  0  0  0  0  0  0
   38.3660   26.2090   34.2380 C   0  0  0  0  0  0  0  0  0  0  0  0
   39.7100   26.0360   34.2030 N   0  0  0  0  0  0  0  0  0  0  0  0
   40.3590   25.0790   34.9010 C   0  0  0  0  0  0  0  0  0  0  0  0
   39.6560   24.2380   35.6830 N   0  0  0  0  0  0  0  0  0  0  0  0
   36.5820   25.3740   35.1560 H   0  0  0  0  0  0  0  0  0  0  0  0
   41.4440   24.9840   34.8370 H   0  0  0  0  0  0  0  0  0  0  0  0
   37.6640   27.2410   33.4840 C   0  0  0  0  0  0  0  0  0  0  0  0
   36.6360   27.9410   34.0810 C   0  0  0  0  0  0  0  0  0  0  0  0
   36.3030   27.7770   35.0950 H   0  0  0  0  0  0  0  0  0  0  0  0
   36.0380   28.8980   33.2740 C   0  0  0  0  0  0  0  0  0  0  0  0
   35.2230   29.4830   33.6880 H   0  0  0  0  0  0  0  0  0  0  0  0
   36.4430   29.1370   31.9570 C   0  0  0  0  0  3  0  0  0  0  0  0
   37.4940   28.3830   31.4250 C   0  0  0  0  0  3  0  0  0  0  0  0
   38.0740   27.4450   32.2260 N   0  0  0  0  0  0  0  0  0  0  0  0
   37.7150   23.4190   36.6110 O   0  0  0  0  0  0  0  0  0  0  0  0
   38.0840   24.6830   38.9620 O   0  0  0  0  0  0  0  0  0  0  0  0
   38.1100   23.3180   38.2790 P   0  0  0  0  0  0  0  0  0  0  0  0
   36.9750   22.2710   38.9670 O   0  0  0  0  0  0  0  0  0  0  0  0
   36.4330   22.8060   39.6010 H   0  0  0  0  0  0  0  0  0  0  0  0
   39.6750   22.7090   38.4520 O   0  0  0  0  0  0  0  0  0  0  0  0
   39.8050   21.9790   37.7970 H   0  0  0  0  0  0  0  0  0  0  0  0
  1 17  1  0  0  0  0
  2  7  1  0  0  0  0
  2  1  2  0  0  0  0
  3  2  1  0  0  0  0
  4  3  2  0  0  0  0
  4  5  1  0  0  0  0
  5  6  2  0  0  0  0
  6  1  1  0  0  0  0
  8  5  1  0  0  0  0
  9 10  1  0  0  0  0
  9  3  1  0  0  0  0
 10 11  1  0  0  0  0
 12 13  1  0  0  0  0
 12 10  2  0  0  0  0
 14 12  1  0  0  0  0
 15 14  2  0  0  0  0
 15 16  1  0  0  0  0
 16  9  2  0  0  0  0
 17 19  1  0  0  0  0
 19 22  1  0  0  0  0
 19 18  2  0  0  0  0
 19 20  1  0  0  0  0
 20 21  1  0  0  0  0
 23 22  1  0  0  0  0
M  END
>  <minimizedAffinity>
-4.89440966

$$$$

 OpenBabel03272506153D

 23 24  0  0  0  0  0  0  0  0999 V2000
   39.6820   24.8030   35.0370 C   0  0  0  0  0  0  0  0  0  0  0  0
   38.5720   24.6200   34.1890 C   0  0  0  0  0  0  0  0  0  0  0  0
   38.2200   25.6450   33.3190 C   0  0  0  0  0  0  0  0  0  0  0  0
   38.9790   26.7680   33.3470 N   0  0  0  0  0  0  0  0  0  0  0  0
   40.0420   26.9310   34.1640 C   0  0  0  0  0  0  0  0  0  0  0  0
   40.3870   25.9410   35.0090 N   0  0  0  0  0  0  0  0  0  0  0  0
   38.0590   23.6950   34.2630 H   0  0  0  0  0  0  0  0  0  0  0  0
   40.6200   27.8570   34.1460 H   0  0  0  0  0  0  0  0  0  0  0  0
   37.0730   25.4670   32.4370 C   0  0  0  0  0  0  0  0  0  0  0  0
   36.6890   24.1940   32.0670 C   0  0  0  0  0  0  0  0  0  0  0  0
   37.1880   23.2940   32.3930 H   0  0  0  0  0  0  0  0  0  0  0  0
   35.5870   24.1410   31.2260 C   0  0  0  0  0  0  0  0  0  0  0  0
   35.2350   23.1660   30.9000 H   0  0  0  0  0  0  0  0  0  0  0  0
   34.9170   25.2850   30.7840 C   0  0  0  0  0  3  0  0  0  0  0  0
   35.3690   26.5400   31.2040 C   0  0  0  0  0  3  0  0  0  0  0  0
   36.4530   26.5810   32.0300 N   0  0  0  0  0  0  0  0  0  0  0  0
   40.1410   23.8570   35.9550 O   0  0  0  0  0  0  0  0  0  0  0  0
   38.0460   24.0190   37.6430 O   0  0  0  0  0  0  0  0  0  0  0  0
   39.0760   23.0640   37.0440 P   0  0  0  0  0  0  0  0  0  0  0  0
   38.3260   21.8370   36.1570 O   0  0  0  0  0  0  0  0  0  0  0  0
   37.3630   22.0640   36.1050 H   0  0  0  0  0  0  0  0  0  0  0  0
   39.9610   22.4230   38.3320 O   0  0  0  0  0  0  0  0  0  0  0  0
   40.7980   22.0330   37.9780 H   0  0  0  0  0  0  0  0  0  0  0  0
  1 17  1  0  0  0  0
  2  7  1  0  0  0  0
  2  1  2  0  0  0  0
  3  4  2  0  0  0  0
  3  2  1  0  0  0  0
  4  5  1  0  0  0  0
  5  6  2  0  0  0  0
  6  1  1  0  0  0  0
  8  5  1  0  0  0  0
  9  3  1  0  0  0  0
 10 11  1  0  0  0  0
 10  9  1  0  0  0  0
 12 10  2  0  0  0  0
 13 12  1  0  0  0  0
 14 15  2  0  0  0  0
 14 12  1  0  0  0  0
 15 16  1  0  0  0  0
 16  9  2  0  0  0  0
 17 19  1  0  0  0  0
 19 18  2  0  0  0  0
 19 22  1  0  0  0  0
 20 19  1  0  0  0  0
 21 20  1  0  0  0  0
 23 22  1  0  0  0  0
M  END
>  <minimizedAffinity>
-4.88019466

$$$$

 OpenBabel03272506153D

 23 24  0  0  0  0  0  0  0  0999 V2000
   36.8760   27.8750   33.7300 C   0  0  0  0  0  0  0  0  0  0  0  0
   36.2260   28.6790   34.6860 C   0  0  0  0  0  0  0  0  0  0  0  0
   35.5880   29.8390   34.2620 C   0  0  0  0  0  0  0  0  0  0  0  0
   35.6370   30.1210   32.9370 N   0  0  0  0  0  0  0  0  0  0  0  0
   36.2620   29.3420   32.0290 C   0  0  0  0  0  0  0  0  0  0  0  0
   36.8810   28.2170   32.4350 N   0  0  0  0  0  0  0  0  0  0  0  0
   36.2610   28.3490   35.6930 H   0  0  0  0  0  0  0  0  0  0  0  0
   36.2700   29.6160   30.9720 H   0  0  0  0  0  0  0  0  0  0  0  0
   34.9130   30.6790   35.2430 C   0  0  0  0  0  0  0  0  0  0  0  0
   35.6470   31.5730   35.9970 C   0  0  0  0  0  0  0  0  0  0  0  0
   36.7160   31.6990   35.9100 H   0  0  0  0  0  0  0  0  0  0  0  0
   34.9040   32.3200   36.8980 C   0  0  0  0  0  0  0  0  0  0  0  0
   35.4250   33.0420   37.5210 H   0  0  0  0  0  0  0  0  0  0  0  0
   33.5190   32.1820   37.0370 C   0  0  0  0  0  3  0  0  0  0  0  0
   32.8490   31.2530   36.2350 C   0  0  0  0  0  3  0  0  0  0  0  0
   33.5880   30.5230   35.3530 N   0  0  0  0  0  0  0  0  0  0  0  0
   37.5530   26.6890   34.0200 O   0  0  0  0  0  0  0  0  0  0  0  0
   40.1760   27.2910   33.8890 O   0  0  0  0  0  0  0  0  0  0  0  0
   39.0920   26.6900   34.7810 P   0  0  0  0  0  0  0  0  0  0  0  0
   38.9110   27.5820   36.2050 O   0  0  0  0  0  0  0  0  0  0  0  0
   39.4690   28.3960   36.1110 H   0  0  0  0  0  0  0  0  0  0  0  0
   39.5560   25.1020   35.1180 O   0  0  0  0  0  0  0  0  0  0  0  0
   38.7660   24.6040   35.4450 H   0  0  0  0  0  0  0  0  0  0  0  0
  1 17  1  0  0  0  0
  1  2  1  0  0  0  0
  2  7  1  0  0  0  0
  3  2  2  0  0  0  0
  3  9  1  0  0  0  0
  4  3  1  0  0  0  0
  5  6  1  0  0  0  0
  5  4  2  0  0  0  0
  6  1  2  0  0  0  0
  8  5  1  0  0  0  0
  9 16  2  0  0  0  0
  9 10  1  0  0  0  0
 10 12  2  0  0  0  0
 11 10  1  0  0  0  0
 12 14  1  0  0  0  0
 12 13  1  0  0  0  0
 15 14  2  0  0  0  0
 16 15  1  0  0  0  0
 17 19  1  0  0  0  0
 18 19  2  0  0  0  0
 19 22  1  0  0  0  0
 19 20  1  0  0  0  0
 21 20  1  0  0  0  0
 22 23  1  0  0  0  0
M  END
>  <minimizedAffinity>
-4.76692724

$$$$

 OpenBabel03272506153D

 23 24  0  0  0  0  0  0  0  0999 V2000
   38.3380   25.8520   32.6070 C   0  0  0  0  0  0  0  0  0  0  0  0
   38.2260   25.1060   33.7960 C   0  0  0  0  0  0  0  0  0  0  0  0
   39.0840   25.3930   34.8510 C   0  0  0  0  0  0  0  0  0  0  0  0
   39.9850   26.3880   34.6600 N   0  0  0  0  0  0  0  0  0  0  0  0
   40.0830   27.0990   33.5150 C   0  0  0  0  0  0  0  0  0  0  0  0
   39.2530   26.8230   32.4910 N   0  0  0  0  0  0  0  0  0  0  0  0
   37.4800   24.3520   33.8210 H   0  0  0  0  0  0  0  0  0  0  0  0
   40.8270   27.8910   33.4140 H   0  0  0  0  0  0  0  0  0  0  0  0
   38.9770   24.6270   36.0860 C   0  0  0  0  0  0  0  0  0  0  0  0
   38.0100   24.9600   37.0130 C   0  0  0  0  0  0  0  0  0  0  0  0
   37.3060   25.7690   36.8870 H   0  0  0  0  0  0  0  0  0  0  0  0
   37.9980   24.1660   38.1500 C   0  0  0  0  0  0  0  0  0  0  0  0
   37.2590   24.3780   38.9180 H   0  0  0  0  0  0  0  0  0  0  0  0
   38.8940   23.1110   38.3470 C   0  0  0  0  0  3  0  0  0  0  0  0
   39.8450   22.8380   37.3590 C   0  0  0  0  0  3  0  0  0  0  0  0
   39.8490   23.6240   36.2450 N   0  0  0  0  0  0  0  0  0  0  0  0
   37.5410   25.6650   31.4770 O   0  0  0  0  0  0  0  0  0  0  0  0
   34.8840   25.7840   31.0510 O   0  0  0  0  0  0  0  0  0  0  0  0
   36.1490   26.6270   31.1840 P   0  0  0  0  0  0  0  0  0  0  0  0
   36.0350   27.6960   32.4880 O   0  0  0  0  0  0  0  0  0  0  0  0
   35.2060   27.4660   32.9800 H   0  0  0  0  0  0  0  0  0  0  0  0
   36.3390   27.4650   29.7300 O   0  0  0  0  0  0  0  0  0  0  0  0
   37.2710   27.7910   29.6720 H   0  0  0  0  0  0  0  0  0  0  0  0
  1  2  1  0  0  0  0
  2  7  1  0  0  0  0
  2  3  2  0  0  0  0
  3  9  1  0  0  0  0
  4  3  1  0  0  0  0
  5  4  2  0  0  0  0
  6  1  2  0  0  0  0
  6  5  1  0  0  0  0
  8  5  1  0  0  0  0
  9 16  2  0  0  0  0
  9 10  1  0  0  0  0
 10 12  2  0  0  0  0
 11 10  1  0  0  0  0
 12 14  1  0  0  0  0
 12 13  1  0  0  0  0
 15 14  2  0  0  0  0
 16 15  1  0  0  0  0
 17  1  1  0  0  0  0
 18 19  2  0  0  0  0
 19 17  1  0  0  0  0
 19 20  1  0  0  0  0
 20 21  1  0  0  0  0
 22 19  1  0  0  0  0
 23 22  1  0  0  0  0
M  END
>  <minimizedAffinity>
-4.68379831

$$$$

 OpenBabel03272506153D

 23 24  0  0  0  0  0  0  0  0999 V2000
   37.5230   25.8100   32.9010 C   0  0  0  0  0  0  0  0  0  0  0  0
   37.8400   25.5040   34.2380 C   0  0  0  0  0  0  0  0  0  0  0  0
   38.1560   24.1920   34.5680 C   0  0  0  0  0  0  0  0  0  0  0  0
   38.1370   23.2810   33.5630 N   0  0  0  0  0  0  0  0  0  0  0  0
   37.8330   23.5870   32.2830 C   0  0  0  0  0  0  0  0  0  0  0  0
   37.5260   24.8570   31.9600 N   0  0  0  0  0  0  0  0  0  0  0  0
   37.8180   26.3060   34.9320 H   0  0  0  0  0  0  0  0  0  0  0  0
   37.8330   22.8140   31.5120 H   0  0  0  0  0  0  0  0  0  0  0  0
   38.4850   23.8630   35.9490 C   0  0  0  0  0  0  0  0  0  0  0  0
   39.5920   23.0830   36.2190 C   0  0  0  0  0  0  0  0  0  0  0  0
   40.2500   22.6880   35.4610 H   0  0  0  0  0  0  0  0  0  0  0  0
   39.8110   22.8320   37.5660 C   0  0  0  0  0  0  0  0  0  0  0  0
   40.6670   22.2250   37.8430 H   0  0  0  0  0  0  0  0  0  0  0  0
   38.9780   23.3290   38.5740 C   0  0  0  0  0  3  0  0  0  0  0  0
   37.8760   24.1120   38.2170 C   0  0  0  0  0  3  0  0  0  0  0  0
   37.6690   24.3520   36.8910 N   0  0  0  0  0  0  0  0  0  0  0  0
   37.1880   27.0840   32.4370 O   0  0  0  0  0  0  0  0  0  0  0  0
   36.2130   28.7760   30.5810 O   0  0  0  0  0  0  0  0  0  0  0  0
   36.7450   27.3620   30.8020 P   0  0  0  0  0  0  0  0  0  0  0  0
   38.1360   27.0830   29.8850 O   0  0  0  0  0  0  0  0  0  0  0  0
   38.3950   27.9500   29.4800 H   0  0  0  0  0  0  0  0  0  0  0  0
   35.5090   26.2970   30.3640 O   0  0  0  0  0  0  0  0  0  0  0  0
   35.7050   25.4080   30.7510 H   0  0  0  0  0  0  0  0  0  0  0  0
  1  2  1  0  0  0  0
  2  3  2  0  0  0  0
  2  7  1  0  0  0  0
  3  9  1  0  0  0  0
  4  3  1  0  0  0  0
  5  4  2  0  0  0  0
  6  5  1  0  0  0  0
  6  1  2  0  0  0  0
  8  5  1  0  0  0  0
  9 10  2  0  0  0  0
  9 16  1  0  0  0  0
 10 12  1  0  0  0  0
 11 10  1  0  0  0  0
 12 13  1  0  0  0  0
 12 14  2  0  0  0  0
 15 14  1  0  0  0  0
 16 15  2  0  0  0  0
 17  1  1  0  0  0  0
 18 19  2  0  0  0  0
 19 17  1  0  0  0  0
 20 19  1  0  0  0  0
 21 20  1  0  0  0  0
 22 23  1  0  0  0  0
 22 19  1  0  0  0  0
M  END
>  <minimizedAffinity>
-4.65234184

$$$$

 OpenBabel03272506153D

 23 24  0  0  0  0  0  0  0  0999 V2000
   38.8300   23.2660   35.3130 C   0  0  0  0  0  0  0  0  0  0  0  0
   37.8610   22.4980   34.6380 C   0  0  0  0  0  0  0  0  0  0  0  0
   38.2620   21.7080   33.5670 C   0  0  0  0  0  0  0  0  0  0  0  0
   39.5770   21.7300   33.2410 N   0  0  0  0  0  0  0  0  0  0  0  0
   40.4980   22.4700   33.8970 C   0  0  0  0  0  0  0  0  0  0  0  0
   40.1140   23.2370   34.9350 N   0  0  0  0  0  0  0  0  0  0  0  0
   36.8630   22.5680   34.9900 H   0  0  0  0  0  0  0  0  0  0  0  0
   41.5460   22.4510   33.5920 H   0  0  0  0  0  0  0  0  0  0  0  0
   37.2680   20.9090   32.8610 C   0  0  0  0  0  0  0  0  0  0  0  0
   36.0260   20.7080   33.4290 C   0  0  0  0  0  0  0  0  0  0  0  0
   35.7270   21.1110   34.3850 H   0  0  0  0  0  0  0  0  0  0  0  0
   35.1590   19.9340   32.6720 C   0  0  0  0  0  0  0  0  0  0  0  0
   34.1650   19.7400   33.0650 H   0  0  0  0  0  0  0  0  0  0  0  0
   35.5130   19.3950   31.4310 C   0  0  0  0  0  3  0  0  0  0  0  0
   36.7920   19.6450   30.9240 C   0  0  0  0  0  3  0  0  0  0  0  0
   37.6360   20.4070   31.6760 N   0  0  0  0  0  0  0  0  0  0  0  0
   38.5630   24.1000   36.4000 O   0  0  0  0  0  0  0  0  0  0  0  0
   38.1730   24.5850   39.0220 O   0  0  0  0  0  0  0  0  0  0  0  0
   38.3600   23.4780   37.9880 P   0  0  0  0  0  0  0  0  0  0  0  0
   37.0060   22.4670   37.9260 O   0  0  0  0  0  0  0  0  0  0  0  0
   36.3090   22.8810   38.4960 H   0  0  0  0  0  0  0  0  0  0  0  0
   39.7390   22.6130   38.4350 O   0  0  0  0  0  0  0  0  0  0  0  0
   40.0470   22.0840   37.6580 H   0  0  0  0  0  0  0  0  0  0  0  0
  1 17  1  0  0  0  0
  2  7  1  0  0  0  0
  2  1  2  0  0  0  0
  3  2  1  0  0  0  0
  4  3  2  0  0  0  0
  4  5  1  0  0  0  0
  5  6  2  0  0  0  0
  6  1  1  0  0  0  0
  8  5  1  0  0  0  0
  9 10  1  0  0  0  0
  9  3  1  0  0  0  0
 10 11  1  0  0  0  0
 12 13  1  0  0  0  0
 12 10  2  0  0  0  0
 14 12  1  0  0  0  0
 15 14  2  0  0  0  0
 15 16  1  0  0  0  0
 16  9  2  0  0  0  0
 17 19  1  0  0  0  0
 19 22  1  0  0  0  0
 19 18  2  0  0  0  0
 20 19  1  0  0  0  0
 20 21  1  0  0  0  0
 23 22  1  0  0  0  0
M  END
>  <minimizedAffinity>
-4.63290167

$$$$

 OpenBabel03272506153D

 23 24  0  0  0  0  0  0  0  0999 V2000
   36.4160   27.9830   32.6790 C   0  0  0  0  0  0  0  0  0  0  0  0
   35.8800   28.6270   33.8110 C   0  0  0  0  0  0  0  0  0  0  0  0
   35.5580   29.9760   33.7230 C   0  0  0  0  0  0  0  0  0  0  0  0
   35.7860   30.5890   32.5360 N   0  0  0  0  0  0  0  0  0  0  0  0
   36.2990   29.9610   31.4560 C   0  0  0  0  0  0  0  0  0  0  0  0
   36.6120   28.6540   31.5370 N   0  0  0  0  0  0  0  0  0  0  0  0
   35.7500   28.0360   34.6820 H   0  0  0  0  0  0  0  0  0  0  0  0
   36.4620   30.5030   30.5230 H   0  0  0  0  0  0  0  0  0  0  0  0
   35.0030   30.6530   34.8890 C   0  0  0  0  0  0  0  0  0  0  0  0
   35.8080   31.4830   35.6420 C   0  0  0  0  0  0  0  0  0  0  0  0
   36.8490   31.6740   35.4260 H   0  0  0  0  0  0  0  0  0  0  0  0
   35.1790   32.0750   36.7270 C   0  0  0  0  0  0  0  0  0  0  0  0
   35.7600   32.7400   37.3590 H   0  0  0  0  0  0  0  0  0  0  0  0
   33.8340   31.8500   37.0380 C   0  0  0  0  0  3  0  0  0  0  0  0
   33.0860   30.9940   36.2240 C   0  0  0  0  0  3  0  0  0  0  0  0
   33.7140   30.4170   35.1600 N   0  0  0  0  0  0  0  0  0  0  0  0
   36.7810   26.6360   32.6330 O   0  0  0  0  0  0  0  0  0  0  0  0
   36.9820   24.2610   31.3770 O   0  0  0  0  0  0  0  0  0  0  0  0
   36.8250   25.7630   31.1550 P   0  0  0  0  0  0  0  0  0  0  0  0
   35.3760   26.1130   30.3590 O   0  0  0  0  0  0  0  0  0  0  0  0
   34.8600   25.2680   30.3100 H   0  0  0  0  0  0  0  0  0  0  0  0
   38.1530   26.2680   30.2410 O   0  0  0  0  0  0  0  0  0  0  0  0
   38.2340   27.2510   30.3170 H   0  0  0  0  0  0  0  0  0  0  0  0
  1  2  1  0  0  0  0
  2  7  1  0  0  0  0
  3  2  2  0  0  0  0
  3  9  1  0  0  0  0
  4  3  1  0  0  0  0
  5  6  1  0  0  0  0
  5  4  2  0  0  0  0
  6  1  2  0  0  0  0
  8  5  1  0  0  0  0
  9 16  2  0  0  0  0
  9 10  1  0  0  0  0
 10 12  2  0  0  0  0
 11 10  1  0  0  0  0
 12 14  1  0  0  0  0
 12 13  1  0  0  0  0
 15 14  2  0  0  0  0
 16 15  1  0  0  0  0
 17  1  1  0  0  0  0
 19 18  2  0  0  0  0
 19 17  1  0  0  0  0
 20 19  1  0  0  0  0
 21 20  1  0  0  0  0
 22 23  1  0  0  0  0
 22 19  1  0  0  0  0
M  END
>  <minimizedAffinity>
-4.55544519

$$$$

 OpenBabel03272506153D

 23 24  0  0  0  0  0  0  0  0999 V2000
   37.3090   23.1000   32.3920 C   0  0  0  0  0  0  0  0  0  0  0  0
   37.9960   23.2950   33.6050 C   0  0  0  0  0  0  0  0  0  0  0  0
   37.7680   22.4110   34.6530 C   0  0  0  0  0  0  0  0  0  0  0  0
   36.8860   21.4060   34.4320 N   0  0  0  0  0  0  0  0  0  0  0  0
   36.2330   21.2270   33.2630 C   0  0  0  0  0  0  0  0  0  0  0  0
   36.4510   22.0820   32.2450 N   0  0  0  0  0  0  0  0  0  0  0  0
   38.6610   24.1200   33.6530 H   0  0  0  0  0  0  0  0  0  0  0  0
   35.5320   20.4000   33.1390 H   0  0  0  0  0  0  0  0  0  0  0  0
   38.4740   22.6040   35.9140 C   0  0  0  0  0  0  0  0  0  0  0  0
   37.8300   23.2180   36.9690 C   0  0  0  0  0  0  0  0  0  0  0  0
   36.8130   23.5770   36.9280 H   0  0  0  0  0  0  0  0  0  0  0  0
   38.5940   23.3500   38.1190 C   0  0  0  0  0  0  0  0  0  0  0  0
   38.1430   23.8260   38.9840 H   0  0  0  0  0  0  0  0  0  0  0  0
   39.9140   22.8980   38.2060 C   0  0  0  0  0  3  0  0  0  0  0  0
   40.4950   22.2850   37.0920 C   0  0  0  0  0  3  0  0  0  0  0  0
   39.7360   22.1600   35.9660 N   0  0  0  0  0  0  0  0  0  0  0  0
   37.4450   23.9120   31.2650 O   0  0  0  0  0  0  0  0  0  0  0  0
   36.5650   26.0990   32.5700 O   0  0  0  0  0  0  0  0  0  0  0  0
   36.7400   25.4750   31.1870 P   0  0  0  0  0  0  0  0  0  0  0  0
   37.7690   26.4080   30.2240 O   0  0  0  0  0  0  0  0  0  0  0  0
   38.1510   27.1130   30.8060 H   0  0  0  0  0  0  0  0  0  0  0  0
   35.2020   25.3670   30.4980 O   0  0  0  0  0  0  0  0  0  0  0  0
   35.2370   24.7270   29.7440 H   0  0  0  0  0  0  0  0  0  0  0  0
  1  2  1  0  0  0  0
  2  7  1  0  0  0  0
  2  3  2  0  0  0  0
  3  9  1  0  0  0  0
  4  3  1  0  0  0  0
  5  4  2  0  0  0  0
  6  1  2  0  0  0  0
  6  5  1  0  0  0  0
  8  5  1  0  0  0  0
  9 16  2  0  0  0  0
  9 10  1  0  0  0  0
 10 12  2  0  0  0  0
 11 10  1  0  0  0  0
 12 14  1  0  0  0  0
 12 13  1  0  0  0  0
 15 14  2  0  0  0  0
 16 15  1  0  0  0  0
 17  1  1  0  0  0  0
 19 17  1  0  0  0  0
 19 18  2  0  0  0  0
 20 21  1  0  0  0  0
 20 19  1  0  0  0  0
 22 19  1  0  0  0  0
 23 22  1  0  0  0  0
M  END
>  <minimizedAffinity>
-4.551126

$$$$
