
 OpenBabel03272510163D

 27 29  0  0  0  0  0  0  0  0999 V2000
   37.3250   29.3460   51.0480 Br  0  0  0  0  0  0  0  0  0  0  0  0
   35.9720   29.3500   49.6950 C   0  0  0  0  0  0  0  0  0  0  0  0
   35.9980   30.2790   48.6680 C   0  0  0  0  0  0  0  0  0  0  0  0
   34.9810   30.2140   47.7290 C   0  0  0  0  0  0  0  0  0  0  0  0
   33.9710   29.2850   47.7750 C   0  0  0  0  0  0  0  0  0  0  0  0
   33.9760   28.3810   48.8070 C   0  0  0  0  0  0  0  0  0  0  0  0
   34.9750   28.4230   49.7530 C   0  0  0  0  0  0  0  0  0  0  0  0
   35.0360   30.9570   46.9410 H   0  0  0  0  0  0  0  0  0  0  0  0
   33.1910   27.6410   48.8630 H   0  0  0  0  0  0  0  0  0  0  0  0
   34.9400   27.6810   50.5590 H   0  0  0  0  0  0  0  0  0  0  0  0
   38.0000   33.2100   49.4660 C   0  0  0  0  0  0  0  0  0  0  0  0
   39.0290   33.2080   48.5010 C   0  0  0  0  0  0  0  0  0  0  0  0
   39.0130   32.1700   47.5680 C   0  0  0  0  0  0  0  0  0  0  0  0
   38.0250   31.2350   47.6410 N   0  0  0  0  0  0  0  0  0  0  0  0
   37.0540   31.2770   48.5890 C   0  0  0  0  0  0  0  0  0  0  0  0
   37.0440   32.2750   49.5090 N   0  0  0  0  0  0  0  0  0  0  0  0
   38.0160   34.0280   50.1980 H   0  0  0  0  0  0  0  0  0  0  0  0
   39.7760   33.9940   48.5180 H   0  0  0  0  0  0  0  0  0  0  0  0
   39.7730   32.1370   46.8260 H   0  0  0  0  0  0  0  0  0  0  0  0
   32.9640   29.3250   46.7270 C   0  0  0  0  0  0  0  0  0  0  0  0
   33.0700   30.0960   45.5880 C   0  0  0  0  0  0  0  0  0  0  0  0
   33.9290   30.7060   45.4450 H   0  0  0  0  0  0  0  0  0  0  0  0
   32.1000   30.1200   44.6010 C   0  0  0  0  0  0  0  0  0  0  0  0
   32.2420   30.7440   43.7350 H   0  0  0  0  0  0  0  0  0  0  0  0
   30.9820   29.3240   44.7940 C   0  0  0  0  0  3  0  0  0  0  0  0
   30.8790   28.5500   45.9390 C   0  0  0  0  0  3  0  0  0  0  0  0
   31.8660   28.5800   46.8560 N   0  0  0  0  0  0  0  0  0  0  0  0
  2  7  1  0  0  0  0
  2  1  1  0  0  0  0
  3  2  2  0  0  0  0
  4  5  2  0  0  0  0
  4  3  1  0  0  0  0
  5  6  1  0  0  0  0
  6  9  1  0  0  0  0
  6  7  2  0  0  0  0
  7 10  1  0  0  0  0
  8  4  1  0  0  0  0
 11 16  1  0  0  0  0
 11 17  1  0  0  0  0
 12 18  1  0  0  0  0
 12 11  2  0  0  0  0
 13 14  2  0  0  0  0
 13 12  1  0  0  0  0
 14 15  1  0  0  0  0
 15  3  1  0  0  0  0
 15 16  2  0  0  0  0
 19 13  1  0  0  0  0
 20 27  1  0  0  0  0
 20  5  1  0  0  0  0
 21 20  2  0  0  0  0
 22 21  1  0  0  0  0
 23 25  2  0  0  0  0
 23 21  1  0  0  0  0
 24 23  1  0  0  0  0
 25 26  1  0  0  0  0
 26 27  2  0  0  0  0
M  END
>  <minimizedAffinity>
-5.88191605

>  <minimizedRMSD>
0.355172575

$$$$
