
 OpenBabel03272506313D

 33 35  0  0  1  0  0  0  0  0999 V2000
   38.2770   24.9360   33.7210 C   0  0  1  0  0  0  0  0  0  0  0  0
   39.5270   25.6560   33.4040 C   0  0  0  0  0  0  0  0  0  0  0  0
   39.6790   27.0380   33.9650 C   0  0  0  0  0  0  0  0  0  0  0  0
   39.1170   27.2370   35.3260 C   0  0  0  0  0  0  0  0  0  0  0  0
   37.8550   26.5300   35.6510 C   0  0  0  0  0  0  0  0  0  0  0  0
   37.8410   25.1210   35.1290 C   0  0  2  0  0  0  0  0  0  0  0  0
   38.5040   23.8230   33.6450 H   0  0  0  0  0  0  0  0  0  0  0  0
   40.3380   25.0770   33.9540 H   0  0  0  0  0  0  0  0  0  0  0  0
   39.8870   25.6540   32.3890 H   0  0  0  0  0  0  0  0  0  0  0  0
   39.2370   27.7470   33.2340 H   0  0  0  0  0  0  0  0  0  0  0  0
   40.7620   27.2950   33.9890 H   0  0  0  0  0  0  0  0  0  0  0  0
   39.9040   26.9580   36.0760 H   0  0  0  0  0  0  0  0  0  0  0  0
   38.9510   28.3290   35.4880 H   0  0  0  0  0  0  0  0  0  0  0  0
   36.9660   27.0940   35.3000 H   0  0  0  0  0  0  0  0  0  0  0  0
   37.7770   26.4490   36.7570 H   0  0  0  0  0  0  0  0  0  0  0  0
   36.8100   24.7790   35.2600 H   0  0  0  0  0  0  0  0  0  0  0  0
   36.6630   26.3560   32.3350 C   0  0  0  0  0  0  0  0  0  0  0  0
   37.1900   25.1040   32.7320 C   0  0  0  0  0  0  0  0  0  0  0  0
   36.6480   23.9840   32.1320 C   0  0  0  0  0  0  0  0  0  0  0  0
   35.6580   24.1200   31.2130 N   0  0  0  0  0  0  0  0  0  0  0  0
   35.1830   25.3440   30.8620 C   0  0  0  0  0  0  0  0  0  0  0  0
   35.6890   26.4650   31.4270 N   0  0  0  0  0  0  0  0  0  0  0  0
   37.0520   27.2360   32.7740 H   0  0  0  0  0  0  0  0  0  0  0  0
   36.8780   22.9450   32.2550 H   0  0  0  0  0  0  0  0  0  0  0  0
   34.3940   25.4790   30.1300 H   0  0  0  0  0  0  0  0  0  0  0  0
   38.6350   24.2150   36.0510 C   0  0  0  0  0  0  0  0  0  0  0  0
   38.3190   24.1190   37.4050 C   0  0  0  0  0  0  0  0  0  0  0  0
   37.4850   24.7060   37.8130 H   0  0  0  0  0  0  0  0  0  0  0  0
   38.9990   23.3210   38.2780 C   0  0  0  0  0  0  0  0  0  0  0  0
   38.7170   23.2750   39.3430 H   0  0  0  0  0  0  0  0  0  0  0  0
   40.0560   22.5710   37.7840 C   0  0  0  0  0  3  0  0  0  0  0  0
   40.3570   22.6720   36.4510 C   0  0  0  0  0  3  0  0  0  0  0  0
   39.6740   23.4650   35.6070 N   0  0  0  0  0  0  0  0  0  0  0  0
  1  7  1  6  0  0  0
  1  6  1  0  0  0  0
  2  1  1  0  0  0  0
  2  8  1  0  0  0  0
  2  3  1  0  0  0  0
  3 11  1  0  0  0  0
  3  4  1  0  0  0  0
  4 13  1  0  0  0  0
  4  5  1  0  0  0  0
  4 12  1  0  0  0  0
  5 15  1  0  0  0  0
  6 16  1  1  0  0  0
  6  5  1  0  0  0  0
  6 26  1  0  0  0  0
  9  2  1  0  0  0  0
 10  3  1  0  0  0  0
 14  5  1  0  0  0  0
 17 18  1  0  0  0  0
 17 23  1  0  0  0  0
 18  1  1  0  0  0  0
 19 24  1  0  0  0  0
 19 18  2  0  0  0  0
 20 19  1  0  0  0  0
 21 20  2  0  0  0  0
 21 22  1  0  0  0  0
 22 17  2  0  0  0  0
 25 21  1  0  0  0  0
 26 27  1  0  0  0  0
 27 28  1  0  0  0  0
 27 29  2  0  0  0  0
 29 30  1  0  0  0  0
 31 29  1  0  0  0  0
 32 31  2  0  0  0  0
 33 26  2  0  0  0  0
 33 32  1  0  0  0  0
M  END
>  <minimizedAffinity>
-5.49033356

$$$$

 OpenBabel03272506313D

 33 35  0  0  1  0  0  0  0  0999 V2000
   38.1380   24.8870   34.9260 C   0  0  1  0  0  0  0  0  0  0  0  0
   37.9420   26.2920   35.3380 C   0  0  0  0  0  0  0  0  0  0  0  0
   38.9340   27.2950   34.8320 C   0  0  0  0  0  0  0  0  0  0  0  0
   39.4230   27.0640   33.4490 C   0  0  0  0  0  0  0  0  0  0  0  0
   39.6370   25.6580   33.0280 C   0  0  0  0  0  0  0  0  0  0  0  0
   38.5380   24.7490   33.5030 C   0  0  2  0  0  0  0  0  0  0  0  0
   37.1200   24.3780   34.9780 H   0  0  0  0  0  0  0  0  0  0  0  0
   36.9820   26.6110   34.8170 H   0  0  0  0  0  0  0  0  0  0  0  0
   37.7290   26.5070   36.3720 H   0  0  0  0  0  0  0  0  0  0  0  0
   39.7730   27.3330   35.5600 H   0  0  0  0  0  0  0  0  0  0  0  0
   38.4720   28.3070   34.8790 H   0  0  0  0  0  0  0  0  0  0  0  0
   38.7140   27.5610   32.7370 H   0  0  0  0  0  0  0  0  0  0  0  0
   40.3860   27.6130   33.3130 H   0  0  0  0  0  0  0  0  0  0  0  0
   40.6310   25.2810   33.3470 H   0  0  0  0  0  0  0  0  0  0  0  0
   39.6100   25.6190   31.9180 H   0  0  0  0  0  0  0  0  0  0  0  0
   38.8990   23.7360   33.3010 H   0  0  0  0  0  0  0  0  0  0  0  0
   40.2360   23.5660   35.5560 C   0  0  0  0  0  0  0  0  0  0  0  0
   38.9470   24.0690   35.8560 C   0  0  0  0  0  0  0  0  0  0  0  0
   38.4420   23.7760   37.1080 C   0  0  0  0  0  0  0  0  0  0  0  0
   39.1760   23.0370   37.9790 N   0  0  0  0  0  0  0  0  0  0  0  0
   40.4110   22.5750   37.6470 C   0  0  0  0  0  0  0  0  0  0  0  0
   40.9390   22.8420   36.4310 N   0  0  0  0  0  0  0  0  0  0  0  0
   40.6550   23.7690   34.6070 H   0  0  0  0  0  0  0  0  0  0  0  0
   37.5110   24.0440   37.5660 H   0  0  0  0  0  0  0  0  0  0  0  0
   41.0170   21.9840   38.3260 H   0  0  0  0  0  0  0  0  0  0  0  0
   37.3260   24.8790   32.5980 C   0  0  0  0  0  0  0  0  0  0  0  0
   36.6240   23.7510   32.1770 C   0  0  0  0  0  0  0  0  0  0  0  0
   36.9490   22.7540   32.5020 H   0  0  0  0  0  0  0  0  0  0  0  0
   35.5300   23.8120   31.3650 C   0  0  0  0  0  0  0  0  0  0  0  0
   35.0020   22.8950   31.0540 H   0  0  0  0  0  0  0  0  0  0  0  0
   35.1020   25.0620   30.9420 C   0  0  0  0  0  3  0  0  0  0  0  0
   35.8000   26.1630   31.3630 C   0  0  0  0  0  3  0  0  0  0  0  0
   36.8770   26.0820   32.1640 N   0  0  0  0  0  0  0  0  0  0  0  0
  1  7  1  1  0  0  0
  1  2  1  0  0  0  0
  1 18  1  0  0  0  0
  2  9  1  0  0  0  0
  3 11  1  0  0  0  0
  3  2  1  0  0  0  0
  3 10  1  0  0  0  0
  4  3  1  0  0  0  0
  5 14  1  0  0  0  0
  5  4  1  0  0  0  0
  5  6  1  0  0  0  0
  6 16  1  6  0  0  0
  6  1  1  0  0  0  0
  8  2  1  0  0  0  0
 12  4  1  0  0  0  0
 13  4  1  0  0  0  0
 15  5  1  0  0  0  0
 17 18  2  0  0  0  0
 17 22  1  0  0  0  0
 18 19  1  0  0  0  0
 19 24  1  0  0  0  0
 19 20  2  0  0  0  0
 21 20  1  0  0  0  0
 21 25  1  0  0  0  0
 22 21  2  0  0  0  0
 23 17  1  0  0  0  0
 26  6  1  0  0  0  0
 27 28  1  0  0  0  0
 27 26  1  0  0  0  0
 29 27  2  0  0  0  0
 30 29  1  0  0  0  0
 31 32  2  0  0  0  0
 31 29  1  0  0  0  0
 32 33  1  0  0  0  0
 33 26  2  0  0  0  0
M  END
>  <minimizedAffinity>
-5.20448256

$$$$

 OpenBabel03272506313D

 33 35  0  0  1  0  0  0  0  0999 V2000
   38.6730   25.0370   33.8410 C   0  0  1  0  0  0  0  0  0  0  0  0
   39.3490   26.3400   34.0030 C   0  0  0  0  0  0  0  0  0  0  0  0
   38.8430   27.2400   35.0900 C   0  0  0  0  0  0  0  0  0  0  0  0
   38.4050   26.5520   36.3310 C   0  0  0  0  0  0  0  0  0  0  0  0
   37.7120   25.2490   36.1800 C   0  0  0  0  0  0  0  0  0  0  0  0
   38.3550   24.3820   35.1340 C   0  0  2  0  0  0  0  0  0  0  0  0
   39.4210   24.3320   33.3490 H   0  0  0  0  0  0  0  0  0  0  0  0
   40.3940   26.0770   34.3680 H   0  0  0  0  0  0  0  0  0  0  0  0
   39.5510   26.9350   33.1270 H   0  0  0  0  0  0  0  0  0  0  0  0
   38.0290   27.8610   34.6590 H   0  0  0  0  0  0  0  0  0  0  0  0
   39.6450   27.9670   35.3520 H   0  0  0  0  0  0  0  0  0  0  0  0
   39.2990   26.4240   36.9970 H   0  0  0  0  0  0  0  0  0  0  0  0
   37.7290   27.2370   36.9000 H   0  0  0  0  0  0  0  0  0  0  0  0
   36.6300   25.3810   35.9780 H   0  0  0  0  0  0  0  0  0  0  0  0
   37.8040   24.6940   37.1390 H   0  0  0  0  0  0  0  0  0  0  0  0
   37.6570   23.5520   34.9850 H   0  0  0  0  0  0  0  0  0  0  0  0
   36.9890   23.8550   32.3210 C   0  0  0  0  0  0  0  0  0  0  0  0
   37.5520   25.0290   32.8760 C   0  0  0  0  0  0  0  0  0  0  0  0
   36.9900   26.2300   32.4870 C   0  0  0  0  0  0  0  0  0  0  0  0
   35.9520   26.2410   31.6130 N   0  0  0  0  0  0  0  0  0  0  0  0
   35.4430   25.0870   31.1050 C   0  0  0  0  0  0  0  0  0  0  0  0
   35.9660   23.8910   31.4630 N   0  0  0  0  0  0  0  0  0  0  0  0
   37.3930   22.9170   32.5940 H   0  0  0  0  0  0  0  0  0  0  0  0
   37.2290   27.2360   32.7680 H   0  0  0  0  0  0  0  0  0  0  0  0
   34.6140   25.0700   30.4060 H   0  0  0  0  0  0  0  0  0  0  0  0
   39.5900   23.7070   35.7030 C   0  0  0  0  0  0  0  0  0  0  0  0
   39.5620   23.1080   36.9610 C   0  0  0  0  0  0  0  0  0  0  0  0
   38.6360   23.1220   37.5510 H   0  0  0  0  0  0  0  0  0  0  0  0
   40.6420   22.4890   37.5180 C   0  0  0  0  0  0  0  0  0  0  0  0
   40.5770   22.0270   38.5180 H   0  0  0  0  0  0  0  0  0  0  0  0
   41.8220   22.4590   36.7900 C   0  0  0  0  0  3  0  0  0  0  0  0
   41.8380   23.0520   35.5550 C   0  0  0  0  0  3  0  0  0  0  0  0
   40.7610   23.6570   35.0230 N   0  0  0  0  0  0  0  0  0  0  0  0
  1  7  1  6  0  0  0
  1  2  1  0  0  0  0
  1  6  1  0  0  0  0
  2  8  1  0  0  0  0
  2  3  1  0  0  0  0
  3 11  1  0  0  0  0
  3  4  1  0  0  0  0
  4 13  1  0  0  0  0
  4 12  1  0  0  0  0
  5  4  1  0  0  0  0
  5 15  1  0  0  0  0
  6 16  1  6  0  0  0
  6 26  1  0  0  0  0
  6  5  1  0  0  0  0
  9  2  1  0  0  0  0
 10  3  1  0  0  0  0
 14  5  1  0  0  0  0
 17 23  1  0  0  0  0
 17 18  1  0  0  0  0
 18  1  1  0  0  0  0
 19 24  1  0  0  0  0
 19 18  2  0  0  0  0
 20 19  1  0  0  0  0
 21 22  1  0  0  0  0
 21 20  2  0  0  0  0
 22 17  2  0  0  0  0
 25 21  1  0  0  0  0
 26 27  1  0  0  0  0
 27 29  2  0  0  0  0
 27 28  1  0  0  0  0
 29 30  1  0  0  0  0
 31 29  1  0  0  0  0
 32 31  2  0  0  0  0
 33 32  1  0  0  0  0
 33 26  2  0  0  0  0
M  END
>  <minimizedAffinity>
-5.12209082

$$$$

 OpenBabel03272506313D

 33 35  0  0  1  0  0  0  0  0999 V2000
   38.0720   26.2450   34.8780 C   0  0  1  0  0  0  0  0  0  0  0  0
   39.2620   27.0050   35.3120 C   0  0  0  0  0  0  0  0  0  0  0  0
   40.4120   27.0760   34.3540 C   0  0  0  0  0  0  0  0  0  0  0  0
   40.0390   27.1770   32.9190 C   0  0  0  0  0  0  0  0  0  0  0  0
   38.8540   26.4070   32.4680 C   0  0  0  0  0  0  0  0  0  0  0  0
   37.7210   26.4780   33.4540 C   0  0  2  0  0  0  0  0  0  0  0  0
   37.1810   26.6610   35.4540 H   0  0  0  0  0  0  0  0  0  0  0  0
   38.9100   28.0860   35.3560 H   0  0  0  0  0  0  0  0  0  0  0  0
   39.6480   26.8450   36.3050 H   0  0  0  0  0  0  0  0  0  0  0  0
   41.0630   26.1970   34.5450 H   0  0  0  0  0  0  0  0  0  0  0  0
   41.0410   27.9570   34.6180 H   0  0  0  0  0  0  0  0  0  0  0  0
   39.8970   28.2610   32.6670 H   0  0  0  0  0  0  0  0  0  0  0  0
   40.9120   26.8580   32.3000 H   0  0  0  0  0  0  0  0  0  0  0  0
   39.1130   25.3540   32.2350 H   0  0  0  0  0  0  0  0  0  0  0  0
   38.4760   26.8700   31.5310 H   0  0  0  0  0  0  0  0  0  0  0  0
   36.9970   25.7340   33.1090 H   0  0  0  0  0  0  0  0  0  0  0  0
   38.1230   23.7430   34.3520 C   0  0  0  0  0  0  0  0  0  0  0  0
   38.0620   24.8190   35.2690 C   0  0  0  0  0  0  0  0  0  0  0  0
   38.0070   24.4900   36.6090 C   0  0  0  0  0  0  0  0  0  0  0  0
   38.0100   23.1860   36.9880 N   0  0  0  0  0  0  0  0  0  0  0  0
   38.0700   22.1840   36.0710 C   0  0  0  0  0  0  0  0  0  0  0  0
   38.1260   22.4670   34.7490 N   0  0  0  0  0  0  0  0  0  0  0  0
   38.1660   23.9550   33.3170 H   0  0  0  0  0  0  0  0  0  0  0  0
   37.9640   25.1120   37.4810 H   0  0  0  0  0  0  0  0  0  0  0  0
   38.0750   21.1360   36.3480 H   0  0  0  0  0  0  0  0  0  0  0  0
   36.9780   27.7930   33.3010 C   0  0  0  0  0  0  0  0  0  0  0  0
   36.3030   28.3620   34.3790 C   0  0  0  0  0  0  0  0  0  0  0  0
   36.3070   27.8560   35.3530 H   0  0  0  0  0  0  0  0  0  0  0  0
   35.6200   29.5400   34.2960 C   0  0  0  0  0  0  0  0  0  0  0  0
   35.0990   29.9570   35.1740 H   0  0  0  0  0  0  0  0  0  0  0  0
   35.6020   30.1960   33.0740 C   0  0  0  0  0  3  0  0  0  0  0  0
   36.2700   29.6270   32.0220 C   0  0  0  0  0  3  0  0  0  0  0  0
   36.9380   28.4650   32.1240 N   0  0  0  0  0  0  0  0  0  0  0  0
  1 18  1  0  0  0  0
  1  2  1  0  0  0  0
  1  7  1  1  0  0  0
  2  8  1  0  0  0  0
  2  9  1  0  0  0  0
  3 10  1  0  0  0  0
  3 11  1  0  0  0  0
  3  2  1  0  0  0  0
  4  3  1  0  0  0  0
  5  4  1  0  0  0  0
  5  6  1  0  0  0  0
  6 16  1  6  0  0  0
  6  1  1  0  0  0  0
 12  4  1  0  0  0  0
 13  4  1  0  0  0  0
 14  5  1  0  0  0  0
 15  5  1  0  0  0  0
 17 22  2  0  0  0  0
 17 18  1  0  0  0  0
 18 19  2  0  0  0  0
 19 20  1  0  0  0  0
 19 24  1  0  0  0  0
 21 25  1  0  0  0  0
 21 20  2  0  0  0  0
 22 21  1  0  0  0  0
 23 17  1  0  0  0  0
 26  6  1  0  0  0  0
 26 27  1  0  0  0  0
 27 28  1  0  0  0  0
 29 27  2  0  0  0  0
 29 30  1  0  0  0  0
 31 29  1  0  0  0  0
 32 33  1  0  0  0  0
 32 31  2  0  0  0  0
 33 26  2  0  0  0  0
M  END
>  <minimizedAffinity>
-5.09066439

$$$$

 OpenBabel03272506313D

 33 35  0  0  1  0  0  0  0  0999 V2000
   37.9310   26.6050   33.2550 C   0  0  1  0  0  0  0  0  0  0  0  0
   39.2330   26.4550   32.5730 C   0  0  0  0  0  0  0  0  0  0  0  0
   40.4320   27.0420   33.2550 C   0  0  0  0  0  0  0  0  0  0  0  0
   40.4350   26.9360   34.7360 C   0  0  0  0  0  0  0  0  0  0  0  0
   39.1360   27.0980   35.4340 C   0  0  0  0  0  0  0  0  0  0  0  0
   38.0160   26.3920   34.7220 C   0  0  2  0  0  0  0  0  0  0  0  0
   37.2630   25.7570   32.8910 H   0  0  0  0  0  0  0  0  0  0  0  0
   39.4490   25.3380   32.6120 H   0  0  0  0  0  0  0  0  0  0  0  0
   39.2960   26.6680   31.5180 H   0  0  0  0  0  0  0  0  0  0  0  0
   40.5240   28.0970   32.9220 H   0  0  0  0  0  0  0  0  0  0  0  0
   41.3450   26.5400   32.8620 H   0  0  0  0  0  0  0  0  0  0  0  0
   40.8880   25.9480   35.0180 H   0  0  0  0  0  0  0  0  0  0  0  0
   41.1430   27.6950   35.1470 H   0  0  0  0  0  0  0  0  0  0  0  0
   38.8910   28.1670   35.6010 H   0  0  0  0  0  0  0  0  0  0  0  0
   39.2170   26.6180   36.4330 H   0  0  0  0  0  0  0  0  0  0  0  0
   37.1030   26.7390   35.2150 H   0  0  0  0  0  0  0  0  0  0  0  0
   37.2680   28.4540   31.6170 C   0  0  0  0  0  0  0  0  0  0  0  0
   37.1560   27.8040   32.8700 C   0  0  0  0  0  0  0  0  0  0  0  0
   36.2480   28.3350   33.7650 C   0  0  0  0  0  0  0  0  0  0  0  0
   35.5190   29.4270   33.4240 N   0  0  0  0  0  0  0  0  0  0  0  0
   35.6590   30.0190   32.2080 C   0  0  0  0  0  0  0  0  0  0  0  0
   36.5380   29.5280   31.3040 N   0  0  0  0  0  0  0  0  0  0  0  0
   37.9530   28.0770   30.9060 H   0  0  0  0  0  0  0  0  0  0  0  0
   35.9800   28.0240   34.7550 H   0  0  0  0  0  0  0  0  0  0  0  0
   35.0870   30.8910   31.9110 H   0  0  0  0  0  0  0  0  0  0  0  0
   38.0490   24.9090   35.0400 C   0  0  0  0  0  0  0  0  0  0  0  0
   38.1660   24.4620   36.3550 C   0  0  0  0  0  0  0  0  0  0  0  0
   38.2340   25.1900   37.1740 H   0  0  0  0  0  0  0  0  0  0  0  0
   38.2000   23.1420   36.6960 C   0  0  0  0  0  0  0  0  0  0  0  0
   38.2930   22.8300   37.7500 H   0  0  0  0  0  0  0  0  0  0  0  0
   38.1140   22.2050   35.6770 C   0  0  0  0  0  3  0  0  0  0  0  0
   38.0000   22.6550   34.3890 C   0  0  0  0  0  3  0  0  0  0  0  0
   37.9680   23.9620   34.0730 N   0  0  0  0  0  0  0  0  0  0  0  0
  1  7  1  6  0  0  0
  1  6  1  0  0  0  0
  2  8  1  0  0  0  0
  2  1  1  0  0  0  0
  2  3  1  0  0  0  0
  3  4  1  0  0  0  0
  4 12  1  0  0  0  0
  4 13  1  0  0  0  0
  4  5  1  0  0  0  0
  5 14  1  0  0  0  0
  5 15  1  0  0  0  0
  6 26  1  0  0  0  0
  6 16  1  1  0  0  0
  6  5  1  0  0  0  0
  9  2  1  0  0  0  0
 10  3  1  0  0  0  0
 11  3  1  0  0  0  0
 17 18  1  0  0  0  0
 18  1  1  0  0  0  0
 18 19  2  0  0  0  0
 19 24  1  0  0  0  0
 20 19  1  0  0  0  0
 21 20  2  0  0  0  0
 22 17  2  0  0  0  0
 22 21  1  0  0  0  0
 23 17  1  0  0  0  0
 25 21  1  0  0  0  0
 26 27  1  0  0  0  0
 27 29  2  0  0  0  0
 27 28  1  0  0  0  0
 29 30  1  0  0  0  0
 31 29  1  0  0  0  0
 32 31  2  0  0  0  0
 33 32  1  0  0  0  0
 33 26  2  0  0  0  0
M  END
>  <minimizedAffinity>
-4.91770697

$$$$

 OpenBabel03272506313D

 33 35  0  0  1  0  0  0  0  0999 V2000
   38.6060   24.3020   35.1650 C   0  0  1  0  0  0  0  0  0  0  0  0
   37.8200   25.1170   36.1130 C   0  0  0  0  0  0  0  0  0  0  0  0
   38.3520   26.4780   36.4480 C   0  0  0  0  0  0  0  0  0  0  0  0
   39.0050   27.1990   35.3250 C   0  0  0  0  0  0  0  0  0  0  0  0
   39.8090   26.3930   34.3740 C   0  0  0  0  0  0  0  0  0  0  0  0
   39.1430   25.0910   34.0270 C   0  0  2  0  0  0  0  0  0  0  0  0
   37.8850   23.5670   34.6770 H   0  0  0  0  0  0  0  0  0  0  0  0
   36.8590   25.3590   35.5530 H   0  0  0  0  0  0  0  0  0  0  0  0
   37.4540   24.6570   37.0160 H   0  0  0  0  0  0  0  0  0  0  0  0
   39.0390   26.3650   37.3130 H   0  0  0  0  0  0  0  0  0  0  0  0
   37.5140   27.1030   36.8300 H   0  0  0  0  0  0  0  0  0  0  0  0
   38.2140   27.7610   34.7610 H   0  0  0  0  0  0  0  0  0  0  0  0
   39.6660   27.9940   35.7470 H   0  0  0  0  0  0  0  0  0  0  0  0
   40.8400   26.2260   34.7470 H   0  0  0  0  0  0  0  0  0  0  0  0
   39.8900   26.9600   33.4210 H   0  0  0  0  0  0  0  0  0  0  0  0
   39.9020   24.5180   33.4850 H   0  0  0  0  0  0  0  0  0  0  0  0
   39.6100   23.0570   37.1600 C   0  0  0  0  0  0  0  0  0  0  0  0
   39.6010   23.4010   35.7880 C   0  0  0  0  0  0  0  0  0  0  0  0
   40.5820   22.8350   34.9980 C   0  0  0  0  0  0  0  0  0  0  0  0
   41.4950   21.9950   35.5500 N   0  0  0  0  0  0  0  0  0  0  0  0
   41.4660   21.6920   36.8750 C   0  0  0  0  0  0  0  0  0  0  0  0
   40.5190   22.2270   37.6800 N   0  0  0  0  0  0  0  0  0  0  0  0
   38.8740   23.4710   37.7960 H   0  0  0  0  0  0  0  0  0  0  0  0
   40.7770   22.9310   33.9490 H   0  0  0  0  0  0  0  0  0  0  0  0
   42.1830   21.0240   37.3390 H   0  0  0  0  0  0  0  0  0  0  0  0
   38.0620   25.3190   32.9860 C   0  0  0  0  0  0  0  0  0  0  0  0
   37.1890   24.2940   32.6250 C   0  0  0  0  0  0  0  0  0  0  0  0
   37.2810   23.3080   33.1000 H   0  0  0  0  0  0  0  0  0  0  0  0
   36.2020   24.4440   31.6970 C   0  0  0  0  0  0  0  0  0  0  0  0
   35.5310   23.6070   31.4400 H   0  0  0  0  0  0  0  0  0  0  0  0
   36.0680   25.6820   31.0850 C   0  0  0  0  0  3  0  0  0  0  0  0
   36.9310   26.6820   31.4470 C   0  0  0  0  0  3  0  0  0  0  0  0
   37.8990   26.5130   32.3660 N   0  0  0  0  0  0  0  0  0  0  0  0
  1  7  1  6  0  0  0
  1 18  1  0  0  0  0
  1  2  1  0  0  0  0
  2  3  1  0  0  0  0
  2  9  1  0  0  0  0
  3 11  1  0  0  0  0
  3 10  1  0  0  0  0
  4 13  1  0  0  0  0
  4  3  1  0  0  0  0
  5 14  1  0  0  0  0
  5  4  1  0  0  0  0
  6 16  1  6  0  0  0
  6  5  1  0  0  0  0
  6  1  1  0  0  0  0
  8  2  1  0  0  0  0
 12  4  1  0  0  0  0
 15  5  1  0  0  0  0
 17 22  1  0  0  0  0
 17 23  1  0  0  0  0
 18 17  2  0  0  0  0
 19 20  2  0  0  0  0
 19 18  1  0  0  0  0
 20 21  1  0  0  0  0
 21 25  1  0  0  0  0
 21 22  2  0  0  0  0
 24 19  1  0  0  0  0
 26  6  1  0  0  0  0
 27 26  1  0  0  0  0
 27 28  1  0  0  0  0
 29 27  2  0  0  0  0
 30 29  1  0  0  0  0
 31 32  2  0  0  0  0
 31 29  1  0  0  0  0
 32 33  1  0  0  0  0
 33 26  2  0  0  0  0
M  END
>  <minimizedAffinity>
-4.85693645

$$$$

 OpenBabel03272506313D

 33 35  0  0  1  0  0  0  0  0999 V2000
   38.5110   23.3780   35.6750 C   0  0  1  0  0  0  0  0  0  0  0  0
   38.4180   23.7950   37.0880 C   0  0  0  0  0  0  0  0  0  0  0  0
   39.2620   23.0480   38.0770 C   0  0  0  0  0  0  0  0  0  0  0  0
   40.6020   22.6360   37.5850 C   0  0  0  0  0  0  0  0  0  0  0  0
   40.7050   22.2010   36.1710 C   0  0  0  0  0  0  0  0  0  0  0  0
   39.9000   23.0730   35.2480 C   0  0  2  0  0  0  0  0  0  0  0  0
   38.2180   24.2770   35.0400 H   0  0  0  0  0  0  0  0  0  0  0  0
   38.8780   24.8360   37.1090 H   0  0  0  0  0  0  0  0  0  0  0  0
   37.4450   23.9620   37.5200 H   0  0  0  0  0  0  0  0  0  0  0  0
   38.6720   22.1760   38.4300 H   0  0  0  0  0  0  0  0  0  0  0  0
   39.3970   23.6840   38.9810 H   0  0  0  0  0  0  0  0  0  0  0  0
   41.3190   23.4800   37.7690 H   0  0  0  0  0  0  0  0  0  0  0  0
   40.9790   21.8050   38.2290 H   0  0  0  0  0  0  0  0  0  0  0  0
   40.4310   21.1330   36.0500 H   0  0  0  0  0  0  0  0  0  0  0  0
   41.7640   22.3090   35.8510 H   0  0  0  0  0  0  0  0  0  0  0  0
   39.9020   22.5480   34.2880 H   0  0  0  0  0  0  0  0  0  0  0  0
   36.6210   21.7180   36.1380 C   0  0  0  0  0  0  0  0  0  0  0  0
   37.5220   22.3600   35.2560 C   0  0  0  0  0  0  0  0  0  0  0  0
   37.4420   22.0090   33.9220 C   0  0  0  0  0  0  0  0  0  0  0  0
   36.5310   21.0880   33.5180 N   0  0  0  0  0  0  0  0  0  0  0  0
   35.6840   20.4960   34.4020 C   0  0  0  0  0  0  0  0  0  0  0  0
   35.7320   20.8140   35.7160 N   0  0  0  0  0  0  0  0  0  0  0  0
   36.6530   21.9610   37.1670 H   0  0  0  0  0  0  0  0  0  0  0  0
   37.9980   22.3550   33.0740 H   0  0  0  0  0  0  0  0  0  0  0  0
   34.9480   19.7570   34.1040 H   0  0  0  0  0  0  0  0  0  0  0  0
   40.6560   24.3560   34.9520 C   0  0  0  0  0  0  0  0  0  0  0  0
   39.9740   25.5430   34.6930 C   0  0  0  0  0  0  0  0  0  0  0  0
   38.8760   25.5550   34.7030 H   0  0  0  0  0  0  0  0  0  0  0  0
   40.6020   26.7230   34.4220 C   0  0  0  0  0  0  0  0  0  0  0  0
   40.0250   27.6410   34.2220 H   0  0  0  0  0  0  0  0  0  0  0  0
   41.9890   26.7310   34.4050 C   0  0  0  0  0  3  0  0  0  0  0  0
   42.6490   25.5580   34.6610 C   0  0  0  0  0  3  0  0  0  0  0  0
   42.0100   24.4050   34.9270 N   0  0  0  0  0  0  0  0  0  0  0  0
  1  7  1  6  0  0  0
  1  2  1  0  0  0  0
  2  8  1  0  0  0  0
  2  9  1  0  0  0  0
  2  3  1  0  0  0  0
  3 10  1  0  0  0  0
  3 11  1  0  0  0  0
  4 12  1  0  0  0  0
  4  3  1  0  0  0  0
  4 13  1  0  0  0  0
  5  4  1  0  0  0  0
  6 16  1  6  0  0  0
  6  1  1  0  0  0  0
  6  5  1  0  0  0  0
 14  5  1  0  0  0  0
 15  5  1  0  0  0  0
 17 23  1  0  0  0  0
 18  1  1  0  0  0  0
 18 17  2  0  0  0  0
 19 18  1  0  0  0  0
 20 19  2  0  0  0  0
 20 21  1  0  0  0  0
 21 22  2  0  0  0  0
 22 17  1  0  0  0  0
 24 19  1  0  0  0  0
 25 21  1  0  0  0  0
 26  6  1  0  0  0  0
 27 28  1  0  0  0  0
 27 26  2  0  0  0  0
 29 27  1  0  0  0  0
 30 29  1  0  0  0  0
 31 29  2  0  0  0  0
 31 32  1  0  0  0  0
 32 33  2  0  0  0  0
 33 26  1  0  0  0  0
M  END
>  <minimizedAffinity>
-4.81104469

$$$$

 OpenBabel03272506313D

 33 35  0  0  1  0  0  0  0  0999 V2000
   39.9070   23.3980   35.2520 C   0  0  1  0  0  0  0  0  0  0  0  0
   40.6300   22.4200   36.0910 C   0  0  0  0  0  0  0  0  0  0  0  0
   40.4980   22.5660   37.5770 C   0  0  0  0  0  0  0  0  0  0  0  0
   39.1610   23.0030   38.0560 C   0  0  0  0  0  0  0  0  0  0  0  0
   38.4320   23.9960   37.2300 C   0  0  0  0  0  0  0  0  0  0  0  0
   38.5460   23.7050   35.7590 C   0  0  2  0  0  0  0  0  0  0  0  0
   39.7210   22.9020   34.2440 H   0  0  0  0  0  0  0  0  0  0  0  0
   40.1030   21.4300   35.8930 H   0  0  0  0  0  0  0  0  0  0  0  0
   41.6550   22.1890   35.8550 H   0  0  0  0  0  0  0  0  0  0  0  0
   41.2990   23.2570   37.9180 H   0  0  0  0  0  0  0  0  0  0  0  0
   40.7430   21.5910   38.0530 H   0  0  0  0  0  0  0  0  0  0  0  0
   38.5220   22.0920   38.1940 H   0  0  0  0  0  0  0  0  0  0  0  0
   39.2710   23.4250   39.0840 H   0  0  0  0  0  0  0  0  0  0  0  0
   38.7530   25.0330   37.4560 H   0  0  0  0  0  0  0  0  0  0  0  0
   37.3500   23.9240   37.4750 H   0  0  0  0  0  0  0  0  0  0  0  0
   38.1400   24.5910   35.2620 H   0  0  0  0  0  0  0  0  0  0  0  0
   40.1130   25.8430   34.5310 C   0  0  0  0  0  0  0  0  0  0  0  0
   40.6880   24.5960   34.8740 C   0  0  0  0  0  0  0  0  0  0  0  0
   42.0670   24.5250   34.8640 C   0  0  0  0  0  0  0  0  0  0  0  0
   42.8000   25.6180   34.5330 N   0  0  0  0  0  0  0  0  0  0  0  0
   42.2040   26.7960   34.2090 C   0  0  0  0  0  0  0  0  0  0  0  0
   40.8550   26.9060   34.2090 N   0  0  0  0  0  0  0  0  0  0  0  0
   39.0590   25.9360   34.5270 H   0  0  0  0  0  0  0  0  0  0  0  0
   42.7260   23.7110   35.0910 H   0  0  0  0  0  0  0  0  0  0  0  0
   42.7670   27.6840   33.9420 H   0  0  0  0  0  0  0  0  0  0  0  0
   37.5760   22.6050   35.3690 C   0  0  0  0  0  0  0  0  0  0  0  0
   36.7380   22.0210   36.3170 C   0  0  0  0  0  0  0  0  0  0  0  0
   36.7770   22.3590   37.3610 H   0  0  0  0  0  0  0  0  0  0  0  0
   35.8480   21.0300   36.0200 C   0  0  0  0  0  0  0  0  0  0  0  0
   35.2030   20.5940   36.8010 H   0  0  0  0  0  0  0  0  0  0  0  0
   35.7820   20.5880   34.7070 C   0  0  0  0  0  3  0  0  0  0  0  0
   36.6110   21.1690   33.7840 C   0  0  0  0  0  3  0  0  0  0  0  0
   37.4800   22.1460   34.0970 N   0  0  0  0  0  0  0  0  0  0  0  0
  1  7  1  6  0  0  0
  1  6  1  0  0  0  0
  1  2  1  0  0  0  0
  2  3  1  0  0  0  0
  3 10  1  0  0  0  0
  3 11  1  0  0  0  0
  3  4  1  0  0  0  0
  4 12  1  0  0  0  0
  4 13  1  0  0  0  0
  5 14  1  0  0  0  0
  5 15  1  0  0  0  0
  5  4  1  0  0  0  0
  6 16  1  6  0  0  0
  6  5  1  0  0  0  0
  8  2  1  0  0  0  0
  9  2  1  0  0  0  0
 17 18  1  0  0  0  0
 18  1  1  0  0  0  0
 19 18  2  0  0  0  0
 19 24  1  0  0  0  0
 20 19  1  0  0  0  0
 21 20  2  0  0  0  0
 22 21  1  0  0  0  0
 22 17  2  0  0  0  0
 23 17  1  0  0  0  0
 25 21  1  0  0  0  0
 26  6  1  0  0  0  0
 26 27  1  0  0  0  0
 27 28  1  0  0  0  0
 29 27  2  0  0  0  0
 29 30  1  0  0  0  0
 31 29  1  0  0  0  0
 32 33  1  0  0  0  0
 32 31  2  0  0  0  0
 33 26  2  0  0  0  0
M  END
>  <minimizedAffinity>
-4.74746752

$$$$

 OpenBabel03272506313D

 33 35  0  0  1  0  0  0  0  0999 V2000
   39.0940   24.7290   34.6310 C   0  0  1  0  0  0  0  0  0  0  0  0
   38.6300   25.5370   35.7770 C   0  0  0  0  0  0  0  0  0  0  0  0
   38.0560   24.7950   36.9460 C   0  0  0  0  0  0  0  0  0  0  0  0
   38.7110   23.4990   37.2600 C   0  0  0  0  0  0  0  0  0  0  0  0
   39.1680   22.6720   36.1170 C   0  0  0  0  0  0  0  0  0  0  0  0
   39.8170   23.4990   35.0410 C   0  0  2  0  0  0  0  0  0  0  0  0
   39.8830   25.3440   34.0850 H   0  0  0  0  0  0  0  0  0  0  0  0
   39.5810   25.9860   36.2130 H   0  0  0  0  0  0  0  0  0  0  0  0
   38.0260   26.4080   35.5900 H   0  0  0  0  0  0  0  0  0  0  0  0
   36.9690   24.6670   36.7610 H   0  0  0  0  0  0  0  0  0  0  0  0
   38.1160   25.4480   37.8460 H   0  0  0  0  0  0  0  0  0  0  0  0
   39.5770   23.6980   37.9450 H   0  0  0  0  0  0  0  0  0  0  0  0
   38.0080   22.8820   37.8710 H   0  0  0  0  0  0  0  0  0  0  0  0
   38.3460   22.0540   35.7020 H   0  0  0  0  0  0  0  0  0  0  0  0
   39.9520   21.9750   36.4830 H   0  0  0  0  0  0  0  0  0  0  0  0
   39.9330   22.8190   34.1910 H   0  0  0  0  0  0  0  0  0  0  0  0
   37.8180   23.2450   32.9840 C   0  0  0  0  0  0  0  0  0  0  0  0
   38.0840   24.5040   33.5740 C   0  0  0  0  0  0  0  0  0  0  0  0
   37.3270   25.5700   33.1290 C   0  0  0  0  0  0  0  0  0  0  0  0
   36.3860   25.3800   32.1690 N   0  0  0  0  0  0  0  0  0  0  0  0
   36.1650   24.1510   31.6300 C   0  0  0  0  0  0  0  0  0  0  0  0
   36.8860   23.0820   32.0410 N   0  0  0  0  0  0  0  0  0  0  0  0
   38.3780   22.4050   33.2990 H   0  0  0  0  0  0  0  0  0  0  0  0
   37.3330   26.6020   33.4200 H   0  0  0  0  0  0  0  0  0  0  0  0
   35.4190   23.9740   30.8630 H   0  0  0  0  0  0  0  0  0  0  0  0
   41.2460   23.8290   35.4280 C   0  0  0  0  0  0  0  0  0  0  0  0
   41.9840   22.9690   36.2390 C   0  0  0  0  0  0  0  0  0  0  0  0
   41.5290   22.0390   36.6050 H   0  0  0  0  0  0  0  0  0  0  0  0
   43.2710   23.2180   36.6160 C   0  0  0  0  0  0  0  0  0  0  0  0
   43.8210   22.5110   37.2600 H   0  0  0  0  0  0  0  0  0  0  0  0
   43.8670   24.3870   36.1660 C   0  0  0  0  0  3  0  0  0  0  0  0
   43.1320   25.2240   35.3690 C   0  0  0  0  0  3  0  0  0  0  0  0
   41.8640   24.9610   35.0070 N   0  0  0  0  0  0  0  0  0  0  0  0
  1  7  1  6  0  0  0
  1  6  1  0  0  0  0
  1  2  1  0  0  0  0
  2  8  1  0  0  0  0
  2  3  1  0  0  0  0
  3  4  1  0  0  0  0
  3 11  1  0  0  0  0
  4 13  1  0  0  0  0
  4 12  1  0  0  0  0
  5 15  1  0  0  0  0
  5  4  1  0  0  0  0
  6 16  1  6  0  0  0
  6 26  1  0  0  0  0
  6  5  1  0  0  0  0
  9  2  1  0  0  0  0
 10  3  1  0  0  0  0
 14  5  1  0  0  0  0
 17 23  1  0  0  0  0
 17 18  1  0  0  0  0
 18  1  1  0  0  0  0
 19 24  1  0  0  0  0
 19 18  2  0  0  0  0
 20 19  1  0  0  0  0
 21 22  1  0  0  0  0
 21 20  2  0  0  0  0
 22 17  2  0  0  0  0
 25 21  1  0  0  0  0
 26 27  1  0  0  0  0
 27 28  1  0  0  0  0
 27 29  2  0  0  0  0
 29 30  1  0  0  0  0
 31 29  1  0  0  0  0
 32 31  2  0  0  0  0
 33 32  1  0  0  0  0
 33 26  2  0  0  0  0
M  END
>  <minimizedAffinity>
-4.70739555

$$$$
