
 OpenBabel03272503543D

 43 46  0  0  1  0  0  0  0  0999 V2000
   36.7470   30.5990   46.4990 C   0  0  1  0  0  0  0  0  0  0  0  0
   35.2000   30.5180   46.3810 C   0  0  0  0  0  0  0  0  0  0  0  0
   34.9670   29.4080   45.3480 C   0  0  0  0  0  0  0  0  0  0  0  0
   35.4090   29.9530   44.0270 C   0  0  0  0  0  0  0  0  0  0  0  0
   36.8630   30.3220   44.0640 C   0  0  0  0  0  0  0  0  0  0  0  0
   37.1790   31.2460   45.2150 C   0  0  2  0  0  0  0  0  0  0  0  0
   37.0210   29.5400   46.5710 H   0  0  0  0  0  0  0  0  0  0  0  0
   34.8450   31.4970   46.0290 H   0  0  0  0  0  0  0  0  0  0  0  0
   34.7590   30.1830   47.3420 H   0  0  0  0  0  0  0  0  0  0  0  0
   33.9410   29.0470   45.3510 H   0  0  0  0  0  0  0  0  0  0  0  0
   35.6560   28.5650   45.6160 H   0  0  0  0  0  0  0  0  0  0  0  0
   35.2120   29.3090   43.1650 H   0  0  0  0  0  0  0  0  0  0  0  0
   34.8500   30.9100   43.8710 H   0  0  0  0  0  0  0  0  0  0  0  0
   37.5120   29.4060   44.1960 H   0  0  0  0  0  0  0  0  0  0  0  0
   37.2000   30.7680   43.1130 H   0  0  0  0  0  0  0  0  0  0  0  0
   36.5870   32.1650   45.0090 H   0  0  0  0  0  0  0  0  0  0  0  0
   36.6830   31.1130   48.9570 C   0  0  0  0  0  0  0  0  0  0  0  0
   37.1740   31.8240   50.0440 C   0  0  0  0  0  0  0  0  0  0  0  0
   38.1710   32.7960   49.8650 C   0  0  0  0  0  0  0  0  0  0  0  0
   38.6270   33.0050   48.5810 C   0  0  0  0  0  0  0  0  0  0  0  0
   38.1510   32.3110   47.4970 C   0  0  0  0  0  0  0  0  0  0  0  0
   37.1510   31.3390   47.6980 C   0  0  0  0  0  0  0  0  0  0  0  0
   36.8120   31.6560   51.0530 H   0  0  0  0  0  0  0  0  0  0  0  0
   38.5230   33.3240   50.7440 H   0  0  0  0  0  0  0  0  0  0  0  0
   39.4000   33.7700   48.4980 H   0  0  0  0  0  0  0  0  0  0  0  0
   38.5740   32.5550   46.5560 H   0  0  0  0  0  0  0  0  0  0  0  0
   34.6740   27.9470   49.4200 C   0  0  0  0  0  0  0  0  0  0  0  0
   35.7590   28.7780   49.0650 C   0  0  0  0  0  0  0  0  0  0  0  0
   35.6420   30.1510   49.2710 C   0  0  0  0  0  0  0  0  0  0  0  0
   34.4840   30.5860   49.8020 N   0  0  0  0  0  0  0  0  0  0  0  0
   33.4550   29.7880   50.1390 C   0  0  0  0  0  0  0  0  0  0  0  0
   33.5540   28.4810   49.9460 N   0  0  0  0  0  0  0  0  0  0  0  0
   34.7540   26.8860   49.2640 H   0  0  0  0  0  0  0  0  0  0  0  0
   36.6640   28.4020   48.6450 H   0  0  0  0  0  0  0  0  0  0  0  0
   32.5590   30.2130   50.5600 H   0  0  0  0  0  0  0  0  0  0  0  0
   38.6300   31.5610   45.1930 C   0  0  0  0  0  0  0  0  0  0  0  0
   39.6000   30.6240   45.4970 C   0  0  0  0  0  0  0  0  0  0  0  0
   39.3180   29.6150   45.7660 H   0  0  0  0  0  0  0  0  0  0  0  0
   40.9480   30.9990   45.4540 C   0  0  0  0  0  0  0  0  0  0  0  0
   41.7440   30.2950   45.6860 H   0  0  0  0  0  0  0  0  0  0  0  0
   41.3370   32.2790   45.1140 C   0  0  0  0  0  0  0  0  0  0  0  0
   40.3340   33.1820   44.8180 C   0  0  0  0  0  0  0  0  0  0  0  0
   39.0290   32.8240   44.8590 N   0  0  0  0  0  0  0  0  0  0  0  0
  1  7  1  1  0  0  0
  1 22  1  0  0  0  0
  2  1  1  0  0  0  0
  2  9  1  0  0  0  0
  3 10  1  0  0  0  0
  3 11  1  0  0  0  0
  3  2  1  0  0  0  0
  4  5  1  0  0  0  0
  4  3  1  0  0  0  0
  5 14  1  0  0  0  0
  5  6  1  0  0  0  0
  6 16  1  6  0  0  0
  6  1  1  0  0  0  0
  8  2  1  0  0  0  0
 12  4  1  0  0  0  0
 13  4  1  0  0  0  0
 15  5  1  0  0  0  0
 17 29  1  0  0  0  0
 17 18  1  0  0  0  0
 18 23  1  0  0  0  0
 19 18  2  0  0  0  0
 19 24  1  0  0  0  0
 20 19  1  0  0  0  0
 21 22  1  0  0  0  0
 21 20  2  0  0  0  0
 22 17  2  0  0  0  0
 25 20  1  0  0  0  0
 26 21  1  0  0  0  0
 27 32  1  0  0  0  0
 28 29  1  0  0  0  0
 28 27  2  0  0  0  0
 29 30  2  0  0  0  0
 30 31  1  0  0  0  0
 31 35  1  0  0  0  0
 32 31  2  0  0  0  0
 33 27  1  0  0  0  0
 34 28  1  0  0  0  0
 36  6  1  0  0  0  0
 36 37  1  0  0  0  0
 37 38  1  0  0  0  0
 39 37  2  0  0  0  0
 39 40  1  0  0  0  0
 41 39  1  0  0  0  0
 42 43  1  0  0  0  0
 42 41  2  0  0  0  0
 43 36  2  0  0  0  0
M  END
>  <minimizedAffinity>
-5.97303677

>  <minimizedRMSD>
2.61625957

$$$$
