
 OpenBabel03272506273D

 41 44  0  0  0  0  0  0  0  0999 V2000
   30.9400   26.6170   46.7970 C   0  0  0  0  0  0  0  0  0  0  0  0
   30.8210   25.2450   46.6870 C   0  0  0  0  0  0  0  0  0  0  0  0
   31.5340   24.4630   45.7780 C   0  0  0  0  0  0  0  0  0  0  0  0
   32.4380   25.1140   44.9070 C   0  0  0  0  0  0  0  0  0  0  0  0
   32.5400   26.4810   45.0350 C   0  0  0  0  0  0  0  0  0  0  0  0
   31.8400   27.2350   45.9280 C   0  0  0  0  0  0  0  0  0  0  0  0
   30.1260   24.7010   47.3480 H   0  0  0  0  0  0  0  0  0  0  0  0
   31.3530   23.3750   45.7840 H   0  0  0  0  0  0  0  0  0  0  0  0
   32.9230   24.4200   44.2610 H   0  0  0  0  0  0  0  0  0  0  0  0
   33.2490   26.7720   44.3020 H   0  0  0  0  0  0  0  0  0  0  0  0
   30.6860   27.4090   49.0680 C   0  0  0  0  0  0  0  0  0  0  0  0
   30.1230   27.2580   47.7900 C   0  0  0  0  0  0  0  0  0  0  0  0
   28.8280   27.7390   47.5830 C   0  0  0  0  0  0  0  0  0  0  0  0
   28.1700   28.3270   48.6150 N   0  0  0  0  0  0  0  0  0  0  0  0
   28.7370   28.4620   49.8480 C   0  0  0  0  0  0  0  0  0  0  0  0
   30.0000   28.0000   50.0680 N   0  0  0  0  0  0  0  0  0  0  0  0
   31.6780   27.0530   49.2650 H   0  0  0  0  0  0  0  0  0  0  0  0
   28.1630   28.9420   50.6360 H   0  0  0  0  0  0  0  0  0  0  0  0
   28.1030   27.6470   46.2830 C   0  0  0  0  0  0  0  0  0  0  0  0
   26.8250   28.2280   46.4160 F   0  0  0  0  0  0  0  0  0  0  0  0
   28.7150   28.2030   45.2200 F   0  0  0  0  0  0  0  0  0  0  0  0
   27.8260   26.3180   45.9940 F   0  0  0  0  0  0  0  0  0  0  0  0
   31.9910   28.9780   46.0760 S   0  0  0  0  0  0  0  0  0  0  0  0
   33.5730   29.3480   48.7270 Cl  0  0  0  0  0  0  0  0  0  0  0  0
   34.3320   29.6890   47.1870 C   0  0  0  0  0  0  0  0  0  0  0  0
   33.6600   29.5620   45.9700 C   0  0  0  0  0  0  0  0  0  0  0  0
   34.2870   29.8620   44.7990 C   0  0  0  0  0  0  0  0  0  0  0  0
   35.6010   30.2910   44.8380 C   0  0  0  0  0  0  0  0  0  0  0  0
   36.2750   30.4180   46.0530 C   0  0  0  0  0  0  0  0  0  0  0  0
   35.6440   30.1190   47.2390 C   0  0  0  0  0  0  0  0  0  0  0  0
   33.8570   29.8340   43.8310 H   0  0  0  0  0  0  0  0  0  0  0  0
   36.1430   30.5400   43.9300 H   0  0  0  0  0  0  0  0  0  0  0  0
   37.3010   30.7590   46.0150 H   0  0  0  0  0  0  0  0  0  0  0  0
   36.3190   30.2410   48.5250 C   0  0  0  0  0  0  0  0  0  0  0  0
   36.6120   29.1800   49.3350 C   0  0  0  0  0  0  0  0  0  0  0  0
   36.3480   28.1850   49.0450 H   0  0  0  0  0  0  0  0  0  0  0  0
   37.2530   29.2820   50.5590 C   0  0  0  0  0  0  0  0  0  0  0  0
   37.4610   28.4050   51.1620 H   0  0  0  0  0  0  0  0  0  0  0  0
   37.6300   30.5300   51.0140 C   0  0  0  0  0  3  0  0  0  0  0  0
   37.3310   31.5980   50.1910 C   0  0  0  0  0  3  0  0  0  0  0  0
   36.7060   31.4390   49.0100 N   0  0  0  0  0  0  0  0  0  0  0  0
  1 12  1  0  0  0  0
  2  1  1  0  0  0  0
  2  7  1  0  0  0  0
  3  8  1  0  0  0  0
  3  2  2  0  0  0  0
  4  5  2  0  0  0  0
  4  3  1  0  0  0  0
  5  6  1  0  0  0  0
  6 23  1  0  0  0  0
  6  1  2  0  0  0  0
  9  4  1  0  0  0  0
 10  5  1  0  0  0  0
 11 17  1  0  0  0  0
 11 16  1  0  0  0  0
 12 11  2  0  0  0  0
 13 12  1  0  0  0  0
 13 14  2  0  0  0  0
 14 15  1  0  0  0  0
 15 16  2  0  0  0  0
 15 18  1  0  0  0  0
 19 20  1  0  0  0  0
 19 13  1  0  0  0  0
 21 19  1  0  0  0  0
 22 19  1  0  0  0  0
 25 30  1  0  0  0  0
 25 24  1  0  0  0  0
 26 23  1  0  0  0  0
 26 25  2  0  0  0  0
 27 28  2  0  0  0  0
 27 26  1  0  0  0  0
 28 29  1  0  0  0  0
 29 30  2  0  0  0  0
 30 34  1  0  0  0  0
 31 27  1  0  0  0  0
 32 28  1  0  0  0  0
 33 29  1  0  0  0  0
 34 41  2  0  0  0  0
 34 35  1  0  0  0  0
 35 37  2  0  0  0  0
 36 35  1  0  0  0  0
 37 39  1  0  0  0  0
 37 38  1  0  0  0  0
 40 39  2  0  0  0  0
 41 40  1  0  0  0  0
M  END
>  <minimizedAffinity>
-5.87737751

>  <minimizedRMSD>
4.20920801

$$$$
