
 OpenBabel03272506273D

 41 44  0  0  0  0  0  0  0  0999 V2000
   31.0030   26.5270   46.8870 C   0  0  0  0  0  0  0  0  0  0  0  0
   30.9120   25.1550   46.7460 C   0  0  0  0  0  0  0  0  0  0  0  0
   31.6960   24.3980   45.8770 C   0  0  0  0  0  0  0  0  0  0  0  0
   32.6500   25.0760   45.0830 C   0  0  0  0  0  0  0  0  0  0  0  0
   32.7240   26.4410   45.2400 C   0  0  0  0  0  0  0  0  0  0  0  0
   31.9530   27.1710   46.0940 C   0  0  0  0  0  0  0  0  0  0  0  0
   30.1790   24.5920   47.3480 H   0  0  0  0  0  0  0  0  0  0  0  0
   31.5310   23.3080   45.8520 H   0  0  0  0  0  0  0  0  0  0  0  0
   33.1880   24.4000   44.4600 H   0  0  0  0  0  0  0  0  0  0  0  0
   33.4780   26.7540   44.5630 H   0  0  0  0  0  0  0  0  0  0  0  0
   30.5900   27.2990   49.1420 C   0  0  0  0  0  0  0  0  0  0  0  0
   30.1110   27.1390   47.8310 C   0  0  0  0  0  0  0  0  0  0  0  0
   28.8180   27.5870   47.5470 C   0  0  0  0  0  0  0  0  0  0  0  0
   28.0820   28.1510   48.5400 N   0  0  0  0  0  0  0  0  0  0  0  0
   28.5690   28.2950   49.8050 C   0  0  0  0  0  0  0  0  0  0  0  0
   29.8290   27.8660   50.1000 N   0  0  0  0  0  0  0  0  0  0  0  0
   31.5780   26.9690   49.3980 H   0  0  0  0  0  0  0  0  0  0  0  0
   27.9360   28.7550   50.5590 H   0  0  0  0  0  0  0  0  0  0  0  0
   28.1750   27.4820   46.2060 C   0  0  0  0  0  0  0  0  0  0  0  0
   26.8870   28.0530   46.2550 F   0  0  0  0  0  0  0  0  0  0  0  0
   28.8480   28.0380   45.1800 F   0  0  0  0  0  0  0  0  0  0  0  0
   27.9270   26.1490   45.9080 F   0  0  0  0  0  0  0  0  0  0  0  0
   32.0690   28.9130   46.2810 S   0  0  0  0  0  0  0  0  0  0  0  0
   33.5800   29.1860   48.9850 Cl  0  0  0  0  0  0  0  0  0  0  0  0
   34.3700   29.6080   47.4810 C   0  0  0  0  0  0  0  0  0  0  0  0
   33.7300   29.5260   46.2430 C   0  0  0  0  0  0  0  0  0  0  0  0
   34.3810   29.8890   45.1030 C   0  0  0  0  0  0  0  0  0  0  0  0
   35.6860   30.3350   45.1940 C   0  0  0  0  0  0  0  0  0  0  0  0
   36.3290   30.4170   46.4300 C   0  0  0  0  0  0  0  0  0  0  0  0
   35.6740   30.0550   47.5850 C   0  0  0  0  0  0  0  0  0  0  0  0
   33.9760   29.8980   44.1250 H   0  0  0  0  0  0  0  0  0  0  0  0
   36.2470   30.6320   44.3120 H   0  0  0  0  0  0  0  0  0  0  0  0
   37.3490   30.7740   46.4330 H   0  0  0  0  0  0  0  0  0  0  0  0
   36.3150   30.1290   48.8920 C   0  0  0  0  0  0  0  0  0  0  0  0
   36.5670   31.3010   49.5490 C   0  0  0  0  0  0  0  0  0  0  0  0
   36.2950   32.2400   49.1140 H   0  0  0  0  0  0  0  0  0  0  0  0
   37.1760   31.3870   50.7920 C   0  0  0  0  0  0  0  0  0  0  0  0
   37.3520   32.3460   51.2670 H   0  0  0  0  0  0  0  0  0  0  0  0
   37.5620   30.2250   51.4280 C   0  0  0  0  0  3  0  0  0  0  0  0
   37.3040   29.0460   50.7590 C   0  0  0  0  0  3  0  0  0  0  0  0
   36.7090   29.0210   49.5530 N   0  0  0  0  0  0  0  0  0  0  0  0
  1 12  1  0  0  0  0
  2  1  1  0  0  0  0
  2  7  1  0  0  0  0
  3  2  2  0  0  0  0
  4  5  2  0  0  0  0
  4  3  1  0  0  0  0
  5  6  1  0  0  0  0
  6 23  1  0  0  0  0
  6  1  2  0  0  0  0
  8  3  1  0  0  0  0
  9  4  1  0  0  0  0
 10  5  1  0  0  0  0
 11 17  1  0  0  0  0
 11 16  1  0  0  0  0
 12 11  2  0  0  0  0
 13 12  1  0  0  0  0
 13 14  2  0  0  0  0
 14 15  1  0  0  0  0
 15 16  2  0  0  0  0
 15 18  1  0  0  0  0
 19 20  1  0  0  0  0
 19 13  1  0  0  0  0
 21 19  1  0  0  0  0
 22 19  1  0  0  0  0
 25 30  1  0  0  0  0
 25 24  1  0  0  0  0
 26 23  1  0  0  0  0
 26 25  2  0  0  0  0
 27 28  2  0  0  0  0
 27 26  1  0  0  0  0
 28 29  1  0  0  0  0
 29 33  1  0  0  0  0
 29 30  2  0  0  0  0
 30 34  1  0  0  0  0
 31 27  1  0  0  0  0
 32 28  1  0  0  0  0
 34 35  2  0  0  0  0
 34 41  1  0  0  0  0
 35 37  1  0  0  0  0
 36 35  1  0  0  0  0
 37 38  1  0  0  0  0
 37 39  2  0  0  0  0
 40 39  1  0  0  0  0
 41 40  2  0  0  0  0
M  END
>  <minimizedAffinity>
-5.88243103

>  <minimizedRMSD>
4.05945587

$$$$
