
 OpenBabel03272502343D

 35 37  0  0  1  0  0  0  0  0999 V2000
   35.6560   29.7980   48.1100 C   0  0  0  0  0  0  0  0  0  0  0  0
   36.6860   30.4740   47.7160 C   0  0  0  0  0  0  0  0  0  0  0  0
   33.5520   29.6370   45.0380 C   0  0  0  0  0  0  0  0  0  0  0  0
   34.6020   29.8610   45.9090 C   0  0  0  0  0  0  0  0  0  0  0  0
   34.5370   29.5330   47.2380 C   0  0  0  0  0  0  0  0  0  0  0  0
   33.3800   28.9720   47.6600 N   0  0  0  0  0  0  0  0  0  0  0  0
   32.3600   28.7470   46.8410 C   0  0  0  0  0  0  0  0  0  0  0  0
   32.4450   29.0820   45.5220 N   0  0  0  0  0  0  0  0  0  0  0  0
   33.5700   29.8840   43.9860 H   0  0  0  0  0  0  0  0  0  0  0  0
   35.4390   30.3090   45.4190 H   0  0  0  0  0  0  0  0  0  0  0  0
   31.1260   28.1390   47.3280 C   0  0  0  0  0  0  0  0  0  0  0  0
   31.0730   27.6570   48.6180 C   0  0  0  0  0  0  0  0  0  0  0  0
   31.9700   27.7540   49.2220 H   0  0  0  0  0  0  0  0  0  0  0  0
   29.9530   27.0680   49.1610 C   0  0  0  0  0  0  0  0  0  0  0  0
   29.8920   26.6860   50.1650 H   0  0  0  0  0  0  0  0  0  0  0  0
   28.8810   27.0070   48.2930 C   0  0  0  0  0  0  0  0  0  0  0  0
   28.8860   27.4750   46.9920 C   0  0  0  0  0  0  0  0  0  0  0  0
   30.0340   28.0460   46.5260 N   0  0  0  0  0  0  0  0  0  0  0  0
   37.7920   30.7040   48.7050 C   0  0  1  0  0  0  0  0  0  0  0  0
   38.4160   29.7860   48.7990 H   0  0  0  0  0  0  0  0  0  0  0  0
   38.5710   31.8870   48.3070 C   0  0  0  0  0  0  0  0  0  0  0  0
   38.6610   32.8660   49.3290 C   0  0  0  0  0  0  0  0  0  0  0  0
   39.3380   34.0550   49.1840 C   0  0  0  0  0  0  0  0  0  0  0  0
   39.9930   34.3650   47.9840 C   0  0  0  0  0  0  0  0  0  0  0  0
   39.8550   33.3540   47.0380 C   0  0  0  0  0  0  0  0  0  0  0  0
   39.2020   32.1900   47.1520 N   0  0  0  0  0  0  0  0  0  0  0  0
   38.2420   32.8600   50.3480 H   0  0  0  0  0  0  0  0  0  0  0  0
   39.4440   34.8380   49.9210 H   0  0  0  0  0  0  0  0  0  0  0  0
   40.5550   35.2450   47.7310 H   0  0  0  0  0  0  0  0  0  0  0  0
   40.3090   33.4470   46.0480 H   0  0  0  0  0  0  0  0  0  0  0  0
   37.0060   31.1280   50.2970 S   0  0  0  0  0  0  0  0  0  0  0  0
   36.9820   29.7220   51.3940 C   0  0  0  0  0  0  0  0  0  0  0  0
   37.6460   29.9500   52.5900 F   0  0  0  0  0  0  0  0  0  0  0  0
   35.6900   29.2700   51.6060 F   0  0  0  0  0  0  0  0  0  0  0  0
   37.6620   28.6840   50.7280 F   0  0  0  0  0  0  0  0  0  0  0  0
  2  1  2  0  0  0  0
  2 19  1  0  0  0  0
  3  8  2  0  0  0  0
  3  4  1  0  0  0  0
  4  5  2  0  0  0  0
  5  6  1  0  0  0  0
  5  1  1  0  0  0  0
  7 11  1  0  0  0  0
  7  6  2  0  0  0  0
  8  7  1  0  0  0  0
  9  3  1  0  0  0  0
 10  4  1  0  0  0  0
 11 12  1  0  0  0  0
 12 14  2  0  0  0  0
 12 13  1  0  0  0  0
 14 15  1  0  0  0  0
 16 14  1  0  0  0  0
 17 16  2  0  0  0  0
 18 17  1  0  0  0  0
 18 11  2  0  0  0  0
 19 20  1  1  0  0  0
 19 31  1  0  0  0  0
 21 19  1  0  0  0  0
 21 22  1  0  0  0  0
 22 27  1  0  0  0  0
 23 22  2  0  0  0  0
 23 28  1  0  0  0  0
 24 23  1  0  0  0  0
 25 26  1  0  0  0  0
 25 24  2  0  0  0  0
 26 21  2  0  0  0  0
 29 24  1  0  0  0  0
 30 25  1  0  0  0  0
 31 32  1  0  0  0  0
 32 34  1  0  0  0  0
 32 33  1  0  0  0  0
 35 32  1  0  0  0  0
M  END
>  <minimizedAffinity>
-6.6843605

>  <minimizedRMSD>
0.50087893

$$$$
