
 OpenBabel03272505123D

 38 41  0  0  0  0  0  0  0  0999 V2000
   36.4200   30.9080   45.7220 Cl  0  0  0  0  0  0  0  0  0  0  0  0
   36.7030   30.7970   47.4370 C   0  0  0  0  0  0  0  0  0  0  0  0
   37.9650   31.1360   47.8910 C   0  0  0  0  0  0  0  0  0  0  0  0
   38.2040   31.0520   49.2500 C   0  0  0  0  0  0  0  0  0  0  0  0
   37.2020   30.6430   50.0950 C   0  0  0  0  0  0  0  0  0  0  0  0
   35.9540   30.3160   49.5660 C   0  0  0  0  0  0  0  0  0  0  0  0
   35.6490   30.3760   48.2360 C   0  0  0  0  0  0  0  0  0  0  0  0
   39.1930   31.3200   49.5910 H   0  0  0  0  0  0  0  0  0  0  0  0
   37.3800   30.5730   51.1680 H   0  0  0  0  0  0  0  0  0  0  0  0
   35.1860   29.9970   50.2670 H   0  0  0  0  0  0  0  0  0  0  0  0
   40.2310   33.3370   46.0770 C   0  0  0  0  0  0  0  0  0  0  0  0
   40.9420   32.4750   45.2180 C   0  0  0  0  0  0  0  0  0  0  0  0
   40.6210   31.1070   45.2780 C   0  0  0  0  0  0  0  0  0  0  0  0
   39.6560   30.6970   46.1500 N   0  0  0  0  0  0  0  0  0  0  0  0
   39.0090   31.5700   46.9470 C   0  0  0  0  0  0  0  0  0  0  0  0
   39.2950   32.8690   46.9090 N   0  0  0  0  0  0  0  0  0  0  0  0
   40.4960   34.3680   46.0090 H   0  0  0  0  0  0  0  0  0  0  0  0
   41.7060   32.7720   44.5240 H   0  0  0  0  0  0  0  0  0  0  0  0
   41.0850   30.3340   44.6790 H   0  0  0  0  0  0  0  0  0  0  0  0
   34.0830   29.9690   47.5450 S   0  0  0  0  0  0  0  0  0  0  0  0
   33.9610   29.1800   44.5070 Cl  0  0  0  0  0  0  0  0  0  0  0  0
   33.9120   27.9500   45.7630 C   0  0  0  0  0  0  0  0  0  0  0  0
   33.9600   28.2270   47.1290 C   0  0  0  0  0  0  0  0  0  0  0  0
   33.9130   27.1830   48.0360 C   0  0  0  0  0  0  0  0  0  0  0  0
   33.8200   25.8970   47.6040 C   0  0  0  0  0  0  0  0  0  0  0  0
   33.7700   25.5850   46.2580 C   0  0  0  0  0  0  0  0  0  0  0  0
   33.8160   26.6200   45.3690 C   0  0  0  0  0  0  0  0  0  0  0  0
   33.9590   27.5430   49.0610 H   0  0  0  0  0  0  0  0  0  0  0  0
   33.7880   25.1450   48.3810 H   0  0  0  0  0  0  0  0  0  0  0  0
   33.6980   24.5470   46.0370 H   0  0  0  0  0  0  0  0  0  0  0  0
   33.7660   26.3370   43.9400 C   0  0  0  0  0  0  0  0  0  0  0  0
   34.8830   26.0920   43.1750 C   0  0  0  0  0  0  0  0  0  0  0  0
   35.8680   26.1010   43.6150 H   0  0  0  0  0  0  0  0  0  0  0  0
   34.8700   25.8220   41.8230 C   0  0  0  0  0  0  0  0  0  0  0  0
   35.7670   25.6360   41.2560 H   0  0  0  0  0  0  0  0  0  0  0  0
   33.6560   25.7890   41.1680 C   0  0  0  0  0  3  0  0  0  0  0  0
   32.5600   26.0380   41.9670 C   0  0  0  0  0  3  0  0  0  0  0  0
   32.6200   26.2950   43.2710 N   0  0  0  0  0  0  0  0  0  0  0  0
  1  2  1  0  0  0  0
  2  3  2  0  0  0  0
  2  7  1  0  0  0  0
  3  4  1  0  0  0  0
  4  8  1  0  0  0  0
  4  5  2  0  0  0  0
  5  9  1  0  0  0  0
  6  5  1  0  0  0  0
  6 10  1  0  0  0  0
  7  6  2  0  0  0  0
 11 16  1  0  0  0  0
 12 13  1  0  0  0  0
 12 11  2  0  0  0  0
 13 14  2  0  0  0  0
 14 15  1  0  0  0  0
 15  3  1  0  0  0  0
 16 15  2  0  0  0  0
 17 11  1  0  0  0  0
 18 12  1  0  0  0  0
 19 13  1  0  0  0  0
 20  7  1  0  0  0  0
 21 22  1  0  0  0  0
 22 23  1  0  0  0  0
 23 20  1  0  0  0  0
 23 24  2  0  0  0  0
 24 28  1  0  0  0  0
 25 24  1  0  0  0  0
 25 29  1  0  0  0  0
 26 25  2  0  0  0  0
 27 22  2  0  0  0  0
 27 26  1  0  0  0  0
 30 26  1  0  0  0  0
 31 27  1  0  0  0  0
 32 33  1  0  0  0  0
 32 31  2  0  0  0  0
 34 32  1  0  0  0  0
 35 34  1  0  0  0  0
 36 34  2  0  0  0  0
 36 37  1  0  0  0  0
 37 38  2  0  0  0  0
 38 31  1  0  0  0  0
M  END
>  <minimizedAffinity>
-5.67637634

>  <minimizedRMSD>
0.302858055

$$$$
