
 OpenBabel03272506273D

 41 44  0  0  0  0  0  0  0  0999 V2000
   30.8820   26.7720   46.7830 C   0  0  0  0  0  0  0  0  0  0  0  0
   30.7240   25.4070   46.6380 C   0  0  0  0  0  0  0  0  0  0  0  0
   31.4300   24.6250   45.7240 C   0  0  0  0  0  0  0  0  0  0  0  0
   32.3720   25.2690   44.8880 C   0  0  0  0  0  0  0  0  0  0  0  0
   32.5130   26.6280   45.0510 C   0  0  0  0  0  0  0  0  0  0  0  0
   31.8170   27.3830   45.9480 C   0  0  0  0  0  0  0  0  0  0  0  0
   29.9990   24.8700   47.2720 H   0  0  0  0  0  0  0  0  0  0  0  0
   31.2170   23.5430   45.7000 H   0  0  0  0  0  0  0  0  0  0  0  0
   32.8480   24.5750   44.2340 H   0  0  0  0  0  0  0  0  0  0  0  0
   33.2450   26.9140   44.3390 H   0  0  0  0  0  0  0  0  0  0  0  0
   30.5900   27.4860   49.0760 C   0  0  0  0  0  0  0  0  0  0  0  0
   30.0650   27.4140   47.7750 C   0  0  0  0  0  0  0  0  0  0  0  0
   28.8030   27.9690   47.5470 C   0  0  0  0  0  0  0  0  0  0  0  0
   28.1410   28.5490   48.5800 N   0  0  0  0  0  0  0  0  0  0  0  0
   28.6710   28.6060   49.8350 C   0  0  0  0  0  0  0  0  0  0  0  0
   29.9010   28.0710   50.0770 N   0  0  0  0  0  0  0  0  0  0  0  0
   31.5560   27.0710   49.2900 H   0  0  0  0  0  0  0  0  0  0  0  0
   28.0960   29.0830   50.6240 H   0  0  0  0  0  0  0  0  0  0  0  0
   28.1190   27.9670   46.2220 C   0  0  0  0  0  0  0  0  0  0  0  0
   26.8590   28.5880   46.3420 F   0  0  0  0  0  0  0  0  0  0  0  0
   28.7860   28.5490   45.2070 F   0  0  0  0  0  0  0  0  0  0  0  0
   27.8040   26.6640   45.8600 F   0  0  0  0  0  0  0  0  0  0  0  0
   32.0190   29.1160   46.1410 S   0  0  0  0  0  0  0  0  0  0  0  0
   33.5450   29.3930   48.8350 Cl  0  0  0  0  0  0  0  0  0  0  0  0
   34.3510   29.7360   47.3200 C   0  0  0  0  0  0  0  0  0  0  0  0
   33.7060   29.6500   46.0850 C   0  0  0  0  0  0  0  0  0  0  0  0
   34.3710   29.9500   44.9350 C   0  0  0  0  0  0  0  0  0  0  0  0
   35.6960   30.3370   45.0130 C   0  0  0  0  0  0  0  0  0  0  0  0
   36.3430   30.4240   46.2460 C   0  0  0  0  0  0  0  0  0  0  0  0
   35.6750   30.1240   47.4110 C   0  0  0  0  0  0  0  0  0  0  0  0
   33.9650   29.9510   43.9570 H   0  0  0  0  0  0  0  0  0  0  0  0
   36.2680   30.5840   44.1230 H   0  0  0  0  0  0  0  0  0  0  0  0
   37.3790   30.7330   46.2390 H   0  0  0  0  0  0  0  0  0  0  0  0
   36.3210   30.2050   48.7150 C   0  0  0  0  0  0  0  0  0  0  0  0
   36.6500   29.1140   49.4690 C   0  0  0  0  0  0  0  0  0  0  0  0
   36.4390   28.1260   49.1200 H   0  0  0  0  0  0  0  0  0  0  0  0
   37.2650   29.1770   50.7110 C   0  0  0  0  0  0  0  0  0  0  0  0
   37.5040   28.2780   51.2660 H   0  0  0  0  0  0  0  0  0  0  0  0
   37.5740   30.4130   51.2410 C   0  0  0  0  0  3  0  0  0  0  0  0
   37.2380   31.5100   50.4750 C   0  0  0  0  0  3  0  0  0  0  0  0
   36.6420   31.3910   49.2740 N   0  0  0  0  0  0  0  0  0  0  0  0
  1 12  1  0  0  0  0
  2  1  1  0  0  0  0
  2  7  1  0  0  0  0
  3  2  2  0  0  0  0
  4  5  2  0  0  0  0
  4  3  1  0  0  0  0
  5  6  1  0  0  0  0
  6 23  1  0  0  0  0
  6  1  2  0  0  0  0
  8  3  1  0  0  0  0
  9  4  1  0  0  0  0
 10  5  1  0  0  0  0
 11 17  1  0  0  0  0
 11 16  1  0  0  0  0
 12 11  2  0  0  0  0
 13 12  1  0  0  0  0
 13 14  2  0  0  0  0
 14 15  1  0  0  0  0
 15 16  2  0  0  0  0
 15 18  1  0  0  0  0
 19 20  1  0  0  0  0
 19 13  1  0  0  0  0
 21 19  1  0  0  0  0
 22 19  1  0  0  0  0
 25 30  1  0  0  0  0
 25 24  1  0  0  0  0
 26 23  1  0  0  0  0
 26 25  2  0  0  0  0
 27 28  2  0  0  0  0
 27 26  1  0  0  0  0
 28 29  1  0  0  0  0
 29 30  2  0  0  0  0
 30 34  1  0  0  0  0
 31 27  1  0  0  0  0
 32 28  1  0  0  0  0
 33 29  1  0  0  0  0
 34 41  2  0  0  0  0
 34 35  1  0  0  0  0
 35 37  2  0  0  0  0
 36 35  1  0  0  0  0
 37 39  1  0  0  0  0
 37 38  1  0  0  0  0
 40 39  2  0  0  0  0
 41 40  1  0  0  0  0
M  END
>  <minimizedAffinity>
-5.83740282

>  <minimizedRMSD>
4.08487082

$$$$
