
 OpenBabel03272502363D

 35 37  0  0  1  0  0  0  0  0999 V2000
   36.2620   28.7050   34.7620 C   0  0  0  0  0  3  0  0  0  0  0  0
   35.5300   29.3410   33.9060 C   0  0  0  0  0  3  0  0  0  0  0  0
   37.7350   25.9400   32.7450 C   0  0  0  0  0  0  0  0  0  0  0  0
   37.1030   27.1130   33.1150 C   0  0  0  0  0  0  0  0  0  0  0  0
   36.9390   27.4760   34.4270 C   0  0  0  0  0  0  0  0  0  0  0  0
   37.4320   26.6200   35.3510 N   0  0  0  0  0  0  0  0  0  0  0  0
   38.0420   25.4890   35.0180 C   0  0  0  0  0  0  0  0  0  0  0  0
   38.1940   25.1450   33.7080 N   0  0  0  0  0  0  0  0  0  0  0  0
   37.8810   25.6230   31.7220 H   0  0  0  0  0  0  0  0  0  0  0  0
   36.7750   27.6740   32.2680 H   0  0  0  0  0  0  0  0  0  0  0  0
   38.5620   24.5870   36.0400 C   0  0  0  0  0  0  0  0  0  0  0  0
   37.9570   24.5470   37.2780 C   0  0  0  0  0  0  0  0  0  0  0  0
   37.1050   25.2010   37.4360 H   0  0  0  0  0  0  0  0  0  0  0  0
   38.3800   23.7280   38.3020 C   0  0  0  0  0  0  0  0  0  0  0  0
   37.9210   23.6820   39.2740 H   0  0  0  0  0  0  0  0  0  0  0  0
   39.4690   22.9460   37.9740 C   0  0  0  0  0  3  0  0  0  0  0  0
   40.1100   22.9520   36.7480 C   0  0  0  0  0  3  0  0  0  0  0  0
   39.6320   23.7900   35.7840 N   0  0  0  0  0  0  0  0  0  0  0  0
   34.8590   30.6050   34.3600 C   0  0  1  0  0  0  0  0  0  0  0  0
   34.6670   31.2680   33.4860 H   0  0  0  0  0  0  0  0  0  0  0  0
   33.6360   30.2730   35.1060 C   0  0  0  0  0  0  0  0  0  0  0  0
   33.4280   31.1040   36.2360 C   0  0  0  0  0  0  0  0  0  0  0  0
   32.3510   30.9790   37.0830 C   0  0  0  0  0  0  0  0  0  0  0  0
   31.3770   29.9950   36.8620 C   0  0  0  0  0  0  0  0  0  0  0  0
   31.6560   29.2260   35.7380 C   0  0  0  0  0  0  0  0  0  0  0  0
   32.6960   29.3260   34.8980 N   0  0  0  0  0  0  0  0  0  0  0  0
   34.0380   31.9380   36.6170 H   0  0  0  0  0  0  0  0  0  0  0  0
   32.1360   31.5780   37.9560 H   0  0  0  0  0  0  0  0  0  0  0  0
   30.4920   29.7840   37.4350 H   0  0  0  0  0  0  0  0  0  0  0  0
   30.9900   28.4160   35.4330 H   0  0  0  0  0  0  0  0  0  0  0  0
   35.9810   31.4050   35.5570 S   0  0  0  0  0  0  0  0  0  0  0  0
   36.4470   33.0360   35.0060 C   0  0  0  0  0  0  0  0  0  0  0  0
   35.4240   33.9650   35.1200 F   0  0  0  0  0  0  0  0  0  0  0  0
   37.6030   33.4700   35.6360 F   0  0  0  0  0  0  0  0  0  0  0  0
   36.7600   32.9220   33.6380 F   0  0  0  0  0  0  0  0  0  0  0  0
  2 19  1  0  0  0  0
  2  1  2  0  0  0  0
  3  4  2  0  0  0  0
  3  8  1  0  0  0  0
  4  5  1  0  0  0  0
  5  1  1  0  0  0  0
  5  6  2  0  0  0  0
  7  6  1  0  0  0  0
  7 11  1  0  0  0  0
  8  7  2  0  0  0  0
  9  3  1  0  0  0  0
 10  4  1  0  0  0  0
 11 12  1  0  0  0  0
 12 13  1  0  0  0  0
 12 14  2  0  0  0  0
 14 15  1  0  0  0  0
 16 14  1  0  0  0  0
 17 16  2  0  0  0  0
 18 11  2  0  0  0  0
 18 17  1  0  0  0  0
 19 20  1  6  0  0  0
 19 21  1  0  0  0  0
 19 31  1  0  0  0  0
 21 22  1  0  0  0  0
 22 27  1  0  0  0  0
 22 23  2  0  0  0  0
 23 28  1  0  0  0  0
 24 23  1  0  0  0  0
 24 29  1  0  0  0  0
 25 24  2  0  0  0  0
 26 21  2  0  0  0  0
 26 25  1  0  0  0  0
 30 25  1  0  0  0  0
 32 33  1  0  0  0  0
 32 31  1  0  0  0  0
 32 34  1  0  0  0  0
 35 32  1  0  0  0  0
M  END
>  <minimizedAffinity>
-6.05307198

$$$$

 OpenBabel03272502363D

 35 37  0  0  1  0  0  0  0  0999 V2000
   36.2010   28.6920   34.7700 C   0  0  0  0  0  3  0  0  0  0  0  0
   35.3470   29.2710   33.9900 C   0  0  0  0  0  3  0  0  0  0  0  0
   37.5370   25.8950   32.7030 C   0  0  0  0  0  0  0  0  0  0  0  0
   36.9350   27.0760   33.0960 C   0  0  0  0  0  0  0  0  0  0  0  0
   36.8490   27.4550   34.4100 C   0  0  0  0  0  0  0  0  0  0  0  0
   37.3900   26.6060   35.3140 N   0  0  0  0  0  0  0  0  0  0  0  0
   37.9720   25.4660   34.9590 C   0  0  0  0  0  0  0  0  0  0  0  0
   38.0460   25.1080   33.6470 N   0  0  0  0  0  0  0  0  0  0  0  0
   37.6220   25.5660   31.6770 H   0  0  0  0  0  0  0  0  0  0  0  0
   36.5620   27.6300   32.2630 H   0  0  0  0  0  0  0  0  0  0  0  0
   38.5460   24.5730   35.9600 C   0  0  0  0  0  0  0  0  0  0  0  0
   37.9510   24.4770   37.2010 C   0  0  0  0  0  0  0  0  0  0  0  0
   37.0680   25.0830   37.3770 H   0  0  0  0  0  0  0  0  0  0  0  0
   38.4230   23.6610   38.2050 C   0  0  0  0  0  0  0  0  0  0  0  0
   37.9740   23.5720   39.1790 H   0  0  0  0  0  0  0  0  0  0  0  0
   39.5490   22.9430   37.8550 C   0  0  0  0  0  3  0  0  0  0  0  0
   40.1800   23.0060   36.6260 C   0  0  0  0  0  3  0  0  0  0  0  0
   39.6520   23.8380   35.6820 N   0  0  0  0  0  0  0  0  0  0  0  0
   34.7200   30.5500   34.4640 C   0  0  1  0  0  0  0  0  0  0  0  0
   34.4880   30.4800   35.5520 H   0  0  0  0  0  0  0  0  0  0  0  0
   35.6010   31.6820   34.1380 C   0  0  0  0  0  0  0  0  0  0  0  0
   36.1040   32.3460   35.2860 C   0  0  0  0  0  0  0  0  0  0  0  0
   36.9470   33.4320   35.2270 C   0  0  0  0  0  0  0  0  0  0  0  0
   37.3630   33.9490   33.9910 C   0  0  0  0  0  0  0  0  0  0  0  0
   36.8250   33.2420   32.9210 C   0  0  0  0  0  0  0  0  0  0  0  0
   36.0030   32.1840   32.9510 N   0  0  0  0  0  0  0  0  0  0  0  0
   35.9310   32.1350   36.3530 H   0  0  0  0  0  0  0  0  0  0  0  0
   37.3640   33.9800   36.0590 H   0  0  0  0  0  0  0  0  0  0  0  0
   38.0120   34.7820   33.7950 H   0  0  0  0  0  0  0  0  0  0  0  0
   37.0550   33.5240   31.8910 H   0  0  0  0  0  0  0  0  0  0  0  0
   33.1980   30.7950   33.4840 S   0  0  0  0  0  0  0  0  0  0  0  0
   32.1280   29.3730   33.5980 C   0  0  0  0  0  0  0  0  0  0  0  0
   32.3860   28.4150   32.6300 F   0  0  0  0  0  0  0  0  0  0  0  0
   32.1480   28.8280   34.8720 F   0  0  0  0  0  0  0  0  0  0  0  0
   30.8170   29.8410   33.3880 F   0  0  0  0  0  0  0  0  0  0  0  0
  2 19  1  0  0  0  0
  2  1  2  0  0  0  0
  3  4  2  0  0  0  0
  3  8  1  0  0  0  0
  4  5  1  0  0  0  0
  5  1  1  0  0  0  0
  5  6  2  0  0  0  0
  7  6  1  0  0  0  0
  7 11  1  0  0  0  0
  8  7  2  0  0  0  0
  9  3  1  0  0  0  0
 10  4  1  0  0  0  0
 11 12  1  0  0  0  0
 12 13  1  0  0  0  0
 12 14  2  0  0  0  0
 14 15  1  0  0  0  0
 16 14  1  0  0  0  0
 17 16  2  0  0  0  0
 18 11  2  0  0  0  0
 18 17  1  0  0  0  0
 19 20  1  1  0  0  0
 21 19  1  0  0  0  0
 21 22  1  0  0  0  0
 22 27  1  0  0  0  0
 23 22  2  0  0  0  0
 23 28  1  0  0  0  0
 24 23  1  0  0  0  0
 25 26  1  0  0  0  0
 25 24  2  0  0  0  0
 26 21  2  0  0  0  0
 29 24  1  0  0  0  0
 30 25  1  0  0  0  0
 31 32  1  0  0  0  0
 31 19  1  0  0  0  0
 32 34  1  0  0  0  0
 33 32  1  0  0  0  0
 35 32  1  0  0  0  0
M  END
>  <minimizedAffinity>
-5.85313606

$$$$

 OpenBabel03272502363D

 35 37  0  0  1  0  0  0  0  0999 V2000
   37.7310   26.7710   33.1500 C   0  0  0  0  0  3  0  0  0  0  0  0
   37.2970   25.6990   33.7290 C   0  0  0  0  0  3  0  0  0  0  0  0
   35.8520   29.4840   31.4180 C   0  0  0  0  0  0  0  0  0  0  0  0
   36.6450   28.3790   31.6700 C   0  0  0  0  0  0  0  0  0  0  0  0
   36.8870   27.9220   32.9390 C   0  0  0  0  0  0  0  0  0  0  0  0
   36.3040   28.6130   33.9450 N   0  0  0  0  0  0  0  0  0  0  0  0
   35.5390   29.6760   33.7270 C   0  0  0  0  0  0  0  0  0  0  0  0
   35.3120   30.1150   32.4570 N   0  0  0  0  0  0  0  0  0  0  0  0
   35.6410   29.8700   30.4310 H   0  0  0  0  0  0  0  0  0  0  0  0
   37.0270   27.9490   30.7700 H   0  0  0  0  0  0  0  0  0  0  0  0
   34.9250   30.4000   34.8350 C   0  0  0  0  0  0  0  0  0  0  0  0
   35.6910   31.2680   35.5830 C   0  0  0  0  0  0  0  0  0  0  0  0
   36.7360   31.3730   35.3070 H   0  0  0  0  0  0  0  0  0  0  0  0
   35.1970   31.9910   36.6460 C   0  0  0  0  0  0  0  0  0  0  0  0
   35.7780   32.6730   37.2410 H   0  0  0  0  0  0  0  0  0  0  0  0
   33.8570   31.7690   36.8940 C   0  0  0  0  0  3  0  0  0  0  0  0
   33.0490   30.9090   36.1730 C   0  0  0  0  0  3  0  0  0  0  0  0
   33.6120   30.2270   35.1340 N   0  0  0  0  0  0  0  0  0  0  0  0
   38.2540   24.5530   33.8890 C   0  0  1  0  0  0  0  0  0  0  0  0
   39.2270   24.8000   33.4070 H   0  0  0  0  0  0  0  0  0  0  0  0
   38.3890   24.2200   35.3150 C   0  0  0  0  0  0  0  0  0  0  0  0
   39.3620   23.2190   35.5650 C   0  0  0  0  0  0  0  0  0  0  0  0
   39.6620   22.7480   36.8230 C   0  0  0  0  0  0  0  0  0  0  0  0
   38.9990   23.2500   37.9520 C   0  0  0  0  0  0  0  0  0  0  0  0
   38.0640   24.2240   37.6190 C   0  0  0  0  0  0  0  0  0  0  0  0
   37.7540   24.7000   36.4060 N   0  0  0  0  0  0  0  0  0  0  0  0
   40.0100   22.6770   34.8590 H   0  0  0  0  0  0  0  0  0  0  0  0
   40.3890   21.9910   37.0790 H   0  0  0  0  0  0  0  0  0  0  0  0
   39.1290   22.9790   38.9840 H   0  0  0  0  0  0  0  0  0  0  0  0
   37.4650   24.7130   38.3910 H   0  0  0  0  0  0  0  0  0  0  0  0
   37.4820   23.0980   33.1010 S   0  0  0  0  0  0  0  0  0  0  0  0
   36.8570   23.5040   31.4820 C   0  0  0  0  0  0  0  0  0  0  0  0
   37.6480   24.4190   30.8030 F   0  0  0  0  0  0  0  0  0  0  0  0
   36.6340   22.3640   30.7260 F   0  0  0  0  0  0  0  0  0  0  0  0
   35.5970   24.1020   31.6770 F   0  0  0  0  0  0  0  0  0  0  0  0
  1  2  2  0  0  0  0
  2 19  1  0  0  0  0
  3  4  2  0  0  0  0
  3  8  1  0  0  0  0
  4  5  1  0  0  0  0
  5  1  1  0  0  0  0
  5  6  2  0  0  0  0
  7  6  1  0  0  0  0
  7 11  1  0  0  0  0
  8  7  2  0  0  0  0
  9  3  1  0  0  0  0
 10  4  1  0  0  0  0
 11 18  2  0  0  0  0
 11 12  1  0  0  0  0
 12 14  2  0  0  0  0
 13 12  1  0  0  0  0
 14 16  1  0  0  0  0
 14 15  1  0  0  0  0
 17 16  2  0  0  0  0
 18 17  1  0  0  0  0
 19 20  1  6  0  0  0
 19 21  1  0  0  0  0
 21 22  2  0  0  0  0
 21 26  1  0  0  0  0
 22 23  1  0  0  0  0
 23 28  1  0  0  0  0
 23 24  2  0  0  0  0
 24 29  1  0  0  0  0
 25 24  1  0  0  0  0
 25 30  1  0  0  0  0
 26 25  2  0  0  0  0
 27 22  1  0  0  0  0
 31 19  1  0  0  0  0
 32 35  1  0  0  0  0
 32 31  1  0  0  0  0
 33 32  1  0  0  0  0
 34 32  1  0  0  0  0
M  END
>  <minimizedAffinity>
-5.80284405

$$$$

 OpenBabel03272502363D

 35 37  0  0  1  0  0  0  0  0999 V2000
   35.8900   28.2410   34.1100 C   0  0  0  0  0  3  0  0  0  0  0  0
   35.6770   29.1510   33.2160 C   0  0  0  0  0  3  0  0  0  0  0  0
   39.0280   26.6280   32.9130 C   0  0  0  0  0  0  0  0  0  0  0  0
   37.9100   27.4370   33.0030 C   0  0  0  0  0  0  0  0  0  0  0  0
   37.0500   27.3840   34.0680 C   0  0  0  0  0  0  0  0  0  0  0  0
   37.3520   26.4920   35.0390 N   0  0  0  0  0  0  0  0  0  0  0  0
   38.4200   25.7060   34.9730 C   0  0  0  0  0  0  0  0  0  0  0  0
   39.2630   25.7730   33.9050 N   0  0  0  0  0  0  0  0  0  0  0  0
   39.7270   26.6440   32.0890 H   0  0  0  0  0  0  0  0  0  0  0  0
   37.8170   28.0830   32.1580 H   0  0  0  0  0  0  0  0  0  0  0  0
   38.7180   24.7530   36.0380 C   0  0  0  0  0  0  0  0  0  0  0  0
   37.9600   24.7670   37.1890 C   0  0  0  0  0  0  0  0  0  0  0  0
   37.1620   25.5000   37.2500 H   0  0  0  0  0  0  0  0  0  0  0  0
   38.1700   23.9060   38.2440 C   0  0  0  0  0  0  0  0  0  0  0  0
   37.5890   23.9010   39.1500 H   0  0  0  0  0  0  0  0  0  0  0  0
   39.2110   23.0240   38.0430 C   0  0  0  0  0  3  0  0  0  0  0  0
   40.0000   22.9720   36.9070 C   0  0  0  0  0  3  0  0  0  0  0  0
   39.7300   23.8570   35.9050 N   0  0  0  0  0  0  0  0  0  0  0  0
   34.4330   29.9820   33.3440 C   0  0  1  0  0  0  0  0  0  0  0  0
   33.5310   29.3350   33.2490 H   0  0  0  0  0  0  0  0  0  0  0  0
   34.4690   30.7310   34.6100 C   0  0  0  0  0  0  0  0  0  0  0  0
   35.6510   31.4980   34.7710 C   0  0  0  0  0  0  0  0  0  0  0  0
   35.9050   32.2790   35.8750 C   0  0  0  0  0  0  0  0  0  0  0  0
   34.9790   32.3560   36.9260 C   0  0  0  0  0  0  0  0  0  0  0  0
   33.8530   31.5750   36.6880 C   0  0  0  0  0  0  0  0  0  0  0  0
   33.5810   30.8080   35.6240 N   0  0  0  0  0  0  0  0  0  0  0  0
   36.5160   31.6070   34.0980 H   0  0  0  0  0  0  0  0  0  0  0  0
   36.7810   32.8840   36.0580 H   0  0  0  0  0  0  0  0  0  0  0  0
   35.0430   32.9190   37.8390 H   0  0  0  0  0  0  0  0  0  0  0  0
   33.0390   31.5300   37.4160 H   0  0  0  0  0  0  0  0  0  0  0  0
   34.4860   31.2320   32.0140 S   0  0  0  0  0  0  0  0  0  0  0  0
   35.7930   30.8780   30.8550 C   0  0  0  0  0  0  0  0  0  0  0  0
   35.7700   29.5730   30.3870 F   0  0  0  0  0  0  0  0  0  0  0  0
   35.8040   31.7930   29.8130 F   0  0  0  0  0  0  0  0  0  0  0  0
   37.0040   31.0550   31.5500 F   0  0  0  0  0  0  0  0  0  0  0  0
  2 19  1  0  0  0  0
  2  1  2  0  0  0  0
  3  4  2  0  0  0  0
  3  8  1  0  0  0  0
  4  5  1  0  0  0  0
  5  1  1  0  0  0  0
  5  6  2  0  0  0  0
  7  6  1  0  0  0  0
  7 11  1  0  0  0  0
  8  7  2  0  0  0  0
  9  3  1  0  0  0  0
 10  4  1  0  0  0  0
 11 12  1  0  0  0  0
 12 13  1  0  0  0  0
 12 14  2  0  0  0  0
 14 15  1  0  0  0  0
 16 14  1  0  0  0  0
 17 16  2  0  0  0  0
 18 11  2  0  0  0  0
 18 17  1  0  0  0  0
 19 20  1  6  0  0  0
 19 21  1  0  0  0  0
 21 22  2  0  0  0  0
 21 26  1  0  0  0  0
 22 23  1  0  0  0  0
 23 28  1  0  0  0  0
 23 24  2  0  0  0  0
 24 29  1  0  0  0  0
 25 24  1  0  0  0  0
 25 30  1  0  0  0  0
 26 25  2  0  0  0  0
 27 22  1  0  0  0  0
 31 19  1  0  0  0  0
 32 35  1  0  0  0  0
 32 31  1  0  0  0  0
 33 32  1  0  0  0  0
 34 32  1  0  0  0  0
M  END
>  <minimizedAffinity>
-5.70313644

$$$$

 OpenBabel03272502363D

 35 37  0  0  1  0  0  0  0  0999 V2000
   36.5520   28.8160   34.5430 C   0  0  0  0  0  3  0  0  0  0  0  0
   35.3370   29.1990   34.3140 C   0  0  0  0  0  3  0  0  0  0  0  0
   37.2870   25.6130   32.7860 C   0  0  0  0  0  0  0  0  0  0  0  0
   36.8970   26.9120   33.0570 C   0  0  0  0  0  0  0  0  0  0  0  0
   36.9830   27.4590   34.3100 C   0  0  0  0  0  0  0  0  0  0  0  0
   37.4760   26.6570   35.2810 N   0  0  0  0  0  0  0  0  0  0  0  0
   37.8570   25.4070   35.0450 C   0  0  0  0  0  0  0  0  0  0  0  0
   37.7620   24.8810   33.7910 N   0  0  0  0  0  0  0  0  0  0  0  0
   37.2320   25.1510   31.8120 H   0  0  0  0  0  0  0  0  0  0  0  0
   36.5330   27.4090   32.1840 H   0  0  0  0  0  0  0  0  0  0  0  0
   38.3850   24.5670   36.1150 C   0  0  0  0  0  0  0  0  0  0  0  0
   37.8160   24.6340   37.3690 C   0  0  0  0  0  0  0  0  0  0  0  0
   36.9870   25.3220   37.5030 H   0  0  0  0  0  0  0  0  0  0  0  0
   38.2490   23.8800   38.4370 C   0  0  0  0  0  0  0  0  0  0  0  0
   37.8180   23.9170   39.4230 H   0  0  0  0  0  0  0  0  0  0  0  0
   39.3070   23.0460   38.1370 C   0  0  0  0  0  3  0  0  0  0  0  0
   39.9100   22.9450   36.8970 C   0  0  0  0  0  3  0  0  0  0  0  0
   39.4240   23.7240   35.8870 N   0  0  0  0  0  0  0  0  0  0  0  0
   34.9870   30.6300   34.6010 C   0  0  1  0  0  0  0  0  0  0  0  0
   35.7650   31.0880   35.2540 H   0  0  0  0  0  0  0  0  0  0  0  0
   34.8030   31.3560   33.3350 C   0  0  0  0  0  0  0  0  0  0  0  0
   35.8920   32.2050   33.0140 C   0  0  0  0  0  0  0  0  0  0  0  0
   35.9420   32.9810   31.8790 C   0  0  0  0  0  0  0  0  0  0  0  0
   34.8850   32.9690   30.9570 C   0  0  0  0  0  0  0  0  0  0  0  0
   33.8600   32.1140   31.3470 C   0  0  0  0  0  0  0  0  0  0  0  0
   33.7880   31.3490   32.4450 N   0  0  0  0  0  0  0  0  0  0  0  0
   36.8290   32.3860   33.5650 H   0  0  0  0  0  0  0  0  0  0  0  0
   36.7390   33.6440   31.5770 H   0  0  0  0  0  0  0  0  0  0  0  0
   34.7890   33.5170   30.0370 H   0  0  0  0  0  0  0  0  0  0  0  0
   32.9650   31.9950   30.7320 H   0  0  0  0  0  0  0  0  0  0  0  0
   33.3580   30.6270   35.4250 S   0  0  0  0  0  0  0  0  0  0  0  0
   33.3920   31.6090   36.9120 C   0  0  0  0  0  0  0  0  0  0  0  0
   34.6750   31.8600   37.3740 F   0  0  0  0  0  0  0  0  0  0  0  0
   32.6670   32.7810   36.7600 F   0  0  0  0  0  0  0  0  0  0  0  0
   32.7280   30.8600   37.9030 F   0  0  0  0  0  0  0  0  0  0  0  0
  2  1  2  0  0  0  0
  2 19  1  0  0  0  0
  3  4  2  0  0  0  0
  3  8  1  0  0  0  0
  4  5  1  0  0  0  0
  5  1  1  0  0  0  0
  5  6  2  0  0  0  0
  7  6  1  0  0  0  0
  7 11  1  0  0  0  0
  8  7  2  0  0  0  0
  9  3  1  0  0  0  0
 10  4  1  0  0  0  0
 11 12  1  0  0  0  0
 12 13  1  0  0  0  0
 12 14  2  0  0  0  0
 14 15  1  0  0  0  0
 16 14  1  0  0  0  0
 17 16  2  0  0  0  0
 18 11  2  0  0  0  0
 18 17  1  0  0  0  0
 19 20  1  1  0  0  0
 19 31  1  0  0  0  0
 21 19  1  0  0  0  0
 22 21  1  0  0  0  0
 22 27  1  0  0  0  0
 23 22  2  0  0  0  0
 24 25  2  0  0  0  0
 24 23  1  0  0  0  0
 25 26  1  0  0  0  0
 26 21  2  0  0  0  0
 28 23  1  0  0  0  0
 29 24  1  0  0  0  0
 30 25  1  0  0  0  0
 31 32  1  0  0  0  0
 32 33  1  0  0  0  0
 32 35  1  0  0  0  0
 34 32  1  0  0  0  0
M  END
>  <minimizedAffinity>
-5.64038515

$$$$

 OpenBabel03272502363D

 35 37  0  0  1  0  0  0  0  0999 V2000
   36.1930   28.5110   34.3910 C   0  0  0  0  0  3  0  0  0  0  0  0
   35.4330   29.0120   33.4720 C   0  0  0  0  0  3  0  0  0  0  0  0
   37.9310   25.6960   32.6750 C   0  0  0  0  0  0  0  0  0  0  0  0
   37.2330   26.8640   32.9200 C   0  0  0  0  0  0  0  0  0  0  0  0
   36.9340   27.2900   34.1880 C   0  0  0  0  0  0  0  0  0  0  0  0
   37.3620   26.5010   35.2010 N   0  0  0  0  0  0  0  0  0  0  0  0
   38.0340   25.3750   34.9890 C   0  0  0  0  0  0  0  0  0  0  0  0
   38.3200   24.9690   33.7190 N   0  0  0  0  0  0  0  0  0  0  0  0
   38.1820   25.3320   31.6900 H   0  0  0  0  0  0  0  0  0  0  0  0
   36.9700   27.3690   32.0160 H   0  0  0  0  0  0  0  0  0  0  0  0
   38.4810   24.5460   36.1030 C   0  0  0  0  0  0  0  0  0  0  0  0
   39.5790   23.7280   35.9400 C   0  0  0  0  0  0  0  0  0  0  0  0
   40.0670   23.7400   34.9700 H   0  0  0  0  0  0  0  0  0  0  0  0
   40.0710   22.9130   36.9350 C   0  0  0  0  0  0  0  0  0  0  0  0
   40.9260   22.2680   36.8270 H   0  0  0  0  0  0  0  0  0  0  0  0
   39.3630   22.9910   38.1170 C   0  0  0  0  0  3  0  0  0  0  0  0
   38.2570   23.7940   38.3290 C   0  0  0  0  0  3  0  0  0  0  0  0
   37.8300   24.5740   37.2940 N   0  0  0  0  0  0  0  0  0  0  0  0
   34.6950   30.2810   33.7890 C   0  0  1  0  0  0  0  0  0  0  0  0
   34.3850   30.2840   34.8590 H   0  0  0  0  0  0  0  0  0  0  0  0
   35.5300   31.4380   33.4310 C   0  0  0  0  0  0  0  0  0  0  0  0
   35.9360   31.4350   32.0730 C   0  0  0  0  0  0  0  0  0  0  0  0
   36.7210   32.4170   31.5120 C   0  0  0  0  0  0  0  0  0  0  0  0
   37.1690   33.5000   32.2810 C   0  0  0  0  0  0  0  0  0  0  0  0
   36.7280   33.4250   33.5980 C   0  0  0  0  0  0  0  0  0  0  0  0
   35.9650   32.4830   34.1670 N   0  0  0  0  0  0  0  0  0  0  0  0
   35.7170   30.7090   31.2740 H   0  0  0  0  0  0  0  0  0  0  0  0
   37.0620   32.4730   30.4890 H   0  0  0  0  0  0  0  0  0  0  0  0
   37.7810   34.3310   31.9800 H   0  0  0  0  0  0  0  0  0  0  0  0
   36.9950   34.1980   34.3230 H   0  0  0  0  0  0  0  0  0  0  0  0
   33.2420   30.3440   32.6850 S   0  0  0  0  0  0  0  0  0  0  0  0
   31.9620   29.2380   33.2480 C   0  0  0  0  0  0  0  0  0  0  0  0
   30.6920   29.7900   33.1780 F   0  0  0  0  0  0  0  0  0  0  0  0
   32.0250   28.0190   32.5920 F   0  0  0  0  0  0  0  0  0  0  0  0
   32.2310   28.9710   34.6040 F   0  0  0  0  0  0  0  0  0  0  0  0
  2 19  1  0  0  0  0
  2  1  2  0  0  0  0
  3  4  2  0  0  0  0
  3  8  1  0  0  0  0
  4  5  1  0  0  0  0
  5  1  1  0  0  0  0
  5  6  2  0  0  0  0
  7  6  1  0  0  0  0
  7 11  1  0  0  0  0
  8  7  2  0  0  0  0
  9  3  1  0  0  0  0
 10  4  1  0  0  0  0
 11 18  1  0  0  0  0
 12 11  2  0  0  0  0
 12 14  1  0  0  0  0
 13 12  1  0  0  0  0
 14 16  2  0  0  0  0
 15 14  1  0  0  0  0
 16 17  1  0  0  0  0
 18 17  2  0  0  0  0
 19 20  1  1  0  0  0
 21 19  1  0  0  0  0
 21 26  1  0  0  0  0
 22 21  2  0  0  0  0
 23 22  1  0  0  0  0
 23 24  2  0  0  0  0
 24 25  1  0  0  0  0
 25 26  2  0  0  0  0
 25 30  1  0  0  0  0
 27 22  1  0  0  0  0
 28 23  1  0  0  0  0
 29 24  1  0  0  0  0
 31 32  1  0  0  0  0
 31 19  1  0  0  0  0
 32 35  1  0  0  0  0
 33 32  1  0  0  0  0
 34 32  1  0  0  0  0
M  END
>  <minimizedAffinity>
-5.63423347

$$$$

 OpenBabel03272502363D

 35 37  0  0  1  0  0  0  0  0999 V2000
   37.1100   26.8670   33.8520 C   0  0  0  0  0  3  0  0  0  0  0  0
   37.5090   26.6070   35.0550 C   0  0  0  0  0  3  0  0  0  0  0  0
   35.9640   29.7800   31.8310 C   0  0  0  0  0  0  0  0  0  0  0  0
   36.5270   28.5750   32.2100 C   0  0  0  0  0  0  0  0  0  0  0  0
   36.4980   28.1260   33.5050 C   0  0  0  0  0  0  0  0  0  0  0  0
   35.8840   28.9300   34.4040 N   0  0  0  0  0  0  0  0  0  0  0  0
   35.3380   30.0910   34.0620 C   0  0  0  0  0  0  0  0  0  0  0  0
   35.3780   30.5200   32.7690 N   0  0  0  0  0  0  0  0  0  0  0  0
   35.9690   30.1640   30.8210 H   0  0  0  0  0  0  0  0  0  0  0  0
   36.9690   28.0640   31.3830 H   0  0  0  0  0  0  0  0  0  0  0  0
   34.6830   30.9340   35.0560 C   0  0  0  0  0  0  0  0  0  0  0  0
   35.4400   31.5230   36.0470 C   0  0  0  0  0  0  0  0  0  0  0  0
   36.5080   31.3260   36.0400 H   0  0  0  0  0  0  0  0  0  0  0  0
   34.9080   32.3320   37.0260 C   0  0  0  0  0  0  0  0  0  0  0  0
   35.4810   32.8010   37.8070 H   0  0  0  0  0  0  0  0  0  0  0  0
   33.5420   32.5030   36.9240 C   0  0  0  0  0  3  0  0  0  0  0  0
   32.7420   31.9340   35.9510 C   0  0  0  0  0  3  0  0  0  0  0  0
   33.3430   31.1440   35.0140 N   0  0  0  0  0  0  0  0  0  0  0  0
   38.1220   25.2610   35.3140 C   0  0  1  0  0  0  0  0  0  0  0  0
   37.5620   24.4740   34.7580 H   0  0  0  0  0  0  0  0  0  0  0  0
   39.5520   25.2970   34.9690 C   0  0  0  0  0  0  0  0  0  0  0  0
   40.0710   24.0270   34.6080 C   0  0  0  0  0  0  0  0  0  0  0  0
   41.3820   23.8170   34.2470 C   0  0  0  0  0  0  0  0  0  0  0  0
   42.2960   24.8800   34.2180 C   0  0  0  0  0  0  0  0  0  0  0  0
   41.7070   26.0860   34.5850 C   0  0  0  0  0  0  0  0  0  0  0  0
   40.4360   26.3170   34.9400 N   0  0  0  0  0  0  0  0  0  0  0  0
   39.5640   23.0510   34.5500 H   0  0  0  0  0  0  0  0  0  0  0  0
   41.8370   22.8800   33.9620 H   0  0  0  0  0  0  0  0  0  0  0  0
   43.3390   24.8650   33.9580 H   0  0  0  0  0  0  0  0  0  0  0  0
   42.2900   27.0090   34.6110 H   0  0  0  0  0  0  0  0  0  0  0  0
   38.0430   24.9750   37.1150 S   0  0  0  0  0  0  0  0  0  0  0  0
   38.0180   23.2320   37.4860 C   0  0  0  0  0  0  0  0  0  0  0  0
   37.3100   22.9270   38.6380 F   0  0  0  0  0  0  0  0  0  0  0  0
   37.5700   22.4920   36.4030 F   0  0  0  0  0  0  0  0  0  0  0  0
   39.3560   22.8490   37.7000 F   0  0  0  0  0  0  0  0  0  0  0  0
  1  2  2  0  0  0  0
  2 19  1  0  0  0  0
  3  4  2  0  0  0  0
  3  8  1  0  0  0  0
  4  5  1  0  0  0  0
  5  1  1  0  0  0  0
  5  6  2  0  0  0  0
  7  6  1  0  0  0  0
  7 11  1  0  0  0  0
  8  7  2  0  0  0  0
  9  3  1  0  0  0  0
 10  4  1  0  0  0  0
 11 12  1  0  0  0  0
 12 14  2  0  0  0  0
 13 12  1  0  0  0  0
 14 15  1  0  0  0  0
 16 14  1  0  0  0  0
 17 16  2  0  0  0  0
 18 11  2  0  0  0  0
 18 17  1  0  0  0  0
 19 20  1  6  0  0  0
 19 31  1  0  0  0  0
 21 19  1  0  0  0  0
 22 21  2  0  0  0  0
 23 22  1  0  0  0  0
 24 23  2  0  0  0  0
 24 25  1  0  0  0  0
 25 30  1  0  0  0  0
 25 26  2  0  0  0  0
 26 21  1  0  0  0  0
 27 22  1  0  0  0  0
 28 23  1  0  0  0  0
 29 24  1  0  0  0  0
 31 32  1  0  0  0  0
 32 35  1  0  0  0  0
 32 33  1  0  0  0  0
 34 32  1  0  0  0  0
M  END
>  <minimizedAffinity>
-5.56392908

$$$$

 OpenBabel03272502363D

 35 37  0  0  1  0  0  0  0  0999 V2000
   37.9970   26.9660   33.8010 C   0  0  0  0  0  3  0  0  0  0  0  0
   37.9000   25.8150   34.3840 C   0  0  0  0  0  3  0  0  0  0  0  0
   35.0880   28.5000   32.0500 C   0  0  0  0  0  0  0  0  0  0  0  0
   36.1900   27.7190   32.3440 C   0  0  0  0  0  0  0  0  0  0  0  0
   36.8430   27.7940   33.5470 C   0  0  0  0  0  0  0  0  0  0  0  0
   36.3490   28.6790   34.4430 N   0  0  0  0  0  0  0  0  0  0  0  0
   35.2910   29.4380   34.1810 C   0  0  0  0  0  0  0  0  0  0  0  0
   34.6570   29.3500   32.9780 N   0  0  0  0  0  0  0  0  0  0  0  0
   34.5500   28.4670   31.1130 H   0  0  0  0  0  0  0  0  0  0  0  0
   36.4510   27.0750   31.5330 H   0  0  0  0  0  0  0  0  0  0  0  0
   34.7830   30.3840   35.1700 C   0  0  0  0  0  0  0  0  0  0  0  0
   33.4330   30.4110   35.4480 C   0  0  0  0  0  0  0  0  0  0  0  0
   32.8000   29.7140   34.9070 H   0  0  0  0  0  0  0  0  0  0  0  0
   32.8660   31.2690   36.3630 C   0  0  0  0  0  0  0  0  0  0  0  0
   31.8150   31.3050   36.5950 H   0  0  0  0  0  0  0  0  0  0  0  0
   33.7760   32.1020   36.9820 C   0  0  0  0  0  3  0  0  0  0  0  0
   35.1370   32.1120   36.7370 C   0  0  0  0  0  3  0  0  0  0  0  0
   35.6240   31.2320   35.8150 N   0  0  0  0  0  0  0  0  0  0  0  0
   39.1610   25.0260   34.5910 C   0  0  1  0  0  0  0  0  0  0  0  0
   40.0480   25.6890   34.4720 H   0  0  0  0  0  0  0  0  0  0  0  0
   39.1160   24.3610   35.9020 C   0  0  0  0  0  0  0  0  0  0  0  0
   38.1040   24.8720   36.7530 C   0  0  0  0  0  0  0  0  0  0  0  0
   37.8730   24.4040   38.0260 C   0  0  0  0  0  0  0  0  0  0  0  0
   38.6530   23.3670   38.5590 C   0  0  0  0  0  0  0  0  0  0  0  0
   39.6190   22.9250   37.6620 C   0  0  0  0  0  0  0  0  0  0  0  0
   39.8640   23.3630   36.4200 N   0  0  0  0  0  0  0  0  0  0  0  0
   37.3690   25.6720   36.5710 H   0  0  0  0  0  0  0  0  0  0  0  0
   37.1220   24.7480   38.7220 H   0  0  0  0  0  0  0  0  0  0  0  0
   38.5870   22.9050   39.5280 H   0  0  0  0  0  0  0  0  0  0  0  0
   40.3060   22.1190   37.9310 H   0  0  0  0  0  0  0  0  0  0  0  0
   39.1670   23.6910   33.3450 S   0  0  0  0  0  0  0  0  0  0  0  0
   39.4200   24.3470   31.7070 C   0  0  0  0  0  0  0  0  0  0  0  0
   40.0390   23.4510   30.8480 F   0  0  0  0  0  0  0  0  0  0  0  0
   38.2390   24.8330   31.1700 F   0  0  0  0  0  0  0  0  0  0  0  0
   40.2780   25.4550   31.8460 F   0  0  0  0  0  0  0  0  0  0  0  0
  1  2  2  0  0  0  0
  2 19  1  0  0  0  0
  3  4  2  0  0  0  0
  3  8  1  0  0  0  0
  4  5  1  0  0  0  0
  5  1  1  0  0  0  0
  5  6  2  0  0  0  0
  7  6  1  0  0  0  0
  7 11  1  0  0  0  0
  8  7  2  0  0  0  0
  9  3  1  0  0  0  0
 10  4  1  0  0  0  0
 11 12  2  0  0  0  0
 11 18  1  0  0  0  0
 12 14  1  0  0  0  0
 13 12  1  0  0  0  0
 14 15  1  0  0  0  0
 14 16  2  0  0  0  0
 17 16  1  0  0  0  0
 18 17  2  0  0  0  0
 19 20  1  6  0  0  0
 19 21  1  0  0  0  0
 21 26  2  0  0  0  0
 21 22  1  0  0  0  0
 22 23  2  0  0  0  0
 23 24  1  0  0  0  0
 23 28  1  0  0  0  0
 24 29  1  0  0  0  0
 25 30  1  0  0  0  0
 25 24  2  0  0  0  0
 26 25  1  0  0  0  0
 27 22  1  0  0  0  0
 31 19  1  0  0  0  0
 32 35  1  0  0  0  0
 32 31  1  0  0  0  0
 33 32  1  0  0  0  0
 34 32  1  0  0  0  0
M  END
>  <minimizedAffinity>
-5.50697374

$$$$

 OpenBabel03272502363D

 35 37  0  0  1  0  0  0  0  0999 V2000
   35.2440   30.0860   34.8650 C   0  0  0  0  0  3  0  0  0  0  0  0
   35.9030   31.0080   35.4890 C   0  0  0  0  0  3  0  0  0  0  0  0
   36.6260   28.3700   31.8600 C   0  0  0  0  0  0  0  0  0  0  0  0
   36.0150   29.2910   32.6910 C   0  0  0  0  0  0  0  0  0  0  0  0
   35.9010   29.1000   34.0430 C   0  0  0  0  0  0  0  0  0  0  0  0
   36.4230   27.9510   34.5310 N   0  0  0  0  0  0  0  0  0  0  0  0
   37.0140   27.0520   33.7520 C   0  0  0  0  0  0  0  0  0  0  0  0
   37.1160   27.2610   32.4090 N   0  0  0  0  0  0  0  0  0  0  0  0
   36.7320   28.4890   30.7920 H   0  0  0  0  0  0  0  0  0  0  0  0
   35.6590   30.1400   32.1500 H   0  0  0  0  0  0  0  0  0  0  0  0
   37.5670   25.8230   34.3100 C   0  0  0  0  0  0  0  0  0  0  0  0
   38.0220   24.8380   33.4590 C   0  0  0  0  0  0  0  0  0  0  0  0
   37.9460   25.0290   32.3930 H   0  0  0  0  0  0  0  0  0  0  0  0
   38.5580   23.6470   33.8960 C   0  0  0  0  0  0  0  0  0  0  0  0
   38.9190   22.8680   33.2480 H   0  0  0  0  0  0  0  0  0  0  0  0
   38.6000   23.5280   35.2700 C   0  0  0  0  0  3  0  0  0  0  0  0
   38.1550   24.4860   36.1640 C   0  0  0  0  0  3  0  0  0  0  0  0
   37.6370   25.6400   35.6540 N   0  0  0  0  0  0  0  0  0  0  0  0
   35.1220   31.9940   36.3090 C   0  0  1  0  0  0  0  0  0  0  0  0
   35.1280   31.6860   37.3800 H   0  0  0  0  0  0  0  0  0  0  0  0
   35.6620   33.3460   36.1000 C   0  0  0  0  0  0  0  0  0  0  0  0
   36.8870   33.3540   35.3840 C   0  0  0  0  0  0  0  0  0  0  0  0
   37.5760   34.5020   35.0710 C   0  0  0  0  0  0  0  0  0  0  0  0
   37.0860   35.7590   35.4560 C   0  0  0  0  0  0  0  0  0  0  0  0
   35.8860   35.6610   36.1510 C   0  0  0  0  0  0  0  0  0  0  0  0
   35.1950   34.5580   36.4690 N   0  0  0  0  0  0  0  0  0  0  0  0
   37.4680   32.5120   34.9750 H   0  0  0  0  0  0  0  0  0  0  0  0
   38.5090   34.5760   34.5300 H   0  0  0  0  0  0  0  0  0  0  0  0
   37.5140   36.7300   35.2810 H   0  0  0  0  0  0  0  0  0  0  0  0
   35.3770   36.5560   36.5190 H   0  0  0  0  0  0  0  0  0  0  0  0
   33.4230   32.0180   35.6420 S   0  0  0  0  0  0  0  0  0  0  0  0
   32.2970   31.1640   36.7280 C   0  0  0  0  0  0  0  0  0  0  0  0
   31.7950   29.9910   36.1840 F   0  0  0  0  0  0  0  0  0  0  0  0
   32.8650   30.9450   37.9730 F   0  0  0  0  0  0  0  0  0  0  0  0
   31.2070   32.0300   36.9370 F   0  0  0  0  0  0  0  0  0  0  0  0
  1  2  2  0  0  0  0
  2 19  1  0  0  0  0
  3  8  2  0  0  0  0
  3  4  1  0  0  0  0
  4  5  2  0  0  0  0
  5  6  1  0  0  0  0
  5  1  1  0  0  0  0
  7 11  1  0  0  0  0
  7  6  2  0  0  0  0
  8  7  1  0  0  0  0
  9  3  1  0  0  0  0
 10  4  1  0  0  0  0
 11 18  1  0  0  0  0
 12 14  1  0  0  0  0
 12 11  2  0  0  0  0
 13 12  1  0  0  0  0
 14 16  2  0  0  0  0
 15 14  1  0  0  0  0
 16 17  1  0  0  0  0
 18 17  2  0  0  0  0
 19 20  1  1  0  0  0
 21 19  1  0  0  0  0
 21 26  1  0  0  0  0
 22 21  2  0  0  0  0
 23 22  1  0  0  0  0
 23 24  2  0  0  0  0
 24 25  1  0  0  0  0
 25 26  2  0  0  0  0
 25 30  1  0  0  0  0
 27 22  1  0  0  0  0
 28 23  1  0  0  0  0
 29 24  1  0  0  0  0
 31 19  1  0  0  0  0
 31 32  1  0  0  0  0
 32 35  1  0  0  0  0
 32 34  1  0  0  0  0
 33 32  1  0  0  0  0
M  END
>  <minimizedAffinity>
-5.48237991

$$$$
