
 OpenBabel03272505123D

 38 41  0  0  0  0  0  0  0  0999 V2000
   36.4180   30.8970   45.7010 Cl  0  0  0  0  0  0  0  0  0  0  0  0
   36.6920   30.7840   47.4180 C   0  0  0  0  0  0  0  0  0  0  0  0
   37.9520   31.1250   47.8790 C   0  0  0  0  0  0  0  0  0  0  0  0
   38.1850   31.0400   49.2380 C   0  0  0  0  0  0  0  0  0  0  0  0
   37.1790   30.6270   50.0780 C   0  0  0  0  0  0  0  0  0  0  0  0
   35.9340   30.2990   49.5430 C   0  0  0  0  0  0  0  0  0  0  0  0
   35.6350   30.3600   48.2110 C   0  0  0  0  0  0  0  0  0  0  0  0
   39.1710   31.3080   49.5850 H   0  0  0  0  0  0  0  0  0  0  0  0
   37.3520   30.5560   51.1520 H   0  0  0  0  0  0  0  0  0  0  0  0
   35.1630   29.9770   50.2390 H   0  0  0  0  0  0  0  0  0  0  0  0
   40.2250   33.3320   46.0810 C   0  0  0  0  0  0  0  0  0  0  0  0
   40.9390   32.4730   45.2220 C   0  0  0  0  0  0  0  0  0  0  0  0
   40.6180   31.1060   45.2760 C   0  0  0  0  0  0  0  0  0  0  0  0
   39.6500   30.6920   46.1420 N   0  0  0  0  0  0  0  0  0  0  0  0
   39.0000   31.5620   46.9400 C   0  0  0  0  0  0  0  0  0  0  0  0
   39.2850   32.8610   46.9080 N   0  0  0  0  0  0  0  0  0  0  0  0
   40.4900   34.3640   46.0190 H   0  0  0  0  0  0  0  0  0  0  0  0
   41.7060   32.7730   44.5320 H   0  0  0  0  0  0  0  0  0  0  0  0
   41.0840   30.3340   44.6760 H   0  0  0  0  0  0  0  0  0  0  0  0
   34.0730   29.9520   47.5120 S   0  0  0  0  0  0  0  0  0  0  0  0
   33.9270   29.1400   44.4810 Cl  0  0  0  0  0  0  0  0  0  0  0  0
   33.8900   27.9190   45.7470 C   0  0  0  0  0  0  0  0  0  0  0  0
   33.9490   28.2060   47.1100 C   0  0  0  0  0  0  0  0  0  0  0  0
   33.9110   27.1690   48.0250 C   0  0  0  0  0  0  0  0  0  0  0  0
   33.8150   25.8800   47.6030 C   0  0  0  0  0  0  0  0  0  0  0  0
   33.7540   25.5580   46.2600 C   0  0  0  0  0  0  0  0  0  0  0  0
   33.7920   26.5860   45.3630 C   0  0  0  0  0  0  0  0  0  0  0  0
   33.9650   27.5370   49.0470 H   0  0  0  0  0  0  0  0  0  0  0  0
   33.7910   25.1330   48.3860 H   0  0  0  0  0  0  0  0  0  0  0  0
   33.6810   24.5180   46.0470 H   0  0  0  0  0  0  0  0  0  0  0  0
   33.7300   26.2930   43.9360 C   0  0  0  0  0  0  0  0  0  0  0  0
   32.5530   26.1550   43.2400 C   0  0  0  0  0  0  0  0  0  0  0  0
   31.6000   26.2610   43.7370 H   0  0  0  0  0  0  0  0  0  0  0  0
   32.4590   25.8780   41.8930 C   0  0  0  0  0  0  0  0  0  0  0  0
   31.5170   25.7760   41.3810 H   0  0  0  0  0  0  0  0  0  0  0  0
   33.6250   25.7240   41.1680 C   0  0  0  0  0  3  0  0  0  0  0  0
   34.7840   25.8690   41.9000 C   0  0  0  0  0  3  0  0  0  0  0  0
   34.8270   26.1380   43.2020 N   0  0  0  0  0  0  0  0  0  0  0  0
  1  2  1  0  0  0  0
  2  3  2  0  0  0  0
  2  7  1  0  0  0  0
  3  4  1  0  0  0  0
  4  8  1  0  0  0  0
  4  5  2  0  0  0  0
  5  9  1  0  0  0  0
  6  5  1  0  0  0  0
  6 10  1  0  0  0  0
  7  6  2  0  0  0  0
 11 16  1  0  0  0  0
 12 13  1  0  0  0  0
 12 11  2  0  0  0  0
 13 14  2  0  0  0  0
 14 15  1  0  0  0  0
 15  3  1  0  0  0  0
 16 15  2  0  0  0  0
 17 11  1  0  0  0  0
 18 12  1  0  0  0  0
 19 13  1  0  0  0  0
 20  7  1  0  0  0  0
 21 22  1  0  0  0  0
 22 23  1  0  0  0  0
 23 20  1  0  0  0  0
 23 24  2  0  0  0  0
 24 28  1  0  0  0  0
 25 24  1  0  0  0  0
 25 29  1  0  0  0  0
 26 25  2  0  0  0  0
 27 22  2  0  0  0  0
 27 26  1  0  0  0  0
 30 26  1  0  0  0  0
 31 27  1  0  0  0  0
 32 33  1  0  0  0  0
 32 31  1  0  0  0  0
 34 32  2  0  0  0  0
 35 34  1  0  0  0  0
 36 34  1  0  0  0  0
 36 37  2  0  0  0  0
 37 38  1  0  0  0  0
 38 31  2  0  0  0  0
M  END
>  <minimizedAffinity>
-5.64074183

>  <minimizedRMSD>
0.572258592

$$$$
