
 OpenBabel03272506273D

 41 44  0  0  0  0  0  0  0  0999 V2000
   36.5090   30.1690   44.9640 C   0  0  0  0  0  0  0  0  0  0  0  0
   37.5260   30.7070   45.7290 C   0  0  0  0  0  0  0  0  0  0  0  0
   37.4360   30.9530   47.0990 C   0  0  0  0  0  0  0  0  0  0  0  0
   36.2230   30.6340   47.7530 C   0  0  0  0  0  0  0  0  0  0  0  0
   35.2250   30.0990   46.9710 C   0  0  0  0  0  0  0  0  0  0  0  0
   35.3240   29.8610   45.6330 C   0  0  0  0  0  0  0  0  0  0  0  0
   38.4870   30.9690   45.2550 H   0  0  0  0  0  0  0  0  0  0  0  0
   38.3170   31.3860   47.6030 H   0  0  0  0  0  0  0  0  0  0  0  0
   36.2700   30.8630   48.7920 H   0  0  0  0  0  0  0  0  0  0  0  0
   34.4130   29.9410   47.6350 H   0  0  0  0  0  0  0  0  0  0  0  0
   37.3780   28.7740   43.1900 C   0  0  0  0  0  0  0  0  0  0  0  0
   36.7810   29.9880   43.5650 C   0  0  0  0  0  0  0  0  0  0  0  0
   36.4960   30.9170   42.5610 C   0  0  0  0  0  0  0  0  0  0  0  0
   36.8060   30.6120   41.2740 N   0  0  0  0  0  0  0  0  0  0  0  0
   37.3870   29.4260   40.9340 C   0  0  0  0  0  0  0  0  0  0  0  0
   37.6700   28.5080   41.9000 N   0  0  0  0  0  0  0  0  0  0  0  0
   37.6100   28.0350   43.9320 H   0  0  0  0  0  0  0  0  0  0  0  0
   37.6110   29.2370   39.8880 H   0  0  0  0  0  0  0  0  0  0  0  0
   35.8670   32.2460   42.8080 C   0  0  0  0  0  0  0  0  0  0  0  0
   35.8580   32.9920   41.6110 F   0  0  0  0  0  0  0  0  0  0  0  0
   34.6160   32.2280   43.3080 F   0  0  0  0  0  0  0  0  0  0  0  0
   36.6740   32.9970   43.6520 F   0  0  0  0  0  0  0  0  0  0  0  0
   34.0370   29.1730   44.6570 S   0  0  0  0  0  0  0  0  0  0  0  0
   33.9980   26.1000   45.1290 Cl  0  0  0  0  0  0  0  0  0  0  0  0
   32.7460   27.1170   45.8080 C   0  0  0  0  0  0  0  0  0  0  0  0
   32.7030   28.4980   45.6070 C   0  0  0  0  0  0  0  0  0  0  0  0
   31.6940   29.2430   46.1380 C   0  0  0  0  0  0  0  0  0  0  0  0
   30.7170   28.6090   46.8800 C   0  0  0  0  0  0  0  0  0  0  0  0
   30.7570   27.2280   47.0830 C   0  0  0  0  0  0  0  0  0  0  0  0
   31.7730   26.4710   46.5460 C   0  0  0  0  0  0  0  0  0  0  0  0
   31.5520   30.2860   46.0140 H   0  0  0  0  0  0  0  0  0  0  0  0
   29.8940   29.1610   47.3250 H   0  0  0  0  0  0  0  0  0  0  0  0
   29.9620   26.7930   47.6720 H   0  0  0  0  0  0  0  0  0  0  0  0
   31.8440   25.0280   46.7380 C   0  0  0  0  0  0  0  0  0  0  0  0
   31.1730   24.1240   45.9620 C   0  0  0  0  0  0  0  0  0  0  0  0
   30.5480   24.4520   45.1590 H   0  0  0  0  0  0  0  0  0  0  0  0
   31.2310   22.7490   46.1340 C   0  0  0  0  0  0  0  0  0  0  0  0
   30.6760   22.0780   45.4890 H   0  0  0  0  0  0  0  0  0  0  0  0
   32.0130   22.2350   47.1480 C   0  0  0  0  0  3  0  0  0  0  0  0
   32.6870   23.1530   47.9270 C   0  0  0  0  0  3  0  0  0  0  0  0
   32.5940   24.4780   47.7160 N   0  0  0  0  0  0  0  0  0  0  0  0
  1  6  2  0  0  0  0
  1  2  1  0  0  0  0
  2  3  2  0  0  0  0
  3  8  1  0  0  0  0
  3  4  1  0  0  0  0
  4  9  1  0  0  0  0
  5 10  1  0  0  0  0
  5  4  2  0  0  0  0
  6  5  1  0  0  0  0
  7  2  1  0  0  0  0
 11 12  1  0  0  0  0
 11 17  1  0  0  0  0
 12  1  1  0  0  0  0
 13 19  1  0  0  0  0
 13 12  2  0  0  0  0
 14 13  1  0  0  0  0
 15 14  2  0  0  0  0
 15 16  1  0  0  0  0
 16 11  2  0  0  0  0
 18 15  1  0  0  0  0
 19 21  1  0  0  0  0
 19 22  1  0  0  0  0
 20 19  1  0  0  0  0
 23 26  1  0  0  0  0
 23  6  1  0  0  0  0
 24 25  1  0  0  0  0
 25 30  1  0  0  0  0
 26 25  2  0  0  0  0
 26 27  1  0  0  0  0
 27 28  2  0  0  0  0
 28 29  1  0  0  0  0
 28 32  1  0  0  0  0
 29 33  1  0  0  0  0
 30 34  1  0  0  0  0
 30 29  2  0  0  0  0
 31 27  1  0  0  0  0
 34 41  1  0  0  0  0
 35 37  1  0  0  0  0
 35 34  2  0  0  0  0
 36 35  1  0  0  0  0
 37 39  2  0  0  0  0
 38 37  1  0  0  0  0
 39 40  1  0  0  0  0
 41 40  2  0  0  0  0
M  END
>  <minimizedAffinity>
-4.11348486

>  <minimizedRMSD>
7.3241663

$$$$
