
 OpenBabel03272506273D

 41 44  0  0  0  0  0  0  0  0999 V2000
   33.0850   27.8460   44.2250 C   0  0  0  0  0  0  0  0  0  0  0  0
   32.7670   26.7420   43.4560 C   0  0  0  0  0  0  0  0  0  0  0  0
   32.9390   26.6690   42.0740 C   0  0  0  0  0  0  0  0  0  0  0  0
   33.4730   27.7980   41.4110 C   0  0  0  0  0  0  0  0  0  0  0  0
   33.7820   28.8850   42.1960 C   0  0  0  0  0  0  0  0  0  0  0  0
   33.6100   28.9460   43.5470 C   0  0  0  0  0  0  0  0  0  0  0  0
   32.3480   25.8430   43.9380 H   0  0  0  0  0  0  0  0  0  0  0  0
   32.6490   25.7330   41.5690 H   0  0  0  0  0  0  0  0  0  0  0  0
   33.5590   27.6280   40.3630 H   0  0  0  0  0  0  0  0  0  0  0  0
   34.1520   29.6140   41.5210 H   0  0  0  0  0  0  0  0  0  0  0  0
   33.8340   27.1260   46.4090 C   0  0  0  0  0  0  0  0  0  0  0  0
   32.8360   27.7420   45.6360 C   0  0  0  0  0  0  0  0  0  0  0  0
   31.6920   28.2050   46.2910 C   0  0  0  0  0  0  0  0  0  0  0  0
   31.5900   28.0420   47.6350 N   0  0  0  0  0  0  0  0  0  0  0  0
   32.5720   27.4400   48.3650 C   0  0  0  0  0  0  0  0  0  0  0  0
   33.6960   26.9840   47.7430 N   0  0  0  0  0  0  0  0  0  0  0  0
   34.7270   26.7590   45.9420 H   0  0  0  0  0  0  0  0  0  0  0  0
   32.4360   27.3380   49.4380 H   0  0  0  0  0  0  0  0  0  0  0  0
   30.5510   28.8760   45.6030 C   0  0  0  0  0  0  0  0  0  0  0  0
   29.5160   29.1120   46.5300 F   0  0  0  0  0  0  0  0  0  0  0  0
   30.8340   30.0340   44.9750 F   0  0  0  0  0  0  0  0  0  0  0  0
   29.9760   28.0030   44.6900 F   0  0  0  0  0  0  0  0  0  0  0  0
   34.0170   30.3430   44.5290 S   0  0  0  0  0  0  0  0  0  0  0  0
   34.5420   30.3610   47.5930 Cl  0  0  0  0  0  0  0  0  0  0  0  0
   35.8800   30.3480   46.4650 C   0  0  0  0  0  0  0  0  0  0  0  0
   35.7000   30.3630   45.0800 C   0  0  0  0  0  0  0  0  0  0  0  0
   36.7750   30.3760   44.2430 C   0  0  0  0  0  0  0  0  0  0  0  0
   38.0440   30.3700   44.7890 C   0  0  0  0  0  0  0  0  0  0  0  0
   38.2270   30.3550   46.1730 C   0  0  0  0  0  0  0  0  0  0  0  0
   37.1450   30.3450   47.0220 C   0  0  0  0  0  0  0  0  0  0  0  0
   36.7460   30.4240   43.1860 H   0  0  0  0  0  0  0  0  0  0  0  0
   38.9320   30.3780   44.1620 H   0  0  0  0  0  0  0  0  0  0  0  0
   39.2460   30.3520   46.5360 H   0  0  0  0  0  0  0  0  0  0  0  0
   37.3000   30.3290   48.4710 C   0  0  0  0  0  0  0  0  0  0  0  0
   36.7030   29.4130   49.2910 C   0  0  0  0  0  0  0  0  0  0  0  0
   36.0770   28.6460   48.8860 H   0  0  0  0  0  0  0  0  0  0  0  0
   36.8430   29.3870   50.6690 C   0  0  0  0  0  0  0  0  0  0  0  0
   36.3450   28.6360   51.2720 H   0  0  0  0  0  0  0  0  0  0  0  0
   37.6340   30.3410   51.2790 C   0  0  0  0  0  3  0  0  0  0  0  0
   38.2340   31.2620   50.4460 C   0  0  0  0  0  3  0  0  0  0  0  0
   38.0630   31.2400   49.1120 N   0  0  0  0  0  0  0  0  0  0  0  0
  1 12  1  0  0  0  0
  2  7  1  0  0  0  0
  2  1  2  0  0  0  0
  3  2  1  0  0  0  0
  4  3  2  0  0  0  0
  4  5  1  0  0  0  0
  5  6  2  0  0  0  0
  6  1  1  0  0  0  0
  6 23  1  0  0  0  0
  8  3  1  0  0  0  0
  9  4  1  0  0  0  0
 10  5  1  0  0  0  0
 11 16  1  0  0  0  0
 12 13  1  0  0  0  0
 12 11  2  0  0  0  0
 13 14  2  0  0  0  0
 14 15  1  0  0  0  0
 15 18  1  0  0  0  0
 16 15  2  0  0  0  0
 17 11  1  0  0  0  0
 19 13  1  0  0  0  0
 19 20  1  0  0  0  0
 21 19  1  0  0  0  0
 22 19  1  0  0  0  0
 23 26  1  0  0  0  0
 25 30  1  0  0  0  0
 25 24  1  0  0  0  0
 26 25  2  0  0  0  0
 27 28  2  0  0  0  0
 27 26  1  0  0  0  0
 28 29  1  0  0  0  0
 29 33  1  0  0  0  0
 29 30  2  0  0  0  0
 30 34  1  0  0  0  0
 31 27  1  0  0  0  0
 32 28  1  0  0  0  0
 34 41  2  0  0  0  0
 34 35  1  0  0  0  0
 35 37  2  0  0  0  0
 36 35  1  0  0  0  0
 37 38  1  0  0  0  0
 37 39  1  0  0  0  0
 40 39  2  0  0  0  0
 41 40  1  0  0  0  0
M  END
>  <minimizedAffinity>
-4.95324612

>  <minimizedRMSD>
3.22703576

$$$$
