
 OpenBabel03272505143D

 38 41  0  0  0  0  0  0  0  0999 V2000
   38.2820   23.5980   34.1880 Cl  0  0  0  0  0  0  0  0  0  0  0  0
   39.3550   24.9660   34.0800 C   0  0  0  0  0  0  0  0  0  0  0  0
   40.5350   24.9000   34.7990 C   0  0  0  0  0  0  0  0  0  0  0  0
   41.3970   25.9780   34.7240 C   0  0  0  0  0  0  0  0  0  0  0  0
   41.0640   27.0640   33.9520 C   0  0  0  0  0  0  0  0  0  0  0  0
   39.8570   27.0610   33.2530 C   0  0  0  0  0  0  0  0  0  0  0  0
   38.9600   26.0310   33.2830 C   0  0  0  0  0  0  0  0  0  0  0  0
   42.3140   25.9130   35.2900 H   0  0  0  0  0  0  0  0  0  0  0  0
   41.7360   27.9190   33.8850 H   0  0  0  0  0  0  0  0  0  0  0  0
   39.6290   27.9390   32.6520 H   0  0  0  0  0  0  0  0  0  0  0  0
   42.1770   21.8320   35.8790 C   0  0  0  0  0  0  0  0  0  0  0  0
   41.5100   21.4790   37.0680 C   0  0  0  0  0  0  0  0  0  0  0  0
   40.4720   22.3270   37.4940 C   0  0  0  0  0  0  0  0  0  0  0  0
   40.1750   23.4270   36.7450 N   0  0  0  0  0  0  0  0  0  0  0  0
   40.8500   23.7140   35.6150 C   0  0  0  0  0  0  0  0  0  0  0  0
   41.8360   22.9270   35.1910 N   0  0  0  0  0  0  0  0  0  0  0  0
   42.9600   21.1710   35.5810 H   0  0  0  0  0  0  0  0  0  0  0  0
   41.7240   20.6190   37.6760 H   0  0  0  0  0  0  0  0  0  0  0  0
   39.8760   22.1800   38.3850 H   0  0  0  0  0  0  0  0  0  0  0  0
   37.4320   26.0050   32.4110 S   0  0  0  0  0  0  0  0  0  0  0  0
   36.2930   27.6320   34.8450 Cl  0  0  0  0  0  0  0  0  0  0  0  0
   36.3140   28.3220   33.2260 C   0  0  0  0  0  0  0  0  0  0  0  0
   36.8030   27.6580   32.1010 C   0  0  0  0  0  0  0  0  0  0  0  0
   36.7720   28.2910   30.8720 C   0  0  0  0  0  0  0  0  0  0  0  0
   36.2700   29.5500   30.7570 C   0  0  0  0  0  0  0  0  0  0  0  0
   35.7770   30.2380   31.8500 C   0  0  0  0  0  0  0  0  0  0  0  0
   35.8110   29.6070   33.0590 C   0  0  0  0  0  0  0  0  0  0  0  0
   37.1830   27.6590   30.0870 H   0  0  0  0  0  0  0  0  0  0  0  0
   36.2840   29.9680   29.7580 H   0  0  0  0  0  0  0  0  0  0  0  0
   35.4110   31.2150   31.6410 H   0  0  0  0  0  0  0  0  0  0  0  0
   35.3020   30.2960   34.2390 C   0  0  0  0  0  0  0  0  0  0  0  0
   36.0830   31.0800   35.0560 C   0  0  0  0  0  0  0  0  0  0  0  0
   37.1320   31.2200   34.8490 H   0  0  0  0  0  0  0  0  0  0  0  0
   35.6320   31.7450   36.1780 C   0  0  0  0  0  0  0  0  0  0  0  0
   36.2750   32.3500   36.7940 H   0  0  0  0  0  0  0  0  0  0  0  0
   34.3020   31.6270   36.5240 C   0  0  0  0  0  3  0  0  0  0  0  0
   33.5520   30.8330   35.6830 C   0  0  0  0  0  3  0  0  0  0  0  0
   34.0290   30.2100   34.6090 N   0  0  0  0  0  0  0  0  0  0  0  0
  2  1  1  0  0  0  0
  2  3  1  0  0  0  0
  3 15  1  0  0  0  0
  4  3  2  0  0  0  0
  4  8  1  0  0  0  0
  5  4  1  0  0  0  0
  6  7  1  0  0  0  0
  6  5  2  0  0  0  0
  7  2  2  0  0  0  0
  9  5  1  0  0  0  0
 10  6  1  0  0  0  0
 11 12  1  0  0  0  0
 12 13  2  0  0  0  0
 12 18  1  0  0  0  0
 13 19  1  0  0  0  0
 14 13  1  0  0  0  0
 15 14  2  0  0  0  0
 16 15  1  0  0  0  0
 16 11  2  0  0  0  0
 17 11  1  0  0  0  0
 20  7  1  0  0  0  0
 22 21  1  0  0  0  0
 23 20  1  0  0  0  0
 23 22  2  0  0  0  0
 24 23  1  0  0  0  0
 25 24  2  0  0  0  0
 25 26  1  0  0  0  0
 26 27  2  0  0  0  0
 27 22  1  0  0  0  0
 27 31  1  0  0  0  0
 28 24  1  0  0  0  0
 29 25  1  0  0  0  0
 30 26  1  0  0  0  0
 31 38  2  0  0  0  0
 31 32  1  0  0  0  0
 32 34  2  0  0  0  0
 33 32  1  0  0  0  0
 34 36  1  0  0  0  0
 34 35  1  0  0  0  0
 37 36  2  0  0  0  0
 38 37  1  0  0  0  0
M  END
>  <minimizedAffinity>
-6.09477234

$$$$

 OpenBabel03272505143D

 38 41  0  0  0  0  0  0  0  0999 V2000
   36.9700   27.9030   33.9770 Cl  0  0  0  0  0  0  0  0  0  0  0  0
   36.9840   28.4810   32.3340 C   0  0  0  0  0  0  0  0  0  0  0  0
   35.9450   29.3080   31.9470 C   0  0  0  0  0  0  0  0  0  0  0  0
   35.9420   29.7740   30.6460 C   0  0  0  0  0  0  0  0  0  0  0  0
   36.9520   29.4090   29.7900 C   0  0  0  0  0  0  0  0  0  0  0  0
   37.9670   28.5720   30.2480 C   0  0  0  0  0  0  0  0  0  0  0  0
   38.0320   28.0750   31.5190 C   0  0  0  0  0  0  0  0  0  0  0  0
   35.1250   30.4190   30.3580 H   0  0  0  0  0  0  0  0  0  0  0  0
   36.9600   29.7710   28.7610 H   0  0  0  0  0  0  0  0  0  0  0  0
   38.7500   28.3060   29.5410 H   0  0  0  0  0  0  0  0  0  0  0  0
   34.2420   31.0150   34.6790 C   0  0  0  0  0  0  0  0  0  0  0  0
   32.9660   30.4200   34.7210 C   0  0  0  0  0  0  0  0  0  0  0  0
   32.7020   29.4090   33.7810 C   0  0  0  0  0  0  0  0  0  0  0  0
   33.6790   29.0670   32.8930 N   0  0  0  0  0  0  0  0  0  0  0  0
   34.8830   29.6720   32.9020 C   0  0  0  0  0  0  0  0  0  0  0  0
   35.1570   30.6320   33.7820 N   0  0  0  0  0  0  0  0  0  0  0  0
   34.4140   31.7790   35.4050 H   0  0  0  0  0  0  0  0  0  0  0  0
   32.1790   30.6710   35.4080 H   0  0  0  0  0  0  0  0  0  0  0  0
   31.7690   28.8670   33.6960 H   0  0  0  0  0  0  0  0  0  0  0  0
   39.3030   27.0170   32.1220 S   0  0  0  0  0  0  0  0  0  0  0  0
   39.6810   26.2960   35.1560 Cl  0  0  0  0  0  0  0  0  0  0  0  0
   38.8560   25.1930   34.0600 C   0  0  0  0  0  0  0  0  0  0  0  0
   38.6540   25.4470   32.7030 C   0  0  0  0  0  0  0  0  0  0  0  0
   37.9930   24.5110   31.9280 C   0  0  0  0  0  0  0  0  0  0  0  0
   37.5440   23.3520   32.4800 C   0  0  0  0  0  0  0  0  0  0  0  0
   37.7270   23.0670   33.8200 C   0  0  0  0  0  0  0  0  0  0  0  0
   38.3800   23.9950   34.5790 C   0  0  0  0  0  0  0  0  0  0  0  0
   37.9070   24.8380   30.8950 H   0  0  0  0  0  0  0  0  0  0  0  0
   37.0390   22.6770   31.8010 H   0  0  0  0  0  0  0  0  0  0  0  0
   37.3340   22.1310   34.1410 H   0  0  0  0  0  0  0  0  0  0  0  0
   38.5950   23.7360   35.9970 C   0  0  0  0  0  0  0  0  0  0  0  0
   37.7290   24.1490   36.9840 C   0  0  0  0  0  0  0  0  0  0  0  0
   36.8330   24.6970   36.7390 H   0  0  0  0  0  0  0  0  0  0  0  0
   37.9030   23.9200   38.3330 C   0  0  0  0  0  0  0  0  0  0  0  0
   37.2030   24.2600   39.0770 H   0  0  0  0  0  0  0  0  0  0  0  0
   39.0220   23.2260   38.7450 C   0  0  0  0  0  3  0  0  0  0  0  0
   39.8650   22.8290   37.7290 C   0  0  0  0  0  3  0  0  0  0  0  0
   39.6570   23.0720   36.4380 N   0  0  0  0  0  0  0  0  0  0  0  0
  2  1  1  0  0  0  0
  3  2  1  0  0  0  0
  3 15  1  0  0  0  0
  4  3  2  0  0  0  0
  5  6  2  0  0  0  0
  5  4  1  0  0  0  0
  6  7  1  0  0  0  0
  7 20  1  0  0  0  0
  7  2  2  0  0  0  0
  8  4  1  0  0  0  0
  9  5  1  0  0  0  0
 10  6  1  0  0  0  0
 11 12  1  0  0  0  0
 11 17  1  0  0  0  0
 12 18  1  0  0  0  0
 13 12  2  0  0  0  0
 14 15  2  0  0  0  0
 14 13  1  0  0  0  0
 15 16  1  0  0  0  0
 16 11  2  0  0  0  0
 19 13  1  0  0  0  0
 20 23  1  0  0  0  0
 22 27  1  0  0  0  0
 22 21  1  0  0  0  0
 23 22  2  0  0  0  0
 24 25  2  0  0  0  0
 24 23  1  0  0  0  0
 25 26  1  0  0  0  0
 26 30  1  0  0  0  0
 26 27  2  0  0  0  0
 27 31  1  0  0  0  0
 28 24  1  0  0  0  0
 29 25  1  0  0  0  0
 31 38  2  0  0  0  0
 31 32  1  0  0  0  0
 32 34  2  0  0  0  0
 33 32  1  0  0  0  0
 34 36  1  0  0  0  0
 34 35  1  0  0  0  0
 37 36  2  0  0  0  0
 38 37  1  0  0  0  0
M  END
>  <minimizedAffinity>
-6.07985067

$$$$

 OpenBabel03272505143D

 38 41  0  0  0  0  0  0  0  0999 V2000
   36.3490   27.6520   34.8240 Cl  0  0  0  0  0  0  0  0  0  0  0  0
   36.3260   28.3820   33.2420 C   0  0  0  0  0  0  0  0  0  0  0  0
   35.7760   29.6470   33.1400 C   0  0  0  0  0  0  0  0  0  0  0  0
   35.7500   30.2390   31.8910 C   0  0  0  0  0  0  0  0  0  0  0  0
   36.2610   29.5670   30.8070 C   0  0  0  0  0  0  0  0  0  0  0  0
   36.8000   28.2940   30.9850 C   0  0  0  0  0  0  0  0  0  0  0  0
   36.8570   27.6500   32.1890 C   0  0  0  0  0  0  0  0  0  0  0  0
   35.3180   31.2260   31.8250 H   0  0  0  0  0  0  0  0  0  0  0  0
   36.2460   30.0250   29.8180 H   0  0  0  0  0  0  0  0  0  0  0  0
   37.1950   27.7940   30.1040 H   0  0  0  0  0  0  0  0  0  0  0  0
   35.6720   31.7100   36.1410 C   0  0  0  0  0  0  0  0  0  0  0  0
   34.3320   31.6380   36.5680 C   0  0  0  0  0  0  0  0  0  0  0  0
   33.4560   30.8570   35.7930 C   0  0  0  0  0  0  0  0  0  0  0  0
   33.9450   30.2230   34.6890 N   0  0  0  0  0  0  0  0  0  0  0  0
   35.2390   30.3290   34.3300 C   0  0  0  0  0  0  0  0  0  0  0  0
   36.0880   31.0620   35.0470 N   0  0  0  0  0  0  0  0  0  0  0  0
   36.3130   32.3090   36.7480 H   0  0  0  0  0  0  0  0  0  0  0  0
   33.9220   32.1280   37.4320 H   0  0  0  0  0  0  0  0  0  0  0  0
   32.4040   30.7130   36.0010 H   0  0  0  0  0  0  0  0  0  0  0  0
   37.5320   26.0440   32.4390 S   0  0  0  0  0  0  0  0  0  0  0  0
   38.3030   23.5840   34.2330 Cl  0  0  0  0  0  0  0  0  0  0  0  0
   39.3740   24.9730   34.0950 C   0  0  0  0  0  0  0  0  0  0  0  0
   39.0950   26.0990   33.3200 C   0  0  0  0  0  0  0  0  0  0  0  0
   40.0060   27.1400   33.2820 C   0  0  0  0  0  0  0  0  0  0  0  0
   41.1630   27.0700   33.9940 C   0  0  0  0  0  0  0  0  0  0  0  0
   41.4710   25.9710   34.7740 C   0  0  0  0  0  0  0  0  0  0  0  0
   40.5680   24.9480   34.8060 C   0  0  0  0  0  0  0  0  0  0  0  0
   39.6620   27.9480   32.6410 H   0  0  0  0  0  0  0  0  0  0  0  0
   41.8160   27.9290   33.9070 H   0  0  0  0  0  0  0  0  0  0  0  0
   42.4020   26.0270   35.2860 H   0  0  0  0  0  0  0  0  0  0  0  0
   40.8530   23.7690   35.6140 C   0  0  0  0  0  0  0  0  0  0  0  0
   41.8480   22.8670   35.3170 C   0  0  0  0  0  0  0  0  0  0  0  0
   42.4750   23.0020   34.4490 H   0  0  0  0  0  0  0  0  0  0  0  0
   42.1430   21.7430   36.0610 C   0  0  0  0  0  0  0  0  0  0  0  0
   42.9310   21.0600   35.7960 H   0  0  0  0  0  0  0  0  0  0  0  0
   41.3950   21.4860   37.1920 C   0  0  0  0  0  3  0  0  0  0  0  0
   40.4070   22.4110   37.4560 C   0  0  0  0  0  3  0  0  0  0  0  0
   40.1580   23.4830   36.7100 N   0  0  0  0  0  0  0  0  0  0  0  0
  2  1  1  0  0  0  0
  3  2  1  0  0  0  0
  3 15  1  0  0  0  0
  4  3  2  0  0  0  0
  5  6  2  0  0  0  0
  5  4  1  0  0  0  0
  6  7  1  0  0  0  0
  7 20  1  0  0  0  0
  7  2  2  0  0  0  0
  8  4  1  0  0  0  0
  9  5  1  0  0  0  0
 10  6  1  0  0  0  0
 11 12  1  0  0  0  0
 11 17  1  0  0  0  0
 12 18  1  0  0  0  0
 13 19  1  0  0  0  0
 13 12  2  0  0  0  0
 14 13  1  0  0  0  0
 15 14  2  0  0  0  0
 15 16  1  0  0  0  0
 16 11  2  0  0  0  0
 20 23  1  0  0  0  0
 22 21  1  0  0  0  0
 22 27  1  0  0  0  0
 23 22  2  0  0  0  0
 24 23  1  0  0  0  0
 24 25  2  0  0  0  0
 25 26  1  0  0  0  0
 26 27  2  0  0  0  0
 26 30  1  0  0  0  0
 27 31  1  0  0  0  0
 28 24  1  0  0  0  0
 29 25  1  0  0  0  0
 31 38  1  0  0  0  0
 32 31  2  0  0  0  0
 32 34  1  0  0  0  0
 33 32  1  0  0  0  0
 34 36  2  0  0  0  0
 35 34  1  0  0  0  0
 36 37  1  0  0  0  0
 38 37  2  0  0  0  0
M  END
>  <minimizedAffinity>
-6.02655172

$$$$

 OpenBabel03272505143D

 38 41  0  0  0  0  0  0  0  0999 V2000
   37.4350   27.8680   35.2970 Cl  0  0  0  0  0  0  0  0  0  0  0  0
   36.9980   27.8150   33.6110 C   0  0  0  0  0  0  0  0  0  0  0  0
   35.9600   28.6340   33.2030 C   0  0  0  0  0  0  0  0  0  0  0  0
   35.6020   28.6030   31.8690 C   0  0  0  0  0  0  0  0  0  0  0  0
   36.2730   27.7760   31.0020 C   0  0  0  0  0  0  0  0  0  0  0  0
   37.3100   26.9780   31.4840 C   0  0  0  0  0  0  0  0  0  0  0  0
   37.7150   26.9580   32.7880 C   0  0  0  0  0  0  0  0  0  0  0  0
   34.7910   29.2470   31.5640 H   0  0  0  0  0  0  0  0  0  0  0  0
   35.9990   27.7440   29.9470 H   0  0  0  0  0  0  0  0  0  0  0  0
   37.8170   26.3360   30.7670 H   0  0  0  0  0  0  0  0  0  0  0  0
   33.2940   29.9970   35.2780 C   0  0  0  0  0  0  0  0  0  0  0  0
   33.8950   31.0740   35.9570 C   0  0  0  0  0  0  0  0  0  0  0  0
   35.2510   31.3250   35.6830 C   0  0  0  0  0  0  0  0  0  0  0  0
   35.8990   30.5230   34.7890 N   0  0  0  0  0  0  0  0  0  0  0  0
   35.2690   29.5050   34.1700 C   0  0  0  0  0  0  0  0  0  0  0  0
   33.9860   29.2480   34.4130 N   0  0  0  0  0  0  0  0  0  0  0  0
   32.2640   29.8310   35.5060 H   0  0  0  0  0  0  0  0  0  0  0  0
   33.4090   31.7200   36.6650 H   0  0  0  0  0  0  0  0  0  0  0  0
   35.8400   32.1150   36.1290 H   0  0  0  0  0  0  0  0  0  0  0  0
   39.0200   25.9610   33.4200 S   0  0  0  0  0  0  0  0  0  0  0  0
   37.8600   23.6570   31.6260 Cl  0  0  0  0  0  0  0  0  0  0  0  0
   37.9070   23.5020   33.3780 C   0  0  0  0  0  0  0  0  0  0  0  0
   38.4050   24.4840   34.2350 C   0  0  0  0  0  0  0  0  0  0  0  0
   38.3930   24.2620   35.6010 C   0  0  0  0  0  0  0  0  0  0  0  0
   37.9010   23.1000   36.1070 C   0  0  0  0  0  0  0  0  0  0  0  0
   37.3990   22.1060   35.2880 C   0  0  0  0  0  0  0  0  0  0  0  0
   37.4130   22.3320   33.9420 C   0  0  0  0  0  0  0  0  0  0  0  0
   38.8100   25.1060   36.1450 H   0  0  0  0  0  0  0  0  0  0  0  0
   37.9300   23.0120   37.1860 H   0  0  0  0  0  0  0  0  0  0  0  0
   37.0410   21.2410   35.7940 H   0  0  0  0  0  0  0  0  0  0  0  0
   36.8940   21.3100   33.0410 C   0  0  0  0  0  0  0  0  0  0  0  0
   35.5550   21.1490   32.7670 C   0  0  0  0  0  0  0  0  0  0  0  0
   34.8170   21.7910   33.2220 H   0  0  0  0  0  0  0  0  0  0  0  0
   35.0310   20.1940   31.9210 C   0  0  0  0  0  0  0  0  0  0  0  0
   33.9760   20.0990   31.7310 H   0  0  0  0  0  0  0  0  0  0  0  0
   35.8990   19.3250   31.2900 C   0  0  0  0  0  3  0  0  0  0  0  0
   37.2310   19.5170   31.5900 C   0  0  0  0  0  3  0  0  0  0  0  0
   37.6920   20.4530   32.4140 N   0  0  0  0  0  0  0  0  0  0  0  0
  2  1  1  0  0  0  0
  3  2  1  0  0  0  0
  3 15  1  0  0  0  0
  4  3  2  0  0  0  0
  5  6  2  0  0  0  0
  5  4  1  0  0  0  0
  6  7  1  0  0  0  0
  7 20  1  0  0  0  0
  7  2  2  0  0  0  0
  8  4  1  0  0  0  0
  9  5  1  0  0  0  0
 10  6  1  0  0  0  0
 11 17  1  0  0  0  0
 11 12  1  0  0  0  0
 12 18  1  0  0  0  0
 13 12  2  0  0  0  0
 13 19  1  0  0  0  0
 14 13  1  0  0  0  0
 15 16  1  0  0  0  0
 15 14  2  0  0  0  0
 16 11  2  0  0  0  0
 20 23  1  0  0  0  0
 21 22  1  0  0  0  0
 22 27  2  0  0  0  0
 22 23  1  0  0  0  0
 23 24  2  0  0  0  0
 24 25  1  0  0  0  0
 24 28  1  0  0  0  0
 25 29  1  0  0  0  0
 26 30  1  0  0  0  0
 26 25  2  0  0  0  0
 27 26  1  0  0  0  0
 31 27  1  0  0  0  0
 32 31  1  0  0  0  0
 32 33  1  0  0  0  0
 34 32  2  0  0  0  0
 35 34  1  0  0  0  0
 36 37  2  0  0  0  0
 36 34  1  0  0  0  0
 37 38  1  0  0  0  0
 38 31  2  0  0  0  0
M  END
>  <minimizedAffinity>
-5.85834455

$$$$

 OpenBabel03272505143D

 38 41  0  0  0  0  0  0  0  0999 V2000
   39.9290   26.0550   34.9260 Cl  0  0  0  0  0  0  0  0  0  0  0  0
   39.0120   24.9600   33.9290 C   0  0  0  0  0  0  0  0  0  0  0  0
   38.4680   23.8490   34.5480 C   0  0  0  0  0  0  0  0  0  0  0  0
   37.7370   22.9710   33.7700 C   0  0  0  0  0  0  0  0  0  0  0  0
   37.5760   23.2210   32.4290 C   0  0  0  0  0  0  0  0  0  0  0  0
   38.1530   24.3620   31.8720 C   0  0  0  0  0  0  0  0  0  0  0  0
   38.8860   25.2700   32.5820 C   0  0  0  0  0  0  0  0  0  0  0  0
   37.3180   22.1080   34.2650 H   0  0  0  0  0  0  0  0  0  0  0  0
   37.0020   22.5360   31.8060 H   0  0  0  0  0  0  0  0  0  0  0  0
   38.0020   24.5260   30.8080 H   0  0  0  0  0  0  0  0  0  0  0  0
   37.8630   23.9440   38.1390 C   0  0  0  0  0  0  0  0  0  0  0  0
   38.9550   23.2490   38.6960 C   0  0  0  0  0  0  0  0  0  0  0  0
   39.9130   22.7420   37.8000 C   0  0  0  0  0  0  0  0  0  0  0  0
   39.7340   22.9480   36.4640 N   0  0  0  0  0  0  0  0  0  0  0  0
   38.6680   23.6220   35.9900 C   0  0  0  0  0  0  0  0  0  0  0  0
   37.7480   24.1110   36.8170 N   0  0  0  0  0  0  0  0  0  0  0  0
   37.1530   24.3170   38.8440 H   0  0  0  0  0  0  0  0  0  0  0  0
   39.1190   23.0730   39.7430 H   0  0  0  0  0  0  0  0  0  0  0  0
   40.7990   22.1900   38.0840 H   0  0  0  0  0  0  0  0  0  0  0  0
   39.6240   26.7160   31.9030 S   0  0  0  0  0  0  0  0  0  0  0  0
   37.3330   27.8720   33.7150 Cl  0  0  0  0  0  0  0  0  0  0  0  0
   37.4240   28.2760   32.0050 C   0  0  0  0  0  0  0  0  0  0  0  0
   38.4110   27.7990   31.1420 C   0  0  0  0  0  0  0  0  0  0  0  0
   38.3900   28.1780   29.8110 C   0  0  0  0  0  0  0  0  0  0  0  0
   37.4180   29.0060   29.3450 C   0  0  0  0  0  0  0  0  0  0  0  0
   36.4240   29.4980   30.1710 C   0  0  0  0  0  0  0  0  0  0  0  0
   36.4510   29.1200   31.4830 C   0  0  0  0  0  0  0  0  0  0  0  0
   39.2140   27.7340   29.2580 H   0  0  0  0  0  0  0  0  0  0  0  0
   37.4780   29.2500   28.2920 H   0  0  0  0  0  0  0  0  0  0  0  0
   35.7180   30.1370   29.6980 H   0  0  0  0  0  0  0  0  0  0  0  0
   35.4230   29.6150   32.3900 C   0  0  0  0  0  0  0  0  0  0  0  0
   35.5500   30.7720   33.1220 C   0  0  0  0  0  0  0  0  0  0  0  0
   36.4410   31.3760   33.0520 H   0  0  0  0  0  0  0  0  0  0  0  0
   34.5970   31.2670   33.9880 C   0  0  0  0  0  0  0  0  0  0  0  0
   34.7330   32.1780   34.5450 H   0  0  0  0  0  0  0  0  0  0  0  0
   33.4200   30.5630   34.1460 C   0  0  0  0  0  3  0  0  0  0  0  0
   33.3300   29.4100   33.3960 C   0  0  0  0  0  3  0  0  0  0  0  0
   34.2760   28.9700   32.5720 N   0  0  0  0  0  0  0  0  0  0  0  0
  2  3  1  0  0  0  0
  2  1  1  0  0  0  0
  3 15  1  0  0  0  0
  4  8  1  0  0  0  0
  4  3  2  0  0  0  0
  5  4  1  0  0  0  0
  6  5  2  0  0  0  0
  6  7  1  0  0  0  0
  7  2  2  0  0  0  0
  9  5  1  0  0  0  0
 10  6  1  0  0  0  0
 11 12  1  0  0  0  0
 11 17  1  0  0  0  0
 12 18  1  0  0  0  0
 13 19  1  0  0  0  0
 13 12  2  0  0  0  0
 14 13  1  0  0  0  0
 15 14  2  0  0  0  0
 15 16  1  0  0  0  0
 16 11  2  0  0  0  0
 20  7  1  0  0  0  0
 22 21  1  0  0  0  0
 23 20  1  0  0  0  0
 23 22  2  0  0  0  0
 24 23  1  0  0  0  0
 25 24  2  0  0  0  0
 25 26  1  0  0  0  0
 26 27  2  0  0  0  0
 27 22  1  0  0  0  0
 27 31  1  0  0  0  0
 28 24  1  0  0  0  0
 29 25  1  0  0  0  0
 30 26  1  0  0  0  0
 31 38  2  0  0  0  0
 31 32  1  0  0  0  0
 32 34  2  0  0  0  0
 33 32  1  0  0  0  0
 34 36  1  0  0  0  0
 34 35  1  0  0  0  0
 37 36  2  0  0  0  0
 38 37  1  0  0  0  0
M  END
>  <minimizedAffinity>
-5.8243928

$$$$

 OpenBabel03272505143D

 38 41  0  0  0  0  0  0  0  0999 V2000
   37.9630   23.6880   31.6650 Cl  0  0  0  0  0  0  0  0  0  0  0  0
   37.9750   23.5000   33.3960 C   0  0  0  0  0  0  0  0  0  0  0  0
   37.4780   22.3140   33.9060 C   0  0  0  0  0  0  0  0  0  0  0  0
   37.4810   22.1510   35.2780 C   0  0  0  0  0  0  0  0  0  0  0  0
   37.9670   23.1520   36.0830 C   0  0  0  0  0  0  0  0  0  0  0  0
   38.4520   24.3210   35.5000 C   0  0  0  0  0  0  0  0  0  0  0  0
   38.4800   24.5490   34.1530 C   0  0  0  0  0  0  0  0  0  0  0  0
   37.0900   21.2200   35.6620 H   0  0  0  0  0  0  0  0  0  0  0  0
   37.9740   23.0340   37.1660 H   0  0  0  0  0  0  0  0  0  0  0  0
   38.8300   25.0910   36.1690 H   0  0  0  0  0  0  0  0  0  0  0  0
   35.1150   20.3100   31.9900 C   0  0  0  0  0  0  0  0  0  0  0  0
   35.9160   19.3540   31.3360 C   0  0  0  0  0  0  0  0  0  0  0  0
   37.3010   19.4140   31.5720 C   0  0  0  0  0  0  0  0  0  0  0  0
   37.7840   20.3790   32.4050 N   0  0  0  0  0  0  0  0  0  0  0  0
   36.9660   21.2680   33.0030 C   0  0  0  0  0  0  0  0  0  0  0  0
   35.6520   21.2310   32.7960 N   0  0  0  0  0  0  0  0  0  0  0  0
   34.0680   20.2390   31.7920 H   0  0  0  0  0  0  0  0  0  0  0  0
   35.5620   18.5840   30.6750 H   0  0  0  0  0  0  0  0  0  0  0  0
   38.0350   18.7460   31.1390 H   0  0  0  0  0  0  0  0  0  0  0  0
   39.0870   26.0160   33.3940 S   0  0  0  0  0  0  0  0  0  0  0  0
   37.4560   27.8840   35.3220 Cl  0  0  0  0  0  0  0  0  0  0  0  0
   37.0860   27.8140   33.6030 C   0  0  0  0  0  0  0  0  0  0  0  0
   37.7660   27.0080   32.6910 C   0  0  0  0  0  0  0  0  0  0  0  0
   37.3930   27.0270   31.3580 C   0  0  0  0  0  0  0  0  0  0  0  0
   36.3730   27.8220   30.9390 C   0  0  0  0  0  0  0  0  0  0  0  0
   35.6760   28.6330   31.8150 C   0  0  0  0  0  0  0  0  0  0  0  0
   36.0500   28.6090   33.1280 C   0  0  0  0  0  0  0  0  0  0  0  0
   38.0060   26.3540   30.7630 H   0  0  0  0  0  0  0  0  0  0  0  0
   36.1480   27.7730   29.8810 H   0  0  0  0  0  0  0  0  0  0  0  0
   34.8990   29.2120   31.3750 H   0  0  0  0  0  0  0  0  0  0  0  0
   35.3430   29.4490   34.0870 C   0  0  0  0  0  0  0  0  0  0  0  0
   35.9240   30.5130   34.7380 C   0  0  0  0  0  0  0  0  0  0  0  0
   36.9550   30.7740   34.5580 H   0  0  0  0  0  0  0  0  0  0  0  0
   35.2840   31.3260   35.6500 C   0  0  0  0  0  0  0  0  0  0  0  0
   35.7730   32.1510   36.1400 H   0  0  0  0  0  0  0  0  0  0  0  0
   33.9600   31.0710   35.9450 C   0  0  0  0  0  3  0  0  0  0  0  0
   33.4130   29.9980   35.2740 C   0  0  0  0  0  3  0  0  0  0  0  0
   34.0690   29.2400   34.4010 N   0  0  0  0  0  0  0  0  0  0  0  0
  1  2  1  0  0  0  0
  2  3  2  0  0  0  0
  2  7  1  0  0  0  0
  3  4  1  0  0  0  0
  4  8  1  0  0  0  0
  4  5  2  0  0  0  0
  5  9  1  0  0  0  0
  6  5  1  0  0  0  0
  6 10  1  0  0  0  0
  7  6  2  0  0  0  0
 11 16  1  0  0  0  0
 12 13  1  0  0  0  0
 12 11  2  0  0  0  0
 13 14  2  0  0  0  0
 14 15  1  0  0  0  0
 15  3  1  0  0  0  0
 16 15  2  0  0  0  0
 17 11  1  0  0  0  0
 18 12  1  0  0  0  0
 19 13  1  0  0  0  0
 20  7  1  0  0  0  0
 22 21  1  0  0  0  0
 23 20  1  0  0  0  0
 23 22  2  0  0  0  0
 24 23  1  0  0  0  0
 25 24  2  0  0  0  0
 25 26  1  0  0  0  0
 26 27  2  0  0  0  0
 27 22  1  0  0  0  0
 27 31  1  0  0  0  0
 28 24  1  0  0  0  0
 29 25  1  0  0  0  0
 30 26  1  0  0  0  0
 31 38  2  0  0  0  0
 31 32  1  0  0  0  0
 32 34  2  0  0  0  0
 33 32  1  0  0  0  0
 34 36  1  0  0  0  0
 34 35  1  0  0  0  0
 37 36  2  0  0  0  0
 38 37  1  0  0  0  0
M  END
>  <minimizedAffinity>
-5.79253292

$$$$

 OpenBabel03272505143D

 38 41  0  0  0  0  0  0  0  0999 V2000
   39.6810   24.2880   30.0870 Cl  0  0  0  0  0  0  0  0  0  0  0  0
   38.2100   25.0800   30.5800 C   0  0  0  0  0  0  0  0  0  0  0  0
   38.1730   26.4600   30.4830 C   0  0  0  0  0  0  0  0  0  0  0  0
   37.0120   27.1020   30.8710 C   0  0  0  0  0  0  0  0  0  0  0  0
   35.9480   26.3670   31.3330 C   0  0  0  0  0  0  0  0  0  0  0  0
   36.0560   24.9780   31.4040 C   0  0  0  0  0  0  0  0  0  0  0  0
   37.1720   24.2800   31.0370 C   0  0  0  0  0  0  0  0  0  0  0  0
   36.9970   28.1780   30.7910 H   0  0  0  0  0  0  0  0  0  0  0  0
   35.0280   26.8630   31.6420 H   0  0  0  0  0  0  0  0  0  0  0  0
   35.1930   24.4310   31.7740 H   0  0  0  0  0  0  0  0  0  0  0  0
   41.3660   28.2140   30.4850 C   0  0  0  0  0  0  0  0  0  0  0  0
   41.5530   28.6000   29.1430 C   0  0  0  0  0  0  0  0  0  0  0  0
   40.5470   28.2400   28.2290 C   0  0  0  0  0  0  0  0  0  0  0  0
   39.4640   27.5480   28.6850 N   0  0  0  0  0  0  0  0  0  0  0  0
   39.3400   27.2070   29.9820 C   0  0  0  0  0  0  0  0  0  0  0  0
   40.2790   27.5350   30.8660 N   0  0  0  0  0  0  0  0  0  0  0  0
   42.1460   28.5000   31.1550 H   0  0  0  0  0  0  0  0  0  0  0  0
   42.3960   29.1440   28.7580 H   0  0  0  0  0  0  0  0  0  0  0  0
   40.5580   28.4690   27.1710 H   0  0  0  0  0  0  0  0  0  0  0  0
   37.3320   22.5290   31.1170 S   0  0  0  0  0  0  0  0  0  0  0  0
   38.9570   23.4640   33.6380 Cl  0  0  0  0  0  0  0  0  0  0  0  0
   37.6140   22.3380   33.7940 C   0  0  0  0  0  0  0  0  0  0  0  0
   36.8510   21.8800   32.7200 C   0  0  0  0  0  0  0  0  0  0  0  0
   35.8160   20.9920   32.9530 C   0  0  0  0  0  0  0  0  0  0  0  0
   35.5420   20.5670   34.2150 C   0  0  0  0  0  0  0  0  0  0  0  0
   36.2770   20.9990   35.3030 C   0  0  0  0  0  0  0  0  0  0  0  0
   37.2970   21.8750   35.0660 C   0  0  0  0  0  0  0  0  0  0  0  0
   35.3080   20.7210   32.0290 H   0  0  0  0  0  0  0  0  0  0  0  0
   34.7160   19.8730   34.3040 H   0  0  0  0  0  0  0  0  0  0  0  0
   35.9730   20.6010   36.2410 H   0  0  0  0  0  0  0  0  0  0  0  0
   38.0990   22.3570   36.1840 C   0  0  0  0  0  0  0  0  0  0  0  0
   37.6080   23.1810   37.1700 C   0  0  0  0  0  0  0  0  0  0  0  0
   36.5810   23.5120   37.1540 H   0  0  0  0  0  0  0  0  0  0  0  0
   38.3390   23.6550   38.2400 C   0  0  0  0  0  0  0  0  0  0  0  0
   37.9190   24.2990   38.9930 H   0  0  0  0  0  0  0  0  0  0  0  0
   39.6640   23.2860   38.3480 C   0  0  0  0  0  3  0  0  0  0  0  0
   40.1200   22.4610   37.3420 C   0  0  0  0  0  3  0  0  0  0  0  0
   39.3780   22.0270   36.3270 N   0  0  0  0  0  0  0  0  0  0  0  0
  1  2  1  0  0  0  0
  2  7  1  0  0  0  0
  3  2  2  0  0  0  0
  3  4  1  0  0  0  0
  4  5  2  0  0  0  0
  5  6  1  0  0  0  0
  5  9  1  0  0  0  0
  6 10  1  0  0  0  0
  7 20  1  0  0  0  0
  7  6  2  0  0  0  0
  8  4  1  0  0  0  0
 11 16  1  0  0  0  0
 11 17  1  0  0  0  0
 12 11  2  0  0  0  0
 13 14  2  0  0  0  0
 13 12  1  0  0  0  0
 14 15  1  0  0  0  0
 15  3  1  0  0  0  0
 15 16  2  0  0  0  0
 18 12  1  0  0  0  0
 19 13  1  0  0  0  0
 20 23  1  0  0  0  0
 21 22  1  0  0  0  0
 22 27  1  0  0  0  0
 23 24  1  0  0  0  0
 23 22  2  0  0  0  0
 24 25  2  0  0  0  0
 25 29  1  0  0  0  0
 25 26  1  0  0  0  0
 26 30  1  0  0  0  0
 27 26  2  0  0  0  0
 27 31  1  0  0  0  0
 28 24  1  0  0  0  0
 31 38  2  0  0  0  0
 31 32  1  0  0  0  0
 32 34  2  0  0  0  0
 33 32  1  0  0  0  0
 34 36  1  0  0  0  0
 34 35  1  0  0  0  0
 37 36  2  0  0  0  0
 38 37  1  0  0  0  0
M  END
>  <minimizedAffinity>
-5.7686553

$$$$

 OpenBabel03272505143D

 38 41  0  0  0  0  0  0  0  0999 V2000
   38.9490   24.9830   32.1270 Cl  0  0  0  0  0  0  0  0  0  0  0  0
   37.2800   25.0680   31.6360 C   0  0  0  0  0  0  0  0  0  0  0  0
   36.6370   23.8710   31.3770 C   0  0  0  0  0  0  0  0  0  0  0  0
   35.3120   23.9220   30.9860 C   0  0  0  0  0  0  0  0  0  0  0  0
   34.6830   25.1370   30.8670 C   0  0  0  0  0  0  0  0  0  0  0  0
   35.3940   26.3040   31.1440 C   0  0  0  0  0  0  0  0  0  0  0  0
   36.7030   26.3270   31.5350 C   0  0  0  0  0  0  0  0  0  0  0  0
   34.8220   22.9810   30.7870 H   0  0  0  0  0  0  0  0  0  0  0  0
   33.6390   25.1900   30.5590 H   0  0  0  0  0  0  0  0  0  0  0  0
   34.8610   27.2470   31.0400 H   0  0  0  0  0  0  0  0  0  0  0  0
   37.8190   20.7610   32.8620 C   0  0  0  0  0  0  0  0  0  0  0  0
   38.6480   20.1950   31.8730 C   0  0  0  0  0  0  0  0  0  0  0  0
   38.7920   20.9130   30.6730 C   0  0  0  0  0  0  0  0  0  0  0  0
   38.1320   22.0990   30.5350 N   0  0  0  0  0  0  0  0  0  0  0  0
   37.3530   22.5910   31.5170 C   0  0  0  0  0  0  0  0  0  0  0  0
   37.2000   21.9300   32.6620 N   0  0  0  0  0  0  0  0  0  0  0  0
   37.7290   20.1940   33.7610 H   0  0  0  0  0  0  0  0  0  0  0  0
   39.1770   19.2640   31.9570 H   0  0  0  0  0  0  0  0  0  0  0  0
   39.3940   20.6000   29.8300 H   0  0  0  0  0  0  0  0  0  0  0  0
   37.6210   27.7850   31.8900 S   0  0  0  0  0  0  0  0  0  0  0  0
   36.3510   28.6290   34.6370 Cl  0  0  0  0  0  0  0  0  0  0  0  0
   36.0500   29.5630   33.1770 C   0  0  0  0  0  0  0  0  0  0  0  0
   36.5780   29.2470   31.9250 C   0  0  0  0  0  0  0  0  0  0  0  0
   36.2770   30.0480   30.8380 C   0  0  0  0  0  0  0  0  0  0  0  0
   35.4720   31.1350   30.9850 C   0  0  0  0  0  0  0  0  0  0  0  0
   34.9300   31.4780   32.2090 C   0  0  0  0  0  0  0  0  0  0  0  0
   35.2320   30.6830   33.2770 C   0  0  0  0  0  0  0  0  0  0  0  0
   36.7540   29.6860   29.9310 H   0  0  0  0  0  0  0  0  0  0  0  0
   35.2890   31.7040   30.0820 H   0  0  0  0  0  0  0  0  0  0  0  0
   34.3170   32.3480   32.2040 H   0  0  0  0  0  0  0  0  0  0  0  0
   34.6830   31.0080   34.5880 C   0  0  0  0  0  0  0  0  0  0  0  0
   35.3450   31.7740   35.5190 C   0  0  0  0  0  0  0  0  0  0  0  0
   36.3240   32.1750   35.3100 H   0  0  0  0  0  0  0  0  0  0  0  0
   34.8530   32.0990   36.7670 C   0  0  0  0  0  0  0  0  0  0  0  0
   35.4020   32.7010   37.4700 H   0  0  0  0  0  0  0  0  0  0  0  0
   33.6060   31.6310   37.1260 C   0  0  0  0  0  3  0  0  0  0  0  0
   32.9740   30.8680   36.1670 C   0  0  0  0  0  3  0  0  0  0  0  0
   33.4860   30.5790   34.9750 N   0  0  0  0  0  0  0  0  0  0  0  0
  2  1  1  0  0  0  0
  3 15  1  0  0  0  0
  3  2  2  0  0  0  0
  4  3  1  0  0  0  0
  5  4  2  0  0  0  0
  5  6  1  0  0  0  0
  6  7  2  0  0  0  0
  7  2  1  0  0  0  0
  7 20  1  0  0  0  0
  8  4  1  0  0  0  0
  9  5  1  0  0  0  0
 10  6  1  0  0  0  0
 11 17  1  0  0  0  0
 12 18  1  0  0  0  0
 12 11  2  0  0  0  0
 13 12  1  0  0  0  0
 14 13  2  0  0  0  0
 14 15  1  0  0  0  0
 15 16  2  0  0  0  0
 16 11  1  0  0  0  0
 19 13  1  0  0  0  0
 20 23  1  0  0  0  0
 22 27  1  0  0  0  0
 22 21  1  0  0  0  0
 23 22  2  0  0  0  0
 24 25  2  0  0  0  0
 24 23  1  0  0  0  0
 25 26  1  0  0  0  0
 26 27  2  0  0  0  0
 27 31  1  0  0  0  0
 28 24  1  0  0  0  0
 29 25  1  0  0  0  0
 30 26  1  0  0  0  0
 31 38  2  0  0  0  0
 31 32  1  0  0  0  0
 32 34  2  0  0  0  0
 33 32  1  0  0  0  0
 34 36  1  0  0  0  0
 34 35  1  0  0  0  0
 37 36  2  0  0  0  0
 38 37  1  0  0  0  0
M  END
>  <minimizedAffinity>
-5.6987462

$$$$

 OpenBabel03272505143D

 38 41  0  0  0  0  0  0  0  0999 V2000
   37.4740   24.7000   33.4520 Cl  0  0  0  0  0  0  0  0  0  0  0  0
   38.9020   25.6970   33.4840 C   0  0  0  0  0  0  0  0  0  0  0  0
   39.6500   25.6900   34.6480 C   0  0  0  0  0  0  0  0  0  0  0  0
   40.7850   26.4760   34.6890 C   0  0  0  0  0  0  0  0  0  0  0  0
   41.1340   27.2280   33.5930 C   0  0  0  0  0  0  0  0  0  0  0  0
   40.3320   27.1860   32.4530 C   0  0  0  0  0  0  0  0  0  0  0  0
   39.1980   26.4320   32.3450 C   0  0  0  0  0  0  0  0  0  0  0  0
   41.3600   26.4610   35.6030 H   0  0  0  0  0  0  0  0  0  0  0  0
   42.0270   27.8520   33.6140 H   0  0  0  0  0  0  0  0  0  0  0  0
   40.6410   27.7940   31.6060 H   0  0  0  0  0  0  0  0  0  0  0  0
   39.5220   22.8930   36.9800 C   0  0  0  0  0  0  0  0  0  0  0  0
   38.5340   23.2620   37.9140 C   0  0  0  0  0  0  0  0  0  0  0  0
   37.9070   24.5060   37.7230 C   0  0  0  0  0  0  0  0  0  0  0  0
   38.2840   25.2740   36.6600 N   0  0  0  0  0  0  0  0  0  0  0  0
   39.2370   24.8670   35.7990 C   0  0  0  0  0  0  0  0  0  0  0  0
   39.8450   23.6940   35.9580 N   0  0  0  0  0  0  0  0  0  0  0  0
   39.9800   21.9450   37.1510 H   0  0  0  0  0  0  0  0  0  0  0  0
   38.2200   22.6770   38.7580 H   0  0  0  0  0  0  0  0  0  0  0  0
   37.1350   24.9170   38.3590 H   0  0  0  0  0  0  0  0  0  0  0  0
   38.1710   26.3620   30.9180 S   0  0  0  0  0  0  0  0  0  0  0  0
   36.2060   28.0970   32.6500 Cl  0  0  0  0  0  0  0  0  0  0  0  0
   36.8620   28.7120   31.1380 C   0  0  0  0  0  0  0  0  0  0  0  0
   37.7360   27.9980   30.3180 C   0  0  0  0  0  0  0  0  0  0  0  0
   38.1920   28.5750   29.1460 C   0  0  0  0  0  0  0  0  0  0  0  0
   37.7930   29.8260   28.7930 C   0  0  0  0  0  0  0  0  0  0  0  0
   36.9280   30.5630   29.5800 C   0  0  0  0  0  0  0  0  0  0  0  0
   36.4820   29.9870   30.7340 C   0  0  0  0  0  0  0  0  0  0  0  0
   38.8640   27.9090   28.6090 H   0  0  0  0  0  0  0  0  0  0  0  0
   38.1990   30.1980   27.8600 H   0  0  0  0  0  0  0  0  0  0  0  0
   36.6860   31.5280   29.2040 H   0  0  0  0  0  0  0  0  0  0  0  0
   35.5680   30.7280   31.5950 C   0  0  0  0  0  0  0  0  0  0  0  0
   35.9860   31.6140   32.5610 C   0  0  0  0  0  0  0  0  0  0  0  0
   37.0360   31.8000   32.7240 H   0  0  0  0  0  0  0  0  0  0  0  0
   35.1480   32.3300   33.3910 C   0  0  0  0  0  0  0  0  0  0  0  0
   35.5120   33.0150   34.1370 H   0  0  0  0  0  0  0  0  0  0  0  0
   33.7850   32.1590   33.2580 C   0  0  0  0  0  3  0  0  0  0  0  0
   33.4050   31.2640   32.2810 C   0  0  0  0  0  3  0  0  0  0  0  0
   34.2500   30.5950   31.5020 N   0  0  0  0  0  0  0  0  0  0  0  0
  1  2  1  0  0  0  0
  2  3  1  0  0  0  0
  3  4  2  0  0  0  0
  3 15  1  0  0  0  0
  4  8  1  0  0  0  0
  5  9  1  0  0  0  0
  5  4  1  0  0  0  0
  6  5  2  0  0  0  0
  7  6  1  0  0  0  0
  7  2  2  0  0  0  0
 10  6  1  0  0  0  0
 11 17  1  0  0  0  0
 11 12  1  0  0  0  0
 12 18  1  0  0  0  0
 13 12  2  0  0  0  0
 13 19  1  0  0  0  0
 14 13  1  0  0  0  0
 15 16  1  0  0  0  0
 15 14  2  0  0  0  0
 16 11  2  0  0  0  0
 20  7  1  0  0  0  0
 22 21  1  0  0  0  0
 23 20  1  0  0  0  0
 23 22  2  0  0  0  0
 24 23  1  0  0  0  0
 25 24  2  0  0  0  0
 25 26  1  0  0  0  0
 26 27  2  0  0  0  0
 27 22  1  0  0  0  0
 27 31  1  0  0  0  0
 28 24  1  0  0  0  0
 29 25  1  0  0  0  0
 30 26  1  0  0  0  0
 31 32  1  0  0  0  0
 32 33  1  0  0  0  0
 32 34  2  0  0  0  0
 34 35  1  0  0  0  0
 36 34  1  0  0  0  0
 37 36  2  0  0  0  0
 38 31  2  0  0  0  0
 38 37  1  0  0  0  0
M  END
>  <minimizedAffinity>
-5.64863729

$$$$
