
 OpenBabel03272505123D

 38 41  0  0  0  0  0  0  0  0999 V2000
   36.4060   30.8490   45.6440 Cl  0  0  0  0  0  0  0  0  0  0  0  0
   36.6640   30.7230   47.3620 C   0  0  0  0  0  0  0  0  0  0  0  0
   37.9150   31.0710   47.8390 C   0  0  0  0  0  0  0  0  0  0  0  0
   38.1340   30.9750   49.2000 C   0  0  0  0  0  0  0  0  0  0  0  0
   37.1240   30.5460   50.0250 C   0  0  0  0  0  0  0  0  0  0  0  0
   35.8880   30.2120   49.4740 C   0  0  0  0  0  0  0  0  0  0  0  0
   35.6020   30.2830   48.1400 C   0  0  0  0  0  0  0  0  0  0  0  0
   39.1150   31.2500   49.5590 H   0  0  0  0  0  0  0  0  0  0  0  0
   37.2860   30.4670   51.1000 H   0  0  0  0  0  0  0  0  0  0  0  0
   35.1120   29.8770   50.1590 H   0  0  0  0  0  0  0  0  0  0  0  0
   40.1920   33.3130   46.0900 C   0  0  0  0  0  0  0  0  0  0  0  0
   40.9190   32.4700   45.2270 C   0  0  0  0  0  0  0  0  0  0  0  0
   40.6050   31.0990   45.2600 C   0  0  0  0  0  0  0  0  0  0  0  0
   39.6310   30.6700   46.1130 N   0  0  0  0  0  0  0  0  0  0  0  0
   38.9690   31.5260   46.9160 C   0  0  0  0  0  0  0  0  0  0  0  0
   39.2470   32.8270   46.9020 N   0  0  0  0  0  0  0  0  0  0  0  0
   40.4510   34.3470   46.0420 H   0  0  0  0  0  0  0  0  0  0  0  0
   41.6900   32.7820   44.5470 H   0  0  0  0  0  0  0  0  0  0  0  0
   41.0810   30.3380   44.6560 H   0  0  0  0  0  0  0  0  0  0  0  0
   34.0510   29.8670   47.4210 S   0  0  0  0  0  0  0  0  0  0  0  0
   33.9800   28.9980   44.4020 Cl  0  0  0  0  0  0  0  0  0  0  0  0
   33.9030   27.8020   45.6900 C   0  0  0  0  0  0  0  0  0  0  0  0
   33.9280   28.1150   47.0490 C   0  0  0  0  0  0  0  0  0  0  0  0
   33.8600   27.0950   47.9820 C   0  0  0  0  0  0  0  0  0  0  0  0
   33.7680   25.7990   47.5820 C   0  0  0  0  0  0  0  0  0  0  0  0
   33.7400   25.4520   46.2440 C   0  0  0  0  0  0  0  0  0  0  0  0
   33.8070   26.4630   45.3290 C   0  0  0  0  0  0  0  0  0  0  0  0
   33.8890   27.4820   48.9980 H   0  0  0  0  0  0  0  0  0  0  0  0
   33.7190   25.0670   48.3780 H   0  0  0  0  0  0  0  0  0  0  0  0
   33.6670   24.4080   46.0490 H   0  0  0  0  0  0  0  0  0  0  0  0
   33.7810   26.1420   43.9070 C   0  0  0  0  0  0  0  0  0  0  0  0
   34.9100   25.8790   43.1670 C   0  0  0  0  0  0  0  0  0  0  0  0
   35.8880   25.9000   43.6240 H   0  0  0  0  0  0  0  0  0  0  0  0
   34.9200   25.5730   41.8230 C   0  0  0  0  0  0  0  0  0  0  0  0
   35.8260   25.3730   41.2770 H   0  0  0  0  0  0  0  0  0  0  0  0
   33.7170   25.5220   41.1490 C   0  0  0  0  0  3  0  0  0  0  0  0
   32.6080   25.7910   41.9240 C   0  0  0  0  0  3  0  0  0  0  0  0
   32.6450   26.0820   43.2210 N   0  0  0  0  0  0  0  0  0  0  0  0
  1  2  1  0  0  0  0
  2  3  2  0  0  0  0
  2  7  1  0  0  0  0
  3  4  1  0  0  0  0
  4  8  1  0  0  0  0
  4  5  2  0  0  0  0
  5  9  1  0  0  0  0
  6  5  1  0  0  0  0
  6 10  1  0  0  0  0
  7  6  2  0  0  0  0
 11 16  1  0  0  0  0
 12 13  1  0  0  0  0
 12 11  2  0  0  0  0
 13 14  2  0  0  0  0
 14 15  1  0  0  0  0
 15  3  1  0  0  0  0
 16 15  2  0  0  0  0
 17 11  1  0  0  0  0
 18 12  1  0  0  0  0
 19 13  1  0  0  0  0
 20  7  1  0  0  0  0
 21 22  1  0  0  0  0
 22 23  1  0  0  0  0
 23 20  1  0  0  0  0
 23 24  2  0  0  0  0
 24 28  1  0  0  0  0
 25 24  1  0  0  0  0
 25 29  1  0  0  0  0
 26 25  2  0  0  0  0
 27 22  2  0  0  0  0
 27 26  1  0  0  0  0
 30 26  1  0  0  0  0
 31 27  1  0  0  0  0
 32 33  1  0  0  0  0
 32 31  2  0  0  0  0
 34 32  1  0  0  0  0
 35 34  1  0  0  0  0
 36 34  2  0  0  0  0
 36 37  1  0  0  0  0
 37 38  2  0  0  0  0
 38 31  1  0  0  0  0
M  END
>  <minimizedAffinity>
-5.66612959

>  <minimizedRMSD>
0.6029405

$$$$
