
 OpenBabel03272508563D

 39 42  0  0  1  0  0  0  0  0999 V2000
   37.9590   31.6150   45.2950 C   0  0  0  0  0  0  0  0  0  0  0  0
   36.9160   30.9360   45.4590 O   0  0  0  0  0  0  0  0  0  0  0  0
   38.4350   32.5070   46.3390 N   0  0  0  0  0  0  0  0  0  0  0  0
   39.1480   33.2260   46.1740 H   0  0  0  0  0  0  0  0  0  0  0  0
   38.7350   31.5320   44.0470 C   0  0  0  0  0  0  0  0  0  0  0  0
   39.7930   30.6710   43.9850 C   0  0  0  0  0  0  0  0  0  0  0  0
   40.5140   30.6030   42.8040 C   0  0  0  0  0  0  0  0  0  0  0  0
   40.1140   31.4140   41.7600 C   0  0  0  0  0  0  0  0  0  0  0  0
   39.0380   32.2910   41.8220 C   0  0  0  0  0  0  0  0  0  0  0  0
   38.3850   32.3060   42.9950 N   0  0  0  0  0  0  0  0  0  0  0  0
   40.1040   30.0320   44.8160 H   0  0  0  0  0  0  0  0  0  0  0  0
   41.3480   29.9300   42.7420 H   0  0  0  0  0  0  0  0  0  0  0  0
   40.7120   31.3160   40.8730 H   0  0  0  0  0  0  0  0  0  0  0  0
   38.6710   33.1180   40.6810 C   0  0  0  0  0  0  0  0  0  0  0  0
   38.3490   34.3110   40.8700 O   0  0  0  0  0  0  0  0  0  0  0  0
   38.6630   32.6120   39.3140 C   0  0  0  0  0  0  0  0  0  0  0  0
   37.6360   31.7660   38.9490 C   0  0  0  0  0  0  0  0  0  0  0  0
   36.8610   31.4800   39.6390 H   0  0  0  0  0  0  0  0  0  0  0  0
   37.5670   31.2490   37.6650 C   0  0  0  0  0  0  0  0  0  0  0  0
   36.7710   30.5750   37.3370 H   0  0  0  0  0  0  0  0  0  0  0  0
   38.5690   31.6230   36.7940 C   0  0  0  0  0  0  0  0  0  0  0  0
   39.6060   32.4670   37.1330 C   0  0  0  0  0  0  0  0  0  0  0  0
   39.6080   32.9370   38.4120 N   0  0  0  0  0  0  0  0  0  0  0  0
   38.4730   31.4730   48.5960 C   0  0  2  0  0  0  0  0  0  0  0  0
   38.7660   32.9190   48.7780 C   0  0  0  0  0  0  0  0  0  0  0  0
   37.8630   32.3510   47.6530 C   0  0  1  0  0  0  0  0  0  0  0  0
   39.3510   30.8520   48.3220 H   0  0  0  0  0  0  0  0  0  0  0  0
   38.2790   33.4720   49.6010 H   0  0  0  0  0  0  0  0  0  0  0  0
   39.7570   33.2860   48.5040 H   0  0  0  0  0  0  0  0  0  0  0  0
   36.7940   32.6400   47.7860 H   0  0  0  0  0  0  0  0  0  0  0  0
   35.6420   29.5450   50.0500 C   0  0  0  0  0  0  0  0  0  0  0  0
   36.0660   29.3970   51.4080 C   0  0  0  0  0  0  0  0  0  0  0  0
   37.3310   29.9820   51.8020 C   0  0  0  0  0  0  0  0  0  0  0  0
   38.0830   30.6580   50.8700 N   0  0  0  0  0  0  0  0  0  0  0  0
   37.6010   30.7480   49.5980 C   0  0  0  0  0  0  0  0  0  0  0  0
   36.3980   30.2120   49.1520 N   0  0  0  0  0  0  0  0  0  0  0  0
   34.7160   29.1170   49.7600 H   0  0  0  0  0  0  0  0  0  0  0  0
   35.4810   28.8730   52.1290 H   0  0  0  0  0  0  0  0  0  0  0  0
   37.6420   29.8670   52.8240 H   0  0  0  0  0  0  0  0  0  0  0  0
  1  2  2  0  0  0  0
  1  3  1  0  0  0  0
  3 26  1  0  0  0  0
  4  3  1  0  0  0  0
  5  1  1  0  0  0  0
  6  5  1  0  0  0  0
  6 11  1  0  0  0  0
  7  6  2  0  0  0  0
  8  9  2  0  0  0  0
  8  7  1  0  0  0  0
  9 10  1  0  0  0  0
 10  5  2  0  0  0  0
 12  7  1  0  0  0  0
 13  8  1  0  0  0  0
 14 15  2  0  0  0  0
 14  9  1  0  0  0  0
 16 14  1  0  0  0  0
 17 16  1  0  0  0  0
 17 18  1  0  0  0  0
 19 17  2  0  0  0  0
 20 19  1  0  0  0  0
 21 22  2  0  0  0  0
 21 19  1  0  0  0  0
 22 23  1  0  0  0  0
 23 16  2  0  0  0  0
 24 27  1  6  0  0  0
 24 25  1  0  0  0  0
 24 35  1  0  0  0  0
 25 28  1  0  0  0  0
 26 30  1  1  0  0  0
 26 24  1  0  0  0  0
 26 25  1  0  0  0  0
 29 25  1  0  0  0  0
 31 32  1  0  0  0  0
 32 33  2  0  0  0  0
 32 38  1  0  0  0  0
 33 39  1  0  0  0  0
 34 33  1  0  0  0  0
 35 34  2  0  0  0  0
 36 35  1  0  0  0  0
 36 31  2  0  0  0  0
 37 31  1  0  0  0  0
M  END
>  <minimizedAffinity>
-5.43272448

>  <minimizedRMSD>
1.33376157

$$$$
