
 OpenBabel03272508563D

 39 42  0  0  1  0  0  0  0  0999 V2000
   38.4200   31.8150   44.5760 C   0  0  0  0  0  0  0  0  0  0  0  0
   37.3530   32.4630   44.4370 O   0  0  0  0  0  0  0  0  0  0  0  0
   38.9100   31.4670   45.8990 N   0  0  0  0  0  0  0  0  0  0  0  0
   39.8640   31.1310   46.0670 H   0  0  0  0  0  0  0  0  0  0  0  0
   39.2090   31.3870   43.4090 C   0  0  0  0  0  0  0  0  0  0  0  0
   40.2000   30.4640   43.5880 C   0  0  0  0  0  0  0  0  0  0  0  0
   40.9340   30.0690   42.4820 C   0  0  0  0  0  0  0  0  0  0  0  0
   40.6140   30.6360   41.2630 C   0  0  0  0  0  0  0  0  0  0  0  0
   39.6060   31.5760   41.0810 C   0  0  0  0  0  0  0  0  0  0  0  0
   38.9360   31.9130   42.1940 N   0  0  0  0  0  0  0  0  0  0  0  0
   40.4470   30.0190   44.5560 H   0  0  0  0  0  0  0  0  0  0  0  0
   41.7150   29.3450   42.6080 H   0  0  0  0  0  0  0  0  0  0  0  0
   41.2180   30.2900   40.4450 H   0  0  0  0  0  0  0  0  0  0  0  0
   39.3230   32.1330   39.7660 C   0  0  0  0  0  0  0  0  0  0  0  0
   38.8090   33.2700   39.6810 O   0  0  0  0  0  0  0  0  0  0  0  0
   39.6160   31.4180   38.5290 C   0  0  0  0  0  0  0  0  0  0  0  0
   40.6710   31.8680   37.7620 C   0  0  0  0  0  0  0  0  0  0  0  0
   41.2650   32.7160   38.0530 H   0  0  0  0  0  0  0  0  0  0  0  0
   41.0040   31.2350   36.5750 C   0  0  0  0  0  0  0  0  0  0  0  0
   41.8300   31.5610   35.9400 H   0  0  0  0  0  0  0  0  0  0  0  0
   40.2310   30.1490   36.2160 C   0  0  0  0  0  3  0  0  0  0  0  0
   39.1710   29.6800   36.9660 C   0  0  0  0  0  3  0  0  0  0  0  0
   38.9030   30.3520   38.1190 N   0  0  0  0  0  0  0  0  0  0  0  0
   38.2550   30.9500   48.2380 C   0  0  2  0  0  0  0  0  0  0  0  0
   38.5970   32.3960   48.1940 C   0  0  0  0  0  0  0  0  0  0  0  0
   37.9920   31.6100   47.0010 C   0  0  1  0  0  0  0  0  0  0  0  0
   39.1260   30.2710   48.3550 H   0  0  0  0  0  0  0  0  0  0  0  0
   37.9470   33.1220   48.7150 H   0  0  0  0  0  0  0  0  0  0  0  0
   39.6490   32.6790   48.1400 H   0  0  0  0  0  0  0  0  0  0  0  0
   36.9520   31.9360   46.7660 H   0  0  0  0  0  0  0  0  0  0  0  0
   34.7860   30.1290   49.3010 C   0  0  0  0  0  0  0  0  0  0  0  0
   35.0110   29.5600   50.5940 C   0  0  0  0  0  0  0  0  0  0  0  0
   36.3720   29.4800   51.0830 C   0  0  0  0  0  0  0  0  0  0  0  0
   37.4010   29.9480   50.3000 N   0  0  0  0  0  0  0  0  0  0  0  0
   37.0920   30.4740   49.0810 C   0  0  0  0  0  0  0  0  0  0  0  0
   35.8120   30.5820   48.5500 N   0  0  0  0  0  0  0  0  0  0  0  0
   33.7900   30.1890   48.9410 H   0  0  0  0  0  0  0  0  0  0  0  0
   34.2120   29.1980   51.2000 H   0  0  0  0  0  0  0  0  0  0  0  0
   36.5320   29.0530   52.0550 H   0  0  0  0  0  0  0  0  0  0  0  0
  1  3  1  0  0  0  0
  2  1  2  0  0  0  0
  3  4  1  0  0  0  0
  3 26  1  0  0  0  0
  5  6  1  0  0  0  0
  5  1  1  0  0  0  0
  6 11  1  0  0  0  0
  7 12  1  0  0  0  0
  7  6  2  0  0  0  0
  8  7  1  0  0  0  0
  9  8  2  0  0  0  0
  9 10  1  0  0  0  0
 10  5  2  0  0  0  0
 13  8  1  0  0  0  0
 14  9  1  0  0  0  0
 15 14  2  0  0  0  0
 16 14  1  0  0  0  0
 17 18  1  0  0  0  0
 17 16  2  0  0  0  0
 19 17  1  0  0  0  0
 20 19  1  0  0  0  0
 21 19  2  0  0  0  0
 21 22  1  0  0  0  0
 22 23  2  0  0  0  0
 23 16  1  0  0  0  0
 24 27  1  6  0  0  0
 24 35  1  0  0  0  0
 25 24  1  0  0  0  0
 25 28  1  0  0  0  0
 26 30  1  6  0  0  0
 26 25  1  0  0  0  0
 26 24  1  0  0  0  0
 29 25  1  0  0  0  0
 31 32  1  0  0  0  0
 32 33  2  0  0  0  0
 32 38  1  0  0  0  0
 33 39  1  0  0  0  0
 34 33  1  0  0  0  0
 35 34  2  0  0  0  0
 36 35  1  0  0  0  0
 36 31  2  0  0  0  0
 37 31  1  0  0  0  0
M  END
>  <minimizedAffinity>
-4.94802332

>  <minimizedRMSD>
0.649552226

$$$$
