
 OpenBabel03272508593D

 39 42  0  0  1  0  0  0  0  0999 V2000
   35.9460   24.7460   31.3280 C   0  0  0  0  0  0  0  0  0  0  0  0
   34.8550   24.9180   30.7310 O   0  0  0  0  0  0  0  0  0  0  0  0
   36.9260   25.8170   31.4060 N   0  0  0  0  0  0  0  0  0  0  0  0
   37.8980   25.6610   31.6920 H   0  0  0  0  0  0  0  0  0  0  0  0
   36.2720   23.4610   31.9670 C   0  0  0  0  0  0  0  0  0  0  0  0
   35.4660   22.3840   31.7270 C   0  0  0  0  0  0  0  0  0  0  0  0
   35.7850   21.1810   32.3350 C   0  0  0  0  0  0  0  0  0  0  0  0
   36.9020   21.1470   33.1460 C   0  0  0  0  0  0  0  0  0  0  0  0
   37.7210   22.2420   33.3910 C   0  0  0  0  0  0  0  0  0  0  0  0
   37.3540   23.3750   32.7720 N   0  0  0  0  0  0  0  0  0  0  0  0
   34.5830   22.4180   31.0830 H   0  0  0  0  0  0  0  0  0  0  0  0
   35.1600   20.3270   32.1550 H   0  0  0  0  0  0  0  0  0  0  0  0
   37.0960   20.1870   33.5880 H   0  0  0  0  0  0  0  0  0  0  0  0
   38.8850   22.1350   34.2600 C   0  0  0  0  0  0  0  0  0  0  0  0
   39.9570   21.6920   33.7930 O   0  0  0  0  0  0  0  0  0  0  0  0
   38.8570   22.5240   35.6650 C   0  0  0  0  0  0  0  0  0  0  0  0
   40.0140   22.3610   36.3990 C   0  0  0  0  0  0  0  0  0  0  0  0
   40.9130   21.9620   35.9630 H   0  0  0  0  0  0  0  0  0  0  0  0
   40.0570   22.7110   37.7390 C   0  0  0  0  0  0  0  0  0  0  0  0
   40.9520   22.5970   38.3540 H   0  0  0  0  0  0  0  0  0  0  0  0
   38.8950   23.2190   38.2820 C   0  0  0  0  0  3  0  0  0  0  0  0
   37.7260   23.3920   37.5700 C   0  0  0  0  0  3  0  0  0  0  0  0
   37.7590   23.0270   36.2580 N   0  0  0  0  0  0  0  0  0  0  0  0
   36.4390   28.1630   32.0580 C   0  0  2  0  0  0  0  0  0  0  0  0
   37.6130   28.2020   31.1460 C   0  0  0  0  0  0  0  0  0  0  0  0
   36.4820   27.1450   31.0610 C   0  0  1  0  0  0  0  0  0  0  0  0
   36.6820   27.9430   33.1180 H   0  0  0  0  0  0  0  0  0  0  0  0
   37.6600   28.9720   30.3560 H   0  0  0  0  0  0  0  0  0  0  0  0
   38.5830   27.8850   31.5350 H   0  0  0  0  0  0  0  0  0  0  0  0
   35.8690   27.2580   30.1360 H   0  0  0  0  0  0  0  0  0  0  0  0
   34.6700   31.2870   31.0800 C   0  0  0  0  0  0  0  0  0  0  0  0
   33.4290   31.1400   31.7730 C   0  0  0  0  0  0  0  0  0  0  0  0
   33.2280   29.9570   32.5830 C   0  0  0  0  0  0  0  0  0  0  0  0
   34.2260   29.0150   32.6630 N   0  0  0  0  0  0  0  0  0  0  0  0
   35.3770   29.2380   31.9670 C   0  0  0  0  0  0  0  0  0  0  0  0
   35.6370   30.3490   31.1730 N   0  0  0  0  0  0  0  0  0  0  0  0
   34.8190   32.1540   30.4870 H   0  0  0  0  0  0  0  0  0  0  0  0
   32.6550   31.8720   31.7100 H   0  0  0  0  0  0  0  0  0  0  0  0
   32.2920   29.8540   33.1010 H   0  0  0  0  0  0  0  0  0  0  0  0
  1  3  1  0  0  0  0
  1  5  1  0  0  0  0
  2  1  2  0  0  0  0
  3  4  1  0  0  0  0
  5 10  1  0  0  0  0
  6  5  2  0  0  0  0
  6  7  1  0  0  0  0
  7  8  2  0  0  0  0
  8  9  1  0  0  0  0
  8 13  1  0  0  0  0
  9 14  1  0  0  0  0
 10  9  2  0  0  0  0
 11  6  1  0  0  0  0
 12  7  1  0  0  0  0
 14 16  1  0  0  0  0
 15 14  2  0  0  0  0
 16 23  2  0  0  0  0
 16 17  1  0  0  0  0
 17 19  2  0  0  0  0
 18 17  1  0  0  0  0
 19 21  1  0  0  0  0
 19 20  1  0  0  0  0
 22 21  2  0  0  0  0
 23 22  1  0  0  0  0
 24 27  1  1  0  0  0
 25 29  1  0  0  0  0
 25 24  1  0  0  0  0
 26 30  1  6  0  0  0
 26 25  1  0  0  0  0
 26  3  1  0  0  0  0
 26 24  1  0  0  0  0
 28 25  1  0  0  0  0
 31 36  2  0  0  0  0
 31 32  1  0  0  0  0
 32 33  2  0  0  0  0
 33 34  1  0  0  0  0
 33 39  1  0  0  0  0
 35 24  1  0  0  0  0
 35 34  2  0  0  0  0
 36 35  1  0  0  0  0
 37 31  1  0  0  0  0
 38 32  1  0  0  0  0
M  END
>  <minimizedAffinity>
-6.00541019

$$$$

 OpenBabel03272508593D

 39 42  0  0  1  0  0  0  0  0999 V2000
   38.1830   26.9150   32.4840 C   0  0  0  0  0  0  0  0  0  0  0  0
   39.4190   27.1400   32.4790 O   0  0  0  0  0  0  0  0  0  0  0  0
   37.6690   25.6090   32.8630 N   0  0  0  0  0  0  0  0  0  0  0  0
   36.7020   25.3190   32.6830 H   0  0  0  0  0  0  0  0  0  0  0  0
   37.2150   27.9590   32.1100 C   0  0  0  0  0  0  0  0  0  0  0  0
   37.3650   28.5960   30.9110 C   0  0  0  0  0  0  0  0  0  0  0  0
   36.4470   29.5760   30.5710 C   0  0  0  0  0  0  0  0  0  0  0  0
   35.4340   29.8460   31.4700 C   0  0  0  0  0  0  0  0  0  0  0  0
   35.2810   29.1990   32.6910 C   0  0  0  0  0  0  0  0  0  0  0  0
   36.2050   28.2620   32.9560 N   0  0  0  0  0  0  0  0  0  0  0  0
   38.1700   28.3760   30.2040 H   0  0  0  0  0  0  0  0  0  0  0  0
   36.5540   30.0840   29.6320 H   0  0  0  0  0  0  0  0  0  0  0  0
   34.7550   30.6150   31.1500 H   0  0  0  0  0  0  0  0  0  0  0  0
   34.1880   29.5350   33.5910 C   0  0  0  0  0  0  0  0  0  0  0  0
   33.0490   29.0680   33.3700 O   0  0  0  0  0  0  0  0  0  0  0  0
   34.3620   30.4010   34.7510 C   0  0  0  0  0  0  0  0  0  0  0  0
   35.6200   30.9200   34.9810 C   0  0  0  0  0  0  0  0  0  0  0  0
   36.4530   30.7020   34.3350 H   0  0  0  0  0  0  0  0  0  0  0  0
   35.8550   31.7510   36.0650 C   0  0  0  0  0  0  0  0  0  0  0  0
   36.8360   32.1810   36.2810 H   0  0  0  0  0  0  0  0  0  0  0  0
   34.7780   32.0190   36.8830 C   0  0  0  0  0  3  0  0  0  0  0  0
   33.5110   31.5130   36.6760 C   0  0  0  0  0  3  0  0  0  0  0  0
   33.3550   30.7050   35.5900 N   0  0  0  0  0  0  0  0  0  0  0  0
   38.0760   23.6690   34.3580 C   0  0  2  0  0  0  0  0  0  0  0  0
   38.4790   23.2520   32.9890 C   0  0  0  0  0  0  0  0  0  0  0  0
   38.5810   24.7060   33.5200 C   0  0  1  0  0  0  0  0  0  0  0  0
   36.9910   23.5760   34.5710 H   0  0  0  0  0  0  0  0  0  0  0  0
   39.4180   22.6880   32.8480 H   0  0  0  0  0  0  0  0  0  0  0  0
   37.6950   23.0250   32.2640 H   0  0  0  0  0  0  0  0  0  0  0  0
   39.6390   25.0380   33.6360 H   0  0  0  0  0  0  0  0  0  0  0  0
   40.8200   22.1890   36.3900 C   0  0  0  0  0  0  0  0  0  0  0  0
   40.3790   22.4800   37.7190 C   0  0  0  0  0  0  0  0  0  0  0  0
   39.1230   23.1810   37.8900 C   0  0  0  0  0  0  0  0  0  0  0  0
   38.3950   23.5440   36.7810 N   0  0  0  0  0  0  0  0  0  0  0  0
   38.8930   23.2250   35.5530 C   0  0  0  0  0  0  0  0  0  0  0  0
   40.0880   22.5550   35.3160 N   0  0  0  0  0  0  0  0  0  0  0  0
   41.7390   21.6750   36.2630 H   0  0  0  0  0  0  0  0  0  0  0  0
   40.9450   22.1980   38.5770 H   0  0  0  0  0  0  0  0  0  0  0  0
   38.7990   23.3960   38.8910 H   0  0  0  0  0  0  0  0  0  0  0  0
  1  3  1  0  0  0  0
  2  1  2  0  0  0  0
  3 26  1  0  0  0  0
  4  3  1  0  0  0  0
  5  1  1  0  0  0  0
  5 10  1  0  0  0  0
  6  5  2  0  0  0  0
  7  6  1  0  0  0  0
  7  8  2  0  0  0  0
  8  9  1  0  0  0  0
  9 10  2  0  0  0  0
  9 14  1  0  0  0  0
 11  6  1  0  0  0  0
 12  7  1  0  0  0  0
 13  8  1  0  0  0  0
 14 16  1  0  0  0  0
 15 14  2  0  0  0  0
 16 17  2  0  0  0  0
 16 23  1  0  0  0  0
 17 19  1  0  0  0  0
 18 17  1  0  0  0  0
 19 20  1  0  0  0  0
 19 21  2  0  0  0  0
 22 21  1  0  0  0  0
 23 22  2  0  0  0  0
 24 27  1  1  0  0  0
 24 35  1  0  0  0  0
 25 26  1  0  0  0  0
 25 24  1  0  0  0  0
 26 30  1  1  0  0  0
 26 24  1  0  0  0  0
 28 25  1  0  0  0  0
 29 25  1  0  0  0  0
 31 32  1  0  0  0  0
 32 33  2  0  0  0  0
 32 38  1  0  0  0  0
 33 39  1  0  0  0  0
 34 33  1  0  0  0  0
 35 34  2  0  0  0  0
 36 35  1  0  0  0  0
 36 31  2  0  0  0  0
 37 31  1  0  0  0  0
M  END
>  <minimizedAffinity>
-5.91678572

$$$$

 OpenBabel03272508593D

 39 42  0  0  1  0  0  0  0  0999 V2000
   36.9030   26.2890   32.4700 C   0  0  0  0  0  0  0  0  0  0  0  0
   37.1800   26.0830   33.6770 O   0  0  0  0  0  0  0  0  0  0  0  0
   37.0280   25.2230   31.4890 N   0  0  0  0  0  0  0  0  0  0  0  0
   37.0180   25.3950   30.4770 H   0  0  0  0  0  0  0  0  0  0  0  0
   36.4420   27.6080   32.0060 C   0  0  0  0  0  0  0  0  0  0  0  0
   36.9750   28.1250   30.8600 C   0  0  0  0  0  0  0  0  0  0  0  0
   36.5320   29.3670   30.4350 C   0  0  0  0  0  0  0  0  0  0  0  0
   35.5760   30.0040   31.2000 C   0  0  0  0  0  0  0  0  0  0  0  0
   35.0340   29.4780   32.3670 C   0  0  0  0  0  0  0  0  0  0  0  0
   35.5080   28.2740   32.7210 N   0  0  0  0  0  0  0  0  0  0  0  0
   37.7330   27.6140   30.2580 H   0  0  0  0  0  0  0  0  0  0  0  0
   36.9430   29.7850   29.5360 H   0  0  0  0  0  0  0  0  0  0  0  0
   35.2740   30.9620   30.8190 H   0  0  0  0  0  0  0  0  0  0  0  0
   34.0270   30.2070   33.1260 C   0  0  0  0  0  0  0  0  0  0  0  0
   32.8770   30.3330   32.6510 O   0  0  0  0  0  0  0  0  0  0  0  0
   34.3010   30.8020   34.4280 C   0  0  0  0  0  0  0  0  0  0  0  0
   35.5930   31.2140   34.6860 C   0  0  0  0  0  0  0  0  0  0  0  0
   36.3810   31.1050   33.9600 H   0  0  0  0  0  0  0  0  0  0  0  0
   35.9230   31.7880   35.9030 C   0  0  0  0  0  0  0  0  0  0  0  0
   36.9330   32.1260   36.1460 H   0  0  0  0  0  0  0  0  0  0  0  0
   34.9020   31.9180   36.8210 C   0  0  0  0  0  3  0  0  0  0  0  0
   33.6030   31.5160   36.5880 C   0  0  0  0  0  3  0  0  0  0  0  0
   33.3530   30.9610   35.3700 N   0  0  0  0  0  0  0  0  0  0  0  0
   36.9040   22.7690   31.1340 C   0  0  2  0  0  0  0  0  0  0  0  0
   38.3400   23.1070   31.3210 C   0  0  0  0  0  0  0  0  0  0  0  0
   37.1710   23.8790   31.9880 C   0  0  1  0  0  0  0  0  0  0  0  0
   36.5240   22.9140   30.1020 H   0  0  0  0  0  0  0  0  0  0  0  0
   38.9680   22.4660   31.9650 H   0  0  0  0  0  0  0  0  0  0  0  0
   38.8700   23.5910   30.4990 H   0  0  0  0  0  0  0  0  0  0  0  0
   37.1500   23.7360   33.0940 H   0  0  0  0  0  0  0  0  0  0  0  0
   35.6950   19.2640   31.4500 C   0  0  0  0  0  0  0  0  0  0  0  0
   35.3830   19.1950   32.8440 C   0  0  0  0  0  0  0  0  0  0  0  0
   35.5880   20.3770   33.6550 C   0  0  0  0  0  0  0  0  0  0  0  0
   36.0730   21.5230   33.0700 N   0  0  0  0  0  0  0  0  0  0  0  0
   36.3440   21.4970   31.7340 C   0  0  0  0  0  0  0  0  0  0  0  0
   36.1710   20.4000   30.8970 N   0  0  0  0  0  0  0  0  0  0  0  0
   35.5450   18.3990   30.8540 H   0  0  0  0  0  0  0  0  0  0  0  0
   35.0070   18.3060   33.2960 H   0  0  0  0  0  0  0  0  0  0  0  0
   35.3510   20.3170   34.7010 H   0  0  0  0  0  0  0  0  0  0  0  0
  1  2  2  0  0  0  0
  3 26  1  0  0  0  0
  3  1  1  0  0  0  0
  4  3  1  0  0  0  0
  5  1  1  0  0  0  0
  5 10  1  0  0  0  0
  6  5  2  0  0  0  0
  7  6  1  0  0  0  0
  7  8  2  0  0  0  0
  8  9  1  0  0  0  0
  9 10  2  0  0  0  0
  9 14  1  0  0  0  0
 11  6  1  0  0  0  0
 12  7  1  0  0  0  0
 13  8  1  0  0  0  0
 14 16  1  0  0  0  0
 15 14  2  0  0  0  0
 16 17  2  0  0  0  0
 16 23  1  0  0  0  0
 17 19  1  0  0  0  0
 18 17  1  0  0  0  0
 19 20  1  0  0  0  0
 19 21  2  0  0  0  0
 22 21  1  0  0  0  0
 23 22  2  0  0  0  0
 24 27  1  6  0  0  0
 24 25  1  0  0  0  0
 24 35  1  0  0  0  0
 24 26  1  0  0  0  0
 25 28  1  0  0  0  0
 25 26  1  0  0  0  0
 26 30  1  1  0  0  0
 29 25  1  0  0  0  0
 31 32  1  0  0  0  0
 32 38  1  0  0  0  0
 32 33  2  0  0  0  0
 33 39  1  0  0  0  0
 34 33  1  0  0  0  0
 35 34  2  0  0  0  0
 36 31  2  0  0  0  0
 36 35  1  0  0  0  0
 37 31  1  0  0  0  0
M  END
>  <minimizedAffinity>
-5.8031683

$$$$

 OpenBabel03272508593D

 39 42  0  0  1  0  0  0  0  0999 V2000
   36.6430   24.2450   31.4230 C   0  0  0  0  0  0  0  0  0  0  0  0
   37.3660   24.0490   30.4140 O   0  0  0  0  0  0  0  0  0  0  0  0
   35.6370   23.2710   31.8130 N   0  0  0  0  0  0  0  0  0  0  0  0
   34.8950   23.4800   32.4900 H   0  0  0  0  0  0  0  0  0  0  0  0
   36.7880   25.4590   32.2420 C   0  0  0  0  0  0  0  0  0  0  0  0
   36.3040   26.6410   31.7580 C   0  0  0  0  0  0  0  0  0  0  0  0
   36.4460   27.7750   32.5390 C   0  0  0  0  0  0  0  0  0  0  0  0
   37.0700   27.6380   33.7630 C   0  0  0  0  0  0  0  0  0  0  0  0
   37.5640   26.4360   34.2560 C   0  0  0  0  0  0  0  0  0  0  0  0
   37.3940   25.3780   33.4480 N   0  0  0  0  0  0  0  0  0  0  0  0
   35.8090   26.7420   30.7870 H   0  0  0  0  0  0  0  0  0  0  0  0
   36.0690   28.7100   32.1710 H   0  0  0  0  0  0  0  0  0  0  0  0
   37.1510   28.5530   34.3220 H   0  0  0  0  0  0  0  0  0  0  0  0
   38.2130   26.3640   35.5570 C   0  0  0  0  0  0  0  0  0  0  0  0
   38.3640   27.4120   36.2240 O   0  0  0  0  0  0  0  0  0  0  0  0
   38.7010   25.1130   36.1250 C   0  0  0  0  0  0  0  0  0  0  0  0
   38.0390   24.6070   37.2250 C   0  0  0  0  0  0  0  0  0  0  0  0
   37.1910   25.1080   37.6600 H   0  0  0  0  0  0  0  0  0  0  0  0
   38.4490   23.4220   37.8150 C   0  0  0  0  0  0  0  0  0  0  0  0
   37.9530   22.9890   38.6870 H   0  0  0  0  0  0  0  0  0  0  0  0
   39.5380   22.7940   37.2470 C   0  0  0  0  0  3  0  0  0  0  0  0
   40.2160   23.2780   36.1470 C   0  0  0  0  0  3  0  0  0  0  0  0
   39.7560   24.4470   35.6210 N   0  0  0  0  0  0  0  0  0  0  0  0
   36.6110   20.9890   31.7290 C   0  0  2  0  0  0  0  0  0  0  0  0
   35.1890   20.8370   32.1360 C   0  0  0  0  0  0  0  0  0  0  0  0
   35.7120   21.9650   31.2080 C   0  0  1  0  0  0  0  0  0  0  0  0
   37.3080   21.2310   32.5590 H   0  0  0  0  0  0  0  0  0  0  0  0
   34.5780   20.0380   31.6820 H   0  0  0  0  0  0  0  0  0  0  0  0
   34.9110   21.1020   33.1580 H   0  0  0  0  0  0  0  0  0  0  0  0
   35.3350   21.8590   30.1640 H   0  0  0  0  0  0  0  0  0  0  0  0
   39.0550   18.6150   30.2330 C   0  0  0  0  0  0  0  0  0  0  0  0
   38.3280   18.1350   29.1000 C   0  0  0  0  0  0  0  0  0  0  0  0
   36.9960   18.6540   28.8650 C   0  0  0  0  0  0  0  0  0  0  0  0
   36.4720   19.5850   29.7300 N   0  0  0  0  0  0  0  0  0  0  0  0
   37.2370   19.9850   30.7850 C   0  0  0  0  0  0  0  0  0  0  0  0
   38.5200   19.5300   31.0690 N   0  0  0  0  0  0  0  0  0  0  0  0
   40.0310   18.2360   30.4060 H   0  0  0  0  0  0  0  0  0  0  0  0
   38.7370   17.4120   28.4300 H   0  0  0  0  0  0  0  0  0  0  0  0
   36.4570   18.2880   28.0110 H   0  0  0  0  0  0  0  0  0  0  0  0
  1  3  1  0  0  0  0
  1  5  1  0  0  0  0
  2  1  2  0  0  0  0
  3  4  1  0  0  0  0
  5 10  1  0  0  0  0
  6  5  2  0  0  0  0
  6  7  1  0  0  0  0
  7  8  2  0  0  0  0
  8  9  1  0  0  0  0
  8 13  1  0  0  0  0
  9 14  1  0  0  0  0
 10  9  2  0  0  0  0
 11  6  1  0  0  0  0
 12  7  1  0  0  0  0
 14 16  1  0  0  0  0
 14 15  2  0  0  0  0
 16 17  1  0  0  0  0
 17 18  1  0  0  0  0
 17 19  2  0  0  0  0
 19 20  1  0  0  0  0
 21 19  1  0  0  0  0
 22 21  2  0  0  0  0
 23 16  2  0  0  0  0
 23 22  1  0  0  0  0
 24 25  1  0  0  0  0
 24 27  1  1  0  0  0
 25 29  1  0  0  0  0
 26 30  1  6  0  0  0
 26 24  1  0  0  0  0
 26  3  1  0  0  0  0
 26 25  1  0  0  0  0
 28 25  1  0  0  0  0
 31 37  1  0  0  0  0
 31 36  1  0  0  0  0
 32 31  2  0  0  0  0
 33 32  1  0  0  0  0
 33 34  2  0  0  0  0
 34 35  1  0  0  0  0
 35 36  2  0  0  0  0
 35 24  1  0  0  0  0
 38 32  1  0  0  0  0
 39 33  1  0  0  0  0
M  END
>  <minimizedAffinity>
-5.75056839

$$$$

 OpenBabel03272508593D

 39 42  0  0  1  0  0  0  0  0999 V2000
   36.4610   27.5850   32.7710 C   0  0  0  0  0  0  0  0  0  0  0  0
   35.5530   27.5540   31.9040 O   0  0  0  0  0  0  0  0  0  0  0  0
   36.4930   28.6390   33.7720 N   0  0  0  0  0  0  0  0  0  0  0  0
   37.3150   28.8240   34.3570 H   0  0  0  0  0  0  0  0  0  0  0  0
   37.5180   26.5620   32.8070 C   0  0  0  0  0  0  0  0  0  0  0  0
   38.6260   26.7330   32.0280 C   0  0  0  0  0  0  0  0  0  0  0  0
   39.6140   25.7630   32.0720 C   0  0  0  0  0  0  0  0  0  0  0  0
   39.4140   24.6810   32.9060 C   0  0  0  0  0  0  0  0  0  0  0  0
   38.2860   24.5050   33.6990 C   0  0  0  0  0  0  0  0  0  0  0  0
   37.3700   25.4820   33.6060 N   0  0  0  0  0  0  0  0  0  0  0  0
   38.7780   27.5940   31.3700 H   0  0  0  0  0  0  0  0  0  0  0  0
   40.4900   25.8860   31.4640 H   0  0  0  0  0  0  0  0  0  0  0  0
   40.2140   23.9630   32.8960 H   0  0  0  0  0  0  0  0  0  0  0  0
   38.1400   23.3370   34.5560 C   0  0  0  0  0  0  0  0  0  0  0  0
   37.6940   22.2750   34.0700 O   0  0  0  0  0  0  0  0  0  0  0  0
   38.4950   23.3500   35.9700 C   0  0  0  0  0  0  0  0  0  0  0  0
   37.6750   24.0500   36.8310 C   0  0  0  0  0  0  0  0  0  0  0  0
   36.8010   24.5740   36.4840 H   0  0  0  0  0  0  0  0  0  0  0  0
   37.9540   24.1030   38.1870 C   0  0  0  0  0  0  0  0  0  0  0  0
   37.3300   24.6480   38.9010 H   0  0  0  0  0  0  0  0  0  0  0  0
   39.0780   23.4280   38.6140 C   0  0  0  0  0  3  0  0  0  0  0  0
   39.9140   22.7200   37.7740 C   0  0  0  0  0  3  0  0  0  0  0  0
   39.5770   22.7120   36.4540 N   0  0  0  0  0  0  0  0  0  0  0  0
   35.2800   30.5020   34.8770 C   0  0  2  0  0  0  0  0  0  0  0  0
   35.5010   30.9080   33.4650 C   0  0  0  0  0  0  0  0  0  0  0  0
   35.3050   29.4400   33.9260 C   0  0  1  0  0  0  0  0  0  0  0  0
   36.1390   30.6900   35.5540 H   0  0  0  0  0  0  0  0  0  0  0  0
   34.6790   31.3860   32.9030 H   0  0  0  0  0  0  0  0  0  0  0  0
   36.5030   31.2220   33.1660 H   0  0  0  0  0  0  0  0  0  0  0  0
   34.3430   29.0100   33.5610 H   0  0  0  0  0  0  0  0  0  0  0  0
   32.8200   32.1260   37.1490 C   0  0  0  0  0  0  0  0  0  0  0  0
   31.6040   31.4840   36.7570 C   0  0  0  0  0  0  0  0  0  0  0  0
   31.6590   30.4830   35.7120 C   0  0  0  0  0  0  0  0  0  0  0  0
   32.8670   30.1800   35.1290 N   0  0  0  0  0  0  0  0  0  0  0  0
   33.9750   30.8430   35.5650 C   0  0  0  0  0  0  0  0  0  0  0  0
   33.9950   31.8120   36.5620 N   0  0  0  0  0  0  0  0  0  0  0  0
   32.7820   32.8590   37.9140 H   0  0  0  0  0  0  0  0  0  0  0  0
   30.6680   31.7210   37.2110 H   0  0  0  0  0  0  0  0  0  0  0  0
   30.7410   30.0050   35.4240 H   0  0  0  0  0  0  0  0  0  0  0  0
  1  5  1  0  0  0  0
  1  3  1  0  0  0  0
  2  1  2  0  0  0  0
  3 26  1  0  0  0  0
  3  4  1  0  0  0  0
  5 10  1  0  0  0  0
  6  7  1  0  0  0  0
  6  5  2  0  0  0  0
  7  8  2  0  0  0  0
  8  9  1  0  0  0  0
  9 14  1  0  0  0  0
 10  9  2  0  0  0  0
 11  6  1  0  0  0  0
 12  7  1  0  0  0  0
 13  8  1  0  0  0  0
 14 16  1  0  0  0  0
 15 14  2  0  0  0  0
 16 23  2  0  0  0  0
 16 17  1  0  0  0  0
 17 19  2  0  0  0  0
 18 17  1  0  0  0  0
 19 21  1  0  0  0  0
 19 20  1  0  0  0  0
 22 21  2  0  0  0  0
 23 22  1  0  0  0  0
 24 27  1  1  0  0  0
 24 35  1  0  0  0  0
 25 26  1  0  0  0  0
 25 24  1  0  0  0  0
 26 30  1  6  0  0  0
 26 24  1  0  0  0  0
 28 25  1  0  0  0  0
 29 25  1  0  0  0  0
 31 37  1  0  0  0  0
 32 31  1  0  0  0  0
 32 38  1  0  0  0  0
 33 32  2  0  0  0  0
 34 35  2  0  0  0  0
 34 33  1  0  0  0  0
 35 36  1  0  0  0  0
 36 31  2  0  0  0  0
 39 33  1  0  0  0  0
M  END
>  <minimizedAffinity>
-5.73706198

$$$$

 OpenBabel03272508593D

 39 42  0  0  1  0  0  0  0  0999 V2000
   37.3140   25.7190   33.0260 C   0  0  0  0  0  0  0  0  0  0  0  0
   37.1690   24.6090   32.4560 O   0  0  0  0  0  0  0  0  0  0  0  0
   37.6560   25.7890   34.4370 N   0  0  0  0  0  0  0  0  0  0  0  0
   37.5780   26.6530   34.9850 H   0  0  0  0  0  0  0  0  0  0  0  0
   37.1430   26.9830   32.2900 C   0  0  0  0  0  0  0  0  0  0  0  0
   37.8430   27.1690   31.1320 C   0  0  0  0  0  0  0  0  0  0  0  0
   37.6720   28.3620   30.4490 C   0  0  0  0  0  0  0  0  0  0  0  0
   36.8020   29.2900   30.9850 C   0  0  0  0  0  0  0  0  0  0  0  0
   36.0900   29.1010   32.1650 C   0  0  0  0  0  0  0  0  0  0  0  0
   36.3030   27.9250   32.7740 N   0  0  0  0  0  0  0  0  0  0  0  0
   38.5300   26.4290   30.7120 H   0  0  0  0  0  0  0  0  0  0  0  0
   38.2150   28.5210   29.5370 H   0  0  0  0  0  0  0  0  0  0  0  0
   36.7120   30.1940   30.4110 H   0  0  0  0  0  0  0  0  0  0  0  0
   35.1880   30.1250   32.6730 C   0  0  0  0  0  0  0  0  0  0  0  0
   34.0050   30.1520   32.2680 O   0  0  0  0  0  0  0  0  0  0  0  0
   35.6050   31.1300   33.6430 C   0  0  0  0  0  0  0  0  0  0  0  0
   35.5670   30.7860   34.9790 C   0  0  0  0  0  0  0  0  0  0  0  0
   35.2420   29.8140   35.3080 H   0  0  0  0  0  0  0  0  0  0  0  0
   35.9490   31.6930   35.9540 C   0  0  0  0  0  0  0  0  0  0  0  0
   35.9330   31.4610   37.0220 H   0  0  0  0  0  0  0  0  0  0  0  0
   36.3620   32.9340   35.5160 C   0  0  0  0  0  3  0  0  0  0  0  0
   36.4100   33.3020   34.1870 C   0  0  0  0  0  3  0  0  0  0  0  0
   36.0190   32.3590   33.2850 N   0  0  0  0  0  0  0  0  0  0  0  0
   39.1570   24.6360   36.0440 C   0  0  2  0  0  0  0  0  0  0  0  0
   37.7740   24.5050   36.5730 C   0  0  0  0  0  0  0  0  0  0  0  0
   38.1230   24.5780   35.0640 C   0  0  1  0  0  0  0  0  0  0  0  0
   39.6610   25.5930   36.2950 H   0  0  0  0  0  0  0  0  0  0  0  0
   37.4380   23.5340   36.9780 H   0  0  0  0  0  0  0  0  0  0  0  0
   37.3100   25.3790   37.0350 H   0  0  0  0  0  0  0  0  0  0  0  0
   37.9210   23.6160   34.5380 H   0  0  0  0  0  0  0  0  0  0  0  0
   41.0440   21.7620   37.4660 C   0  0  0  0  0  0  0  0  0  0  0  0
   41.8340   21.3580   36.3450 C   0  0  0  0  0  0  0  0  0  0  0  0
   41.7060   22.1000   35.1080 C   0  0  0  0  0  0  0  0  0  0  0  0
   40.8370   23.1640   35.0450 N   0  0  0  0  0  0  0  0  0  0  0  0
   40.1240   23.4780   36.1640 C   0  0  0  0  0  0  0  0  0  0  0  0
   40.1970   22.8100   37.3810 N   0  0  0  0  0  0  0  0  0  0  0  0
   41.1370   21.2200   38.3730 H   0  0  0  0  0  0  0  0  0  0  0  0
   42.5070   20.5320   36.3960 H   0  0  0  0  0  0  0  0  0  0  0  0
   42.3030   21.7900   34.2710 H   0  0  0  0  0  0  0  0  0  0  0  0
  1  3  1  0  0  0  0
  2  1  2  0  0  0  0
  3  4  1  0  0  0  0
  3 26  1  0  0  0  0
  5 10  1  0  0  0  0
  5  1  1  0  0  0  0
  6  5  2  0  0  0  0
  7  8  2  0  0  0  0
  7  6  1  0  0  0  0
  8  9  1  0  0  0  0
  9 14  1  0  0  0  0
  9 10  2  0  0  0  0
 11  6  1  0  0  0  0
 12  7  1  0  0  0  0
 13  8  1  0  0  0  0
 14 16  1  0  0  0  0
 15 14  2  0  0  0  0
 16 17  1  0  0  0  0
 17 18  1  0  0  0  0
 17 19  2  0  0  0  0
 19 20  1  0  0  0  0
 21 19  1  0  0  0  0
 22 21  2  0  0  0  0
 23 16  2  0  0  0  0
 23 22  1  0  0  0  0
 24 35  1  0  0  0  0
 24 27  1  1  0  0  0
 24 25  1  0  0  0  0
 25 28  1  0  0  0  0
 25 29  1  0  0  0  0
 26 30  1  6  0  0  0
 26 24  1  0  0  0  0
 26 25  1  0  0  0  0
 31 37  1  0  0  0  0
 32 38  1  0  0  0  0
 32 31  2  0  0  0  0
 33 32  1  0  0  0  0
 34 33  2  0  0  0  0
 34 35  1  0  0  0  0
 35 36  2  0  0  0  0
 36 31  1  0  0  0  0
 39 33  1  0  0  0  0
M  END
>  <minimizedAffinity>
-5.63977194

$$$$

 OpenBabel03272508593D

 39 42  0  0  1  0  0  0  0  0999 V2000
   37.1680   27.1210   33.7300 C   0  0  0  0  0  0  0  0  0  0  0  0
   36.5500   26.8000   32.6850 O   0  0  0  0  0  0  0  0  0  0  0  0
   36.7870   28.3040   34.4830 N   0  0  0  0  0  0  0  0  0  0  0  0
   37.3830   28.7170   35.2090 H   0  0  0  0  0  0  0  0  0  0  0  0
   38.2950   26.3160   34.2270 C   0  0  0  0  0  0  0  0  0  0  0  0
   39.5300   26.8930   34.3120 C   0  0  0  0  0  0  0  0  0  0  0  0
   40.5810   26.1240   34.7830 C   0  0  0  0  0  0  0  0  0  0  0  0
   40.3120   24.8170   35.1380 C   0  0  0  0  0  0  0  0  0  0  0  0
   39.0550   24.2290   35.0520 C   0  0  0  0  0  0  0  0  0  0  0  0
   38.0840   25.0300   34.5880 N   0  0  0  0  0  0  0  0  0  0  0  0
   39.7360   27.9290   34.0280 H   0  0  0  0  0  0  0  0  0  0  0  0
   41.5570   26.5650   34.8540 H   0  0  0  0  0  0  0  0  0  0  0  0
   41.1670   24.2720   35.4950 H   0  0  0  0  0  0  0  0  0  0  0  0
   38.8430   22.8430   35.4450 C   0  0  0  0  0  0  0  0  0  0  0  0
   39.6450   22.3030   36.2390 O   0  0  0  0  0  0  0  0  0  0  0  0
   37.7270   22.0470   34.9490 C   0  0  0  0  0  0  0  0  0  0  0  0
   36.7970   21.6040   35.8670 C   0  0  0  0  0  0  0  0  0  0  0  0
   36.8790   21.8310   36.9160 H   0  0  0  0  0  0  0  0  0  0  0  0
   35.7110   20.8430   35.4640 C   0  0  0  0  0  0  0  0  0  0  0  0
   34.9530   20.4740   36.1600 H   0  0  0  0  0  0  0  0  0  0  0  0
   35.6210   20.5610   34.1170 C   0  0  0  0  0  3  0  0  0  0  0  0
   36.5370   20.9910   33.1790 C   0  0  0  0  0  3  0  0  0  0  0  0
   37.5770   21.7350   33.6480 N   0  0  0  0  0  0  0  0  0  0  0  0
   35.1590   30.1610   34.7390 C   0  0  2  0  0  0  0  0  0  0  0  0
   35.6350   30.1950   33.3310 C   0  0  0  0  0  0  0  0  0  0  0  0
   35.5100   28.9000   34.1760 C   0  0  1  0  0  0  0  0  0  0  0  0
   35.8230   30.6740   35.4660 H   0  0  0  0  0  0  0  0  0  0  0  0
   34.9060   30.3500   32.5160 H   0  0  0  0  0  0  0  0  0  0  0  0
   36.6360   30.5820   33.1310 H   0  0  0  0  0  0  0  0  0  0  0  0
   34.7060   28.2260   33.7970 H   0  0  0  0  0  0  0  0  0  0  0  0
   32.0640   31.9830   35.7140 C   0  0  0  0  0  0  0  0  0  0  0  0
   31.0730   30.9630   35.5580 C   0  0  0  0  0  0  0  0  0  0  0  0
   31.4990   29.6490   35.1250 C   0  0  0  0  0  0  0  0  0  0  0  0
   32.8310   29.4180   34.8770 N   0  0  0  0  0  0  0  0  0  0  0  0
   33.7060   30.4490   35.0510 C   0  0  0  0  0  0  0  0  0  0  0  0
   33.3670   31.7320   35.4650 N   0  0  0  0  0  0  0  0  0  0  0  0
   31.7540   32.9460   36.0320 H   0  0  0  0  0  0  0  0  0  0  0  0
   30.0400   31.1450   35.7510 H   0  0  0  0  0  0  0  0  0  0  0  0
   30.7480   28.8890   35.0110 H   0  0  0  0  0  0  0  0  0  0  0  0
  1  5  1  0  0  0  0
  1  3  1  0  0  0  0
  2  1  2  0  0  0  0
  3  4  1  0  0  0  0
  5  6  2  0  0  0  0
  5 10  1  0  0  0  0
  6  7  1  0  0  0  0
  7 12  1  0  0  0  0
  7  8  2  0  0  0  0
  8 13  1  0  0  0  0
  9  8  1  0  0  0  0
  9 14  1  0  0  0  0
 10  9  2  0  0  0  0
 11  6  1  0  0  0  0
 14 15  2  0  0  0  0
 16 14  1  0  0  0  0
 16 17  1  0  0  0  0
 17 18  1  0  0  0  0
 19 17  2  0  0  0  0
 19 20  1  0  0  0  0
 21 19  1  0  0  0  0
 22 23  1  0  0  0  0
 22 21  2  0  0  0  0
 23 16  2  0  0  0  0
 24 35  1  0  0  0  0
 24 27  1  1  0  0  0
 25 26  1  0  0  0  0
 25 24  1  0  0  0  0
 26 30  1  6  0  0  0
 26  3  1  0  0  0  0
 26 24  1  0  0  0  0
 28 25  1  0  0  0  0
 29 25  1  0  0  0  0
 31 37  1  0  0  0  0
 32 31  1  0  0  0  0
 32 38  1  0  0  0  0
 33 32  2  0  0  0  0
 34 35  2  0  0  0  0
 34 33  1  0  0  0  0
 35 36  1  0  0  0  0
 36 31  2  0  0  0  0
 39 33  1  0  0  0  0
M  END
>  <minimizedAffinity>
-5.54392195

$$$$

 OpenBabel03272508593D

 39 42  0  0  1  0  0  0  0  0999 V2000
   37.0050   26.8690   30.9660 C   0  0  0  0  0  0  0  0  0  0  0  0
   38.2530   26.7350   31.0240 O   0  0  0  0  0  0  0  0  0  0  0  0
   36.1470   25.7240   30.7080 N   0  0  0  0  0  0  0  0  0  0  0  0
   35.1600   25.8180   30.4460 H   0  0  0  0  0  0  0  0  0  0  0  0
   36.3700   28.1830   31.1560 C   0  0  0  0  0  0  0  0  0  0  0  0
   36.7000   29.2020   30.3090 C   0  0  0  0  0  0  0  0  0  0  0  0
   36.0940   30.4330   30.4990 C   0  0  0  0  0  0  0  0  0  0  0  0
   35.1900   30.5510   31.5370 C   0  0  0  0  0  0  0  0  0  0  0  0
   34.8540   29.5140   32.3990 C   0  0  0  0  0  0  0  0  0  0  0  0
   35.4790   28.3500   32.1590 N   0  0  0  0  0  0  0  0  0  0  0  0
   37.4170   29.1020   29.4890 H   0  0  0  0  0  0  0  0  0  0  0  0
   36.3440   31.2430   29.8410 H   0  0  0  0  0  0  0  0  0  0  0  0
   34.7540   31.5280   31.6330 H   0  0  0  0  0  0  0  0  0  0  0  0
   33.8920   29.7090   33.4740 C   0  0  0  0  0  0  0  0  0  0  0  0
   32.7580   29.1880   33.3810 O   0  0  0  0  0  0  0  0  0  0  0  0
   34.1920   30.4910   34.6670 C   0  0  0  0  0  0  0  0  0  0  0  0
   35.5130   30.8030   34.9140 C   0  0  0  0  0  0  0  0  0  0  0  0
   36.3060   30.4850   34.2570 H   0  0  0  0  0  0  0  0  0  0  0  0
   35.8700   31.5440   36.0290 C   0  0  0  0  0  0  0  0  0  0  0  0
   36.9040   31.8100   36.2600 H   0  0  0  0  0  0  0  0  0  0  0  0
   34.8430   31.9410   36.8600 C   0  0  0  0  0  3  0  0  0  0  0  0
   33.5150   31.6440   36.6360 C   0  0  0  0  0  3  0  0  0  0  0  0
   33.2400   30.9130   35.5200 N   0  0  0  0  0  0  0  0  0  0  0  0
   36.7660   23.7660   32.1040 C   0  0  2  0  0  0  0  0  0  0  0  0
   35.6990   23.3140   31.1730 C   0  0  0  0  0  0  0  0  0  0  0  0
   36.7380   24.4150   30.8350 C   0  0  1  0  0  0  0  0  0  0  0  0
   36.3980   24.2740   33.0200 H   0  0  0  0  0  0  0  0  0  0  0  0
   35.8000   22.3380   30.6670 H   0  0  0  0  0  0  0  0  0  0  0  0
   34.6710   23.6220   31.3730 H   0  0  0  0  0  0  0  0  0  0  0  0
   37.4490   24.0920   30.0390 H   0  0  0  0  0  0  0  0  0  0  0  0
   39.3510   21.1090   31.7770 C   0  0  0  0  0  0  0  0  0  0  0  0
   40.0390   21.2280   33.0250 C   0  0  0  0  0  0  0  0  0  0  0  0
   39.5860   22.2260   33.9700 C   0  0  0  0  0  0  0  0  0  0  0  0
   38.5160   23.0270   33.6470 N   0  0  0  0  0  0  0  0  0  0  0  0
   37.9200   22.8450   32.4340 C   0  0  0  0  0  0  0  0  0  0  0  0
   38.3020   21.9070   31.4810 N   0  0  0  0  0  0  0  0  0  0  0  0
   39.6810   20.3780   31.0840 H   0  0  0  0  0  0  0  0  0  0  0  0
   40.8690   20.6050   33.2740 H   0  0  0  0  0  0  0  0  0  0  0  0
   40.1080   22.3080   34.9050 H   0  0  0  0  0  0  0  0  0  0  0  0
  1  2  2  0  0  0  0
  1  5  1  0  0  0  0
  3 26  1  0  0  0  0
  3  1  1  0  0  0  0
  4  3  1  0  0  0  0
  5 10  1  0  0  0  0
  6  7  1  0  0  0  0
  6  5  2  0  0  0  0
  7  8  2  0  0  0  0
  8 13  1  0  0  0  0
  8  9  1  0  0  0  0
  9 14  1  0  0  0  0
 10  9  2  0  0  0  0
 11  6  1  0  0  0  0
 12  7  1  0  0  0  0
 14 16  1  0  0  0  0
 15 14  2  0  0  0  0
 16 17  2  0  0  0  0
 16 23  1  0  0  0  0
 17 19  1  0  0  0  0
 18 17  1  0  0  0  0
 19 20  1  0  0  0  0
 19 21  2  0  0  0  0
 22 21  1  0  0  0  0
 23 22  2  0  0  0  0
 24 35  1  0  0  0  0
 24 27  1  1  0  0  0
 25 29  1  0  0  0  0
 25 24  1  0  0  0  0
 26 30  1  6  0  0  0
 26 25  1  0  0  0  0
 26 24  1  0  0  0  0
 28 25  1  0  0  0  0
 31 32  1  0  0  0  0
 32 38  1  0  0  0  0
 32 33  2  0  0  0  0
 33 39  1  0  0  0  0
 34 33  1  0  0  0  0
 35 34  2  0  0  0  0
 36 31  2  0  0  0  0
 36 35  1  0  0  0  0
 37 31  1  0  0  0  0
M  END
>  <minimizedAffinity>
-5.50328732

$$$$

 OpenBabel03272508593D

 39 42  0  0  1  0  0  0  0  0999 V2000
   36.2660   27.3950   32.3520 C   0  0  0  0  0  0  0  0  0  0  0  0
   35.9290   27.8570   31.2340 O   0  0  0  0  0  0  0  0  0  0  0  0
   36.1840   28.2160   33.5490 N   0  0  0  0  0  0  0  0  0  0  0  0
   36.6390   27.9590   34.4320 H   0  0  0  0  0  0  0  0  0  0  0  0
   36.7550   26.0140   32.4910 C   0  0  0  0  0  0  0  0  0  0  0  0
   36.1700   25.0310   31.7440 C   0  0  0  0  0  0  0  0  0  0  0  0
   36.6400   23.7360   31.8840 C   0  0  0  0  0  0  0  0  0  0  0  0
   37.6740   23.5200   32.7730 C   0  0  0  0  0  0  0  0  0  0  0  0
   38.2690   24.5200   33.5340 C   0  0  0  0  0  0  0  0  0  0  0  0
   37.7650   25.7500   33.3500 N   0  0  0  0  0  0  0  0  0  0  0  0
   35.3510   25.2090   31.0410 H   0  0  0  0  0  0  0  0  0  0  0  0
   36.1890   22.9540   31.3030 H   0  0  0  0  0  0  0  0  0  0  0  0
   37.9940   22.4960   32.8380 H   0  0  0  0  0  0  0  0  0  0  0  0
   39.3570   24.2200   34.4540 C   0  0  0  0  0  0  0  0  0  0  0  0
   40.5330   24.2090   34.0270 O   0  0  0  0  0  0  0  0  0  0  0  0
   39.1360   23.9300   35.8660 C   0  0  0  0  0  0  0  0  0  0  0  0
   40.0540   23.1220   36.5050 C   0  0  0  0  0  0  0  0  0  0  0  0
   40.9080   22.7120   35.9930 H   0  0  0  0  0  0  0  0  0  0  0  0
   39.9050   22.8050   37.8460 C   0  0  0  0  0  0  0  0  0  0  0  0
   40.6090   22.1690   38.3890 H   0  0  0  0  0  0  0  0  0  0  0  0
   38.8060   23.3370   38.4880 C   0  0  0  0  0  3  0  0  0  0  0  0
   37.8750   24.1470   37.8720 C   0  0  0  0  0  3  0  0  0  0  0  0
   38.0860   24.4150   36.5530 N   0  0  0  0  0  0  0  0  0  0  0  0
   34.3060   29.6450   34.3230 C   0  0  2  0  0  0  0  0  0  0  0  0
   35.5640   30.3300   34.7230 C   0  0  0  0  0  0  0  0  0  0  0  0
   35.4240   29.4370   33.4610 C   0  0  1  0  0  0  0  0  0  0  0  0
   33.9650   28.8550   35.0240 H   0  0  0  0  0  0  0  0  0  0  0  0
   35.6580   31.4200   34.5750 H   0  0  0  0  0  0  0  0  0  0  0  0
   36.1240   29.9320   35.5710 H   0  0  0  0  0  0  0  0  0  0  0  0
   35.5040   30.0270   32.5180 H   0  0  0  0  0  0  0  0  0  0  0  0
   30.9780   30.5080   32.9000 C   0  0  0  0  0  0  0  0  0  0  0  0
   31.0000   31.9360   32.9740 C   0  0  0  0  0  0  0  0  0  0  0  0
   32.1800   32.5810   33.5090 C   0  0  0  0  0  0  0  0  0  0  0  0
   33.2400   31.8110   33.9280 N   0  0  0  0  0  0  0  0  0  0  0  0
   33.1320   30.4560   33.8220 C   0  0  0  0  0  0  0  0  0  0  0  0
   32.0300   29.7720   33.3180 N   0  0  0  0  0  0  0  0  0  0  0  0
   30.1140   30.0340   32.5080 H   0  0  0  0  0  0  0  0  0  0  0  0
   30.1770   32.5310   32.6470 H   0  0  0  0  0  0  0  0  0  0  0  0
   32.1890   33.6540   33.5600 H   0  0  0  0  0  0  0  0  0  0  0  0
  1  5  1  0  0  0  0
  1  3  1  0  0  0  0
  2  1  2  0  0  0  0
  3  4  1  0  0  0  0
  5 10  1  0  0  0  0
  6  7  1  0  0  0  0
  6  5  2  0  0  0  0
  7  8  2  0  0  0  0
  8 13  1  0  0  0  0
  8  9  1  0  0  0  0
  9 14  1  0  0  0  0
 10  9  2  0  0  0  0
 11  6  1  0  0  0  0
 12  7  1  0  0  0  0
 14 16  1  0  0  0  0
 15 14  2  0  0  0  0
 16 17  2  0  0  0  0
 16 23  1  0  0  0  0
 17 19  1  0  0  0  0
 18 17  1  0  0  0  0
 19 20  1  0  0  0  0
 19 21  2  0  0  0  0
 22 21  1  0  0  0  0
 23 22  2  0  0  0  0
 24 25  1  0  0  0  0
 24 27  1  1  0  0  0
 25 29  1  0  0  0  0
 26 30  1  6  0  0  0
 26  3  1  0  0  0  0
 26 24  1  0  0  0  0
 26 25  1  0  0  0  0
 28 25  1  0  0  0  0
 31 32  2  0  0  0  0
 31 36  1  0  0  0  0
 32 33  1  0  0  0  0
 33 39  1  0  0  0  0
 33 34  2  0  0  0  0
 35 34  1  0  0  0  0
 35 24  1  0  0  0  0
 36 35  2  0  0  0  0
 37 31  1  0  0  0  0
 38 32  1  0  0  0  0
M  END
>  <minimizedAffinity>
-5.49399042

$$$$
