
 OpenBabel03272508563D

 39 42  0  0  1  0  0  0  0  0999 V2000
   38.3820   31.8900   44.5280 C   0  0  0  0  0  0  0  0  0  0  0  0
   37.2570   32.4380   44.4190 O   0  0  0  0  0  0  0  0  0  0  0  0
   38.9560   31.6300   45.8370 N   0  0  0  0  0  0  0  0  0  0  0  0
   39.9420   31.3830   45.9730 H   0  0  0  0  0  0  0  0  0  0  0  0
   39.1550   31.4910   43.3400 C   0  0  0  0  0  0  0  0  0  0  0  0
   40.1410   30.5570   43.4800 C   0  0  0  0  0  0  0  0  0  0  0  0
   40.8600   30.1910   42.3540 C   0  0  0  0  0  0  0  0  0  0  0  0
   40.5320   30.7970   41.1570 C   0  0  0  0  0  0  0  0  0  0  0  0
   39.5290   31.7480   41.0150 C   0  0  0  0  0  0  0  0  0  0  0  0
   38.8730   32.0560   42.1450 N   0  0  0  0  0  0  0  0  0  0  0  0
   40.3950   30.0810   44.4320 H   0  0  0  0  0  0  0  0  0  0  0  0
   41.6370   29.4570   42.4500 H   0  0  0  0  0  0  0  0  0  0  0  0
   41.1240   30.4720   40.3220 H   0  0  0  0  0  0  0  0  0  0  0  0
   39.2360   32.3470   39.7200 C   0  0  0  0  0  0  0  0  0  0  0  0
   38.6850   33.4690   39.6770 O   0  0  0  0  0  0  0  0  0  0  0  0
   39.5590   31.6910   38.4590 C   0  0  0  0  0  0  0  0  0  0  0  0
   38.6900   30.7230   37.9980 C   0  0  0  0  0  0  0  0  0  0  0  0
   37.8000   30.4530   38.5420 H   0  0  0  0  0  0  0  0  0  0  0  0
   38.9350   30.0600   36.8070 C   0  0  0  0  0  0  0  0  0  0  0  0
   38.2720   29.2890   36.4100 H   0  0  0  0  0  0  0  0  0  0  0  0
   40.0790   30.4200   36.1240 C   0  0  0  0  0  3  0  0  0  0  0  0
   40.9640   31.3820   36.5630 C   0  0  0  0  0  3  0  0  0  0  0  0
   40.6580   31.9920   37.7420 N   0  0  0  0  0  0  0  0  0  0  0  0
   38.4370   31.1150   48.2100 C   0  0  2  0  0  0  0  0  0  0  0  0
   38.6730   32.5800   48.1280 C   0  0  0  0  0  0  0  0  0  0  0  0
   38.0770   31.7300   46.9760 C   0  0  1  0  0  0  0  0  0  0  0  0
   39.3570   30.5010   48.3020 H   0  0  0  0  0  0  0  0  0  0  0  0
   37.9970   33.2690   48.6630 H   0  0  0  0  0  0  0  0  0  0  0  0
   39.7010   32.9350   48.0240 H   0  0  0  0  0  0  0  0  0  0  0  0
   37.0070   31.9790   46.7790 H   0  0  0  0  0  0  0  0  0  0  0  0
   35.0620   30.2360   49.5080 C   0  0  0  0  0  0  0  0  0  0  0  0
   35.3930   29.5500   50.7190 C   0  0  0  0  0  0  0  0  0  0  0  0
   36.7900   29.4130   51.0730 C   0  0  0  0  0  0  0  0  0  0  0  0
   37.7530   29.9390   50.2450 N   0  0  0  0  0  0  0  0  0  0  0  0
   37.3460   30.5760   49.1100 C   0  0  0  0  0  0  0  0  0  0  0  0
   36.0250   30.7450   48.7100 N   0  0  0  0  0  0  0  0  0  0  0  0
   34.0390   30.3380   49.2480 H   0  0  0  0  0  0  0  0  0  0  0  0
   34.6450   29.1430   51.3610 H   0  0  0  0  0  0  0  0  0  0  0  0
   37.0300   28.8970   51.9850 H   0  0  0  0  0  0  0  0  0  0  0  0
  1  3  1  0  0  0  0
  2  1  2  0  0  0  0
  3  4  1  0  0  0  0
  3 26  1  0  0  0  0
  5  6  1  0  0  0  0
  5  1  1  0  0  0  0
  6 11  1  0  0  0  0
  7 12  1  0  0  0  0
  7  6  2  0  0  0  0
  8  7  1  0  0  0  0
  9  8  2  0  0  0  0
  9 10  1  0  0  0  0
 10  5  2  0  0  0  0
 13  8  1  0  0  0  0
 14  9  1  0  0  0  0
 15 14  2  0  0  0  0
 16 14  1  0  0  0  0
 17 16  1  0  0  0  0
 17 18  1  0  0  0  0
 19 17  2  0  0  0  0
 20 19  1  0  0  0  0
 21 22  2  0  0  0  0
 21 19  1  0  0  0  0
 22 23  1  0  0  0  0
 23 16  2  0  0  0  0
 24 27  1  6  0  0  0
 24 35  1  0  0  0  0
 25 24  1  0  0  0  0
 25 28  1  0  0  0  0
 26 30  1  6  0  0  0
 26 25  1  0  0  0  0
 26 24  1  0  0  0  0
 29 25  1  0  0  0  0
 31 32  1  0  0  0  0
 32 33  2  0  0  0  0
 32 38  1  0  0  0  0
 33 39  1  0  0  0  0
 34 33  1  0  0  0  0
 35 34  2  0  0  0  0
 36 35  1  0  0  0  0
 36 31  2  0  0  0  0
 37 31  1  0  0  0  0
M  END
>  <minimizedAffinity>
-4.9448843

>  <minimizedRMSD>
0.622098804

$$$$
