
 OpenBabel03272508563D

 39 42  0  0  1  0  0  0  0  0999 V2000
   38.3430   31.8770   44.6090 C   0  0  0  0  0  0  0  0  0  0  0  0
   37.1820   32.3410   44.4880 O   0  0  0  0  0  0  0  0  0  0  0  0
   38.9450   31.7180   45.9230 N   0  0  0  0  0  0  0  0  0  0  0  0
   39.9470   31.5470   46.0580 H   0  0  0  0  0  0  0  0  0  0  0  0
   39.1320   31.4800   43.4320 C   0  0  0  0  0  0  0  0  0  0  0  0
   40.1240   30.5540   43.5870 C   0  0  0  0  0  0  0  0  0  0  0  0
   40.8590   30.1890   42.4710 C   0  0  0  0  0  0  0  0  0  0  0  0
   40.5380   30.7870   41.2680 C   0  0  0  0  0  0  0  0  0  0  0  0
   39.5290   31.7300   41.1100 C   0  0  0  0  0  0  0  0  0  0  0  0
   38.8590   32.0370   42.2310 N   0  0  0  0  0  0  0  0  0  0  0  0
   40.3720   30.0850   44.5430 H   0  0  0  0  0  0  0  0  0  0  0  0
   41.6410   29.4620   42.5790 H   0  0  0  0  0  0  0  0  0  0  0  0
   41.1430   30.4630   40.4400 H   0  0  0  0  0  0  0  0  0  0  0  0
   39.2460   32.3200   39.8090 C   0  0  0  0  0  0  0  0  0  0  0  0
   38.7490   33.4670   39.7540 O   0  0  0  0  0  0  0  0  0  0  0  0
   39.5180   31.6290   38.5550 C   0  0  0  0  0  0  0  0  0  0  0  0
   40.5870   32.0660   37.8000 C   0  0  0  0  0  0  0  0  0  0  0  0
   41.2070   32.8880   38.1140 H   0  0  0  0  0  0  0  0  0  0  0  0
   40.9020   31.4540   36.5980 C   0  0  0  0  0  0  0  0  0  0  0  0
   41.7400   31.7700   35.9720 H   0  0  0  0  0  0  0  0  0  0  0  0
   40.0980   30.4020   36.2100 C   0  0  0  0  0  3  0  0  0  0  0  0
   39.0230   29.9460   36.9460 C   0  0  0  0  0  3  0  0  0  0  0  0
   38.7740   30.5960   38.1170 N   0  0  0  0  0  0  0  0  0  0  0  0
   38.4270   31.1680   48.2880 C   0  0  2  0  0  0  0  0  0  0  0  0
   38.6790   32.6320   48.2300 C   0  0  0  0  0  0  0  0  0  0  0  0
   38.0700   31.8080   47.0650 C   0  0  1  0  0  0  0  0  0  0  0  0
   39.3400   30.5430   48.3670 H   0  0  0  0  0  0  0  0  0  0  0  0
   38.0120   33.3200   48.7790 H   0  0  0  0  0  0  0  0  0  0  0  0
   39.7100   32.9780   48.1290 H   0  0  0  0  0  0  0  0  0  0  0  0
   37.0030   32.0720   46.8760 H   0  0  0  0  0  0  0  0  0  0  0  0
   35.0510   30.2370   49.5460 C   0  0  0  0  0  0  0  0  0  0  0  0
   35.3760   29.5950   50.7820 C   0  0  0  0  0  0  0  0  0  0  0  0
   36.7690   29.5050   51.1670 C   0  0  0  0  0  0  0  0  0  0  0  0
   37.7340   30.0340   50.3420 N   0  0  0  0  0  0  0  0  0  0  0  0
   37.3320   30.6270   49.1820 C   0  0  0  0  0  0  0  0  0  0  0  0
   36.0160   30.7480   48.7520 N   0  0  0  0  0  0  0  0  0  0  0  0
   34.0310   30.3040   49.2630 H   0  0  0  0  0  0  0  0  0  0  0  0
   34.6260   29.1860   51.4210 H   0  0  0  0  0  0  0  0  0  0  0  0
   37.0040   29.0220   52.0980 H   0  0  0  0  0  0  0  0  0  0  0  0
  1  3  1  0  0  0  0
  2  1  2  0  0  0  0
  3  4  1  0  0  0  0
  3 26  1  0  0  0  0
  5  6  1  0  0  0  0
  5  1  1  0  0  0  0
  6 11  1  0  0  0  0
  7 12  1  0  0  0  0
  7  6  2  0  0  0  0
  8  7  1  0  0  0  0
  9  8  2  0  0  0  0
  9 10  1  0  0  0  0
 10  5  2  0  0  0  0
 13  8  1  0  0  0  0
 14  9  1  0  0  0  0
 15 14  2  0  0  0  0
 16 14  1  0  0  0  0
 17 18  1  0  0  0  0
 17 16  2  0  0  0  0
 19 17  1  0  0  0  0
 20 19  1  0  0  0  0
 21 19  2  0  0  0  0
 21 22  1  0  0  0  0
 22 23  2  0  0  0  0
 23 16  1  0  0  0  0
 24 27  1  6  0  0  0
 24 35  1  0  0  0  0
 25 24  1  0  0  0  0
 25 28  1  0  0  0  0
 26 30  1  6  0  0  0
 26 25  1  0  0  0  0
 26 24  1  0  0  0  0
 29 25  1  0  0  0  0
 31 32  1  0  0  0  0
 32 33  2  0  0  0  0
 32 38  1  0  0  0  0
 33 39  1  0  0  0  0
 34 33  1  0  0  0  0
 35 34  2  0  0  0  0
 36 35  1  0  0  0  0
 36 31  2  0  0  0  0
 37 31  1  0  0  0  0
M  END
>  <minimizedAffinity>
-4.94500303

>  <minimizedRMSD>
0.378260553

$$$$
