
 OpenBabel03272507313D

 28 30  0  0  0  0  0  0  0  0999 V2000
   37.8380   27.2400   34.2690 C   0  0  0  0  0  0  0  0  0  0  0  0
   37.9070   27.3760   32.9200 C   0  0  0  0  0  0  0  0  0  0  0  0
   36.8220   28.1660   32.5070 C   0  0  0  0  0  0  0  0  0  0  0  0
   36.1440   28.4630   33.6900 C   0  0  0  0  0  0  0  0  0  0  0  0
   36.7800   27.9010   34.6690 O   0  0  0  0  0  0  0  0  0  0  0  0
   38.6200   26.9950   32.1780 H   0  0  0  0  0  0  0  0  0  0  0  0
   36.5780   28.4690   31.4950 H   0  0  0  0  0  0  0  0  0  0  0  0
   38.8120   26.4770   35.0330 C   0  0  0  0  0  0  0  0  0  0  0  0
   39.9400   26.9710   35.2200 O   0  0  0  0  0  0  0  0  0  0  0  0
   38.4000   25.1850   35.5280 C   0  0  0  0  0  0  0  0  0  0  0  0
   38.4430   24.1240   34.6320 C   0  0  0  0  0  0  0  0  0  0  0  0
   38.0510   22.8620   35.0730 C   0  0  0  0  0  0  0  0  0  0  0  0
   37.6440   22.7350   36.3740 N   0  0  0  0  0  0  0  0  0  0  0  0
   37.6140   23.7710   37.2120 C   0  0  0  0  0  0  0  0  0  0  0  0
   37.9910   24.9920   36.7900 N   0  0  0  0  0  0  0  0  0  0  0  0
   38.7460   24.1530   33.6140 H   0  0  0  0  0  0  0  0  0  0  0  0
   38.0610   21.9830   34.4210 H   0  0  0  0  0  0  0  0  0  0  0  0
   37.2720   23.5640   38.2350 H   0  0  0  0  0  0  0  0  0  0  0  0
   34.9260   29.2770   33.7650 C   0  0  0  0  0  0  0  0  0  0  0  0
   34.0240   29.1450   32.8910 O   0  0  0  0  0  0  0  0  0  0  0  0
   34.7450   30.2290   34.8300 C   0  0  0  0  0  0  0  0  0  0  0  0
   35.8070   31.0060   35.2420 C   0  0  0  0  0  0  0  0  0  0  0  0
   36.7990   30.9380   34.7960 H   0  0  0  0  0  0  0  0  0  0  0  0
   35.5720   31.9030   36.2690 C   0  0  0  0  0  0  0  0  0  0  0  0
   36.4210   32.5200   36.5950 H   0  0  0  0  0  0  0  0  0  0  0  0
   34.3400   32.0600   36.8970 C   0  0  0  0  0  3  0  0  0  0  0  0
   33.3370   31.2490   36.4280 C   0  0  0  0  0  3  0  0  0  0  0  0
   33.5240   30.3560   35.4230 N   0  0  0  0  0  0  0  0  0  0  0  0
  1  5  1  0  0  0  0
  1  8  1  0  0  0  0
  2  1  2  0  0  0  0
  3  2  1  0  0  0  0
  3  4  2  0  0  0  0
  4 19  1  0  0  0  0
  4  5  1  0  0  0  0
  6  2  1  0  0  0  0
  7  3  1  0  0  0  0
  8  9  2  0  0  0  0
  8 10  1  0  0  0  0
 10 15  1  0  0  0  0
 11 12  1  0  0  0  0
 11 10  2  0  0  0  0
 12 13  2  0  0  0  0
 13 14  1  0  0  0  0
 14 18  1  0  0  0  0
 15 14  2  0  0  0  0
 16 11  1  0  0  0  0
 17 12  1  0  0  0  0
 19 21  1  0  0  0  0
 20 19  2  0  0  0  0
 21 22  2  0  0  0  0
 21 28  1  0  0  0  0
 22 24  1  0  0  0  0
 23 22  1  0  0  0  0
 24 25  1  0  0  0  0
 24 26  2  0  0  0  0
 27 26  1  0  0  0  0
 28 27  2  0  0  0  0
M  END
>  <minimizedAffinity>
-5.4252677

$$$$

 OpenBabel03272507313D

 28 30  0  0  0  0  0  0  0  0999 V2000
   36.5200   25.6940   32.2570 C   0  0  0  0  0  0  0  0  0  0  0  0
   36.5030   27.0500   32.1780 C   0  0  0  0  0  0  0  0  0  0  0  0
   37.1830   27.5590   33.2960 C   0  0  0  0  0  0  0  0  0  0  0  0
   37.5790   26.4230   34.0030 C   0  0  0  0  0  0  0  0  0  0  0  0
   37.1670   25.3810   33.3530 O   0  0  0  0  0  0  0  0  0  0  0  0
   36.0770   27.7370   31.4380 H   0  0  0  0  0  0  0  0  0  0  0  0
   37.3530   28.6010   33.5420 H   0  0  0  0  0  0  0  0  0  0  0  0
   35.9030   24.8410   31.2560 C   0  0  0  0  0  0  0  0  0  0  0  0
   34.9170   25.2750   30.6300 O   0  0  0  0  0  0  0  0  0  0  0  0
   36.4810   23.5340   31.0520 C   0  0  0  0  0  0  0  0  0  0  0  0
   35.6600   22.4380   31.2890 C   0  0  0  0  0  0  0  0  0  0  0  0
   36.1830   21.1600   31.1040 C   0  0  0  0  0  0  0  0  0  0  0  0
   37.4850   21.0530   30.6950 N   0  0  0  0  0  0  0  0  0  0  0  0
   38.2500   22.1230   30.4740 C   0  0  0  0  0  0  0  0  0  0  0  0
   37.7490   23.3590   30.6530 N   0  0  0  0  0  0  0  0  0  0  0  0
   34.6470   22.4500   31.6060 H   0  0  0  0  0  0  0  0  0  0  0  0
   35.5920   20.2540   31.2720 H   0  0  0  0  0  0  0  0  0  0  0  0
   39.2810   21.9290   30.1490 H   0  0  0  0  0  0  0  0  0  0  0  0
   38.3310   26.4510   35.2630 C   0  0  0  0  0  0  0  0  0  0  0  0
   38.6350   27.5570   35.7920 O   0  0  0  0  0  0  0  0  0  0  0  0
   38.7310   25.2260   35.9050 C   0  0  0  0  0  0  0  0  0  0  0  0
   38.0160   24.7540   36.9870 C   0  0  0  0  0  0  0  0  0  0  0  0
   37.1460   25.2690   37.3910 H   0  0  0  0  0  0  0  0  0  0  0  0
   38.4480   23.5720   37.5610 C   0  0  0  0  0  0  0  0  0  0  0  0
   37.8760   23.2000   38.4220 H   0  0  0  0  0  0  0  0  0  0  0  0
   39.5470   22.8450   37.1120 C   0  0  0  0  0  3  0  0  0  0  0  0
   40.2020   23.3830   36.0330 C   0  0  0  0  0  3  0  0  0  0  0  0
   39.8120   24.5400   35.4390 N   0  0  0  0  0  0  0  0  0  0  0  0
  1  5  1  0  0  0  0
  2  1  2  0  0  0  0
  2  3  1  0  0  0  0
  3  7  1  0  0  0  0
  3  4  2  0  0  0  0
  4 19  1  0  0  0  0
  5  4  1  0  0  0  0
  6  2  1  0  0  0  0
  8  1  1  0  0  0  0
  9  8  2  0  0  0  0
 10  8  1  0  0  0  0
 10 11  1  0  0  0  0
 11 16  1  0  0  0  0
 12 17  1  0  0  0  0
 12 11  2  0  0  0  0
 13 12  1  0  0  0  0
 14 15  1  0  0  0  0
 14 13  2  0  0  0  0
 15 10  2  0  0  0  0
 18 14  1  0  0  0  0
 19 20  2  0  0  0  0
 19 21  1  0  0  0  0
 21 22  1  0  0  0  0
 22 23  1  0  0  0  0
 22 24  2  0  0  0  0
 24 25  1  0  0  0  0
 26 24  1  0  0  0  0
 27 26  2  0  0  0  0
 28 21  2  0  0  0  0
 28 27  1  0  0  0  0
M  END
>  <minimizedAffinity>
-5.33262873

$$$$

 OpenBabel03272507313D

 28 30  0  0  0  0  0  0  0  0999 V2000
   37.6550   26.3830   34.0760 C   0  0  0  0  0  0  0  0  0  0  0  0
   37.2760   27.5040   33.4080 C   0  0  0  0  0  0  0  0  0  0  0  0
   36.5730   27.1070   32.2590 C   0  0  0  0  0  0  0  0  0  0  0  0
   36.5780   25.7130   32.3180 C   0  0  0  0  0  0  0  0  0  0  0  0
   37.2170   25.3580   33.3880 O   0  0  0  0  0  0  0  0  0  0  0  0
   37.4260   28.5700   33.6170 H   0  0  0  0  0  0  0  0  0  0  0  0
   36.1320   27.7490   31.5060 H   0  0  0  0  0  0  0  0  0  0  0  0
   38.4080   26.4270   35.3190 C   0  0  0  0  0  0  0  0  0  0  0  0
   38.6880   27.5390   35.8060 O   0  0  0  0  0  0  0  0  0  0  0  0
   38.7810   25.1640   35.9110 C   0  0  0  0  0  0  0  0  0  0  0  0
   38.0010   24.7080   36.9660 C   0  0  0  0  0  0  0  0  0  0  0  0
   38.3310   23.4940   37.5640 C   0  0  0  0  0  0  0  0  0  0  0  0
   39.4140   22.8120   37.0770 N   0  0  0  0  0  0  0  0  0  0  0  0
   40.1450   23.2740   36.0620 C   0  0  0  0  0  0  0  0  0  0  0  0
   39.8290   24.4460   35.4820 N   0  0  0  0  0  0  0  0  0  0  0  0
   37.1530   25.1840   37.3920 H   0  0  0  0  0  0  0  0  0  0  0  0
   37.7600   23.0760   38.3990 H   0  0  0  0  0  0  0  0  0  0  0  0
   40.9920   22.6520   35.7460 H   0  0  0  0  0  0  0  0  0  0  0  0
   35.9550   24.8380   31.3180 C   0  0  0  0  0  0  0  0  0  0  0  0
   34.9860   25.2610   30.6270 O   0  0  0  0  0  0  0  0  0  0  0  0
   36.4370   23.4970   31.1150 C   0  0  0  0  0  0  0  0  0  0  0  0
   35.5970   22.4260   31.3380 C   0  0  0  0  0  0  0  0  0  0  0  0
   34.5650   22.5410   31.6660 H   0  0  0  0  0  0  0  0  0  0  0  0
   36.1180   21.1620   31.1250 C   0  0  0  0  0  0  0  0  0  0  0  0
   35.4460   20.3110   31.3040 H   0  0  0  0  0  0  0  0  0  0  0  0
   37.4230   20.9180   30.7060 C   0  0  0  0  0  3  0  0  0  0  0  0
   38.1910   22.0370   30.5080 C   0  0  0  0  0  3  0  0  0  0  0  0
   37.7210   23.2960   30.7040 N   0  0  0  0  0  0  0  0  0  0  0  0
  1  8  1  0  0  0  0
  2  6  1  0  0  0  0
  2  1  2  0  0  0  0
  3  4  2  0  0  0  0
  3  2  1  0  0  0  0
  4  5  1  0  0  0  0
  5  1  1  0  0  0  0
  7  3  1  0  0  0  0
  8  9  2  0  0  0  0
  8 10  1  0  0  0  0
 10 11  1  0  0  0  0
 11 16  1  0  0  0  0
 11 12  2  0  0  0  0
 12 17  1  0  0  0  0
 13 12  1  0  0  0  0
 14 13  2  0  0  0  0
 15 10  2  0  0  0  0
 15 14  1  0  0  0  0
 18 14  1  0  0  0  0
 19  4  1  0  0  0  0
 20 19  2  0  0  0  0
 21 19  1  0  0  0  0
 21 22  1  0  0  0  0
 22 23  1  0  0  0  0
 24 25  1  0  0  0  0
 24 22  2  0  0  0  0
 26 24  1  0  0  0  0
 27 28  1  0  0  0  0
 27 26  2  0  0  0  0
 28 21  2  0  0  0  0
M  END
>  <minimizedAffinity>
-5.31617785

$$$$

 OpenBabel03272507313D

 28 30  0  0  0  0  0  0  0  0999 V2000
   37.2300   27.2350   34.5940 C   0  0  0  0  0  0  0  0  0  0  0  0
   38.0240   27.8070   35.5360 C   0  0  0  0  0  0  0  0  0  0  0  0
   38.4860   26.7920   36.3890 C   0  0  0  0  0  0  0  0  0  0  0  0
   37.9120   25.6270   35.8790 C   0  0  0  0  0  0  0  0  0  0  0  0
   37.2000   25.9500   34.8450 O   0  0  0  0  0  0  0  0  0  0  0  0
   38.3270   28.8470   35.7090 H   0  0  0  0  0  0  0  0  0  0  0  0
   39.1400   26.9030   37.2460 H   0  0  0  0  0  0  0  0  0  0  0  0
   36.5800   28.0020   33.5440 C   0  0  0  0  0  0  0  0  0  0  0  0
   35.5500   28.6430   33.8270 O   0  0  0  0  0  0  0  0  0  0  0  0
   37.1800   27.9680   32.2320 C   0  0  0  0  0  0  0  0  0  0  0  0
   36.4960   28.6150   31.2100 C   0  0  0  0  0  0  0  0  0  0  0  0
   37.0430   28.6030   29.9290 C   0  0  0  0  0  0  0  0  0  0  0  0
   38.2330   27.9510   29.7450 N   0  0  0  0  0  0  0  0  0  0  0  0
   38.8680   27.3390   30.7450 C   0  0  0  0  0  0  0  0  0  0  0  0
   38.3430   27.3480   31.9840 N   0  0  0  0  0  0  0  0  0  0  0  0
   35.5740   29.1370   31.2830 H   0  0  0  0  0  0  0  0  0  0  0  0
   36.5580   29.0930   29.0790 H   0  0  0  0  0  0  0  0  0  0  0  0
   39.8160   26.8450   30.4940 H   0  0  0  0  0  0  0  0  0  0  0  0
   38.1080   24.2880   36.4470 C   0  0  0  0  0  0  0  0  0  0  0  0
   37.1380   23.6830   36.9830 O   0  0  0  0  0  0  0  0  0  0  0  0
   39.4000   23.6540   36.4000 C   0  0  0  0  0  0  0  0  0  0  0  0
   39.8000   22.8380   37.4360 C   0  0  0  0  0  0  0  0  0  0  0  0
   39.1790   22.6400   38.3090 H   0  0  0  0  0  0  0  0  0  0  0  0
   41.0520   22.2570   37.3340 C   0  0  0  0  0  0  0  0  0  0  0  0
   41.3680   21.6060   38.1620 H   0  0  0  0  0  0  0  0  0  0  0  0
   41.9130   22.4500   36.2570 C   0  0  0  0  0  3  0  0  0  0  0  0
   41.4380   23.2760   35.2700 C   0  0  0  0  0  3  0  0  0  0  0  0
   40.2170   23.8660   35.3300 N   0  0  0  0  0  0  0  0  0  0  0  0
  1  5  1  0  0  0  0
  1  2  2  0  0  0  0
  2  6  1  0  0  0  0
  2  3  1  0  0  0  0
  3  7  1  0  0  0  0
  4  3  2  0  0  0  0
  4 19  1  0  0  0  0
  5  4  1  0  0  0  0
  8  9  2  0  0  0  0
  8  1  1  0  0  0  0
 10  8  1  0  0  0  0
 11 16  1  0  0  0  0
 11 10  2  0  0  0  0
 12 11  1  0  0  0  0
 13 12  2  0  0  0  0
 13 14  1  0  0  0  0
 14 15  2  0  0  0  0
 15 10  1  0  0  0  0
 17 12  1  0  0  0  0
 18 14  1  0  0  0  0
 19 20  2  0  0  0  0
 21 19  1  0  0  0  0
 21 22  1  0  0  0  0
 22 23  1  0  0  0  0
 24 22  2  0  0  0  0
 24 25  1  0  0  0  0
 26 24  1  0  0  0  0
 27 28  1  0  0  0  0
 27 26  2  0  0  0  0
 28 21  2  0  0  0  0
M  END
>  <minimizedAffinity>
-5.21481848

$$$$

 OpenBabel03272507313D

 28 30  0  0  0  0  0  0  0  0999 V2000
   38.1510   25.0010   33.9390 C   0  0  0  0  0  0  0  0  0  0  0  0
   39.1370   25.9340   33.9000 C   0  0  0  0  0  0  0  0  0  0  0  0
   38.6180   27.0880   33.2920 C   0  0  0  0  0  0  0  0  0  0  0  0
   37.2970   26.7540   32.9940 C   0  0  0  0  0  0  0  0  0  0  0  0
   37.0890   25.5390   33.3920 O   0  0  0  0  0  0  0  0  0  0  0  0
   40.1790   25.9170   34.2420 H   0  0  0  0  0  0  0  0  0  0  0  0
   39.1370   28.0200   33.1040 H   0  0  0  0  0  0  0  0  0  0  0  0
   38.3450   23.6770   34.5070 C   0  0  0  0  0  0  0  0  0  0  0  0
   38.3430   22.6940   33.7400 O   0  0  0  0  0  0  0  0  0  0  0  0
   38.5300   23.5890   35.9360 C   0  0  0  0  0  0  0  0  0  0  0  0
   39.6560   22.9110   36.3840 C   0  0  0  0  0  0  0  0  0  0  0  0
   39.8680   22.8040   37.7580 C   0  0  0  0  0  0  0  0  0  0  0  0
   38.9490   23.3780   38.5950 N   0  0  0  0  0  0  0  0  0  0  0  0
   37.8770   24.0240   38.1360 C   0  0  0  0  0  0  0  0  0  0  0  0
   37.6690   24.1280   36.8110 N   0  0  0  0  0  0  0  0  0  0  0  0
   40.4050   22.4450   35.7930 H   0  0  0  0  0  0  0  0  0  0  0  0
   40.7340   22.2850   38.1790 H   0  0  0  0  0  0  0  0  0  0  0  0
   37.2010   24.4480   38.8900 H   0  0  0  0  0  0  0  0  0  0  0  0
   36.3400   27.6560   32.3410 C   0  0  0  0  0  0  0  0  0  0  0  0
   35.7520   27.2940   31.2840 O   0  0  0  0  0  0  0  0  0  0  0  0
   36.0640   28.9570   32.8950 C   0  0  0  0  0  0  0  0  0  0  0  0
   35.7620   29.0810   34.2340 C   0  0  0  0  0  0  0  0  0  0  0  0
   35.7200   28.2310   34.9130 H   0  0  0  0  0  0  0  0  0  0  0  0
   35.5070   30.3560   34.7070 C   0  0  0  0  0  0  0  0  0  0  0  0
   35.2660   30.4510   35.7750 H   0  0  0  0  0  0  0  0  0  0  0  0
   35.5390   31.5010   33.9150 C   0  0  0  0  0  3  0  0  0  0  0  0
   35.8470   31.2890   32.5950 C   0  0  0  0  0  3  0  0  0  0  0  0
   36.1040   30.0550   32.0890 N   0  0  0  0  0  0  0  0  0  0  0  0
  1  8  1  0  0  0  0
  2  1  2  0  0  0  0
  2  6  1  0  0  0  0
  3  2  1  0  0  0  0
  4  3  2  0  0  0  0
  4  5  1  0  0  0  0
  5  1  1  0  0  0  0
  7  3  1  0  0  0  0
  8 10  1  0  0  0  0
  9  8  2  0  0  0  0
 10 11  2  0  0  0  0
 10 15  1  0  0  0  0
 11 12  1  0  0  0  0
 12 17  1  0  0  0  0
 12 13  2  0  0  0  0
 14 13  1  0  0  0  0
 14 18  1  0  0  0  0
 15 14  2  0  0  0  0
 16 11  1  0  0  0  0
 19 21  1  0  0  0  0
 19  4  1  0  0  0  0
 20 19  2  0  0  0  0
 21 22  1  0  0  0  0
 22 24  2  0  0  0  0
 22 23  1  0  0  0  0
 24 25  1  0  0  0  0
 26 24  1  0  0  0  0
 27 26  2  0  0  0  0
 28 27  1  0  0  0  0
 28 21  2  0  0  0  0
M  END
>  <minimizedAffinity>
-5.08306646

$$$$

 OpenBabel03272507313D

 28 30  0  0  0  0  0  0  0  0999 V2000
   36.6020   24.0400   31.0380 C   0  0  0  0  0  0  0  0  0  0  0  0
   35.2490   24.1590   31.0220 C   0  0  0  0  0  0  0  0  0  0  0  0
   34.9340   25.5270   30.9900 C   0  0  0  0  0  0  0  0  0  0  0  0
   36.1750   26.1650   30.9910 C   0  0  0  0  0  0  0  0  0  0  0  0
   37.0950   25.2530   31.0190 O   0  0  0  0  0  0  0  0  0  0  0  0
   34.4450   23.4130   31.0280 H   0  0  0  0  0  0  0  0  0  0  0  0
   33.9460   25.9720   30.9710 H   0  0  0  0  0  0  0  0  0  0  0  0
   37.2770   22.7530   31.0710 C   0  0  0  0  0  0  0  0  0  0  0  0
   38.3860   22.6480   30.5130 O   0  0  0  0  0  0  0  0  0  0  0  0
   36.6100   21.6730   31.7590 C   0  0  0  0  0  0  0  0  0  0  0  0
   36.1420   20.6230   30.9780 C   0  0  0  0  0  0  0  0  0  0  0  0
   35.4920   19.5630   31.6050 C   0  0  0  0  0  0  0  0  0  0  0  0
   35.3480   19.6130   32.9660 N   0  0  0  0  0  0  0  0  0  0  0  0
   35.8080   20.6340   33.6910 C   0  0  0  0  0  0  0  0  0  0  0  0
   36.4360   21.6600   33.0880 N   0  0  0  0  0  0  0  0  0  0  0  0
   36.2200   20.5210   29.9240 H   0  0  0  0  0  0  0  0  0  0  0  0
   35.1000   18.7040   31.0510 H   0  0  0  0  0  0  0  0  0  0  0  0
   35.6420   20.5790   34.7750 H   0  0  0  0  0  0  0  0  0  0  0  0
   36.3590   27.6200   30.9640 C   0  0  0  0  0  0  0  0  0  0  0  0
   36.7600   28.1850   29.9080 O   0  0  0  0  0  0  0  0  0  0  0  0
   36.0870   28.4160   32.1330 C   0  0  0  0  0  0  0  0  0  0  0  0
   36.4820   27.9660   33.3750 C   0  0  0  0  0  0  0  0  0  0  0  0
   37.0010   27.0190   33.5250 H   0  0  0  0  0  0  0  0  0  0  0  0
   36.1930   28.7740   34.4600 C   0  0  0  0  0  0  0  0  0  0  0  0
   36.5080   28.4120   35.4480 H   0  0  0  0  0  0  0  0  0  0  0  0
   35.5350   29.9980   34.3650 C   0  0  0  0  0  3  0  0  0  0  0  0
   35.1770   30.3710   33.0940 C   0  0  0  0  0  3  0  0  0  0  0  0
   35.4410   29.6090   32.0020 N   0  0  0  0  0  0  0  0  0  0  0  0
  1  8  1  0  0  0  0
  2  6  1  0  0  0  0
  2  1  2  0  0  0  0
  3  4  2  0  0  0  0
  3  2  1  0  0  0  0
  4  5  1  0  0  0  0
  5  1  1  0  0  0  0
  7  3  1  0  0  0  0
  8 10  1  0  0  0  0
  9  8  2  0  0  0  0
 10 15  1  0  0  0  0
 11 12  1  0  0  0  0
 11 10  2  0  0  0  0
 12 13  2  0  0  0  0
 13 14  1  0  0  0  0
 14 18  1  0  0  0  0
 15 14  2  0  0  0  0
 16 11  1  0  0  0  0
 17 12  1  0  0  0  0
 19  4  1  0  0  0  0
 19 21  1  0  0  0  0
 20 19  2  0  0  0  0
 21 22  1  0  0  0  0
 22 23  1  0  0  0  0
 22 24  2  0  0  0  0
 24 25  1  0  0  0  0
 26 24  1  0  0  0  0
 27 26  2  0  0  0  0
 28 21  2  0  0  0  0
 28 27  1  0  0  0  0
M  END
>  <minimizedAffinity>
-5.07152271

$$$$

 OpenBabel03272507313D

 28 30  0  0  0  0  0  0  0  0999 V2000
   36.1460   26.1670   30.9960 C   0  0  0  0  0  0  0  0  0  0  0  0
   34.9280   25.5660   30.9640 C   0  0  0  0  0  0  0  0  0  0  0  0
   35.1280   24.1770   31.0060 C   0  0  0  0  0  0  0  0  0  0  0  0
   36.5140   24.0310   31.0620 C   0  0  0  0  0  0  0  0  0  0  0  0
   37.0430   25.2150   31.0540 O   0  0  0  0  0  0  0  0  0  0  0  0
   33.9100   25.9710   30.9150 H   0  0  0  0  0  0  0  0  0  0  0  0
   34.3680   23.4050   30.9950 H   0  0  0  0  0  0  0  0  0  0  0  0
   36.3110   27.6110   30.9670 C   0  0  0  0  0  0  0  0  0  0  0  0
   36.7830   28.1350   29.9400 O   0  0  0  0  0  0  0  0  0  0  0  0
   35.9110   28.3470   32.1420 C   0  0  0  0  0  0  0  0  0  0  0  0
   36.5400   28.0190   33.3360 C   0  0  0  0  0  0  0  0  0  0  0  0
   36.1800   28.7070   34.4920 C   0  0  0  0  0  0  0  0  0  0  0  0
   35.2190   29.6770   34.3880 N   0  0  0  0  0  0  0  0  0  0  0  0
   34.6310   29.9720   33.2280 C   0  0  0  0  0  0  0  0  0  0  0  0
   34.9760   29.3090   32.1090 N   0  0  0  0  0  0  0  0  0  0  0  0
   37.2900   27.2810   33.4860 H   0  0  0  0  0  0  0  0  0  0  0  0
   36.6350   28.5000   35.4650 H   0  0  0  0  0  0  0  0  0  0  0  0
   33.8730   30.7650   33.2510 H   0  0  0  0  0  0  0  0  0  0  0  0
   37.2110   22.7410   31.1210 C   0  0  0  0  0  0  0  0  0  0  0  0
   38.3790   22.6340   30.6540 O   0  0  0  0  0  0  0  0  0  0  0  0
   36.5740   21.5900   31.7060 C   0  0  0  0  0  0  0  0  0  0  0  0
   36.1900   20.5370   30.9030 C   0  0  0  0  0  0  0  0  0  0  0  0
   36.3470   20.5260   29.8240 H   0  0  0  0  0  0  0  0  0  0  0  0
   35.5830   19.4590   31.5230 C   0  0  0  0  0  0  0  0  0  0  0  0
   35.2790   18.6220   30.8790 H   0  0  0  0  0  0  0  0  0  0  0  0
   35.3440   19.3840   32.8920 C   0  0  0  0  0  3  0  0  0  0  0  0
   35.7550   20.4730   33.6180 C   0  0  0  0  0  3  0  0  0  0  0  0
   36.3550   21.5500   33.0500 N   0  0  0  0  0  0  0  0  0  0  0  0
  1  5  1  0  0  0  0
  2  1  2  0  0  0  0
  2  3  1  0  0  0  0
  3  4  2  0  0  0  0
  4 19  1  0  0  0  0
  5  4  1  0  0  0  0
  6  2  1  0  0  0  0
  7  3  1  0  0  0  0
  8  1  1  0  0  0  0
  8 10  1  0  0  0  0
  9  8  2  0  0  0  0
 10 11  1  0  0  0  0
 11 16  1  0  0  0  0
 11 12  2  0  0  0  0
 12 17  1  0  0  0  0
 13 12  1  0  0  0  0
 14 18  1  0  0  0  0
 14 13  2  0  0  0  0
 15 10  2  0  0  0  0
 15 14  1  0  0  0  0
 19 21  1  0  0  0  0
 20 19  2  0  0  0  0
 21 28  1  0  0  0  0
 22 24  1  0  0  0  0
 22 21  2  0  0  0  0
 23 22  1  0  0  0  0
 24 26  2  0  0  0  0
 25 24  1  0  0  0  0
 26 27  1  0  0  0  0
 28 27  2  0  0  0  0
M  END
>  <minimizedAffinity>
-5.03659868

$$$$

 OpenBabel03272507313D

 28 30  0  0  0  0  0  0  0  0999 V2000
   38.6800   25.0450   33.6350 C   0  0  0  0  0  0  0  0  0  0  0  0
   38.4160   26.1850   32.9450 C   0  0  0  0  0  0  0  0  0  0  0  0
   37.3490   25.9260   32.0700 C   0  0  0  0  0  0  0  0  0  0  0  0
   37.0310   24.5880   32.3030 C   0  0  0  0  0  0  0  0  0  0  0  0
   37.8340   24.1370   33.2150 O   0  0  0  0  0  0  0  0  0  0  0  0
   38.8720   27.1820   32.9720 H   0  0  0  0  0  0  0  0  0  0  0  0
   36.8870   26.6190   31.3760 H   0  0  0  0  0  0  0  0  0  0  0  0
   39.7330   24.9560   34.6330 C   0  0  0  0  0  0  0  0  0  0  0  0
   40.8570   25.4180   34.3550 O   0  0  0  0  0  0  0  0  0  0  0  0
   39.4010   24.3330   35.8920 C   0  0  0  0  0  0  0  0  0  0  0  0
   38.2930   24.8290   36.5670 C   0  0  0  0  0  0  0  0  0  0  0  0
   37.9420   24.2530   37.7860 C   0  0  0  0  0  0  0  0  0  0  0  0
   38.7130   23.2240   38.2550 N   0  0  0  0  0  0  0  0  0  0  0  0
   39.7720   22.7680   37.5850 C   0  0  0  0  0  0  0  0  0  0  0  0
   40.1140   23.3210   36.4080 N   0  0  0  0  0  0  0  0  0  0  0  0
   37.6540   25.6200   36.2610 H   0  0  0  0  0  0  0  0  0  0  0  0
   37.0810   24.5940   38.3700 H   0  0  0  0  0  0  0  0  0  0  0  0
   40.3250   21.9390   38.0470 H   0  0  0  0  0  0  0  0  0  0  0  0
   35.9630   23.8570   31.6120 C   0  0  0  0  0  0  0  0  0  0  0  0
   35.0520   24.4910   31.0110 O   0  0  0  0  0  0  0  0  0  0  0  0
   35.9420   22.4170   31.6110 C   0  0  0  0  0  0  0  0  0  0  0  0
   36.9010   21.7180   30.9080 C   0  0  0  0  0  0  0  0  0  0  0  0
   37.6920   22.2060   30.3390 H   0  0  0  0  0  0  0  0  0  0  0  0
   36.8280   20.3370   30.9460 C   0  0  0  0  0  0  0  0  0  0  0  0
   37.5940   19.7830   30.3840 H   0  0  0  0  0  0  0  0  0  0  0  0
   35.8550   19.6280   31.6450 C   0  0  0  0  0  3  0  0  0  0  0  0
   34.9410   20.3980   32.3170 C   0  0  0  0  0  3  0  0  0  0  0  0
   34.9750   21.7560   32.3070 N   0  0  0  0  0  0  0  0  0  0  0  0
  1  8  1  0  0  0  0
  2  6  1  0  0  0  0
  2  1  2  0  0  0  0
  3  4  2  0  0  0  0
  3  2  1  0  0  0  0
  4  5  1  0  0  0  0
  5  1  1  0  0  0  0
  7  3  1  0  0  0  0
  8 10  1  0  0  0  0
  9  8  2  0  0  0  0
 10 15  2  0  0  0  0
 10 11  1  0  0  0  0
 11 12  2  0  0  0  0
 12 13  1  0  0  0  0
 12 17  1  0  0  0  0
 14 18  1  0  0  0  0
 14 13  2  0  0  0  0
 15 14  1  0  0  0  0
 16 11  1  0  0  0  0
 19  4  1  0  0  0  0
 20 19  2  0  0  0  0
 21 19  1  0  0  0  0
 21 28  1  0  0  0  0
 22 24  1  0  0  0  0
 22 21  2  0  0  0  0
 23 22  1  0  0  0  0
 24 26  2  0  0  0  0
 25 24  1  0  0  0  0
 26 27  1  0  0  0  0
 28 27  2  0  0  0  0
M  END
>  <minimizedAffinity>
-5.01768255

$$$$

 OpenBabel03272507313D

 28 30  0  0  0  0  0  0  0  0999 V2000
   37.3310   26.3700   33.6390 C   0  0  0  0  0  0  0  0  0  0  0  0
   37.7390   27.3740   34.4570 C   0  0  0  0  0  0  0  0  0  0  0  0
   38.1430   26.8050   35.6750 C   0  0  0  0  0  0  0  0  0  0  0  0
   37.9400   25.4360   35.4980 C   0  0  0  0  0  0  0  0  0  0  0  0
   37.4710   25.2500   34.3040 O   0  0  0  0  0  0  0  0  0  0  0  0
   37.7940   28.4610   34.3170 H   0  0  0  0  0  0  0  0  0  0  0  0
   38.5240   27.3230   36.5480 H   0  0  0  0  0  0  0  0  0  0  0  0
   36.8440   26.6050   32.2900 C   0  0  0  0  0  0  0  0  0  0  0  0
   36.8850   25.6670   31.4710 O   0  0  0  0  0  0  0  0  0  0  0  0
   36.3410   27.9240   31.9870 C   0  0  0  0  0  0  0  0  0  0  0  0
   37.0980   28.7040   31.1220 C   0  0  0  0  0  0  0  0  0  0  0  0
   36.6440   29.9830   30.8070 C   0  0  0  0  0  0  0  0  0  0  0  0
   35.4700   30.4040   31.3710 N   0  0  0  0  0  0  0  0  0  0  0  0
   34.7630   29.6330   32.1980 C   0  0  0  0  0  0  0  0  0  0  0  0
   35.1980   28.3970   32.5050 N   0  0  0  0  0  0  0  0  0  0  0  0
   38.0130   28.4400   30.6520 H   0  0  0  0  0  0  0  0  0  0  0  0
   37.1900   30.6500   30.1330 H   0  0  0  0  0  0  0  0  0  0  0  0
   33.8350   30.0640   32.5970 H   0  0  0  0  0  0  0  0  0  0  0  0
   38.2230   24.4170   36.5160 C   0  0  0  0  0  0  0  0  0  0  0  0
   37.3580   24.1470   37.3950 O   0  0  0  0  0  0  0  0  0  0  0  0
   39.4820   23.7180   36.5230 C   0  0  0  0  0  0  0  0  0  0  0  0
   39.7340   22.7690   37.4910 C   0  0  0  0  0  0  0  0  0  0  0  0
   39.0160   22.5110   38.2690 H   0  0  0  0  0  0  0  0  0  0  0  0
   40.9610   22.1310   37.4450 C   0  0  0  0  0  0  0  0  0  0  0  0
   41.1580   21.3760   38.2180 H   0  0  0  0  0  0  0  0  0  0  0  0
   41.9380   22.3940   36.4890 C   0  0  0  0  0  3  0  0  0  0  0  0
   41.6080   23.3510   35.5630 C   0  0  0  0  0  3  0  0  0  0  0  0
   40.4160   24.0010   35.5710 N   0  0  0  0  0  0  0  0  0  0  0  0
  1  5  1  0  0  0  0
  1  2  2  0  0  0  0
  2  3  1  0  0  0  0
  3  7  1  0  0  0  0
  4  3  2  0  0  0  0
  4 19  1  0  0  0  0
  5  4  1  0  0  0  0
  6  2  1  0  0  0  0
  8  1  1  0  0  0  0
  9  8  2  0  0  0  0
 10  8  1  0  0  0  0
 10 15  1  0  0  0  0
 11 10  2  0  0  0  0
 12 11  1  0  0  0  0
 12 13  2  0  0  0  0
 13 14  1  0  0  0  0
 14 15  2  0  0  0  0
 14 18  1  0  0  0  0
 16 11  1  0  0  0  0
 17 12  1  0  0  0  0
 19 21  1  0  0  0  0
 19 20  2  0  0  0  0
 21 22  1  0  0  0  0
 22 23  1  0  0  0  0
 24 22  2  0  0  0  0
 24 25  1  0  0  0  0
 26 24  1  0  0  0  0
 27 28  1  0  0  0  0
 27 26  2  0  0  0  0
 28 21  2  0  0  0  0
M  END
>  <minimizedAffinity>
-5.00545168

$$$$
