
 OpenBabel03272509293D

 37 39  0  0  1  0  0  0  0  0999 V2000
   36.4140   30.7600   49.0010 C   0  0  2  0  0  0  0  0  0  0  0  0
   37.4360   31.5880   49.7190 C   0  0  0  0  0  0  0  0  0  0  0  0
   38.3040   30.7720   50.6540 C   0  0  0  0  0  0  0  0  0  0  0  0
   37.4340   30.0410   51.6740 C   0  0  0  0  0  0  0  0  0  0  0  0
   36.1480   29.5030   51.1050 C   0  0  0  0  0  0  0  0  0  0  0  0
   36.2980   29.3850   49.5770 C   0  0  1  0  0  0  0  0  0  0  0  0
   35.3680   31.1880   49.0490 H   0  0  0  0  0  0  0  0  0  0  0  0
   36.8210   32.2320   50.4340 H   0  0  0  0  0  0  0  0  0  0  0  0
   37.9990   32.2920   49.1370 H   0  0  0  0  0  0  0  0  0  0  0  0
   38.9130   31.4900   51.2080 H   0  0  0  0  0  0  0  0  0  0  0  0
   38.9130   30.0110   50.1520 H   0  0  0  0  0  0  0  0  0  0  0  0
   38.0400   29.2120   52.0740 H   0  0  0  0  0  0  0  0  0  0  0  0
   37.2290   30.7310   52.5100 H   0  0  0  0  0  0  0  0  0  0  0  0
   35.3340   30.2250   51.2940 H   0  0  0  0  0  0  0  0  0  0  0  0
   35.9150   28.5040   51.5290 H   0  0  0  0  0  0  0  0  0  0  0  0
   37.2290   28.8740   49.5150 H   0  0  0  0  0  0  0  0  0  0  0  0
   36.7350   30.6420   47.5560 C   0  0  0  0  0  0  0  0  0  0  0  0
   38.0930   30.8150   47.2210 C   0  0  0  0  0  0  0  0  0  0  0  0
   38.4210   30.7050   45.8650 C   0  0  0  0  0  0  0  0  0  0  0  0
   37.4220   30.4400   44.9560 N   0  0  0  0  0  0  0  0  0  0  0  0
   36.1130   30.2790   45.3390 C   0  0  0  0  0  0  0  0  0  0  0  0
   35.7950   30.3850   46.6410 N   0  0  0  0  0  0  0  0  0  0  0  0
   38.9560   31.0130   47.8240 H   0  0  0  0  0  0  0  0  0  0  0  0
   39.4140   30.8130   45.4690 H   0  0  0  0  0  0  0  0  0  0  0  0
   35.3690   30.0720   44.5810 H   0  0  0  0  0  0  0  0  0  0  0  0
   33.9480   28.4990   49.2030 C   0  0  0  0  0  0  0  0  0  0  0  0
   33.2070   29.2160   49.9610 O   0  0  0  0  0  0  0  0  0  0  0  0
   35.3440   28.5480   48.9480 N   0  0  0  0  0  0  0  0  0  0  0  0
   35.6670   27.8630   48.1900 H   0  0  0  0  0  0  0  0  0  0  0  0
   33.1390   27.4640   48.5090 C   0  0  0  0  0  0  0  0  0  0  0  0
   31.7680   27.3960   48.5550 C   0  0  0  0  0  0  0  0  0  0  0  0
   31.2360   28.1490   49.1360 H   0  0  0  0  0  0  0  0  0  0  0  0
   31.0190   26.4450   47.9160 C   0  0  0  0  0  0  0  0  0  0  0  0
   29.9370   26.4460   47.9920 H   0  0  0  0  0  0  0  0  0  0  0  0
   31.6530   25.4860   47.1790 C   0  0  0  0  0  3  0  0  0  0  0  0
   33.0300   25.5330   47.1170 C   0  0  0  0  0  3  0  0  0  0  0  0
   33.7070   26.4960   47.7680 N   0  0  0  0  0  0  0  0  0  0  0  0
  1  7  1  1  0  0  0
  1  6  1  0  0  0  0
  1  2  1  0  0  0  0
  2  8  1  0  0  0  0
  2  3  1  0  0  0  0
  3 10  1  0  0  0  0
  3  4  1  0  0  0  0
  4 12  1  0  0  0  0
  4 13  1  0  0  0  0
  5 14  1  0  0  0  0
  5 15  1  0  0  0  0
  5  4  1  0  0  0  0
  6 16  1  6  0  0  0
  6  5  1  0  0  0  0
  9  2  1  0  0  0  0
 11  3  1  0  0  0  0
 17  1  1  0  0  0  0
 18 17  1  0  0  0  0
 18 23  1  0  0  0  0
 19 18  2  0  0  0  0
 20 21  2  0  0  0  0
 20 19  1  0  0  0  0
 21 22  1  0  0  0  0
 22 17  2  0  0  0  0
 24 19  1  0  0  0  0
 25 21  1  0  0  0  0
 26 27  2  0  0  0  0
 28 26  1  0  0  0  0
 28  6  1  0  0  0  0
 29 28  1  0  0  0  0
 30 31  1  0  0  0  0
 30 26  1  0  0  0  0
 31 32  1  0  0  0  0
 33 34  1  0  0  0  0
 33 31  2  0  0  0  0
 35 33  1  0  0  0  0
 36 35  2  0  0  0  0
 36 37  1  0  0  0  0
 37 30  2  0  0  0  0
M  END
>  <minimizedAffinity>
-5.99941015

>  <minimizedRMSD>
0.575380623

$$$$
