
 OpenBabel03272507303D

 28 30  0  0  0  0  0  0  0  0999 V2000
   35.9310   29.2600   49.8130 C   0  0  0  0  0  0  0  0  0  0  0  0
   34.9650   29.7240   50.6480 C   0  0  0  0  0  0  0  0  0  0  0  0
   33.7360   29.1920   50.2270 C   0  0  0  0  0  0  0  0  0  0  0  0
   34.0610   28.4110   49.1180 C   0  0  0  0  0  0  0  0  0  0  0  0
   35.3410   28.4920   48.9310 O   0  0  0  0  0  0  0  0  0  0  0  0
   35.0040   30.3880   51.5190 H   0  0  0  0  0  0  0  0  0  0  0  0
   32.7620   29.3590   50.6730 H   0  0  0  0  0  0  0  0  0  0  0  0
   37.3330   29.6150   49.9590 C   0  0  0  0  0  0  0  0  0  0  0  0
   38.0040   29.0370   50.8350 O   0  0  0  0  0  0  0  0  0  0  0  0
   37.8570   30.6230   49.0690 C   0  0  0  0  0  0  0  0  0  0  0  0
   38.1980   31.8450   49.6330 C   0  0  0  0  0  0  0  0  0  0  0  0
   38.7070   32.8440   48.8050 C   0  0  0  0  0  0  0  0  0  0  0  0
   38.8440   32.5630   47.4720 N   0  0  0  0  0  0  0  0  0  0  0  0
   38.5090   31.3800   46.9580 C   0  0  0  0  0  0  0  0  0  0  0  0
   38.0170   30.4130   47.7540 N   0  0  0  0  0  0  0  0  0  0  0  0
   38.1170   32.1280   50.6540 H   0  0  0  0  0  0  0  0  0  0  0  0
   38.9960   33.8290   49.1840 H   0  0  0  0  0  0  0  0  0  0  0  0
   38.6580   31.2560   45.8770 H   0  0  0  0  0  0  0  0  0  0  0  0
   33.0880   27.6460   48.3280 C   0  0  0  0  0  0  0  0  0  0  0  0
   31.8720   27.6340   48.6660 O   0  0  0  0  0  0  0  0  0  0  0  0
   33.5080   26.9050   47.1670 C   0  0  0  0  0  0  0  0  0  0  0  0
   33.7920   25.5600   47.2780 C   0  0  0  0  0  0  0  0  0  0  0  0
   33.7140   25.0140   48.2180 H   0  0  0  0  0  0  0  0  0  0  0  0
   34.1900   24.9030   46.1280 C   0  0  0  0  0  0  0  0  0  0  0  0
   34.4160   23.8310   46.2210 H   0  0  0  0  0  0  0  0  0  0  0  0
   34.3170   25.5170   44.8850 C   0  0  0  0  0  0  0  0  0  0  0  0
   34.0160   26.8550   44.8620 C   0  0  0  0  0  0  0  0  0  0  0  0
   33.6210   27.5390   45.9660 N   0  0  0  0  0  0  0  0  0  0  0  0
  1  8  1  0  0  0  0
  1  2  2  0  0  0  0
  2  6  1  0  0  0  0
  3  2  1  0  0  0  0
  3  7  1  0  0  0  0
  4  3  2  0  0  0  0
  5  4  1  0  0  0  0
  5  1  1  0  0  0  0
  8  9  2  0  0  0  0
 10 11  1  0  0  0  0
 10  8  1  0  0  0  0
 11 16  1  0  0  0  0
 12 17  1  0  0  0  0
 12 11  2  0  0  0  0
 13 12  1  0  0  0  0
 14 13  2  0  0  0  0
 14 15  1  0  0  0  0
 15 10  2  0  0  0  0
 18 14  1  0  0  0  0
 19 20  2  0  0  0  0
 19  4  1  0  0  0  0
 21 22  1  0  0  0  0
 21 19  1  0  0  0  0
 22 23  1  0  0  0  0
 24 25  1  0  0  0  0
 24 22  2  0  0  0  0
 26 24  1  0  0  0  0
 27 26  2  0  0  0  0
 27 28  1  0  0  0  0
 28 21  2  0  0  0  0
M  END
>  <minimizedAffinity>
-5.27200317

>  <minimizedRMSD>
1.21560454

$$$$
