
 OpenBabel03272505083D

 28 30  0  0  0  0  0  0  0  0999 V2000
   36.3410   30.8640   45.7590 Cl  0  0  0  0  0  0  0  0  0  0  0  0
   36.6760   30.7090   47.4750 C   0  0  0  0  0  0  0  0  0  0  0  0
   37.9390   31.0340   47.8740 C   0  0  0  0  0  0  0  0  0  0  0  0
   38.2320   30.9180   49.2400 C   0  0  0  0  0  0  0  0  0  0  0  0
   37.2730   30.4940   50.1110 C   0  0  0  0  0  0  0  0  0  0  0  0
   36.0160   30.1850   49.6250 C   0  0  0  0  0  0  0  0  0  0  0  0
   35.6580   30.2750   48.2950 C   0  0  0  0  0  0  0  0  0  0  0  0
   39.2340   31.1730   49.5740 H   0  0  0  0  0  0  0  0  0  0  0  0
   37.5160   30.4100   51.1630 H   0  0  0  0  0  0  0  0  0  0  0  0
   35.2590   29.8460   50.3380 H   0  0  0  0  0  0  0  0  0  0  0  0
   40.1670   33.2570   46.0210 C   0  0  0  0  0  0  0  0  0  0  0  0
   40.8490   32.4000   45.1390 C   0  0  0  0  0  0  0  0  0  0  0  0
   40.5270   31.0520   45.1970 C   0  0  0  0  0  0  0  0  0  0  0  0
   39.5850   30.6420   46.0890 N   0  0  0  0  0  0  0  0  0  0  0  0
   38.9520   31.4870   46.9180 C   0  0  0  0  0  0  0  0  0  0  0  0
   39.2500   32.7980   46.8770 N   0  0  0  0  0  0  0  0  0  0  0  0
   40.4440   34.2990   45.9470 H   0  0  0  0  0  0  0  0  0  0  0  0
   41.5910   32.6520   44.4230 H   0  0  0  0  0  0  0  0  0  0  0  0
   40.9320   30.2350   44.6110 H   0  0  0  0  0  0  0  0  0  0  0  0
   34.0560   29.8820   47.6600 S   0  0  0  0  0  0  0  0  0  0  0  0
   33.9560   28.2060   47.0640 C   0  0  0  0  0  0  0  0  0  0  0  0
   33.8530   27.1470   47.9320 C   0  0  0  0  0  0  0  0  0  0  0  0
   33.8300   27.3100   49.0020 H   0  0  0  0  0  0  0  0  0  0  0  0
   33.7740   25.8310   47.4820 C   0  0  0  0  0  0  0  0  0  0  0  0
   33.6940   25.0020   48.1470 H   0  0  0  0  0  0  0  0  0  0  0  0
   33.8080   25.6950   46.1040 C   0  0  0  0  0  3  0  0  0  0  0  0
   33.9120   26.7690   45.2430 C   0  0  0  0  0  3  0  0  0  0  0  0
   33.9850   28.0270   45.7310 N   0  0  0  0  0  0  0  0  0  0  0  0
  1  2  1  0  0  0  0
  2  3  2  0  0  0  0
  2  7  1  0  0  0  0
  3  4  1  0  0  0  0
  4  8  1  0  0  0  0
  4  5  2  0  0  0  0
  5  9  1  0  0  0  0
  6  5  1  0  0  0  0
  6 10  1  0  0  0  0
  7  6  2  0  0  0  0
 11 16  1  0  0  0  0
 12 13  1  0  0  0  0
 12 11  2  0  0  0  0
 13 14  2  0  0  0  0
 14 15  1  0  0  0  0
 15  3  1  0  0  0  0
 16 15  2  0  0  0  0
 17 11  1  0  0  0  0
 18 12  1  0  0  0  0
 19 13  1  0  0  0  0
 20  7  1  0  0  0  0
 21 20  1  0  0  0  0
 21 22  1  0  0  0  0
 22 23  1  0  0  0  0
 24 22  2  0  0  0  0
 24 25  1  0  0  0  0
 26 24  1  0  0  0  0
 27 28  1  0  0  0  0
 27 26  2  0  0  0  0
 28 21  2  0  0  0  0
M  END
>  <minimizedAffinity>
-5.66121531

>  <minimizedRMSD>
1.05109835

$$$$
