
 OpenBabel03272505083D

 28 30  0  0  0  0  0  0  0  0999 V2000
   35.3880   30.2700   46.2790 Cl  0  0  0  0  0  0  0  0  0  0  0  0
   35.4700   29.7990   47.9690 C   0  0  0  0  0  0  0  0  0  0  0  0
   36.5790   30.2020   48.6530 C   0  0  0  0  0  0  0  0  0  0  0  0
   36.6670   29.8390   50.0040 C   0  0  0  0  0  0  0  0  0  0  0  0
   35.6700   29.1120   50.5830 C   0  0  0  0  0  0  0  0  0  0  0  0
   34.5780   28.7440   49.8190 C   0  0  0  0  0  0  0  0  0  0  0  0
   34.4250   29.0660   48.4860 C   0  0  0  0  0  0  0  0  0  0  0  0
   37.5440   30.1520   50.5640 H   0  0  0  0  0  0  0  0  0  0  0  0
   35.7540   28.8400   51.6280 H   0  0  0  0  0  0  0  0  0  0  0  0
   33.7880   28.1600   50.3000 H   0  0  0  0  0  0  0  0  0  0  0  0
   38.8600   32.9610   47.9280 C   0  0  0  0  0  0  0  0  0  0  0  0
   39.6150   32.5000   46.8350 C   0  0  0  0  0  0  0  0  0  0  0  0
   39.3240   31.2300   46.3590 C   0  0  0  0  0  0  0  0  0  0  0  0
   38.3400   30.5130   46.9650 N   0  0  0  0  0  0  0  0  0  0  0  0
   37.6360   30.9830   48.0080 C   0  0  0  0  0  0  0  0  0  0  0  0
   37.9030   32.2120   48.4850 N   0  0  0  0  0  0  0  0  0  0  0  0
   39.1150   33.9530   48.2710 H   0  0  0  0  0  0  0  0  0  0  0  0
   40.3930   33.0040   46.3170 H   0  0  0  0  0  0  0  0  0  0  0  0
   39.7840   30.6960   45.5350 H   0  0  0  0  0  0  0  0  0  0  0  0
   33.0360   28.6010   47.4960 S   0  0  0  0  0  0  0  0  0  0  0  0
   32.8670   26.8340   47.3530 C   0  0  0  0  0  0  0  0  0  0  0  0
   31.6330   26.2470   47.2030 C   0  0  0  0  0  0  0  0  0  0  0  0
   30.7350   26.8500   47.1700 H   0  0  0  0  0  0  0  0  0  0  0  0
   31.4850   24.8660   47.0890 C   0  0  0  0  0  0  0  0  0  0  0  0
   30.5310   24.4010   46.9740 H   0  0  0  0  0  0  0  0  0  0  0  0
   32.6720   24.1570   47.1400 C   0  0  0  0  0  3  0  0  0  0  0  0
   33.9040   24.7600   47.2900 C   0  0  0  0  0  3  0  0  0  0  0  0
   33.9960   26.1040   47.3960 N   0  0  0  0  0  0  0  0  0  0  0  0
  1  2  1  0  0  0  0
  2  7  2  0  0  0  0
  2  3  1  0  0  0  0
  3  4  2  0  0  0  0
  4  8  1  0  0  0  0
  4  5  1  0  0  0  0
  5  9  1  0  0  0  0
  6 10  1  0  0  0  0
  6  5  2  0  0  0  0
  7  6  1  0  0  0  0
 11 17  1  0  0  0  0
 11 16  1  0  0  0  0
 12 11  2  0  0  0  0
 13 12  1  0  0  0  0
 13 14  2  0  0  0  0
 14 15  1  0  0  0  0
 15 16  2  0  0  0  0
 15  3  1  0  0  0  0
 18 12  1  0  0  0  0
 19 13  1  0  0  0  0
 20  7  1  0  0  0  0
 21 28  1  0  0  0  0
 21 20  1  0  0  0  0
 22 21  2  0  0  0  0
 23 22  1  0  0  0  0
 24 26  2  0  0  0  0
 24 22  1  0  0  0  0
 25 24  1  0  0  0  0
 26 27  1  0  0  0  0
 27 28  2  0  0  0  0
M  END
>  <minimizedAffinity>
-5.09800768

>  <minimizedRMSD>
1.89267874

$$$$
