
 OpenBabel03272505083D

 28 30  0  0  0  0  0  0  0  0999 V2000
   36.3470   30.9030   45.8490 Cl  0  0  0  0  0  0  0  0  0  0  0  0
   36.7200   30.7780   47.5590 C   0  0  0  0  0  0  0  0  0  0  0  0
   37.9950   31.1000   47.9230 C   0  0  0  0  0  0  0  0  0  0  0  0
   38.3170   31.0090   49.2840 C   0  0  0  0  0  0  0  0  0  0  0  0
   37.3740   30.6110   50.1850 C   0  0  0  0  0  0  0  0  0  0  0  0
   36.1040   30.3030   49.7340 C   0  0  0  0  0  0  0  0  0  0  0  0
   35.7170   30.3700   48.4110 C   0  0  0  0  0  0  0  0  0  0  0  0
   39.3280   31.2610   49.5910 H   0  0  0  0  0  0  0  0  0  0  0  0
   37.6400   30.5450   51.2330 H   0  0  0  0  0  0  0  0  0  0  0  0
   35.3600   29.9860   50.4700 H   0  0  0  0  0  0  0  0  0  0  0  0
   40.1970   33.2660   45.9740 C   0  0  0  0  0  0  0  0  0  0  0  0
   40.8540   32.3840   45.0970 C   0  0  0  0  0  0  0  0  0  0  0  0
   40.5240   31.0400   45.1920 C   0  0  0  0  0  0  0  0  0  0  0  0
   39.5990   30.6560   46.1130 N   0  0  0  0  0  0  0  0  0  0  0  0
   38.9900   31.5250   46.9360 C   0  0  0  0  0  0  0  0  0  0  0  0
   39.2950   32.8320   46.8590 N   0  0  0  0  0  0  0  0  0  0  0  0
   40.4780   34.3040   45.8710 H   0  0  0  0  0  0  0  0  0  0  0  0
   41.5820   32.6150   44.3600 H   0  0  0  0  0  0  0  0  0  0  0  0
   40.9110   30.2070   44.6160 H   0  0  0  0  0  0  0  0  0  0  0  0
   34.0970   29.9790   47.8200 S   0  0  0  0  0  0  0  0  0  0  0  0
   34.0000   28.3330   47.1480 C   0  0  0  0  0  0  0  0  0  0  0  0
   33.9150   27.2340   47.9680 C   0  0  0  0  0  0  0  0  0  0  0  0
   33.9040   27.3480   49.0450 H   0  0  0  0  0  0  0  0  0  0  0  0
   33.8390   25.9400   47.4580 C   0  0  0  0  0  0  0  0  0  0  0  0
   33.7720   25.0800   48.0860 H   0  0  0  0  0  0  0  0  0  0  0  0
   33.8580   25.8670   46.0760 C   0  0  0  0  0  0  0  0  0  0  0  0
   33.9440   26.9790   45.2640 C   0  0  0  0  0  0  0  0  0  0  0  0
   34.0160   28.2150   45.8080 N   0  0  0  0  0  0  0  0  0  0  0  0
  1  2  1  0  0  0  0
  2  3  2  0  0  0  0
  2  7  1  0  0  0  0
  3  4  1  0  0  0  0
  4  8  1  0  0  0  0
  4  5  2  0  0  0  0
  5  9  1  0  0  0  0
  6  5  1  0  0  0  0
  6 10  1  0  0  0  0
  7  6  2  0  0  0  0
 11 16  1  0  0  0  0
 12 13  1  0  0  0  0
 12 11  2  0  0  0  0
 13 14  2  0  0  0  0
 14 15  1  0  0  0  0
 15  3  1  0  0  0  0
 16 15  2  0  0  0  0
 17 11  1  0  0  0  0
 18 12  1  0  0  0  0
 19 13  1  0  0  0  0
 20  7  1  0  0  0  0
 21 20  1  0  0  0  0
 21 22  1  0  0  0  0
 22 23  1  0  0  0  0
 24 22  2  0  0  0  0
 24 25  1  0  0  0  0
 26 24  1  0  0  0  0
 27 28  1  0  0  0  0
 27 26  2  0  0  0  0
 28 21  2  0  0  0  0
M  END
>  <minimizedAffinity>
-5.66219997

>  <minimizedRMSD>
1.06980801

$$$$
