
 OpenBabel03272505093D

 28 30  0  0  0  0  0  0  0  0999 V2000
   38.5890   21.5470   33.6260 Cl  0  0  0  0  0  0  0  0  0  0  0  0
   37.5580   22.7560   32.8780 C   0  0  0  0  0  0  0  0  0  0  0  0
   36.5180   22.2830   32.1330 C   0  0  0  0  0  0  0  0  0  0  0  0
   35.6800   23.2290   31.5270 C   0  0  0  0  0  0  0  0  0  0  0  0
   35.9210   24.5610   31.6910 C   0  0  0  0  0  0  0  0  0  0  0  0
   36.9980   24.9570   32.4630 C   0  0  0  0  0  0  0  0  0  0  0  0
   37.8620   24.0830   33.0890 C   0  0  0  0  0  0  0  0  0  0  0  0
   34.8470   22.8700   30.9290 H   0  0  0  0  0  0  0  0  0  0  0  0
   35.2650   25.2790   31.2150 H   0  0  0  0  0  0  0  0  0  0  0  0
   37.1760   26.0300   32.5840 H   0  0  0  0  0  0  0  0  0  0  0  0
   36.5720   18.9310   30.6850 C   0  0  0  0  0  0  0  0  0  0  0  0
   35.8640   18.1470   31.6140 C   0  0  0  0  0  0  0  0  0  0  0  0
   35.3740   18.7930   32.7390 C   0  0  0  0  0  0  0  0  0  0  0  0
   35.6000   20.1270   32.8780 N   0  0  0  0  0  0  0  0  0  0  0  0
   36.2800   20.8470   31.9720 C   0  0  0  0  0  0  0  0  0  0  0  0
   36.7640   20.2400   30.8740 N   0  0  0  0  0  0  0  0  0  0  0  0
   36.9380   18.3940   29.8220 H   0  0  0  0  0  0  0  0  0  0  0  0
   35.6530   17.1080   31.5670 H   0  0  0  0  0  0  0  0  0  0  0  0
   34.8090   18.3760   33.5650 H   0  0  0  0  0  0  0  0  0  0  0  0
   39.2430   24.5750   34.0780 S   0  0  0  0  0  0  0  0  0  0  0  0
   39.0550   24.1030   35.7850 C   0  0  0  0  0  0  0  0  0  0  0  0
   38.0150   24.5800   36.5440 C   0  0  0  0  0  0  0  0  0  0  0  0
   37.2840   25.2560   36.1170 H   0  0  0  0  0  0  0  0  0  0  0  0
   37.8550   24.2210   37.8810 C   0  0  0  0  0  0  0  0  0  0  0  0
   37.0500   24.5860   38.4790 H   0  0  0  0  0  0  0  0  0  0  0  0
   38.8230   23.3570   38.3620 C   0  0  0  0  0  3  0  0  0  0  0  0
   39.8630   22.8850   37.5870 C   0  0  0  0  0  3  0  0  0  0  0  0
   39.9750   23.2630   36.2940 N   0  0  0  0  0  0  0  0  0  0  0  0
  2  7  1  0  0  0  0
  2  1  1  0  0  0  0
  3  2  2  0  0  0  0
  4  5  2  0  0  0  0
  4  3  1  0  0  0  0
  5  6  1  0  0  0  0
  6 10  1  0  0  0  0
  6  7  2  0  0  0  0
  7 20  1  0  0  0  0
  8  4  1  0  0  0  0
  9  5  1  0  0  0  0
 11 16  2  0  0  0  0
 11 12  1  0  0  0  0
 12 13  2  0  0  0  0
 13 14  1  0  0  0  0
 13 19  1  0  0  0  0
 15  3  1  0  0  0  0
 15 14  2  0  0  0  0
 16 15  1  0  0  0  0
 17 11  1  0  0  0  0
 18 12  1  0  0  0  0
 20 21  1  0  0  0  0
 21 28  2  0  0  0  0
 21 22  1  0  0  0  0
 22 24  2  0  0  0  0
 23 22  1  0  0  0  0
 24 26  1  0  0  0  0
 24 25  1  0  0  0  0
 27 26  2  0  0  0  0
 28 27  1  0  0  0  0
M  END
>  <minimizedAffinity>
-5.38268375

$$$$

 OpenBabel03272505093D

 28 30  0  0  0  0  0  0  0  0999 V2000
   38.7310   26.7660   33.0520 Cl  0  0  0  0  0  0  0  0  0  0  0  0
   37.6400   25.5050   32.5050 C   0  0  0  0  0  0  0  0  0  0  0  0
   36.5440   25.9180   31.8060 C   0  0  0  0  0  0  0  0  0  0  0  0
   35.6570   24.9290   31.3580 C   0  0  0  0  0  0  0  0  0  0  0  0
   35.9060   23.6160   31.6260 C   0  0  0  0  0  0  0  0  0  0  0  0
   37.0410   23.2800   32.3410 C   0  0  0  0  0  0  0  0  0  0  0  0
   37.9560   24.2000   32.8120 C   0  0  0  0  0  0  0  0  0  0  0  0
   34.7790   25.2400   30.8000 H   0  0  0  0  0  0  0  0  0  0  0  0
   35.2110   22.8640   31.2730 H   0  0  0  0  0  0  0  0  0  0  0  0
   37.2250   22.2220   32.5470 H   0  0  0  0  0  0  0  0  0  0  0  0
   36.6550   29.1660   30.1400 C   0  0  0  0  0  0  0  0  0  0  0  0
   35.8750   29.9980   30.9620 C   0  0  0  0  0  0  0  0  0  0  0  0
   35.3140   29.4200   32.0920 C   0  0  0  0  0  0  0  0  0  0  0  0
   35.5480   28.1020   32.3380 N   0  0  0  0  0  0  0  0  0  0  0  0
   36.2990   27.3350   31.5310 C   0  0  0  0  0  0  0  0  0  0  0  0
   36.8520   27.8770   30.4310 N   0  0  0  0  0  0  0  0  0  0  0  0
   37.0750   29.6510   29.2700 H   0  0  0  0  0  0  0  0  0  0  0  0
   35.6530   31.0270   30.8300 H   0  0  0  0  0  0  0  0  0  0  0  0
   34.6870   29.8810   32.8460 H   0  0  0  0  0  0  0  0  0  0  0  0
   39.4110   23.7860   33.7270 S   0  0  0  0  0  0  0  0  0  0  0  0
   39.1030   23.6820   35.4790 C   0  0  0  0  0  0  0  0  0  0  0  0
   38.0580   24.3600   36.0580 C   0  0  0  0  0  0  0  0  0  0  0  0
   37.3980   24.9740   35.4590 H   0  0  0  0  0  0  0  0  0  0  0  0
   37.8040   24.2890   37.4260 C   0  0  0  0  0  0  0  0  0  0  0  0
   36.9960   24.8110   37.8860 H   0  0  0  0  0  0  0  0  0  0  0  0
   38.6850   23.4880   38.1310 C   0  0  0  0  0  3  0  0  0  0  0  0
   39.7310   22.8120   37.5360 C   0  0  0  0  0  3  0  0  0  0  0  0
   39.9360   22.9130   36.2040 N   0  0  0  0  0  0  0  0  0  0  0  0
  2  7  1  0  0  0  0
  2  1  1  0  0  0  0
  3  2  2  0  0  0  0
  4  5  2  0  0  0  0
  4  3  1  0  0  0  0
  5  6  1  0  0  0  0
  6 10  1  0  0  0  0
  6  7  2  0  0  0  0
  7 20  1  0  0  0  0
  8  4  1  0  0  0  0
  9  5  1  0  0  0  0
 11 16  2  0  0  0  0
 11 12  1  0  0  0  0
 12 13  2  0  0  0  0
 13 14  1  0  0  0  0
 13 19  1  0  0  0  0
 15  3  1  0  0  0  0
 15 14  2  0  0  0  0
 16 15  1  0  0  0  0
 17 11  1  0  0  0  0
 18 12  1  0  0  0  0
 20 21  1  0  0  0  0
 21 22  2  0  0  0  0
 21 28  1  0  0  0  0
 22 24  1  0  0  0  0
 23 22  1  0  0  0  0
 24 25  1  0  0  0  0
 24 26  2  0  0  0  0
 27 26  1  0  0  0  0
 28 27  2  0  0  0  0
M  END
>  <minimizedAffinity>
-5.23060799

$$$$

 OpenBabel03272505093D

 28 30  0  0  0  0  0  0  0  0999 V2000
   37.6130   24.4510   32.6740 Cl  0  0  0  0  0  0  0  0  0  0  0  0
   37.8890   25.3780   34.1390 C   0  0  0  0  0  0  0  0  0  0  0  0
   37.8190   26.7340   34.0160 C   0  0  0  0  0  0  0  0  0  0  0  0
   38.0340   27.4970   35.1730 C   0  0  0  0  0  0  0  0  0  0  0  0
   38.3030   26.8790   36.3580 C   0  0  0  0  0  0  0  0  0  0  0  0
   38.3560   25.4980   36.3980 C   0  0  0  0  0  0  0  0  0  0  0  0
   38.1540   24.6860   35.3010 C   0  0  0  0  0  0  0  0  0  0  0  0
   37.9830   28.5790   35.0920 H   0  0  0  0  0  0  0  0  0  0  0  0
   38.4680   27.4830   37.2420 H   0  0  0  0  0  0  0  0  0  0  0  0
   38.5730   25.0200   37.3570 H   0  0  0  0  0  0  0  0  0  0  0  0
   35.9470   28.3140   31.3070 C   0  0  0  0  0  0  0  0  0  0  0  0
   36.9210   28.5790   30.3290 C   0  0  0  0  0  0  0  0  0  0  0  0
   38.2250   28.2050   30.6210 C   0  0  0  0  0  0  0  0  0  0  0  0
   38.4830   27.6120   31.8180 N   0  0  0  0  0  0  0  0  0  0  0  0
   37.5290   27.3730   32.7310 C   0  0  0  0  0  0  0  0  0  0  0  0
   36.2580   27.7280   32.4670 N   0  0  0  0  0  0  0  0  0  0  0  0
   34.9440   28.6190   31.0450 H   0  0  0  0  0  0  0  0  0  0  0  0
   36.7890   29.0360   29.3800 H   0  0  0  0  0  0  0  0  0  0  0  0
   39.1130   28.3190   30.0100 H   0  0  0  0  0  0  0  0  0  0  0  0
   38.2190   22.9200   35.3370 S   0  0  0  0  0  0  0  0  0  0  0  0
   39.8350   22.3100   35.7730 C   0  0  0  0  0  0  0  0  0  0  0  0
   40.2040   22.1520   37.0860 C   0  0  0  0  0  0  0  0  0  0  0  0
   39.5170   22.3950   37.8870 H   0  0  0  0  0  0  0  0  0  0  0  0
   41.4650   21.6770   37.4430 C   0  0  0  0  0  0  0  0  0  0  0  0
   41.7620   21.5500   38.4600 H   0  0  0  0  0  0  0  0  0  0  0  0
   42.2920   21.3850   36.3730 C   0  0  0  0  0  3  0  0  0  0  0  0
   41.9070   21.5490   35.0570 C   0  0  0  0  0  3  0  0  0  0  0  0
   40.6730   22.0140   34.7620 N   0  0  0  0  0  0  0  0  0  0  0  0
  1  2  1  0  0  0  0
  2  7  1  0  0  0  0
  3  2  2  0  0  0  0
  3  4  1  0  0  0  0
  4  5  2  0  0  0  0
  5  6  1  0  0  0  0
  5  9  1  0  0  0  0
  6 10  1  0  0  0  0
  7 20  1  0  0  0  0
  7  6  2  0  0  0  0
  8  4  1  0  0  0  0
 11 16  1  0  0  0  0
 12 13  1  0  0  0  0
 12 11  2  0  0  0  0
 13 14  2  0  0  0  0
 14 15  1  0  0  0  0
 15  3  1  0  0  0  0
 16 15  2  0  0  0  0
 17 11  1  0  0  0  0
 18 12  1  0  0  0  0
 19 13  1  0  0  0  0
 20 21  1  0  0  0  0
 21 22  1  0  0  0  0
 22 24  2  0  0  0  0
 22 23  1  0  0  0  0
 24 25  1  0  0  0  0
 26 24  1  0  0  0  0
 27 26  2  0  0  0  0
 28 27  1  0  0  0  0
 28 21  2  0  0  0  0
M  END
>  <minimizedAffinity>
-5.07253695

$$$$

 OpenBabel03272505093D

 28 30  0  0  0  0  0  0  0  0999 V2000
   39.2280   26.4250   34.9920 Cl  0  0  0  0  0  0  0  0  0  0  0  0
   38.6170   25.1610   33.9380 C   0  0  0  0  0  0  0  0  0  0  0  0
   38.3260   23.9690   34.5330 C   0  0  0  0  0  0  0  0  0  0  0  0
   37.8360   22.9430   33.7120 C   0  0  0  0  0  0  0  0  0  0  0  0
   37.6690   23.1580   32.3760 C   0  0  0  0  0  0  0  0  0  0  0  0
   37.9880   24.3970   31.8510 C   0  0  0  0  0  0  0  0  0  0  0  0
   38.4740   25.4500   32.5990 C   0  0  0  0  0  0  0  0  0  0  0  0
   37.6000   21.9870   34.1700 H   0  0  0  0  0  0  0  0  0  0  0  0
   37.2900   22.3550   31.7560 H   0  0  0  0  0  0  0  0  0  0  0  0
   37.8480   24.5520   30.7770 H   0  0  0  0  0  0  0  0  0  0  0  0
   39.8180   22.8810   37.6840 C   0  0  0  0  0  0  0  0  0  0  0  0
   38.9230   23.3450   38.6630 C   0  0  0  0  0  0  0  0  0  0  0  0
   37.8050   24.0350   38.2180 C   0  0  0  0  0  0  0  0  0  0  0  0
   37.6390   24.2200   36.8800 N   0  0  0  0  0  0  0  0  0  0  0  0
   38.5150   23.7630   35.9700 C   0  0  0  0  0  0  0  0  0  0  0  0
   39.6050   23.0920   36.3820 N   0  0  0  0  0  0  0  0  0  0  0  0
   40.6760   22.3480   38.0680 H   0  0  0  0  0  0  0  0  0  0  0  0
   38.9900   23.2360   39.7170 H   0  0  0  0  0  0  0  0  0  0  0  0
   37.0030   24.4700   38.8030 H   0  0  0  0  0  0  0  0  0  0  0  0
   38.8860   27.0390   31.9410 S   0  0  0  0  0  0  0  0  0  0  0  0
   37.4780   28.1290   31.8700 C   0  0  0  0  0  0  0  0  0  0  0  0
   36.5780   28.1940   32.9050 C   0  0  0  0  0  0  0  0  0  0  0  0
   36.7060   27.5820   33.7890 H   0  0  0  0  0  0  0  0  0  0  0  0
   35.4720   29.0410   32.8650 C   0  0  0  0  0  0  0  0  0  0  0  0
   34.7660   29.0990   33.6630 H   0  0  0  0  0  0  0  0  0  0  0  0
   35.3690   29.7940   31.7080 C   0  0  0  0  0  3  0  0  0  0  0  0
   36.2820   29.7180   30.6760 C   0  0  0  0  0  3  0  0  0  0  0  0
   37.3390   28.8800   30.7630 N   0  0  0  0  0  0  0  0  0  0  0  0
  2  3  1  0  0  0  0
  2  1  1  0  0  0  0
  3 15  1  0  0  0  0
  4  8  1  0  0  0  0
  4  3  2  0  0  0  0
  5  4  1  0  0  0  0
  6  5  2  0  0  0  0
  6  7  1  0  0  0  0
  7  2  2  0  0  0  0
  9  5  1  0  0  0  0
 10  6  1  0  0  0  0
 11 17  1  0  0  0  0
 11 12  1  0  0  0  0
 12 18  1  0  0  0  0
 13 12  2  0  0  0  0
 13 19  1  0  0  0  0
 14 13  1  0  0  0  0
 15 16  1  0  0  0  0
 15 14  2  0  0  0  0
 16 11  2  0  0  0  0
 20  7  1  0  0  0  0
 21 20  1  0  0  0  0
 21 22  1  0  0  0  0
 22 23  1  0  0  0  0
 24 22  2  0  0  0  0
 24 25  1  0  0  0  0
 26 24  1  0  0  0  0
 27 28  1  0  0  0  0
 27 26  2  0  0  0  0
 28 21  2  0  0  0  0
M  END
>  <minimizedAffinity>
-4.92713594

$$$$

 OpenBabel03272505093D

 28 30  0  0  0  0  0  0  0  0999 V2000
   36.6550   27.7090   34.8560 Cl  0  0  0  0  0  0  0  0  0  0  0  0
   36.5590   28.3710   33.2320 C   0  0  0  0  0  0  0  0  0  0  0  0
   35.8070   29.4990   33.0850 C   0  0  0  0  0  0  0  0  0  0  0  0
   35.7160   30.0470   31.7980 C   0  0  0  0  0  0  0  0  0  0  0  0
   36.3620   29.4540   30.7550 C   0  0  0  0  0  0  0  0  0  0  0  0
   37.1050   28.3110   30.9890 C   0  0  0  0  0  0  0  0  0  0  0  0
   37.2390   27.7180   32.2280 C   0  0  0  0  0  0  0  0  0  0  0  0
   35.1200   30.9450   31.6630 H   0  0  0  0  0  0  0  0  0  0  0  0
   36.2810   29.8890   29.7670 H   0  0  0  0  0  0  0  0  0  0  0  0
   37.6180   27.8480   30.1410 H   0  0  0  0  0  0  0  0  0  0  0  0
   33.1720   30.3280   35.4740 C   0  0  0  0  0  0  0  0  0  0  0  0
   33.7800   31.2490   36.3460 C   0  0  0  0  0  0  0  0  0  0  0  0
   35.1050   31.5750   36.0940 C   0  0  0  0  0  0  0  0  0  0  0  0
   35.7310   30.9940   35.0350 N   0  0  0  0  0  0  0  0  0  0  0  0
   35.1220   30.1170   34.2220 C   0  0  0  0  0  0  0  0  0  0  0  0
   33.8370   29.7890   34.4490 N   0  0  0  0  0  0  0  0  0  0  0  0
   32.1410   30.0990   35.7010 H   0  0  0  0  0  0  0  0  0  0  0  0
   33.3520   31.7370   37.1860 H   0  0  0  0  0  0  0  0  0  0  0  0
   35.7480   32.2550   36.6400 H   0  0  0  0  0  0  0  0  0  0  0  0
   38.1850   26.2580   32.5420 S   0  0  0  0  0  0  0  0  0  0  0  0
   37.2500   24.7690   32.2550 C   0  0  0  0  0  0  0  0  0  0  0  0
   36.1180   24.7810   31.4770 C   0  0  0  0  0  0  0  0  0  0  0  0
   35.7700   25.6990   31.0200 H   0  0  0  0  0  0  0  0  0  0  0  0
   35.3750   23.6260   31.2430 C   0  0  0  0  0  0  0  0  0  0  0  0
   34.4950   23.6230   30.6400 H   0  0  0  0  0  0  0  0  0  0  0  0
   35.8740   22.4890   31.8560 C   0  0  0  0  0  3  0  0  0  0  0  0
   37.0130   22.4930   32.6350 C   0  0  0  0  0  3  0  0  0  0  0  0
   37.6990   23.6400   32.8320 N   0  0  0  0  0  0  0  0  0  0  0  0
  2  1  1  0  0  0  0
  3  2  1  0  0  0  0
  3 15  1  0  0  0  0
  4  3  2  0  0  0  0
  5  6  2  0  0  0  0
  5  4  1  0  0  0  0
  6  7  1  0  0  0  0
  7 20  1  0  0  0  0
  7  2  2  0  0  0  0
  8  4  1  0  0  0  0
  9  5  1  0  0  0  0
 10  6  1  0  0  0  0
 11 17  1  0  0  0  0
 11 12  1  0  0  0  0
 12 18  1  0  0  0  0
 13 12  2  0  0  0  0
 13 19  1  0  0  0  0
 14 13  1  0  0  0  0
 15 16  1  0  0  0  0
 15 14  2  0  0  0  0
 16 11  2  0  0  0  0
 21 20  1  0  0  0  0
 21 28  1  0  0  0  0
 22 21  2  0  0  0  0
 23 22  1  0  0  0  0
 24 22  1  0  0  0  0
 24 26  2  0  0  0  0
 25 24  1  0  0  0  0
 26 27  1  0  0  0  0
 27 28  2  0  0  0  0
M  END
>  <minimizedAffinity>
-4.89831161

$$$$

 OpenBabel03272505093D

 28 30  0  0  0  0  0  0  0  0999 V2000
   38.2210   23.4510   33.6330 Cl  0  0  0  0  0  0  0  0  0  0  0  0
   38.0080   25.0810   34.2500 C   0  0  0  0  0  0  0  0  0  0  0  0
   38.5550   25.3380   35.4730 C   0  0  0  0  0  0  0  0  0  0  0  0
   38.3990   26.6330   35.9870 C   0  0  0  0  0  0  0  0  0  0  0  0
   37.7220   27.5750   35.2720 C   0  0  0  0  0  0  0  0  0  0  0  0
   37.1980   27.2330   34.0390 C   0  0  0  0  0  0  0  0  0  0  0  0
   37.3130   25.9810   33.4720 C   0  0  0  0  0  0  0  0  0  0  0  0
   38.8280   26.8540   36.9610 H   0  0  0  0  0  0  0  0  0  0  0  0
   37.6090   28.5710   35.6840 H   0  0  0  0  0  0  0  0  0  0  0  0
   36.6570   28.0020   33.4790 H   0  0  0  0  0  0  0  0  0  0  0  0
   39.3320   22.8670   38.0480 C   0  0  0  0  0  0  0  0  0  0  0  0
   40.5910   22.3670   37.6720 C   0  0  0  0  0  0  0  0  0  0  0  0
   41.1610   22.8950   36.5220 C   0  0  0  0  0  0  0  0  0  0  0  0
   40.4800   23.8520   35.8350 N   0  0  0  0  0  0  0  0  0  0  0  0
   39.2780   24.3080   36.2210 C   0  0  0  0  0  0  0  0  0  0  0  0
   38.7090   23.8090   37.3330 N   0  0  0  0  0  0  0  0  0  0  0  0
   38.9200   22.4330   38.9480 H   0  0  0  0  0  0  0  0  0  0  0  0
   41.1740   21.6260   38.1590 H   0  0  0  0  0  0  0  0  0  0  0  0
   42.1130   22.6490   36.0660 H   0  0  0  0  0  0  0  0  0  0  0  0
   36.6480   25.5290   31.8980 S   0  0  0  0  0  0  0  0  0  0  0  0
   37.9170   25.2830   30.6710 C   0  0  0  0  0  0  0  0  0  0  0  0
   38.1520   24.0430   30.1320 C   0  0  0  0  0  0  0  0  0  0  0  0
   37.5690   23.1850   30.4420 H   0  0  0  0  0  0  0  0  0  0  0  0
   39.1410   23.8340   29.1720 C   0  0  0  0  0  0  0  0  0  0  0  0
   39.3320   22.8750   28.7460 H   0  0  0  0  0  0  0  0  0  0  0  0
   39.8480   24.9710   28.8220 C   0  0  0  0  0  3  0  0  0  0  0  0
   39.6000   26.2120   29.3730 C   0  0  0  0  0  3  0  0  0  0  0  0
   38.6300   26.3630   30.3010 N   0  0  0  0  0  0  0  0  0  0  0  0
  1  2  1  0  0  0  0
  2  3  1  0  0  0  0
  3  4  2  0  0  0  0
  3 15  1  0  0  0  0
  4  8  1  0  0  0  0
  5  9  1  0  0  0  0
  5  4  1  0  0  0  0
  6  5  2  0  0  0  0
  7  6  1  0  0  0  0
  7  2  2  0  0  0  0
 10  6  1  0  0  0  0
 11 17  1  0  0  0  0
 12 11  1  0  0  0  0
 12 18  1  0  0  0  0
 13 12  2  0  0  0  0
 14 15  2  0  0  0  0
 14 13  1  0  0  0  0
 15 16  1  0  0  0  0
 16 11  2  0  0  0  0
 19 13  1  0  0  0  0
 20  7  1  0  0  0  0
 21 20  1  0  0  0  0
 22 23  1  0  0  0  0
 22 21  2  0  0  0  0
 24 22  1  0  0  0  0
 25 24  1  0  0  0  0
 26 24  2  0  0  0  0
 26 27  1  0  0  0  0
 27 28  2  0  0  0  0
 28 21  1  0  0  0  0
M  END
>  <minimizedAffinity>
-4.88501596

$$$$

 OpenBabel03272505093D

 28 30  0  0  0  0  0  0  0  0999 V2000
   39.0470   24.2290   33.5280 Cl  0  0  0  0  0  0  0  0  0  0  0  0
   37.8260   22.9760   33.3850 C   0  0  0  0  0  0  0  0  0  0  0  0
   37.5670   22.2550   34.5140 C   0  0  0  0  0  0  0  0  0  0  0  0
   36.5950   21.2490   34.4250 C   0  0  0  0  0  0  0  0  0  0  0  0
   35.9520   21.0220   33.2450 C   0  0  0  0  0  0  0  0  0  0  0  0
   36.2730   21.7980   32.1460 C   0  0  0  0  0  0  0  0  0  0  0  0
   37.2180   22.8040   32.1610 C   0  0  0  0  0  0  0  0  0  0  0  0
   36.3770   20.6650   35.3150 H   0  0  0  0  0  0  0  0  0  0  0  0
   35.2040   20.2400   33.1930 H   0  0  0  0  0  0  0  0  0  0  0  0
   35.7480   21.6020   31.2070 H   0  0  0  0  0  0  0  0  0  0  0  0
   40.2030   22.2580   37.0420 C   0  0  0  0  0  0  0  0  0  0  0  0
   39.6480   22.9820   38.1120 C   0  0  0  0  0  0  0  0  0  0  0  0
   38.3580   23.4640   37.9450 C   0  0  0  0  0  0  0  0  0  0  0  0
   37.7130   23.2130   36.7730 N   0  0  0  0  0  0  0  0  0  0  0  0
   38.2720   22.5180   35.7700 C   0  0  0  0  0  0  0  0  0  0  0  0
   39.5220   22.0420   35.9130 N   0  0  0  0  0  0  0  0  0  0  0  0
   41.2090   21.8990   37.2090 H   0  0  0  0  0  0  0  0  0  0  0  0
   40.0940   23.2130   39.0470 H   0  0  0  0  0  0  0  0  0  0  0  0
   37.7570   24.0390   38.6390 H   0  0  0  0  0  0  0  0  0  0  0  0
   37.6390   23.8030   30.7650 S   0  0  0  0  0  0  0  0  0  0  0  0
   37.2570   25.5240   31.0240 C   0  0  0  0  0  0  0  0  0  0  0  0
   36.0150   25.9190   31.4570 C   0  0  0  0  0  0  0  0  0  0  0  0
   35.2390   25.1890   31.6510 H   0  0  0  0  0  0  0  0  0  0  0  0
   35.7010   27.2610   31.6640 C   0  0  0  0  0  0  0  0  0  0  0  0
   34.7390   27.5780   32.0000 H   0  0  0  0  0  0  0  0  0  0  0  0
   36.7360   28.1390   31.3970 C   0  0  0  0  0  3  0  0  0  0  0  0
   37.9800   27.7280   30.9620 C   0  0  0  0  0  3  0  0  0  0  0  0
   38.2350   26.4140   30.7760 N   0  0  0  0  0  0  0  0  0  0  0  0
  2  1  1  0  0  0  0
  2  3  1  0  0  0  0
  3 15  1  0  0  0  0
  4  3  2  0  0  0  0
  4  8  1  0  0  0  0
  5  4  1  0  0  0  0
  6  7  1  0  0  0  0
  6  5  2  0  0  0  0
  7  2  2  0  0  0  0
  9  5  1  0  0  0  0
 10  6  1  0  0  0  0
 11 17  1  0  0  0  0
 11 12  1  0  0  0  0
 12 18  1  0  0  0  0
 13 12  2  0  0  0  0
 13 19  1  0  0  0  0
 14 13  1  0  0  0  0
 15 16  1  0  0  0  0
 15 14  2  0  0  0  0
 16 11  2  0  0  0  0
 20 21  1  0  0  0  0
 20  7  1  0  0  0  0
 21 22  1  0  0  0  0
 22 23  1  0  0  0  0
 22 24  2  0  0  0  0
 24 25  1  0  0  0  0
 26 24  1  0  0  0  0
 27 26  2  0  0  0  0
 28 27  1  0  0  0  0
 28 21  2  0  0  0  0
M  END
>  <minimizedAffinity>
-4.87467957

$$$$

 OpenBabel03272505093D

 28 30  0  0  0  0  0  0  0  0999 V2000
   36.1090   26.8410   31.4580 Cl  0  0  0  0  0  0  0  0  0  0  0  0
   36.8450   26.8500   33.0510 C   0  0  0  0  0  0  0  0  0  0  0  0
   37.5820   25.7500   33.3810 C   0  0  0  0  0  0  0  0  0  0  0  0
   38.1810   25.7330   34.6480 C   0  0  0  0  0  0  0  0  0  0  0  0
   38.0150   26.7870   35.4960 C   0  0  0  0  0  0  0  0  0  0  0  0
   37.2530   27.8650   35.0850 C   0  0  0  0  0  0  0  0  0  0  0  0
   36.6350   27.9490   33.8540 C   0  0  0  0  0  0  0  0  0  0  0  0
   38.7710   24.8640   34.9260 H   0  0  0  0  0  0  0  0  0  0  0  0
   38.4840   26.7580   36.4720 H   0  0  0  0  0  0  0  0  0  0  0  0
   37.1300   28.7020   35.7790 H   0  0  0  0  0  0  0  0  0  0  0  0
   39.0100   23.6220   30.7790 C   0  0  0  0  0  0  0  0  0  0  0  0
   38.1050   22.5500   30.6800 C   0  0  0  0  0  0  0  0  0  0  0  0
   37.0030   22.5770   31.5220 C   0  0  0  0  0  0  0  0  0  0  0  0
   36.8610   23.6220   32.3820 N   0  0  0  0  0  0  0  0  0  0  0  0
   37.7450   24.6300   32.4510 C   0  0  0  0  0  0  0  0  0  0  0  0
   38.8200   24.6230   31.6430 N   0  0  0  0  0  0  0  0  0  0  0  0
   39.8550   23.5670   30.1080 H   0  0  0  0  0  0  0  0  0  0  0  0
   38.1550   21.7080   30.0360 H   0  0  0  0  0  0  0  0  0  0  0  0
   36.1980   21.8560   31.6030 H   0  0  0  0  0  0  0  0  0  0  0  0
   35.6570   29.3200   33.3160 S   0  0  0  0  0  0  0  0  0  0  0  0
   35.0260   30.2790   34.6780 C   0  0  0  0  0  0  0  0  0  0  0  0
   35.8360   31.1420   35.3750 C   0  0  0  0  0  0  0  0  0  0  0  0
   36.8790   31.2580   35.1080 H   0  0  0  0  0  0  0  0  0  0  0  0
   35.3580   31.8990   36.4430 C   0  0  0  0  0  0  0  0  0  0  0  0
   35.9780   32.5720   36.9900 H   0  0  0  0  0  0  0  0  0  0  0  0
   34.0180   31.7020   36.7300 C   0  0  0  0  0  3  0  0  0  0  0  0
   33.2160   30.8310   36.0210 C   0  0  0  0  0  3  0  0  0  0  0  0
   33.7280   30.1190   34.9920 N   0  0  0  0  0  0  0  0  0  0  0  0
  1  2  1  0  0  0  0
  2  3  2  0  0  0  0
  2  7  1  0  0  0  0
  3  4  1  0  0  0  0
  4  8  1  0  0  0  0
  4  5  2  0  0  0  0
  5  9  1  0  0  0  0
  6  5  1  0  0  0  0
  6 10  1  0  0  0  0
  7  6  2  0  0  0  0
 11 16  1  0  0  0  0
 12 11  2  0  0  0  0
 12 13  1  0  0  0  0
 13 19  1  0  0  0  0
 13 14  2  0  0  0  0
 14 15  1  0  0  0  0
 15  3  1  0  0  0  0
 16 15  2  0  0  0  0
 17 11  1  0  0  0  0
 18 12  1  0  0  0  0
 20  7  1  0  0  0  0
 20 21  1  0  0  0  0
 21 28  2  0  0  0  0
 21 22  1  0  0  0  0
 22 24  2  0  0  0  0
 23 22  1  0  0  0  0
 24 26  1  0  0  0  0
 24 25  1  0  0  0  0
 27 26  2  0  0  0  0
 28 27  1  0  0  0  0
M  END
>  <minimizedAffinity>
-4.85429001

$$$$

 OpenBabel03272505093D

 28 30  0  0  0  0  0  0  0  0999 V2000
   40.6470   24.0980   33.3610 Cl  0  0  0  0  0  0  0  0  0  0  0  0
   39.7170   25.0870   34.4740 C   0  0  0  0  0  0  0  0  0  0  0  0
   39.7220   26.4300   34.2360 C   0  0  0  0  0  0  0  0  0  0  0  0
   38.9860   27.2400   35.1110 C   0  0  0  0  0  0  0  0  0  0  0  0
   38.3040   26.6810   36.1500 C   0  0  0  0  0  0  0  0  0  0  0  0
   38.3510   25.3100   36.3220 C   0  0  0  0  0  0  0  0  0  0  0  0
   39.0530   24.4520   35.5010 C   0  0  0  0  0  0  0  0  0  0  0  0
   38.9790   28.3130   34.9360 H   0  0  0  0  0  0  0  0  0  0  0  0
   37.7410   27.3210   36.8180 H   0  0  0  0  0  0  0  0  0  0  0  0
   37.7980   24.8780   37.1620 H   0  0  0  0  0  0  0  0  0  0  0  0
   42.4320   27.9690   32.3320 C   0  0  0  0  0  0  0  0  0  0  0  0
   41.9060   28.1010   31.0350 C   0  0  0  0  0  0  0  0  0  0  0  0
   40.6090   27.6510   30.8330 C   0  0  0  0  0  0  0  0  0  0  0  0
   39.9300   27.1170   31.8840 N   0  0  0  0  0  0  0  0  0  0  0  0
   40.4630   27.0060   33.1120 C   0  0  0  0  0  0  0  0  0  0  0  0
   41.7180   27.4370   33.3280 N   0  0  0  0  0  0  0  0  0  0  0  0
   43.4440   28.3300   32.4510 H   0  0  0  0  0  0  0  0  0  0  0  0
   42.3780   28.5050   30.1740 H   0  0  0  0  0  0  0  0  0  0  0  0
   40.0260   27.6600   29.9190 H   0  0  0  0  0  0  0  0  0  0  0  0
   39.1220   22.6980   35.7090 S   0  0  0  0  0  0  0  0  0  0  0  0
   37.6870   21.8800   35.0420 C   0  0  0  0  0  0  0  0  0  0  0  0
   37.5570   21.6610   33.6920 C   0  0  0  0  0  0  0  0  0  0  0  0
   38.3280   21.9840   33.0030 H   0  0  0  0  0  0  0  0  0  0  0  0
   36.4410   21.0240   33.1550 C   0  0  0  0  0  0  0  0  0  0  0  0
   36.3300   20.8490   32.1090 H   0  0  0  0  0  0  0  0  0  0  0  0
   35.4960   20.6390   34.0900 C   0  0  0  0  0  3  0  0  0  0  0  0
   35.6400   20.8640   35.4440 C   0  0  0  0  0  3  0  0  0  0  0  0
   36.7420   21.4880   35.9160 N   0  0  0  0  0  0  0  0  0  0  0  0
  1  2  1  0  0  0  0
  2  7  1  0  0  0  0
  3  2  2  0  0  0  0
  3  4  1  0  0  0  0
  4  5  2  0  0  0  0
  5  6  1  0  0  0  0
  5  9  1  0  0  0  0
  6 10  1  0  0  0  0
  7 20  1  0  0  0  0
  7  6  2  0  0  0  0
  8  4  1  0  0  0  0
 11 17  1  0  0  0  0
 11 16  1  0  0  0  0
 12 11  2  0  0  0  0
 13 12  1  0  0  0  0
 13 14  2  0  0  0  0
 14 15  1  0  0  0  0
 15 16  2  0  0  0  0
 15  3  1  0  0  0  0
 18 12  1  0  0  0  0
 19 13  1  0  0  0  0
 21 20  1  0  0  0  0
 21 28  1  0  0  0  0
 22 21  2  0  0  0  0
 23 22  1  0  0  0  0
 24 22  1  0  0  0  0
 24 26  2  0  0  0  0
 25 24  1  0  0  0  0
 26 27  1  0  0  0  0
 27 28  2  0  0  0  0
M  END
>  <minimizedAffinity>
-4.83310843

$$$$
