
 OpenBabel03272505083D

 28 30  0  0  0  0  0  0  0  0999 V2000
   36.3470   30.9020   45.8510 Cl  0  0  0  0  0  0  0  0  0  0  0  0
   36.7200   30.7780   47.5610 C   0  0  0  0  0  0  0  0  0  0  0  0
   37.9950   31.1000   47.9250 C   0  0  0  0  0  0  0  0  0  0  0  0
   38.3180   31.0090   49.2860 C   0  0  0  0  0  0  0  0  0  0  0  0
   37.3750   30.6120   50.1870 C   0  0  0  0  0  0  0  0  0  0  0  0
   36.1050   30.3040   49.7360 C   0  0  0  0  0  0  0  0  0  0  0  0
   35.7180   30.3700   48.4130 C   0  0  0  0  0  0  0  0  0  0  0  0
   39.3290   31.2610   49.5920 H   0  0  0  0  0  0  0  0  0  0  0  0
   37.6410   30.5460   51.2350 H   0  0  0  0  0  0  0  0  0  0  0  0
   35.3610   29.9860   50.4730 H   0  0  0  0  0  0  0  0  0  0  0  0
   40.1960   33.2660   45.9740 C   0  0  0  0  0  0  0  0  0  0  0  0
   40.8530   32.3840   45.0980 C   0  0  0  0  0  0  0  0  0  0  0  0
   40.5230   31.0400   45.1930 C   0  0  0  0  0  0  0  0  0  0  0  0
   39.5980   30.6560   46.1140 N   0  0  0  0  0  0  0  0  0  0  0  0
   38.9890   31.5250   46.9370 C   0  0  0  0  0  0  0  0  0  0  0  0
   39.2940   32.8320   46.8600 N   0  0  0  0  0  0  0  0  0  0  0  0
   40.4780   34.3040   45.8710 H   0  0  0  0  0  0  0  0  0  0  0  0
   41.5800   32.6140   44.3600 H   0  0  0  0  0  0  0  0  0  0  0  0
   40.9100   30.2070   44.6160 H   0  0  0  0  0  0  0  0  0  0  0  0
   34.0970   29.9790   47.8230 S   0  0  0  0  0  0  0  0  0  0  0  0
   34.0010   28.3330   47.1490 C   0  0  0  0  0  0  0  0  0  0  0  0
   33.9140   27.2340   47.9680 C   0  0  0  0  0  0  0  0  0  0  0  0
   33.9040   27.3460   49.0450 H   0  0  0  0  0  0  0  0  0  0  0  0
   33.8380   25.9400   47.4570 C   0  0  0  0  0  0  0  0  0  0  0  0
   33.7720   25.0800   48.0840 H   0  0  0  0  0  0  0  0  0  0  0  0
   33.8580   25.8680   46.0750 C   0  0  0  0  0  3  0  0  0  0  0  0
   33.9450   26.9820   45.2640 C   0  0  0  0  0  3  0  0  0  0  0  0
   34.0170   28.2170   45.8090 N   0  0  0  0  0  0  0  0  0  0  0  0
  1  2  1  0  0  0  0
  2  3  2  0  0  0  0
  2  7  1  0  0  0  0
  3  4  1  0  0  0  0
  4  8  1  0  0  0  0
  4  5  2  0  0  0  0
  5  9  1  0  0  0  0
  6  5  1  0  0  0  0
  6 10  1  0  0  0  0
  7  6  2  0  0  0  0
 11 16  1  0  0  0  0
 12 13  1  0  0  0  0
 12 11  2  0  0  0  0
 13 14  2  0  0  0  0
 14 15  1  0  0  0  0
 15  3  1  0  0  0  0
 16 15  2  0  0  0  0
 17 11  1  0  0  0  0
 18 12  1  0  0  0  0
 19 13  1  0  0  0  0
 20  7  1  0  0  0  0
 21 20  1  0  0  0  0
 21 22  1  0  0  0  0
 22 23  1  0  0  0  0
 24 22  2  0  0  0  0
 24 25  1  0  0  0  0
 26 24  1  0  0  0  0
 27 28  1  0  0  0  0
 27 26  2  0  0  0  0
 28 21  2  0  0  0  0
M  END
>  <minimizedAffinity>
-5.66195583

>  <minimizedRMSD>
1.03716099

$$$$
