
 OpenBabel03272505083D

 28 30  0  0  0  0  0  0  0  0999 V2000
   36.3460   30.9030   45.8520 Cl  0  0  0  0  0  0  0  0  0  0  0  0
   36.7200   30.7790   47.5630 C   0  0  0  0  0  0  0  0  0  0  0  0
   37.9950   31.1000   47.9260 C   0  0  0  0  0  0  0  0  0  0  0  0
   38.3180   31.0100   49.2870 C   0  0  0  0  0  0  0  0  0  0  0  0
   37.3760   30.6120   50.1880 C   0  0  0  0  0  0  0  0  0  0  0  0
   36.1060   30.3040   49.7380 C   0  0  0  0  0  0  0  0  0  0  0  0
   35.7180   30.3710   48.4150 C   0  0  0  0  0  0  0  0  0  0  0  0
   39.3300   31.2620   49.5930 H   0  0  0  0  0  0  0  0  0  0  0  0
   37.6420   30.5460   51.2360 H   0  0  0  0  0  0  0  0  0  0  0  0
   35.3620   29.9860   50.4750 H   0  0  0  0  0  0  0  0  0  0  0  0
   40.1960   33.2660   45.9750 C   0  0  0  0  0  0  0  0  0  0  0  0
   40.8520   32.3840   45.0980 C   0  0  0  0  0  0  0  0  0  0  0  0
   40.5230   31.0400   45.1930 C   0  0  0  0  0  0  0  0  0  0  0  0
   39.5980   30.6570   46.1140 N   0  0  0  0  0  0  0  0  0  0  0  0
   38.9890   31.5250   46.9380 C   0  0  0  0  0  0  0  0  0  0  0  0
   39.2940   32.8330   46.8610 N   0  0  0  0  0  0  0  0  0  0  0  0
   40.4770   34.3040   45.8710 H   0  0  0  0  0  0  0  0  0  0  0  0
   41.5800   32.6150   44.3600 H   0  0  0  0  0  0  0  0  0  0  0  0
   40.9100   30.2080   44.6170 H   0  0  0  0  0  0  0  0  0  0  0  0
   34.0980   29.9790   47.8250 S   0  0  0  0  0  0  0  0  0  0  0  0
   34.0010   28.3340   47.1500 C   0  0  0  0  0  0  0  0  0  0  0  0
   33.9140   27.2350   47.9690 C   0  0  0  0  0  0  0  0  0  0  0  0
   33.9030   27.3450   49.0450 H   0  0  0  0  0  0  0  0  0  0  0  0
   33.8380   25.9400   47.4560 C   0  0  0  0  0  0  0  0  0  0  0  0
   33.7690   25.0810   48.0830 H   0  0  0  0  0  0  0  0  0  0  0  0
   33.8580   25.8700   46.0750 C   0  0  0  0  0  3  0  0  0  0  0  0
   33.9460   26.9840   45.2640 C   0  0  0  0  0  3  0  0  0  0  0  0
   34.0170   28.2190   45.8110 N   0  0  0  0  0  0  0  0  0  0  0  0
  1  2  1  0  0  0  0
  2  3  2  0  0  0  0
  2  7  1  0  0  0  0
  3  4  1  0  0  0  0
  4  8  1  0  0  0  0
  4  5  2  0  0  0  0
  5  9  1  0  0  0  0
  6  5  1  0  0  0  0
  6 10  1  0  0  0  0
  7  6  2  0  0  0  0
 11 16  1  0  0  0  0
 12 13  1  0  0  0  0
 12 11  2  0  0  0  0
 13 14  2  0  0  0  0
 14 15  1  0  0  0  0
 15  3  1  0  0  0  0
 16 15  2  0  0  0  0
 17 11  1  0  0  0  0
 18 12  1  0  0  0  0
 19 13  1  0  0  0  0
 20  7  1  0  0  0  0
 21 20  1  0  0  0  0
 21 22  1  0  0  0  0
 22 23  1  0  0  0  0
 24 22  2  0  0  0  0
 24 25  1  0  0  0  0
 26 24  1  0  0  0  0
 27 28  1  0  0  0  0
 27 26  2  0  0  0  0
 28 21  2  0  0  0  0
M  END
>  <minimizedAffinity>
-5.66151667

>  <minimizedRMSD>
1.0875119

$$$$
