
 OpenBabel03272509423D

 37 39  0  0  1  0  0  0  0  0999 V2000
   37.0330   30.9240   49.0370 C   0  0  0  0  0  0  0  0  0  0  0  0
   36.7470   31.8070   50.0810 C   0  0  0  0  0  0  0  0  0  0  0  0
   37.3360   33.0580   50.1630 C   0  0  0  0  0  0  0  0  0  0  0  0
   38.2450   33.4550   49.1720 C   0  0  0  0  0  0  0  0  0  0  0  0
   38.5120   32.5820   48.1630 C   0  0  0  0  0  0  0  0  0  0  0  0
   37.9060   31.3340   48.1100 C   0  0  0  0  0  0  0  0  0  0  0  0
   36.0280   31.4470   50.8290 H   0  0  0  0  0  0  0  0  0  0  0  0
   37.0170   33.6270   51.0250 H   0  0  0  0  0  0  0  0  0  0  0  0
   38.6480   34.4340   49.3160 H   0  0  0  0  0  0  0  0  0  0  0  0
   39.2360   33.0270   47.4740 H   0  0  0  0  0  0  0  0  0  0  0  0
   36.4440   29.6040   48.9740 C   0  0  2  0  0  0  0  0  0  0  0  0
   36.9690   29.0810   48.0860 H   0  0  0  0  0  0  0  0  0  0  0  0
   33.5840   30.0960   46.7860 C   0  0  0  0  0  0  0  0  0  0  0  0
   32.8880   28.9040   46.8730 C   0  0  0  0  0  0  0  0  0  0  0  0
   33.3630   27.9340   47.7360 C   0  0  0  0  0  0  0  0  0  0  0  0
   34.4990   28.1840   48.4720 N   0  0  0  0  0  0  0  0  0  0  0  0
   35.1190   29.3380   48.3440 C   0  0  0  0  0  0  0  0  0  0  0  0
   34.6690   30.3010   47.5070 N   0  0  0  0  0  0  0  0  0  0  0  0
   33.2100   30.8650   46.1040 H   0  0  0  0  0  0  0  0  0  0  0  0
   32.0040   28.7060   46.3000 H   0  0  0  0  0  0  0  0  0  0  0  0
   32.8880   26.9740   47.8740 H   0  0  0  0  0  0  0  0  0  0  0  0
   36.8860   28.8210   49.8940 O   0  0  0  0  0  0  0  0  0  0  0  0
   36.3480   28.0970   50.2880 H   0  0  0  0  0  0  0  0  0  0  0  0
   38.3030   30.5000   47.0010 C   0  0  0  0  0  3  0  0  0  0  0  0
   38.9960   30.9450   45.9470 C   0  0  0  0  0  3  0  0  0  0  0  0
   39.4960   30.1760   44.7850 C   0  0  0  0  0  0  0  0  0  0  0  0
   40.5290   29.8490   45.0240 H   0  0  0  0  0  0  0  0  0  0  0  0
   38.8040   29.3360   44.5950 H   0  0  0  0  0  0  0  0  0  0  0  0
   39.5920   31.2510   43.3460 S   0  0  0  0  0  0  0  0  0  0  0  0
   37.9660   31.8650   42.8880 C   0  0  0  0  0  0  0  0  0  0  0  0
   38.0690   32.9410   42.0000 C   0  0  0  0  0  0  0  0  0  0  0  0
   38.9700   33.3830   41.6170 H   0  0  0  0  0  0  0  0  0  0  0  0
   36.8900   33.5270   41.5450 C   0  0  0  0  0  0  0  0  0  0  0  0
   36.9050   34.3640   40.8570 H   0  0  0  0  0  0  0  0  0  0  0  0
   35.6770   33.0150   41.9940 C   0  0  0  0  0  3  0  0  0  0  0  0
   35.6590   31.9520   42.8680 C   0  0  0  0  0  3  0  0  0  0  0  0
   36.7890   31.3880   43.3050 N   0  0  0  0  0  0  0  0  0  0  0  0
  1  2  1  0  0  0  0
  2  3  2  0  0  0  0
  2  7  1  0  0  0  0
  3  8  1  0  0  0  0
  4  9  1  0  0  0  0
  4  3  1  0  0  0  0
  5  4  2  0  0  0  0
  6  5  1  0  0  0  0
  6  1  2  0  0  0  0
 10  5  1  0  0  0  0
 11 12  1  6  0  0  0
 11  1  1  0  0  0  0
 11 22  1  0  0  0  0
 13 14  2  0  0  0  0
 13 18  1  0  0  0  0
 14 15  1  0  0  0  0
 15 21  1  0  0  0  0
 15 16  2  0  0  0  0
 17 16  1  0  0  0  0
 17 11  1  0  0  0  0
 18 17  2  0  0  0  0
 19 13  1  0  0  0  0
 20 14  1  0  0  0  0
 22 23  1  0  0  0  0
 24  6  1  0  0  0  0
 25 24  2  0  0  0  0
 26 27  1  0  0  0  0
 26 25  1  0  0  0  0
 28 26  1  0  0  0  0
 29 26  1  0  0  0  0
 30 37  1  0  0  0  0
 30 29  1  0  0  0  0
 31 30  2  0  0  0  0
 32 31  1  0  0  0  0
 33 35  2  0  0  0  0
 33 31  1  0  0  0  0
 34 33  1  0  0  0  0
 35 36  1  0  0  0  0
 36 37  2  0  0  0  0
M  END
>  <minimizedAffinity>
-5.62486315

>  <minimizedRMSD>
0.523324609

$$$$
