
 OpenBabel03262521523D

 22 23  0  0  0  0  0  0  0  0999 V2000
   36.9020   31.5460   48.4860 C   0  0  0  0  0  0  0  0  0  0  0  0
   36.4540   31.7570   47.4940 H   0  0  0  0  0  0  0  0  0  0  0  0
   36.3420   32.1900   49.2100 H   0  0  0  0  0  0  0  0  0  0  0  0
   36.6910   29.8170   48.9710 S   0  0  0  0  0  0  0  0  0  0  0  0
   35.1200   29.2580   48.3450 C   0  0  0  0  0  0  0  0  0  0  0  0
   34.5630   28.1890   49.0440 C   0  0  0  0  0  0  0  0  0  0  0  0
   33.3260   27.6890   48.6110 C   0  0  0  0  0  0  0  0  0  0  0  0
   32.7210   28.2830   47.5130 N   0  0  0  0  0  0  0  0  0  0  0  0
   33.3340   29.3220   46.8880 C   0  0  0  0  0  0  0  0  0  0  0  0
   34.4930   29.7900   47.2940 N   0  0  0  0  0  0  0  0  0  0  0  0
   35.0000   27.6970   49.9060 H   0  0  0  0  0  0  0  0  0  0  0  0
   32.8660   26.8600   49.1330 H   0  0  0  0  0  0  0  0  0  0  0  0
   32.8010   29.7350   46.0370 H   0  0  0  0  0  0  0  0  0  0  0  0
   38.6490   32.0720   48.5760 S   0  0  0  0  0  0  0  0  0  0  0  0
   39.3280   32.0650   46.9250 C   0  0  0  0  0  0  0  0  0  0  0  0
   39.9510   33.0920   46.2490 C   0  0  0  0  0  0  0  0  0  0  0  0
   40.0170   33.9960   46.8270 H   0  0  0  0  0  0  0  0  0  0  0  0
   40.4130   32.8950   44.9730 C   0  0  0  0  0  0  0  0  0  0  0  0
   40.8950   33.7280   44.4810 H   0  0  0  0  0  0  0  0  0  0  0  0
   40.2700   31.6680   44.3210 C   0  0  0  0  0  0  0  0  0  0  0  0
   39.6420   30.6790   45.0390 C   0  0  0  0  0  0  0  0  0  0  0  0
   39.1810   30.8590   46.3030 N   0  0  0  0  0  0  0  0  0  0  0  0
  1 14  1  0  0  0  0
  1  4  1  0  0  0  0
  1  3  1  0  0  0  0
  2  1  1  0  0  0  0
  5  4  1  0  0  0  0
  5  6  1  0  0  0  0
  6 11  1  0  0  0  0
  7  6  2  0  0  0  0
  7 12  1  0  0  0  0
  8  7  1  0  0  0  0
  9 10  1  0  0  0  0
  9  8  2  0  0  0  0
 10  5  2  0  0  0  0
 13  9  1  0  0  0  0
 15 14  1  0  0  0  0
 16 17  1  0  0  0  0
 16 15  2  0  0  0  0
 18 16  1  0  0  0  0
 19 18  1  0  0  0  0
 20 18  2  0  0  0  0
 20 21  1  0  0  0  0
 21 22  2  0  0  0  0
 22 15  1  0  0  0  0
M  END
>  <minimizedAffinity>
-4.19352102

>  <minimizedRMSD>
7.45202875

$$$$
