
 OpenBabel03272509423D

 37 39  0  0  1  0  0  0  0  0999 V2000
   37.0320   30.9230   49.0370 C   0  0  0  0  0  0  0  0  0  0  0  0
   36.7450   31.8060   50.0810 C   0  0  0  0  0  0  0  0  0  0  0  0
   37.3340   33.0570   50.1640 C   0  0  0  0  0  0  0  0  0  0  0  0
   38.2440   33.4540   49.1730 C   0  0  0  0  0  0  0  0  0  0  0  0
   38.5110   32.5820   48.1650 C   0  0  0  0  0  0  0  0  0  0  0  0
   37.9040   31.3340   48.1100 C   0  0  0  0  0  0  0  0  0  0  0  0
   36.0260   31.4460   50.8290 H   0  0  0  0  0  0  0  0  0  0  0  0
   37.0150   33.6260   51.0260 H   0  0  0  0  0  0  0  0  0  0  0  0
   38.6470   34.4330   49.3180 H   0  0  0  0  0  0  0  0  0  0  0  0
   39.2350   33.0260   47.4760 H   0  0  0  0  0  0  0  0  0  0  0  0
   36.4430   29.6040   48.9730 C   0  0  2  0  0  0  0  0  0  0  0  0
   36.9680   29.0810   48.0850 H   0  0  0  0  0  0  0  0  0  0  0  0
   33.5830   30.0970   46.7850 C   0  0  0  0  0  0  0  0  0  0  0  0
   32.8870   28.9050   46.8700 C   0  0  0  0  0  0  0  0  0  0  0  0
   33.3620   27.9340   47.7330 C   0  0  0  0  0  0  0  0  0  0  0  0
   34.4980   28.1830   48.4690 N   0  0  0  0  0  0  0  0  0  0  0  0
   35.1180   29.3380   48.3430 C   0  0  0  0  0  0  0  0  0  0  0  0
   34.6680   30.3020   47.5060 N   0  0  0  0  0  0  0  0  0  0  0  0
   33.2090   30.8670   46.1030 H   0  0  0  0  0  0  0  0  0  0  0  0
   32.0030   28.7070   46.2970 H   0  0  0  0  0  0  0  0  0  0  0  0
   32.8870   26.9730   47.8690 H   0  0  0  0  0  0  0  0  0  0  0  0
   36.8840   28.8200   49.8930 O   0  0  0  0  0  0  0  0  0  0  0  0
   36.3450   28.0960   50.2870 H   0  0  0  0  0  0  0  0  0  0  0  0
   38.3030   30.5000   47.0010 C   0  0  0  0  0  3  0  0  0  0  0  0
   38.9970   30.9450   45.9480 C   0  0  0  0  0  3  0  0  0  0  0  0
   39.4970   30.1770   44.7860 C   0  0  0  0  0  0  0  0  0  0  0  0
   40.5300   29.8500   45.0260 H   0  0  0  0  0  0  0  0  0  0  0  0
   38.8050   29.3370   44.5960 H   0  0  0  0  0  0  0  0  0  0  0  0
   39.5930   31.2520   43.3480 S   0  0  0  0  0  0  0  0  0  0  0  0
   37.9680   31.8660   42.8890 C   0  0  0  0  0  0  0  0  0  0  0  0
   38.0710   32.9420   42.0000 C   0  0  0  0  0  0  0  0  0  0  0  0
   38.9710   33.3820   41.6170 H   0  0  0  0  0  0  0  0  0  0  0  0
   36.8910   33.5280   41.5450 C   0  0  0  0  0  0  0  0  0  0  0  0
   36.9070   34.3640   40.8560 H   0  0  0  0  0  0  0  0  0  0  0  0
   35.6790   33.0160   41.9940 C   0  0  0  0  0  3  0  0  0  0  0  0
   35.6600   31.9540   42.8690 C   0  0  0  0  0  3  0  0  0  0  0  0
   36.7910   31.3900   43.3080 N   0  0  0  0  0  0  0  0  0  0  0  0
  1  2  1  0  0  0  0
  2  3  2  0  0  0  0
  2  7  1  0  0  0  0
  3  8  1  0  0  0  0
  4  9  1  0  0  0  0
  4  3  1  0  0  0  0
  5  4  2  0  0  0  0
  6  5  1  0  0  0  0
  6  1  2  0  0  0  0
 10  5  1  0  0  0  0
 11 12  1  6  0  0  0
 11  1  1  0  0  0  0
 11 22  1  0  0  0  0
 13 14  2  0  0  0  0
 13 18  1  0  0  0  0
 14 15  1  0  0  0  0
 15 21  1  0  0  0  0
 15 16  2  0  0  0  0
 17 16  1  0  0  0  0
 17 11  1  0  0  0  0
 18 17  2  0  0  0  0
 19 13  1  0  0  0  0
 20 14  1  0  0  0  0
 22 23  1  0  0  0  0
 24  6  1  0  0  0  0
 25 24  2  0  0  0  0
 26 27  1  0  0  0  0
 26 25  1  0  0  0  0
 28 26  1  0  0  0  0
 29 26  1  0  0  0  0
 30 37  1  0  0  0  0
 30 29  1  0  0  0  0
 31 30  2  0  0  0  0
 32 31  1  0  0  0  0
 33 35  2  0  0  0  0
 33 31  1  0  0  0  0
 34 33  1  0  0  0  0
 35 36  1  0  0  0  0
 36 37  2  0  0  0  0
M  END
>  <minimizedAffinity>
-5.62508154

>  <minimizedRMSD>
0.488678098

$$$$
