
 OpenBabel03272509423D

 37 39  0  0  1  0  0  0  0  0999 V2000
   37.0310   30.9210   49.0360 C   0  0  0  0  0  0  0  0  0  0  0  0
   36.7360   31.8140   50.0690 C   0  0  0  0  0  0  0  0  0  0  0  0
   37.3250   33.0660   50.1430 C   0  0  0  0  0  0  0  0  0  0  0  0
   38.2440   33.4520   49.1560 C   0  0  0  0  0  0  0  0  0  0  0  0
   38.5190   32.5690   48.1590 C   0  0  0  0  0  0  0  0  0  0  0  0
   37.9120   31.3210   48.1120 C   0  0  0  0  0  0  0  0  0  0  0  0
   36.0100   31.4620   50.8140 H   0  0  0  0  0  0  0  0  0  0  0  0
   36.9990   33.6430   50.9970 H   0  0  0  0  0  0  0  0  0  0  0  0
   38.6460   34.4320   49.2940 H   0  0  0  0  0  0  0  0  0  0  0  0
   39.2490   33.0060   47.4710 H   0  0  0  0  0  0  0  0  0  0  0  0
   36.4410   29.6010   48.9800 C   0  0  2  0  0  0  0  0  0  0  0  0
   36.9670   29.0720   48.0960 H   0  0  0  0  0  0  0  0  0  0  0  0
   33.5800   30.0850   46.7920 C   0  0  0  0  0  0  0  0  0  0  0  0
   32.8870   28.8910   46.8790 C   0  0  0  0  0  0  0  0  0  0  0  0
   33.3640   27.9220   47.7420 C   0  0  0  0  0  0  0  0  0  0  0  0
   34.4990   28.1760   48.4780 N   0  0  0  0  0  0  0  0  0  0  0  0
   35.1170   29.3320   48.3500 C   0  0  0  0  0  0  0  0  0  0  0  0
   34.6640   30.2930   47.5130 N   0  0  0  0  0  0  0  0  0  0  0  0
   33.2040   30.8540   46.1100 H   0  0  0  0  0  0  0  0  0  0  0  0
   32.0030   28.6910   46.3060 H   0  0  0  0  0  0  0  0  0  0  0  0
   32.8920   26.9610   47.8800 H   0  0  0  0  0  0  0  0  0  0  0  0
   36.8810   28.8240   49.9060 O   0  0  0  0  0  0  0  0  0  0  0  0
   36.3420   28.1020   50.3040 H   0  0  0  0  0  0  0  0  0  0  0  0
   38.3180   30.4760   47.0150 C   0  0  0  0  0  3  0  0  0  0  0  0
   38.9720   30.9210   45.9360 C   0  0  0  0  0  3  0  0  0  0  0  0
   39.4770   30.1430   44.7820 C   0  0  0  0  0  0  0  0  0  0  0  0
   40.5190   29.8430   45.0160 H   0  0  0  0  0  0  0  0  0  0  0  0
   38.8020   29.2850   44.6140 H   0  0  0  0  0  0  0  0  0  0  0  0
   39.5340   31.1950   43.3250 S   0  0  0  0  0  0  0  0  0  0  0  0
   37.8800   31.6240   42.7700 C   0  0  0  0  0  0  0  0  0  0  0  0
   37.4310   30.7250   41.7950 C   0  0  0  0  0  0  0  0  0  0  0  0
   37.9620   29.8830   41.3950 H   0  0  0  0  0  0  0  0  0  0  0  0
   36.1570   30.9210   41.2650 C   0  0  0  0  0  0  0  0  0  0  0  0
   35.7530   30.2600   40.5090 H   0  0  0  0  0  0  0  0  0  0  0  0
   35.4010   31.9920   41.7310 C   0  0  0  0  0  3  0  0  0  0  0  0
   35.9130   32.8320   42.6920 C   0  0  0  0  0  3  0  0  0  0  0  0
   37.1360   32.6470   43.2020 N   0  0  0  0  0  0  0  0  0  0  0  0
  1  2  1  0  0  0  0
  2  3  2  0  0  0  0
  2  7  1  0  0  0  0
  3  8  1  0  0  0  0
  4  9  1  0  0  0  0
  4  3  1  0  0  0  0
  5  4  2  0  0  0  0
  6  5  1  0  0  0  0
  6  1  2  0  0  0  0
 10  5  1  0  0  0  0
 11 12  1  6  0  0  0
 11  1  1  0  0  0  0
 11 22  1  0  0  0  0
 13 14  2  0  0  0  0
 13 18  1  0  0  0  0
 14 15  1  0  0  0  0
 15 21  1  0  0  0  0
 15 16  2  0  0  0  0
 17 16  1  0  0  0  0
 17 11  1  0  0  0  0
 18 17  2  0  0  0  0
 19 13  1  0  0  0  0
 20 14  1  0  0  0  0
 22 23  1  0  0  0  0
 24  6  1  0  0  0  0
 25 24  2  0  0  0  0
 26 27  1  0  0  0  0
 26 25  1  0  0  0  0
 28 26  1  0  0  0  0
 29 26  1  0  0  0  0
 30 37  1  0  0  0  0
 30 29  1  0  0  0  0
 31 30  2  0  0  0  0
 32 31  1  0  0  0  0
 33 35  2  0  0  0  0
 33 31  1  0  0  0  0
 34 33  1  0  0  0  0
 35 36  1  0  0  0  0
 36 37  2  0  0  0  0
M  END
>  <minimizedAffinity>
-5.56193972

>  <minimizedRMSD>
0.309280574

$$$$
