
 OpenBabel03272500233D

 30 32  0  0  0  0  0  0  0  0999 V2000
   39.9110   33.0890   46.0280 C   0  0  0  0  0  0  0  0  0  0  0  0
   39.4380   33.8740   45.3810 H   0  0  0  0  0  0  0  0  0  0  0  0
   40.3260   33.6730   46.8740 H   0  0  0  0  0  0  0  0  0  0  0  0
   38.9050   32.2430   46.6980 C   0  0  0  0  0  0  0  0  0  0  0  0
   37.8580   31.6970   45.9510 C   0  0  0  0  0  0  0  0  0  0  0  0
   37.0650   30.9770   46.8020 C   0  0  0  0  0  0  0  0  0  0  0  0
   37.6090   31.0820   48.0170 N   0  0  0  0  0  0  0  0  0  0  0  0
   38.6860   31.8280   47.9370 N   0  0  0  0  0  0  0  0  0  0  0  0
   37.6150   31.7580   44.9020 H   0  0  0  0  0  0  0  0  0  0  0  0
   36.1640   30.3850   46.7190 H   0  0  0  0  0  0  0  0  0  0  0  0
   37.2180   30.5450   49.2820 C   0  0  0  0  0  0  0  0  0  0  0  0
   37.9020   30.7130   50.4680 C   0  0  0  0  0  0  0  0  0  0  0  0
   38.8010   31.2950   50.4260 H   0  0  0  0  0  0  0  0  0  0  0  0
   37.3870   30.1260   51.6070 C   0  0  0  0  0  0  0  0  0  0  0  0
   37.9250   30.2560   52.5470 H   0  0  0  0  0  0  0  0  0  0  0  0
   36.2110   29.3790   51.5950 C   0  0  0  0  0  0  0  0  0  0  0  0
   35.5720   29.2490   50.3730 C   0  0  0  0  0  0  0  0  0  0  0  0
   36.0760   29.8210   49.2680 N   0  0  0  0  0  0  0  0  0  0  0  0
   40.8610   32.3490   45.1780 C   0  0  0  0  0  0  0  0  0  0  0  0
   41.3330   31.4710   45.7180 H   0  0  0  0  0  0  0  0  0  0  0  0
   41.7520   33.0320   45.0160 H   0  0  0  0  0  0  0  0  0  0  0  0
   40.4340   31.8750   43.8890 C   0  0  0  0  0  0  0  0  0  0  0  0
   39.7270   32.6890   43.0490 C   0  0  0  0  0  0  0  0  0  0  0  0
   39.3050   32.2310   41.7870 C   0  0  0  0  0  0  0  0  0  0  0  0
   39.6580   30.9250   41.4780 N   0  0  0  0  0  0  0  0  0  0  0  0
   40.3630   30.1440   42.3390 C   0  0  0  0  0  0  0  0  0  0  0  0
   40.7490   30.6380   43.5550 N   0  0  0  0  0  0  0  0  0  0  0  0
   39.3840   33.7050   43.1460 H   0  0  0  0  0  0  0  0  0  0  0  0
   38.7470   32.7590   41.0340 H   0  0  0  0  0  0  0  0  0  0  0  0
   40.6050   29.1350   42.0340 H   0  0  0  0  0  0  0  0  0  0  0  0
  1  4  1  0  0  0  0
  1  3  1  0  0  0  0
  2  1  1  0  0  0  0
  4  8  2  0  0  0  0
  5  4  1  0  0  0  0
  5  6  2  0  0  0  0
  6  7  1  0  0  0  0
  7 11  1  0  0  0  0
  8  7  1  0  0  0  0
  9  5  1  0  0  0  0
 10  6  1  0  0  0  0
 11 12  1  0  0  0  0
 12 14  2  0  0  0  0
 13 12  1  0  0  0  0
 14 15  1  0  0  0  0
 16 14  1  0  0  0  0
 17 16  2  0  0  0  0
 18 11  2  0  0  0  0
 18 17  1  0  0  0  0
 19 20  1  0  0  0  0
 19  1  1  0  0  0  0
 21 19  1  0  0  0  0
 22 19  1  0  0  0  0
 23 28  1  0  0  0  0
 23 22  2  0  0  0  0
 24 23  1  0  0  0  0
 25 24  2  0  0  0  0
 25 26  1  0  0  0  0
 26 27  2  0  0  0  0
 27 22  1  0  0  0  0
 29 24  1  0  0  0  0
 30 26  1  0  0  0  0
M  END
>  <minimizedAffinity>
-5.78571796

>  <minimizedRMSD>
4.10717678

$$$$
