
 OpenBabel03272509423D

 37 39  0  0  1  0  0  0  0  0999 V2000
   37.0200   30.9220   49.0350 C   0  0  0  0  0  0  0  0  0  0  0  0
   36.7170   31.8020   50.0770 C   0  0  0  0  0  0  0  0  0  0  0  0
   37.3040   33.0540   50.1690 C   0  0  0  0  0  0  0  0  0  0  0  0
   38.2270   33.4540   49.1920 C   0  0  0  0  0  0  0  0  0  0  0  0
   38.5090   32.5830   48.1850 C   0  0  0  0  0  0  0  0  0  0  0  0
   37.9040   31.3350   48.1210 C   0  0  0  0  0  0  0  0  0  0  0  0
   35.9890   31.4400   50.8140 H   0  0  0  0  0  0  0  0  0  0  0  0
   36.9730   33.6210   51.0280 H   0  0  0  0  0  0  0  0  0  0  0  0
   38.6260   34.4330   49.3430 H   0  0  0  0  0  0  0  0  0  0  0  0
   39.2410   33.0300   47.5070 H   0  0  0  0  0  0  0  0  0  0  0  0
   36.4330   29.6010   48.9610 C   0  0  2  0  0  0  0  0  0  0  0  0
   36.9670   29.0830   48.0760 H   0  0  0  0  0  0  0  0  0  0  0  0
   33.5760   30.1170   46.7760 C   0  0  0  0  0  0  0  0  0  0  0  0
   32.8950   28.9140   46.8250 C   0  0  0  0  0  0  0  0  0  0  0  0
   33.3790   27.9260   47.6630 C   0  0  0  0  0  0  0  0  0  0  0  0
   34.5090   28.1700   48.4110 N   0  0  0  0  0  0  0  0  0  0  0  0
   35.1150   29.3360   48.3180 C   0  0  0  0  0  0  0  0  0  0  0  0
   34.6550   30.3160   47.5070 N   0  0  0  0  0  0  0  0  0  0  0  0
   33.1950   30.9010   46.1140 H   0  0  0  0  0  0  0  0  0  0  0  0
   32.0160   28.7210   46.2430 H   0  0  0  0  0  0  0  0  0  0  0  0
   32.9170   26.9560   47.7720 H   0  0  0  0  0  0  0  0  0  0  0  0
   36.8680   28.8150   49.8820 O   0  0  0  0  0  0  0  0  0  0  0  0
   36.3270   28.0880   50.2680 H   0  0  0  0  0  0  0  0  0  0  0  0
   38.3190   30.5030   47.0160 C   0  0  0  0  0  3  0  0  0  0  0  0
   39.0130   30.9540   45.9660 C   0  0  0  0  0  3  0  0  0  0  0  0
   39.5290   30.1890   44.8080 C   0  0  0  0  0  0  0  0  0  0  0  0
   40.5320   29.8040   45.0870 H   0  0  0  0  0  0  0  0  0  0  0  0
   38.8060   29.3900   44.5650 H   0  0  0  0  0  0  0  0  0  0  0  0
   39.7460   31.2920   43.4040 S   0  0  0  0  0  0  0  0  0  0  0  0
   38.1620   31.7640   42.7000 C   0  0  0  0  0  0  0  0  0  0  0  0
   37.9290   31.0910   41.4950 C   0  0  0  0  0  0  0  0  0  0  0  0
   38.5750   30.3840   41.0110 H   0  0  0  0  0  0  0  0  0  0  0  0
   36.7340   31.3470   40.8260 C   0  0  0  0  0  0  0  0  0  0  0  0
   36.4970   30.8570   39.8890 H   0  0  0  0  0  0  0  0  0  0  0  0
   35.8390   32.2520   41.3870 C   0  0  0  0  0  3  0  0  0  0  0  0
   36.1400   32.8740   42.5770 C   0  0  0  0  0  3  0  0  0  0  0  0
   37.2870   32.6290   43.2210 N   0  0  0  0  0  0  0  0  0  0  0  0
  1  2  1  0  0  0  0
  2  3  2  0  0  0  0
  2  7  1  0  0  0  0
  3  8  1  0  0  0  0
  4  9  1  0  0  0  0
  4  3  1  0  0  0  0
  5  4  2  0  0  0  0
  6  5  1  0  0  0  0
  6  1  2  0  0  0  0
 10  5  1  0  0  0  0
 11 12  1  6  0  0  0
 11  1  1  0  0  0  0
 11 22  1  0  0  0  0
 13 14  2  0  0  0  0
 13 18  1  0  0  0  0
 14 15  1  0  0  0  0
 15 21  1  0  0  0  0
 15 16  2  0  0  0  0
 17 16  1  0  0  0  0
 17 11  1  0  0  0  0
 18 17  2  0  0  0  0
 19 13  1  0  0  0  0
 20 14  1  0  0  0  0
 22 23  1  0  0  0  0
 24  6  1  0  0  0  0
 25 24  2  0  0  0  0
 26 27  1  0  0  0  0
 26 25  1  0  0  0  0
 28 26  1  0  0  0  0
 29 26  1  0  0  0  0
 30 37  1  0  0  0  0
 30 29  1  0  0  0  0
 31 30  2  0  0  0  0
 32 31  1  0  0  0  0
 33 35  2  0  0  0  0
 33 31  1  0  0  0  0
 34 33  1  0  0  0  0
 35 36  1  0  0  0  0
 36 37  2  0  0  0  0
M  END
>  <minimizedAffinity>
-5.59945822

>  <minimizedRMSD>
0.521155775

$$$$
