
 OpenBabel03272509423D

 37 39  0  0  1  0  0  0  0  0999 V2000
   37.0290   30.9180   49.0310 C   0  0  0  0  0  0  0  0  0  0  0  0
   36.7540   31.8030   50.0770 C   0  0  0  0  0  0  0  0  0  0  0  0
   37.3520   33.0500   50.1560 C   0  0  0  0  0  0  0  0  0  0  0  0
   38.2580   33.4410   49.1590 C   0  0  0  0  0  0  0  0  0  0  0  0
   38.5130   32.5670   48.1490 C   0  0  0  0  0  0  0  0  0  0  0  0
   37.8990   31.3230   48.0990 C   0  0  0  0  0  0  0  0  0  0  0  0
   36.0380   31.4470   50.8300 H   0  0  0  0  0  0  0  0  0  0  0  0
   37.0420   33.6210   51.0200 H   0  0  0  0  0  0  0  0  0  0  0  0
   38.6680   34.4170   49.3010 H   0  0  0  0  0  0  0  0  0  0  0  0
   39.2360   33.0070   47.4550 H   0  0  0  0  0  0  0  0  0  0  0  0
   36.4310   29.6020   48.9710 C   0  0  2  0  0  0  0  0  0  0  0  0
   36.9600   29.0700   48.0910 H   0  0  0  0  0  0  0  0  0  0  0  0
   33.5750   30.1210   46.7850 C   0  0  0  0  0  0  0  0  0  0  0  0
   32.8850   28.9240   46.8460 C   0  0  0  0  0  0  0  0  0  0  0  0
   33.3620   27.9400   47.6930 C   0  0  0  0  0  0  0  0  0  0  0  0
   34.4950   28.1820   48.4360 N   0  0  0  0  0  0  0  0  0  0  0  0
   35.1100   29.3410   48.3330 C   0  0  0  0  0  0  0  0  0  0  0  0
   34.6570   30.3170   47.5120 N   0  0  0  0  0  0  0  0  0  0  0  0
   33.2000   30.9010   46.1160 H   0  0  0  0  0  0  0  0  0  0  0  0
   32.0040   28.7320   46.2670 H   0  0  0  0  0  0  0  0  0  0  0  0
   32.8920   26.9750   47.8110 H   0  0  0  0  0  0  0  0  0  0  0  0
   36.8600   28.8210   49.8990 O   0  0  0  0  0  0  0  0  0  0  0  0
   36.3140   28.1030   50.2940 H   0  0  0  0  0  0  0  0  0  0  0  0
   38.2840   30.4860   46.9870 C   0  0  0  0  0  3  0  0  0  0  0  0
   38.9470   30.9340   45.9150 C   0  0  0  0  0  3  0  0  0  0  0  0
   39.4320   30.1640   44.7480 C   0  0  0  0  0  0  0  0  0  0  0  0
   40.4870   29.8870   44.9500 H   0  0  0  0  0  0  0  0  0  0  0  0
   38.7710   29.2910   44.6020 H   0  0  0  0  0  0  0  0  0  0  0  0
   39.4220   31.2120   43.2870 S   0  0  0  0  0  0  0  0  0  0  0  0
   37.7420   31.5720   42.7600 C   0  0  0  0  0  0  0  0  0  0  0  0
   37.7210   32.0510   41.4450 C   0  0  0  0  0  0  0  0  0  0  0  0
   38.5630   32.2050   40.7970 H   0  0  0  0  0  0  0  0  0  0  0  0
   36.4850   32.3710   40.8880 C   0  0  0  0  0  0  0  0  0  0  0  0
   36.4050   32.7460   39.8740 H   0  0  0  0  0  0  0  0  0  0  0  0
   35.3420   32.2000   41.6620 C   0  0  0  0  0  3  0  0  0  0  0  0
   35.4450   31.7230   42.9480 C   0  0  0  0  0  3  0  0  0  0  0  0
   36.6310   31.4150   43.4860 N   0  0  0  0  0  0  0  0  0  0  0  0
  1  2  1  0  0  0  0
  2  3  2  0  0  0  0
  2  7  1  0  0  0  0
  3  8  1  0  0  0  0
  4  9  1  0  0  0  0
  4  3  1  0  0  0  0
  5  4  2  0  0  0  0
  6  5  1  0  0  0  0
  6  1  2  0  0  0  0
 10  5  1  0  0  0  0
 11 12  1  6  0  0  0
 11  1  1  0  0  0  0
 11 22  1  0  0  0  0
 13 14  2  0  0  0  0
 13 18  1  0  0  0  0
 14 15  1  0  0  0  0
 15 21  1  0  0  0  0
 15 16  2  0  0  0  0
 17 16  1  0  0  0  0
 17 11  1  0  0  0  0
 18 17  2  0  0  0  0
 19 13  1  0  0  0  0
 20 14  1  0  0  0  0
 22 23  1  0  0  0  0
 24  6  1  0  0  0  0
 25 24  2  0  0  0  0
 26 27  1  0  0  0  0
 26 25  1  0  0  0  0
 28 26  1  0  0  0  0
 29 26  1  0  0  0  0
 30 29  1  0  0  0  0
 30 37  1  0  0  0  0
 31 30  2  0  0  0  0
 32 31  1  0  0  0  0
 33 31  1  0  0  0  0
 33 35  2  0  0  0  0
 34 33  1  0  0  0  0
 35 36  1  0  0  0  0
 36 37  2  0  0  0  0
M  END
>  <minimizedAffinity>
-5.45973301

>  <minimizedRMSD>
0.279330105

$$$$
