
 OpenBabel03272502243D

 29 31  0  0  0  0  0  0  0  0999 V2000
   37.4590   30.4470   51.0530 C   0  0  0  0  0  0  0  0  0  0  0  0
   37.9110   31.0280   49.8440 C   0  0  0  0  0  0  0  0  0  0  0  0
   37.3390   30.5740   48.6530 C   0  0  0  0  0  0  0  0  0  0  0  0
   36.3940   29.6140   48.7340 N   0  0  0  0  0  0  0  0  0  0  0  0
   35.9800   29.0760   49.8950 C   0  0  0  0  0  0  0  0  0  0  0  0
   36.5130   29.4940   51.0520 N   0  0  0  0  0  0  0  0  0  0  0  0
   37.9390   30.8400   51.9350 H   0  0  0  0  0  0  0  0  0  0  0  0
   38.6670   31.7960   49.7960 H   0  0  0  0  0  0  0  0  0  0  0  0
   37.7120   31.0870   47.3510 C   0  0  0  0  0  0  0  0  0  0  0  0
   36.9800   30.7590   46.2240 C   0  0  0  0  0  0  0  0  0  0  0  0
   37.3040   31.2310   44.9660 C   0  0  0  0  0  0  0  0  0  0  0  0
   38.3770   32.0440   44.8220 N   0  0  0  0  0  0  0  0  0  0  0  0
   39.0660   32.3450   45.9250 C   0  0  0  0  0  0  0  0  0  0  0  0
   38.7690   31.8980   47.1560 N   0  0  0  0  0  0  0  0  0  0  0  0
   36.1110   30.1160   46.2580 H   0  0  0  0  0  0  0  0  0  0  0  0
   36.7140   30.9600   44.0900 H   0  0  0  0  0  0  0  0  0  0  0  0
   40.2470   33.2360   45.8000 C   0  0  0  0  0  0  0  0  0  0  0  0
   40.3600   33.9680   46.9900 F   0  0  0  0  0  0  0  0  0  0  0  0
   41.4000   32.5330   45.5490 F   0  0  0  0  0  0  0  0  0  0  0  0
   40.0860   34.1700   44.8040 F   0  0  0  0  0  0  0  0  0  0  0  0
   35.0040   28.1000   49.8200 O   0  0  0  0  0  0  0  0  0  0  0  0
   33.9710   28.1150   48.9340 C   0  0  0  0  0  0  0  0  0  0  0  0
   34.4420   28.2420   47.6210 C   0  0  0  0  0  0  0  0  0  0  0  0
   35.4960   28.3200   47.3100 H   0  0  0  0  0  0  0  0  0  0  0  0
   33.5840   28.2840   46.5210 C   0  0  0  0  0  0  0  0  0  0  0  0
   33.9060   28.3780   45.5140 H   0  0  0  0  0  0  0  0  0  0  0  0
   32.2250   28.1970   46.7380 C   0  0  0  0  0  0  0  0  0  0  0  0
   31.7950   28.0740   48.0420 C   0  0  0  0  0  0  0  0  0  0  0  0
   32.6420   28.0380   49.0720 N   0  0  0  0  0  0  0  0  0  0  0  0
  1  7  1  0  0  0  0
  2  1  2  0  0  0  0
  3  4  2  0  0  0  0
  3  2  1  0  0  0  0
  4  5  1  0  0  0  0
  5  6  2  0  0  0  0
  6  1  1  0  0  0  0
  8  2  1  0  0  0  0
  9  3  1  0  0  0  0
 10 15  1  0  0  0  0
 10  9  2  0  0  0  0
 11 10  1  0  0  0  0
 12 11  2  0  0  0  0
 12 13  1  0  0  0  0
 13 14  2  0  0  0  0
 14  9  1  0  0  0  0
 16 11  1  0  0  0  0
 17 13  1  0  0  0  0
 17 18  1  0  0  0  0
 19 17  1  0  0  0  0
 20 17  1  0  0  0  0
 21  5  1  0  0  0  0
 22 29  1  0  0  0  0
 22 21  1  0  0  0  0
 23 22  2  0  0  0  0
 24 23  1  0  0  0  0
 25 27  2  0  0  0  0
 25 23  1  0  0  0  0
 26 25  1  0  0  0  0
 27 28  1  0  0  0  0
 28 29  2  0  0  0  0
M  END
>  <minimizedAffinity>
-6.54358149

>  <minimizedRMSD>
0.648414135

$$$$
