
 OpenBabel03272509423D

 37 39  0  0  1  0  0  0  0  0999 V2000
   37.0540   30.9320   49.0430 C   0  0  0  0  0  0  0  0  0  0  0  0
   36.7750   31.8400   50.0670 C   0  0  0  0  0  0  0  0  0  0  0  0
   37.3710   33.0900   50.1180 C   0  0  0  0  0  0  0  0  0  0  0  0
   38.2790   33.4590   49.1150 C   0  0  0  0  0  0  0  0  0  0  0  0
   38.5380   32.5620   48.1260 C   0  0  0  0  0  0  0  0  0  0  0  0
   37.9250   31.3160   48.1030 C   0  0  0  0  0  0  0  0  0  0  0  0
   36.0580   31.5020   50.8260 H   0  0  0  0  0  0  0  0  0  0  0  0
   37.0580   33.6800   50.9670 H   0  0  0  0  0  0  0  0  0  0  0  0
   38.6870   34.4390   49.2350 H   0  0  0  0  0  0  0  0  0  0  0  0
   39.2610   32.9870   47.4240 H   0  0  0  0  0  0  0  0  0  0  0  0
   36.4580   29.6140   49.0110 C   0  0  2  0  0  0  0  0  0  0  0  0
   36.9620   29.0750   48.1210 H   0  0  0  0  0  0  0  0  0  0  0  0
   33.6080   30.0110   46.7920 C   0  0  0  0  0  0  0  0  0  0  0  0
   32.8620   28.8640   46.9960 C   0  0  0  0  0  0  0  0  0  0  0  0
   33.3010   27.9640   47.9500 C   0  0  0  0  0  0  0  0  0  0  0  0
   34.4510   28.2360   48.6550 N   0  0  0  0  0  0  0  0  0  0  0  0
   35.1190   29.3450   48.4140 C   0  0  0  0  0  0  0  0  0  0  0  0
   34.7050   30.2390   47.4870 N   0  0  0  0  0  0  0  0  0  0  0  0
   33.2630   30.7250   46.0380 H   0  0  0  0  0  0  0  0  0  0  0  0
   31.9670   28.6490   46.4470 H   0  0  0  0  0  0  0  0  0  0  0  0
   32.7870   27.0430   48.1820 H   0  0  0  0  0  0  0  0  0  0  0  0
   36.9150   28.8430   49.9340 O   0  0  0  0  0  0  0  0  0  0  0  0
   36.3820   28.1280   50.3500 H   0  0  0  0  0  0  0  0  0  0  0  0
   38.3150   30.4550   47.0120 C   0  0  0  0  0  3  0  0  0  0  0  0
   38.8900   30.8940   45.8870 C   0  0  0  0  0  3  0  0  0  0  0  0
   39.3710   30.1020   44.7330 C   0  0  0  0  0  0  0  0  0  0  0  0
   40.4800   30.0880   44.7800 H   0  0  0  0  0  0  0  0  0  0  0  0
   38.9180   29.0960   44.7820 H   0  0  0  0  0  0  0  0  0  0  0  0
   38.9100   30.9260   43.2020 S   0  0  0  0  0  0  0  0  0  0  0  0
   37.1380   31.2200   43.1340 C   0  0  0  0  0  0  0  0  0  0  0  0
   36.8620   32.5300   42.7290 C   0  0  0  0  0  0  0  0  0  0  0  0
   37.5740   33.2970   42.4830 H   0  0  0  0  0  0  0  0  0  0  0  0
   35.5270   32.9120   42.6220 C   0  0  0  0  0  0  0  0  0  0  0  0
   35.2500   33.9140   42.3120 H   0  0  0  0  0  0  0  0  0  0  0  0
   34.5420   31.9780   42.9210 C   0  0  0  0  0  3  0  0  0  0  0  0
   34.8930   30.7070   43.3140 C   0  0  0  0  0  3  0  0  0  0  0  0
   36.1740   30.3370   43.4170 N   0  0  0  0  0  0  0  0  0  0  0  0
  1  2  1  0  0  0  0
  2  3  2  0  0  0  0
  2  7  1  0  0  0  0
  3  8  1  0  0  0  0
  4  9  1  0  0  0  0
  4  3  1  0  0  0  0
  5  4  2  0  0  0  0
  6  5  1  0  0  0  0
  6  1  2  0  0  0  0
 10  5  1  0  0  0  0
 11 12  1  6  0  0  0
 11  1  1  0  0  0  0
 11 22  1  0  0  0  0
 13 14  2  0  0  0  0
 13 18  1  0  0  0  0
 14 15  1  0  0  0  0
 15 21  1  0  0  0  0
 15 16  2  0  0  0  0
 17 16  1  0  0  0  0
 17 11  1  0  0  0  0
 18 17  2  0  0  0  0
 19 13  1  0  0  0  0
 20 14  1  0  0  0  0
 22 23  1  0  0  0  0
 24  6  1  0  0  0  0
 25 24  2  0  0  0  0
 26 27  1  0  0  0  0
 26 28  1  0  0  0  0
 26 25  1  0  0  0  0
 29 26  1  0  0  0  0
 30 29  1  0  0  0  0
 30 37  1  0  0  0  0
 31 30  2  0  0  0  0
 32 31  1  0  0  0  0
 33 31  1  0  0  0  0
 33 35  2  0  0  0  0
 34 33  1  0  0  0  0
 35 36  1  0  0  0  0
 36 37  2  0  0  0  0
M  END
>  <minimizedAffinity>
-5.5556159

>  <minimizedRMSD>
0.431293368

$$$$
