
 OpenBabel03272509423D

 37 39  0  0  1  0  0  0  0  0999 V2000
   37.0080   30.9180   49.0190 C   0  0  0  0  0  0  0  0  0  0  0  0
   36.7170   31.8030   50.0600 C   0  0  0  0  0  0  0  0  0  0  0  0
   37.3140   33.0500   50.1480 C   0  0  0  0  0  0  0  0  0  0  0  0
   38.2350   33.4420   49.1660 C   0  0  0  0  0  0  0  0  0  0  0  0
   38.5060   32.5680   48.1600 C   0  0  0  0  0  0  0  0  0  0  0  0
   37.8920   31.3240   48.1000 C   0  0  0  0  0  0  0  0  0  0  0  0
   35.9900   31.4470   50.8010 H   0  0  0  0  0  0  0  0  0  0  0  0
   36.9900   33.6200   51.0080 H   0  0  0  0  0  0  0  0  0  0  0  0
   38.6430   34.4180   49.3150 H   0  0  0  0  0  0  0  0  0  0  0  0
   39.2390   33.0080   47.4770 H   0  0  0  0  0  0  0  0  0  0  0  0
   36.4120   29.6020   48.9480 C   0  0  2  0  0  0  0  0  0  0  0  0
   36.9350   29.0800   48.0590 H   0  0  0  0  0  0  0  0  0  0  0  0
   33.5610   30.1180   46.7550 C   0  0  0  0  0  0  0  0  0  0  0  0
   32.8560   28.9310   46.8370 C   0  0  0  0  0  0  0  0  0  0  0  0
   33.3220   27.9560   47.7000 C   0  0  0  0  0  0  0  0  0  0  0  0
   34.4580   28.1970   48.4390 N   0  0  0  0  0  0  0  0  0  0  0  0
   35.0870   29.3470   48.3150 C   0  0  0  0  0  0  0  0  0  0  0  0
   34.6450   30.3140   47.4780 N   0  0  0  0  0  0  0  0  0  0  0  0
   33.1940   30.8920   46.0740 H   0  0  0  0  0  0  0  0  0  0  0  0
   31.9720   28.7400   46.2620 H   0  0  0  0  0  0  0  0  0  0  0  0
   32.8400   26.9990   47.8350 H   0  0  0  0  0  0  0  0  0  0  0  0
   36.8470   28.8130   49.8660 O   0  0  0  0  0  0  0  0  0  0  0  0
   36.3030   28.0910   50.2570 H   0  0  0  0  0  0  0  0  0  0  0  0
   38.2950   30.4880   46.9940 C   0  0  0  0  0  3  0  0  0  0  0  0
   38.9700   30.9370   45.9300 C   0  0  0  0  0  3  0  0  0  0  0  0
   39.4730   30.1670   44.7700 C   0  0  0  0  0  0  0  0  0  0  0  0
   40.5810   30.1790   44.8200 H   0  0  0  0  0  0  0  0  0  0  0  0
   39.0440   29.1500   44.8090 H   0  0  0  0  0  0  0  0  0  0  0  0
   38.9960   30.9930   43.2450 S   0  0  0  0  0  0  0  0  0  0  0  0
   37.2170   31.2390   43.1720 C   0  0  0  0  0  0  0  0  0  0  0  0
   36.9070   32.5420   42.7650 C   0  0  0  0  0  0  0  0  0  0  0  0
   37.5980   33.3260   42.5220 H   0  0  0  0  0  0  0  0  0  0  0  0
   35.5620   32.8870   42.6530 C   0  0  0  0  0  0  0  0  0  0  0  0
   35.2600   33.8800   42.3430 H   0  0  0  0  0  0  0  0  0  0  0  0
   34.6020   31.9270   42.9510 C   0  0  0  0  0  3  0  0  0  0  0  0
   34.9860   30.6650   43.3440 C   0  0  0  0  0  3  0  0  0  0  0  0
   36.2770   30.3300   43.4530 N   0  0  0  0  0  0  0  0  0  0  0  0
  1  2  1  0  0  0  0
  2  3  2  0  0  0  0
  2  7  1  0  0  0  0
  3  8  1  0  0  0  0
  4  9  1  0  0  0  0
  4  3  1  0  0  0  0
  5  4  2  0  0  0  0
  6  5  1  0  0  0  0
  6  1  2  0  0  0  0
 10  5  1  0  0  0  0
 11 12  1  6  0  0  0
 11  1  1  0  0  0  0
 11 22  1  0  0  0  0
 13 14  2  0  0  0  0
 13 18  1  0  0  0  0
 14 15  1  0  0  0  0
 15 21  1  0  0  0  0
 15 16  2  0  0  0  0
 17 16  1  0  0  0  0
 17 11  1  0  0  0  0
 18 17  2  0  0  0  0
 19 13  1  0  0  0  0
 20 14  1  0  0  0  0
 22 23  1  0  0  0  0
 24  6  1  0  0  0  0
 25 24  2  0  0  0  0
 26 28  1  0  0  0  0
 26 27  1  0  0  0  0
 26 25  1  0  0  0  0
 29 26  1  0  0  0  0
 30 29  1  0  0  0  0
 30 37  1  0  0  0  0
 31 30  2  0  0  0  0
 32 31  1  0  0  0  0
 33 31  1  0  0  0  0
 33 35  2  0  0  0  0
 34 33  1  0  0  0  0
 35 36  1  0  0  0  0
 36 37  2  0  0  0  0
M  END
>  <minimizedAffinity>
-5.55450392

>  <minimizedRMSD>
0.439869344

$$$$
