
 OpenBabel03272500453D

 24 26  0  0  0  0  0  0  0  0999 V2000
   36.3300   30.4150   47.4750 C   0  0  0  0  0  0  0  0  0  0  0  0
   35.6120   29.9870   46.3550 C   0  0  0  0  0  0  0  0  0  0  0  0
   36.2150   30.5580   45.2260 C   0  0  0  0  0  0  0  0  0  0  0  0
   37.2510   31.2910   45.6860 N   0  0  0  0  0  0  0  0  0  0  0  0
   37.2930   31.1880   46.9990 N   0  0  0  0  0  0  0  0  0  0  0  0
   34.7450   29.3330   46.3730 H   0  0  0  0  0  0  0  0  0  0  0  0
   35.8730   30.4040   44.2030 H   0  0  0  0  0  0  0  0  0  0  0  0
   36.9530   29.7660   49.8190 C   0  0  0  0  0  0  0  0  0  0  0  0
   35.9840   30.0150   48.8230 C   0  0  0  0  0  0  0  0  0  0  0  0
   34.6410   29.8660   49.1650 C   0  0  0  0  0  0  0  0  0  0  0  0
   34.3380   29.4890   50.4390 N   0  0  0  0  0  0  0  0  0  0  0  0
   35.2860   29.2580   51.3680 C   0  0  0  0  0  0  0  0  0  0  0  0
   36.5880   29.3960   51.0580 N   0  0  0  0  0  0  0  0  0  0  0  0
   37.9970   29.8790   49.5620 H   0  0  0  0  0  0  0  0  0  0  0  0
   33.9000   30.0560   48.4040 H   0  0  0  0  0  0  0  0  0  0  0  0
   34.8260   28.9750   52.2950 H   0  0  0  0  0  0  0  0  0  0  0  0
   38.1410   32.0440   44.8750 C   0  0  0  0  0  0  0  0  0  0  0  0
   39.2250   32.6890   45.4200 C   0  0  0  0  0  0  0  0  0  0  0  0
   39.3470   32.5810   46.4960 H   0  0  0  0  0  0  0  0  0  0  0  0
   40.1470   33.4420   44.7330 C   0  0  0  0  0  0  0  0  0  0  0  0
   40.9830   33.9270   45.2180 H   0  0  0  0  0  0  0  0  0  0  0  0
   39.8880   33.5080   43.3610 C   0  0  0  0  0  0  0  0  0  0  0  0
   38.8100   32.8700   42.8030 C   0  0  0  0  0  0  0  0  0  0  0  0
   37.9480   32.1480   43.5490 N   0  0  0  0  0  0  0  0  0  0  0  0
  1  9  1  0  0  0  0
  2  6  1  0  0  0  0
  2  1  1  0  0  0  0
  3  4  1  0  0  0  0
  3  2  2  0  0  0  0
  4  5  1  0  0  0  0
  5  1  2  0  0  0  0
  7  3  1  0  0  0  0
  8 13  1  0  0  0  0
  9 10  1  0  0  0  0
  9  8  2  0  0  0  0
 10 11  2  0  0  0  0
 11 12  1  0  0  0  0
 12 16  1  0  0  0  0
 13 12  2  0  0  0  0
 14  8  1  0  0  0  0
 15 10  1  0  0  0  0
 17 18  1  0  0  0  0
 17  4  1  0  0  0  0
 18 19  1  0  0  0  0
 20 21  1  0  0  0  0
 20 18  2  0  0  0  0
 22 20  1  0  0  0  0
 23 22  2  0  0  0  0
 23 24  1  0  0  0  0
 24 17  2  0  0  0  0
M  END
>  <minimizedAffinity>
-4.58571386

>  <minimizedRMSD>
4.0910449

$$$$
