
 OpenBabel03272510113D

 34 37  0  0  0  0  0  0  0  0999 V2000
   32.6750   28.1720   49.1430 C   0  0  0  0  0  0  0  0  0  0  0  0
   33.0040   29.0830   50.0830 C   0  0  0  0  0  0  0  0  0  0  0  0
   34.2940   29.4680   50.3820 C   0  0  0  0  0  0  0  0  0  0  0  0
   35.3430   28.9190   49.7090 C   0  0  0  0  0  0  0  0  0  0  0  0
   35.0140   27.9740   48.7310 C   0  0  0  0  0  0  0  0  0  0  0  0
   33.7380   27.6300   48.4750 N   0  0  0  0  0  0  0  0  0  0  0  0
   32.2350   29.5680   50.6660 H   0  0  0  0  0  0  0  0  0  0  0  0
   34.5480   30.2000   51.1390 H   0  0  0  0  0  0  0  0  0  0  0  0
   35.8100   27.5050   48.1650 H   0  0  0  0  0  0  0  0  0  0  0  0
   30.2660   27.8580   49.7190 C   0  0  0  0  0  0  0  0  0  0  0  0
   31.3400   27.7650   48.8230 C   0  0  0  0  0  0  0  0  0  0  0  0
   31.0480   27.2430   47.5760 C   0  0  0  0  0  0  0  0  0  0  0  0
   29.7710   26.8570   47.2810 N   0  0  0  0  0  0  0  0  0  0  0  0
   28.7790   26.9780   48.2010 C   0  0  0  0  0  0  0  0  0  0  0  0
   29.0130   27.4800   49.4300 N   0  0  0  0  0  0  0  0  0  0  0  0
   30.4410   28.2590   50.7080 H   0  0  0  0  0  0  0  0  0  0  0  0
   31.8640   27.1630   46.8730 H   0  0  0  0  0  0  0  0  0  0  0  0
   27.8280   26.6330   47.8220 H   0  0  0  0  0  0  0  0  0  0  0  0
   36.7040   29.1980   49.8880 O   0  0  0  0  0  0  0  0  0  0  0  0
   37.3470   30.1610   49.1280 C   0  0  0  0  0  0  0  0  0  0  0  0
   37.9090   31.1970   49.8780 C   0  0  0  0  0  0  0  0  0  0  0  0
   38.5190   32.0890   48.9860 C   0  0  0  0  0  0  0  0  0  0  0  0
   38.3010   31.5600   47.7650 N   0  0  0  0  0  0  0  0  0  0  0  0
   37.6230   30.4420   47.8390 N   0  0  0  0  0  0  0  0  0  0  0  0
   37.9700   31.4440   50.9320 H   0  0  0  0  0  0  0  0  0  0  0  0
   39.0610   33.0110   49.1410 H   0  0  0  0  0  0  0  0  0  0  0  0
   38.7440   32.1260   46.5310 C   0  0  0  0  0  0  0  0  0  0  0  0
   37.9120   32.0230   45.4340 C   0  0  0  0  0  0  0  0  0  0  0  0
   36.9600   31.5510   45.4360 H   0  0  0  0  0  0  0  0  0  0  0  0
   38.3430   32.5710   44.2440 C   0  0  0  0  0  0  0  0  0  0  0  0
   37.7410   32.5300   43.3300 H   0  0  0  0  0  0  0  0  0  0  0  0
   39.5670   33.2220   44.0860 C   0  0  0  0  0  3  0  0  0  0  0  0
   40.3450   33.2830   45.2400 C   0  0  0  0  0  3  0  0  0  0  0  0
   39.9350   32.7480   46.4180 N   0  0  0  0  0  0  0  0  0  0  0  0
  1  2  1  0  0  0  0
  2  3  2  0  0  0  0
  2  7  1  0  0  0  0
  3  8  1  0  0  0  0
  4 19  1  0  0  0  0
  4  3  1  0  0  0  0
  5  4  2  0  0  0  0
  6  5  1  0  0  0  0
  6  1  2  0  0  0  0
  9  5  1  0  0  0  0
 10 16  1  0  0  0  0
 11  1  1  0  0  0  0
 11 10  2  0  0  0  0
 12 11  1  0  0  0  0
 13 12  2  0  0  0  0
 13 14  1  0  0  0  0
 14 15  2  0  0  0  0
 15 10  1  0  0  0  0
 17 12  1  0  0  0  0
 18 14  1  0  0  0  0
 20 21  1  0  0  0  0
 20 19  1  0  0  0  0
 21 25  1  0  0  0  0
 22 26  1  0  0  0  0
 22 21  2  0  0  0  0
 23 24  1  0  0  0  0
 23 22  1  0  0  0  0
 24 20  2  0  0  0  0
 27 23  1  0  0  0  0
 28 29  1  0  0  0  0
 28 27  2  0  0  0  0
 30 28  1  0  0  0  0
 31 30  1  0  0  0  0
 32 30  2  0  0  0  0
 32 33  1  0  0  0  0
 33 34  2  0  0  0  0
 34 27  1  0  0  0  0
M  END
>  <minimizedAffinity>
-5.78991318

>  <minimizedRMSD>
2.04347897

$$$$
