
 OpenBabel03262521543D

 38 40  0  0  1  0  0  0  0  0999 V2000
   31.8990   26.8460   48.3620 C   0  0  1  0  0  0  0  0  0  0  0  0
   32.6120   28.1670   48.2990 C   0  0  2  0  0  0  0  0  0  0  0  0
   32.5110   28.6910   46.8980 C   0  0  0  0  0  0  0  0  0  0  0  0
   31.8330   27.8490   46.0480 O   0  0  0  0  0  0  0  0  0  0  0  0
   30.5330   27.5840   46.4770 C   0  0  0  0  0  0  0  0  0  0  0  0
   30.4870   27.0910   47.8960 C   0  0  2  0  0  0  0  0  0  0  0  0
   31.8990   26.3890   49.3710 H   0  0  0  0  0  0  0  0  0  0  0  0
   32.1140   28.8260   49.0550 H   0  0  0  0  0  0  0  0  0  0  0  0
   33.4920   28.9150   46.4460 H   0  0  0  0  0  0  0  0  0  0  0  0
   31.9400   29.6570   46.9470 H   0  0  0  0  0  0  0  0  0  0  0  0
   29.9220   28.4730   46.2710 H   0  0  0  0  0  0  0  0  0  0  0  0
   30.1610   26.7680   45.8210 H   0  0  0  0  0  0  0  0  0  0  0  0
   29.8840   26.1870   47.9830 H   0  0  0  0  0  0  0  0  0  0  0  0
   32.4690   25.9450   47.4430 O   0  0  0  0  0  0  0  0  0  0  0  0
   31.9030   25.1580   47.3070 H   0  0  0  0  0  0  0  0  0  0  0  0
   34.3360   28.0600   48.8370 S   0  0  0  0  0  0  0  0  0  0  0  0
   34.6830   29.3010   50.1020 C   0  0  0  0  0  0  0  0  0  0  0  0
   34.0930   29.0550   51.0240 H   0  0  0  0  0  0  0  0  0  0  0  0
   34.3260   30.3000   49.7670 H   0  0  0  0  0  0  0  0  0  0  0  0
   36.4050   29.4070   50.5560 S   0  0  0  0  0  0  0  0  0  0  0  0
   37.2170   30.5900   49.5150 C   0  0  0  0  0  0  0  0  0  0  0  0
   37.2610   31.8720   50.0220 C   0  0  0  0  0  0  0  0  0  0  0  0
   37.8910   32.8700   49.2480 C   0  0  0  0  0  0  0  0  0  0  0  0
   38.4260   32.5060   48.0340 N   0  0  0  0  0  0  0  0  0  0  0  0
   38.3450   31.2230   47.5990 C   0  0  0  0  0  0  0  0  0  0  0  0
   37.7530   30.2870   48.3260 N   0  0  0  0  0  0  0  0  0  0  0  0
   36.8630   32.2120   50.9550 H   0  0  0  0  0  0  0  0  0  0  0  0
   37.9500   33.8850   49.6020 H   0  0  0  0  0  0  0  0  0  0  0  0
   38.8010   31.0560   46.6300 H   0  0  0  0  0  0  0  0  0  0  0  0
   29.9760   28.0790   48.7400 O   0  0  0  0  0  0  0  0  0  0  0  0
   28.8980   27.9570   49.5840 C   0  0  0  0  0  0  0  0  0  0  0  0
   29.0630   27.1350   50.7070 C   0  0  0  0  0  0  0  0  0  0  0  0
   29.9910   26.6150   50.9100 H   0  0  0  0  0  0  0  0  0  0  0  0
   27.9620   27.0320   51.5380 C   0  0  0  0  0  0  0  0  0  0  0  0
   28.0160   26.4030   52.4390 H   0  0  0  0  0  0  0  0  0  0  0  0
   26.7610   27.6740   51.3210 C   0  0  0  0  0  0  0  0  0  0  0  0
   26.7280   28.4530   50.1820 C   0  0  0  0  0  0  0  0  0  0  0  0
   27.7490   28.6100   49.3200 N   0  0  0  0  0  0  0  0  0  0  0  0
  1  7  1  1  0  0  0
  2  1  1  0  0  0  0
  2 16  1  0  0  0  0
  2  8  1  1  0  0  0
  3 10  1  0  0  0  0
  3  2  1  0  0  0  0
  4  5  1  0  0  0  0
  4  3  1  0  0  0  0
  5  6  1  0  0  0  0
  6 13  1  1  0  0  0
  6  1  1  0  0  0  0
  6 30  1  0  0  0  0
  9  3  1  0  0  0  0
 11  5  1  0  0  0  0
 12  5  1  0  0  0  0
 14  1  1  0  0  0  0
 15 14  1  0  0  0  0
 16 17  1  0  0  0  0
 17 20  1  0  0  0  0
 17 18  1  0  0  0  0
 19 17  1  0  0  0  0
 21 22  1  0  0  0  0
 21 20  1  0  0  0  0
 22 27  1  0  0  0  0
 23 28  1  0  0  0  0
 23 22  2  0  0  0  0
 24 23  1  0  0  0  0
 25 24  2  0  0  0  0
 25 26  1  0  0  0  0
 26 21  2  0  0  0  0
 29 25  1  0  0  0  0
 30 31  1  0  0  0  0
 31 32  1  0  0  0  0
 32 33  1  0  0  0  0
 32 34  2  0  0  0  0
 34 35  1  0  0  0  0
 36 34  1  0  0  0  0
 37 36  2  0  0  0  0
 38 31  2  0  0  0  0
 38 37  1  0  0  0  0
M  END
>  <minimizedAffinity>
-5.78258085

>  <minimizedRMSD>
1.2973907

$$$$
