
 OpenBabel03262521573D

 38 40  0  0  1  0  0  0  0  0999 V2000
   37.3930   24.0570   31.1040 C   0  0  1  0  0  0  0  0  0  0  0  0
   37.5770   24.6640   32.4660 C   0  0  2  0  0  0  0  0  0  0  0  0
   36.7140   25.8870   32.5570 C   0  0  0  0  0  0  0  0  0  0  0  0
   36.0120   26.1470   31.4040 O   0  0  0  0  0  0  0  0  0  0  0  0
   35.1820   25.0900   31.0290 C   0  0  0  0  0  0  0  0  0  0  0  0
   35.9200   23.7840   30.9440 C   0  0  2  0  0  0  0  0  0  0  0  0
   37.9780   23.1280   30.9490 H   0  0  0  0  0  0  0  0  0  0  0  0
   37.2970   23.8690   33.2020 H   0  0  0  0  0  0  0  0  0  0  0  0
   37.2760   26.7960   32.8270 H   0  0  0  0  0  0  0  0  0  0  0  0
   35.9670   25.7030   33.3760 H   0  0  0  0  0  0  0  0  0  0  0  0
   34.3110   25.0930   31.6970 H   0  0  0  0  0  0  0  0  0  0  0  0
   34.8180   25.3420   30.0100 H   0  0  0  0  0  0  0  0  0  0  0  0
   35.7160   23.2730   30.0030 H   0  0  0  0  0  0  0  0  0  0  0  0
   37.7340   24.9920   30.1080 O   0  0  0  0  0  0  0  0  0  0  0  0
   37.4280   24.7070   29.2230 H   0  0  0  0  0  0  0  0  0  0  0  0
   39.3050   25.0520   32.8330 S   0  0  0  0  0  0  0  0  0  0  0  0
   40.2730   23.5380   32.9990 C   0  0  0  0  0  0  0  0  0  0  0  0
   41.2080   23.7650   33.5770 H   0  0  0  0  0  0  0  0  0  0  0  0
   40.6100   23.1870   31.9980 H   0  0  0  0  0  0  0  0  0  0  0  0
   39.4120   22.2160   33.8330 S   0  0  0  0  0  0  0  0  0  0  0  0
   39.2640   22.6060   35.5560 C   0  0  0  0  0  0  0  0  0  0  0  0
   40.3400   22.2240   36.3290 C   0  0  0  0  0  0  0  0  0  0  0  0
   40.2950   22.5000   37.7120 C   0  0  0  0  0  0  0  0  0  0  0  0
   39.1810   23.1360   38.2090 N   0  0  0  0  0  0  0  0  0  0  0  0
   38.1580   23.4830   37.3860 C   0  0  0  0  0  0  0  0  0  0  0  0
   38.2020   23.2220   36.0880 N   0  0  0  0  0  0  0  0  0  0  0  0
   41.2290   21.7290   36.0000 H   0  0  0  0  0  0  0  0  0  0  0  0
   41.1110   22.2210   38.3560 H   0  0  0  0  0  0  0  0  0  0  0  0
   37.3350   23.9770   37.8900 H   0  0  0  0  0  0  0  0  0  0  0  0
   35.5700   22.9550   32.0120 O   0  0  0  0  0  0  0  0  0  0  0  0
   35.6470   21.5830   32.0430 C   0  0  0  0  0  0  0  0  0  0  0  0
   35.5320   20.9720   33.2980 C   0  0  0  0  0  0  0  0  0  0  0  0
   35.3890   21.5430   34.2090 H   0  0  0  0  0  0  0  0  0  0  0  0
   35.6130   19.5910   33.2990 C   0  0  0  0  0  0  0  0  0  0  0  0
   35.5320   19.0400   34.2480 H   0  0  0  0  0  0  0  0  0  0  0  0
   35.7940   18.8210   32.1690 C   0  0  0  0  0  3  0  0  0  0  0  0
   35.8930   19.5440   30.9970 C   0  0  0  0  0  3  0  0  0  0  0  0
   35.8250   20.8850   30.9050 N   0  0  0  0  0  0  0  0  0  0  0  0
  1  7  1  6  0  0  0
  1  2  1  0  0  0  0
  2  3  1  0  0  0  0
  2 16  1  0  0  0  0
  2  8  1  1  0  0  0
  3  9  1  0  0  0  0
  3 10  1  0  0  0  0
  4  3  1  0  0  0  0
  5  4  1  0  0  0  0
  5 11  1  0  0  0  0
  6 13  1  6  0  0  0
  6  5  1  0  0  0  0
  6  1  1  0  0  0  0
  6 30  1  0  0  0  0
 12  5  1  0  0  0  0
 14  1  1  0  0  0  0
 15 14  1  0  0  0  0
 16 17  1  0  0  0  0
 17 18  1  0  0  0  0
 17 20  1  0  0  0  0
 19 17  1  0  0  0  0
 20 21  1  0  0  0  0
 21 26  2  0  0  0  0
 21 22  1  0  0  0  0
 22 23  2  0  0  0  0
 23 24  1  0  0  0  0
 23 28  1  0  0  0  0
 25 29  1  0  0  0  0
 25 24  2  0  0  0  0
 26 25  1  0  0  0  0
 27 22  1  0  0  0  0
 30 31  1  0  0  0  0
 31 32  1  0  0  0  0
 32 34  2  0  0  0  0
 32 33  1  0  0  0  0
 34 35  1  0  0  0  0
 36 34  1  0  0  0  0
 37 36  2  0  0  0  0
 38 37  1  0  0  0  0
 38 31  2  0  0  0  0
M  END
>  <minimizedAffinity>
-5.34014463

$$$$

 OpenBabel03262521573D

 38 40  0  0  1  0  0  0  0  0999 V2000
   37.6950   24.7760   31.1940 C   0  0  1  0  0  0  0  0  0  0  0  0
   37.4730   25.6130   32.4220 C   0  0  2  0  0  0  0  0  0  0  0  0
   36.2080   26.3970   32.2350 C   0  0  0  0  0  0  0  0  0  0  0  0
   35.6040   26.1760   31.0200 O   0  0  0  0  0  0  0  0  0  0  0  0
   35.2840   24.8340   30.8140 C   0  0  0  0  0  0  0  0  0  0  0  0
   36.4630   23.9260   31.0180 C   0  0  2  0  0  0  0  0  0  0  0  0
   38.6000   24.1380   31.2490 H   0  0  0  0  0  0  0  0  0  0  0  0
   37.4270   24.8980   33.2820 H   0  0  0  0  0  0  0  0  0  0  0  0
   36.3500   27.4840   32.3530 H   0  0  0  0  0  0  0  0  0  0  0  0
   35.4930   26.0660   33.0360 H   0  0  0  0  0  0  0  0  0  0  0  0
   34.4030   24.6000   31.4260 H   0  0  0  0  0  0  0  0  0  0  0  0
   34.9770   24.7590   29.7490 H   0  0  0  0  0  0  0  0  0  0  0  0
   36.5810   23.2340   30.1830 H   0  0  0  0  0  0  0  0  0  0  0  0
   37.7750   25.6000   30.0560 O   0  0  0  0  0  0  0  0  0  0  0  0
   37.7070   25.0820   29.2280 H   0  0  0  0  0  0  0  0  0  0  0  0
   38.8700   26.6990   32.7930 S   0  0  0  0  0  0  0  0  0  0  0  0
   39.1050   26.8430   34.5770 C   0  0  0  0  0  0  0  0  0  0  0  0
   39.1560   27.9300   34.8510 H   0  0  0  0  0  0  0  0  0  0  0  0
   40.0860   26.4070   34.8710 H   0  0  0  0  0  0  0  0  0  0  0  0
   37.8070   26.0880   35.5410 S   0  0  0  0  0  0  0  0  0  0  0  0
   38.4860   24.7660   36.5080 C   0  0  0  0  0  0  0  0  0  0  0  0
   39.5040   24.0660   35.8970 C   0  0  0  0  0  0  0  0  0  0  0  0
   40.0950   22.9980   36.6060 C   0  0  0  0  0  0  0  0  0  0  0  0
   39.6200   22.7180   37.8660 N   0  0  0  0  0  0  0  0  0  0  0  0
   38.6130   23.4510   38.4050 C   0  0  0  0  0  0  0  0  0  0  0  0
   38.0590   24.4530   37.7380 N   0  0  0  0  0  0  0  0  0  0  0  0
   39.9130   24.2380   34.9230 H   0  0  0  0  0  0  0  0  0  0  0  0
   40.8930   22.4230   36.1690 H   0  0  0  0  0  0  0  0  0  0  0  0
   38.3230   23.1380   39.4010 H   0  0  0  0  0  0  0  0  0  0  0  0
   36.3270   23.2050   32.2060 O   0  0  0  0  0  0  0  0  0  0  0  0
   36.0240   21.8700   32.3250 C   0  0  0  0  0  0  0  0  0  0  0  0
   35.9250   21.1360   31.1350 C   0  0  0  0  0  0  0  0  0  0  0  0
   36.0770   21.5890   30.1620 H   0  0  0  0  0  0  0  0  0  0  0  0
   35.6190   19.7950   31.2850 C   0  0  0  0  0  0  0  0  0  0  0  0
   35.5240   19.1550   30.3960 H   0  0  0  0  0  0  0  0  0  0  0  0
   35.4170   19.1750   32.5000 C   0  0  0  0  0  3  0  0  0  0  0  0
   35.5430   20.0070   33.5940 C   0  0  0  0  0  3  0  0  0  0  0  0
   35.8380   21.3190   33.5400 N   0  0  0  0  0  0  0  0  0  0  0  0
  1  7  1  1  0  0  0
  1  2  1  0  0  0  0
  2 16  1  0  0  0  0
  2  8  1  1  0  0  0
  3  9  1  0  0  0  0
  3  2  1  0  0  0  0
  3 10  1  0  0  0  0
  4  3  1  0  0  0  0
  5  6  1  0  0  0  0
  5  4  1  0  0  0  0
  5 11  1  0  0  0  0
  6 13  1  6  0  0  0
  6  1  1  0  0  0  0
  6 30  1  0  0  0  0
 12  5  1  0  0  0  0
 14  1  1  0  0  0  0
 15 14  1  0  0  0  0
 16 17  1  0  0  0  0
 17 18  1  0  0  0  0
 17 19  1  0  0  0  0
 17 20  1  0  0  0  0
 20 21  1  0  0  0  0
 21 26  1  0  0  0  0
 22 21  2  0  0  0  0
 22 23  1  0  0  0  0
 23 24  2  0  0  0  0
 24 25  1  0  0  0  0
 25 29  1  0  0  0  0
 26 25  2  0  0  0  0
 27 22  1  0  0  0  0
 28 23  1  0  0  0  0
 30 31  1  0  0  0  0
 31 38  1  0  0  0  0
 32 34  1  0  0  0  0
 32 31  2  0  0  0  0
 33 32  1  0  0  0  0
 34 36  2  0  0  0  0
 35 34  1  0  0  0  0
 36 37  1  0  0  0  0
 38 37  2  0  0  0  0
M  END
>  <minimizedAffinity>
-5.29298639

$$$$

 OpenBabel03262521573D

 38 40  0  0  1  0  0  0  0  0999 V2000
   35.9440   27.0540   31.5700 C   0  0  1  0  0  0  0  0  0  0  0  0
   37.3390   26.8140   32.0760 C   0  0  2  0  0  0  0  0  0  0  0  0
   38.2430   27.8480   31.4750 C   0  0  0  0  0  0  0  0  0  0  0  0
   37.5940   28.7130   30.6250 O   0  0  0  0  0  0  0  0  0  0  0  0
   36.5510   29.3980   31.2480 C   0  0  0  0  0  0  0  0  0  0  0  0
   35.5870   28.4720   31.9350 C   0  0  2  0  0  0  0  0  0  0  0  0
   35.1950   26.3490   31.9800 H   0  0  0  0  0  0  0  0  0  0  0  0
   37.2790   26.8720   33.1920 H   0  0  0  0  0  0  0  0  0  0  0  0
   39.0990   27.4130   30.9320 H   0  0  0  0  0  0  0  0  0  0  0  0
   38.6610   28.4540   32.3230 H   0  0  0  0  0  0  0  0  0  0  0  0
   36.9920   30.1730   31.8870 H   0  0  0  0  0  0  0  0  0  0  0  0
   36.0030   29.9140   30.4310 H   0  0  0  0  0  0  0  0  0  0  0  0
   34.5560   28.6980   31.6630 H   0  0  0  0  0  0  0  0  0  0  0  0
   35.9230   26.9890   30.1640 O   0  0  0  0  0  0  0  0  0  0  0  0
   35.0880   27.3460   29.7960 H   0  0  0  0  0  0  0  0  0  0  0  0
   37.9320   25.1410   31.7270 S   0  0  0  0  0  0  0  0  0  0  0  0
   38.5130   24.3470   33.2410 C   0  0  0  0  0  0  0  0  0  0  0  0
   39.6290   24.2360   33.1880 H   0  0  0  0  0  0  0  0  0  0  0  0
   38.1060   23.3140   33.3130 H   0  0  0  0  0  0  0  0  0  0  0  0
   38.1160   25.2470   34.7290 S   0  0  0  0  0  0  0  0  0  0  0  0
   38.6550   24.3200   36.1400 C   0  0  0  0  0  0  0  0  0  0  0  0
   37.9280   24.5440   37.2900 C   0  0  0  0  0  0  0  0  0  0  0  0
   38.2990   23.8410   38.4570 C   0  0  0  0  0  0  0  0  0  0  0  0
   39.3630   22.9730   38.3780 N   0  0  0  0  0  0  0  0  0  0  0  0
   40.0330   22.8020   37.2090 C   0  0  0  0  0  0  0  0  0  0  0  0
   39.6840   23.4630   36.1150 N   0  0  0  0  0  0  0  0  0  0  0  0
   37.0960   25.2040   37.4110 H   0  0  0  0  0  0  0  0  0  0  0  0
   37.7620   23.9830   39.3790 H   0  0  0  0  0  0  0  0  0  0  0  0
   40.8510   22.0950   37.2690 H   0  0  0  0  0  0  0  0  0  0  0  0
   35.7350   28.5540   33.3210 O   0  0  0  0  0  0  0  0  0  0  0  0
   35.1220   29.4560   34.1580 C   0  0  0  0  0  0  0  0  0  0  0  0
   35.9570   30.3320   34.8630 C   0  0  0  0  0  0  0  0  0  0  0  0
   37.0360   30.3100   34.7630 H   0  0  0  0  0  0  0  0  0  0  0  0
   35.3130   31.2280   35.6980 C   0  0  0  0  0  0  0  0  0  0  0  0
   35.9020   31.9470   36.2850 H   0  0  0  0  0  0  0  0  0  0  0  0
   33.9440   31.2950   35.8600 C   0  0  0  0  0  3  0  0  0  0  0  0
   33.2360   30.3790   35.1090 C   0  0  0  0  0  3  0  0  0  0  0  0
   33.7800   29.4740   34.2750 N   0  0  0  0  0  0  0  0  0  0  0  0
  1  6  1  0  0  0  0
  1  7  1  1  0  0  0
  1  2  1  0  0  0  0
  2  8  1  1  0  0  0
  3  2  1  0  0  0  0
  3 10  1  0  0  0  0
  4  5  1  0  0  0  0
  4  3  1  0  0  0  0
  5 11  1  0  0  0  0
  5  6  1  0  0  0  0
  6 13  1  6  0  0  0
  6 30  1  0  0  0  0
  9  3  1  0  0  0  0
 12  5  1  0  0  0  0
 14  1  1  0  0  0  0
 15 14  1  0  0  0  0
 16  2  1  0  0  0  0
 16 17  1  0  0  0  0
 17 19  1  0  0  0  0
 17 20  1  0  0  0  0
 18 17  1  0  0  0  0
 20 21  1  0  0  0  0
 21 22  1  0  0  0  0
 22 27  1  0  0  0  0
 22 23  2  0  0  0  0
 23 28  1  0  0  0  0
 24 23  1  0  0  0  0
 25 29  1  0  0  0  0
 25 24  2  0  0  0  0
 26 21  2  0  0  0  0
 26 25  1  0  0  0  0
 30 31  1  0  0  0  0
 31 38  2  0  0  0  0
 31 32  1  0  0  0  0
 32 34  2  0  0  0  0
 33 32  1  0  0  0  0
 34 36  1  0  0  0  0
 34 35  1  0  0  0  0
 37 36  2  0  0  0  0
 38 37  1  0  0  0  0
M  END
>  <minimizedAffinity>
-5.17600393

$$$$

 OpenBabel03262521573D

 38 40  0  0  1  0  0  0  0  0999 V2000
   36.9370   26.7070   34.6180 C   0  0  1  0  0  0  0  0  0  0  0  0
   37.4640   26.1760   33.3150 C   0  0  2  0  0  0  0  0  0  0  0  0
   38.8750   26.6560   33.1490 C   0  0  0  0  0  0  0  0  0  0  0  0
   39.3080   27.4500   34.1840 O   0  0  0  0  0  0  0  0  0  0  0  0
   39.2410   26.8070   35.4200 C   0  0  0  0  0  0  0  0  0  0  0  0
   37.8800   26.2340   35.6950 C   0  0  2  0  0  0  0  0  0  0  0  0
   35.9000   26.3830   34.8420 H   0  0  0  0  0  0  0  0  0  0  0  0
   37.3800   25.0620   33.3760 H   0  0  0  0  0  0  0  0  0  0  0  0
   39.0390   27.2040   32.2060 H   0  0  0  0  0  0  0  0  0  0  0  0
   39.5320   25.7450   33.1210 H   0  0  0  0  0  0  0  0  0  0  0  0
   40.0700   26.0890   35.4710 H   0  0  0  0  0  0  0  0  0  0  0  0
   39.4380   27.5950   36.1780 H   0  0  0  0  0  0  0  0  0  0  0  0
   37.5200   26.5200   36.6830 H   0  0  0  0  0  0  0  0  0  0  0  0
   36.9970   28.1130   34.6270 O   0  0  0  0  0  0  0  0  0  0  0  0
   36.8630   28.4770   35.5260 H   0  0  0  0  0  0  0  0  0  0  0  0
   36.4400   26.6460   31.9010 S   0  0  0  0  0  0  0  0  0  0  0  0
   35.6790   25.1870   31.1580 C   0  0  0  0  0  0  0  0  0  0  0  0
   35.2440   25.4710   30.1630 H   0  0  0  0  0  0  0  0  0  0  0  0
   34.8220   24.8440   31.7790 H   0  0  0  0  0  0  0  0  0  0  0  0
   36.8090   23.8310   30.9040 S   0  0  0  0  0  0  0  0  0  0  0  0
   36.4910   22.5660   32.1060 C   0  0  0  0  0  0  0  0  0  0  0  0
   35.4310   21.7370   31.8050 C   0  0  0  0  0  0  0  0  0  0  0  0
   35.1170   20.7060   32.7150 C   0  0  0  0  0  0  0  0  0  0  0  0
   35.8860   20.5870   33.8490 N   0  0  0  0  0  0  0  0  0  0  0  0
   36.9160   21.4410   34.0800 C   0  0  0  0  0  0  0  0  0  0  0  0
   37.2100   22.4090   33.2240 N   0  0  0  0  0  0  0  0  0  0  0  0
   34.8000   21.7820   30.9430 H   0  0  0  0  0  0  0  0  0  0  0  0
   34.2980   20.0340   32.5240 H   0  0  0  0  0  0  0  0  0  0  0  0
   37.4490   21.2500   35.0040 H   0  0  0  0  0  0  0  0  0  0  0  0
   37.9050   24.8420   35.5910 O   0  0  0  0  0  0  0  0  0  0  0  0
   38.7910   23.9910   36.2070 C   0  0  0  0  0  0  0  0  0  0  0  0
   38.6020   23.7640   37.5760 C   0  0  0  0  0  0  0  0  0  0  0  0
   37.8000   24.2310   38.1350 H   0  0  0  0  0  0  0  0  0  0  0  0
   39.5090   22.9030   38.1690 C   0  0  0  0  0  0  0  0  0  0  0  0
   39.4250   22.6770   39.2420 H   0  0  0  0  0  0  0  0  0  0  0  0
   40.5450   22.2840   37.5010 C   0  0  0  0  0  3  0  0  0  0  0  0
   40.6210   22.5910   36.1580 C   0  0  0  0  0  3  0  0  0  0  0  0
   39.7840   23.4150   35.5010 N   0  0  0  0  0  0  0  0  0  0  0  0
  1 14  1  0  0  0  0
  1  7  1  1  0  0  0
  1  6  1  0  0  0  0
  2  8  1  1  0  0  0
  2  1  1  0  0  0  0
  3  2  1  0  0  0  0
  3  4  1  0  0  0  0
  4  5  1  0  0  0  0
  5 11  1  0  0  0  0
  5  6  1  0  0  0  0
  5 12  1  0  0  0  0
  6 13  1  1  0  0  0
  9  3  1  0  0  0  0
 10  3  1  0  0  0  0
 14 15  1  0  0  0  0
 16  2  1  0  0  0  0
 17 19  1  0  0  0  0
 17 16  1  0  0  0  0
 18 17  1  0  0  0  0
 20 17  1  0  0  0  0
 20 21  1  0  0  0  0
 21 26  1  0  0  0  0
 22 21  2  0  0  0  0
 22 23  1  0  0  0  0
 23 24  2  0  0  0  0
 24 25  1  0  0  0  0
 25 29  1  0  0  0  0
 26 25  2  0  0  0  0
 27 22  1  0  0  0  0
 28 23  1  0  0  0  0
 30  6  1  0  0  0  0
 30 31  1  0  0  0  0
 31 32  1  0  0  0  0
 32 33  1  0  0  0  0
 32 34  2  0  0  0  0
 34 35  1  0  0  0  0
 36 34  1  0  0  0  0
 37 36  2  0  0  0  0
 38 37  1  0  0  0  0
 38 31  2  0  0  0  0
M  END
>  <minimizedAffinity>
-5.15761518

$$$$

 OpenBabel03262521573D

 38 40  0  0  1  0  0  0  0  0999 V2000
   37.8830   25.3180   31.0370 C   0  0  1  0  0  0  0  0  0  0  0  0
   37.8450   26.0400   32.3540 C   0  0  2  0  0  0  0  0  0  0  0  0
   36.5510   26.7920   32.4420 C   0  0  0  0  0  0  0  0  0  0  0  0
   35.7620   26.6530   31.3240 O   0  0  0  0  0  0  0  0  0  0  0  0
   35.4420   25.3230   31.0540 C   0  0  0  0  0  0  0  0  0  0  0  0
   36.6570   24.4430   30.9850 C   0  0  2  0  0  0  0  0  0  0  0  0
   38.7990   24.7100   30.8900 H   0  0  0  0  0  0  0  0  0  0  0  0
   37.9550   25.2550   33.1440 H   0  0  0  0  0  0  0  0  0  0  0  0
   36.6880   27.8710   32.6310 H   0  0  0  0  0  0  0  0  0  0  0  0
   35.9830   26.3710   33.3140 H   0  0  0  0  0  0  0  0  0  0  0  0
   34.6770   25.0080   31.7760 H   0  0  0  0  0  0  0  0  0  0  0  0
   34.9670   25.3270   30.0500 H   0  0  0  0  0  0  0  0  0  0  0  0
   36.6530   23.8290   30.0840 H   0  0  0  0  0  0  0  0  0  0  0  0
   37.7600   26.2370   29.9780 O   0  0  0  0  0  0  0  0  0  0  0  0
   37.5690   25.7890   29.1290 H   0  0  0  0  0  0  0  0  0  0  0  0
   39.2610   27.1410   32.5910 S   0  0  0  0  0  0  0  0  0  0  0  0
   40.0370   26.8390   34.1930 C   0  0  0  0  0  0  0  0  0  0  0  0
   40.7210   27.6960   34.4340 H   0  0  0  0  0  0  0  0  0  0  0  0
   40.6840   25.9360   34.1410 H   0  0  0  0  0  0  0  0  0  0  0  0
   38.8770   26.6610   35.5370 S   0  0  0  0  0  0  0  0  0  0  0  0
   38.5480   24.9400   35.8060 C   0  0  0  0  0  0  0  0  0  0  0  0
   37.8420   24.6600   36.9570 C   0  0  0  0  0  0  0  0  0  0  0  0
   37.5420   23.3100   37.2400 C   0  0  0  0  0  0  0  0  0  0  0  0
   37.9710   22.3520   36.3510 N   0  0  0  0  0  0  0  0  0  0  0  0
   38.6610   22.7020   35.2360 C   0  0  0  0  0  0  0  0  0  0  0  0
   38.9420   23.9700   34.9720 N   0  0  0  0  0  0  0  0  0  0  0  0
   37.4850   25.3600   37.6830 H   0  0  0  0  0  0  0  0  0  0  0  0
   36.9940   23.0420   38.1280 H   0  0  0  0  0  0  0  0  0  0  0  0
   38.9460   21.8630   34.6110 H   0  0  0  0  0  0  0  0  0  0  0  0
   36.7310   23.6210   32.1120 O   0  0  0  0  0  0  0  0  0  0  0  0
   36.5490   22.2590   32.1450 C   0  0  0  0  0  0  0  0  0  0  0  0
   35.2340   21.8000   32.2880 C   0  0  0  0  0  0  0  0  0  0  0  0
   34.3910   22.4770   32.3700 H   0  0  0  0  0  0  0  0  0  0  0  0
   35.0810   20.4250   32.3190 C   0  0  0  0  0  0  0  0  0  0  0  0
   34.0770   19.9900   32.4300 H   0  0  0  0  0  0  0  0  0  0  0  0
   36.1220   19.5250   32.2200 C   0  0  0  0  0  3  0  0  0  0  0  0
   37.3660   20.1050   32.0830 C   0  0  0  0  0  3  0  0  0  0  0  0
   37.6050   21.4290   32.0430 N   0  0  0  0  0  0  0  0  0  0  0  0
  1  7  1  6  0  0  0
  1  2  1  0  0  0  0
  2  3  1  0  0  0  0
  2 16  1  0  0  0  0
  2  8  1  1  0  0  0
  3  9  1  0  0  0  0
  3 10  1  0  0  0  0
  4  3  1  0  0  0  0
  5  4  1  0  0  0  0
  5 11  1  0  0  0  0
  6 13  1  6  0  0  0
  6  1  1  0  0  0  0
  6  5  1  0  0  0  0
  6 30  1  0  0  0  0
 12  5  1  0  0  0  0
 14  1  1  0  0  0  0
 15 14  1  0  0  0  0
 16 17  1  0  0  0  0
 17 18  1  0  0  0  0
 17 20  1  0  0  0  0
 19 17  1  0  0  0  0
 20 21  1  0  0  0  0
 21 22  1  0  0  0  0
 22 23  2  0  0  0  0
 22 27  1  0  0  0  0
 23 28  1  0  0  0  0
 24 23  1  0  0  0  0
 25 24  2  0  0  0  0
 26 25  1  0  0  0  0
 26 21  2  0  0  0  0
 29 25  1  0  0  0  0
 30 31  1  0  0  0  0
 31 32  1  0  0  0  0
 32 34  2  0  0  0  0
 32 33  1  0  0  0  0
 34 35  1  0  0  0  0
 36 34  1  0  0  0  0
 37 36  2  0  0  0  0
 38 37  1  0  0  0  0
 38 31  2  0  0  0  0
M  END
>  <minimizedAffinity>
-5.00041008

$$$$

 OpenBabel03262521573D

 38 40  0  0  1  0  0  0  0  0999 V2000
   38.0680   24.0070   35.9770 C   0  0  1  0  0  0  0  0  0  0  0  0
   39.0650   24.7480   35.1330 C   0  0  2  0  0  0  0  0  0  0  0  0
   40.4360   24.2440   35.4720 C   0  0  0  0  0  0  0  0  0  0  0  0
   40.4370   23.2790   36.4510 O   0  0  0  0  0  0  0  0  0  0  0  0
   39.6670   22.1670   36.1110 C   0  0  0  0  0  0  0  0  0  0  0  0
   38.2700   22.5390   35.7030 C   0  0  2  0  0  0  0  0  0  0  0  0
   37.0160   24.2960   35.7790 H   0  0  0  0  0  0  0  0  0  0  0  0
   38.7750   24.5590   34.0690 H   0  0  0  0  0  0  0  0  0  0  0  0
   41.1290   25.0450   35.7810 H   0  0  0  0  0  0  0  0  0  0  0  0
   40.8580   23.7820   34.5390 H   0  0  0  0  0  0  0  0  0  0  0  0
   40.2300   21.5810   35.3720 H   0  0  0  0  0  0  0  0  0  0  0  0
   39.6000   21.5550   37.0360 H   0  0  0  0  0  0  0  0  0  0  0  0
   37.5280   21.9370   36.2280 H   0  0  0  0  0  0  0  0  0  0  0  0
   38.3540   24.1980   37.3420 O   0  0  0  0  0  0  0  0  0  0  0  0
   37.8620   23.5680   37.9080 H   0  0  0  0  0  0  0  0  0  0  0  0
   38.9580   26.5420   35.3330 S   0  0  0  0  0  0  0  0  0  0  0  0
   37.3770   27.1560   34.7120 C   0  0  0  0  0  0  0  0  0  0  0  0
   37.1080   28.0930   35.2680 H   0  0  0  0  0  0  0  0  0  0  0  0
   36.5690   26.4250   34.9340 H   0  0  0  0  0  0  0  0  0  0  0  0
   37.3800   27.5270   32.9670 S   0  0  0  0  0  0  0  0  0  0  0  0
   36.5210   26.2470   32.0920 C   0  0  0  0  0  0  0  0  0  0  0  0
   37.1170   25.0050   32.1540 C   0  0  0  0  0  0  0  0  0  0  0  0
   36.4900   23.9340   31.4800 C   0  0  0  0  0  0  0  0  0  0  0  0
   35.3210   24.1920   30.8030 N   0  0  0  0  0  0  0  0  0  0  0  0
   34.7920   25.4420   30.7860 C   0  0  0  0  0  0  0  0  0  0  0  0
   35.3820   26.4460   31.4180 N   0  0  0  0  0  0  0  0  0  0  0  0
   38.0210   24.7460   32.6630 H   0  0  0  0  0  0  0  0  0  0  0  0
   36.9180   22.9460   31.5000 H   0  0  0  0  0  0  0  0  0  0  0  0
   33.8710   25.5240   30.2200 H   0  0  0  0  0  0  0  0  0  0  0  0
   38.1060   22.3860   34.3240 O   0  0  0  0  0  0  0  0  0  0  0  0
   37.4120   21.3850   33.6880 C   0  0  0  0  0  0  0  0  0  0  0  0
   36.1600   21.0480   34.2190 C   0  0  0  0  0  0  0  0  0  0  0  0
   35.7480   21.5450   35.0900 H   0  0  0  0  0  0  0  0  0  0  0  0
   35.4840   20.0370   33.5590 C   0  0  0  0  0  0  0  0  0  0  0  0
   34.4950   19.7170   33.9180 H   0  0  0  0  0  0  0  0  0  0  0  0
   35.9660   19.3760   32.4490 C   0  0  0  0  0  3  0  0  0  0  0  0
   37.2090   19.8020   32.0260 C   0  0  0  0  0  3  0  0  0  0  0  0
   37.9340   20.7750   32.6070 N   0  0  0  0  0  0  0  0  0  0  0  0
  1  7  1  6  0  0  0
  1 14  1  0  0  0  0
  2  8  1  6  0  0  0
  2 16  1  0  0  0  0
  2  3  1  0  0  0  0
  2  1  1  0  0  0  0
  3  9  1  0  0  0  0
  3  4  1  0  0  0  0
  5  4  1  0  0  0  0
  5 12  1  0  0  0  0
  6  1  1  0  0  0  0
  6  5  1  0  0  0  0
  6 13  1  1  0  0  0
 10  3  1  0  0  0  0
 11  5  1  0  0  0  0
 14 15  1  0  0  0  0
 17 19  1  0  0  0  0
 17 18  1  0  0  0  0
 17 16  1  0  0  0  0
 20 17  1  0  0  0  0
 21 22  1  0  0  0  0
 21 20  1  0  0  0  0
 22 27  1  0  0  0  0
 23 28  1  0  0  0  0
 23 22  2  0  0  0  0
 24 23  1  0  0  0  0
 25 24  2  0  0  0  0
 25 26  1  0  0  0  0
 26 21  2  0  0  0  0
 29 25  1  0  0  0  0
 30  6  1  0  0  0  0
 31 32  1  0  0  0  0
 31 30  1  0  0  0  0
 32 33  1  0  0  0  0
 34 35  1  0  0  0  0
 34 32  2  0  0  0  0
 36 34  1  0  0  0  0
 37 36  2  0  0  0  0
 37 38  1  0  0  0  0
 38 31  2  0  0  0  0
M  END
>  <minimizedAffinity>
-4.89724493

$$$$

 OpenBabel03262521573D

 38 40  0  0  1  0  0  0  0  0999 V2000
   38.5330   25.8800   32.7660 C   0  0  1  0  0  0  0  0  0  0  0  0
   37.0860   26.2780   32.6920 C   0  0  2  0  0  0  0  0  0  0  0  0
   36.3470   25.2240   31.9220 C   0  0  0  0  0  0  0  0  0  0  0  0
   37.1560   24.2060   31.4750 O   0  0  0  0  0  0  0  0  0  0  0  0
   37.8260   23.5570   32.5120 C   0  0  0  0  0  0  0  0  0  0  0  0
   38.5770   24.5110   33.3960 C   0  0  2  0  0  0  0  0  0  0  0  0
   39.1600   26.5910   33.3410 H   0  0  0  0  0  0  0  0  0  0  0  0
   36.7360   26.3790   33.7510 H   0  0  0  0  0  0  0  0  0  0  0  0
   35.7940   25.6270   31.0560 H   0  0  0  0  0  0  0  0  0  0  0  0
   35.5890   24.7760   32.6200 H   0  0  0  0  0  0  0  0  0  0  0  0
   37.1030   22.9120   33.0280 H   0  0  0  0  0  0  0  0  0  0  0  0
   38.5680   22.8930   32.0190 H   0  0  0  0  0  0  0  0  0  0  0  0
   39.6060   24.1850   33.5510 H   0  0  0  0  0  0  0  0  0  0  0  0
   39.0620   25.7370   31.4690 O   0  0  0  0  0  0  0  0  0  0  0  0
   39.9270   25.2800   31.4780 H   0  0  0  0  0  0  0  0  0  0  0  0
   36.8450   27.9140   31.9620 S   0  0  0  0  0  0  0  0  0  0  0  0
   35.2140   28.5640   32.3870 C   0  0  0  0  0  0  0  0  0  0  0  0
   35.0360   28.4090   33.4840 H   0  0  0  0  0  0  0  0  0  0  0  0
   34.4230   27.9840   31.8630 H   0  0  0  0  0  0  0  0  0  0  0  0
   35.0120   30.3000   32.0310 S   0  0  0  0  0  0  0  0  0  0  0  0
   35.5800   31.2540   33.4130 C   0  0  0  0  0  0  0  0  0  0  0  0
   35.5410   30.5960   34.6240 C   0  0  0  0  0  0  0  0  0  0  0  0
   35.9780   31.2920   35.7720 C   0  0  0  0  0  0  0  0  0  0  0  0
   36.4180   32.5860   35.6150 N   0  0  0  0  0  0  0  0  0  0  0  0
   36.4300   33.1700   34.3890 C   0  0  0  0  0  0  0  0  0  0  0  0
   36.0190   32.5150   33.3130 N   0  0  0  0  0  0  0  0  0  0  0  0
   35.2090   29.5960   34.8060 H   0  0  0  0  0  0  0  0  0  0  0  0
   35.9650   30.8210   36.7390 H   0  0  0  0  0  0  0  0  0  0  0  0
   36.7970   34.1890   34.3890 H   0  0  0  0  0  0  0  0  0  0  0  0
   37.9370   24.6420   34.6300 O   0  0  0  0  0  0  0  0  0  0  0  0
   38.3670   24.1360   35.8330 C   0  0  0  0  0  0  0  0  0  0  0  0
   37.6690   24.5460   36.9770 C   0  0  0  0  0  0  0  0  0  0  0  0
   36.8290   25.2290   36.9280 H   0  0  0  0  0  0  0  0  0  0  0  0
   38.1230   24.0210   38.1730 C   0  0  0  0  0  0  0  0  0  0  0  0
   37.6260   24.2970   39.1140 H   0  0  0  0  0  0  0  0  0  0  0  0
   39.1870   23.1500   38.2860 C   0  0  0  0  0  3  0  0  0  0  0  0
   39.7880   22.8250   37.0880 C   0  0  0  0  0  3  0  0  0  0  0  0
   39.4120   23.2880   35.8810 N   0  0  0  0  0  0  0  0  0  0  0  0
  1  7  1  1  0  0  0
  1  6  1  0  0  0  0
  2  1  1  0  0  0  0
  2  8  1  1  0  0  0
  3 10  1  0  0  0  0
  3  2  1  0  0  0  0
  4  3  1  0  0  0  0
  4  5  1  0  0  0  0
  5 11  1  0  0  0  0
  5  6  1  0  0  0  0
  6 13  1  1  0  0  0
  6 30  1  0  0  0  0
  9  3  1  0  0  0  0
 12  5  1  0  0  0  0
 14 15  1  0  0  0  0
 14  1  1  0  0  0  0
 16 17  1  0  0  0  0
 16  2  1  0  0  0  0
 17 18  1  0  0  0  0
 19 17  1  0  0  0  0
 20 17  1  0  0  0  0
 20 21  1  0  0  0  0
 21 22  1  0  0  0  0
 22 27  1  0  0  0  0
 22 23  2  0  0  0  0
 23 28  1  0  0  0  0
 24 23  1  0  0  0  0
 25 29  1  0  0  0  0
 25 24  2  0  0  0  0
 26 21  2  0  0  0  0
 26 25  1  0  0  0  0
 30 31  1  0  0  0  0
 31 38  2  0  0  0  0
 31 32  1  0  0  0  0
 32 34  2  0  0  0  0
 33 32  1  0  0  0  0
 34 36  1  0  0  0  0
 34 35  1  0  0  0  0
 37 36  2  0  0  0  0
 38 37  1  0  0  0  0
M  END
>  <minimizedAffinity>
-4.88995695

$$$$

 OpenBabel03262521573D

 38 40  0  0  1  0  0  0  0  0999 V2000
   37.9880   23.9340   35.9260 C   0  0  1  0  0  0  0  0  0  0  0  0
   38.8990   24.8630   35.1750 C   0  0  2  0  0  0  0  0  0  0  0  0
   40.3160   24.4520   35.4420 C   0  0  0  0  0  0  0  0  0  0  0  0
   40.4210   23.3790   36.2960 O   0  0  0  0  0  0  0  0  0  0  0  0
   39.7520   22.2490   35.8240 C   0  0  0  0  0  0  0  0  0  0  0  0
   38.3200   22.5360   35.4720 C   0  0  2  0  0  0  0  0  0  0  0  0
   36.9110   24.1460   35.7700 H   0  0  0  0  0  0  0  0  0  0  0  0
   38.6100   24.7790   34.0960 H   0  0  0  0  0  0  0  0  0  0  0  0
   40.9370   25.2700   35.8440 H   0  0  0  0  0  0  0  0  0  0  0  0
   40.7630   24.1490   34.4570 H   0  0  0  0  0  0  0  0  0  0  0  0
   40.3540   21.8140   35.0160 H   0  0  0  0  0  0  0  0  0  0  0  0
   39.7560   21.5250   36.6670 H   0  0  0  0  0  0  0  0  0  0  0  0
   37.6460   21.8080   35.9220 H   0  0  0  0  0  0  0  0  0  0  0  0
   38.2770   23.9830   37.3030 O   0  0  0  0  0  0  0  0  0  0  0  0
   37.8550   23.2450   37.7890 H   0  0  0  0  0  0  0  0  0  0  0  0
   38.6300   26.6010   35.5950 S   0  0  0  0  0  0  0  0  0  0  0  0
   37.2100   27.2590   34.6940 C   0  0  0  0  0  0  0  0  0  0  0  0
   37.3050   28.3750   34.6290 H   0  0  0  0  0  0  0  0  0  0  0  0
   36.2730   27.0640   35.2610 H   0  0  0  0  0  0  0  0  0  0  0  0
   37.0450   26.6180   33.0370 S   0  0  0  0  0  0  0  0  0  0  0  0
   36.8620   27.9660   31.9000 C   0  0  0  0  0  0  0  0  0  0  0  0
   37.1920   27.6700   30.5950 C   0  0  0  0  0  0  0  0  0  0  0  0
   37.0710   28.6940   29.6310 C   0  0  0  0  0  0  0  0  0  0  0  0
   36.6310   29.9280   30.0500 N   0  0  0  0  0  0  0  0  0  0  0  0
   36.3240   30.1470   31.3540 C   0  0  0  0  0  0  0  0  0  0  0  0
   36.4380   29.1850   32.2580 N   0  0  0  0  0  0  0  0  0  0  0  0
   37.5380   26.7330   30.2120 H   0  0  0  0  0  0  0  0  0  0  0  0
   37.3180   28.5100   28.5990 H   0  0  0  0  0  0  0  0  0  0  0  0
   35.9890   31.1560   31.5650 H   0  0  0  0  0  0  0  0  0  0  0  0
   38.1490   22.5380   34.0860 O   0  0  0  0  0  0  0  0  0  0  0  0
   37.0900   22.0050   33.3910 C   0  0  0  0  0  0  0  0  0  0  0  0
   36.4040   20.9450   33.9980 C   0  0  0  0  0  0  0  0  0  0  0  0
   36.6850   20.5560   34.9700 H   0  0  0  0  0  0  0  0  0  0  0  0
   35.3430   20.4290   33.2760 C   0  0  0  0  0  0  0  0  0  0  0  0
   34.7570   19.5940   33.6880 H   0  0  0  0  0  0  0  0  0  0  0  0
   34.9470   20.8900   32.0380 C   0  0  0  0  0  3  0  0  0  0  0  0
   35.7040   21.9360   31.5500 C   0  0  0  0  0  3  0  0  0  0  0  0
   36.7500   22.4980   32.1840 N   0  0  0  0  0  0  0  0  0  0  0  0
  1  7  1  6  0  0  0
  1 14  1  0  0  0  0
  2  8  1  6  0  0  0
  2  3  1  0  0  0  0
  2 16  1  0  0  0  0
  2  1  1  0  0  0  0
  3  9  1  0  0  0  0
  3  4  1  0  0  0  0
  5  4  1  0  0  0  0
  5 12  1  0  0  0  0
  6  5  1  0  0  0  0
  6 13  1  1  0  0  0
  6  1  1  0  0  0  0
 10  3  1  0  0  0  0
 11  5  1  0  0  0  0
 14 15  1  0  0  0  0
 17 19  1  0  0  0  0
 17 16  1  0  0  0  0
 18 17  1  0  0  0  0
 20 17  1  0  0  0  0
 21 26  1  0  0  0  0
 21 20  1  0  0  0  0
 22 21  2  0  0  0  0
 23 24  2  0  0  0  0
 23 22  1  0  0  0  0
 24 25  1  0  0  0  0
 25 29  1  0  0  0  0
 25 26  2  0  0  0  0
 27 22  1  0  0  0  0
 28 23  1  0  0  0  0
 30  6  1  0  0  0  0
 31 32  1  0  0  0  0
 31 30  1  0  0  0  0
 32 33  1  0  0  0  0
 34 35  1  0  0  0  0
 34 32  2  0  0  0  0
 36 34  1  0  0  0  0
 37 36  2  0  0  0  0
 37 38  1  0  0  0  0
 38 31  2  0  0  0  0
M  END
>  <minimizedAffinity>
-4.80419302

$$$$

 OpenBabel03262521573D

 38 40  0  0  1  0  0  0  0  0999 V2000
   37.7450   24.2390   31.7080 C   0  0  1  0  0  0  0  0  0  0  0  0
   36.2650   24.3650   31.9360 C   0  0  2  0  0  0  0  0  0  0  0  0
   35.6420   23.0150   31.7420 C   0  0  0  0  0  0  0  0  0  0  0  0
   36.5470   22.0410   31.3950 O   0  0  0  0  0  0  0  0  0  0  0  0
   37.5620   21.8880   32.3400 C   0  0  0  0  0  0  0  0  0  0  0  0
   38.2440   23.1860   32.6630 C   0  0  2  0  0  0  0  0  0  0  0  0
   38.2990   25.1880   31.8530 H   0  0  0  0  0  0  0  0  0  0  0  0
   36.1430   24.7630   32.9750 H   0  0  0  0  0  0  0  0  0  0  0  0
   34.8340   23.0140   30.9910 H   0  0  0  0  0  0  0  0  0  0  0  0
   35.1830   22.7190   32.7230 H   0  0  0  0  0  0  0  0  0  0  0  0
   37.1420   21.3530   33.2010 H   0  0  0  0  0  0  0  0  0  0  0  0
   38.3120   21.2170   31.8680 H   0  0  0  0  0  0  0  0  0  0  0  0
   39.3290   23.0900   32.6070 H   0  0  0  0  0  0  0  0  0  0  0  0
   37.9930   23.7490   30.4120 O   0  0  0  0  0  0  0  0  0  0  0  0
   38.9220   23.4580   30.3060 H   0  0  0  0  0  0  0  0  0  0  0  0
   35.4930   25.6040   30.8680 S   0  0  0  0  0  0  0  0  0  0  0  0
   36.3300   27.1950   31.0360 C   0  0  0  0  0  0  0  0  0  0  0  0
   35.8880   27.9180   30.3000 H   0  0  0  0  0  0  0  0  0  0  0  0
   37.4030   27.0940   30.7590 H   0  0  0  0  0  0  0  0  0  0  0  0
   36.2010   27.9110   32.6640 S   0  0  0  0  0  0  0  0  0  0  0  0
   37.6320   27.4730   33.6150 C   0  0  0  0  0  0  0  0  0  0  0  0
   37.4310   27.4370   34.9790 C   0  0  0  0  0  0  0  0  0  0  0  0
   38.5250   27.0950   35.8020 C   0  0  0  0  0  0  0  0  0  0  0  0
   39.7280   26.8180   35.1970 N   0  0  0  0  0  0  0  0  0  0  0  0
   39.8530   26.8730   33.8460 C   0  0  0  0  0  0  0  0  0  0  0  0
   38.8250   27.1940   33.0740 N   0  0  0  0  0  0  0  0  0  0  0  0
   36.5220   27.6420   35.5040 H   0  0  0  0  0  0  0  0  0  0  0  0
   38.4160   27.0540   36.8730 H   0  0  0  0  0  0  0  0  0  0  0  0
   40.8460   26.6350   33.4840 H   0  0  0  0  0  0  0  0  0  0  0  0
   37.8790   23.6270   33.9370 O   0  0  0  0  0  0  0  0  0  0  0  0
   38.5490   23.3810   35.1120 C   0  0  0  0  0  0  0  0  0  0  0  0
   39.9010   23.0310   35.0070 C   0  0  0  0  0  0  0  0  0  0  0  0
   40.4070   22.9550   34.0520 H   0  0  0  0  0  0  0  0  0  0  0  0
   40.5490   22.7890   36.2060 C   0  0  0  0  0  0  0  0  0  0  0  0
   41.6130   22.5090   36.2040 H   0  0  0  0  0  0  0  0  0  0  0  0
   39.9490   22.8740   37.4450 C   0  0  0  0  0  3  0  0  0  0  0  0
   38.6160   23.2270   37.4100 C   0  0  0  0  0  3  0  0  0  0  0  0
   37.9090   23.4790   36.2930 N   0  0  0  0  0  0  0  0  0  0  0  0
  1  7  1  1  0  0  0
  1  2  1  0  0  0  0
  1  6  1  0  0  0  0
  2  8  1  1  0  0  0
  3  2  1  0  0  0  0
  3 10  1  0  0  0  0
  4  3  1  0  0  0  0
  4  5  1  0  0  0  0
  5  6  1  0  0  0  0
  5 11  1  0  0  0  0
  6 13  1  6  0  0  0
  6 30  1  0  0  0  0
  9  3  1  0  0  0  0
 12  5  1  0  0  0  0
 14  1  1  0  0  0  0
 15 14  1  0  0  0  0
 16 17  1  0  0  0  0
 16  2  1  0  0  0  0
 17 20  1  0  0  0  0
 18 17  1  0  0  0  0
 19 17  1  0  0  0  0
 20 21  1  0  0  0  0
 21 22  1  0  0  0  0
 22 27  1  0  0  0  0
 22 23  2  0  0  0  0
 23 28  1  0  0  0  0
 24 23  1  0  0  0  0
 25 24  2  0  0  0  0
 26 21  2  0  0  0  0
 26 25  1  0  0  0  0
 29 25  1  0  0  0  0
 30 31  1  0  0  0  0
 31 38  1  0  0  0  0
 32 31  2  0  0  0  0
 32 34  1  0  0  0  0
 33 32  1  0  0  0  0
 34 36  2  0  0  0  0
 35 34  1  0  0  0  0
 37 36  1  0  0  0  0
 38 37  2  0  0  0  0
M  END
>  <minimizedAffinity>
-4.78182411

$$$$
