
 OpenBabel03272508023D

 27 29  0  0  0  0  0  0  0  0999 V2000
   38.1440   31.2850   45.2220 C   0  0  0  0  0  0  0  0  0  0  0  0
   38.5630   32.5180   44.7820 C   0  0  0  0  0  0  0  0  0  0  0  0
   39.4110   32.3430   43.6740 C   0  0  0  0  0  0  0  0  0  0  0  0
   39.4630   30.9930   43.4960 N   0  0  0  0  0  0  0  0  0  0  0  0
   38.7250   30.4030   44.4020 N   0  0  0  0  0  0  0  0  0  0  0  0
   38.2380   33.4310   45.2770 H   0  0  0  0  0  0  0  0  0  0  0  0
   39.8120   33.2190   43.2280 H   0  0  0  0  0  0  0  0  0  0  0  0
   37.2560   30.9930   46.3450 C   0  0  0  0  0  0  0  0  0  0  0  0
   37.6610   31.3980   47.6360 C   0  0  0  0  0  0  0  0  0  0  0  0
   36.8150   31.1210   48.7140 C   0  0  0  0  0  0  0  0  0  0  0  0
   35.6500   30.4740   48.4460 N   0  0  0  0  0  0  0  0  0  0  0  0
   35.2790   30.0950   47.2110 C   0  0  0  0  0  0  0  0  0  0  0  0
   36.1000   30.3650   46.1720 N   0  0  0  0  0  0  0  0  0  0  0  0
   38.5830   31.9050   47.8150 H   0  0  0  0  0  0  0  0  0  0  0  0
   34.3340   29.5840   47.0790 H   0  0  0  0  0  0  0  0  0  0  0  0
   37.2340   31.5460   50.0780 C   0  0  0  0  0  0  0  0  0  0  0  0
   36.6110   32.7440   50.3110 F   0  0  0  0  0  0  0  0  0  0  0  0
   36.8260   30.6450   51.0530 F   0  0  0  0  0  0  0  0  0  0  0  0
   38.6040   31.7380   50.1680 F   0  0  0  0  0  0  0  0  0  0  0  0
   40.2590   30.4940   42.4270 C   0  0  0  0  0  0  0  0  0  0  0  0
   41.0870   29.3930   42.4470 C   0  0  0  0  0  0  0  0  0  0  0  0
   41.1170   28.8680   43.3930 H   0  0  0  0  0  0  0  0  0  0  0  0
   41.7890   29.0430   41.3280 C   0  0  0  0  0  0  0  0  0  0  0  0
   42.4390   28.1620   41.3740 H   0  0  0  0  0  0  0  0  0  0  0  0
   41.7110   29.7500   40.1520 C   0  0  0  0  0  3  0  0  0  0  0  0
   40.8590   30.8590   40.1800 C   0  0  0  0  0  3  0  0  0  0  0  0
   40.1470   31.2280   41.2860 N   0  0  0  0  0  0  0  0  0  0  0  0
  1  8  1  0  0  0  0
  2  1  1  0  0  0  0
  2  6  1  0  0  0  0
  3  2  2  0  0  0  0
  4  3  1  0  0  0  0
  4  5  1  0  0  0  0
  5  1  2  0  0  0  0
  7  3  1  0  0  0  0
  8  9  1  0  0  0  0
  9 14  1  0  0  0  0
  9 10  2  0  0  0  0
 10 16  1  0  0  0  0
 11 10  1  0  0  0  0
 12 11  2  0  0  0  0
 13  8  2  0  0  0  0
 13 12  1  0  0  0  0
 15 12  1  0  0  0  0
 16 19  1  0  0  0  0
 16 17  1  0  0  0  0
 16 18  1  0  0  0  0
 20 21  1  0  0  0  0
 20  4  1  0  0  0  0
 21 22  1  0  0  0  0
 23 24  1  0  0  0  0
 23 21  2  0  0  0  0
 25 26  2  0  0  0  0
 25 23  1  0  0  0  0
 26 27  1  0  0  0  0
 27 20  2  0  0  0  0
M  END
>  <minimizedAffinity>
-5.91874504

>  <minimizedRMSD>
1.36233759

$$$$
