
 OpenBabel03272508013D

 27 29  0  0  0  0  0  0  0  0999 V2000
   39.9750   30.6300   44.0710 C   0  0  0  0  0  0  0  0  0  0  0  0
   40.4990   31.8710   44.3440 C   0  0  0  0  0  0  0  0  0  0  0  0
   40.0340   32.2940   45.6010 C   0  0  0  0  0  0  0  0  0  0  0  0
   39.2410   31.2740   46.0330 N   0  0  0  0  0  0  0  0  0  0  0  0
   39.2220   30.3240   45.1320 N   0  0  0  0  0  0  0  0  0  0  0  0
   41.1600   32.3690   43.6370 H   0  0  0  0  0  0  0  0  0  0  0  0
   40.3620   33.2440   45.9440 H   0  0  0  0  0  0  0  0  0  0  0  0
   40.1910   29.8130   42.8780 C   0  0  0  0  0  0  0  0  0  0  0  0
   40.7290   30.4390   41.7320 C   0  0  0  0  0  0  0  0  0  0  0  0
   40.9360   29.6630   40.5880 C   0  0  0  0  0  0  0  0  0  0  0  0
   40.6040   28.3470   40.6550 N   0  0  0  0  0  0  0  0  0  0  0  0
   40.0930   27.7660   41.7540 C   0  0  0  0  0  0  0  0  0  0  0  0
   39.8930   28.5210   42.8570 N   0  0  0  0  0  0  0  0  0  0  0  0
   40.9810   31.4760   41.7100 H   0  0  0  0  0  0  0  0  0  0  0  0
   39.8540   26.7110   41.7280 H   0  0  0  0  0  0  0  0  0  0  0  0
   41.5050   30.3150   39.3760 C   0  0  0  0  0  0  0  0  0  0  0  0
   42.8040   30.6230   39.6830 F   0  0  0  0  0  0  0  0  0  0  0  0
   41.5040   29.4650   38.2780 F   0  0  0  0  0  0  0  0  0  0  0  0
   40.8400   31.4880   39.0540 F   0  0  0  0  0  0  0  0  0  0  0  0
   38.6130   31.4100   47.3030 C   0  0  0  0  0  0  0  0  0  0  0  0
   37.8250   30.4840   47.9470 C   0  0  0  0  0  0  0  0  0  0  0  0
   37.6810   29.5580   47.4060 H   0  0  0  0  0  0  0  0  0  0  0  0
   37.2920   30.7700   49.1730 C   0  0  0  0  0  0  0  0  0  0  0  0
   36.6670   30.0140   49.6610 H   0  0  0  0  0  0  0  0  0  0  0  0
   37.5080   31.9670   49.8150 C   0  0  0  0  0  3  0  0  0  0  0  0
   38.3170   32.8760   49.1200 C   0  0  0  0  0  3  0  0  0  0  0  0
   38.8590   32.6110   47.8960 N   0  0  0  0  0  0  0  0  0  0  0  0
  1  2  1  0  0  0  0
  1  5  2  0  0  0  0
  2  3  2  0  0  0  0
  3  7  1  0  0  0  0
  3  4  1  0  0  0  0
  4 20  1  0  0  0  0
  5  4  1  0  0  0  0
  6  2  1  0  0  0  0
  8  1  1  0  0  0  0
  9  8  2  0  0  0  0
 10 11  2  0  0  0  0
 10  9  1  0  0  0  0
 11 12  1  0  0  0  0
 12 13  2  0  0  0  0
 13  8  1  0  0  0  0
 14  9  1  0  0  0  0
 15 12  1  0  0  0  0
 16 17  1  0  0  0  0
 16 10  1  0  0  0  0
 18 16  1  0  0  0  0
 19 16  1  0  0  0  0
 20 27  2  0  0  0  0
 20 21  1  0  0  0  0
 21 23  2  0  0  0  0
 22 21  1  0  0  0  0
 23 24  1  0  0  0  0
 23 25  1  0  0  0  0
 26 25  2  0  0  0  0
 27 26  1  0  0  0  0
M  END
>  <minimizedAffinity>
-5.37160444

>  <minimizedRMSD>
8.07896519

$$$$
