
 OpenBabel03272503293D

 33 35  0  0  1  0  0  0  0  0999 V2000
   34.3760   29.1780   48.0810 C   0  0  0  0  0  0  0  0  0  0  0  0
   34.1010   30.0210   46.9840 C   0  0  0  0  0  0  0  0  0  0  0  0
   32.8720   29.8710   46.3360 C   0  0  0  0  0  0  0  0  0  0  0  0
   32.0250   28.9060   46.8270 N   0  0  0  0  0  0  0  0  0  0  0  0
   32.3160   28.1320   47.8630 C   0  0  0  0  0  0  0  0  0  0  0  0
   33.4890   28.2570   48.5000 N   0  0  0  0  0  0  0  0  0  0  0  0
   34.7980   30.7540   46.6450 H   0  0  0  0  0  0  0  0  0  0  0  0
   32.5850   30.4710   45.4950 H   0  0  0  0  0  0  0  0  0  0  0  0
   35.6380   29.3530   48.7210 N   0  0  0  0  0  0  0  0  0  0  0  0
   36.7810   30.0670   48.2320 C   0  0  0  0  0  0  0  0  0  0  0  0
   37.4590   30.5360   49.5200 C   0  0  2  0  0  0  0  0  0  0  0  0
   36.5410   30.1030   50.6520 C   0  0  0  0  0  0  0  0  0  0  0  0
   36.0000   28.8260   50.0180 C   0  0  0  0  0  0  0  0  0  0  0  0
   36.5160   30.9510   47.6220 H   0  0  0  0  0  0  0  0  0  0  0  0
   37.4830   29.3830   47.6940 H   0  0  0  0  0  0  0  0  0  0  0  0
   38.4250   30.0180   49.6840 H   0  0  0  0  0  0  0  0  0  0  0  0
   37.0770   29.8990   51.5860 H   0  0  0  0  0  0  0  0  0  0  0  0
   35.7330   30.8220   50.8400 H   0  0  0  0  0  0  0  0  0  0  0  0
   35.1050   28.5320   50.5750 H   0  0  0  0  0  0  0  0  0  0  0  0
   36.8000   28.0670   49.9900 H   0  0  0  0  0  0  0  0  0  0  0  0
   37.7400   32.0080   49.5230 C   0  0  0  0  0  0  0  0  0  0  0  0
   36.6570   32.5970   50.1540 F   0  0  0  0  0  0  0  0  0  0  0  0
   37.7120   32.4410   48.2140 F   0  0  0  0  0  0  0  0  0  0  0  0
   38.9150   32.3440   50.1130 F   0  0  0  0  0  0  0  0  0  0  0  0
   31.1650   26.8940   48.4410 S   0  0  0  0  0  0  0  0  0  0  0  0
   29.7440   27.6070   49.2040 C   0  0  0  0  0  0  0  0  0  0  0  0
   29.3430   26.9190   50.3490 C   0  0  0  0  0  0  0  0  0  0  0  0
   29.8290   26.0280   50.7670 H   0  0  0  0  0  0  0  0  0  0  0  0
   28.2430   27.3130   51.1040 C   0  0  0  0  0  0  0  0  0  0  0  0
   27.9130   26.8020   51.9900 H   0  0  0  0  0  0  0  0  0  0  0  0
   27.5420   28.4200   50.6890 C   0  0  0  0  0  0  0  0  0  0  0  0
   27.9750   29.0640   49.5550 C   0  0  0  0  0  0  0  0  0  0  0  0
   29.0310   28.6910   48.8240 N   0  0  0  0  0  0  0  0  0  0  0  0
  1  6  1  0  0  0  0
  1  9  1  0  0  0  0
  2  1  2  0  0  0  0
  3  4  2  0  0  0  0
  3  2  1  0  0  0  0
  4  5  1  0  0  0  0
  5 25  1  0  0  0  0
  5  6  2  0  0  0  0
  7  2  1  0  0  0  0
  8  3  1  0  0  0  0
  9 13  1  0  0  0  0
 10  9  1  0  0  0  0
 10 11  1  0  0  0  0
 11 21  1  0  0  0  0
 11 16  1  1  0  0  0
 11 12  1  0  0  0  0
 12 18  1  0  0  0  0
 12 17  1  0  0  0  0
 13 19  1  0  0  0  0
 13 12  1  0  0  0  0
 14 10  1  0  0  0  0
 15 10  1  0  0  0  0
 20 13  1  0  0  0  0
 21 24  1  0  0  0  0
 21 22  1  0  0  0  0
 23 21  1  0  0  0  0
 25 26  1  0  0  0  0
 26 27  1  0  0  0  0
 27 28  1  0  0  0  0
 27 29  2  0  0  0  0
 29 30  1  0  0  0  0
 31 29  1  0  0  0  0
 32 31  2  0  0  0  0
 33 26  2  0  0  0  0
 33 32  1  0  0  0  0
M  END
>  <minimizedAffinity>
-6.62352276

>  <minimizedRMSD>
2.43495131

$$$$
