
 OpenBabel03272508023D

 27 29  0  0  0  0  0  0  0  0999 V2000
   38.6260   30.6050   45.4670 C   0  0  0  0  0  0  0  0  0  0  0  0
   39.7120   31.4400   45.3530 C   0  0  0  0  0  0  0  0  0  0  0  0
   40.4590   31.0640   44.2230 C   0  0  0  0  0  0  0  0  0  0  0  0
   39.7780   30.0050   43.7020 N   0  0  0  0  0  0  0  0  0  0  0  0
   38.7240   29.7580   44.4370 N   0  0  0  0  0  0  0  0  0  0  0  0
   39.8840   32.2390   46.0720 H   0  0  0  0  0  0  0  0  0  0  0  0
   41.3330   31.6280   44.0100 H   0  0  0  0  0  0  0  0  0  0  0  0
   37.5850   30.6310   46.4920 C   0  0  0  0  0  0  0  0  0  0  0  0
   37.9390   31.0610   47.7900 C   0  0  0  0  0  0  0  0  0  0  0  0
   36.9470   31.0870   48.7740 C   0  0  0  0  0  0  0  0  0  0  0  0
   35.6960   30.6950   48.4130 N   0  0  0  0  0  0  0  0  0  0  0  0
   35.3750   30.2880   47.1730 C   0  0  0  0  0  0  0  0  0  0  0  0
   36.3380   30.2640   46.2250 N   0  0  0  0  0  0  0  0  0  0  0  0
   38.9310   31.3640   48.0430 H   0  0  0  0  0  0  0  0  0  0  0  0
   34.3550   29.9910   46.9650 H   0  0  0  0  0  0  0  0  0  0  0  0
   37.3120   31.5400   50.1440 C   0  0  0  0  0  0  0  0  0  0  0  0
   36.6550   32.7260   50.3410 F   0  0  0  0  0  0  0  0  0  0  0  0
   36.8950   30.6430   51.1180 F   0  0  0  0  0  0  0  0  0  0  0  0
   38.6740   31.7650   50.2740 F   0  0  0  0  0  0  0  0  0  0  0  0
   40.2980   29.3930   42.5270 C   0  0  0  0  0  0  0  0  0  0  0  0
   41.2870   29.8760   41.7010 C   0  0  0  0  0  0  0  0  0  0  0  0
   41.6990   30.8320   42.0010 H   0  0  0  0  0  0  0  0  0  0  0  0
   41.6760   29.1600   40.6020 C   0  0  0  0  0  0  0  0  0  0  0  0
   42.4650   29.5720   39.9640 H   0  0  0  0  0  0  0  0  0  0  0  0
   41.1160   27.9490   40.2710 C   0  0  0  0  0  3  0  0  0  0  0  0
   40.1150   27.4980   41.1400 C   0  0  0  0  0  3  0  0  0  0  0  0
   39.7110   28.1960   42.2430 N   0  0  0  0  0  0  0  0  0  0  0  0
  1  8  1  0  0  0  0
  2  1  1  0  0  0  0
  2  6  1  0  0  0  0
  3  2  2  0  0  0  0
  4  3  1  0  0  0  0
  4  5  1  0  0  0  0
  5  1  2  0  0  0  0
  7  3  1  0  0  0  0
  8  9  1  0  0  0  0
  9 14  1  0  0  0  0
  9 10  2  0  0  0  0
 10 16  1  0  0  0  0
 11 10  1  0  0  0  0
 12 11  2  0  0  0  0
 13  8  2  0  0  0  0
 13 12  1  0  0  0  0
 15 12  1  0  0  0  0
 16 19  1  0  0  0  0
 16 17  1  0  0  0  0
 16 18  1  0  0  0  0
 20  4  1  0  0  0  0
 21 22  1  0  0  0  0
 21 20  2  0  0  0  0
 23 21  1  0  0  0  0
 24 23  1  0  0  0  0
 25 23  2  0  0  0  0
 25 26  1  0  0  0  0
 26 27  2  0  0  0  0
 27 20  1  0  0  0  0
M  END
>  <minimizedAffinity>
-5.80998611

>  <minimizedRMSD>
1.35657156

$$$$
