
 OpenBabel03272510113D

 34 37  0  0  0  0  0  0  0  0999 V2000
   33.5660   28.4960   48.4610 C   0  0  0  0  0  0  0  0  0  0  0  0
   34.4630   28.0880   49.3830 C   0  0  0  0  0  0  0  0  0  0  0  0
   35.6410   28.7450   49.6750 C   0  0  0  0  0  0  0  0  0  0  0  0
   35.9650   29.8900   49.0120 C   0  0  0  0  0  0  0  0  0  0  0  0
   35.0420   30.3240   48.0540 C   0  0  0  0  0  0  0  0  0  0  0  0
   33.9050   29.6470   47.8040 N   0  0  0  0  0  0  0  0  0  0  0  0
   34.2880   27.1890   49.9560 H   0  0  0  0  0  0  0  0  0  0  0  0
   36.3550   28.4090   50.4170 H   0  0  0  0  0  0  0  0  0  0  0  0
   35.2490   31.2280   47.4960 H   0  0  0  0  0  0  0  0  0  0  0  0
   31.2820   27.6840   49.0590 C   0  0  0  0  0  0  0  0  0  0  0  0
   32.3410   27.8240   48.1500 C   0  0  0  0  0  0  0  0  0  0  0  0
   32.1480   27.2650   46.9010 C   0  0  0  0  0  0  0  0  0  0  0  0
   30.9760   26.6240   46.6140 N   0  0  0  0  0  0  0  0  0  0  0  0
   29.9920   26.5270   47.5450 C   0  0  0  0  0  0  0  0  0  0  0  0
   30.1320   27.0560   48.7780 N   0  0  0  0  0  0  0  0  0  0  0  0
   31.3830   28.1020   50.0500 H   0  0  0  0  0  0  0  0  0  0  0  0
   32.9540   27.3630   46.1880 H   0  0  0  0  0  0  0  0  0  0  0  0
   29.1290   25.9960   47.1730 H   0  0  0  0  0  0  0  0  0  0  0  0
   37.1120   30.6740   49.1850 O   0  0  0  0  0  0  0  0  0  0  0  0
   37.8080   31.1800   48.0990 C   0  0  0  0  0  0  0  0  0  0  0  0
   38.5830   32.3040   48.3920 C   0  0  0  0  0  0  0  0  0  0  0  0
   39.2230   32.7020   47.2110 C   0  0  0  0  0  0  0  0  0  0  0  0
   38.8130   31.8170   46.2800 N   0  0  0  0  0  0  0  0  0  0  0  0
   37.9930   30.9310   46.7870 N   0  0  0  0  0  0  0  0  0  0  0  0
   38.7820   32.8970   49.2780 H   0  0  0  0  0  0  0  0  0  0  0  0
   39.9040   33.5140   46.9940 H   0  0  0  0  0  0  0  0  0  0  0  0
   39.2080   31.8230   44.9080 C   0  0  0  0  0  0  0  0  0  0  0  0
   39.9510   30.7570   44.4420 C   0  0  0  0  0  0  0  0  0  0  0  0
   40.2540   29.9240   45.0300 H   0  0  0  0  0  0  0  0  0  0  0  0
   40.3310   30.7650   43.1170 C   0  0  0  0  0  0  0  0  0  0  0  0
   40.9210   29.9570   42.6710 H   0  0  0  0  0  0  0  0  0  0  0  0
   40.0080   31.7870   42.2220 C   0  0  0  0  0  3  0  0  0  0  0  0
   39.2580   32.8240   42.7730 C   0  0  0  0  0  3  0  0  0  0  0  0
   38.8780   32.8290   44.0740 N   0  0  0  0  0  0  0  0  0  0  0  0
  1  2  1  0  0  0  0
  2  3  2  0  0  0  0
  2  7  1  0  0  0  0
  3  8  1  0  0  0  0
  4 19  1  0  0  0  0
  4  3  1  0  0  0  0
  5  4  2  0  0  0  0
  6  5  1  0  0  0  0
  6  1  2  0  0  0  0
  9  5  1  0  0  0  0
 10 16  1  0  0  0  0
 11  1  1  0  0  0  0
 11 10  2  0  0  0  0
 12 11  1  0  0  0  0
 13 12  2  0  0  0  0
 13 14  1  0  0  0  0
 14 15  2  0  0  0  0
 15 10  1  0  0  0  0
 17 12  1  0  0  0  0
 18 14  1  0  0  0  0
 20 21  1  0  0  0  0
 20 19  1  0  0  0  0
 21 25  1  0  0  0  0
 22 21  2  0  0  0  0
 23 24  1  0  0  0  0
 23 22  1  0  0  0  0
 24 20  2  0  0  0  0
 26 22  1  0  0  0  0
 27 23  1  0  0  0  0
 28 27  1  0  0  0  0
 28 29  1  0  0  0  0
 30 28  2  0  0  0  0
 31 30  1  0  0  0  0
 32 33  2  0  0  0  0
 32 30  1  0  0  0  0
 33 34  1  0  0  0  0
 34 27  2  0  0  0  0
M  END
>  <minimizedAffinity>
-5.96615982

>  <minimizedRMSD>
2.2990129

$$$$
