
 OpenBabel03272508023D

 27 29  0  0  0  0  0  0  0  0999 V2000
   38.8410   30.8020   45.7100 C   0  0  0  0  0  0  0  0  0  0  0  0
   40.0420   31.4450   45.8920 C   0  0  0  0  0  0  0  0  0  0  0  0
   40.8200   31.2930   44.7320 C   0  0  0  0  0  0  0  0  0  0  0  0
   40.0410   30.5540   43.8930 N   0  0  0  0  0  0  0  0  0  0  0  0
   38.9030   30.2820   44.4800 N   0  0  0  0  0  0  0  0  0  0  0  0
   40.2650   31.9640   46.8220 H   0  0  0  0  0  0  0  0  0  0  0  0
   41.7820   31.7430   44.7310 H   0  0  0  0  0  0  0  0  0  0  0  0
   37.7300   30.7020   46.6540 C   0  0  0  0  0  0  0  0  0  0  0  0
   37.9920   30.9570   48.0190 C   0  0  0  0  0  0  0  0  0  0  0  0
   36.9330   30.8630   48.9270 C   0  0  0  0  0  0  0  0  0  0  0  0
   35.7120   30.5290   48.4320 N   0  0  0  0  0  0  0  0  0  0  0  0
   35.4790   30.2890   47.1300 C   0  0  0  0  0  0  0  0  0  0  0  0
   36.5060   30.3810   46.2570 N   0  0  0  0  0  0  0  0  0  0  0  0
   38.9620   31.2180   48.3770 H   0  0  0  0  0  0  0  0  0  0  0  0
   34.4770   30.0280   46.8150 H   0  0  0  0  0  0  0  0  0  0  0  0
   37.2000   31.1320   50.3660 C   0  0  0  0  0  0  0  0  0  0  0  0
   36.6870   32.3760   50.6220 F   0  0  0  0  0  0  0  0  0  0  0  0
   36.5640   30.2170   51.1940 F   0  0  0  0  0  0  0  0  0  0  0  0
   38.5570   31.1500   50.6510 F   0  0  0  0  0  0  0  0  0  0  0  0
   40.5660   30.2290   42.6110 C   0  0  0  0  0  0  0  0  0  0  0  0
   41.3510   29.1470   42.2810 C   0  0  0  0  0  0  0  0  0  0  0  0
   41.5810   28.4860   43.1060 H   0  0  0  0  0  0  0  0  0  0  0  0
   41.7770   28.9760   40.9920 C   0  0  0  0  0  0  0  0  0  0  0  0
   42.4000   28.1060   40.7600 H   0  0  0  0  0  0  0  0  0  0  0  0
   41.4530   29.8500   39.9820 C   0  0  0  0  0  0  0  0  0  0  0  0
   40.6530   30.9320   40.3660 C   0  0  0  0  0  0  0  0  0  0  0  0
   40.2160   31.1240   41.6450 N   0  0  0  0  0  0  0  0  0  0  0  0
  1  2  1  0  0  0  0
  1  8  1  0  0  0  0
  2  6  1  0  0  0  0
  3  2  2  0  0  0  0
  4  5  1  0  0  0  0
  4  3  1  0  0  0  0
  5  1  2  0  0  0  0
  7  3  1  0  0  0  0
  8  9  1  0  0  0  0
  9 14  1  0  0  0  0
  9 10  2  0  0  0  0
 10 16  1  0  0  0  0
 11 10  1  0  0  0  0
 12 11  2  0  0  0  0
 13  8  2  0  0  0  0
 13 12  1  0  0  0  0
 15 12  1  0  0  0  0
 16 17  1  0  0  0  0
 16 19  1  0  0  0  0
 16 18  1  0  0  0  0
 20  4  1  0  0  0  0
 21 20  1  0  0  0  0
 21 22  1  0  0  0  0
 23 21  2  0  0  0  0
 24 23  1  0  0  0  0
 25 26  2  0  0  0  0
 25 23  1  0  0  0  0
 26 27  1  0  0  0  0
 27 20  2  0  0  0  0
M  END
>  <minimizedAffinity>
-6.19595051

>  <minimizedRMSD>
1.01214683

$$$$
