
 OpenBabel03272508193D

 30 32  0  0  0  0  0  0  0  0999 V2000
   37.0470   31.1170   49.8510 C   0  0  0  0  0  0  0  0  0  0  0  0
   35.8650   30.4480   49.4990 C   0  0  0  0  0  0  0  0  0  0  0  0
   35.5010   29.4930   50.4140 C   0  0  0  0  0  0  0  0  0  0  0  0
   36.2170   29.2300   51.5410 N   0  0  0  0  0  0  0  0  0  0  0  0
   37.3420   29.8950   51.8390 C   0  0  0  0  0  0  0  0  0  0  0  0
   37.7630   30.8390   50.9950 N   0  0  0  0  0  0  0  0  0  0  0  0
   34.6160   28.8850   50.2840 H   0  0  0  0  0  0  0  0  0  0  0  0
   37.9790   29.7650   52.6970 H   0  0  0  0  0  0  0  0  0  0  0  0
   37.4640   32.2590   48.9310 C   0  0  0  0  0  0  0  0  0  0  0  0
   38.6800   32.9540   49.0970 C   0  0  0  0  0  0  0  0  0  0  0  0
   38.7220   31.8000   48.1160 C   0  0  0  0  0  0  0  0  0  0  0  0
   36.6580   32.5660   48.2030 H   0  0  0  0  0  0  0  0  0  0  0  0
   38.8380   33.9470   48.6660 H   0  0  0  0  0  0  0  0  0  0  0  0
   39.2920   32.7550   50.0220 H   0  0  0  0  0  0  0  0  0  0  0  0
   38.6490   32.0050   47.0420 H   0  0  0  0  0  0  0  0  0  0  0  0
   39.2220   30.8810   48.3940 H   0  0  0  0  0  0  0  0  0  0  0  0
   35.1330   30.7150   48.2780 C   0  0  0  0  0  0  0  0  0  0  0  0
   35.4840   31.6560   47.8250 H   0  0  0  0  0  0  0  0  0  0  0  0
   34.0420   30.8770   48.5380 H   0  0  0  0  0  0  0  0  0  0  0  0
   35.1170   29.6370   47.2410 C   0  0  0  0  0  0  0  0  0  0  0  0
   35.6620   30.0010   46.3450 H   0  0  0  0  0  0  0  0  0  0  0  0
   35.6290   28.7080   47.5610 H   0  0  0  0  0  0  0  0  0  0  0  0
   33.7570   29.2620   46.7830 C   0  0  0  0  0  0  0  0  0  0  0  0
   33.0700   30.3830   46.3030 C   0  0  0  0  0  0  0  0  0  0  0  0
   33.4540   31.4120   46.2570 H   0  0  0  0  0  0  0  0  0  0  0  0
   31.7780   30.2870   45.8190 C   0  0  0  0  0  0  0  0  0  0  0  0
   31.2160   31.1320   45.4390 H   0  0  0  0  0  0  0  0  0  0  0  0
   31.1250   29.0720   45.7970 C   0  0  0  0  0  3  0  0  0  0  0  0
   31.8360   27.9940   46.2790 C   0  0  0  0  0  3  0  0  0  0  0  0
   33.0920   28.0700   46.7510 N   0  0  0  0  0  0  0  0  0  0  0  0
  1  6  1  0  0  0  0
  2  1  2  0  0  0  0
  2  3  1  0  0  0  0
  3  4  2  0  0  0  0
  4  5  1  0  0  0  0
  5  8  1  0  0  0  0
  6  5  2  0  0  0  0
  7  3  1  0  0  0  0
  9 10  1  0  0  0  0
  9  1  1  0  0  0  0
 10 14  1  0  0  0  0
 11 16  1  0  0  0  0
 11  9  1  0  0  0  0
 11 10  1  0  0  0  0
 12  9  1  0  0  0  0
 13 10  1  0  0  0  0
 15 11  1  0  0  0  0
 17 19  1  0  0  0  0
 17  2  1  0  0  0  0
 18 17  1  0  0  0  0
 20 22  1  0  0  0  0
 20 17  1  0  0  0  0
 21 20  1  0  0  0  0
 23 20  1  0  0  0  0
 24 23  2  0  0  0  0
 25 24  1  0  0  0  0
 26 24  1  0  0  0  0
 27 26  1  0  0  0  0
 28 26  2  0  0  0  0
 28 29  1  0  0  0  0
 29 30  2  0  0  0  0
 30 23  1  0  0  0  0
M  END
>  <minimizedAffinity>
-4.65256977

>  <minimizedRMSD>
6.59426117

$$$$
