
 OpenBabel03272503413D

 40 43  0  0  1  0  0  0  0  0999 V2000
   38.4780   31.1140   45.9340 C   0  0  0  0  0  0  0  0  0  0  0  0
   39.8160   31.0220   46.2010 C   0  0  0  0  0  0  0  0  0  0  0  0
   40.4330   31.3830   45.0010 C   0  0  0  0  0  0  0  0  0  0  0  0
   39.5030   31.6690   44.0860 N   0  0  0  0  0  0  0  0  0  0  0  0
   38.3010   31.5090   44.6430 N   0  0  0  0  0  0  0  0  0  0  0  0
   40.3190   30.7350   47.1310 H   0  0  0  0  0  0  0  0  0  0  0  0
   41.5200   31.4010   44.9170 H   0  0  0  0  0  0  0  0  0  0  0  0
   39.8230   30.8810   41.7950 C   0  0  2  0  0  0  0  0  0  0  0  0
   39.8350   32.0770   42.7420 C   0  0  1  0  0  0  0  0  0  0  0  0
   38.7280   32.8800   42.0960 C   0  0  0  0  0  0  0  0  0  0  0  0
   38.8210   32.6910   40.7380 O   0  0  0  0  0  0  0  0  0  0  0  0
   39.6620   31.6540   40.4720 C   0  0  0  0  0  0  0  0  0  0  0  0
   40.7560   30.3050   41.8020 H   0  0  0  0  0  0  0  0  0  0  0  0
   40.7690   32.6390   42.7080 H   0  0  0  0  0  0  0  0  0  0  0  0
   38.7640   33.9480   42.3600 H   0  0  0  0  0  0  0  0  0  0  0  0
   37.7620   32.4490   42.4340 H   0  0  0  0  0  0  0  0  0  0  0  0
   40.6840   32.0730   40.2720 H   0  0  0  0  0  0  0  0  0  0  0  0
   39.3350   30.9770   39.6700 H   0  0  0  0  0  0  0  0  0  0  0  0
   38.6520   30.1770   42.0430 O   0  0  0  0  0  0  0  0  0  0  0  0
   38.5640   28.8210   42.3160 C   0  0  0  0  0  0  0  0  0  0  0  0
   39.5990   27.9700   42.6540 C   0  0  0  0  0  0  0  0  0  0  0  0
   40.5670   28.4120   42.7070 H   0  0  0  0  0  0  0  0  0  0  0  0
   39.3700   26.6320   42.9030 C   0  0  0  0  0  0  0  0  0  0  0  0
   40.2220   25.9980   43.1660 H   0  0  0  0  0  0  0  0  0  0  0  0
   38.0620   26.1760   42.8000 C   0  0  0  0  0  0  0  0  0  0  0  0
   37.0290   27.0280   42.4620 C   0  0  0  0  0  0  0  0  0  0  0  0
   37.2860   28.3470   42.2220 N   0  0  0  0  0  0  0  0  0  0  0  0
   36.4990   30.6350   49.0780 C   0  0  0  0  0  0  0  0  0  0  0  0
   37.5650   30.9170   48.2360 C   0  0  0  0  0  0  0  0  0  0  0  0
   37.4160   30.8360   46.8720 C   0  0  0  0  0  0  0  0  0  0  0  0
   36.1960   30.4730   46.4040 N   0  0  0  0  0  0  0  0  0  0  0  0
   35.1580   30.2000   47.2510 C   0  0  0  0  0  0  0  0  0  0  0  0
   35.3010   30.2780   48.5620 N   0  0  0  0  0  0  0  0  0  0  0  0
   38.5570   31.2100   48.5570 H   0  0  0  0  0  0  0  0  0  0  0  0
   34.1800   29.9100   46.8920 H   0  0  0  0  0  0  0  0  0  0  0  0
   36.8410   30.7710   50.4290 O   0  0  0  0  0  0  0  0  0  0  0  0
   36.8750   29.6860   51.3320 C   0  0  0  0  0  0  0  0  0  0  0  0
   35.6050   29.2360   51.6320 F   0  0  0  0  0  0  0  0  0  0  0  0
   37.5440   30.0970   52.4600 F   0  0  0  0  0  0  0  0  0  0  0  0
   37.5960   28.6700   50.7470 F   0  0  0  0  0  0  0  0  0  0  0  0
  1  2  1  0  0  0  0
  1 30  1  0  0  0  0
  2  6  1  0  0  0  0
  3  2  2  0  0  0  0
  4  5  1  0  0  0  0
  4  3  1  0  0  0  0
  5  1  2  0  0  0  0
  7  3  1  0  0  0  0
  8 13  1  1  0  0  0
  8 19  1  0  0  0  0
  8  9  1  0  0  0  0
  9 14  1  6  0  0  0
  9  4  1  0  0  0  0
 10 15  1  0  0  0  0
 10 16  1  0  0  0  0
 10  9  1  0  0  0  0
 11 10  1  0  0  0  0
 12 11  1  0  0  0  0
 12  8  1  0  0  0  0
 17 12  1  0  0  0  0
 18 12  1  0  0  0  0
 19 20  1  0  0  0  0
 20 21  1  0  0  0  0
 21 22  1  0  0  0  0
 21 23  2  0  0  0  0
 23 24  1  0  0  0  0
 25 23  1  0  0  0  0
 26 25  2  0  0  0  0
 27 20  2  0  0  0  0
 27 26  1  0  0  0  0
 28 36  1  0  0  0  0
 29 34  1  0  0  0  0
 29 28  2  0  0  0  0
 30 29  1  0  0  0  0
 31 30  2  0  0  0  0
 31 32  1  0  0  0  0
 32 33  2  0  0  0  0
 33 28  1  0  0  0  0
 35 32  1  0  0  0  0
 36 37  1  0  0  0  0
 37 38  1  0  0  0  0
 37 39  1  0  0  0  0
 40 37  1  0  0  0  0
M  END
>  <minimizedAffinity>
-6.27997255

>  <minimizedRMSD>
0.287837565

$$$$
