
 OpenBabel03272508083D

 23 24  0  0  0  0  0  0  0  0999 V2000
   39.1300   32.7230   48.0430 O   0  0  0  0  0  0  0  0  0  0  0  0
   38.6640   31.7020   47.0430 P   0  0  2  0  0  0  0  0  0  0  0  0
   37.5600   32.4500   45.9800 O   0  0  0  0  0  0  0  0  0  0  0  0
   37.6860   33.4300   46.0320 H   0  0  0  0  0  0  0  0  0  0  0  0
   38.0160   30.3110   47.7230 O   0  0  0  0  0  0  0  0  0  0  0  0
   37.3380   30.2330   51.3540 C   0  0  0  0  0  0  0  0  0  0  0  0
   38.0430   30.5460   50.1900 C   0  0  0  0  0  0  0  0  0  0  0  0
   37.5170   30.1270   48.9650 C   0  0  0  0  0  0  0  0  0  0  0  0
   36.3410   29.4330   48.9740 N   0  0  0  0  0  0  0  0  0  0  0  0
   35.6930   29.1530   50.1290 C   0  0  0  0  0  0  0  0  0  0  0  0
   36.1840   29.5490   51.3120 N   0  0  0  0  0  0  0  0  0  0  0  0
   37.8610   30.6190   52.2220 H   0  0  0  0  0  0  0  0  0  0  0  0
   38.9560   31.0760   50.0810 H   0  0  0  0  0  0  0  0  0  0  0  0
   34.7530   28.6000   50.1430 H   0  0  0  0  0  0  0  0  0  0  0  0
   40.0280   31.2860   46.1140 O   0  0  0  0  0  0  0  0  0  0  0  0
   39.8230   30.7770   44.8390 C   0  0  0  0  0  0  0  0  0  0  0  0
   39.1740   29.6320   44.4780 C   0  0  0  0  0  0  0  0  0  0  0  0
   38.7800   29.0760   45.3110 H   0  0  0  0  0  0  0  0  0  0  0  0
   39.0550   29.2620   43.1520 C   0  0  0  0  0  0  0  0  0  0  0  0
   38.5310   28.3450   42.9140 H   0  0  0  0  0  0  0  0  0  0  0  0
   39.6290   30.1130   42.2270 C   0  0  0  0  0  3  0  0  0  0  0  0
   40.2870   31.2710   42.5820 C   0  0  0  0  0  3  0  0  0  0  0  0
   40.3770   31.5920   43.8930 N   0  0  0  0  0  0  0  0  0  0  0  0
  2  5  1  0  0  0  0
  2  1  2  1  0  0  0
  3  4  1  0  0  0  0
  3  2  1  0  0  0  0
  5  8  1  0  0  0  0
  6 12  1  0  0  0  0
  7  6  2  0  0  0  0
  8  9  2  0  0  0  0
  8  7  1  0  0  0  0
  9 10  1  0  0  0  0
 10 14  1  0  0  0  0
 10 11  2  0  0  0  0
 11  6  1  0  0  0  0
 13  7  1  0  0  0  0
 15  2  1  0  0  0  0
 16 15  1  0  0  0  0
 17 16  1  0  0  0  0
 17 18  1  0  0  0  0
 19 17  2  0  0  0  0
 20 19  1  0  0  0  0
 21 22  2  0  0  0  0
 21 19  1  0  0  0  0
 22 23  1  0  0  0  0
 23 16  2  0  0  0  0
M  END
>  <minimizedAffinity>
-5.21122599

>  <minimizedRMSD>
1.12242043

$$$$
