
 OpenBabel03272508083D

 23 24  0  0  0  0  0  0  0  0999 V2000
   39.1380   32.6400   48.0410 O   0  0  0  0  0  0  0  0  0  0  0  0
   38.6340   31.6520   47.0270 P   0  0  2  0  0  0  0  0  0  0  0  0
   37.6050   32.4700   45.9400 O   0  0  0  0  0  0  0  0  0  0  0  0
   37.7900   33.4390   45.9980 H   0  0  0  0  0  0  0  0  0  0  0  0
   37.8840   30.3030   47.6860 O   0  0  0  0  0  0  0  0  0  0  0  0
   37.3470   30.1990   51.3400 C   0  0  0  0  0  0  0  0  0  0  0  0
   38.0120   30.5130   50.1520 C   0  0  0  0  0  0  0  0  0  0  0  0
   37.4310   30.1140   48.9450 C   0  0  0  0  0  0  0  0  0  0  0  0
   36.2460   29.4390   48.9930 N   0  0  0  0  0  0  0  0  0  0  0  0
   35.6400   29.1570   50.1700 C   0  0  0  0  0  0  0  0  0  0  0  0
   36.1830   29.5330   51.3370 N   0  0  0  0  0  0  0  0  0  0  0  0
   37.9100   30.5690   52.1910 H   0  0  0  0  0  0  0  0  0  0  0  0
   38.9270   31.0300   50.0120 H   0  0  0  0  0  0  0  0  0  0  0  0
   34.6920   28.6180   50.2170 H   0  0  0  0  0  0  0  0  0  0  0  0
   39.9910   31.1540   46.1300 O   0  0  0  0  0  0  0  0  0  0  0  0
   39.7990   30.7650   44.8110 C   0  0  0  0  0  0  0  0  0  0  0  0
   39.3150   29.5780   44.3400 C   0  0  0  0  0  0  0  0  0  0  0  0
   39.0570   28.8780   45.1150 H   0  0  0  0  0  0  0  0  0  0  0  0
   39.1850   29.3450   42.9850 C   0  0  0  0  0  0  0  0  0  0  0  0
   38.7950   28.3890   42.6580 H   0  0  0  0  0  0  0  0  0  0  0  0
   39.5720   30.3730   42.1470 C   0  0  0  0  0  3  0  0  0  0  0  0
   40.0630   31.5740   42.6130 C   0  0  0  0  0  3  0  0  0  0  0  0
   40.1710   31.7570   43.9510 N   0  0  0  0  0  0  0  0  0  0  0  0
  2  5  1  0  0  0  0
  2  1  2  1  0  0  0
  3  4  1  0  0  0  0
  3  2  1  0  0  0  0
  5  8  1  0  0  0  0
  6 12  1  0  0  0  0
  7  6  2  0  0  0  0
  8  9  2  0  0  0  0
  8  7  1  0  0  0  0
  9 10  1  0  0  0  0
 10 14  1  0  0  0  0
 10 11  2  0  0  0  0
 11  6  1  0  0  0  0
 13  7  1  0  0  0  0
 15  2  1  0  0  0  0
 16 15  1  0  0  0  0
 17 16  1  0  0  0  0
 17 18  1  0  0  0  0
 19 17  2  0  0  0  0
 20 19  1  0  0  0  0
 21 22  2  0  0  0  0
 21 19  1  0  0  0  0
 22 23  1  0  0  0  0
 23 16  2  0  0  0  0
M  END
>  <minimizedAffinity>
-5.18068075

>  <minimizedRMSD>
1.09745276

$$$$
