
 OpenBabel03262521393D

 28 30  0  0  0  0  0  0  0  0999 V2000
   38.2520   21.8360   33.6660 F   0  0  0  0  0  0  0  0  0  0  0  0
   37.4480   22.7250   32.9660 C   0  0  0  0  0  0  0  0  0  0  0  0
   36.3720   22.2880   32.2200 C   0  0  0  0  0  0  0  0  0  0  0  0
   35.6080   23.2250   31.5440 C   0  0  0  0  0  0  0  0  0  0  0  0
   35.9160   24.5840   31.6120 C   0  0  0  0  0  0  0  0  0  0  0  0
   37.0170   24.9470   32.3840 C   0  0  0  0  0  0  0  0  0  0  0  0
   37.8050   24.0460   33.0730 C   0  0  0  0  0  0  0  0  0  0  0  0
   34.7720   22.8970   30.9630 H   0  0  0  0  0  0  0  0  0  0  0  0
   35.3510   25.3450   31.1040 H   0  0  0  0  0  0  0  0  0  0  0  0
   37.2890   25.9950   32.4620 H   0  0  0  0  0  0  0  0  0  0  0  0
   36.4930   20.2400   31.0430 C   0  0  0  0  0  0  0  0  0  0  0  0
   36.1270   20.8890   32.2040 C   0  0  0  0  0  0  0  0  0  0  0  0
   35.5570   20.1110   33.2390 C   0  0  0  0  0  0  0  0  0  0  0  0
   35.4040   18.7710   33.0270 N   0  0  0  0  0  0  0  0  0  0  0  0
   35.7780   18.1850   31.8780 C   0  0  0  0  0  0  0  0  0  0  0  0
   36.3280   18.9030   30.8640 N   0  0  0  0  0  0  0  0  0  0  0  0
   36.9400   20.6980   30.1670 H   0  0  0  0  0  0  0  0  0  0  0  0
   35.2890   20.6530   34.1160 H   0  0  0  0  0  0  0  0  0  0  0  0
   35.6060   17.1150   31.8270 H   0  0  0  0  0  0  0  0  0  0  0  0
   39.1970   24.5800   34.0410 S   0  0  0  0  0  0  0  0  0  0  0  0
   38.8690   24.1990   35.7590 C   0  0  0  0  0  0  0  0  0  0  0  0
   39.8340   23.3370   36.2780 C   0  0  0  0  0  0  0  0  0  0  0  0
   40.6920   22.9200   35.7610 H   0  0  0  0  0  0  0  0  0  0  0  0
   39.7760   22.9070   37.6020 C   0  0  0  0  0  0  0  0  0  0  0  0
   40.4940   22.2410   38.0570 H   0  0  0  0  0  0  0  0  0  0  0  0
   38.7480   23.3330   38.4260 C   0  0  0  0  0  3  0  0  0  0  0  0
   37.8270   24.1950   37.8190 C   0  0  0  0  0  3  0  0  0  0  0  0
   37.8630   24.6240   36.5450 N   0  0  0  0  0  0  0  0  0  0  0  0
  2  7  1  0  0  0  0
  2  1  1  0  0  0  0
  3  2  2  0  0  0  0
  4  5  2  0  0  0  0
  4  3  1  0  0  0  0
  5  6  1  0  0  0  0
  6 10  1  0  0  0  0
  6  7  2  0  0  0  0
  7 20  1  0  0  0  0
  8  4  1  0  0  0  0
  9  5  1  0  0  0  0
 11 12  1  0  0  0  0
 12  3  1  0  0  0  0
 12 13  2  0  0  0  0
 13 18  1  0  0  0  0
 14 13  1  0  0  0  0
 15 14  2  0  0  0  0
 16 11  2  0  0  0  0
 16 15  1  0  0  0  0
 17 11  1  0  0  0  0
 19 15  1  0  0  0  0
 20 21  1  0  0  0  0
 21 22  2  0  0  0  0
 21 28  1  0  0  0  0
 22 24  1  0  0  0  0
 23 22  1  0  0  0  0
 24 25  1  0  0  0  0
 24 26  2  0  0  0  0
 27 26  1  0  0  0  0
 28 27  2  0  0  0  0
M  END
>  <minimizedAffinity>
-5.50394058

$$$$

 OpenBabel03262521393D

 28 30  0  0  0  0  0  0  0  0999 V2000
   38.5680   23.0890   33.4460 F   0  0  0  0  0  0  0  0  0  0  0  0
   38.0440   24.3650   33.5940 C   0  0  0  0  0  0  0  0  0  0  0  0
   38.0530   25.0110   34.8140 C   0  0  0  0  0  0  0  0  0  0  0  0
   37.5160   26.2840   34.8970 C   0  0  0  0  0  0  0  0  0  0  0  0
   36.9740   26.9080   33.7720 C   0  0  0  0  0  0  0  0  0  0  0  0
   37.0010   26.1940   32.5770 C   0  0  0  0  0  0  0  0  0  0  0  0
   37.5270   24.9220   32.4510 C   0  0  0  0  0  0  0  0  0  0  0  0
   37.5170   26.7930   35.8380 H   0  0  0  0  0  0  0  0  0  0  0  0
   36.5470   27.8950   33.7910 H   0  0  0  0  0  0  0  0  0  0  0  0
   36.5900   26.6440   31.6790 H   0  0  0  0  0  0  0  0  0  0  0  0
   37.8320   24.2310   37.0370 C   0  0  0  0  0  0  0  0  0  0  0  0
   38.6220   24.3060   35.9090 C   0  0  0  0  0  0  0  0  0  0  0  0
   39.8930   23.6860   35.9540 C   0  0  0  0  0  0  0  0  0  0  0  0
   40.2590   23.0530   37.1080 N   0  0  0  0  0  0  0  0  0  0  0  0
   39.4520   23.0080   38.1810 C   0  0  0  0  0  0  0  0  0  0  0  0
   38.2260   23.5930   38.1700 N   0  0  0  0  0  0  0  0  0  0  0  0
   36.8400   24.6540   37.1530 H   0  0  0  0  0  0  0  0  0  0  0  0
   40.4690   23.7680   35.0620 H   0  0  0  0  0  0  0  0  0  0  0  0
   39.8530   22.4780   39.0390 H   0  0  0  0  0  0  0  0  0  0  0  0
   37.5290   24.0690   30.8910 S   0  0  0  0  0  0  0  0  0  0  0  0
   36.8270   22.4410   31.1380 C   0  0  0  0  0  0  0  0  0  0  0  0
   35.6200   22.5120   31.8320 C   0  0  0  0  0  0  0  0  0  0  0  0
   35.1210   23.4030   32.1990 H   0  0  0  0  0  0  0  0  0  0  0  0
   34.8970   21.3600   32.1360 C   0  0  0  0  0  0  0  0  0  0  0  0
   33.9590   21.3540   32.6700 H   0  0  0  0  0  0  0  0  0  0  0  0
   35.3740   20.1190   31.7490 C   0  0  0  0  0  3  0  0  0  0  0  0
   36.5910   20.1460   31.0580 C   0  0  0  0  0  3  0  0  0  0  0  0
   37.3060   21.2440   30.7540 N   0  0  0  0  0  0  0  0  0  0  0  0
  1  2  1  0  0  0  0
  2  3  1  0  0  0  0
  3  4  2  0  0  0  0
  3 12  1  0  0  0  0
  4  8  1  0  0  0  0
  5  9  1  0  0  0  0
  5  4  1  0  0  0  0
  6  5  2  0  0  0  0
  7  6  1  0  0  0  0
  7  2  2  0  0  0  0
 10  6  1  0  0  0  0
 11 17  1  0  0  0  0
 11 16  1  0  0  0  0
 12 13  1  0  0  0  0
 12 11  2  0  0  0  0
 13 14  2  0  0  0  0
 14 15  1  0  0  0  0
 15 19  1  0  0  0  0
 16 15  2  0  0  0  0
 18 13  1  0  0  0  0
 20 21  1  0  0  0  0
 20  7  1  0  0  0  0
 21 22  1  0  0  0  0
 22 24  2  0  0  0  0
 22 23  1  0  0  0  0
 24 25  1  0  0  0  0
 26 24  1  0  0  0  0
 27 26  2  0  0  0  0
 28 27  1  0  0  0  0
 28 21  2  0  0  0  0
M  END
>  <minimizedAffinity>
-5.18446779

$$$$

 OpenBabel03262521393D

 28 30  0  0  0  0  0  0  0  0999 V2000
   38.4310   26.5230   33.0750 F   0  0  0  0  0  0  0  0  0  0  0  0
   37.5490   25.5830   32.5590 C   0  0  0  0  0  0  0  0  0  0  0  0
   36.4310   25.9620   31.8430 C   0  0  0  0  0  0  0  0  0  0  0  0
   35.5890   24.9770   31.3550 C   0  0  0  0  0  0  0  0  0  0  0  0
   35.8620   23.6270   31.5790 C   0  0  0  0  0  0  0  0  0  0  0  0
   37.0080   23.3230   32.3090 C   0  0  0  0  0  0  0  0  0  0  0  0
   37.8730   24.2740   32.8140 C   0  0  0  0  0  0  0  0  0  0  0  0
   34.7200   25.2590   30.8000 H   0  0  0  0  0  0  0  0  0  0  0  0
   35.2360   22.8290   31.2180 H   0  0  0  0  0  0  0  0  0  0  0  0
   37.2550   22.2840   32.5040 H   0  0  0  0  0  0  0  0  0  0  0  0
   36.6700   27.8660   30.4590 C   0  0  0  0  0  0  0  0  0  0  0  0
   36.2270   27.3560   31.6620 C   0  0  0  0  0  0  0  0  0  0  0  0
   35.6250   28.2550   32.5740 C   0  0  0  0  0  0  0  0  0  0  0  0
   35.5210   29.5670   32.2110 N   0  0  0  0  0  0  0  0  0  0  0  0
   35.9680   30.0140   31.0260 C   0  0  0  0  0  0  0  0  0  0  0  0
   36.5510   29.1780   30.1280 N   0  0  0  0  0  0  0  0  0  0  0  0
   37.1480   27.3040   29.6640 H   0  0  0  0  0  0  0  0  0  0  0  0
   35.2980   27.8190   33.4890 H   0  0  0  0  0  0  0  0  0  0  0  0
   35.8300   31.0760   30.8510 H   0  0  0  0  0  0  0  0  0  0  0  0
   39.3210   23.8150   33.7380 S   0  0  0  0  0  0  0  0  0  0  0  0
   38.9000   23.8080   35.4780 C   0  0  0  0  0  0  0  0  0  0  0  0
   39.7820   23.0130   36.2080 C   0  0  0  0  0  0  0  0  0  0  0  0
   40.6290   22.4490   35.8300 H   0  0  0  0  0  0  0  0  0  0  0  0
   39.6420   22.8630   37.5860 C   0  0  0  0  0  0  0  0  0  0  0  0
   40.2940   22.2610   38.2010 H   0  0  0  0  0  0  0  0  0  0  0  0
   38.6140   23.5070   38.2540 C   0  0  0  0  0  3  0  0  0  0  0  0
   37.7800   24.2830   37.4400 C   0  0  0  0  0  3  0  0  0  0  0  0
   37.8950   24.4420   36.1100 N   0  0  0  0  0  0  0  0  0  0  0  0
  2  7  1  0  0  0  0
  2  1  1  0  0  0  0
  3  2  2  0  0  0  0
  4  5  2  0  0  0  0
  4  3  1  0  0  0  0
  5  6  1  0  0  0  0
  6 10  1  0  0  0  0
  6  7  2  0  0  0  0
  7 20  1  0  0  0  0
  8  4  1  0  0  0  0
  9  5  1  0  0  0  0
 11 12  1  0  0  0  0
 12  3  1  0  0  0  0
 12 13  2  0  0  0  0
 13 18  1  0  0  0  0
 14 13  1  0  0  0  0
 15 14  2  0  0  0  0
 16 11  2  0  0  0  0
 16 15  1  0  0  0  0
 17 11  1  0  0  0  0
 19 15  1  0  0  0  0
 20 21  1  0  0  0  0
 21 28  2  0  0  0  0
 21 22  1  0  0  0  0
 22 24  2  0  0  0  0
 23 22  1  0  0  0  0
 24 25  1  0  0  0  0
 24 26  1  0  0  0  0
 27 26  2  0  0  0  0
 28 27  1  0  0  0  0
M  END
>  <minimizedAffinity>
-5.16487837

$$$$

 OpenBabel03262521393D

 28 30  0  0  0  0  0  0  0  0999 V2000
   36.0290   28.3210   34.7730 F   0  0  0  0  0  0  0  0  0  0  0  0
   35.9150   29.0320   33.5860 C   0  0  0  0  0  0  0  0  0  0  0  0
   35.3740   30.3020   33.5560 C   0  0  0  0  0  0  0  0  0  0  0  0
   35.2890   30.9600   32.3410 C   0  0  0  0  0  0  0  0  0  0  0  0
   35.7390   30.3560   31.1660 C   0  0  0  0  0  0  0  0  0  0  0  0
   36.2720   29.0740   31.2760 C   0  0  0  0  0  0  0  0  0  0  0  0
   36.3760   28.3830   32.4680 C   0  0  0  0  0  0  0  0  0  0  0  0
   34.8710   31.9440   32.3070 H   0  0  0  0  0  0  0  0  0  0  0  0
   35.6920   30.8300   30.2020 H   0  0  0  0  0  0  0  0  0  0  0  0
   36.6340   28.5710   30.3850 H   0  0  0  0  0  0  0  0  0  0  0  0
   33.6100   30.6320   35.0980 C   0  0  0  0  0  0  0  0  0  0  0  0
   34.9390   30.8440   34.7960 C   0  0  0  0  0  0  0  0  0  0  0  0
   35.7190   31.5640   35.7310 C   0  0  0  0  0  0  0  0  0  0  0  0
   35.1110   32.0050   36.8720 N   0  0  0  0  0  0  0  0  0  0  0  0
   33.8120   31.7710   37.1210 C   0  0  0  0  0  0  0  0  0  0  0  0
   33.0350   31.0840   36.2430 N   0  0  0  0  0  0  0  0  0  0  0  0
   32.8910   30.1000   34.4840 H   0  0  0  0  0  0  0  0  0  0  0  0
   36.7380   31.7040   35.4580 H   0  0  0  0  0  0  0  0  0  0  0  0
   33.4420   32.1710   38.0590 H   0  0  0  0  0  0  0  0  0  0  0  0
   37.0690   26.7470   32.5350 S   0  0  0  0  0  0  0  0  0  0  0  0
   38.8010   26.8860   32.9640 C   0  0  0  0  0  0  0  0  0  0  0  0
   38.9980   26.7120   34.3320 C   0  0  0  0  0  0  0  0  0  0  0  0
   38.2440   26.5160   35.0870 H   0  0  0  0  0  0  0  0  0  0  0  0
   40.2730   26.7790   34.8890 C   0  0  0  0  0  0  0  0  0  0  0  0
   40.4850   26.6530   35.9400 H   0  0  0  0  0  0  0  0  0  0  0  0
   41.3720   27.0230   34.0820 C   0  0  0  0  0  3  0  0  0  0  0  0
   41.0780   27.1840   32.7230 C   0  0  0  0  0  3  0  0  0  0  0  0
   39.8560   27.1240   32.1630 N   0  0  0  0  0  0  0  0  0  0  0  0
  2  1  1  0  0  0  0
  3  2  1  0  0  0  0
  3 12  1  0  0  0  0
  4  3  2  0  0  0  0
  5  6  2  0  0  0  0
  5  4  1  0  0  0  0
  6  7  1  0  0  0  0
  7 20  1  0  0  0  0
  7  2  2  0  0  0  0
  8  4  1  0  0  0  0
  9  5  1  0  0  0  0
 10  6  1  0  0  0  0
 11 16  1  0  0  0  0
 12 11  2  0  0  0  0
 12 13  1  0  0  0  0
 13 14  2  0  0  0  0
 14 15  1  0  0  0  0
 15 19  1  0  0  0  0
 16 15  2  0  0  0  0
 17 11  1  0  0  0  0
 18 13  1  0  0  0  0
 20 21  1  0  0  0  0
 21 22  1  0  0  0  0
 22 24  2  0  0  0  0
 22 23  1  0  0  0  0
 24 25  1  0  0  0  0
 26 24  1  0  0  0  0
 27 26  2  0  0  0  0
 28 27  1  0  0  0  0
 28 21  2  0  0  0  0
M  END
>  <minimizedAffinity>
-5.12189531

$$$$

 OpenBabel03262521393D

 28 30  0  0  0  0  0  0  0  0999 V2000
   37.4010   28.3070   35.6050 F   0  0  0  0  0  0  0  0  0  0  0  0
   37.0370   28.1050   34.2810 C   0  0  0  0  0  0  0  0  0  0  0  0
   35.9740   28.7800   33.7150 C   0  0  0  0  0  0  0  0  0  0  0  0
   35.6610   28.5340   32.3890 C   0  0  0  0  0  0  0  0  0  0  0  0
   36.4010   27.6230   31.6350 C   0  0  0  0  0  0  0  0  0  0  0  0
   37.4590   26.9810   32.2750 C   0  0  0  0  0  0  0  0  0  0  0  0
   37.8050   27.1970   33.5950 C   0  0  0  0  0  0  0  0  0  0  0  0
   34.8390   29.0520   31.9410 H   0  0  0  0  0  0  0  0  0  0  0  0
   36.1940   27.4020   30.6030 H   0  0  0  0  0  0  0  0  0  0  0  0
   38.0600   26.2660   31.7220 H   0  0  0  0  0  0  0  0  0  0  0  0
   33.9180   29.4550   34.6710 C   0  0  0  0  0  0  0  0  0  0  0  0
   35.2720   29.6880   34.5520 C   0  0  0  0  0  0  0  0  0  0  0  0
   35.8140   30.7870   35.2610 C   0  0  0  0  0  0  0  0  0  0  0  0
   34.9670   31.5470   36.0160 N   0  0  0  0  0  0  0  0  0  0  0  0
   33.6540   31.2770   36.1000 C   0  0  0  0  0  0  0  0  0  0  0  0
   33.1020   30.2310   35.4320 N   0  0  0  0  0  0  0  0  0  0  0  0
   33.3610   28.6570   34.1920 H   0  0  0  0  0  0  0  0  0  0  0  0
   36.8630   30.9300   35.1400 H   0  0  0  0  0  0  0  0  0  0  0  0
   33.0830   31.9510   36.7300 H   0  0  0  0  0  0  0  0  0  0  0  0
   39.1690   26.3410   34.3490 S   0  0  0  0  0  0  0  0  0  0  0  0
   38.5320   24.8990   35.1940 C   0  0  0  0  0  0  0  0  0  0  0  0
   38.2240   25.1860   36.5230 C   0  0  0  0  0  0  0  0  0  0  0  0
   38.3340   26.1370   37.0340 H   0  0  0  0  0  0  0  0  0  0  0  0
   37.7120   24.2060   37.3700 C   0  0  0  0  0  0  0  0  0  0  0  0
   37.4560   24.3710   38.4060 H   0  0  0  0  0  0  0  0  0  0  0  0
   37.5000   22.9210   36.8990 C   0  0  0  0  0  3  0  0  0  0  0  0
   37.8370   22.7260   35.5550 C   0  0  0  0  0  3  0  0  0  0  0  0
   38.3330   23.6550   34.7180 N   0  0  0  0  0  0  0  0  0  0  0  0
  2  1  1  0  0  0  0
  3  2  1  0  0  0  0
  3 12  1  0  0  0  0
  4  3  2  0  0  0  0
  5  6  2  0  0  0  0
  5  4  1  0  0  0  0
  6  7  1  0  0  0  0
  7  2  2  0  0  0  0
  7 20  1  0  0  0  0
  8  4  1  0  0  0  0
  9  5  1  0  0  0  0
 10  6  1  0  0  0  0
 11 16  1  0  0  0  0
 12 11  2  0  0  0  0
 12 13  1  0  0  0  0
 13 14  2  0  0  0  0
 14 15  1  0  0  0  0
 15 19  1  0  0  0  0
 16 15  2  0  0  0  0
 17 11  1  0  0  0  0
 18 13  1  0  0  0  0
 20 21  1  0  0  0  0
 21 22  1  0  0  0  0
 22 23  1  0  0  0  0
 22 24  2  0  0  0  0
 24 25  1  0  0  0  0
 26 24  1  0  0  0  0
 27 26  2  0  0  0  0
 28 21  2  0  0  0  0
 28 27  1  0  0  0  0
M  END
>  <minimizedAffinity>
-5.09016752

$$$$

 OpenBabel03262521393D

 28 30  0  0  0  0  0  0  0  0999 V2000
   35.8060   27.1070   30.7840 F   0  0  0  0  0  0  0  0  0  0  0  0
   36.2550   27.1480   32.0970 C   0  0  0  0  0  0  0  0  0  0  0  0
   35.9820   28.2240   32.9180 C   0  0  0  0  0  0  0  0  0  0  0  0
   36.4580   28.2050   34.2180 C   0  0  0  0  0  0  0  0  0  0  0  0
   37.1990   27.1230   34.6940 C   0  0  0  0  0  0  0  0  0  0  0  0
   37.4340   26.0750   33.8080 C   0  0  0  0  0  0  0  0  0  0  0  0
   36.9780   26.0540   32.5030 C   0  0  0  0  0  0  0  0  0  0  0  0
   36.2520   29.0340   34.8620 H   0  0  0  0  0  0  0  0  0  0  0  0
   37.5870   27.0670   35.6960 H   0  0  0  0  0  0  0  0  0  0  0  0
   38.0060   25.2150   34.1400 H   0  0  0  0  0  0  0  0  0  0  0  0
   33.8980   29.3280   32.7370 C   0  0  0  0  0  0  0  0  0  0  0  0
   35.2230   29.2840   32.3550 C   0  0  0  0  0  0  0  0  0  0  0  0
   35.6820   30.2790   31.4600 C   0  0  0  0  0  0  0  0  0  0  0  0
   34.7890   31.2190   31.0290 N   0  0  0  0  0  0  0  0  0  0  0  0
   33.5080   31.2200   31.4320 C   0  0  0  0  0  0  0  0  0  0  0  0
   33.0350   30.2790   32.2900 N   0  0  0  0  0  0  0  0  0  0  0  0
   33.4030   28.6390   33.4120 H   0  0  0  0  0  0  0  0  0  0  0  0
   36.7100   30.2070   31.1920 H   0  0  0  0  0  0  0  0  0  0  0  0
   32.8950   32.0160   31.0220 H   0  0  0  0  0  0  0  0  0  0  0  0
   37.3140   24.6810   31.4250 S   0  0  0  0  0  0  0  0  0  0  0  0
   36.8380   23.1750   32.2650 C   0  0  0  0  0  0  0  0  0  0  0  0
   35.6500   22.6620   31.7490 C   0  0  0  0  0  0  0  0  0  0  0  0
   35.0470   23.0740   30.9460 H   0  0  0  0  0  0  0  0  0  0  0  0
   35.0920   21.4900   32.2560 C   0  0  0  0  0  0  0  0  0  0  0  0
   34.1750   21.0480   31.8960 H   0  0  0  0  0  0  0  0  0  0  0  0
   35.7180   20.8140   33.2900 C   0  0  0  0  0  3  0  0  0  0  0  0
   36.9040   21.4020   33.7430 C   0  0  0  0  0  3  0  0  0  0  0  0
   37.4610   22.5310   33.2700 N   0  0  0  0  0  0  0  0  0  0  0  0
  1  2  1  0  0  0  0
  2  7  2  0  0  0  0
  2  3  1  0  0  0  0
  3  4  2  0  0  0  0
  4  5  1  0  0  0  0
  4  8  1  0  0  0  0
  5  9  1  0  0  0  0
  6 10  1  0  0  0  0
  6  5  2  0  0  0  0
  7  6  1  0  0  0  0
 11 17  1  0  0  0  0
 12 11  1  0  0  0  0
 12  3  1  0  0  0  0
 13 12  2  0  0  0  0
 14 15  2  0  0  0  0
 14 13  1  0  0  0  0
 15 16  1  0  0  0  0
 16 11  2  0  0  0  0
 18 13  1  0  0  0  0
 19 15  1  0  0  0  0
 20 21  1  0  0  0  0
 20  7  1  0  0  0  0
 21 28  1  0  0  0  0
 22 24  1  0  0  0  0
 22 21  2  0  0  0  0
 23 22  1  0  0  0  0
 24 26  2  0  0  0  0
 25 24  1  0  0  0  0
 26 27  1  0  0  0  0
 28 27  2  0  0  0  0
M  END
>  <minimizedAffinity>
-5.03019571

$$$$

 OpenBabel03262521393D

 28 30  0  0  0  0  0  0  0  0999 V2000
   39.6400   25.3110   32.3900 F   0  0  0  0  0  0  0  0  0  0  0  0
   39.0520   26.0100   33.4340 C   0  0  0  0  0  0  0  0  0  0  0  0
   39.8030   26.5110   34.4790 C   0  0  0  0  0  0  0  0  0  0  0  0
   39.1570   27.2000   35.4920 C   0  0  0  0  0  0  0  0  0  0  0  0
   37.7740   27.3880   35.4620 C   0  0  0  0  0  0  0  0  0  0  0  0
   37.0850   26.8540   34.3760 C   0  0  0  0  0  0  0  0  0  0  0  0
   37.6910   26.1600   33.3450 C   0  0  0  0  0  0  0  0  0  0  0  0
   39.7290   27.5920   36.3060 H   0  0  0  0  0  0  0  0  0  0  0  0
   37.2320   27.9160   36.2260 H   0  0  0  0  0  0  0  0  0  0  0  0
   36.0090   26.9790   34.3150 H   0  0  0  0  0  0  0  0  0  0  0  0
   41.9380   27.2180   33.7450 C   0  0  0  0  0  0  0  0  0  0  0  0
   41.2030   26.2750   34.4340 C   0  0  0  0  0  0  0  0  0  0  0  0
   41.9040   25.1910   35.0140 C   0  0  0  0  0  0  0  0  0  0  0  0
   43.2600   25.1440   34.8570 N   0  0  0  0  0  0  0  0  0  0  0  0
   43.9300   26.0880   34.1770 C   0  0  0  0  0  0  0  0  0  0  0  0
   43.2880   27.1410   33.6080 N   0  0  0  0  0  0  0  0  0  0  0  0
   41.5450   28.0990   33.2490 H   0  0  0  0  0  0  0  0  0  0  0  0
   41.2970   24.4890   35.5360 H   0  0  0  0  0  0  0  0  0  0  0  0
   45.0040   25.9420   34.1200 H   0  0  0  0  0  0  0  0  0  0  0  0
   36.7470   25.5050   31.9870 S   0  0  0  0  0  0  0  0  0  0  0  0
   36.6870   23.7240   32.1500 C   0  0  0  0  0  0  0  0  0  0  0  0
   35.7740   23.1660   31.2580 C   0  0  0  0  0  0  0  0  0  0  0  0
   35.1530   23.6880   30.5370 H   0  0  0  0  0  0  0  0  0  0  0  0
   35.5640   21.7900   31.2110 C   0  0  0  0  0  0  0  0  0  0  0  0
   34.8700   21.3020   30.5420 H   0  0  0  0  0  0  0  0  0  0  0  0
   36.2660   20.9500   32.0600 C   0  0  0  0  0  3  0  0  0  0  0  0
   37.1600   21.5990   32.9200 C   0  0  0  0  0  3  0  0  0  0  0  0
   37.3790   22.9250   32.9830 N   0  0  0  0  0  0  0  0  0  0  0  0
  1  2  1  0  0  0  0
  2  3  1  0  0  0  0
  3  4  2  0  0  0  0
  4  8  1  0  0  0  0
  5  4  1  0  0  0  0
  5  9  1  0  0  0  0
  6  5  2  0  0  0  0
  7  2  2  0  0  0  0
  7  6  1  0  0  0  0
 10  6  1  0  0  0  0
 11 12  1  0  0  0  0
 12  3  1  0  0  0  0
 12 13  2  0  0  0  0
 13 18  1  0  0  0  0
 14 13  1  0  0  0  0
 15 14  2  0  0  0  0
 16 11  2  0  0  0  0
 16 15  1  0  0  0  0
 17 11  1  0  0  0  0
 19 15  1  0  0  0  0
 20 21  1  0  0  0  0
 20  7  1  0  0  0  0
 21 28  1  0  0  0  0
 22 21  2  0  0  0  0
 23 22  1  0  0  0  0
 24 22  1  0  0  0  0
 24 26  2  0  0  0  0
 25 24  1  0  0  0  0
 26 27  1  0  0  0  0
 27 28  2  0  0  0  0
M  END
>  <minimizedAffinity>
-4.97812366

$$$$

 OpenBabel03262521393D

 28 30  0  0  0  0  0  0  0  0999 V2000
   36.2370   27.6240   34.4700 F   0  0  0  0  0  0  0  0  0  0  0  0
   36.6060   27.9820   33.1800 C   0  0  0  0  0  0  0  0  0  0  0  0
   37.7840   27.5330   32.6170 C   0  0  0  0  0  0  0  0  0  0  0  0
   38.0960   27.9250   31.3270 C   0  0  0  0  0  0  0  0  0  0  0  0
   37.2400   28.7580   30.6050 C   0  0  0  0  0  0  0  0  0  0  0  0
   36.0710   29.1700   31.2390 C   0  0  0  0  0  0  0  0  0  0  0  0
   35.7220   28.8020   32.5250 C   0  0  0  0  0  0  0  0  0  0  0  0
   39.0060   27.5840   30.8810 H   0  0  0  0  0  0  0  0  0  0  0  0
   37.4420   29.0870   29.6010 H   0  0  0  0  0  0  0  0  0  0  0  0
   35.3780   29.8170   30.7110 H   0  0  0  0  0  0  0  0  0  0  0  0
   38.3080   25.3440   33.3460 C   0  0  0  0  0  0  0  0  0  0  0  0
   38.5990   26.6900   33.4200 C   0  0  0  0  0  0  0  0  0  0  0  0
   39.6580   27.0880   34.2700 C   0  0  0  0  0  0  0  0  0  0  0  0
   40.3250   26.1180   34.9640 N   0  0  0  0  0  0  0  0  0  0  0  0
   40.0030   24.8190   34.8560 C   0  0  0  0  0  0  0  0  0  0  0  0
   38.9920   24.4040   34.0500 N   0  0  0  0  0  0  0  0  0  0  0  0
   37.5300   24.8890   32.7420 H   0  0  0  0  0  0  0  0  0  0  0  0
   39.8480   28.1350   34.2960 H   0  0  0  0  0  0  0  0  0  0  0  0
   40.6040   24.1430   35.4560 H   0  0  0  0  0  0  0  0  0  0  0  0
   34.2110   29.3650   33.2740 S   0  0  0  0  0  0  0  0  0  0  0  0
   34.6260   30.4480   34.6360 C   0  0  0  0  0  0  0  0  0  0  0  0
   33.5230   30.6730   35.4580 C   0  0  0  0  0  0  0  0  0  0  0  0
   32.5210   30.2730   35.3400 H   0  0  0  0  0  0  0  0  0  0  0  0
   33.6190   31.4890   36.5820 C   0  0  0  0  0  0  0  0  0  0  0  0
   32.8000   31.6990   37.2530 H   0  0  0  0  0  0  0  0  0  0  0  0
   34.8240   32.0940   36.9010 C   0  0  0  0  0  3  0  0  0  0  0  0
   35.8740   31.8110   36.0200 C   0  0  0  0  0  3  0  0  0  0  0  0
   35.8050   31.0280   34.9290 N   0  0  0  0  0  0  0  0  0  0  0  0
  2  1  1  0  0  0  0
  3  2  1  0  0  0  0
  3 12  1  0  0  0  0
  4  3  2  0  0  0  0
  5  6  2  0  0  0  0
  5  4  1  0  0  0  0
  6  7  1  0  0  0  0
  7  2  2  0  0  0  0
  7 20  1  0  0  0  0
  8  4  1  0  0  0  0
  9  5  1  0  0  0  0
 10  6  1  0  0  0  0
 11 12  2  0  0  0  0
 11 16  1  0  0  0  0
 12 13  1  0  0  0  0
 13 18  1  0  0  0  0
 13 14  2  0  0  0  0
 15 14  1  0  0  0  0
 15 19  1  0  0  0  0
 16 15  2  0  0  0  0
 17 11  1  0  0  0  0
 20 21  1  0  0  0  0
 21 28  2  0  0  0  0
 21 22  1  0  0  0  0
 22 24  2  0  0  0  0
 23 22  1  0  0  0  0
 24 26  1  0  0  0  0
 24 25  1  0  0  0  0
 27 26  2  0  0  0  0
 28 27  1  0  0  0  0
M  END
>  <minimizedAffinity>
-4.93287134

$$$$

 OpenBabel03262521393D

 28 30  0  0  0  0  0  0  0  0999 V2000
   36.9700   25.4400   32.7520 F   0  0  0  0  0  0  0  0  0  0  0  0
   37.4280   26.0370   33.9180 C   0  0  0  0  0  0  0  0  0  0  0  0
   37.3010   27.3950   34.1310 C   0  0  0  0  0  0  0  0  0  0  0  0
   37.7790   27.9300   35.3150 C   0  0  0  0  0  0  0  0  0  0  0  0
   38.3780   27.1180   36.2780 C   0  0  0  0  0  0  0  0  0  0  0  0
   38.4700   25.7580   35.9920 C   0  0  0  0  0  0  0  0  0  0  0  0
   38.0070   25.1840   34.8240 C   0  0  0  0  0  0  0  0  0  0  0  0
   37.6850   28.9810   35.4890 H   0  0  0  0  0  0  0  0  0  0  0  0
   38.7620   27.4900   37.2110 H   0  0  0  0  0  0  0  0  0  0  0  0
   38.9290   25.0920   36.7160 H   0  0  0  0  0  0  0  0  0  0  0  0
   35.4770   28.7350   33.4390 C   0  0  0  0  0  0  0  0  0  0  0  0
   36.6800   28.1510   33.1000 C   0  0  0  0  0  0  0  0  0  0  0  0
   37.1650   28.3590   31.7870 C   0  0  0  0  0  0  0  0  0  0  0  0
   36.4150   29.1230   30.9380 N   0  0  0  0  0  0  0  0  0  0  0  0
   35.2490   29.6710   31.3170 C   0  0  0  0  0  0  0  0  0  0  0  0
   34.7560   29.4900   32.5700 N   0  0  0  0  0  0  0  0  0  0  0  0
   34.9810   28.6660   34.4010 H   0  0  0  0  0  0  0  0  0  0  0  0
   38.0960   27.8910   31.5690 H   0  0  0  0  0  0  0  0  0  0  0  0
   34.7440   30.2560   30.5550 H   0  0  0  0  0  0  0  0  0  0  0  0
   38.1580   23.4370   34.5250 S   0  0  0  0  0  0  0  0  0  0  0  0
   39.7260   22.8850   35.1870 C   0  0  0  0  0  0  0  0  0  0  0  0
   39.5850   22.4100   36.4890 C   0  0  0  0  0  0  0  0  0  0  0  0
   38.6740   22.3560   37.0770 H   0  0  0  0  0  0  0  0  0  0  0  0
   40.6820   21.9290   37.2010 C   0  0  0  0  0  0  0  0  0  0  0  0
   40.6320   21.5490   38.2110 H   0  0  0  0  0  0  0  0  0  0  0  0
   41.9380   21.9160   36.6180 C   0  0  0  0  0  3  0  0  0  0  0  0
   41.9830   22.4120   35.3100 C   0  0  0  0  0  3  0  0  0  0  0  0
   40.9390   22.8820   34.6030 N   0  0  0  0  0  0  0  0  0  0  0  0
  1  2  1  0  0  0  0
  2  3  2  0  0  0  0
  2  7  1  0  0  0  0
  3  4  1  0  0  0  0
  4  8  1  0  0  0  0
  4  5  2  0  0  0  0
  5  9  1  0  0  0  0
  6  5  1  0  0  0  0
  6 10  1  0  0  0  0
  7  6  2  0  0  0  0
 11 17  1  0  0  0  0
 12 11  1  0  0  0  0
 12  3  1  0  0  0  0
 13 12  2  0  0  0  0
 14 15  2  0  0  0  0
 14 13  1  0  0  0  0
 15 16  1  0  0  0  0
 16 11  2  0  0  0  0
 18 13  1  0  0  0  0
 19 15  1  0  0  0  0
 20  7  1  0  0  0  0
 20 21  1  0  0  0  0
 21 22  1  0  0  0  0
 22 23  1  0  0  0  0
 22 24  2  0  0  0  0
 24 25  1  0  0  0  0
 26 24  1  0  0  0  0
 27 26  2  0  0  0  0
 28 21  2  0  0  0  0
 28 27  1  0  0  0  0
M  END
>  <minimizedAffinity>
-4.93251657

$$$$
