
 OpenBabel03272505033D

 28 30  0  0  0  0  0  0  0  0999 V2000
   38.4340   23.1100   32.5880 Cl  0  0  0  0  0  0  0  0  0  0  0  0
   37.0160   23.8700   31.8930 C   0  0  0  0  0  0  0  0  0  0  0  0
   35.9530   23.0700   31.5970 C   0  0  0  0  0  0  0  0  0  0  0  0
   34.8590   23.7380   31.0470 C   0  0  0  0  0  0  0  0  0  0  0  0
   34.8850   25.1040   30.8330 C   0  0  0  0  0  0  0  0  0  0  0  0
   35.9920   25.8460   31.1570 C   0  0  0  0  0  0  0  0  0  0  0  0
   37.0800   25.2080   31.6990 C   0  0  0  0  0  0  0  0  0  0  0  0
   33.9600   23.2050   30.7740 H   0  0  0  0  0  0  0  0  0  0  0  0
   34.0230   25.5980   30.4060 H   0  0  0  0  0  0  0  0  0  0  0  0
   35.9600   26.9150   30.9670 H   0  0  0  0  0  0  0  0  0  0  0  0
   36.2500   20.7290   30.8000 C   0  0  0  0  0  0  0  0  0  0  0  0
   35.8920   21.6280   31.8090 C   0  0  0  0  0  0  0  0  0  0  0  0
   35.4670   21.1190   33.0430 C   0  0  0  0  0  0  0  0  0  0  0  0
   35.4300   19.7690   33.1830 N   0  0  0  0  0  0  0  0  0  0  0  0
   35.7780   18.9250   32.2000 C   0  0  0  0  0  0  0  0  0  0  0  0
   36.1880   19.3970   31.0090 N   0  0  0  0  0  0  0  0  0  0  0  0
   36.5790   21.0990   29.8450 H   0  0  0  0  0  0  0  0  0  0  0  0
   35.1910   21.8220   33.8200 H   0  0  0  0  0  0  0  0  0  0  0  0
   35.6770   17.9020   32.5130 H   0  0  0  0  0  0  0  0  0  0  0  0
   38.1930   25.9790   32.0190 O   0  0  0  0  0  0  0  0  0  0  0  0
   38.2510   26.4870   33.3080 C   0  0  0  0  0  0  0  0  0  0  0  0
   39.5450   26.3480   33.8190 C   0  0  0  0  0  0  0  0  0  0  0  0
   40.4140   25.9120   33.3210 H   0  0  0  0  0  0  0  0  0  0  0  0
   39.8520   26.7890   35.1100 C   0  0  0  0  0  0  0  0  0  0  0  0
   40.8270   26.7050   35.5480 H   0  0  0  0  0  0  0  0  0  0  0  0
   38.8350   27.3700   35.8690 C   0  0  0  0  0  3  0  0  0  0  0  0
   37.5820   27.4760   35.3020 C   0  0  0  0  0  3  0  0  0  0  0  0
   37.3060   27.0460   34.0610 N   0  0  0  0  0  0  0  0  0  0  0  0
  2  1  1  0  0  0  0
  3 12  1  0  0  0  0
  3  2  2  0  0  0  0
  4  3  1  0  0  0  0
  5  4  2  0  0  0  0
  5  6  1  0  0  0  0
  6  7  2  0  0  0  0
  7  2  1  0  0  0  0
  7 20  1  0  0  0  0
  8  4  1  0  0  0  0
  9  5  1  0  0  0  0
 10  6  1  0  0  0  0
 11 16  2  0  0  0  0
 11 12  1  0  0  0  0
 12 13  2  0  0  0  0
 13 14  1  0  0  0  0
 13 18  1  0  0  0  0
 15 19  1  0  0  0  0
 15 14  2  0  0  0  0
 16 15  1  0  0  0  0
 17 11  1  0  0  0  0
 20 21  1  0  0  0  0
 21 22  2  0  0  0  0
 21 28  1  0  0  0  0
 22 24  1  0  0  0  0
 23 22  1  0  0  0  0
 24 25  1  0  0  0  0
 24 26  2  0  0  0  0
 27 26  1  0  0  0  0
 28 27  2  0  0  0  0
M  END
>  <minimizedAffinity>
-5.13141966

$$$$

 OpenBabel03272505033D

 28 30  0  0  0  0  0  0  0  0999 V2000
   36.4720   28.1560   34.6000 Cl  0  0  0  0  0  0  0  0  0  0  0  0
   36.2000   29.1520   33.1850 C   0  0  0  0  0  0  0  0  0  0  0  0
   35.5070   30.3130   33.3550 C   0  0  0  0  0  0  0  0  0  0  0  0
   35.3260   31.0570   32.1890 C   0  0  0  0  0  0  0  0  0  0  0  0
   35.8220   30.6220   30.9740 C   0  0  0  0  0  0  0  0  0  0  0  0
   36.5120   29.4390   30.8790 C   0  0  0  0  0  0  0  0  0  0  0  0
   36.7020   28.6910   32.0150 C   0  0  0  0  0  0  0  0  0  0  0  0
   34.7920   31.9970   32.2040 H   0  0  0  0  0  0  0  0  0  0  0  0
   35.6690   31.2180   30.0850 H   0  0  0  0  0  0  0  0  0  0  0  0
   36.8790   29.1440   29.9010 H   0  0  0  0  0  0  0  0  0  0  0  0
   35.7530   31.5550   35.5010 C   0  0  0  0  0  0  0  0  0  0  0  0
   34.9690   30.8030   34.6190 C   0  0  0  0  0  0  0  0  0  0  0  0
   33.6430   30.5230   34.9720 C   0  0  0  0  0  0  0  0  0  0  0  0
   33.1960   31.0050   36.1600 N   0  0  0  0  0  0  0  0  0  0  0  0
   33.9670   31.7240   36.9900 C   0  0  0  0  0  0  0  0  0  0  0  0
   35.2430   32.0010   36.6670 N   0  0  0  0  0  0  0  0  0  0  0  0
   36.7740   31.7810   35.2490 H   0  0  0  0  0  0  0  0  0  0  0  0
   33.0420   29.9410   34.2830 H   0  0  0  0  0  0  0  0  0  0  0  0
   33.4260   32.0080   37.8730 H   0  0  0  0  0  0  0  0  0  0  0  0
   37.4020   27.4950   31.8960 O   0  0  0  0  0  0  0  0  0  0  0  0
   36.6520   26.3550   31.6510 C   0  0  0  0  0  0  0  0  0  0  0  0
   37.3110   25.2310   32.1570 C   0  0  0  0  0  0  0  0  0  0  0  0
   38.2730   25.2010   32.6750 H   0  0  0  0  0  0  0  0  0  0  0  0
   36.7490   23.9580   32.0300 C   0  0  0  0  0  0  0  0  0  0  0  0
   37.2140   23.0650   32.3990 H   0  0  0  0  0  0  0  0  0  0  0  0
   35.5150   23.8410   31.3880 C   0  0  0  0  0  3  0  0  0  0  0  0
   34.9200   24.9920   30.9130 C   0  0  0  0  0  3  0  0  0  0  0  0
   35.4760   26.2070   31.0440 N   0  0  0  0  0  0  0  0  0  0  0  0
  2  3  1  0  0  0  0
  2  1  1  0  0  0  0
  3 12  1  0  0  0  0
  4  8  1  0  0  0  0
  4  3  2  0  0  0  0
  5  4  1  0  0  0  0
  6  5  2  0  0  0  0
  6  7  1  0  0  0  0
  7  2  2  0  0  0  0
  9  5  1  0  0  0  0
 10  6  1  0  0  0  0
 11 16  1  0  0  0  0
 12 13  1  0  0  0  0
 12 11  2  0  0  0  0
 13 14  2  0  0  0  0
 14 15  1  0  0  0  0
 15 19  1  0  0  0  0
 16 15  2  0  0  0  0
 17 11  1  0  0  0  0
 18 13  1  0  0  0  0
 20  7  1  0  0  0  0
 21 20  1  0  0  0  0
 21 22  1  0  0  0  0
 22 23  1  0  0  0  0
 24 22  2  0  0  0  0
 24 25  1  0  0  0  0
 26 24  1  0  0  0  0
 27 28  1  0  0  0  0
 27 26  2  0  0  0  0
 28 21  2  0  0  0  0
M  END
>  <minimizedAffinity>
-5.12730742

$$$$

 OpenBabel03272505033D

 28 30  0  0  0  0  0  0  0  0999 V2000
   38.9130   27.1030   33.6770 Cl  0  0  0  0  0  0  0  0  0  0  0  0
   38.0070   25.7390   33.0540 C   0  0  0  0  0  0  0  0  0  0  0  0
   37.0060   25.9990   32.1670 C   0  0  0  0  0  0  0  0  0  0  0  0
   36.3260   24.8690   31.7120 C   0  0  0  0  0  0  0  0  0  0  0  0
   36.6670   23.6010   32.1470 C   0  0  0  0  0  0  0  0  0  0  0  0
   37.6890   23.4160   33.0430 C   0  0  0  0  0  0  0  0  0  0  0  0
   38.3710   24.5150   33.5040 C   0  0  0  0  0  0  0  0  0  0  0  0
   35.5130   24.9540   31.0050 H   0  0  0  0  0  0  0  0  0  0  0  0
   36.1250   22.7410   31.7780 H   0  0  0  0  0  0  0  0  0  0  0  0
   37.9150   22.4000   33.3520 H   0  0  0  0  0  0  0  0  0  0  0  0
   35.7350   28.1270   32.4110 C   0  0  0  0  0  0  0  0  0  0  0  0
   36.6190   27.3210   31.6870 C   0  0  0  0  0  0  0  0  0  0  0  0
   37.1340   27.8060   30.4790 C   0  0  0  0  0  0  0  0  0  0  0  0
   36.7390   29.0430   30.0820 N   0  0  0  0  0  0  0  0  0  0  0  0
   35.8900   29.7990   30.7930 C   0  0  0  0  0  0  0  0  0  0  0  0
   35.3860   29.3480   31.9560 N   0  0  0  0  0  0  0  0  0  0  0  0
   35.3280   27.7740   33.3430 H   0  0  0  0  0  0  0  0  0  0  0  0
   37.8180   27.1750   29.9240 H   0  0  0  0  0  0  0  0  0  0  0  0
   35.7070   30.7390   30.3070 H   0  0  0  0  0  0  0  0  0  0  0  0
   39.4030   24.3050   34.4130 O   0  0  0  0  0  0  0  0  0  0  0  0
   39.0380   24.0850   35.7320 C   0  0  0  0  0  0  0  0  0  0  0  0
   39.9540   23.2270   36.3460 C   0  0  0  0  0  0  0  0  0  0  0  0
   40.8410   22.7710   35.8990 H   0  0  0  0  0  0  0  0  0  0  0  0
   39.7970   22.8550   37.6840 C   0  0  0  0  0  0  0  0  0  0  0  0
   40.4700   22.1990   38.2010 H   0  0  0  0  0  0  0  0  0  0  0  0
   38.7030   23.3630   38.3870 C   0  0  0  0  0  3  0  0  0  0  0  0
   37.8380   24.2050   37.7190 C   0  0  0  0  0  3  0  0  0  0  0  0
   38.0050   24.5510   36.4330 N   0  0  0  0  0  0  0  0  0  0  0  0
  2  7  1  0  0  0  0
  2  1  1  0  0  0  0
  3  2  2  0  0  0  0
  4  5  2  0  0  0  0
  4  3  1  0  0  0  0
  5  6  1  0  0  0  0
  6 10  1  0  0  0  0
  6  7  2  0  0  0  0
  7 20  1  0  0  0  0
  8  4  1  0  0  0  0
  9  5  1  0  0  0  0
 11 17  1  0  0  0  0
 12  3  1  0  0  0  0
 12 11  2  0  0  0  0
 13 12  1  0  0  0  0
 14 13  2  0  0  0  0
 14 15  1  0  0  0  0
 15 16  2  0  0  0  0
 16 11  1  0  0  0  0
 18 13  1  0  0  0  0
 19 15  1  0  0  0  0
 20 21  1  0  0  0  0
 21 22  2  0  0  0  0
 21 28  1  0  0  0  0
 22 24  1  0  0  0  0
 23 22  1  0  0  0  0
 24 25  1  0  0  0  0
 24 26  2  0  0  0  0
 27 26  1  0  0  0  0
 28 27  2  0  0  0  0
M  END
>  <minimizedAffinity>
-5.04699993

$$$$

 OpenBabel03272505033D

 28 30  0  0  0  0  0  0  0  0999 V2000
   37.9250   23.8780   33.2760 Cl  0  0  0  0  0  0  0  0  0  0  0  0
   37.8730   25.3940   34.1530 C   0  0  0  0  0  0  0  0  0  0  0  0
   38.5360   25.4590   35.3410 C   0  0  0  0  0  0  0  0  0  0  0  0
   38.4530   26.6930   35.9860 C   0  0  0  0  0  0  0  0  0  0  0  0
   37.7460   27.7460   35.4350 C   0  0  0  0  0  0  0  0  0  0  0  0
   37.1030   27.6070   34.2310 C   0  0  0  0  0  0  0  0  0  0  0  0
   37.1710   26.4010   33.5800 C   0  0  0  0  0  0  0  0  0  0  0  0
   38.9410   26.8600   36.9360 H   0  0  0  0  0  0  0  0  0  0  0  0
   37.6980   28.6930   35.9540 H   0  0  0  0  0  0  0  0  0  0  0  0
   36.5620   28.4650   33.8440 H   0  0  0  0  0  0  0  0  0  0  0  0
   38.7750   23.6450   37.0320 C   0  0  0  0  0  0  0  0  0  0  0  0
   39.2900   24.3700   35.9530 C   0  0  0  0  0  0  0  0  0  0  0  0
   40.5570   24.0320   35.4600 C   0  0  0  0  0  0  0  0  0  0  0  0
   41.2120   23.0090   36.0670 N   0  0  0  0  0  0  0  0  0  0  0  0
   40.6980   22.3280   37.1030 C   0  0  0  0  0  0  0  0  0  0  0  0
   39.4840   22.6400   37.5880 N   0  0  0  0  0  0  0  0  0  0  0  0
   37.8040   23.8880   37.4260 H   0  0  0  0  0  0  0  0  0  0  0  0
   40.9480   24.5980   34.6230 H   0  0  0  0  0  0  0  0  0  0  0  0
   41.3740   21.5630   37.4360 H   0  0  0  0  0  0  0  0  0  0  0  0
   36.5110   26.2810   32.3610 O   0  0  0  0  0  0  0  0  0  0  0  0
   36.9340   27.1140   31.3380 C   0  0  0  0  0  0  0  0  0  0  0  0
   38.1860   26.7030   30.8730 C   0  0  0  0  0  0  0  0  0  0  0  0
   38.7840   25.8600   31.2280 H   0  0  0  0  0  0  0  0  0  0  0  0
   38.8230   27.3920   29.8360 C   0  0  0  0  0  0  0  0  0  0  0  0
   39.7830   27.1190   29.4450 H   0  0  0  0  0  0  0  0  0  0  0  0
   38.1750   28.4960   29.2810 C   0  0  0  0  0  3  0  0  0  0  0  0
   36.9400   28.8460   29.7870 C   0  0  0  0  0  3  0  0  0  0  0  0
   36.3450   28.1730   30.7840 N   0  0  0  0  0  0  0  0  0  0  0  0
  1  2  1  0  0  0  0
  2  3  1  0  0  0  0
  3 12  1  0  0  0  0
  3  4  2  0  0  0  0
  4  8  1  0  0  0  0
  5  9  1  0  0  0  0
  5  4  1  0  0  0  0
  6  5  2  0  0  0  0
  7  2  2  0  0  0  0
  7  6  1  0  0  0  0
 10  6  1  0  0  0  0
 11 17  1  0  0  0  0
 11 16  1  0  0  0  0
 12 11  2  0  0  0  0
 13 12  1  0  0  0  0
 13 14  2  0  0  0  0
 14 15  1  0  0  0  0
 15 19  1  0  0  0  0
 15 16  2  0  0  0  0
 18 13  1  0  0  0  0
 20  7  1  0  0  0  0
 21 20  1  0  0  0  0
 22 23  1  0  0  0  0
 22 21  1  0  0  0  0
 24 22  2  0  0  0  0
 25 24  1  0  0  0  0
 26 27  2  0  0  0  0
 26 24  1  0  0  0  0
 27 28  1  0  0  0  0
 28 21  2  0  0  0  0
M  END
>  <minimizedAffinity>
-5.03782797

$$$$

 OpenBabel03272505033D

 28 30  0  0  0  0  0  0  0  0999 V2000
   37.5970   24.2240   32.7690 Cl  0  0  0  0  0  0  0  0  0  0  0  0
   37.8840   25.3450   34.0840 C   0  0  0  0  0  0  0  0  0  0  0  0
   37.8770   26.6760   33.7920 C   0  0  0  0  0  0  0  0  0  0  0  0
   38.1130   27.5120   34.8830 C   0  0  0  0  0  0  0  0  0  0  0  0
   38.3310   26.9980   36.1480 C   0  0  0  0  0  0  0  0  0  0  0  0
   38.3230   25.6430   36.3680 C   0  0  0  0  0  0  0  0  0  0  0  0
   38.0930   24.8020   35.3070 C   0  0  0  0  0  0  0  0  0  0  0  0
   38.1300   28.5860   34.7700 H   0  0  0  0  0  0  0  0  0  0  0  0
   38.5100   27.6670   36.9780 H   0  0  0  0  0  0  0  0  0  0  0  0
   38.5000   25.2930   37.3800 H   0  0  0  0  0  0  0  0  0  0  0  0
   38.7080   27.4710   31.5820 C   0  0  0  0  0  0  0  0  0  0  0  0
   37.6510   27.2530   32.4710 C   0  0  0  0  0  0  0  0  0  0  0  0
   36.3550   27.6020   32.0720 C   0  0  0  0  0  0  0  0  0  0  0  0
   36.2040   28.1340   30.8320 N   0  0  0  0  0  0  0  0  0  0  0  0
   37.2340   28.3350   29.9960 C   0  0  0  0  0  0  0  0  0  0  0  0
   38.4850   28.0060   30.3640 N   0  0  0  0  0  0  0  0  0  0  0  0
   39.7120   27.2100   31.8690 H   0  0  0  0  0  0  0  0  0  0  0  0
   35.5410   27.4290   32.7660 H   0  0  0  0  0  0  0  0  0  0  0  0
   36.9030   28.7640   29.0690 H   0  0  0  0  0  0  0  0  0  0  0  0
   38.0900   23.4330   35.5520 O   0  0  0  0  0  0  0  0  0  0  0  0
   39.2660   22.8830   36.0370 C   0  0  0  0  0  0  0  0  0  0  0  0
   40.1420   22.6160   34.9800 C   0  0  0  0  0  0  0  0  0  0  0  0
   39.9730   22.7950   33.9150 H   0  0  0  0  0  0  0  0  0  0  0  0
   41.4000   22.0560   35.2210 C   0  0  0  0  0  0  0  0  0  0  0  0
   42.1070   21.8320   34.4460 H   0  0  0  0  0  0  0  0  0  0  0  0
   41.7560   21.7730   36.5400 C   0  0  0  0  0  3  0  0  0  0  0  0
   40.8440   22.0620   37.5340 C   0  0  0  0  0  3  0  0  0  0  0  0
   39.6390   22.6000   37.2840 N   0  0  0  0  0  0  0  0  0  0  0  0
  1  2  1  0  0  0  0
  2  7  1  0  0  0  0
  3  2  2  0  0  0  0
  3  4  1  0  0  0  0
  4  5  2  0  0  0  0
  5  6  1  0  0  0  0
  5  9  1  0  0  0  0
  6 10  1  0  0  0  0
  7 20  1  0  0  0  0
  7  6  2  0  0  0  0
  8  4  1  0  0  0  0
 11 17  1  0  0  0  0
 11 12  1  0  0  0  0
 12  3  1  0  0  0  0
 13 12  2  0  0  0  0
 13 18  1  0  0  0  0
 14 13  1  0  0  0  0
 15 16  1  0  0  0  0
 15 14  2  0  0  0  0
 16 11  2  0  0  0  0
 19 15  1  0  0  0  0
 20 21  1  0  0  0  0
 21 28  1  0  0  0  0
 22 24  1  0  0  0  0
 22 21  2  0  0  0  0
 23 22  1  0  0  0  0
 24 26  2  0  0  0  0
 25 24  1  0  0  0  0
 26 27  1  0  0  0  0
 28 27  2  0  0  0  0
M  END
>  <minimizedAffinity>
-5.00302887

$$$$

 OpenBabel03272505033D

 28 30  0  0  0  0  0  0  0  0999 V2000
   34.5020   25.2360   30.7890 Cl  0  0  0  0  0  0  0  0  0  0  0  0
   36.1590   24.7650   31.1060 C   0  0  0  0  0  0  0  0  0  0  0  0
   37.0470   25.7500   31.4200 C   0  0  0  0  0  0  0  0  0  0  0  0
   38.3470   25.3050   31.6590 C   0  0  0  0  0  0  0  0  0  0  0  0
   38.6750   23.9650   31.5760 C   0  0  0  0  0  0  0  0  0  0  0  0
   37.7260   23.0270   31.2540 C   0  0  0  0  0  0  0  0  0  0  0  0
   36.4400   23.4430   31.0150 C   0  0  0  0  0  0  0  0  0  0  0  0
   39.1350   25.9990   31.9170 H   0  0  0  0  0  0  0  0  0  0  0  0
   39.6900   23.6460   31.7680 H   0  0  0  0  0  0  0  0  0  0  0  0
   38.0370   21.9880   31.2020 H   0  0  0  0  0  0  0  0  0  0  0  0
   36.7370   27.9940   30.3850 C   0  0  0  0  0  0  0  0  0  0  0  0
   36.7370   27.1720   31.5160 C   0  0  0  0  0  0  0  0  0  0  0  0
   36.4310   27.7400   32.7590 C   0  0  0  0  0  0  0  0  0  0  0  0
   36.1500   29.0680   32.7880 N   0  0  0  0  0  0  0  0  0  0  0  0
   36.1570   29.8380   31.6890 C   0  0  0  0  0  0  0  0  0  0  0  0
   36.4480   29.3090   30.4880 N   0  0  0  0  0  0  0  0  0  0  0  0
   36.9690   27.5780   29.4200 H   0  0  0  0  0  0  0  0  0  0  0  0
   36.4320   27.0960   33.6300 H   0  0  0  0  0  0  0  0  0  0  0  0
   35.9090   30.8550   31.9270 H   0  0  0  0  0  0  0  0  0  0  0  0
   35.4940   22.4770   30.6890 O   0  0  0  0  0  0  0  0  0  0  0  0
   35.6390   21.2350   31.2870 C   0  0  0  0  0  0  0  0  0  0  0  0
   35.2830   21.3090   32.6370 C   0  0  0  0  0  0  0  0  0  0  0  0
   34.9360   22.1880   33.1860 H   0  0  0  0  0  0  0  0  0  0  0  0
   35.3470   20.1770   33.4540 C   0  0  0  0  0  0  0  0  0  0  0  0
   35.0870   20.1810   34.4940 H   0  0  0  0  0  0  0  0  0  0  0  0
   35.7750   18.9750   32.8870 C   0  0  0  0  0  3  0  0  0  0  0  0
   36.1100   18.9730   31.5490 C   0  0  0  0  0  3  0  0  0  0  0  0
   36.0430   20.0710   30.7790 N   0  0  0  0  0  0  0  0  0  0  0  0
  1  2  1  0  0  0  0
  2  3  1  0  0  0  0
  3 12  1  0  0  0  0
  3  4  2  0  0  0  0
  4  8  1  0  0  0  0
  5  4  1  0  0  0  0
  5  9  1  0  0  0  0
  6  5  2  0  0  0  0
  7  2  2  0  0  0  0
  7  6  1  0  0  0  0
 10  6  1  0  0  0  0
 11 16  2  0  0  0  0
 11 12  1  0  0  0  0
 12 13  2  0  0  0  0
 13 14  1  0  0  0  0
 13 18  1  0  0  0  0
 15 19  1  0  0  0  0
 15 14  2  0  0  0  0
 16 15  1  0  0  0  0
 17 11  1  0  0  0  0
 20  7  1  0  0  0  0
 20 21  1  0  0  0  0
 21 22  1  0  0  0  0
 22 23  1  0  0  0  0
 22 24  2  0  0  0  0
 24 25  1  0  0  0  0
 26 24  1  0  0  0  0
 27 26  2  0  0  0  0
 28 21  2  0  0  0  0
 28 27  1  0  0  0  0
M  END
>  <minimizedAffinity>
-4.93926096

$$$$

 OpenBabel03272505033D

 28 30  0  0  0  0  0  0  0  0999 V2000
   39.3750   26.7180   35.0470 Cl  0  0  0  0  0  0  0  0  0  0  0  0
   38.7490   25.4580   34.0030 C   0  0  0  0  0  0  0  0  0  0  0  0
   38.4440   24.2590   34.5750 C   0  0  0  0  0  0  0  0  0  0  0  0
   37.9520   23.3020   33.6880 C   0  0  0  0  0  0  0  0  0  0  0  0
   37.7980   23.5800   32.3420 C   0  0  0  0  0  0  0  0  0  0  0  0
   38.1260   24.8130   31.8370 C   0  0  0  0  0  0  0  0  0  0  0  0
   38.6130   25.7700   32.6930 C   0  0  0  0  0  0  0  0  0  0  0  0
   37.6760   22.3140   34.0290 H   0  0  0  0  0  0  0  0  0  0  0  0
   37.4130   22.8210   31.6760 H   0  0  0  0  0  0  0  0  0  0  0  0
   37.9870   24.9790   30.7730 H   0  0  0  0  0  0  0  0  0  0  0  0
   37.6390   24.3220   36.9310 C   0  0  0  0  0  0  0  0  0  0  0  0
   38.5940   23.9300   35.9880 C   0  0  0  0  0  0  0  0  0  0  0  0
   39.7120   23.2080   36.4250 C   0  0  0  0  0  0  0  0  0  0  0  0
   39.7980   22.9290   37.7510 N   0  0  0  0  0  0  0  0  0  0  0  0
   38.8690   23.3170   38.6380 C   0  0  0  0  0  0  0  0  0  0  0  0
   37.7900   24.0110   38.2350 N   0  0  0  0  0  0  0  0  0  0  0  0
   36.7720   24.8780   36.6170 H   0  0  0  0  0  0  0  0  0  0  0  0
   40.4470   22.9070   35.6870 H   0  0  0  0  0  0  0  0  0  0  0  0
   39.1240   22.9980   39.6310 H   0  0  0  0  0  0  0  0  0  0  0  0
   38.9420   27.0120   32.1600 O   0  0  0  0  0  0  0  0  0  0  0  0
   37.8870   27.8620   31.8620 C   0  0  0  0  0  0  0  0  0  0  0  0
   38.0220   28.3550   30.5620 C   0  0  0  0  0  0  0  0  0  0  0  0
   38.8190   28.1370   29.8460 H   0  0  0  0  0  0  0  0  0  0  0  0
   37.0760   29.2370   30.0310 C   0  0  0  0  0  0  0  0  0  0  0  0
   37.1340   29.6440   29.0410 H   0  0  0  0  0  0  0  0  0  0  0  0
   35.9960   29.6080   30.8340 C   0  0  0  0  0  3  0  0  0  0  0  0
   35.9240   29.0830   32.1080 C   0  0  0  0  0  3  0  0  0  0  0  0
   36.8440   28.2370   32.6000 N   0  0  0  0  0  0  0  0  0  0  0  0
  2  3  1  0  0  0  0
  2  1  1  0  0  0  0
  3 12  1  0  0  0  0
  4  8  1  0  0  0  0
  4  3  2  0  0  0  0
  5  4  1  0  0  0  0
  6  5  2  0  0  0  0
  6  7  1  0  0  0  0
  7  2  2  0  0  0  0
  9  5  1  0  0  0  0
 10  6  1  0  0  0  0
 11 16  1  0  0  0  0
 12 13  1  0  0  0  0
 12 11  2  0  0  0  0
 13 14  2  0  0  0  0
 14 15  1  0  0  0  0
 15 19  1  0  0  0  0
 16 15  2  0  0  0  0
 17 11  1  0  0  0  0
 18 13  1  0  0  0  0
 20  7  1  0  0  0  0
 21 20  1  0  0  0  0
 21 28  1  0  0  0  0
 22 21  2  0  0  0  0
 23 22  1  0  0  0  0
 24 22  1  0  0  0  0
 24 26  2  0  0  0  0
 25 24  1  0  0  0  0
 26 27  1  0  0  0  0
 27 28  2  0  0  0  0
M  END
>  <minimizedAffinity>
-4.88747644

$$$$

 OpenBabel03272505033D

 28 30  0  0  0  0  0  0  0  0999 V2000
   37.6100   24.7160   32.5850 Cl  0  0  0  0  0  0  0  0  0  0  0  0
   39.0410   25.5410   33.1700 C   0  0  0  0  0  0  0  0  0  0  0  0
   39.3020   26.7820   32.6730 C   0  0  0  0  0  0  0  0  0  0  0  0
   40.4550   27.3800   33.1800 C   0  0  0  0  0  0  0  0  0  0  0  0
   41.2490   26.7360   34.1110 C   0  0  0  0  0  0  0  0  0  0  0  0
   40.9230   25.4840   34.5670 C   0  0  0  0  0  0  0  0  0  0  0  0
   39.7920   24.8770   34.0810 C   0  0  0  0  0  0  0  0  0  0  0  0
   40.7610   28.3660   32.8580 H   0  0  0  0  0  0  0  0  0  0  0  0
   42.1380   27.2220   34.4900 H   0  0  0  0  0  0  0  0  0  0  0  0
   41.5810   25.0230   35.2980 H   0  0  0  0  0  0  0  0  0  0  0  0
   37.3140   28.1530   32.0610 C   0  0  0  0  0  0  0  0  0  0  0  0
   38.4890   27.4910   31.6910 C   0  0  0  0  0  0  0  0  0  0  0  0
   38.8790   27.5170   30.3460 C   0  0  0  0  0  0  0  0  0  0  0  0
   38.0840   28.1920   29.4770 N   0  0  0  0  0  0  0  0  0  0  0  0
   36.9610   28.8200   29.8550 C   0  0  0  0  0  0  0  0  0  0  0  0
   36.5710   28.8050   31.1420 N   0  0  0  0  0  0  0  0  0  0  0  0
   36.9960   28.1460   33.0890 H   0  0  0  0  0  0  0  0  0  0  0  0
   39.7910   27.0010   30.0670 H   0  0  0  0  0  0  0  0  0  0  0  0
   36.4790   29.2910   29.0180 H   0  0  0  0  0  0  0  0  0  0  0  0
   39.4800   23.6070   34.5550 O   0  0  0  0  0  0  0  0  0  0  0  0
   39.3340   23.4710   35.9270 C   0  0  0  0  0  0  0  0  0  0  0  0
   38.1600   24.1020   36.3490 C   0  0  0  0  0  0  0  0  0  0  0  0
   37.4330   24.6350   35.7310 H   0  0  0  0  0  0  0  0  0  0  0  0
   37.7950   24.1010   37.6980 C   0  0  0  0  0  0  0  0  0  0  0  0
   36.9070   24.5710   38.0720 H   0  0  0  0  0  0  0  0  0  0  0  0
   38.6320   23.4540   38.6090 C   0  0  0  0  0  3  0  0  0  0  0  0
   39.7750   22.8520   38.1240 C   0  0  0  0  0  3  0  0  0  0  0  0
   40.1090   22.8630   36.8240 N   0  0  0  0  0  0  0  0  0  0  0  0
  1  2  1  0  0  0  0
  2  7  1  0  0  0  0
  3  2  2  0  0  0  0
  3  4  1  0  0  0  0
  4  5  2  0  0  0  0
  5  9  1  0  0  0  0
  5  6  1  0  0  0  0
  6 10  1  0  0  0  0
  7 20  1  0  0  0  0
  7  6  2  0  0  0  0
  8  4  1  0  0  0  0
 11 17  1  0  0  0  0
 12 11  1  0  0  0  0
 12  3  1  0  0  0  0
 13 12  2  0  0  0  0
 14 15  2  0  0  0  0
 14 13  1  0  0  0  0
 15 16  1  0  0  0  0
 16 11  2  0  0  0  0
 18 13  1  0  0  0  0
 19 15  1  0  0  0  0
 20 21  1  0  0  0  0
 21 22  2  0  0  0  0
 21 28  1  0  0  0  0
 22 24  1  0  0  0  0
 23 22  1  0  0  0  0
 24 25  1  0  0  0  0
 24 26  2  0  0  0  0
 27 26  1  0  0  0  0
 28 27  2  0  0  0  0
M  END
>  <minimizedAffinity>
-4.8678503

$$$$

 OpenBabel03272505033D

 28 30  0  0  0  0  0  0  0  0999 V2000
   37.0240   24.8570   32.5530 Cl  0  0  0  0  0  0  0  0  0  0  0  0
   37.5730   25.7380   33.9650 C   0  0  0  0  0  0  0  0  0  0  0  0
   37.5040   27.0980   33.9260 C   0  0  0  0  0  0  0  0  0  0  0  0
   37.9570   27.7350   35.0820 C   0  0  0  0  0  0  0  0  0  0  0  0
   38.4310   27.0140   36.1610 C   0  0  0  0  0  0  0  0  0  0  0  0
   38.4700   25.6420   36.1290 C   0  0  0  0  0  0  0  0  0  0  0  0
   38.0290   24.9950   35.0020 C   0  0  0  0  0  0  0  0  0  0  0  0
   37.9490   28.8130   35.1640 H   0  0  0  0  0  0  0  0  0  0  0  0
   38.7750   27.5310   37.0460 H   0  0  0  0  0  0  0  0  0  0  0  0
   38.8520   25.1250   37.0040 H   0  0  0  0  0  0  0  0  0  0  0  0
   37.7590   28.0360   31.6330 C   0  0  0  0  0  0  0  0  0  0  0  0
   37.0120   27.8910   32.8060 C   0  0  0  0  0  0  0  0  0  0  0  0
   35.7660   28.5270   32.8910 C   0  0  0  0  0  0  0  0  0  0  0  0
   35.3590   29.2510   31.8170 N   0  0  0  0  0  0  0  0  0  0  0  0
   36.0940   29.3760   30.7020 C   0  0  0  0  0  0  0  0  0  0  0  0
   37.2920   28.7720   30.6040 N   0  0  0  0  0  0  0  0  0  0  0  0
   38.7180   27.5550   31.5460 H   0  0  0  0  0  0  0  0  0  0  0  0
   35.1930   28.4090   33.8030 H   0  0  0  0  0  0  0  0  0  0  0  0
   35.5940   29.9890   29.9750 H   0  0  0  0  0  0  0  0  0  0  0  0
   38.0780   23.6050   34.9890 O   0  0  0  0  0  0  0  0  0  0  0  0
   39.3260   23.0230   35.1500 C   0  0  0  0  0  0  0  0  0  0  0  0
   39.4380   22.4780   36.4320 C   0  0  0  0  0  0  0  0  0  0  0  0
   38.6860   22.4830   37.2250 H   0  0  0  0  0  0  0  0  0  0  0  0
   40.6120   21.8340   36.8330 C   0  0  0  0  0  0  0  0  0  0  0  0
   40.7490   21.4010   37.8050 H   0  0  0  0  0  0  0  0  0  0  0  0
   41.6650   21.7510   35.9200 C   0  0  0  0  0  3  0  0  0  0  0  0
   41.4870   22.3100   34.6720 C   0  0  0  0  0  3  0  0  0  0  0  0
   40.3510   22.9250   34.3050 N   0  0  0  0  0  0  0  0  0  0  0  0
  1  2  1  0  0  0  0
  2  7  1  0  0  0  0
  3  2  2  0  0  0  0
  3  4  1  0  0  0  0
  4  8  1  0  0  0  0
  4  5  2  0  0  0  0
  5  9  1  0  0  0  0
  6  5  1  0  0  0  0
  6 10  1  0  0  0  0
  7  6  2  0  0  0  0
 11 12  1  0  0  0  0
 12 13  2  0  0  0  0
 12  3  1  0  0  0  0
 13 18  1  0  0  0  0
 14 13  1  0  0  0  0
 15 14  2  0  0  0  0
 16 15  1  0  0  0  0
 16 11  2  0  0  0  0
 17 11  1  0  0  0  0
 19 15  1  0  0  0  0
 20  7  1  0  0  0  0
 20 21  1  0  0  0  0
 21 22  1  0  0  0  0
 22 24  2  0  0  0  0
 22 23  1  0  0  0  0
 24 25  1  0  0  0  0
 26 24  1  0  0  0  0
 27 26  2  0  0  0  0
 28 27  1  0  0  0  0
 28 21  2  0  0  0  0
M  END
>  <minimizedAffinity>
-4.8497901

$$$$
