
 OpenBabel03272505243D

 27 29  0  0  0  0  0  0  0  0999 V2000
   40.5060   24.1310   35.0840 C   0  0  0  0  0  0  0  0  0  0  0  0
   39.5540   24.5470   34.1150 C   0  0  0  0  0  0  0  0  0  0  0  0
   38.3840   23.7960   33.9610 C   0  0  0  0  0  0  0  0  0  0  0  0
   38.2250   22.7140   34.7450 N   0  0  0  0  0  0  0  0  0  0  0  0
   39.1290   22.3170   35.6670 C   0  0  0  0  0  0  0  0  0  0  0  0
   40.2700   23.0370   35.8280 N   0  0  0  0  0  0  0  0  0  0  0  0
   37.4010   24.1620   33.0180 N   0  0  0  0  0  0  0  0  0  0  0  0
   36.6530   23.2400   32.3810 C   0  0  0  0  0  0  0  0  0  0  0  0
   35.6890   23.6070   31.4490 C   0  0  0  0  0  0  0  0  0  0  0  0
   35.5190   24.9800   31.1880 C   0  0  0  0  0  0  0  0  0  0  0  0
   34.6670   25.3600   30.3570 O   0  0  0  0  0  0  0  0  0  0  0  0
   36.2880   25.9030   31.8440 N   0  0  0  0  0  0  0  0  0  0  0  0
   37.1810   25.4330   32.7190 C   0  0  0  0  0  0  0  0  0  0  0  0
   37.8600   26.3200   33.2990 O   0  0  0  0  0  0  0  0  0  0  0  0
   41.4310   24.6570   35.2610 H   0  0  0  0  0  0  0  0  0  0  0  0
   39.8580   25.4180   33.5780 H   0  0  0  0  0  0  0  0  0  0  0  0
   38.8480   21.4250   36.2120 H   0  0  0  0  0  0  0  0  0  0  0  0
   36.7830   22.2010   32.5800 H   0  0  0  0  0  0  0  0  0  0  0  0
   35.0790   22.8810   30.9280 H   0  0  0  0  0  0  0  0  0  0  0  0
   36.1170   27.2940   31.5810 C   0  0  0  0  0  0  0  0  0  0  0  0
   36.8840   27.7500   30.5070 C   0  0  0  0  0  0  0  0  0  0  0  0
   37.5400   27.1190   29.9310 H   0  0  0  0  0  0  0  0  0  0  0  0
   36.8020   29.0840   30.1550 C   0  0  0  0  0  0  0  0  0  0  0  0
   37.3810   29.4840   29.3270 H   0  0  0  0  0  0  0  0  0  0  0  0
   35.9590   29.8630   30.9060 C   0  0  0  0  0  3  0  0  0  0  0  0
   35.1990   29.4190   31.9690 C   0  0  0  0  0  3  0  0  0  0  0  0
   35.3010   28.0970   32.2900 N   0  0  0  0  0  0  0  0  0  0  0  0
  1 15  1  0  0  0  0
  1  6  1  0  0  0  0
  2  1  2  0  0  0  0
  3  2  1  0  0  0  0
  3  4  2  0  0  0  0
  4  5  1  0  0  0  0
  5  6  2  0  0  0  0
  5 17  1  0  0  0  0
  7  3  1  0  0  0  0
  8 18  1  0  0  0  0
  8  7  1  0  0  0  0
  9  8  2  0  0  0  0
 10  9  1  0  0  0  0
 10 12  1  0  0  0  0
 11 10  2  0  0  0  0
 12 13  1  0  0  0  0
 13  7  1  0  0  0  0
 13 14  2  0  0  0  0
 16  2  1  0  0  0  0
 19  9  1  0  0  0  0
 20 12  1  0  0  0  0
 20 27  1  0  0  0  0
 21 20  2  0  0  0  0
 22 21  1  0  0  0  0
 23 21  1  0  0  0  0
 23 25  2  0  0  0  0
 24 23  1  0  0  0  0
 25 26  1  0  0  0  0
 26 27  2  0  0  0  0
M  END
>  <minimizedAffinity>
-5.16199541

$$$$

 OpenBabel03272505243D

 27 29  0  0  0  0  0  0  0  0999 V2000
   37.1280   19.6780   32.1010 C   0  0  0  0  0  0  0  0  0  0  0  0
   37.2630   21.0910   32.0490 C   0  0  0  0  0  0  0  0  0  0  0  0
   36.1080   21.8700   31.9300 C   0  0  0  0  0  0  0  0  0  0  0  0
   34.9250   21.2310   31.8720 N   0  0  0  0  0  0  0  0  0  0  0  0
   34.7940   19.8880   31.9220 C   0  0  0  0  0  0  0  0  0  0  0  0
   35.9080   19.1190   32.0370 N   0  0  0  0  0  0  0  0  0  0  0  0
   36.1790   23.2770   31.8780 N   0  0  0  0  0  0  0  0  0  0  0  0
   35.3010   24.0040   31.1590 C   0  0  0  0  0  0  0  0  0  0  0  0
   35.3800   25.3910   31.1060 C   0  0  0  0  0  0  0  0  0  0  0  0
   36.4120   26.0160   31.8310 C   0  0  0  0  0  0  0  0  0  0  0  0
   36.5260   27.2610   31.8140 O   0  0  0  0  0  0  0  0  0  0  0  0
   37.2950   25.2630   32.5560 N   0  0  0  0  0  0  0  0  0  0  0  0
   37.1200   23.9390   32.5330 C   0  0  0  0  0  0  0  0  0  0  0  0
   37.9550   23.2910   33.2170 O   0  0  0  0  0  0  0  0  0  0  0  0
   37.9720   19.0110   32.1920 H   0  0  0  0  0  0  0  0  0  0  0  0
   38.2790   21.4150   32.0940 H   0  0  0  0  0  0  0  0  0  0  0  0
   33.7720   19.5370   31.8610 H   0  0  0  0  0  0  0  0  0  0  0  0
   34.5200   23.5290   30.6110 H   0  0  0  0  0  0  0  0  0  0  0  0
   34.6850   25.9910   30.5350 H   0  0  0  0  0  0  0  0  0  0  0  0
   38.3410   25.8950   33.2900 C   0  0  0  0  0  0  0  0  0  0  0  0
   37.9650   26.2540   34.5850 C   0  0  0  0  0  0  0  0  0  0  0  0
   36.9850   26.0750   34.9950 H   0  0  0  0  0  0  0  0  0  0  0  0
   38.8970   26.8750   35.3970 C   0  0  0  0  0  0  0  0  0  0  0  0
   38.6490   27.1730   36.4120 H   0  0  0  0  0  0  0  0  0  0  0  0
   40.1360   27.0900   34.8490 C   0  0  0  0  0  3  0  0  0  0  0  0
   40.5140   26.7370   33.5700 C   0  0  0  0  0  3  0  0  0  0  0  0
   39.5720   26.1260   32.7950 N   0  0  0  0  0  0  0  0  0  0  0  0
  1 15  1  0  0  0  0
  2 16  1  0  0  0  0
  2  1  1  0  0  0  0
  3  2  2  0  0  0  0
  4  5  2  0  0  0  0
  4  3  1  0  0  0  0
  5  6  1  0  0  0  0
  6  1  2  0  0  0  0
  7  3  1  0  0  0  0
  7 13  1  0  0  0  0
  8  7  1  0  0  0  0
  9  8  2  0  0  0  0
  9 10  1  0  0  0  0
 10 12  1  0  0  0  0
 11 10  2  0  0  0  0
 12 20  1  0  0  0  0
 13 12  1  0  0  0  0
 13 14  2  0  0  0  0
 17  5  1  0  0  0  0
 18  8  1  0  0  0  0
 19  9  1  0  0  0  0
 20 21  1  0  0  0  0
 21 22  1  0  0  0  0
 21 23  2  0  0  0  0
 23 24  1  0  0  0  0
 25 23  1  0  0  0  0
 26 25  2  0  0  0  0
 27 20  2  0  0  0  0
 27 26  1  0  0  0  0
M  END
>  <minimizedAffinity>
-5.13213491

$$$$

 OpenBabel03272505243D

 27 29  0  0  0  0  0  0  0  0999 V2000
   36.3480   28.9040   32.9060 C   0  0  0  0  0  0  0  0  0  0  0  0
   36.5910   27.5600   33.2960 C   0  0  0  0  0  0  0  0  0  0  0  0
   36.8000   26.6010   32.2990 C   0  0  0  0  0  0  0  0  0  0  0  0
   36.7580   27.0110   31.0170 N   0  0  0  0  0  0  0  0  0  0  0  0
   36.5270   28.2880   30.6450 C   0  0  0  0  0  0  0  0  0  0  0  0
   36.3230   29.2300   31.6030 N   0  0  0  0  0  0  0  0  0  0  0  0
   37.0500   25.2530   32.6240 N   0  0  0  0  0  0  0  0  0  0  0  0
   36.6300   24.2440   31.8350 C   0  0  0  0  0  0  0  0  0  0  0  0
   36.8740   22.9160   32.1640 C   0  0  0  0  0  0  0  0  0  0  0  0
   37.5770   22.6550   33.3550 C   0  0  0  0  0  0  0  0  0  0  0  0
   37.8210   21.4780   33.6960 O   0  0  0  0  0  0  0  0  0  0  0  0
   37.9960   23.6910   34.1450 N   0  0  0  0  0  0  0  0  0  0  0  0
   37.7050   24.9260   33.7270 C   0  0  0  0  0  0  0  0  0  0  0  0
   38.1140   25.8440   34.4850 O   0  0  0  0  0  0  0  0  0  0  0  0
   36.1780   29.6990   33.6160 H   0  0  0  0  0  0  0  0  0  0  0  0
   36.5730   27.4220   34.3540 H   0  0  0  0  0  0  0  0  0  0  0  0
   36.5250   28.4470   29.5740 H   0  0  0  0  0  0  0  0  0  0  0  0
   36.0980   24.4430   30.9330 H   0  0  0  0  0  0  0  0  0  0  0  0
   36.5460   22.0930   31.5430 H   0  0  0  0  0  0  0  0  0  0  0  0
   38.7090   23.4290   35.3530 C   0  0  0  0  0  0  0  0  0  0  0  0
   37.8990   23.4670   36.4890 C   0  0  0  0  0  0  0  0  0  0  0  0
   36.8420   23.6730   36.4630 H   0  0  0  0  0  0  0  0  0  0  0  0
   38.4770   23.2280   37.7220 C   0  0  0  0  0  0  0  0  0  0  0  0
   37.8860   23.2470   38.6340 H   0  0  0  0  0  0  0  0  0  0  0  0
   39.8240   22.9680   37.7240 C   0  0  0  0  0  3  0  0  0  0  0  0
   40.6300   22.9290   36.6050 C   0  0  0  0  0  3  0  0  0  0  0  0
   40.0290   23.1690   35.4040 N   0  0  0  0  0  0  0  0  0  0  0  0
  1  2  1  0  0  0  0
  1 15  1  0  0  0  0
  2 16  1  0  0  0  0
  3  7  1  0  0  0  0
  3  2  2  0  0  0  0
  4  3  1  0  0  0  0
  5  4  2  0  0  0  0
  5  6  1  0  0  0  0
  6  1  2  0  0  0  0
  7 13  1  0  0  0  0
  8  9  2  0  0  0  0
  8  7  1  0  0  0  0
  9 10  1  0  0  0  0
 10 11  2  0  0  0  0
 10 12  1  0  0  0  0
 12 20  1  0  0  0  0
 13 12  1  0  0  0  0
 13 14  2  0  0  0  0
 17  5  1  0  0  0  0
 18  8  1  0  0  0  0
 19  9  1  0  0  0  0
 20 27  2  0  0  0  0
 20 21  1  0  0  0  0
 21 23  2  0  0  0  0
 22 21  1  0  0  0  0
 23 25  1  0  0  0  0
 23 24  1  0  0  0  0
 26 25  2  0  0  0  0
 27 26  1  0  0  0  0
M  END
>  <minimizedAffinity>
-5.07141495

$$$$

 OpenBabel03272505243D

 27 29  0  0  0  0  0  0  0  0999 V2000
   35.5240   23.8120   31.1680 C   0  0  0  0  0  0  0  0  0  0  0  0
   36.7190   23.9820   31.9160 C   0  0  0  0  0  0  0  0  0  0  0  0
   37.1060   25.2780   32.2740 C   0  0  0  0  0  0  0  0  0  0  0  0
   36.3180   26.2970   31.8850 N   0  0  0  0  0  0  0  0  0  0  0  0
   35.1820   26.1380   31.1730 C   0  0  0  0  0  0  0  0  0  0  0  0
   34.7930   24.8840   30.8190 N   0  0  0  0  0  0  0  0  0  0  0  0
   38.2800   25.5090   33.0190 N   0  0  0  0  0  0  0  0  0  0  0  0
   39.0210   26.6210   32.8460 C   0  0  0  0  0  0  0  0  0  0  0  0
   40.1820   26.8400   33.5810 C   0  0  0  0  0  0  0  0  0  0  0  0
   40.5600   25.8590   34.5160 C   0  0  0  0  0  0  0  0  0  0  0  0
   41.5950   26.0090   35.2000 O   0  0  0  0  0  0  0  0  0  0  0  0
   39.7960   24.7360   34.6790 N   0  0  0  0  0  0  0  0  0  0  0  0
   38.7020   24.6340   33.9190 C   0  0  0  0  0  0  0  0  0  0  0  0
   38.0310   23.5850   34.1080 O   0  0  0  0  0  0  0  0  0  0  0  0
   35.1600   22.8450   30.8560 H   0  0  0  0  0  0  0  0  0  0  0  0
   37.2190   23.0620   32.1210 H   0  0  0  0  0  0  0  0  0  0  0  0
   34.6670   27.0610   30.9410 H   0  0  0  0  0  0  0  0  0  0  0  0
   38.7330   27.3630   32.1380 H   0  0  0  0  0  0  0  0  0  0  0  0
   40.7890   27.7270   33.4560 H   0  0  0  0  0  0  0  0  0  0  0  0
   40.1780   23.7400   35.6260 C   0  0  0  0  0  0  0  0  0  0  0  0
   39.4790   23.8290   36.8300 C   0  0  0  0  0  0  0  0  0  0  0  0
   38.7260   24.5730   37.0310 H   0  0  0  0  0  0  0  0  0  0  0  0
   39.7620   22.9150   37.8290 C   0  0  0  0  0  0  0  0  0  0  0  0
   39.2440   22.9460   38.7830 H   0  0  0  0  0  0  0  0  0  0  0  0
   40.7260   21.9800   37.5450 C   0  0  0  0  0  3  0  0  0  0  0  0
   41.4200   21.8870   36.3560 C   0  0  0  0  0  3  0  0  0  0  0  0
   41.1160   22.8030   35.3920 N   0  0  0  0  0  0  0  0  0  0  0  0
  1  2  1  0  0  0  0
  2 16  1  0  0  0  0
  2  3  2  0  0  0  0
  3  7  1  0  0  0  0
  4  3  1  0  0  0  0
  5  4  2  0  0  0  0
  6  1  2  0  0  0  0
  6  5  1  0  0  0  0
  7 13  1  0  0  0  0
  8  7  1  0  0  0  0
  8  9  2  0  0  0  0
  9 10  1  0  0  0  0
 10 12  1  0  0  0  0
 10 11  2  0  0  0  0
 12 20  1  0  0  0  0
 13 14  2  0  0  0  0
 13 12  1  0  0  0  0
 15  1  1  0  0  0  0
 17  5  1  0  0  0  0
 18  8  1  0  0  0  0
 19  9  1  0  0  0  0
 20 21  1  0  0  0  0
 21 22  1  0  0  0  0
 21 23  2  0  0  0  0
 23 24  1  0  0  0  0
 25 23  1  0  0  0  0
 26 25  2  0  0  0  0
 27 20  2  0  0  0  0
 27 26  1  0  0  0  0
M  END
>  <minimizedAffinity>
-5.02288103

$$$$

 OpenBabel03272505243D

 27 29  0  0  0  0  0  0  0  0999 V2000
   38.2060   24.9820   34.2760 C   0  0  0  0  0  0  0  0  0  0  0  0
   37.6990   26.2990   34.1140 C   0  0  0  0  0  0  0  0  0  0  0  0
   37.0880   26.6370   32.9020 C   0  0  0  0  0  0  0  0  0  0  0  0
   37.0150   25.6880   31.9510 N   0  0  0  0  0  0  0  0  0  0  0  0
   37.4980   24.4360   32.1020 C   0  0  0  0  0  0  0  0  0  0  0  0
   38.0930   24.0930   33.2750 N   0  0  0  0  0  0  0  0  0  0  0  0
   36.5620   27.9270   32.6850 N   0  0  0  0  0  0  0  0  0  0  0  0
   36.5710   28.4990   31.4650 C   0  0  0  0  0  0  0  0  0  0  0  0
   36.0560   29.7740   31.2580 C   0  0  0  0  0  0  0  0  0  0  0  0
   35.5220   30.4520   32.3700 C   0  0  0  0  0  0  0  0  0  0  0  0
   35.0480   31.6010   32.2360 O   0  0  0  0  0  0  0  0  0  0  0  0
   35.5200   29.8570   33.6010 N   0  0  0  0  0  0  0  0  0  0  0  0
   36.0400   28.6290   33.6790 C   0  0  0  0  0  0  0  0  0  0  0  0
   36.0120   28.1220   34.8310 O   0  0  0  0  0  0  0  0  0  0  0  0
   38.6900   24.6470   35.1810 H   0  0  0  0  0  0  0  0  0  0  0  0
   37.8590   26.9170   34.9700 H   0  0  0  0  0  0  0  0  0  0  0  0
   37.3590   23.7970   31.2390 H   0  0  0  0  0  0  0  0  0  0  0  0
   36.9760   27.9840   30.6250 H   0  0  0  0  0  0  0  0  0  0  0  0
   36.0550   30.2500   30.2870 H   0  0  0  0  0  0  0  0  0  0  0  0
   34.9780   30.5430   34.7290 C   0  0  0  0  0  0  0  0  0  0  0  0
   35.9110   31.3510   35.3810 C   0  0  0  0  0  0  0  0  0  0  0  0
   36.9380   31.4510   35.0690 H   0  0  0  0  0  0  0  0  0  0  0  0
   35.5040   32.0680   36.4900 C   0  0  0  0  0  0  0  0  0  0  0  0
   36.1950   32.7100   37.0300 H   0  0  0  0  0  0  0  0  0  0  0  0
   34.1920   31.9210   36.8640 C   0  0  0  0  0  3  0  0  0  0  0  0
   33.2650   31.1240   36.2240 C   0  0  0  0  0  3  0  0  0  0  0  0
   33.6990   30.4300   35.1320 N   0  0  0  0  0  0  0  0  0  0  0  0
  1 15  1  0  0  0  0
  2  1  1  0  0  0  0
  2 16  1  0  0  0  0
  3  2  2  0  0  0  0
  4  5  2  0  0  0  0
  4  3  1  0  0  0  0
  5  6  1  0  0  0  0
  6  1  2  0  0  0  0
  7  3  1  0  0  0  0
  7 13  1  0  0  0  0
  8  7  1  0  0  0  0
  9  8  2  0  0  0  0
  9 10  1  0  0  0  0
 10 12  1  0  0  0  0
 11 10  2  0  0  0  0
 12 13  1  0  0  0  0
 12 20  1  0  0  0  0
 13 14  2  0  0  0  0
 17  5  1  0  0  0  0
 18  8  1  0  0  0  0
 19  9  1  0  0  0  0
 20 27  2  0  0  0  0
 20 21  1  0  0  0  0
 21 23  2  0  0  0  0
 22 21  1  0  0  0  0
 23 25  1  0  0  0  0
 23 24  1  0  0  0  0
 26 25  2  0  0  0  0
 27 26  1  0  0  0  0
M  END
>  <minimizedAffinity>
-4.99458742

$$$$

 OpenBabel03272505243D

 27 29  0  0  0  0  0  0  0  0999 V2000
   36.6490   28.2410   30.3650 C   0  0  0  0  0  0  0  0  0  0  0  0
   36.9770   26.9720   30.9120 C   0  0  0  0  0  0  0  0  0  0  0  0
   36.9360   26.8110   32.3010 C   0  0  0  0  0  0  0  0  0  0  0  0
   36.5860   27.8770   33.0450 N   0  0  0  0  0  0  0  0  0  0  0  0
   36.2740   29.0840   32.5270 C   0  0  0  0  0  0  0  0  0  0  0  0
   36.3090   29.2540   31.1790 N   0  0  0  0  0  0  0  0  0  0  0  0
   37.2470   25.5740   32.9020 N   0  0  0  0  0  0  0  0  0  0  0  0
   37.8390   25.5030   34.1100 C   0  0  0  0  0  0  0  0  0  0  0  0
   38.1490   24.2800   34.6950 C   0  0  0  0  0  0  0  0  0  0  0  0
   37.8240   23.1120   33.9810 C   0  0  0  0  0  0  0  0  0  0  0  0
   38.0830   21.9890   34.4630 O   0  0  0  0  0  0  0  0  0  0  0  0
   37.2230   23.2020   32.7550 N   0  0  0  0  0  0  0  0  0  0  0  0
   36.9720   24.4310   32.2940 C   0  0  0  0  0  0  0  0  0  0  0  0
   36.4170   24.4610   31.1640 O   0  0  0  0  0  0  0  0  0  0  0  0
   36.6570   28.4420   29.3040 H   0  0  0  0  0  0  0  0  0  0  0  0
   37.2430   26.2530   30.1700 H   0  0  0  0  0  0  0  0  0  0  0  0
   36.0150   29.8330   33.2640 H   0  0  0  0  0  0  0  0  0  0  0  0
   38.0840   26.3890   34.6500 H   0  0  0  0  0  0  0  0  0  0  0  0
   38.6230   24.2040   35.6640 H   0  0  0  0  0  0  0  0  0  0  0  0
   36.8930   22.0190   32.0290 C   0  0  0  0  0  0  0  0  0  0  0  0
   35.6310   21.5150   32.3430 C   0  0  0  0  0  0  0  0  0  0  0  0
   34.9670   21.9680   33.0610 H   0  0  0  0  0  0  0  0  0  0  0  0
   35.1980   20.3690   31.7030 C   0  0  0  0  0  0  0  0  0  0  0  0
   34.2220   19.9390   31.9160 H   0  0  0  0  0  0  0  0  0  0  0  0
   36.0630   19.8130   30.7950 C   0  0  0  0  0  3  0  0  0  0  0  0
   37.3130   20.3070   30.4800 C   0  0  0  0  0  3  0  0  0  0  0  0
   37.7090   21.4390   31.1290 N   0  0  0  0  0  0  0  0  0  0  0  0
  1  2  2  0  0  0  0
  1  6  1  0  0  0  0
  2  3  1  0  0  0  0
  3  7  1  0  0  0  0
  3  4  2  0  0  0  0
  5  4  1  0  0  0  0
  5 17  1  0  0  0  0
  6  5  2  0  0  0  0
  7  8  1  0  0  0  0
  8 18  1  0  0  0  0
  8  9  2  0  0  0  0
  9 19  1  0  0  0  0
 10 11  2  0  0  0  0
 10  9  1  0  0  0  0
 12 10  1  0  0  0  0
 13 12  1  0  0  0  0
 13  7  1  0  0  0  0
 14 13  2  0  0  0  0
 15  1  1  0  0  0  0
 16  2  1  0  0  0  0
 20 21  1  0  0  0  0
 20 12  1  0  0  0  0
 21 22  1  0  0  0  0
 23 24  1  0  0  0  0
 23 21  2  0  0  0  0
 25 23  1  0  0  0  0
 26 25  2  0  0  0  0
 26 27  1  0  0  0  0
 27 20  2  0  0  0  0
M  END
>  <minimizedAffinity>
-4.91052628

$$$$

 OpenBabel03272505243D

 27 29  0  0  0  0  0  0  0  0999 V2000
   41.9000   21.0710   37.5030 C   0  0  0  0  0  0  0  0  0  0  0  0
   41.6660   22.3480   36.9270 C   0  0  0  0  0  0  0  0  0  0  0  0
   42.5130   22.7850   35.9020 C   0  0  0  0  0  0  0  0  0  0  0  0
   43.5070   21.9640   35.5180 N   0  0  0  0  0  0  0  0  0  0  0  0
   43.7320   20.7500   36.0650 C   0  0  0  0  0  0  0  0  0  0  0  0
   42.9170   20.3120   37.0600 N   0  0  0  0  0  0  0  0  0  0  0  0
   42.3280   24.0410   35.2900 N   0  0  0  0  0  0  0  0  0  0  0  0
   43.3680   24.7650   34.8310 C   0  0  0  0  0  0  0  0  0  0  0  0
   43.1800   26.0060   34.2330 C   0  0  0  0  0  0  0  0  0  0  0  0
   41.8610   26.4860   34.1210 C   0  0  0  0  0  0  0  0  0  0  0  0
   41.6400   27.5970   33.5920 O   0  0  0  0  0  0  0  0  0  0  0  0
   40.8170   25.7380   34.5910 N   0  0  0  0  0  0  0  0  0  0  0  0
   41.1190   24.5600   35.1460 C   0  0  0  0  0  0  0  0  0  0  0  0
   40.1240   23.9090   35.5600 O   0  0  0  0  0  0  0  0  0  0  0  0
   41.2910   20.6650   38.2960 H   0  0  0  0  0  0  0  0  0  0  0  0
   40.8420   22.8610   37.3690 H   0  0  0  0  0  0  0  0  0  0  0  0
   44.5740   20.2180   35.6410 H   0  0  0  0  0  0  0  0  0  0  0  0
   44.3660   24.4010   34.9170 H   0  0  0  0  0  0  0  0  0  0  0  0
   44.0020   26.6010   33.8590 H   0  0  0  0  0  0  0  0  0  0  0  0
   39.4800   26.2230   34.4790 C   0  0  0  0  0  0  0  0  0  0  0  0
   39.1140   27.0760   35.5210 C   0  0  0  0  0  0  0  0  0  0  0  0
   39.7710   27.3450   36.3320 H   0  0  0  0  0  0  0  0  0  0  0  0
   37.8400   27.6110   35.5210 C   0  0  0  0  0  0  0  0  0  0  0  0
   37.5100   28.2800   36.3130 H   0  0  0  0  0  0  0  0  0  0  0  0
   37.0260   27.2500   34.4780 C   0  0  0  0  0  3  0  0  0  0  0  0
   37.3810   26.4070   33.4440 C   0  0  0  0  0  3  0  0  0  0  0  0
   38.6460   25.8970   33.4730 N   0  0  0  0  0  0  0  0  0  0  0  0
  1 15  1  0  0  0  0
  2 16  1  0  0  0  0
  2  1  2  0  0  0  0
  3  2  1  0  0  0  0
  4  3  2  0  0  0  0
  4  5  1  0  0  0  0
  5  6  2  0  0  0  0
  6  1  1  0  0  0  0
  7  3  1  0  0  0  0
  8 18  1  0  0  0  0
  8  7  1  0  0  0  0
  9  8  2  0  0  0  0
 10  9  1  0  0  0  0
 10 12  1  0  0  0  0
 11 10  2  0  0  0  0
 12 13  1  0  0  0  0
 13  7  1  0  0  0  0
 13 14  2  0  0  0  0
 17  5  1  0  0  0  0
 19  9  1  0  0  0  0
 20 12  1  0  0  0  0
 20 21  1  0  0  0  0
 21 22  1  0  0  0  0
 23 21  2  0  0  0  0
 23 24  1  0  0  0  0
 25 23  1  0  0  0  0
 26 27  1  0  0  0  0
 26 25  2  0  0  0  0
 27 20  2  0  0  0  0
M  END
>  <minimizedAffinity>
-4.90620899

$$$$

 OpenBabel03272505243D

 27 29  0  0  0  0  0  0  0  0999 V2000
   35.6550   29.9950   34.4830 C   0  0  0  0  0  0  0  0  0  0  0  0
   36.0190   28.6300   34.3400 C   0  0  0  0  0  0  0  0  0  0  0  0
   36.2960   28.1410   33.0580 C   0  0  0  0  0  0  0  0  0  0  0  0
   36.1990   28.9990   32.0270 N   0  0  0  0  0  0  0  0  0  0  0  0
   35.8520   30.2970   32.1600 C   0  0  0  0  0  0  0  0  0  0  0  0
   35.5820   30.7850   33.3990 N   0  0  0  0  0  0  0  0  0  0  0  0
   36.6660   26.7960   32.8550 N   0  0  0  0  0  0  0  0  0  0  0  0
   36.3240   26.1290   31.7350 C   0  0  0  0  0  0  0  0  0  0  0  0
   36.6880   24.8000   31.5430 C   0  0  0  0  0  0  0  0  0  0  0  0
   37.4290   24.1710   32.5600 C   0  0  0  0  0  0  0  0  0  0  0  0
   37.7790   22.9770   32.4350 O   0  0  0  0  0  0  0  0  0  0  0  0
   37.7680   24.8630   33.6910 N   0  0  0  0  0  0  0  0  0  0  0  0
   37.3640   26.1340   33.7650 C   0  0  0  0  0  0  0  0  0  0  0  0
   37.7040   26.7290   34.8210 O   0  0  0  0  0  0  0  0  0  0  0  0
   35.4270   30.4450   35.4370 H   0  0  0  0  0  0  0  0  0  0  0  0
   36.0300   28.1000   35.2670 H   0  0  0  0  0  0  0  0  0  0  0  0
   35.8200   30.8490   31.2290 H   0  0  0  0  0  0  0  0  0  0  0  0
   35.7630   26.6070   30.9660 H   0  0  0  0  0  0  0  0  0  0  0  0
   36.4220   24.2490   30.6510 H   0  0  0  0  0  0  0  0  0  0  0  0
   38.5180   24.2260   34.7230 C   0  0  0  0  0  0  0  0  0  0  0  0
   39.8990   24.3310   34.5450 C   0  0  0  0  0  0  0  0  0  0  0  0
   40.3570   24.8400   33.7130 H   0  0  0  0  0  0  0  0  0  0  0  0
   40.7330   23.7520   35.4840 C   0  0  0  0  0  0  0  0  0  0  0  0
   41.8140   23.8080   35.3860 H   0  0  0  0  0  0  0  0  0  0  0  0
   40.1210   23.1100   36.5300 C   0  0  0  0  0  3  0  0  0  0  0  0
   38.7570   23.0030   36.7120 C   0  0  0  0  0  3  0  0  0  0  0  0
   37.9630   23.5850   35.7690 N   0  0  0  0  0  0  0  0  0  0  0  0
  1 15  1  0  0  0  0
  2  1  1  0  0  0  0
  2 16  1  0  0  0  0
  3  2  2  0  0  0  0
  4  5  2  0  0  0  0
  4  3  1  0  0  0  0
  5  6  1  0  0  0  0
  6  1  2  0  0  0  0
  7  3  1  0  0  0  0
  7 13  1  0  0  0  0
  8  7  1  0  0  0  0
  9  8  2  0  0  0  0
  9 10  1  0  0  0  0
 10 12  1  0  0  0  0
 11 10  2  0  0  0  0
 12 13  1  0  0  0  0
 12 20  1  0  0  0  0
 13 14  2  0  0  0  0
 17  5  1  0  0  0  0
 18  8  1  0  0  0  0
 19  9  1  0  0  0  0
 20 27  1  0  0  0  0
 21 20  2  0  0  0  0
 21 23  1  0  0  0  0
 22 21  1  0  0  0  0
 23 25  2  0  0  0  0
 24 23  1  0  0  0  0
 25 26  1  0  0  0  0
 27 26  2  0  0  0  0
M  END
>  <minimizedAffinity>
-4.83923483

$$$$

 OpenBabel03272505243D

 27 29  0  0  0  0  0  0  0  0999 V2000
   39.6960   27.5040   31.1830 C   0  0  0  0  0  0  0  0  0  0  0  0
   39.1580   26.5220   32.0570 C   0  0  0  0  0  0  0  0  0  0  0  0
   38.9090   25.2400   31.5530 C   0  0  0  0  0  0  0  0  0  0  0  0
   39.1950   25.0110   30.2580 N   0  0  0  0  0  0  0  0  0  0  0  0
   39.7050   25.9430   29.4250 C   0  0  0  0  0  0  0  0  0  0  0  0
   39.9530   27.1910   29.9020 N   0  0  0  0  0  0  0  0  0  0  0  0
   38.3810   24.2230   32.3730 N   0  0  0  0  0  0  0  0  0  0  0  0
   37.5580   23.2750   31.8840 C   0  0  0  0  0  0  0  0  0  0  0  0
   37.0350   22.2780   32.7000 C   0  0  0  0  0  0  0  0  0  0  0  0
   37.3940   22.2900   34.0600 C   0  0  0  0  0  0  0  0  0  0  0  0
   36.9500   21.4150   34.8350 O   0  0  0  0  0  0  0  0  0  0  0  0
   38.2310   23.2600   34.5410 N   0  0  0  0  0  0  0  0  0  0  0  0
   38.6720   24.1660   33.6630 C   0  0  0  0  0  0  0  0  0  0  0  0
   39.4410   25.0340   34.1530 O   0  0  0  0  0  0  0  0  0  0  0  0
   39.9140   28.5130   31.4980 H   0  0  0  0  0  0  0  0  0  0  0  0
   38.9840   26.8900   33.0440 H   0  0  0  0  0  0  0  0  0  0  0  0
   39.8750   25.5940   28.4140 H   0  0  0  0  0  0  0  0  0  0  0  0
   37.2870   23.2670   30.8540 H   0  0  0  0  0  0  0  0  0  0  0  0
   36.3730   21.5090   32.3250 H   0  0  0  0  0  0  0  0  0  0  0  0
   38.5960   23.2730   35.9200 C   0  0  0  0  0  0  0  0  0  0  0  0
   37.7230   24.0190   36.7130 C   0  0  0  0  0  0  0  0  0  0  0  0
   36.8580   24.5350   36.3280 H   0  0  0  0  0  0  0  0  0  0  0  0
   37.9720   24.1070   38.0700 C   0  0  0  0  0  0  0  0  0  0  0  0
   37.3200   24.6770   38.7260 H   0  0  0  0  0  0  0  0  0  0  0  0
   39.0790   23.4410   38.5310 C   0  0  0  0  0  3  0  0  0  0  0  0
   39.9460   22.7020   37.7520 C   0  0  0  0  0  3  0  0  0  0  0  0
   39.6710   22.6350   36.4180 N   0  0  0  0  0  0  0  0  0  0  0  0
  1 15  1  0  0  0  0
  1  2  1  0  0  0  0
  2 16  1  0  0  0  0
  3  2  2  0  0  0  0
  3  7  1  0  0  0  0
  4  3  1  0  0  0  0
  5  6  1  0  0  0  0
  5  4  2  0  0  0  0
  6  1  2  0  0  0  0
  7 13  1  0  0  0  0
  8  7  1  0  0  0  0
  8  9  2  0  0  0  0
  9 10  1  0  0  0  0
 10 12  1  0  0  0  0
 10 11  2  0  0  0  0
 12 20  1  0  0  0  0
 13 14  2  0  0  0  0
 13 12  1  0  0  0  0
 17  5  1  0  0  0  0
 18  8  1  0  0  0  0
 19  9  1  0  0  0  0
 20 27  2  0  0  0  0
 20 21  1  0  0  0  0
 21 23  2  0  0  0  0
 22 21  1  0  0  0  0
 23 25  1  0  0  0  0
 23 24  1  0  0  0  0
 26 25  2  0  0  0  0
 27 26  1  0  0  0  0
M  END
>  <minimizedAffinity>
-4.80125141

$$$$
