
 OpenBabel03262521363D

 36 39  0  0  1  0  0  0  0  0999 V2000
   37.9180   25.2130   31.9890 C   0  0  1  0  0  0  0  0  0  0  0  0
   37.6620   26.1740   33.0700 C   0  0  2  0  0  0  0  0  0  0  0  0
   38.1040   27.5070   32.4580 C   0  0  0  0  0  0  0  0  0  0  0  0
   39.2320   27.1290   31.7800 O   0  0  0  0  0  0  0  0  0  0  0  0
   39.0690   25.8690   31.2390 C   0  0  0  0  0  0  0  0  0  0  0  0
   37.0720   25.1820   31.2870 H   0  0  0  0  0  0  0  0  0  0  0  0
   36.5680   26.2860   33.2170 H   0  0  0  0  0  0  0  0  0  0  0  0
   37.3440   27.9000   31.7670 H   0  0  0  0  0  0  0  0  0  0  0  0
   38.3800   28.2190   33.2540 H   0  0  0  0  0  0  0  0  0  0  0  0
   39.9890   25.2860   31.4230 H   0  0  0  0  0  0  0  0  0  0  0  0
   38.8930   25.9040   30.1550 H   0  0  0  0  0  0  0  0  0  0  0  0
   37.6120   25.4140   35.5740 C   0  0  1  0  0  0  0  0  0  0  0  0
   37.8550   26.8310   35.5080 C   0  0  0  0  0  0  0  0  0  0  0  0
   38.4000   25.9410   34.3740 C   0  0  2  0  0  0  0  0  0  0  0  0
   36.6530   24.9580   35.2190 H   0  0  0  0  0  0  0  0  0  0  0  0
   38.6200   27.2620   36.2020 H   0  0  0  0  0  0  0  0  0  0  0  0
   37.0380   27.5210   35.3100 H   0  0  0  0  0  0  0  0  0  0  0  0
   39.4810   25.8090   34.3430 H   0  0  0  0  0  0  0  0  0  0  0  0
   38.8180   23.3990   38.4880 C   0  0  0  0  0  0  0  0  0  0  0  0
   38.0400   24.2630   37.7300 C   0  0  0  0  0  0  0  0  0  0  0  0
   38.4010   24.4920   36.4140 C   0  0  0  0  0  0  0  0  0  0  0  0
   39.5150   23.8480   35.9250 N   0  0  0  0  0  0  0  0  0  0  0  0
   40.2630   23.0080   36.6800 C   0  0  0  0  0  0  0  0  0  0  0  0
   39.9110   22.7770   37.9840 N   0  0  0  0  0  0  0  0  0  0  0  0
   38.4920   23.2530   39.5130 H   0  0  0  0  0  0  0  0  0  0  0  0
   37.1660   24.7790   38.0910 H   0  0  0  0  0  0  0  0  0  0  0  0
   41.1230   22.5450   36.2120 H   0  0  0  0  0  0  0  0  0  0  0  0
   38.3080   23.9420   32.4150 O   0  0  0  0  0  0  0  0  0  0  0  0
   37.3070   22.9550   32.5260 C   0  0  0  0  0  0  0  0  0  0  0  0
   36.2910   22.8030   31.6070 C   0  0  0  0  0  0  0  0  0  0  0  0
   36.2370   23.4560   30.7620 H   0  0  0  0  0  0  0  0  0  0  0  0
   35.3110   21.8400   31.7090 C   0  0  0  0  0  0  0  0  0  0  0  0
   34.5250   21.7610   30.9530 H   0  0  0  0  0  0  0  0  0  0  0  0
   35.3300   20.9730   32.7790 C   0  0  0  0  0  3  0  0  0  0  0  0
   36.3500   21.1440   33.6790 C   0  0  0  0  0  3  0  0  0  0  0  0
   37.2850   22.0860   33.5530 N   0  0  0  0  0  0  0  0  0  0  0  0
  1  6  1  6  0  0  0
  1 28  1  0  0  0  0
  1  2  1  0  0  0  0
  2  7  1  1  0  0  0
  2 14  1  0  0  0  0
  3  2  1  0  0  0  0
  3  9  1  0  0  0  0
  4  3  1  0  0  0  0
  5 10  1  0  0  0  0
  5  4  1  0  0  0  0
  5  1  1  0  0  0  0
  8  3  1  0  0  0  0
 11  5  1  0  0  0  0
 12 15  1  6  0  0  0
 12 21  1  0  0  0  0
 13 12  1  0  0  0  0
 13 16  1  0  0  0  0
 14 18  1  6  0  0  0
 14 13  1  0  0  0  0
 14 12  1  0  0  0  0
 17 13  1  0  0  0  0
 19 25  1  0  0  0  0
 20 26  1  0  0  0  0
 20 19  2  0  0  0  0
 21 20  1  0  0  0  0
 22 21  2  0  0  0  0
 22 23  1  0  0  0  0
 23 24  2  0  0  0  0
 24 19  1  0  0  0  0
 27 23  1  0  0  0  0
 28 29  1  0  0  0  0
 29 36  1  0  0  0  0
 30 32  1  0  0  0  0
 30 29  2  0  0  0  0
 31 30  1  0  0  0  0
 32 34  2  0  0  0  0
 33 32  1  0  0  0  0
 34 35  1  0  0  0  0
 36 35  2  0  0  0  0
M  END
>  <minimizedAffinity>
-5.17341423

$$$$

 OpenBabel03262521363D

 36 39  0  0  1  0  0  0  0  0999 V2000
   38.0260   26.1750   34.7920 C   0  0  1  0  0  0  0  0  0  0  0  0
   38.3230   25.9670   33.3680 C   0  0  2  0  0  0  0  0  0  0  0  0
   38.0700   27.3500   32.7590 C   0  0  0  0  0  0  0  0  0  0  0  0
   36.9490   27.7420   33.4400 O   0  0  0  0  0  0  0  0  0  0  0  0
   37.0010   27.3010   34.7470 C   0  0  0  0  0  0  0  0  0  0  0  0
   38.9020   26.5780   35.3190 H   0  0  0  0  0  0  0  0  0  0  0  0
   39.4120   25.8020   33.2370 H   0  0  0  0  0  0  0  0  0  0  0  0
   38.9090   28.0330   32.9580 H   0  0  0  0  0  0  0  0  0  0  0  0
   37.8300   27.2550   31.6860 H   0  0  0  0  0  0  0  0  0  0  0  0
   36.0120   26.8900   35.0200 H   0  0  0  0  0  0  0  0  0  0  0  0
   37.2430   28.1110   35.4480 H   0  0  0  0  0  0  0  0  0  0  0  0
   38.0580   23.5200   32.4810 C   0  0  1  0  0  0  0  0  0  0  0  0
   38.1850   24.4220   31.3670 C   0  0  0  0  0  0  0  0  0  0  0  0
   37.4880   24.9300   32.6450 C   0  0  2  0  0  0  0  0  0  0  0  0
   38.8860   23.3650   33.2170 H   0  0  0  0  0  0  0  0  0  0  0  0
   37.5210   24.2550   30.4810 H   0  0  0  0  0  0  0  0  0  0  0  0
   39.1590   24.8190   31.0880 H   0  0  0  0  0  0  0  0  0  0  0  0
   36.4110   25.0840   32.5770 H   0  0  0  0  0  0  0  0  0  0  0  0
   35.2200   21.2410   31.6140 C   0  0  0  0  0  0  0  0  0  0  0  0
   36.1890   22.2260   31.4870 C   0  0  0  0  0  0  0  0  0  0  0  0
   37.0220   22.4720   32.5640 C   0  0  0  0  0  0  0  0  0  0  0  0
   36.8430   21.7260   33.7070 N   0  0  0  0  0  0  0  0  0  0  0  0
   35.8910   20.7690   33.8130 C   0  0  0  0  0  0  0  0  0  0  0  0
   35.0630   20.5180   32.7500 N   0  0  0  0  0  0  0  0  0  0  0  0
   34.5930   21.0850   30.7420 H   0  0  0  0  0  0  0  0  0  0  0  0
   36.3450   22.8230   30.6050 H   0  0  0  0  0  0  0  0  0  0  0  0
   35.8240   20.2310   34.7510 H   0  0  0  0  0  0  0  0  0  0  0  0
   37.4710   25.0700   35.4410 O   0  0  0  0  0  0  0  0  0  0  0  0
   38.3180   24.3080   36.2720 C   0  0  0  0  0  0  0  0  0  0  0  0
   38.0760   24.1050   37.6140 C   0  0  0  0  0  0  0  0  0  0  0  0
   37.2120   24.5400   38.0700 H   0  0  0  0  0  0  0  0  0  0  0  0
   38.8990   23.3610   38.4300 C   0  0  0  0  0  0  0  0  0  0  0  0
   38.6630   23.2300   39.4900 H   0  0  0  0  0  0  0  0  0  0  0  0
   40.0280   22.7800   37.8960 C   0  0  0  0  0  3  0  0  0  0  0  0
   40.2460   22.9960   36.5600 C   0  0  0  0  0  3  0  0  0  0  0  0
   39.4310   23.7220   35.7950 N   0  0  0  0  0  0  0  0  0  0  0  0
  1  6  1  1  0  0  0
  1 28  1  0  0  0  0
  2  7  1  6  0  0  0
  2  1  1  0  0  0  0
  3  8  1  0  0  0  0
  3  2  1  0  0  0  0
  3  4  1  0  0  0  0
  4  5  1  0  0  0  0
  5  1  1  0  0  0  0
  5 10  1  0  0  0  0
  5 11  1  0  0  0  0
  9  3  1  0  0  0  0
 12 21  1  0  0  0  0
 12 14  1  0  0  0  0
 12 15  1  1  0  0  0
 13 12  1  0  0  0  0
 13 14  1  0  0  0  0
 14 18  1  6  0  0  0
 14  2  1  0  0  0  0
 16 13  1  0  0  0  0
 17 13  1  0  0  0  0
 19 24  1  0  0  0  0
 20 19  2  0  0  0  0
 20 21  1  0  0  0  0
 21 22  2  0  0  0  0
 22 23  1  0  0  0  0
 23 27  1  0  0  0  0
 24 23  2  0  0  0  0
 25 19  1  0  0  0  0
 26 20  1  0  0  0  0
 28 29  1  0  0  0  0
 29 30  1  0  0  0  0
 30 31  1  0  0  0  0
 30 32  2  0  0  0  0
 32 33  1  0  0  0  0
 34 32  1  0  0  0  0
 35 34  2  0  0  0  0
 36 29  2  0  0  0  0
 36 35  1  0  0  0  0
M  END
>  <minimizedAffinity>
-5.08155298

$$$$

 OpenBabel03262521363D

 36 39  0  0  1  0  0  0  0  0999 V2000
   38.3870   23.2970   34.9830 C   0  0  1  0  0  0  0  0  0  0  0  0
   38.6730   24.4650   35.8270 C   0  0  2  0  0  0  0  0  0  0  0  0
   38.4810   23.9190   37.2460 C   0  0  0  0  0  0  0  0  0  0  0  0
   37.3790   23.1240   37.0800 O   0  0  0  0  0  0  0  0  0  0  0  0
   37.4130   22.5050   35.8460 C   0  0  0  0  0  0  0  0  0  0  0  0
   39.2820   22.6680   34.8730 H   0  0  0  0  0  0  0  0  0  0  0  0
   39.7540   24.7100   35.7690 H   0  0  0  0  0  0  0  0  0  0  0  0
   39.3490   23.3260   37.5660 H   0  0  0  0  0  0  0  0  0  0  0  0
   38.2350   24.7420   37.9400 H   0  0  0  0  0  0  0  0  0  0  0  0
   36.4080   22.5680   35.3930 H   0  0  0  0  0  0  0  0  0  0  0  0
   37.6920   21.4460   35.9220 H   0  0  0  0  0  0  0  0  0  0  0  0
   38.2700   26.7770   34.6700 C   0  0  1  0  0  0  0  0  0  0  0  0
   38.4910   26.9790   36.0780 C   0  0  0  0  0  0  0  0  0  0  0  0
   37.7910   25.6820   35.6240 C   0  0  2  0  0  0  0  0  0  0  0  0
   39.0630   26.3650   33.9960 H   0  0  0  0  0  0  0  0  0  0  0  0
   37.8440   27.7240   36.6060 H   0  0  0  0  0  0  0  0  0  0  0  0
   39.4970   26.9360   36.4880 H   0  0  0  0  0  0  0  0  0  0  0  0
   36.7310   25.6000   35.8580 H   0  0  0  0  0  0  0  0  0  0  0  0
   35.8590   27.6580   31.9470 C   0  0  0  0  0  0  0  0  0  0  0  0
   36.9000   27.0310   32.6170 C   0  0  0  0  0  0  0  0  0  0  0  0
   37.1630   27.4060   33.9230 C   0  0  0  0  0  0  0  0  0  0  0  0
   36.3760   28.3830   34.4890 N   0  0  0  0  0  0  0  0  0  0  0  0
   35.3640   28.9840   33.8190 C   0  0  0  0  0  0  0  0  0  0  0  0
   35.0970   28.6170   32.5260 N   0  0  0  0  0  0  0  0  0  0  0  0
   35.6930   27.3280   30.9260 H   0  0  0  0  0  0  0  0  0  0  0  0
   37.5300   26.2670   32.1930 H   0  0  0  0  0  0  0  0  0  0  0  0
   34.7960   29.7430   34.3440 H   0  0  0  0  0  0  0  0  0  0  0  0
   37.7850   23.5940   33.7590 O   0  0  0  0  0  0  0  0  0  0  0  0
   37.4800   22.5150   32.9030 C   0  0  0  0  0  0  0  0  0  0  0  0
   36.2840   22.4010   32.2280 C   0  0  0  0  0  0  0  0  0  0  0  0
   35.5340   23.1550   32.3450 H   0  0  0  0  0  0  0  0  0  0  0  0
   35.9810   21.3510   31.3900 C   0  0  0  0  0  0  0  0  0  0  0  0
   35.0160   21.3070   30.8770 H   0  0  0  0  0  0  0  0  0  0  0  0
   36.9090   20.3510   31.2040 C   0  0  0  0  0  3  0  0  0  0  0  0
   38.0910   20.4860   31.8870 C   0  0  0  0  0  3  0  0  0  0  0  0
   38.3550   21.5150   32.6910 N   0  0  0  0  0  0  0  0  0  0  0  0
  1  6  1  6  0  0  0
  1  2  1  0  0  0  0
  1  5  1  0  0  0  0
  2  7  1  6  0  0  0
  2  3  1  0  0  0  0
  3  8  1  0  0  0  0
  3  9  1  0  0  0  0
  4  3  1  0  0  0  0
  5 11  1  0  0  0  0
  5  4  1  0  0  0  0
 10  5  1  0  0  0  0
 12 15  1  6  0  0  0
 12 14  1  0  0  0  0
 12 13  1  0  0  0  0
 13 17  1  0  0  0  0
 13 16  1  0  0  0  0
 14  2  1  0  0  0  0
 14 18  1  1  0  0  0
 14 13  1  0  0  0  0
 19 24  2  0  0  0  0
 19 20  1  0  0  0  0
 20 21  2  0  0  0  0
 21 22  1  0  0  0  0
 21 12  1  0  0  0  0
 23 27  1  0  0  0  0
 23 22  2  0  0  0  0
 24 23  1  0  0  0  0
 25 19  1  0  0  0  0
 26 20  1  0  0  0  0
 28  1  1  0  0  0  0
 29 28  1  0  0  0  0
 30 31  1  0  0  0  0
 30 29  2  0  0  0  0
 32 30  1  0  0  0  0
 33 32  1  0  0  0  0
 34 32  2  0  0  0  0
 34 35  1  0  0  0  0
 35 36  2  0  0  0  0
 36 29  1  0  0  0  0
M  END
>  <minimizedAffinity>
-5.0608983

$$$$

 OpenBabel03262521363D

 36 39  0  0  1  0  0  0  0  0999 V2000
   37.8730   25.4820   34.2360 C   0  0  1  0  0  0  0  0  0  0  0  0
   37.9210   25.4930   35.7050 C   0  0  2  0  0  0  0  0  0  0  0  0
   38.1630   26.9710   36.0290 C   0  0  0  0  0  0  0  0  0  0  0  0
   39.0600   27.3160   35.0540 O   0  0  0  0  0  0  0  0  0  0  0  0
   38.7640   26.6630   33.8740 C   0  0  0  0  0  0  0  0  0  0  0  0
   36.8650   25.7350   33.8770 H   0  0  0  0  0  0  0  0  0  0  0  0
   36.9100   25.2830   36.1120 H   0  0  0  0  0  0  0  0  0  0  0  0
   37.2370   27.5570   35.9360 H   0  0  0  0  0  0  0  0  0  0  0  0
   38.6440   27.0700   37.0180 H   0  0  0  0  0  0  0  0  0  0  0  0
   39.7040   26.2760   33.4410 H   0  0  0  0  0  0  0  0  0  0  0  0
   38.2930   27.3290   33.1390 H   0  0  0  0  0  0  0  0  0  0  0  0
   38.7960   23.1290   36.4060 C   0  0  1  0  0  0  0  0  0  0  0  0
   38.4590   23.8840   37.5850 C   0  0  0  0  0  0  0  0  0  0  0  0
   38.9950   24.6450   36.3550 C   0  0  2  0  0  0  0  0  0  0  0  0
   38.0250   22.8290   35.6520 H   0  0  0  0  0  0  0  0  0  0  0  0
   39.1520   23.8210   38.4610 H   0  0  0  0  0  0  0  0  0  0  0  0
   37.4200   24.0030   37.8830 H   0  0  0  0  0  0  0  0  0  0  0  0
   40.0000   25.0570   36.4460 H   0  0  0  0  0  0  0  0  0  0  0  0
   41.9450   21.2620   37.1790 C   0  0  0  0  0  0  0  0  0  0  0  0
   40.7540   21.9490   37.3690 C   0  0  0  0  0  0  0  0  0  0  0  0
   40.0590   22.3820   36.2540 C   0  0  0  0  0  0  0  0  0  0  0  0
   40.5880   22.1090   35.0120 N   0  0  0  0  0  0  0  0  0  0  0  0
   41.7530   21.4380   34.8470 C   0  0  0  0  0  0  0  0  0  0  0  0
   42.4460   21.0040   35.9470 N   0  0  0  0  0  0  0  0  0  0  0  0
   42.4510   20.9420   38.0850 H   0  0  0  0  0  0  0  0  0  0  0  0
   40.3230   22.1760   38.3290 H   0  0  0  0  0  0  0  0  0  0  0  0
   42.0930   21.2670   33.8320 H   0  0  0  0  0  0  0  0  0  0  0  0
   38.3780   24.3230   33.6440 O   0  0  0  0  0  0  0  0  0  0  0  0
   37.4760   23.5120   32.9240 C   0  0  0  0  0  0  0  0  0  0  0  0
   36.6700   23.9910   31.9140 C   0  0  0  0  0  0  0  0  0  0  0  0
   36.7110   25.0260   31.6470 H   0  0  0  0  0  0  0  0  0  0  0  0
   35.7890   23.2040   31.2060 C   0  0  0  0  0  0  0  0  0  0  0  0
   35.1700   23.6330   30.4130 H   0  0  0  0  0  0  0  0  0  0  0  0
   35.6920   21.8640   31.5100 C   0  0  0  0  0  3  0  0  0  0  0  0
   36.5030   21.4110   32.5180 C   0  0  0  0  0  3  0  0  0  0  0  0
   37.3480   22.1980   33.1850 N   0  0  0  0  0  0  0  0  0  0  0  0
  1  6  1  6  0  0  0
  1  2  1  0  0  0  0
  2  3  1  0  0  0  0
  2  7  1  1  0  0  0
  2 14  1  0  0  0  0
  3  9  1  0  0  0  0
  4  3  1  0  0  0  0
  5  1  1  0  0  0  0
  5  4  1  0  0  0  0
  8  3  1  0  0  0  0
 10  5  1  0  0  0  0
 11  5  1  0  0  0  0
 12 15  1  6  0  0  0
 12 13  1  0  0  0  0
 13 17  1  0  0  0  0
 13 16  1  0  0  0  0
 14 12  1  0  0  0  0
 14 18  1  1  0  0  0
 14 13  1  0  0  0  0
 19 20  1  0  0  0  0
 19 25  1  0  0  0  0
 20 26  1  0  0  0  0
 21 12  1  0  0  0  0
 21 20  2  0  0  0  0
 22 21  1  0  0  0  0
 23 22  2  0  0  0  0
 23 24  1  0  0  0  0
 24 19  2  0  0  0  0
 27 23  1  0  0  0  0
 28  1  1  0  0  0  0
 29 36  1  0  0  0  0
 29 28  1  0  0  0  0
 30 29  2  0  0  0  0
 31 30  1  0  0  0  0
 32 34  2  0  0  0  0
 32 30  1  0  0  0  0
 33 32  1  0  0  0  0
 34 35  1  0  0  0  0
 35 36  2  0  0  0  0
M  END
>  <minimizedAffinity>
-4.98590136

$$$$

 OpenBabel03262521363D

 36 39  0  0  1  0  0  0  0  0999 V2000
   37.3330   25.1460   32.4250 C   0  0  1  0  0  0  0  0  0  0  0  0
   37.3800   26.0040   33.6160 C   0  0  2  0  0  0  0  0  0  0  0  0
   37.5490   27.4060   33.0230 C   0  0  0  0  0  0  0  0  0  0  0  0
   38.4290   27.1610   32.0030 O   0  0  0  0  0  0  0  0  0  0  0  0
   38.1660   25.9360   31.4240 C   0  0  0  0  0  0  0  0  0  0  0  0
   36.3150   25.1040   32.0140 H   0  0  0  0  0  0  0  0  0  0  0  0
   36.3810   26.0260   34.0980 H   0  0  0  0  0  0  0  0  0  0  0  0
   36.5960   27.7930   32.6350 H   0  0  0  0  0  0  0  0  0  0  0  0
   38.0240   28.0770   33.7600 H   0  0  0  0  0  0  0  0  0  0  0  0
   39.1230   25.4080   31.2660 H   0  0  0  0  0  0  0  0  0  0  0  0
   37.6620   26.0360   30.4530 H   0  0  0  0  0  0  0  0  0  0  0  0
   38.2210   24.7720   35.7660 C   0  0  1  0  0  0  0  0  0  0  0  0
   38.1200   26.1830   36.0320 C   0  0  0  0  0  0  0  0  0  0  0  0
   38.4950   25.7300   34.6060 C   0  0  2  0  0  0  0  0  0  0  0  0
   37.3240   24.1460   35.5290 H   0  0  0  0  0  0  0  0  0  0  0  0
   38.9390   26.6630   36.6240 H   0  0  0  0  0  0  0  0  0  0  0  0
   37.1500   26.6400   36.2170 H   0  0  0  0  0  0  0  0  0  0  0  0
   39.5230   25.9180   34.2980 H   0  0  0  0  0  0  0  0  0  0  0  0
   41.6220   23.2120   35.7120 C   0  0  0  0  0  0  0  0  0  0  0  0
   40.5420   24.0020   35.3460 C   0  0  0  0  0  0  0  0  0  0  0  0
   39.4000   23.9600   36.1260 C   0  0  0  0  0  0  0  0  0  0  0  0
   39.3960   23.1340   37.2270 N   0  0  0  0  0  0  0  0  0  0  0  0
   40.4600   22.3690   37.5690 C   0  0  0  0  0  0  0  0  0  0  0  0
   41.5950   22.4060   36.8020 N   0  0  0  0  0  0  0  0  0  0  0  0
   42.4930   23.2810   35.0690 H   0  0  0  0  0  0  0  0  0  0  0  0
   40.5210   24.6530   34.4880 H   0  0  0  0  0  0  0  0  0  0  0  0
   40.3680   21.7490   38.4530 H   0  0  0  0  0  0  0  0  0  0  0  0
   37.8950   23.8780   32.5950 O   0  0  0  0  0  0  0  0  0  0  0  0
   37.0150   22.7780   32.6640 C   0  0  0  0  0  0  0  0  0  0  0  0
   36.0780   22.4980   31.6930 C   0  0  0  0  0  0  0  0  0  0  0  0
   35.9940   23.1330   30.8360 H   0  0  0  0  0  0  0  0  0  0  0  0
   35.2170   21.4250   31.7540 C   0  0  0  0  0  0  0  0  0  0  0  0
   34.4910   21.2460   30.9560 H   0  0  0  0  0  0  0  0  0  0  0  0
   35.2790   20.5750   32.8360 C   0  0  0  0  0  3  0  0  0  0  0  0
   36.2180   20.8750   33.7890 C   0  0  0  0  0  3  0  0  0  0  0  0
   37.0390   21.9220   33.7010 N   0  0  0  0  0  0  0  0  0  0  0  0
  1  6  1  6  0  0  0
  1 28  1  0  0  0  0
  1  2  1  0  0  0  0
  2  7  1  1  0  0  0
  2 14  1  0  0  0  0
  3  2  1  0  0  0  0
  3  9  1  0  0  0  0
  4  3  1  0  0  0  0
  5  4  1  0  0  0  0
  5  1  1  0  0  0  0
  8  3  1  0  0  0  0
 10  5  1  0  0  0  0
 11  5  1  0  0  0  0
 12 15  1  6  0  0  0
 12 13  1  0  0  0  0
 12 21  1  0  0  0  0
 13 17  1  0  0  0  0
 13 16  1  0  0  0  0
 14 18  1  6  0  0  0
 14 12  1  0  0  0  0
 14 13  1  0  0  0  0
 19 24  1  0  0  0  0
 20 19  2  0  0  0  0
 20 21  1  0  0  0  0
 21 22  2  0  0  0  0
 22 23  1  0  0  0  0
 23 27  1  0  0  0  0
 24 23  2  0  0  0  0
 25 19  1  0  0  0  0
 26 20  1  0  0  0  0
 28 29  1  0  0  0  0
 29 36  1  0  0  0  0
 30 32  1  0  0  0  0
 30 29  2  0  0  0  0
 31 30  1  0  0  0  0
 32 34  2  0  0  0  0
 33 32  1  0  0  0  0
 34 35  1  0  0  0  0
 36 35  2  0  0  0  0
M  END
>  <minimizedAffinity>
-4.94194984

$$$$

 OpenBabel03262521363D

 36 39  0  0  1  0  0  0  0  0999 V2000
   38.7930   27.4940   31.4730 C   0  0  1  0  0  0  0  0  0  0  0  0
   40.1560   27.3970   32.0130 C   0  0  2  0  0  0  0  0  0  0  0  0
   40.9870   27.0200   30.7830 C   0  0  0  0  0  0  0  0  0  0  0  0
   40.1550   26.1300   30.1590 O   0  0  0  0  0  0  0  0  0  0  0  0
   38.8380   26.5190   30.3040 C   0  0  0  0  0  0  0  0  0  0  0  0
   38.6170   28.4880   31.0370 H   0  0  0  0  0  0  0  0  0  0  0  0
   40.5180   28.4080   32.2930 H   0  0  0  0  0  0  0  0  0  0  0  0
   41.1750   27.8960   30.1450 H   0  0  0  0  0  0  0  0  0  0  0  0
   41.9110   26.5000   31.0920 H   0  0  0  0  0  0  0  0  0  0  0  0
   38.2350   25.6300   30.5620 H   0  0  0  0  0  0  0  0  0  0  0  0
   38.4320   26.9570   29.3820 H   0  0  0  0  0  0  0  0  0  0  0  0
   39.9760   26.7460   34.5410 C   0  0  1  0  0  0  0  0  0  0  0  0
   41.3620   26.8930   34.1820 C   0  0  0  0  0  0  0  0  0  0  0  0
   40.3790   26.3770   33.1120 C   0  0  2  0  0  0  0  0  0  0  0  0
   39.2610   27.6060   34.5170 H   0  0  0  0  0  0  0  0  0  0  0  0
   42.0880   26.1410   34.5830 H   0  0  0  0  0  0  0  0  0  0  0  0
   41.8010   27.8830   34.0810 H   0  0  0  0  0  0  0  0  0  0  0  0
   40.4760   25.3280   32.8360 H   0  0  0  0  0  0  0  0  0  0  0  0
   37.7880   24.5840   36.6720 C   0  0  0  0  0  0  0  0  0  0  0  0
   38.2380   25.6860   35.9590 C   0  0  0  0  0  0  0  0  0  0  0  0
   39.4510   25.5940   35.3000 C   0  0  0  0  0  0  0  0  0  0  0  0
   40.1500   24.4110   35.3890 N   0  0  0  0  0  0  0  0  0  0  0  0
   39.6960   23.3460   36.0910 C   0  0  0  0  0  0  0  0  0  0  0  0
   38.4940   23.4290   36.7450 N   0  0  0  0  0  0  0  0  0  0  0  0
   36.8310   24.7060   37.1700 H   0  0  0  0  0  0  0  0  0  0  0  0
   37.7090   26.6210   35.8780 H   0  0  0  0  0  0  0  0  0  0  0  0
   40.3130   22.4550   36.1050 H   0  0  0  0  0  0  0  0  0  0  0  0
   37.7840   27.1090   32.3580 O   0  0  0  0  0  0  0  0  0  0  0  0
   36.9680   26.0210   31.9840 C   0  0  0  0  0  0  0  0  0  0  0  0
   35.7990   26.1650   31.2670 C   0  0  0  0  0  0  0  0  0  0  0  0
   35.4740   27.1410   30.9710 H   0  0  0  0  0  0  0  0  0  0  0  0
   34.9990   25.1070   30.8980 C   0  0  0  0  0  0  0  0  0  0  0  0
   34.0800   25.2740   30.3290 H   0  0  0  0  0  0  0  0  0  0  0  0
   35.3680   23.8290   31.2560 C   0  0  0  0  0  3  0  0  0  0  0  0
   36.5330   23.7120   31.9690 C   0  0  0  0  0  3  0  0  0  0  0  0
   37.2880   24.7560   32.3110 N   0  0  0  0  0  0  0  0  0  0  0  0
  1  6  1  6  0  0  0
  1  2  1  0  0  0  0
  1 28  1  0  0  0  0
  2  7  1  1  0  0  0
  2 14  1  0  0  0  0
  3  9  1  0  0  0  0
  3  2  1  0  0  0  0
  4  5  1  0  0  0  0
  4  3  1  0  0  0  0
  5 10  1  0  0  0  0
  5  1  1  0  0  0  0
  8  3  1  0  0  0  0
 11  5  1  0  0  0  0
 12 15  1  1  0  0  0
 12 21  1  0  0  0  0
 13 12  1  0  0  0  0
 13 16  1  0  0  0  0
 14 18  1  6  0  0  0
 14 13  1  0  0  0  0
 14 12  1  0  0  0  0
 17 13  1  0  0  0  0
 19 24  1  0  0  0  0
 19 25  1  0  0  0  0
 20 19  2  0  0  0  0
 21 22  2  0  0  0  0
 21 20  1  0  0  0  0
 22 23  1  0  0  0  0
 23 27  1  0  0  0  0
 23 24  2  0  0  0  0
 26 20  1  0  0  0  0
 29 36  1  0  0  0  0
 29 28  1  0  0  0  0
 30 29  2  0  0  0  0
 31 30  1  0  0  0  0
 32 34  2  0  0  0  0
 32 30  1  0  0  0  0
 33 32  1  0  0  0  0
 34 35  1  0  0  0  0
 35 36  2  0  0  0  0
M  END
>  <minimizedAffinity>
-4.89735556

$$$$

 OpenBabel03262521363D

 36 39  0  0  1  0  0  0  0  0999 V2000
   37.3590   24.8880   31.8840 C   0  0  1  0  0  0  0  0  0  0  0  0
   37.7270   23.4700   31.9860 C   0  0  2  0  0  0  0  0  0  0  0  0
   36.6630   22.7760   31.1300 C   0  0  0  0  0  0  0  0  0  0  0  0
   35.5420   23.4850   31.4680 O   0  0  0  0  0  0  0  0  0  0  0  0
   35.8540   24.8170   31.6590 C   0  0  0  0  0  0  0  0  0  0  0  0
   37.7850   25.3370   30.9750 H   0  0  0  0  0  0  0  0  0  0  0  0
   38.6780   23.2920   31.4430 H   0  0  0  0  0  0  0  0  0  0  0  0
   36.8840   22.8790   30.0580 H   0  0  0  0  0  0  0  0  0  0  0  0
   36.5400   21.7270   31.4500 H   0  0  0  0  0  0  0  0  0  0  0  0
   35.3430   25.1710   32.5720 H   0  0  0  0  0  0  0  0  0  0  0  0
   35.5300   25.4430   30.8170 H   0  0  0  0  0  0  0  0  0  0  0  0
   39.0800   22.6330   34.0640 C   0  0  1  0  0  0  0  0  0  0  0  0
   38.4590   21.5090   33.4120 C   0  0  0  0  0  0  0  0  0  0  0  0
   37.7330   22.8690   33.3780 C   0  0  2  0  0  0  0  0  0  0  0  0
   39.8670   23.2500   33.5620 H   0  0  0  0  0  0  0  0  0  0  0  0
   37.9940   20.7230   34.0590 H   0  0  0  0  0  0  0  0  0  0  0  0
   38.8840   21.1000   32.4990 H   0  0  0  0  0  0  0  0  0  0  0  0
   36.8300   22.9470   33.9830 H   0  0  0  0  0  0  0  0  0  0  0  0
   39.9870   22.7030   37.6930 C   0  0  0  0  0  0  0  0  0  0  0  0
   40.0860   22.4850   36.3260 C   0  0  0  0  0  0  0  0  0  0  0  0
   39.0250   22.8590   35.5210 C   0  0  0  0  0  0  0  0  0  0  0  0
   37.9250   23.4300   36.1200 N   0  0  0  0  0  0  0  0  0  0  0  0
   37.8460   23.6350   37.4570 C   0  0  0  0  0  0  0  0  0  0  0  0
   38.8940   23.2670   38.2610 N   0  0  0  0  0  0  0  0  0  0  0  0
   40.8460   22.3930   38.2810 H   0  0  0  0  0  0  0  0  0  0  0  0
   40.9350   22.0380   35.8370 H   0  0  0  0  0  0  0  0  0  0  0  0
   36.9410   24.0910   37.8410 H   0  0  0  0  0  0  0  0  0  0  0  0
   37.6200   25.6440   33.0280 O   0  0  0  0  0  0  0  0  0  0  0  0
   38.9040   26.2140   33.1560 C   0  0  0  0  0  0  0  0  0  0  0  0
   39.5720   26.3100   34.3580 C   0  0  0  0  0  0  0  0  0  0  0  0
   39.1120   25.9430   35.2520 H   0  0  0  0  0  0  0  0  0  0  0  0
   40.8260   26.8630   34.4880 C   0  0  0  0  0  0  0  0  0  0  0  0
   41.3140   26.9160   35.4660 H   0  0  0  0  0  0  0  0  0  0  0  0
   41.4630   27.3540   33.3700 C   0  0  0  0  0  3  0  0  0  0  0  0
   40.7790   27.2480   32.1870 C   0  0  0  0  0  3  0  0  0  0  0  0
   39.5650   26.7050   32.0920 N   0  0  0  0  0  0  0  0  0  0  0  0
  1  6  1  6  0  0  0
  1  2  1  0  0  0  0
  1 28  1  0  0  0  0
  2  7  1  6  0  0  0
  2 14  1  0  0  0  0
  3  9  1  0  0  0  0
  3  4  1  0  0  0  0
  3  2  1  0  0  0  0
  4  5  1  0  0  0  0
  5  1  1  0  0  0  0
  5 10  1  0  0  0  0
  8  3  1  0  0  0  0
 11  5  1  0  0  0  0
 12 15  1  6  0  0  0
 12 21  1  0  0  0  0
 13 16  1  0  0  0  0
 13 12  1  0  0  0  0
 14 13  1  0  0  0  0
 14 18  1  1  0  0  0
 14 12  1  0  0  0  0
 17 13  1  0  0  0  0
 19 24  1  0  0  0  0
 19 25  1  0  0  0  0
 20 19  2  0  0  0  0
 21 22  2  0  0  0  0
 21 20  1  0  0  0  0
 22 23  1  0  0  0  0
 23 27  1  0  0  0  0
 23 24  2  0  0  0  0
 26 20  1  0  0  0  0
 28 29  1  0  0  0  0
 29 30  1  0  0  0  0
 30 32  2  0  0  0  0
 30 31  1  0  0  0  0
 32 33  1  0  0  0  0
 34 32  1  0  0  0  0
 35 34  2  0  0  0  0
 36 35  1  0  0  0  0
 36 29  2  0  0  0  0
M  END
>  <minimizedAffinity>
-4.7474122

$$$$

 OpenBabel03262521363D

 36 39  0  0  1  0  0  0  0  0999 V2000
   37.7750   23.5800   33.7470 C   0  0  1  0  0  0  0  0  0  0  0  0
   37.7100   24.9680   33.2680 C   0  0  2  0  0  0  0  0  0  0  0  0
   36.9310   24.8410   31.9550 C   0  0  0  0  0  0  0  0  0  0  0  0
   37.4610   23.6910   31.4380 O   0  0  0  0  0  0  0  0  0  0  0  0
   37.7280   22.7870   32.4480 C   0  0  0  0  0  0  0  0  0  0  0  0
   36.8640   23.3160   34.3020 H   0  0  0  0  0  0  0  0  0  0  0  0
   37.0430   25.5580   33.9300 H   0  0  0  0  0  0  0  0  0  0  0  0
   35.8530   24.7280   32.1400 H   0  0  0  0  0  0  0  0  0  0  0  0
   37.1720   25.6860   31.2870 H   0  0  0  0  0  0  0  0  0  0  0  0
   38.7240   22.3420   32.2680 H   0  0  0  0  0  0  0  0  0  0  0  0
   36.9890   21.9760   32.4830 H   0  0  0  0  0  0  0  0  0  0  0  0
   39.6250   26.5330   34.1200 C   0  0  1  0  0  0  0  0  0  0  0  0
   38.8980   27.1950   33.0700 C   0  0  0  0  0  0  0  0  0  0  0  0
   39.0340   25.6600   33.0130 C   0  0  2  0  0  0  0  0  0  0  0  0
   39.1500   26.2680   35.0980 H   0  0  0  0  0  0  0  0  0  0  0  0
   39.4850   27.7670   32.3090 H   0  0  0  0  0  0  0  0  0  0  0  0
   37.9280   27.6450   33.2720 H   0  0  0  0  0  0  0  0  0  0  0  0
   39.6860   25.2650   32.2360 H   0  0  0  0  0  0  0  0  0  0  0  0
   43.2460   27.2340   33.4840 C   0  0  0  0  0  0  0  0  0  0  0  0
   41.8640   27.3390   33.4160 C   0  0  0  0  0  0  0  0  0  0  0  0
   41.0990   26.4680   34.1720 C   0  0  0  0  0  0  0  0  0  0  0  0
   41.7520   25.5400   34.9520 N   0  0  0  0  0  0  0  0  0  0  0  0
   43.1020   25.4520   35.0050 C   0  0  0  0  0  0  0  0  0  0  0  0
   43.8660   26.3120   34.2600 N   0  0  0  0  0  0  0  0  0  0  0  0
   43.8000   27.9400   32.8740 H   0  0  0  0  0  0  0  0  0  0  0  0
   41.3320   28.0540   32.8120 H   0  0  0  0  0  0  0  0  0  0  0  0
   43.5290   24.6910   35.6470 H   0  0  0  0  0  0  0  0  0  0  0  0
   38.9410   23.2560   34.4440 O   0  0  0  0  0  0  0  0  0  0  0  0
   38.9010   23.3260   35.8520 C   0  0  0  0  0  0  0  0  0  0  0  0
   37.8970   23.9650   36.5480 C   0  0  0  0  0  0  0  0  0  0  0  0
   37.1010   24.4410   36.0160 H   0  0  0  0  0  0  0  0  0  0  0  0
   37.8510   24.0350   37.9230 C   0  0  0  0  0  0  0  0  0  0  0  0
   37.0330   24.5540   38.4290 H   0  0  0  0  0  0  0  0  0  0  0  0
   38.8530   23.4410   38.6590 C   0  0  0  0  0  3  0  0  0  0  0  0
   39.8390   22.8120   37.9450 C   0  0  0  0  0  3  0  0  0  0  0  0
   39.8560   22.7610   36.6130 N   0  0  0  0  0  0  0  0  0  0  0  0
  1  6  1  1  0  0  0
  1 28  1  0  0  0  0
  2  1  1  0  0  0  0
  2  7  1  1  0  0  0
  3  8  1  0  0  0  0
  3  2  1  0  0  0  0
  4  3  1  0  0  0  0
  4  5  1  0  0  0  0
  5 11  1  0  0  0  0
  5  1  1  0  0  0  0
  9  3  1  0  0  0  0
 10  5  1  0  0  0  0
 12 21  1  0  0  0  0
 12 15  1  1  0  0  0
 13 17  1  0  0  0  0
 13 12  1  0  0  0  0
 14 18  1  6  0  0  0
 14 13  1  0  0  0  0
 14  2  1  0  0  0  0
 14 12  1  0  0  0  0
 16 13  1  0  0  0  0
 19 24  1  0  0  0  0
 20 19  2  0  0  0  0
 20 21  1  0  0  0  0
 21 22  2  0  0  0  0
 22 23  1  0  0  0  0
 23 27  1  0  0  0  0
 24 23  2  0  0  0  0
 25 19  1  0  0  0  0
 26 20  1  0  0  0  0
 28 29  1  0  0  0  0
 29 30  2  0  0  0  0
 29 36  1  0  0  0  0
 30 32  1  0  0  0  0
 31 30  1  0  0  0  0
 32 33  1  0  0  0  0
 32 34  2  0  0  0  0
 35 34  1  0  0  0  0
 36 35  2  0  0  0  0
M  END
>  <minimizedAffinity>
-4.7187438

$$$$

 OpenBabel03262521363D

 36 39  0  0  1  0  0  0  0  0999 V2000
   36.9640   22.1270   32.5980 C   0  0  1  0  0  0  0  0  0  0  0  0
   35.8570   22.7260   31.8410 C   0  0  2  0  0  0  0  0  0  0  0  0
   35.4100   21.5830   30.9230 C   0  0  0  0  0  0  0  0  0  0  0  0
   36.6150   21.0430   30.5620 O   0  0  0  0  0  0  0  0  0  0  0  0
   37.5000   21.0900   31.6210 C   0  0  0  0  0  0  0  0  0  0  0  0
   36.5850   21.5670   33.4650 H   0  0  0  0  0  0  0  0  0  0  0  0
   34.9920   22.8930   32.5160 H   0  0  0  0  0  0  0  0  0  0  0  0
   34.7990   20.8500   31.4680 H   0  0  0  0  0  0  0  0  0  0  0  0
   34.9100   21.9880   30.0270 H   0  0  0  0  0  0  0  0  0  0  0  0
   38.4810   21.4320   31.2450 H   0  0  0  0  0  0  0  0  0  0  0  0
   37.6350   20.1070   32.0920 H   0  0  0  0  0  0  0  0  0  0  0  0
   36.0540   25.3290   31.6570 C   0  0  1  0  0  0  0  0  0  0  0  0
   34.9640   24.8730   30.8360 C   0  0  0  0  0  0  0  0  0  0  0  0
   36.1870   23.9500   31.0090 C   0  0  2  0  0  0  0  0  0  0  0  0
   36.0470   25.2190   32.7710 H   0  0  0  0  0  0  0  0  0  0  0  0
   34.8410   25.3380   29.8260 H   0  0  0  0  0  0  0  0  0  0  0  0
   34.0120   24.6000   31.2880 H   0  0  0  0  0  0  0  0  0  0  0  0
   36.8240   23.8280   30.1340 H   0  0  0  0  0  0  0  0  0  0  0  0
   37.8150   28.4980   30.7300 C   0  0  0  0  0  0  0  0  0  0  0  0
   36.8270   27.6400   31.1910 C   0  0  0  0  0  0  0  0  0  0  0  0
   37.0810   26.2800   31.1890 C   0  0  0  0  0  0  0  0  0  0  0  0
   38.3040   25.8490   30.7280 N   0  0  0  0  0  0  0  0  0  0  0  0
   39.2570   26.7010   30.2800 C   0  0  0  0  0  0  0  0  0  0  0  0
   39.0130   28.0500   30.2810 N   0  0  0  0  0  0  0  0  0  0  0  0
   37.5670   29.5540   30.7530 H   0  0  0  0  0  0  0  0  0  0  0  0
   35.8620   27.9540   31.5540 H   0  0  0  0  0  0  0  0  0  0  0  0
   40.1910   26.2730   29.9360 H   0  0  0  0  0  0  0  0  0  0  0  0
   37.9870   23.0150   32.9390 O   0  0  0  0  0  0  0  0  0  0  0  0
   38.0540   23.4510   34.2790 C   0  0  0  0  0  0  0  0  0  0  0  0
   38.2180   24.7720   34.6350 C   0  0  0  0  0  0  0  0  0  0  0  0
   38.3030   25.5210   33.8760 H   0  0  0  0  0  0  0  0  0  0  0  0
   38.2830   25.2040   35.9410 C   0  0  0  0  0  0  0  0  0  0  0  0
   38.4140   26.2650   36.1730 H   0  0  0  0  0  0  0  0  0  0  0  0
   38.1820   24.2820   36.9600 C   0  0  0  0  0  3  0  0  0  0  0  0
   38.0200   22.9750   36.5800 C   0  0  0  0  0  3  0  0  0  0  0  0
   37.9600   22.5870   35.3060 N   0  0  0  0  0  0  0  0  0  0  0  0
  1 28  1  0  0  0  0
  1  6  1  1  0  0  0
  2  7  1  1  0  0  0
  2  1  1  0  0  0  0
  3  8  1  0  0  0  0
  3  2  1  0  0  0  0
  4  3  1  0  0  0  0
  4  5  1  0  0  0  0
  5 11  1  0  0  0  0
  5  1  1  0  0  0  0
  9  3  1  0  0  0  0
 10  5  1  0  0  0  0
 12 15  1  1  0  0  0
 13 14  1  0  0  0  0
 13 17  1  0  0  0  0
 13 12  1  0  0  0  0
 14 18  1  6  0  0  0
 14 12  1  0  0  0  0
 14  2  1  0  0  0  0
 16 13  1  0  0  0  0
 19 25  1  0  0  0  0
 19 20  1  0  0  0  0
 20 26  1  0  0  0  0
 21 20  2  0  0  0  0
 21 12  1  0  0  0  0
 22 21  1  0  0  0  0
 23 24  1  0  0  0  0
 23 22  2  0  0  0  0
 24 19  2  0  0  0  0
 27 23  1  0  0  0  0
 28 29  1  0  0  0  0
 29 30  2  0  0  0  0
 29 36  1  0  0  0  0
 30 32  1  0  0  0  0
 31 30  1  0  0  0  0
 32 33  1  0  0  0  0
 32 34  2  0  0  0  0
 35 34  1  0  0  0  0
 36 35  2  0  0  0  0
M  END
>  <minimizedAffinity>
-4.68480635

$$$$
