
 OpenBabel03272504213D

 38 40  0  0  1  0  0  0  0  0999 V2000
   38.8730   32.3700   47.8630 C   0  0  2  0  0  0  0  0  0  0  0  0
   38.1980   31.3690   48.7670 C   0  0  1  0  0  0  0  0  0  0  0  0
   38.6820   31.9410   50.1070 C   0  0  0  0  0  0  0  0  0  0  0  0
   38.3640   33.2780   49.9650 O   0  0  0  0  0  0  0  0  0  0  0  0
   38.6490   33.6560   48.6770 C   0  0  0  0  0  0  0  0  0  0  0  0
   39.9560   32.1930   47.7410 H   0  0  0  0  0  0  0  0  0  0  0  0
   38.5130   30.3370   48.6210 H   0  0  0  0  0  0  0  0  0  0  0  0
   39.7550   31.7620   50.2220 H   0  0  0  0  0  0  0  0  0  0  0  0
   38.1660   31.4940   50.9640 H   0  0  0  0  0  0  0  0  0  0  0  0
   37.8440   34.2700   48.2220 H   0  0  0  0  0  0  0  0  0  0  0  0
   39.5550   34.2910   48.6860 H   0  0  0  0  0  0  0  0  0  0  0  0
   36.8380   31.5830   48.6570 O   0  0  0  0  0  0  0  0  0  0  0  0
   35.9280   29.8430   46.9530 O   0  0  0  0  0  0  0  0  0  0  0  0
   35.9690   30.1630   48.4240 P   0  0  1  0  0  0  0  0  0  0  0  0
   36.7490   28.8680   49.2260 O   0  0  0  0  0  0  0  0  0  0  0  0
   37.0880   29.2780   50.0670 H   0  0  0  0  0  0  0  0  0  0  0  0
   34.3920   30.3310   49.0390 O   0  0  0  0  0  0  0  0  0  0  0  0
   34.1250   29.1980   49.7820 C   0  0  0  0  0  0  0  0  0  0  0  0
   33.5550   29.5550   50.6860 H   0  0  0  0  0  0  0  0  0  0  0  0
   35.0420   28.6790   50.1230 H   0  0  0  0  0  0  0  0  0  0  0  0
   33.2630   28.2230   49.0770 C   0  0  0  0  0  0  0  0  0  0  0  0
   33.8920   27.3310   48.2420 C   0  0  0  0  0  0  0  0  0  0  0  0
   33.1340   26.3830   47.5470 C   0  0  0  0  0  0  0  0  0  0  0  0
   31.7840   26.4060   47.7470 N   0  0  0  0  0  0  0  0  0  0  0  0
   31.1860   27.2930   48.5720 C   0  0  0  0  0  0  0  0  0  0  0  0
   31.9280   28.2040   49.2380 N   0  0  0  0  0  0  0  0  0  0  0  0
   34.9410   27.2340   48.0210 H   0  0  0  0  0  0  0  0  0  0  0  0
   33.5440   25.6430   46.8700 H   0  0  0  0  0  0  0  0  0  0  0  0
   30.1200   27.3080   48.7270 H   0  0  0  0  0  0  0  0  0  0  0  0
   38.1940   32.3850   46.6510 O   0  0  0  0  0  0  0  0  0  0  0  0
   38.7830   32.1190   45.4140 C   0  0  0  0  0  0  0  0  0  0  0  0
   39.1410   30.8020   45.2040 C   0  0  0  0  0  0  0  0  0  0  0  0
   38.9750   30.0240   45.9480 H   0  0  0  0  0  0  0  0  0  0  0  0
   39.7300   30.4570   44.0050 C   0  0  0  0  0  0  0  0  0  0  0  0
   40.0440   29.4460   43.7510 H   0  0  0  0  0  0  0  0  0  0  0  0
   39.9380   31.4430   43.0680 C   0  0  0  0  0  3  0  0  0  0  0  0
   39.5760   32.7770   43.2850 C   0  0  0  0  0  3  0  0  0  0  0  0
   38.9990   33.0750   44.4730 N   0  0  0  0  0  0  0  0  0  0  0  0
  1  6  1  6  0  0  0
  1  5  1  0  0  0  0
  1  2  1  0  0  0  0
  2  7  1  6  0  0  0
  2  3  1  0  0  0  0
  3  8  1  0  0  0  0
  3  9  1  0  0  0  0
  4  3  1  0  0  0  0
  5 11  1  0  0  0  0
  5  4  1  0  0  0  0
 10  5  1  0  0  0  0
 12  2  1  0  0  0  0
 14 13  2  6  0  0  0
 14 12  1  0  0  0  0
 14 17  1  0  0  0  0
 14 15  1  0  0  0  0
 15 16  1  0  0  0  0
 17 18  1  0  0  0  0
 18 20  1  0  0  0  0
 18 19  1  0  0  0  0
 21 26  1  0  0  0  0
 21 18  1  0  0  0  0
 22 21  2  0  0  0  0
 23 24  2  0  0  0  0
 23 22  1  0  0  0  0
 24 25  1  0  0  0  0
 25 29  1  0  0  0  0
 25 26  2  0  0  0  0
 27 22  1  0  0  0  0
 28 23  1  0  0  0  0
 30  1  1  0  0  0  0
 31 30  1  0  0  0  0
 32 31  1  0  0  0  0
 32 33  1  0  0  0  0
 34 32  2  0  0  0  0
 35 34  1  0  0  0  0
 36 37  2  0  0  0  0
 36 34  1  0  0  0  0
 37 38  1  0  0  0  0
 38 31  2  0  0  0  0
M  END
>  <minimizedAffinity>
-4.81151056

>  <minimizedRMSD>
0.45970583

$$$$
