
 OpenBabel03262521353D

 36 39  0  0  1  0  0  0  0  0999 V2000
   38.4930   31.4780   45.3630 C   0  0  1  0  0  0  0  0  0  0  0  0
   38.8480   32.4480   46.4080 C   0  0  2  0  0  0  0  0  0  0  0  0
   40.2950   32.8130   46.0600 C   0  0  0  0  0  0  0  0  0  0  0  0
   40.7990   31.5930   45.6960 O   0  0  0  0  0  0  0  0  0  0  0  0
   39.8420   30.8570   45.0260 C   0  0  0  0  0  0  0  0  0  0  0  0
   38.1540   31.9920   44.4530 H   0  0  0  0  0  0  0  0  0  0  0  0
   38.2810   33.3890   46.2500 H   0  0  0  0  0  0  0  0  0  0  0  0
   40.3370   33.5210   45.2200 H   0  0  0  0  0  0  0  0  0  0  0  0
   40.8240   33.1720   46.9590 H   0  0  0  0  0  0  0  0  0  0  0  0
   39.8600   29.8220   45.4100 H   0  0  0  0  0  0  0  0  0  0  0  0
   40.0250   30.8270   43.9440 H   0  0  0  0  0  0  0  0  0  0  0  0
   37.5750   32.3780   48.6930 C   0  0  1  0  0  0  0  0  0  0  0  0
   38.7930   33.1290   48.8460 C   0  0  0  0  0  0  0  0  0  0  0  0
   38.7750   31.9600   47.8410 C   0  0  2  0  0  0  0  0  0  0  0  0
   36.7450   32.7210   48.0250 H   0  0  0  0  0  0  0  0  0  0  0  0
   39.3930   32.9660   49.7760 H   0  0  0  0  0  0  0  0  0  0  0  0
   38.8560   34.1530   48.4840 H   0  0  0  0  0  0  0  0  0  0  0  0
   39.3490   31.0780   48.1200 H   0  0  0  0  0  0  0  0  0  0  0  0
   35.5700   29.6960   50.3640 C   0  0  0  0  0  0  0  0  0  0  0  0
   35.9400   30.6720   49.4490 C   0  0  0  0  0  0  0  0  0  0  0  0
   37.1470   31.3230   49.6310 C   0  0  0  0  0  0  0  0  0  0  0  0
   37.9200   30.9650   50.7130 N   0  0  0  0  0  0  0  0  0  0  0  0
   37.5430   30.0100   51.5960 C   0  0  0  0  0  0  0  0  0  0  0  0
   36.3480   29.3610   51.4210 N   0  0  0  0  0  0  0  0  0  0  0  0
   34.6150   29.2160   50.1760 H   0  0  0  0  0  0  0  0  0  0  0  0
   35.3500   30.9700   48.5980 H   0  0  0  0  0  0  0  0  0  0  0  0
   38.2150   29.7940   52.4180 H   0  0  0  0  0  0  0  0  0  0  0  0
   37.6110   30.4750   45.7730 O   0  0  0  0  0  0  0  0  0  0  0  0
   36.3120   30.4840   45.2240 C   0  0  0  0  0  0  0  0  0  0  0  0
   35.2090   29.9880   45.8850 C   0  0  0  0  0  0  0  0  0  0  0  0
   35.3210   29.5680   46.8630 H   0  0  0  0  0  0  0  0  0  0  0  0
   33.9380   29.9940   45.3550 C   0  0  0  0  0  0  0  0  0  0  0  0
   33.0950   29.5870   45.9210 H   0  0  0  0  0  0  0  0  0  0  0  0
   33.7380   30.5200   44.0980 C   0  0  0  0  0  0  0  0  0  0  0  0
   34.8490   31.0070   43.4600 C   0  0  0  0  0  0  0  0  0  0  0  0
   36.0680   30.9870   44.0000 N   0  0  0  0  0  0  0  0  0  0  0  0
  1  6  1  6  0  0  0
  1 28  1  0  0  0  0
  1  2  1  0  0  0  0
  2  7  1  6  0  0  0
  2 14  1  0  0  0  0
  3  2  1  0  0  0  0
  3  9  1  0  0  0  0
  4  3  1  0  0  0  0
  5  1  1  0  0  0  0
  5 10  1  0  0  0  0
  5  4  1  0  0  0  0
  8  3  1  0  0  0  0
 11  5  1  0  0  0  0
 12 15  1  6  0  0  0
 12 13  1  0  0  0  0
 12 21  1  0  0  0  0
 13 16  1  0  0  0  0
 14 18  1  1  0  0  0
 14 12  1  0  0  0  0
 14 13  1  0  0  0  0
 17 13  1  0  0  0  0
 19 24  1  0  0  0  0
 20 21  1  0  0  0  0
 20 19  2  0  0  0  0
 21 22  2  0  0  0  0
 22 23  1  0  0  0  0
 23 27  1  0  0  0  0
 24 23  2  0  0  0  0
 25 19  1  0  0  0  0
 26 20  1  0  0  0  0
 29 28  1  0  0  0  0
 29 30  1  0  0  0  0
 30 31  1  0  0  0  0
 32 30  2  0  0  0  0
 32 33  1  0  0  0  0
 34 32  1  0  0  0  0
 35 36  1  0  0  0  0
 35 34  2  0  0  0  0
 36 29  2  0  0  0  0
M  END
>  <minimizedAffinity>
-5.55842495

>  <minimizedRMSD>
1.00838578

$$$$
