
 OpenBabel03272504183D

 25 26  0  0  0  0  0  0  0  0999 V2000
   39.2450   27.2100   35.6500 O   0  0  0  0  0  0  0  0  0  0  0  0
   37.9850   26.7730   34.9620 P   0  0  1  0  0  0  0  0  0  0  0  0
   36.8530   28.0310   34.8610 O   0  0  0  0  0  0  0  0  0  0  0  0
   36.0000   27.6000   34.5760 H   0  0  0  0  0  0  0  0  0  0  0  0
   38.2860   26.2840   33.3300 O   0  0  0  0  0  0  0  0  0  0  0  0
   37.2870   25.7520   32.5260 C   0  0  0  0  0  0  0  0  0  0  0  0
   36.9840   24.4070   32.3730 C   0  0  0  0  0  0  0  0  0  0  0  0
   35.9470   24.0570   31.5220 C   0  0  0  0  0  0  0  0  0  0  0  0
   35.2570   25.0210   30.8640 N   0  0  0  0  0  0  0  0  0  0  0  0
   35.5790   26.3440   31.0340 C   0  0  0  0  0  0  0  0  0  0  0  0
   36.5930   26.6990   31.8650 N   0  0  0  0  0  0  0  0  0  0  0  0
   35.7460   23.0090   31.4330 H   0  0  0  0  0  0  0  0  0  0  0  0
   35.0230   27.1140   30.5040 H   0  0  0  0  0  0  0  0  0  0  0  0
   37.7890   23.5340   33.1220 N   0  0  0  0  0  0  0  0  0  0  0  0
   37.5390   22.8630   33.8790 H   0  0  0  0  0  0  0  0  0  0  0  0
   38.8020   23.5830   32.8610 H   0  0  0  0  0  0  0  0  0  0  0  0
   37.3790   25.4540   35.8200 O   0  0  0  0  0  0  0  0  0  0  0  0
   38.1060   24.6030   36.6220 C   0  0  0  0  0  0  0  0  0  0  0  0
   38.0230   24.3390   37.9730 C   0  0  0  0  0  0  0  0  0  0  0  0
   37.2530   24.9110   38.4480 H   0  0  0  0  0  0  0  0  0  0  0  0
   38.8830   23.4260   38.5450 C   0  0  0  0  0  0  0  0  0  0  0  0
   38.7620   23.2710   39.6080 H   0  0  0  0  0  0  0  0  0  0  0  0
   39.8390   22.7540   37.8130 C   0  0  0  0  0  3  0  0  0  0  0  0
   39.8890   23.0440   36.4640 C   0  0  0  0  0  3  0  0  0  0  0  0
   39.0460   23.9450   35.8800 N   0  0  0  0  0  0  0  0  0  0  0  0
  2  1  2  1  0  0  0
  2 17  1  0  0  0  0
  3  2  1  0  0  0  0
  4  3  1  0  0  0  0
  5  2  1  0  0  0  0
  6  5  1  0  0  0  0
  7  6  1  0  0  0  0
  7 14  1  0  0  0  0
  8  7  2  0  0  0  0
  9 10  2  0  0  0  0
  9  8  1  0  0  0  0
 10 11  1  0  0  0  0
 11  6  2  0  0  0  0
 12  8  1  0  0  0  0
 13 10  1  0  0  0  0
 14 15  1  0  0  0  0
 16 14  1  0  0  0  0
 17 18  1  0  0  0  0
 18 19  1  0  0  0  0
 19 20  1  0  0  0  0
 19 21  2  0  0  0  0
 21 22  1  0  0  0  0
 23 21  1  0  0  0  0
 24 23  2  0  0  0  0
 25 24  1  0  0  0  0
 25 18  2  0  0  0  0
M  END
>  <minimizedAffinity>
-4.88740063

$$$$

 OpenBabel03272504183D

 25 26  0  0  0  0  0  0  0  0999 V2000
   39.4790   27.2190   33.5350 O   0  0  0  0  0  0  0  0  0  0  0  0
   38.5820   26.7210   34.6310 P   0  0  1  0  0  0  0  0  0  0  0  0
   38.8130   27.5800   36.0740 O   0  0  0  0  0  0  0  0  0  0  0  0
   38.3310   27.0590   36.7750 H   0  0  0  0  0  0  0  0  0  0  0  0
   36.9110   26.9230   34.2300 O   0  0  0  0  0  0  0  0  0  0  0  0
   36.4040   28.1350   33.7820 C   0  0  0  0  0  0  0  0  0  0  0  0
   36.1310   28.4750   32.4650 C   0  0  0  0  0  0  0  0  0  0  0  0
   35.6240   29.7380   32.2020 C   0  0  0  0  0  0  0  0  0  0  0  0
   35.4070   30.6060   33.2210 N   0  0  0  0  0  0  0  0  0  0  0  0
   35.6860   30.2420   34.5140 C   0  0  0  0  0  0  0  0  0  0  0  0
   36.1840   29.0070   34.7850 N   0  0  0  0  0  0  0  0  0  0  0  0
   35.4270   29.9600   31.1730 H   0  0  0  0  0  0  0  0  0  0  0  0
   35.5110   30.9420   35.3290 H   0  0  0  0  0  0  0  0  0  0  0  0
   36.4090   27.4680   31.5280 N   0  0  0  0  0  0  0  0  0  0  0  0
   35.7780   26.9600   30.8720 H   0  0  0  0  0  0  0  0  0  0  0  0
   37.4210   27.1990   31.5010 H   0  0  0  0  0  0  0  0  0  0  0  0
   38.8970   25.0760   34.8250 O   0  0  0  0  0  0  0  0  0  0  0  0
   38.9920   24.4020   36.0220 C   0  0  0  0  0  0  0  0  0  0  0  0
   39.8610   23.4170   36.4420 C   0  0  0  0  0  0  0  0  0  0  0  0
   40.5700   23.1560   35.6830 H   0  0  0  0  0  0  0  0  0  0  0  0
   39.7430   22.8970   37.7120 C   0  0  0  0  0  0  0  0  0  0  0  0
   40.4570   22.1280   37.9720 H   0  0  0  0  0  0  0  0  0  0  0  0
   38.7760   23.3250   38.5970 C   0  0  0  0  0  3  0  0  0  0  0  0
   37.9250   24.3130   38.1410 C   0  0  0  0  0  3  0  0  0  0  0  0
   38.0270   24.8390   36.8850 N   0  0  0  0  0  0  0  0  0  0  0  0
  2  1  2  6  0  0  0
  2 17  1  0  0  0  0
  2  3  1  0  0  0  0
  3  4  1  0  0  0  0
  5  2  1  0  0  0  0
  6  5  1  0  0  0  0
  6 11  1  0  0  0  0
  7  6  2  0  0  0  0
  8  7  1  0  0  0  0
  8  9  2  0  0  0  0
  9 10  1  0  0  0  0
 10 11  2  0  0  0  0
 10 13  1  0  0  0  0
 12  8  1  0  0  0  0
 14  7  1  0  0  0  0
 15 14  1  0  0  0  0
 16 14  1  0  0  0  0
 17 18  1  0  0  0  0
 18 19  2  0  0  0  0
 18 25  1  0  0  0  0
 19 21  1  0  0  0  0
 20 19  1  0  0  0  0
 21 22  1  0  0  0  0
 21 23  2  0  0  0  0
 24 23  1  0  0  0  0
 25 24  2  0  0  0  0
M  END
>  <minimizedAffinity>
-4.73393297

$$$$

 OpenBabel03272504183D

 25 26  0  0  0  0  0  0  0  0999 V2000
   36.7770   26.9760   35.0640 O   0  0  0  0  0  0  0  0  0  0  0  0
   38.0240   26.1460   34.9740 P   0  0  1  0  0  0  0  0  0  0  0  0
   39.3930   27.0050   35.4870 O   0  0  0  0  0  0  0  0  0  0  0  0
   40.1740   26.4520   35.2090 H   0  0  0  0  0  0  0  0  0  0  0  0
   37.9380   24.7520   35.9940 O   0  0  0  0  0  0  0  0  0  0  0  0
   39.0640   24.0060   36.3180 C   0  0  0  0  0  0  0  0  0  0  0  0
   39.1820   23.1130   37.3720 C   0  0  0  0  0  0  0  0  0  0  0  0
   40.3890   22.4530   37.5450 C   0  0  0  0  0  0  0  0  0  0  0  0
   41.4170   22.6890   36.6930 N   0  0  0  0  0  0  0  0  0  0  0  0
   41.2710   23.5780   35.6580 C   0  0  0  0  0  0  0  0  0  0  0  0
   40.0930   24.2310   35.4790 N   0  0  0  0  0  0  0  0  0  0  0  0
   40.4380   21.7730   38.3700 H   0  0  0  0  0  0  0  0  0  0  0  0
   42.0990   23.7650   34.9770 H   0  0  0  0  0  0  0  0  0  0  0  0
   38.0290   22.9800   38.1620 N   0  0  0  0  0  0  0  0  0  0  0  0
   37.4260   22.1510   38.3460 H   0  0  0  0  0  0  0  0  0  0  0  0
   37.7490   23.8720   38.6340 H   0  0  0  0  0  0  0  0  0  0  0  0
   38.1700   25.6370   33.3730 O   0  0  0  0  0  0  0  0  0  0  0  0
   37.4310   24.6490   32.7630 C   0  0  0  0  0  0  0  0  0  0  0  0
   37.5860   23.2780   32.7490 C   0  0  0  0  0  0  0  0  0  0  0  0
   38.4360   22.9640   33.3190 H   0  0  0  0  0  0  0  0  0  0  0  0
   36.6930   22.4960   32.0490 C   0  0  0  0  0  0  0  0  0  0  0  0
   36.8780   21.4310   32.0820 H   0  0  0  0  0  0  0  0  0  0  0  0
   35.6330   23.0320   31.3500 C   0  0  0  0  0  3  0  0  0  0  0  0
   35.5100   24.4080   31.3890 C   0  0  0  0  0  3  0  0  0  0  0  0
   36.3850   25.1980   32.0760 N   0  0  0  0  0  0  0  0  0  0  0  0
  2  1  2  1  0  0  0
  2  3  1  0  0  0  0
  2  5  1  0  0  0  0
  4  3  1  0  0  0  0
  5  6  1  0  0  0  0
  6  7  1  0  0  0  0
  7  8  2  0  0  0  0
  7 14  1  0  0  0  0
  8 12  1  0  0  0  0
  9  8  1  0  0  0  0
 10  9  2  0  0  0  0
 11 10  1  0  0  0  0
 11  6  2  0  0  0  0
 13 10  1  0  0  0  0
 14 15  1  0  0  0  0
 14 16  1  0  0  0  0
 17  2  1  0  0  0  0
 18 17  1  0  0  0  0
 19 18  1  0  0  0  0
 19 20  1  0  0  0  0
 21 22  1  0  0  0  0
 21 19  2  0  0  0  0
 23 24  2  0  0  0  0
 23 21  1  0  0  0  0
 24 25  1  0  0  0  0
 25 18  2  0  0  0  0
M  END
>  <minimizedAffinity>
-4.69264507

$$$$

 OpenBabel03272504183D

 25 26  0  0  0  0  0  0  0  0999 V2000
   35.1180   25.0920   31.0000 O   0  0  0  0  0  0  0  0  0  0  0  0
   36.5490   24.8220   31.3620 P   0  0  1  0  0  0  0  0  0  0  0  0
   37.5090   24.5650   29.9870 O   0  0  0  0  0  0  0  0  0  0  0  0
   38.3740   24.2060   30.3290 H   0  0  0  0  0  0  0  0  0  0  0  0
   37.2640   26.1640   32.1860 O   0  0  0  0  0  0  0  0  0  0  0  0
   36.6620   27.4150   32.2160 C   0  0  0  0  0  0  0  0  0  0  0  0
   36.3350   28.1950   31.1170 C   0  0  0  0  0  0  0  0  0  0  0  0
   35.7340   29.4250   31.3370 C   0  0  0  0  0  0  0  0  0  0  0  0
   35.4810   29.8380   32.6040 N   0  0  0  0  0  0  0  0  0  0  0  0
   35.8160   29.0440   33.6720 C   0  0  0  0  0  0  0  0  0  0  0  0
   36.4050   27.8370   33.4690 N   0  0  0  0  0  0  0  0  0  0  0  0
   35.4980   29.9950   30.4630 H   0  0  0  0  0  0  0  0  0  0  0  0
   35.6110   29.3790   34.6870 H   0  0  0  0  0  0  0  0  0  0  0  0
   36.6610   27.6280   29.8750 N   0  0  0  0  0  0  0  0  0  0  0  0
   36.0520   27.3530   29.0750 H   0  0  0  0  0  0  0  0  0  0  0  0
   37.6880   27.4640   29.7550 H   0  0  0  0  0  0  0  0  0  0  0  0
   36.5610   23.4860   32.3900 O   0  0  0  0  0  0  0  0  0  0  0  0
   36.2120   22.1980   32.0540 C   0  0  0  0  0  0  0  0  0  0  0  0
   35.1800   21.3940   32.4910 C   0  0  0  0  0  0  0  0  0  0  0  0
   34.5660   21.8870   33.2160 H   0  0  0  0  0  0  0  0  0  0  0  0
   35.0480   20.1170   31.9890 C   0  0  0  0  0  0  0  0  0  0  0  0
   34.2180   19.5440   32.3780 H   0  0  0  0  0  0  0  0  0  0  0  0
   35.9180   19.5990   31.0520 C   0  0  0  0  0  3  0  0  0  0  0  0
   36.9370   20.4350   30.6380 C   0  0  0  0  0  3  0  0  0  0  0  0
   37.0830   21.7020   31.1250 N   0  0  0  0  0  0  0  0  0  0  0  0
  2  1  2  6  0  0  0
  2  5  1  0  0  0  0
  2 17  1  0  0  0  0
  3  4  1  0  0  0  0
  3  2  1  0  0  0  0
  5  6  1  0  0  0  0
  6 11  1  0  0  0  0
  7  8  1  0  0  0  0
  7  6  2  0  0  0  0
  8  9  2  0  0  0  0
  9 10  1  0  0  0  0
 10 13  1  0  0  0  0
 11 10  2  0  0  0  0
 12  8  1  0  0  0  0
 14  7  1  0  0  0  0
 15 14  1  0  0  0  0
 16 14  1  0  0  0  0
 18 17  1  0  0  0  0
 18 19  1  0  0  0  0
 19 20  1  0  0  0  0
 21 22  1  0  0  0  0
 21 19  2  0  0  0  0
 23 21  1  0  0  0  0
 24 23  2  0  0  0  0
 24 25  1  0  0  0  0
 25 18  2  0  0  0  0
M  END
>  <minimizedAffinity>
-4.67083931

$$$$

 OpenBabel03272504183D

 25 26  0  0  0  0  0  0  0  0999 V2000
   38.9770   27.2430   36.0730 O   0  0  0  0  0  0  0  0  0  0  0  0
   38.2560   26.3240   35.1300 P   0  0  1  0  0  0  0  0  0  0  0  0
   39.1080   26.1160   33.6780 O   0  0  0  0  0  0  0  0  0  0  0  0
   38.4710   25.6640   33.0580 H   0  0  0  0  0  0  0  0  0  0  0  0
   38.0750   24.7390   35.7970 O   0  0  0  0  0  0  0  0  0  0  0  0
   39.1650   23.9910   36.2230 C   0  0  0  0  0  0  0  0  0  0  0  0
   39.1960   23.1300   37.3100 C   0  0  0  0  0  0  0  0  0  0  0  0
   40.3780   22.4620   37.5890 C   0  0  0  0  0  0  0  0  0  0  0  0
   41.4680   22.6590   36.8050 N   0  0  0  0  0  0  0  0  0  0  0  0
   41.4080   23.5170   35.7370 C   0  0  0  0  0  0  0  0  0  0  0  0
   40.2550   24.1780   35.4530 N   0  0  0  0  0  0  0  0  0  0  0  0
   40.3590   21.8080   38.4350 H   0  0  0  0  0  0  0  0  0  0  0  0
   42.2840   23.6730   35.1110 H   0  0  0  0  0  0  0  0  0  0  0  0
   37.9880   23.0350   38.0190 N   0  0  0  0  0  0  0  0  0  0  0  0
   37.3610   22.2190   38.1840 H   0  0  0  0  0  0  0  0  0  0  0  0
   37.6870   23.9450   38.4420 H   0  0  0  0  0  0  0  0  0  0  0  0
   36.7250   26.9800   34.8670 O   0  0  0  0  0  0  0  0  0  0  0  0
   36.4270   28.0500   34.0550 C   0  0  0  0  0  0  0  0  0  0  0  0
   35.7440   29.2210   34.3110 C   0  0  0  0  0  0  0  0  0  0  0  0
   35.4010   29.2720   35.3240 H   0  0  0  0  0  0  0  0  0  0  0  0
   35.5780   30.1500   33.3070 C   0  0  0  0  0  0  0  0  0  0  0  0
   35.0320   31.0420   33.5800 H   0  0  0  0  0  0  0  0  0  0  0  0
   36.0740   29.9570   32.0350 C   0  0  0  0  0  3  0  0  0  0  0  0
   36.7530   28.7740   31.8170 C   0  0  0  0  0  3  0  0  0  0  0  0
   36.9260   27.8420   32.8000 N   0  0  0  0  0  0  0  0  0  0  0  0
  2  5  1  0  0  0  0
  2  1  2  1  0  0  0
  3  2  1  0  0  0  0
  4  3  1  0  0  0  0
  5  6  1  0  0  0  0
  6  7  1  0  0  0  0
  7  8  2  0  0  0  0
  7 14  1  0  0  0  0
  8 12  1  0  0  0  0
  9  8  1  0  0  0  0
 10  9  2  0  0  0  0
 11 10  1  0  0  0  0
 11  6  2  0  0  0  0
 13 10  1  0  0  0  0
 14 15  1  0  0  0  0
 14 16  1  0  0  0  0
 17  2  1  0  0  0  0
 18 19  1  0  0  0  0
 18 17  1  0  0  0  0
 19 20  1  0  0  0  0
 21 22  1  0  0  0  0
 21 19  2  0  0  0  0
 23 21  1  0  0  0  0
 24 23  2  0  0  0  0
 24 25  1  0  0  0  0
 25 18  2  0  0  0  0
M  END
>  <minimizedAffinity>
-4.60992622

$$$$

 OpenBabel03272504183D

 25 26  0  0  0  0  0  0  0  0999 V2000
   37.1150   21.7540   33.9340 O   0  0  0  0  0  0  0  0  0  0  0  0
   38.2940   22.6170   33.5900 P   0  0  1  0  0  0  0  0  0  0  0  0
   39.7490   21.7470   33.6400 O   0  0  0  0  0  0  0  0  0  0  0  0
   40.4710   22.4320   33.5940 H   0  0  0  0  0  0  0  0  0  0  0  0
   38.1790   23.2430   31.9820 O   0  0  0  0  0  0  0  0  0  0  0  0
   37.2120   24.1710   31.6210 C   0  0  0  0  0  0  0  0  0  0  0  0
   35.9030   23.8940   31.2560 C   0  0  0  0  0  0  0  0  0  0  0  0
   35.0720   24.9530   30.9240 C   0  0  0  0  0  0  0  0  0  0  0  0
   35.5470   26.2230   30.9630 N   0  0  0  0  0  0  0  0  0  0  0  0
   36.8470   26.4670   31.3280 C   0  0  0  0  0  0  0  0  0  0  0  0
   37.6710   25.4370   31.6550 N   0  0  0  0  0  0  0  0  0  0  0  0
   34.0710   24.6960   30.6490 H   0  0  0  0  0  0  0  0  0  0  0  0
   37.2240   27.4870   31.3580 H   0  0  0  0  0  0  0  0  0  0  0  0
   35.5660   22.5310   31.2660 N   0  0  0  0  0  0  0  0  0  0  0  0
   34.8590   22.0120   31.8290 H   0  0  0  0  0  0  0  0  0  0  0  0
   36.1290   21.9630   30.5890 H   0  0  0  0  0  0  0  0  0  0  0  0
   38.3010   23.9080   34.6740 O   0  0  0  0  0  0  0  0  0  0  0  0
   38.4110   23.8190   36.0440 C   0  0  0  0  0  0  0  0  0  0  0  0
   37.6530   24.3760   37.0520 C   0  0  0  0  0  0  0  0  0  0  0  0
   36.8510   24.9730   36.6700 H   0  0  0  0  0  0  0  0  0  0  0  0
   37.9780   24.1290   38.3690 C   0  0  0  0  0  0  0  0  0  0  0  0
   37.3410   24.5980   39.1050 H   0  0  0  0  0  0  0  0  0  0  0  0
   39.0470   23.3350   38.7270 C   0  0  0  0  0  3  0  0  0  0  0  0
   39.7810   22.7940   37.6890 C   0  0  0  0  0  3  0  0  0  0  0  0
   39.4740   23.0290   36.3800 N   0  0  0  0  0  0  0  0  0  0  0  0
  2  3  1  0  0  0  0
  2  1  2  1  0  0  0
  2 17  1  0  0  0  0
  4  3  1  0  0  0  0
  5  2  1  0  0  0  0
  6 11  1  0  0  0  0
  6  5  1  0  0  0  0
  7 14  1  0  0  0  0
  7  6  2  0  0  0  0
  8  9  2  0  0  0  0
  8  7  1  0  0  0  0
  9 10  1  0  0  0  0
 10 13  1  0  0  0  0
 10 11  2  0  0  0  0
 12  8  1  0  0  0  0
 14 15  1  0  0  0  0
 16 14  1  0  0  0  0
 17 18  1  0  0  0  0
 18 25  2  0  0  0  0
 18 19  1  0  0  0  0
 19 21  2  0  0  0  0
 20 19  1  0  0  0  0
 21 23  1  0  0  0  0
 21 22  1  0  0  0  0
 24 23  2  0  0  0  0
 25 24  1  0  0  0  0
M  END
>  <minimizedAffinity>
-4.5822506

$$$$

 OpenBabel03272504183D

 25 26  0  0  0  0  0  0  0  0999 V2000
   37.6060   23.1620   38.5700 O   0  0  0  0  0  0  0  0  0  0  0  0
   38.2110   23.3500   37.2090 P   0  0  1  0  0  0  0  0  0  0  0  0
   37.7430   22.1230   36.1360 O   0  0  0  0  0  0  0  0  0  0  0  0
   38.3380   22.2230   35.3420 H   0  0  0  0  0  0  0  0  0  0  0  0
   37.6950   24.8310   36.4800 O   0  0  0  0  0  0  0  0  0  0  0  0
   38.3120   25.3480   35.3480 C   0  0  0  0  0  0  0  0  0  0  0  0
   38.8200   26.6300   35.2040 C   0  0  0  0  0  0  0  0  0  0  0  0
   39.4060   26.9750   33.9960 C   0  0  0  0  0  0  0  0  0  0  0  0
   39.4700   26.0660   32.9910 N   0  0  0  0  0  0  0  0  0  0  0  0
   38.9590   24.8050   33.1630 C   0  0  0  0  0  0  0  0  0  0  0  0
   38.3820   24.4550   34.3420 N   0  0  0  0  0  0  0  0  0  0  0  0
   39.7850   27.9740   33.9260 H   0  0  0  0  0  0  0  0  0  0  0  0
   39.0130   24.0790   32.3540 H   0  0  0  0  0  0  0  0  0  0  0  0
   38.6770   27.4510   36.3340 N   0  0  0  0  0  0  0  0  0  0  0  0
   39.3940   27.9070   36.9360 H   0  0  0  0  0  0  0  0  0  0  0  0
   37.6760   27.6180   36.5970 H   0  0  0  0  0  0  0  0  0  0  0  0
   39.8840   23.4000   37.4100 O   0  0  0  0  0  0  0  0  0  0  0  0
   40.7880   22.4760   36.9350 C   0  0  0  0  0  0  0  0  0  0  0  0
   41.5460   21.5290   37.5910 C   0  0  0  0  0  0  0  0  0  0  0  0
   41.3790   21.5420   38.6480 H   0  0  0  0  0  0  0  0  0  0  0  0
   42.3910   20.7120   36.8720 C   0  0  0  0  0  0  0  0  0  0  0  0
   42.9550   19.9940   37.4510 H   0  0  0  0  0  0  0  0  0  0  0  0
   42.5140   20.8010   35.5010 C   0  0  0  0  0  3  0  0  0  0  0  0
   41.7380   21.7600   34.8800 C   0  0  0  0  0  3  0  0  0  0  0  0
   40.8960   22.5790   35.5770 N   0  0  0  0  0  0  0  0  0  0  0  0
  2 17  1  0  0  0  0
  2  1  2  1  0  0  0
  3  2  1  0  0  0  0
  4  3  1  0  0  0  0
  5  2  1  0  0  0  0
  6  5  1  0  0  0  0
  7  6  1  0  0  0  0
  7 14  1  0  0  0  0
  8  7  2  0  0  0  0
  9 10  2  0  0  0  0
  9  8  1  0  0  0  0
 10 11  1  0  0  0  0
 11  6  2  0  0  0  0
 12  8  1  0  0  0  0
 13 10  1  0  0  0  0
 14 16  1  0  0  0  0
 14 15  1  0  0  0  0
 18 17  1  0  0  0  0
 18 19  1  0  0  0  0
 19 20  1  0  0  0  0
 21 22  1  0  0  0  0
 21 19  2  0  0  0  0
 23 21  1  0  0  0  0
 24 23  2  0  0  0  0
 24 25  1  0  0  0  0
 25 18  2  0  0  0  0
M  END
>  <minimizedAffinity>
-4.45617199

$$$$

 OpenBabel03272504183D

 25 26  0  0  0  0  0  0  0  0999 V2000
   40.3350   21.0820   33.1630 O   0  0  0  0  0  0  0  0  0  0  0  0
   39.5340   22.1710   33.8160 P   0  0  1  0  0  0  0  0  0  0  0  0
   38.0030   21.6240   34.2980 O   0  0  0  0  0  0  0  0  0  0  0  0
   37.4880   22.4450   34.5320 H   0  0  0  0  0  0  0  0  0  0  0  0
   40.2980   22.7500   35.2550 O   0  0  0  0  0  0  0  0  0  0  0  0
   39.5670   23.2060   36.3440 C   0  0  0  0  0  0  0  0  0  0  0  0
   39.6780   22.7600   37.6530 C   0  0  0  0  0  0  0  0  0  0  0  0
   38.8610   23.3330   38.6160 C   0  0  0  0  0  0  0  0  0  0  0  0
   37.9830   24.3050   38.2670 N   0  0  0  0  0  0  0  0  0  0  0  0
   37.8950   24.7260   36.9640 C   0  0  0  0  0  0  0  0  0  0  0  0
   38.6890   24.1720   36.0110 N   0  0  0  0  0  0  0  0  0  0  0  0
   38.9790   22.9600   39.6120 H   0  0  0  0  0  0  0  0  0  0  0  0
   37.1890   25.5060   36.6890 H   0  0  0  0  0  0  0  0  0  0  0  0
   40.6330   21.7500   37.8510 N   0  0  0  0  0  0  0  0  0  0  0  0
   41.4960   21.7390   38.4340 H   0  0  0  0  0  0  0  0  0  0  0  0
   40.4220   20.8740   37.3160 H   0  0  0  0  0  0  0  0  0  0  0  0
   39.4250   23.4410   32.7120 O   0  0  0  0  0  0  0  0  0  0  0  0
   38.2670   24.0590   32.2960 C   0  0  0  0  0  0  0  0  0  0  0  0
   37.8090   25.3460   32.4830 C   0  0  0  0  0  0  0  0  0  0  0  0
   38.4950   25.9380   33.0540 H   0  0  0  0  0  0  0  0  0  0  0  0
   36.5930   25.7230   31.9540 C   0  0  0  0  0  0  0  0  0  0  0  0
   36.2980   26.7460   32.1410 H   0  0  0  0  0  0  0  0  0  0  0  0
   35.8010   24.8540   31.2340 C   0  0  0  0  0  3  0  0  0  0  0  0
   36.2950   23.5750   31.0670 C   0  0  0  0  0  3  0  0  0  0  0  0
   37.4960   23.1840   31.5840 N   0  0  0  0  0  0  0  0  0  0  0  0
  2  1  2  6  0  0  0
  2  3  1  0  0  0  0
  2  5  1  0  0  0  0
  3  4  1  0  0  0  0
  5  6  1  0  0  0  0
  6  7  1  0  0  0  0
  7 14  1  0  0  0  0
  7  8  2  0  0  0  0
  8 12  1  0  0  0  0
  9  8  1  0  0  0  0
 10  9  2  0  0  0  0
 11  6  2  0  0  0  0
 11 10  1  0  0  0  0
 13 10  1  0  0  0  0
 14 15  1  0  0  0  0
 16 14  1  0  0  0  0
 17  2  1  0  0  0  0
 18 19  1  0  0  0  0
 18 17  1  0  0  0  0
 19 20  1  0  0  0  0
 21 22  1  0  0  0  0
 21 19  2  0  0  0  0
 23 21  1  0  0  0  0
 24 23  2  0  0  0  0
 24 25  1  0  0  0  0
 25 18  2  0  0  0  0
M  END
>  <minimizedAffinity>
-4.43492079

$$$$

 OpenBabel03272504183D

 25 26  0  0  0  0  0  0  0  0999 V2000
   38.2500   22.4850   35.1250 O   0  0  0  0  0  0  0  0  0  0  0  0
   38.2880   22.5630   33.6270 P   0  0  1  0  0  0  0  0  0  0  0  0
   39.3220   21.3970   32.9600 O   0  0  0  0  0  0  0  0  0  0  0  0
   39.4300   21.6530   32.0020 H   0  0  0  0  0  0  0  0  0  0  0  0
   36.7330   22.2600   32.9320 O   0  0  0  0  0  0  0  0  0  0  0  0
   36.3210   20.9810   32.5800 C   0  0  0  0  0  0  0  0  0  0  0  0
   35.7040   20.0590   33.4130 C   0  0  0  0  0  0  0  0  0  0  0  0
   35.3610   18.8220   32.8870 C   0  0  0  0  0  0  0  0  0  0  0  0
   35.6310   18.5410   31.5870 N   0  0  0  0  0  0  0  0  0  0  0  0
   36.2420   19.4740   30.7880 C   0  0  0  0  0  0  0  0  0  0  0  0
   36.5830   20.6880   31.2920 N   0  0  0  0  0  0  0  0  0  0  0  0
   34.8870   18.1400   33.5620 H   0  0  0  0  0  0  0  0  0  0  0  0
   36.4560   19.2440   29.7460 H   0  0  0  0  0  0  0  0  0  0  0  0
   35.4950   20.5010   34.7280 N   0  0  0  0  0  0  0  0  0  0  0  0
   34.6120   20.6390   35.2640 H   0  0  0  0  0  0  0  0  0  0  0  0
   36.3850   20.7230   35.2340 H   0  0  0  0  0  0  0  0  0  0  0  0
   38.7660   24.1280   33.2200 O   0  0  0  0  0  0  0  0  0  0  0  0
   38.6680   25.2430   34.0230 C   0  0  0  0  0  0  0  0  0  0  0  0
   39.6040   25.8740   34.8150 C   0  0  0  0  0  0  0  0  0  0  0  0
   40.5580   25.3890   34.7750 H   0  0  0  0  0  0  0  0  0  0  0  0
   39.2470   26.9940   35.5340 C   0  0  0  0  0  0  0  0  0  0  0  0
   40.0310   27.4360   36.1340 H   0  0  0  0  0  0  0  0  0  0  0  0
   37.9730   27.5200   35.4960 C   0  0  0  0  0  3  0  0  0  0  0  0
   37.0650   26.8600   34.6910 C   0  0  0  0  0  3  0  0  0  0  0  0
   37.4000   25.7500   33.9720 N   0  0  0  0  0  0  0  0  0  0  0  0
  2  1  2  1  0  0  0
  3  2  1  0  0  0  0
  4  3  1  0  0  0  0
  5  2  1  0  0  0  0
  6  5  1  0  0  0  0
  6  7  1  0  0  0  0
  7 14  1  0  0  0  0
  8  7  2  0  0  0  0
  8 12  1  0  0  0  0
  9  8  1  0  0  0  0
 10 11  1  0  0  0  0
 10  9  2  0  0  0  0
 11  6  2  0  0  0  0
 13 10  1  0  0  0  0
 14 16  1  0  0  0  0
 14 15  1  0  0  0  0
 17  2  1  0  0  0  0
 17 18  1  0  0  0  0
 18 19  1  0  0  0  0
 19 21  2  0  0  0  0
 20 19  1  0  0  0  0
 21 22  1  0  0  0  0
 23 21  1  0  0  0  0
 24 23  2  0  0  0  0
 25 18  2  0  0  0  0
 25 24  1  0  0  0  0
M  END
>  <minimizedAffinity>
-4.41847563

$$$$
