
 OpenBabel03272507283D

 40 42  0  0  1  0  0  0  0  0999 V2000
   34.9260   29.9340   47.4510 C   0  0  0  0  0  0  0  0  0  0  0  0
   35.6060   30.4660   46.3380 C   0  0  0  0  0  0  0  0  0  0  0  0
   35.4150   29.8200   45.1150 C   0  0  0  0  0  0  0  0  0  0  0  0
   34.6090   28.7460   45.0590 N   0  0  0  0  0  0  0  0  0  0  0  0
   33.9750   28.2660   46.1490 C   0  0  0  0  0  0  0  0  0  0  0  0
   34.1340   28.8540   47.3290 N   0  0  0  0  0  0  0  0  0  0  0  0
   36.0550   30.2760   43.9660 N   0  0  0  0  0  0  0  0  0  0  0  0
   36.4030   31.6920   43.6710 C   0  0  0  0  0  0  0  0  0  0  0  0
   36.8080   31.7730   42.2500 C   0  0  0  0  0  0  0  0  0  0  0  0
   36.3090   30.5310   41.6730 C   0  0  0  0  0  0  0  0  0  0  0  0
   36.5170   29.5930   42.8010 C   0  0  2  0  0  0  0  0  0  0  0  0
   35.1510   30.5170   48.3500 H   0  0  0  0  0  0  0  0  0  0  0  0
   36.2560   31.3280   46.3670 H   0  0  0  0  0  0  0  0  0  0  0  0
   33.3280   27.4180   46.1540 H   0  0  0  0  0  0  0  0  0  0  0  0
   35.3490   32.1590   43.8050 H   0  0  0  0  0  0  0  0  0  0  0  0
   36.9640   32.2060   44.4190 H   0  0  0  0  0  0  0  0  0  0  0  0
   36.0180   32.5520   41.8180 H   0  0  0  0  0  0  0  0  0  0  0  0
   37.6850   32.2690   41.9290 H   0  0  0  0  0  0  0  0  0  0  0  0
   35.2730   30.5350   41.2840 H   0  0  0  0  0  0  0  0  0  0  0  0
   36.9450   30.2060   40.8200 H   0  0  0  0  0  0  0  0  0  0  0  0
   35.8020   28.2690   42.5170 C   0  0  0  0  0  0  0  0  0  0  0  0
   34.4440   28.4860   42.6120 F   0  0  0  0  0  0  0  0  0  0  0  0
   36.0980   27.2500   43.3720 F   0  0  0  0  0  0  0  0  0  0  0  0
   36.0590   27.9590   41.2000 F   0  0  0  0  0  0  0  0  0  0  0  0
   37.8970   29.2570   43.0090 C   0  0  2  0  0  0  0  0  0  0  0  0
   38.0250   28.4600   43.7070 H   0  0  0  0  0  0  0  0  0  0  0  0
   38.8190   30.2990   43.7760 C   0  0  0  0  0  0  0  0  0  0  0  0
   39.0290   30.1440   45.1650 C   0  0  0  0  0  0  0  0  0  0  0  0
   38.4430   29.3310   45.6280 H   0  0  0  0  0  0  0  0  0  0  0  0
   39.8520   30.8730   45.9520 C   0  0  0  0  0  0  0  0  0  0  0  0
   39.9330   30.6650   47.0100 H   0  0  0  0  0  0  0  0  0  0  0  0
   40.5390   31.8610   45.2880 C   0  0  0  0  0  3  0  0  0  0  0  0
   40.3530   32.0330   43.9380 C   0  0  0  0  0  3  0  0  0  0  0  0
   39.5300   31.2880   43.2020 N   0  0  0  0  0  0  0  0  0  0  0  0
   38.4670   29.2360   41.8870 O   0  0  0  0  0  0  0  0  0  0  0  0
   39.3710   28.5130   41.2080 C   0  0  0  0  0  0  0  0  0  0  0  0
   38.9770   28.2320   40.0740 O   0  0  0  0  0  0  0  0  0  0  0  0
   40.6450   27.8860   41.1750 N   0  0  0  0  0  0  0  0  0  0  0  0
   40.8060   26.8900   41.4380 H   0  0  0  0  0  0  0  0  0  0  0  0
   41.4440   28.4860   40.8650 H   0  0  0  0  0  0  0  0  0  0  0  0
  1 12  1  0  0  0  0
  2 13  1  0  0  0  0
  2  1  2  0  0  0  0
  3  2  1  0  0  0  0
  4  3  2  0  0  0  0
  4  5  1  0  0  0  0
  5 14  1  0  0  0  0
  5  6  2  0  0  0  0
  6  1  1  0  0  0  0
  7  3  1  0  0  0  0
  8 15  1  0  0  0  0
  8  7  1  0  0  0  0
  8 16  1  0  0  0  0
  9  8  1  0  0  0  0
 10  9  1  0  0  0  0
 10 11  1  0  0  0  0
 11 21  1  6  0  0  0
 11 25  1  0  0  0  0
 11  7  1  0  0  0  0
 17  9  1  0  0  0  0
 18  9  1  0  0  0  0
 19 10  1  0  0  0  0
 20 10  1  0  0  0  0
 21 22  1  0  0  0  0
 21 23  1  0  0  0  0
 24 21  1  0  0  0  0
 25 26  1  1  0  0  0
 25 27  1  0  0  0  0
 27 28  1  0  0  0  0
 28 29  1  0  0  0  0
 28 30  2  0  0  0  0
 30 31  1  0  0  0  0
 32 30  1  0  0  0  0
 33 32  2  0  0  0  0
 34 27  2  0  0  0  0
 34 33  1  0  0  0  0
 35 25  1  0  0  0  0
 36 35  1  0  0  0  0
 37 36  2  0  0  0  0
 38 36  1  0  0  0  0
 38 39  1  0  0  0  0
 40 38  1  0  0  0  0
M  END
>  <minimizedAffinity>
-3.78969646

>  <minimizedRMSD>
3.33296919

$$$$
