
 OpenBabel03272507283D

 40 42  0  0  1  0  0  0  0  0999 V2000
   37.8230   30.6030   48.6360 C   0  0  0  0  0  0  0  0  0  0  0  0
   38.3600   31.1000   47.4310 C   0  0  0  0  0  0  0  0  0  0  0  0
   37.5350   31.0480   46.3060 C   0  0  0  0  0  0  0  0  0  0  0  0
   36.2970   30.5380   46.4230 N   0  0  0  0  0  0  0  0  0  0  0  0
   35.8200   30.0710   47.5950 C   0  0  0  0  0  0  0  0  0  0  0  0
   36.5760   30.1040   48.6860 N   0  0  0  0  0  0  0  0  0  0  0  0
   37.9880   31.5110   45.0740 N   0  0  0  0  0  0  0  0  0  0  0  0
   38.9520   32.6260   44.8680 C   0  0  0  0  0  0  0  0  0  0  0  0
   38.9430   32.9720   43.4290 C   0  0  0  0  0  0  0  0  0  0  0  0
   37.7220   32.3540   42.9280 C   0  0  0  0  0  0  0  0  0  0  0  0
   37.6820   31.1140   43.7380 C   0  0  2  0  0  0  0  0  0  0  0  0
   38.5550   30.6940   49.4450 H   0  0  0  0  0  0  0  0  0  0  0  0
   39.3520   31.5130   47.3220 H   0  0  0  0  0  0  0  0  0  0  0  0
   34.8460   29.6580   47.7370 H   0  0  0  0  0  0  0  0  0  0  0  0
   38.3960   33.4470   45.4720 H   0  0  0  0  0  0  0  0  0  0  0  0
   39.8750   32.5560   45.3970 H   0  0  0  0  0  0  0  0  0  0  0  0
   38.6160   34.1170   43.4590 H   0  0  0  0  0  0  0  0  0  0  0  0
   39.8270   33.0920   42.8610 H   0  0  0  0  0  0  0  0  0  0  0  0
   36.7920   32.9520   42.9850 H   0  0  0  0  0  0  0  0  0  0  0  0
   37.8300   32.0740   41.8570 H   0  0  0  0  0  0  0  0  0  0  0  0
   36.3210   30.4300   43.5770 C   0  0  0  0  0  0  0  0  0  0  0  0
   35.3450   31.3140   43.9850 F   0  0  0  0  0  0  0  0  0  0  0  0
   36.1490   29.2910   44.3050 F   0  0  0  0  0  0  0  0  0  0  0  0
   36.1360   30.2370   42.2250 F   0  0  0  0  0  0  0  0  0  0  0  0
   38.6590   30.1440   43.3340 C   0  0  2  0  0  0  0  0  0  0  0  0
   39.5770   30.2370   43.8710 H   0  0  0  0  0  0  0  0  0  0  0  0
   39.2990   30.2760   41.8870 C   0  0  0  0  0  0  0  0  0  0  0  0
   38.4540   30.2700   40.7540 C   0  0  0  0  0  0  0  0  0  0  0  0
   37.3900   30.0810   40.9800 H   0  0  0  0  0  0  0  0  0  0  0  0
   38.8140   30.4670   39.4650 C   0  0  0  0  0  0  0  0  0  0  0  0
   38.0770   30.4390   38.6760 H   0  0  0  0  0  0  0  0  0  0  0  0
   40.1570   30.6950   39.2840 C   0  0  0  0  0  3  0  0  0  0  0  0
   41.0020   30.7060   40.3680 C   0  0  0  0  0  3  0  0  0  0  0  0
   40.5980   30.5070   41.6230 N   0  0  0  0  0  0  0  0  0  0  0  0
   38.0820   29.0300   43.2240 O   0  0  0  0  0  0  0  0  0  0  0  0
   38.3700   27.7460   42.9620 C   0  0  0  0  0  0  0  0  0  0  0  0
   37.4320   27.1680   42.4070 O   0  0  0  0  0  0  0  0  0  0  0  0
   39.3030   26.6770   43.0210 N   0  0  0  0  0  0  0  0  0  0  0  0
   39.3480   25.9920   43.8060 H   0  0  0  0  0  0  0  0  0  0  0  0
   39.9660   26.6010   42.2160 H   0  0  0  0  0  0  0  0  0  0  0  0
  1  6  1  0  0  0  0
  1 12  1  0  0  0  0
  2  1  2  0  0  0  0
  3  4  2  0  0  0  0
  3  2  1  0  0  0  0
  4  5  1  0  0  0  0
  5 14  1  0  0  0  0
  5  6  2  0  0  0  0
  7  3  1  0  0  0  0
  8  7  1  0  0  0  0
  8 16  1  0  0  0  0
  8 15  1  0  0  0  0
  9 17  1  0  0  0  0
  9  8  1  0  0  0  0
 10 19  1  0  0  0  0
 10  9  1  0  0  0  0
 10 11  1  0  0  0  0
 11 21  1  6  0  0  0
 11  7  1  0  0  0  0
 13  2  1  0  0  0  0
 18  9  1  0  0  0  0
 20 10  1  0  0  0  0
 21 22  1  0  0  0  0
 21 23  1  0  0  0  0
 24 21  1  0  0  0  0
 25 11  1  0  0  0  0
 25 26  1  1  0  0  0
 27 25  1  0  0  0  0
 28 29  1  0  0  0  0
 28 27  2  0  0  0  0
 30 28  1  0  0  0  0
 31 30  1  0  0  0  0
 32 30  2  0  0  0  0
 32 33  1  0  0  0  0
 33 34  2  0  0  0  0
 34 27  1  0  0  0  0
 35 25  1  0  0  0  0
 36 38  1  0  0  0  0
 36 35  1  0  0  0  0
 37 36  2  0  0  0  0
 38 39  1  0  0  0  0
 40 38  1  0  0  0  0
M  END
>  <minimizedAffinity>
-4.29749632

>  <minimizedRMSD>
3.70760894

$$$$
