
 OpenBabel03272507283D

 40 42  0  0  1  0  0  0  0  0999 V2000
   34.8900   29.8950   47.4280 C   0  0  0  0  0  0  0  0  0  0  0  0
   35.6700   30.4840   46.4130 C   0  0  0  0  0  0  0  0  0  0  0  0
   35.5700   29.9250   45.1370 C   0  0  0  0  0  0  0  0  0  0  0  0
   34.7520   28.8760   44.9430 N   0  0  0  0  0  0  0  0  0  0  0  0
   34.0210   28.3400   45.9420 C   0  0  0  0  0  0  0  0  0  0  0  0
   34.0910   28.8450   47.1680 N   0  0  0  0  0  0  0  0  0  0  0  0
   36.3110   30.4400   44.0780 N   0  0  0  0  0  0  0  0  0  0  0  0
   36.7090   31.8640   43.9090 C   0  0  0  0  0  0  0  0  0  0  0  0
   37.2320   32.0290   42.5350 C   0  0  0  0  0  0  0  0  0  0  0  0
   36.7600   30.8400   41.8360 C   0  0  0  0  0  0  0  0  0  0  0  0
   36.8570   29.8250   42.9120 C   0  0  2  0  0  0  0  0  0  0  0  0
   35.0490   30.4130   48.3790 H   0  0  0  0  0  0  0  0  0  0  0  0
   36.3310   31.3270   46.5530 H   0  0  0  0  0  0  0  0  0  0  0  0
   33.3600   27.5090   45.8360 H   0  0  0  0  0  0  0  0  0  0  0  0
   35.6550   32.3460   43.9880 H   0  0  0  0  0  0  0  0  0  0  0  0
   37.2140   32.3140   44.7340 H   0  0  0  0  0  0  0  0  0  0  0  0
   36.4950   32.8530   42.0930 H   0  0  0  0  0  0  0  0  0  0  0  0
   38.1410   32.5240   42.3210 H   0  0  0  0  0  0  0  0  0  0  0  0
   35.7600   30.8930   41.3640 H   0  0  0  0  0  0  0  0  0  0  0  0
   37.4590   30.5570   41.0180 H   0  0  0  0  0  0  0  0  0  0  0  0
   36.1440   28.5400   42.4810 C   0  0  0  0  0  0  0  0  0  0  0  0
   34.7870   28.7830   42.4730 F   0  0  0  0  0  0  0  0  0  0  0  0
   36.3450   27.4610   43.2880 F   0  0  0  0  0  0  0  0  0  0  0  0
   36.5090   28.3080   41.1730 F   0  0  0  0  0  0  0  0  0  0  0  0
   38.2080   29.4440   43.2090 C   0  0  2  0  0  0  0  0  0  0  0  0
   38.2660   28.5400   43.7740 H   0  0  0  0  0  0  0  0  0  0  0  0
   39.0350   30.3330   44.2330 C   0  0  0  0  0  0  0  0  0  0  0  0
   39.8810   31.3510   43.7370 C   0  0  0  0  0  0  0  0  0  0  0  0
   39.9610   31.3830   42.6370 H   0  0  0  0  0  0  0  0  0  0  0  0
   40.5780   32.2570   44.4610 C   0  0  0  0  0  0  0  0  0  0  0  0
   41.1980   32.9950   43.9720 H   0  0  0  0  0  0  0  0  0  0  0  0
   40.4150   32.1380   45.8200 C   0  0  0  0  0  3  0  0  0  0  0  0
   39.5990   31.1570   46.3280 C   0  0  0  0  0  3  0  0  0  0  0  0
   38.9310   30.2850   45.5740 N   0  0  0  0  0  0  0  0  0  0  0  0
   38.8970   29.6020   42.1670 O   0  0  0  0  0  0  0  0  0  0  0  0
   39.8000   28.9450   41.4220 C   0  0  0  0  0  0  0  0  0  0  0  0
   39.4360   28.8350   40.2490 O   0  0  0  0  0  0  0  0  0  0  0  0
   41.0520   28.2810   41.3430 N   0  0  0  0  0  0  0  0  0  0  0  0
   41.1720   27.2540   41.4720 H   0  0  0  0  0  0  0  0  0  0  0  0
   41.8810   28.8870   41.1410 H   0  0  0  0  0  0  0  0  0  0  0  0
  1 12  1  0  0  0  0
  2 13  1  0  0  0  0
  2  1  2  0  0  0  0
  3  2  1  0  0  0  0
  4  3  2  0  0  0  0
  4  5  1  0  0  0  0
  5  6  2  0  0  0  0
  6  1  1  0  0  0  0
  7  3  1  0  0  0  0
  8 15  1  0  0  0  0
  8  7  1  0  0  0  0
  8 16  1  0  0  0  0
  9  8  1  0  0  0  0
 10  9  1  0  0  0  0
 10 11  1  0  0  0  0
 11 21  1  6  0  0  0
 11 25  1  0  0  0  0
 11  7  1  0  0  0  0
 14  5  1  0  0  0  0
 17  9  1  0  0  0  0
 18  9  1  0  0  0  0
 19 10  1  0  0  0  0
 20 10  1  0  0  0  0
 21 23  1  0  0  0  0
 22 21  1  0  0  0  0
 24 21  1  0  0  0  0
 25 26  1  1  0  0  0
 25 27  1  0  0  0  0
 27 34  1  0  0  0  0
 28 27  2  0  0  0  0
 28 30  1  0  0  0  0
 29 28  1  0  0  0  0
 30 32  2  0  0  0  0
 31 30  1  0  0  0  0
 32 33  1  0  0  0  0
 34 33  2  0  0  0  0
 35 25  1  0  0  0  0
 36 35  1  0  0  0  0
 37 36  2  0  0  0  0
 38 36  1  0  0  0  0
 38 39  1  0  0  0  0
 40 38  1  0  0  0  0
M  END
>  <minimizedAffinity>
-3.8986299

>  <minimizedRMSD>
2.98530793

$$$$
