
 OpenBabel03272506403D

 18 19  0  0  0  0  0  0  0  0999 V2000
   36.7460   30.1330   50.6840 C   0  0  0  0  0  0  0  0  0  0  0  0
   37.9710   30.5200   50.1430 C   0  0  0  0  0  0  0  0  0  0  0  0
   38.0230   30.8350   48.7750 C   0  0  0  0  0  0  0  0  0  0  0  0
   36.8660   30.7430   48.0510 N   0  0  0  0  0  0  0  0  0  0  0  0
   35.7130   30.3680   48.6110 C   0  0  0  0  0  0  0  0  0  0  0  0
   35.6400   30.0630   49.9160 N   0  0  0  0  0  0  0  0  0  0  0  0
   36.7470   29.8990   51.7390 H   0  0  0  0  0  0  0  0  0  0  0  0
   38.9040   30.6120   50.6480 H   0  0  0  0  0  0  0  0  0  0  0  0
   38.8670   31.1490   48.1880 H   0  0  0  0  0  0  0  0  0  0  0  0
   34.1950   30.2450   47.6700 S   0  0  0  0  0  0  0  0  0  0  0  0
   34.0440   28.5840   46.9910 C   0  0  0  0  0  0  0  0  0  0  0  0
   34.0570   28.3350   45.6340 C   0  0  0  0  0  0  0  0  0  0  0  0
   34.1610   29.1530   44.9420 H   0  0  0  0  0  0  0  0  0  0  0  0
   33.9310   27.0010   45.2510 C   0  0  0  0  0  0  0  0  0  0  0  0
   33.9400   26.7830   44.1890 H   0  0  0  0  0  0  0  0  0  0  0  0
   33.8020   26.0220   46.2400 C   0  0  0  0  0  3  0  0  0  0  0  0
   33.7940   26.3190   47.5850 C   0  0  0  0  0  3  0  0  0  0  0  0
   33.9180   27.6270   47.9510 N   0  0  0  0  0  0  0  0  0  0  0  0
  1  7  1  0  0  0  0
  2  8  1  0  0  0  0
  2  1  1  0  0  0  0
  3  2  2  0  0  0  0
  4  5  2  0  0  0  0
  4  3  1  0  0  0  0
  5  6  1  0  0  0  0
  6  1  2  0  0  0  0
  9  3  1  0  0  0  0
 10  5  1  0  0  0  0
 11 10  1  0  0  0  0
 11 18  1  0  0  0  0
 12 11  2  0  0  0  0
 13 12  1  0  0  0  0
 14 12  1  0  0  0  0
 14 16  2  0  0  0  0
 15 14  1  0  0  0  0
 16 17  1  0  0  0  0
 17 18  2  0  0  0  0
M  END
>  <minimizedAffinity>
-3.5029645

>  <minimizedRMSD>
2.72131705

$$$$
