
 OpenBabel03272507283D

 40 42  0  0  1  0  0  0  0  0999 V2000
   34.8680   30.0020   47.7210 C   0  0  0  0  0  0  0  0  0  0  0  0
   35.5720   30.4630   46.5910 C   0  0  0  0  0  0  0  0  0  0  0  0
   35.3280   29.8040   45.3840 C   0  0  0  0  0  0  0  0  0  0  0  0
   34.4520   28.7840   45.3590 N   0  0  0  0  0  0  0  0  0  0  0  0
   33.7980   28.3710   46.4650 C   0  0  0  0  0  0  0  0  0  0  0  0
   34.0050   28.9750   47.6300 N   0  0  0  0  0  0  0  0  0  0  0  0
   35.9860   30.1900   44.2210 N   0  0  0  0  0  0  0  0  0  0  0  0
   36.4240   31.5730   43.8910 C   0  0  0  0  0  0  0  0  0  0  0  0
   36.8210   31.5950   42.4650 C   0  0  0  0  0  0  0  0  0  0  0  0
   36.2360   30.3760   41.9200 C   0  0  0  0  0  0  0  0  0  0  0  0
   36.3920   29.4520   43.0690 C   0  0  2  0  0  0  0  0  0  0  0  0
   35.1380   30.5900   48.6040 H   0  0  0  0  0  0  0  0  0  0  0  0
   36.2770   31.2810   46.5950 H   0  0  0  0  0  0  0  0  0  0  0  0
   33.0960   27.5690   46.4940 H   0  0  0  0  0  0  0  0  0  0  0  0
   35.4040   32.1120   44.0220 H   0  0  0  0  0  0  0  0  0  0  0  0
   37.0240   32.0650   44.6220 H   0  0  0  0  0  0  0  0  0  0  0  0
   36.0800   32.4140   42.0210 H   0  0  0  0  0  0  0  0  0  0  0  0
   37.7260   32.0250   42.1270 H   0  0  0  0  0  0  0  0  0  0  0  0
   35.1990   30.4390   41.5390 H   0  0  0  0  0  0  0  0  0  0  0  0
   36.8420   29.9900   41.0710 H   0  0  0  0  0  0  0  0  0  0  0  0
   35.5890   28.1720   42.8210 C   0  0  0  0  0  0  0  0  0  0  0  0
   34.2530   28.4640   42.9920 F   0  0  0  0  0  0  0  0  0  0  0  0
   35.8740   27.1320   43.6540 F   0  0  0  0  0  0  0  0  0  0  0  0
   35.7550   27.8560   41.4900 F   0  0  0  0  0  0  0  0  0  0  0  0
   37.7490   29.0310   43.2740 C   0  0  2  0  0  0  0  0  0  0  0  0
   37.8440   28.3250   44.0700 H   0  0  0  0  0  0  0  0  0  0  0  0
   38.7840   30.0820   43.8610 C   0  0  0  0  0  0  0  0  0  0  0  0
   38.9930   30.1400   45.2580 C   0  0  0  0  0  0  0  0  0  0  0  0
   38.3310   29.4810   45.8460 H   0  0  0  0  0  0  0  0  0  0  0  0
   39.8980   30.9000   45.9170 C   0  0  0  0  0  0  0  0  0  0  0  0
   39.9690   30.8620   46.9950 H   0  0  0  0  0  0  0  0  0  0  0  0
   40.6770   31.6850   45.1000 C   0  0  0  0  0  3  0  0  0  0  0  0
   40.4930   31.6490   43.7400 C   0  0  0  0  0  3  0  0  0  0  0  0
   39.5860   30.8820   43.1340 N   0  0  0  0  0  0  0  0  0  0  0  0
   38.2650   28.8130   42.1470 O   0  0  0  0  0  0  0  0  0  0  0  0
   39.0060   27.8870   41.5180 C   0  0  0  0  0  0  0  0  0  0  0  0
   38.9300   27.9920   40.2920 O   0  0  0  0  0  0  0  0  0  0  0  0
   39.8920   26.7810   41.6050 N   0  0  0  0  0  0  0  0  0  0  0  0
   39.5780   25.7860   41.6060 H   0  0  0  0  0  0  0  0  0  0  0  0
   40.9100   27.0120   41.6700 H   0  0  0  0  0  0  0  0  0  0  0  0
  1 12  1  0  0  0  0
  2 13  1  0  0  0  0
  2  1  2  0  0  0  0
  3  2  1  0  0  0  0
  4  3  2  0  0  0  0
  4  5  1  0  0  0  0
  5 14  1  0  0  0  0
  5  6  2  0  0  0  0
  6  1  1  0  0  0  0
  7  3  1  0  0  0  0
  8 15  1  0  0  0  0
  8  7  1  0  0  0  0
  8 16  1  0  0  0  0
  9  8  1  0  0  0  0
 10  9  1  0  0  0  0
 10 11  1  0  0  0  0
 11 21  1  6  0  0  0
 11 25  1  0  0  0  0
 11  7  1  0  0  0  0
 17  9  1  0  0  0  0
 18  9  1  0  0  0  0
 19 10  1  0  0  0  0
 20 10  1  0  0  0  0
 21 22  1  0  0  0  0
 21 23  1  0  0  0  0
 24 21  1  0  0  0  0
 25 27  1  0  0  0  0
 25 26  1  1  0  0  0
 27 28  1  0  0  0  0
 28 29  1  0  0  0  0
 28 30  2  0  0  0  0
 30 31  1  0  0  0  0
 32 30  1  0  0  0  0
 33 32  2  0  0  0  0
 34 33  1  0  0  0  0
 34 27  2  0  0  0  0
 35 25  1  0  0  0  0
 36 38  1  0  0  0  0
 36 35  1  0  0  0  0
 37 36  2  0  0  0  0
 38 39  1  0  0  0  0
 38 40  1  0  0  0  0
M  END
>  <minimizedAffinity>
-3.9105587

>  <minimizedRMSD>
3.38197708

$$$$
