
 OpenBabel03272502323D

 26 27  0  0  1  0  0  0  0  0999 V2000
   39.3320   22.9920   35.7300 C   0  0  2  0  0  0  0  0  0  0  0  0
   39.9510   22.3720   36.4210 H   0  0  0  0  0  0  0  0  0  0  0  0
   40.0680   24.1910   35.2700 C   0  0  0  0  0  0  0  0  0  0  0  0
   39.3010   25.3710   35.2990 C   0  0  0  0  0  0  0  0  0  0  0  0
   38.2440   25.3960   35.6060 H   0  0  0  0  0  0  0  0  0  0  0  0
   39.7730   26.6160   34.9400 C   0  0  0  0  0  0  0  0  0  0  0  0
   39.1440   27.5140   34.9740 H   0  0  0  0  0  0  0  0  0  0  0  0
   41.0940   26.7700   34.5170 C   0  0  0  0  0  3  0  0  0  0  0  0
   41.7780   25.5750   34.5180 C   0  0  0  0  0  3  0  0  0  0  0  0
   41.3360   24.3550   34.8600 N   0  0  0  0  0  0  0  0  0  0  0  0
   37.5260   22.0340   34.5010 C   0  0  0  0  0  3  0  0  0  0  0  0
   38.8130   22.2430   34.5530 C   0  0  0  0  0  3  0  0  0  0  0  0
   35.1730   19.8220   32.6200 C   0  0  0  0  0  0  0  0  0  0  0  0
   35.8020   20.5370   33.6280 C   0  0  0  0  0  0  0  0  0  0  0  0
   36.9020   21.3400   33.3950 C   0  0  0  0  0  0  0  0  0  0  0  0
   37.3440   21.4010   32.1230 N   0  0  0  0  0  0  0  0  0  0  0  0
   36.7420   20.7170   31.1470 C   0  0  0  0  0  0  0  0  0  0  0  0
   35.6670   19.9310   31.3780 N   0  0  0  0  0  0  0  0  0  0  0  0
   34.3150   19.1910   32.7990 H   0  0  0  0  0  0  0  0  0  0  0  0
   35.3270   20.3880   34.6100 H   0  0  0  0  0  0  0  0  0  0  0  0
   37.1770   20.8290   30.1620 H   0  0  0  0  0  0  0  0  0  0  0  0
   37.8870   23.6580   36.6580 S   0  0  0  0  0  0  0  0  0  0  0  0
   38.2310   23.6810   38.4180 C   0  0  0  0  0  0  0  0  0  0  0  0
   39.5190   23.2920   38.7340 F   0  0  0  0  0  0  0  0  0  0  0  0
   37.9160   24.8970   38.9880 F   0  0  0  0  0  0  0  0  0  0  0  0
   37.3530   22.7430   39.0110 F   0  0  0  0  0  0  0  0  0  0  0  0
  1  2  1  1  0  0  0
  1 22  1  0  0  0  0
  3  4  1  0  0  0  0
  3  1  1  0  0  0  0
  4  5  1  0  0  0  0
  6  7  1  0  0  0  0
  6  4  2  0  0  0  0
  8  9  2  0  0  0  0
  8  6  1  0  0  0  0
  9 10  1  0  0  0  0
 10  3  2  0  0  0  0
 11 12  2  0  0  0  0
 12  1  1  0  0  0  0
 13 19  1  0  0  0  0
 13 14  1  0  0  0  0
 14 20  1  0  0  0  0
 15 14  2  0  0  0  0
 15 11  1  0  0  0  0
 16 15  1  0  0  0  0
 17 18  1  0  0  0  0
 17 16  2  0  0  0  0
 18 13  2  0  0  0  0
 21 17  1  0  0  0  0
 22 23  1  0  0  0  0
 23 24  1  0  0  0  0
 23 25  1  0  0  0  0
 23 26  1  0  0  0  0
M  END
>  <minimizedAffinity>
-5.26867151

$$$$

 OpenBabel03272502323D

 26 27  0  0  1  0  0  0  0  0999 V2000
   39.4090   22.6300   36.0710 C   0  0  2  0  0  0  0  0  0  0  0  0
   39.5160   21.8330   36.8460 H   0  0  0  0  0  0  0  0  0  0  0  0
   40.6910   23.3270   35.8270 C   0  0  0  0  0  0  0  0  0  0  0  0
   41.7620   22.8230   36.5900 C   0  0  0  0  0  0  0  0  0  0  0  0
   41.6500   22.0080   37.3220 H   0  0  0  0  0  0  0  0  0  0  0  0
   43.0560   23.2930   36.5210 C   0  0  0  0  0  0  0  0  0  0  0  0
   43.8650   22.8770   37.1340 H   0  0  0  0  0  0  0  0  0  0  0  0
   43.3790   24.3340   35.6480 C   0  0  0  0  0  3  0  0  0  0  0  0
   42.2830   24.7690   34.9380 C   0  0  0  0  0  3  0  0  0  0  0  0
   41.0170   24.3280   34.9930 N   0  0  0  0  0  0  0  0  0  0  0  0
   37.5640   21.9470   34.7230 C   0  0  0  0  0  3  0  0  0  0  0  0
   38.8530   22.1410   34.7800 C   0  0  0  0  0  3  0  0  0  0  0  0
   35.1180   20.2110   32.4940 C   0  0  0  0  0  0  0  0  0  0  0  0
   35.7810   20.7000   33.6090 C   0  0  0  0  0  0  0  0  0  0  0  0
   36.9050   21.4970   33.5150 C   0  0  0  0  0  0  0  0  0  0  0  0
   37.3360   21.7870   32.2710 N   0  0  0  0  0  0  0  0  0  0  0  0
   36.7010   21.3200   31.1920 C   0  0  0  0  0  0  0  0  0  0  0  0
   35.6020   20.5390   31.2870 N   0  0  0  0  0  0  0  0  0  0  0  0
   34.2400   19.5840   32.5640 H   0  0  0  0  0  0  0  0  0  0  0  0
   35.3110   20.3810   34.5530 H   0  0  0  0  0  0  0  0  0  0  0  0
   37.1290   21.6040   30.2400 H   0  0  0  0  0  0  0  0  0  0  0  0
   38.2810   23.9370   36.7140 S   0  0  0  0  0  0  0  0  0  0  0  0
   38.1670   23.8410   38.5010 C   0  0  0  0  0  0  0  0  0  0  0  0
   37.8720   25.0510   39.1010 F   0  0  0  0  0  0  0  0  0  0  0  0
   37.2980   22.8500   38.9080 F   0  0  0  0  0  0  0  0  0  0  0  0
   39.4430   23.4440   38.9640 F   0  0  0  0  0  0  0  0  0  0  0  0
  1 22  1  0  0  0  0
  1  2  1  1  0  0  0
  3  1  1  0  0  0  0
  3  4  1  0  0  0  0
  4  5  1  0  0  0  0
  6  4  2  0  0  0  0
  6  7  1  0  0  0  0
  8  6  1  0  0  0  0
  9 10  1  0  0  0  0
  9  8  2  0  0  0  0
 10  3  2  0  0  0  0
 11 12  2  0  0  0  0
 12  1  1  0  0  0  0
 13 19  1  0  0  0  0
 13 14  1  0  0  0  0
 14 20  1  0  0  0  0
 15 14  2  0  0  0  0
 15 11  1  0  0  0  0
 16 15  1  0  0  0  0
 17 18  1  0  0  0  0
 17 16  2  0  0  0  0
 18 13  2  0  0  0  0
 21 17  1  0  0  0  0
 22 23  1  0  0  0  0
 23 25  1  0  0  0  0
 23 26  1  0  0  0  0
 23 24  1  0  0  0  0
M  END
>  <minimizedAffinity>
-5.24969101

$$$$

 OpenBabel03272502323D

 26 27  0  0  1  0  0  0  0  0999 V2000
   38.9380   23.7840   34.5790 C   0  0  2  0  0  0  0  0  0  0  0  0
   40.0480   23.8510   34.4730 H   0  0  0  0  0  0  0  0  0  0  0  0
   38.3150   25.1260   34.6180 C   0  0  0  0  0  0  0  0  0  0  0  0
   38.7410   25.9170   35.7020 C   0  0  0  0  0  0  0  0  0  0  0  0
   39.4490   25.5600   36.4670 H   0  0  0  0  0  0  0  0  0  0  0  0
   38.3200   27.2080   35.9370 C   0  0  0  0  0  0  0  0  0  0  0  0
   38.6730   27.7930   36.7950 H   0  0  0  0  0  0  0  0  0  0  0  0
   37.4140   27.8200   35.0690 C   0  0  0  0  0  3  0  0  0  0  0  0
   37.0470   26.9860   34.0370 C   0  0  0  0  0  3  0  0  0  0  0  0
   37.4430   25.7280   33.7920 N   0  0  0  0  0  0  0  0  0  0  0  0
   37.5870   21.9300   33.9270 C   0  0  0  0  0  3  0  0  0  0  0  0
   38.2830   22.9600   33.5280 C   0  0  0  0  0  3  0  0  0  0  0  0
   35.0920   19.4780   32.6130 C   0  0  0  0  0  0  0  0  0  0  0  0
   35.7940   20.3420   33.4390 C   0  0  0  0  0  0  0  0  0  0  0  0
   36.8840   21.0690   33.0010 C   0  0  0  0  0  0  0  0  0  0  0  0
   37.2420   20.9000   31.7120 N   0  0  0  0  0  0  0  0  0  0  0  0
   36.5690   20.0690   30.9100 C   0  0  0  0  0  0  0  0  0  0  0  0
   35.5040   19.3590   31.3420 N   0  0  0  0  0  0  0  0  0  0  0  0
   34.2420   18.9060   32.9540 H   0  0  0  0  0  0  0  0  0  0  0  0
   35.3830   20.3760   34.4600 H   0  0  0  0  0  0  0  0  0  0  0  0
   36.9390   20.0000   29.8950 H   0  0  0  0  0  0  0  0  0  0  0  0
   38.5400   23.0370   36.2140 S   0  0  0  0  0  0  0  0  0  0  0  0
   40.0440   22.7100   37.1360 C   0  0  0  0  0  0  0  0  0  0  0  0
   39.9720   23.0870   38.4630 F   0  0  0  0  0  0  0  0  0  0  0  0
   40.4520   21.3980   37.0050 F   0  0  0  0  0  0  0  0  0  0  0  0
   41.0610   23.4880   36.5330 F   0  0  0  0  0  0  0  0  0  0  0  0
  1  2  1  6  0  0  0
  1  3  1  0  0  0  0
  1 22  1  0  0  0  0
  3  4  1  0  0  0  0
  4  6  2  0  0  0  0
  4  5  1  0  0  0  0
  6  7  1  0  0  0  0
  8  6  1  0  0  0  0
  9  8  2  0  0  0  0
 10  9  1  0  0  0  0
 10  3  2  0  0  0  0
 12 11  2  0  0  0  0
 12  1  1  0  0  0  0
 13 19  1  0  0  0  0
 13 14  1  0  0  0  0
 14 20  1  0  0  0  0
 15 14  2  0  0  0  0
 15 11  1  0  0  0  0
 16 15  1  0  0  0  0
 17 18  1  0  0  0  0
 17 16  2  0  0  0  0
 18 13  2  0  0  0  0
 21 17  1  0  0  0  0
 22 23  1  0  0  0  0
 23 24  1  0  0  0  0
 25 23  1  0  0  0  0
 26 23  1  0  0  0  0
M  END
>  <minimizedAffinity>
-4.95420504

$$$$

 OpenBabel03272502323D

 26 27  0  0  1  0  0  0  0  0999 V2000
   38.3680   24.2030   34.4820 C   0  0  2  0  0  0  0  0  0  0  0  0
   37.4790   24.8740   34.4070 H   0  0  0  0  0  0  0  0  0  0  0  0
   38.6770   23.8670   35.8890 C   0  0  0  0  0  0  0  0  0  0  0  0
   37.8390   24.5100   36.8210 C   0  0  0  0  0  0  0  0  0  0  0  0
   37.0480   25.2190   36.5320 H   0  0  0  0  0  0  0  0  0  0  0  0
   37.9170   24.3380   38.1870 C   0  0  0  0  0  0  0  0  0  0  0  0
   37.2480   24.8590   38.8820 H   0  0  0  0  0  0  0  0  0  0  0  0
   38.8710   23.4780   38.7330 C   0  0  0  0  0  3  0  0  0  0  0  0
   39.6480   22.8880   37.7610 C   0  0  0  0  0  3  0  0  0  0  0  0
   39.5900   23.0430   36.4300 N   0  0  0  0  0  0  0  0  0  0  0  0
   37.1780   22.2240   33.8850 C   0  0  0  0  0  3  0  0  0  0  0  0
   38.2430   22.9510   33.6860 C   0  0  0  0  0  3  0  0  0  0  0  0
   35.4840   19.0970   32.7370 C   0  0  0  0  0  0  0  0  0  0  0  0
   35.7690   20.2910   33.3810 C   0  0  0  0  0  0  0  0  0  0  0  0
   36.9330   21.0000   33.1530 C   0  0  0  0  0  0  0  0  0  0  0  0
   37.7940   20.4730   32.2600 N   0  0  0  0  0  0  0  0  0  0  0  0
   37.5250   19.3230   31.6340 C   0  0  0  0  0  0  0  0  0  0  0  0
   36.3860   18.6320   31.8600 N   0  0  0  0  0  0  0  0  0  0  0  0
   34.5760   18.5390   32.9150 H   0  0  0  0  0  0  0  0  0  0  0  0
   34.9720   20.5950   34.0780 H   0  0  0  0  0  0  0  0  0  0  0  0
   38.2820   18.9820   30.9400 H   0  0  0  0  0  0  0  0  0  0  0  0
   39.8530   25.1100   33.8810 S   0  0  0  0  0  0  0  0  0  0  0  0
   39.7120   26.8590   34.2550 C   0  0  0  0  0  0  0  0  0  0  0  0
   39.7500   27.1390   35.6080 F   0  0  0  0  0  0  0  0  0  0  0  0
   40.6360   27.6090   33.5570 F   0  0  0  0  0  0  0  0  0  0  0  0
   38.4460   27.2710   33.7760 F   0  0  0  0  0  0  0  0  0  0  0  0
  1  2  1  6  0  0  0
  1  3  1  0  0  0  0
  3 10  2  0  0  0  0
  3  4  1  0  0  0  0
  4  6  2  0  0  0  0
  5  4  1  0  0  0  0
  6  8  1  0  0  0  0
  6  7  1  0  0  0  0
  9  8  2  0  0  0  0
 10  9  1  0  0  0  0
 12 11  2  0  0  0  0
 12  1  1  0  0  0  0
 13 19  1  0  0  0  0
 13 14  1  0  0  0  0
 14 20  1  0  0  0  0
 15 14  2  0  0  0  0
 15 11  1  0  0  0  0
 16 15  1  0  0  0  0
 17 18  1  0  0  0  0
 17 16  2  0  0  0  0
 18 13  2  0  0  0  0
 21 17  1  0  0  0  0
 22 23  1  0  0  0  0
 22  1  1  0  0  0  0
 23 24  1  0  0  0  0
 25 23  1  0  0  0  0
 26 23  1  0  0  0  0
M  END
>  <minimizedAffinity>
-4.9479804

$$$$

 OpenBabel03272502323D

 26 27  0  0  1  0  0  0  0  0999 V2000
   39.3310   22.9700   35.6460 C   0  0  2  0  0  0  0  0  0  0  0  0
   40.0970   22.4240   36.2470 H   0  0  0  0  0  0  0  0  0  0  0  0
   39.7750   24.3420   35.3160 C   0  0  0  0  0  0  0  0  0  0  0  0
   41.0970   24.4080   34.8340 C   0  0  0  0  0  0  0  0  0  0  0  0
   41.7490   23.5250   34.7400 H   0  0  0  0  0  0  0  0  0  0  0  0
   41.7260   25.5700   34.4410 C   0  0  0  0  0  0  0  0  0  0  0  0
   42.7580   25.5820   34.0730 H   0  0  0  0  0  0  0  0  0  0  0  0
   41.0490   26.7890   34.5010 C   0  0  0  0  0  3  0  0  0  0  0  0
   39.7660   26.6420   34.9780 C   0  0  0  0  0  3  0  0  0  0  0  0
   39.1380   25.5230   35.3690 N   0  0  0  0  0  0  0  0  0  0  0  0
   37.6520   22.1230   34.1780 C   0  0  0  0  0  3  0  0  0  0  0  0
   38.9310   22.2620   34.3990 C   0  0  0  0  0  3  0  0  0  0  0  0
   37.5450   19.9940   31.1090 C   0  0  0  0  0  0  0  0  0  0  0  0
   37.9600   20.6240   32.2720 C   0  0  0  0  0  0  0  0  0  0  0  0
   37.1410   21.4750   32.9890 C   0  0  0  0  0  0  0  0  0  0  0  0
   35.8990   21.6670   32.5030 N   0  0  0  0  0  0  0  0  0  0  0  0
   35.4910   21.0610   31.3840 C   0  0  0  0  0  0  0  0  0  0  0  0
   36.2950   20.2300   30.6840 N   0  0  0  0  0  0  0  0  0  0  0  0
   38.1840   19.3310   30.5440 H   0  0  0  0  0  0  0  0  0  0  0  0
   38.9960   20.3690   32.5440 H   0  0  0  0  0  0  0  0  0  0  0  0
   34.4790   21.2850   31.0750 H   0  0  0  0  0  0  0  0  0  0  0  0
   37.8210   23.2010   36.6740 S   0  0  0  0  0  0  0  0  0  0  0  0
   38.2700   23.5470   38.3760 C   0  0  0  0  0  0  0  0  0  0  0  0
   39.5920   23.2680   38.6660 F   0  0  0  0  0  0  0  0  0  0  0  0
   37.9330   24.8340   38.7450 F   0  0  0  0  0  0  0  0  0  0  0  0
   37.4750   22.6990   39.1820 F   0  0  0  0  0  0  0  0  0  0  0  0
  1  2  1  1  0  0  0
  1 22  1  0  0  0  0
  3 10  1  0  0  0  0
  3  1  1  0  0  0  0
  4  3  2  0  0  0  0
  5  4  1  0  0  0  0
  6  8  2  0  0  0  0
  6  4  1  0  0  0  0
  7  6  1  0  0  0  0
  8  9  1  0  0  0  0
  9 10  2  0  0  0  0
 11 12  2  0  0  0  0
 12  1  1  0  0  0  0
 13 14  1  0  0  0  0
 14 20  1  0  0  0  0
 14 15  2  0  0  0  0
 15 11  1  0  0  0  0
 16 15  1  0  0  0  0
 17 16  2  0  0  0  0
 18 13  2  0  0  0  0
 18 17  1  0  0  0  0
 19 13  1  0  0  0  0
 21 17  1  0  0  0  0
 22 23  1  0  0  0  0
 23 24  1  0  0  0  0
 23 25  1  0  0  0  0
 23 26  1  0  0  0  0
M  END
>  <minimizedAffinity>
-4.89589167

$$$$

 OpenBabel03272502323D

 26 27  0  0  1  0  0  0  0  0999 V2000
   38.2060   23.7790   35.0620 C   0  0  2  0  0  0  0  0  0  0  0  0
   37.4970   23.6820   35.9200 H   0  0  0  0  0  0  0  0  0  0  0  0
   39.6070   23.5730   35.4910 C   0  0  0  0  0  0  0  0  0  0  0  0
   39.7300   22.8710   36.7060 C   0  0  0  0  0  0  0  0  0  0  0  0
   38.8640   22.5340   37.2970 H   0  0  0  0  0  0  0  0  0  0  0  0
   40.9310   22.5400   37.2960 C   0  0  0  0  0  0  0  0  0  0  0  0
   40.9870   21.9940   38.2450 H   0  0  0  0  0  0  0  0  0  0  0  0
   42.1340   22.8970   36.6860 C   0  0  0  0  0  3  0  0  0  0  0  0
   41.9320   23.5770   35.5060 C   0  0  0  0  0  3  0  0  0  0  0  0
   40.7740   23.9110   34.9170 N   0  0  0  0  0  0  0  0  0  0  0  0
   37.0880   21.8760   34.1580 C   0  0  0  0  0  3  0  0  0  0  0  0
   37.8950   22.8740   33.9220 C   0  0  0  0  0  3  0  0  0  0  0  0
   35.2370   19.1330   32.4230 C   0  0  0  0  0  0  0  0  0  0  0  0
   35.6490   20.0690   33.3580 C   0  0  0  0  0  0  0  0  0  0  0  0
   36.6920   20.9440   33.1240 C   0  0  0  0  0  0  0  0  0  0  0  0
   37.3010   20.8480   31.9250 N   0  0  0  0  0  0  0  0  0  0  0  0
   36.9080   19.9490   31.0190 C   0  0  0  0  0  0  0  0  0  0  0  0
   35.8880   19.0930   31.2510 N   0  0  0  0  0  0  0  0  0  0  0  0
   34.4230   18.4450   32.6040 H   0  0  0  0  0  0  0  0  0  0  0  0
   35.0560   20.0290   34.2850 H   0  0  0  0  0  0  0  0  0  0  0  0
   37.4650   19.9480   30.0900 H   0  0  0  0  0  0  0  0  0  0  0  0
   38.1560   25.5110   34.4400 S   0  0  0  0  0  0  0  0  0  0  0  0
   38.5260   26.6630   35.7650 C   0  0  0  0  0  0  0  0  0  0  0  0
   38.2500   26.1640   37.0240 F   0  0  0  0  0  0  0  0  0  0  0  0
   39.8180   27.1420   35.6830 F   0  0  0  0  0  0  0  0  0  0  0  0
   37.6890   27.7860   35.5660 F   0  0  0  0  0  0  0  0  0  0  0  0
  1  3  1  0  0  0  0
  1  2  1  1  0  0  0
  3  4  1  0  0  0  0
  4  6  2  0  0  0  0
  4  5  1  0  0  0  0
  6  7  1  0  0  0  0
  8  6  1  0  0  0  0
  9  8  2  0  0  0  0
 10  3  2  0  0  0  0
 10  9  1  0  0  0  0
 12 11  2  0  0  0  0
 12  1  1  0  0  0  0
 13 19  1  0  0  0  0
 13 14  1  0  0  0  0
 14 20  1  0  0  0  0
 15 14  2  0  0  0  0
 15 11  1  0  0  0  0
 16 15  1  0  0  0  0
 17 18  1  0  0  0  0
 17 16  2  0  0  0  0
 18 13  2  0  0  0  0
 21 17  1  0  0  0  0
 22  1  1  0  0  0  0
 22 23  1  0  0  0  0
 23 24  1  0  0  0  0
 25 23  1  0  0  0  0
 26 23  1  0  0  0  0
M  END
>  <minimizedAffinity>
-4.80242682

$$$$

 OpenBabel03272502323D

 26 27  0  0  1  0  0  0  0  0999 V2000
   38.7840   23.4110   36.2320 C   0  0  2  0  0  0  0  0  0  0  0  0
   38.3360   23.7250   37.2050 H   0  0  0  0  0  0  0  0  0  0  0  0
   40.1290   22.8240   36.4170 C   0  0  0  0  0  0  0  0  0  0  0  0
   41.1590   23.5670   35.8100 C   0  0  0  0  0  0  0  0  0  0  0  0
   40.9780   24.4830   35.2260 H   0  0  0  0  0  0  0  0  0  0  0  0
   42.4960   23.2340   35.8640 C   0  0  0  0  0  0  0  0  0  0  0  0
   43.2710   23.8370   35.3750 H   0  0  0  0  0  0  0  0  0  0  0  0
   42.9080   22.0950   36.5570 C   0  0  0  0  0  3  0  0  0  0  0  0
   41.8460   21.4240   37.1230 C   0  0  0  0  0  3  0  0  0  0  0  0
   40.5410   21.7300   37.0800 N   0  0  0  0  0  0  0  0  0  0  0  0
   37.9260   22.6060   34.1570 C   0  0  0  0  0  3  0  0  0  0  0  0
   37.9310   22.4710   35.4550 C   0  0  0  0  0  3  0  0  0  0  0  0
   35.4010   20.0740   33.0730 C   0  0  0  0  0  0  0  0  0  0  0  0
   36.1570   20.9500   33.8360 C   0  0  0  0  0  0  0  0  0  0  0  0
   37.1560   21.7350   33.2940 C   0  0  0  0  0  0  0  0  0  0  0  0
   37.3670   21.6120   31.9690 N   0  0  0  0  0  0  0  0  0  0  0  0
   36.6410   20.7710   31.2270 C   0  0  0  0  0  0  0  0  0  0  0  0
   35.6650   20.0030   31.7600 N   0  0  0  0  0  0  0  0  0  0  0  0
   34.6210   19.4560   33.4940 H   0  0  0  0  0  0  0  0  0  0  0  0
   35.8680   20.9420   34.8990 H   0  0  0  0  0  0  0  0  0  0  0  0
   36.8920   20.7420   30.1750 H   0  0  0  0  0  0  0  0  0  0  0  0
   39.0650   24.9070   35.1950 S   0  0  0  0  0  0  0  0  0  0  0  0
   38.2890   26.3410   35.9430 C   0  0  0  0  0  0  0  0  0  0  0  0
   37.0810   26.6800   35.3640 F   0  0  0  0  0  0  0  0  0  0  0  0
   38.1740   26.2080   37.3110 F   0  0  0  0  0  0  0  0  0  0  0  0
   39.1720   27.4280   35.7370 F   0  0  0  0  0  0  0  0  0  0  0  0
  1  3  1  0  0  0  0
  1  2  1  1  0  0  0
  3 10  1  0  0  0  0
  4  6  1  0  0  0  0
  4  3  2  0  0  0  0
  5  4  1  0  0  0  0
  6  8  2  0  0  0  0
  7  6  1  0  0  0  0
  8  9  1  0  0  0  0
 10  9  2  0  0  0  0
 11 12  2  0  0  0  0
 12  1  1  0  0  0  0
 13 19  1  0  0  0  0
 13 14  1  0  0  0  0
 14 20  1  0  0  0  0
 15 14  2  0  0  0  0
 15 11  1  0  0  0  0
 16 15  1  0  0  0  0
 17 18  1  0  0  0  0
 17 16  2  0  0  0  0
 18 13  2  0  0  0  0
 21 17  1  0  0  0  0
 22 23  1  0  0  0  0
 22  1  1  0  0  0  0
 23 25  1  0  0  0  0
 24 23  1  0  0  0  0
 26 23  1  0  0  0  0
M  END
>  <minimizedAffinity>
-4.76128435

$$$$

 OpenBabel03272502323D

 26 27  0  0  1  0  0  0  0  0999 V2000
   34.6350   30.3560   33.8850 C   0  0  2  0  0  0  0  0  0  0  0  0
   34.8530   30.7200   32.8520 H   0  0  0  0  0  0  0  0  0  0  0  0
   33.3350   29.6520   33.9500 C   0  0  0  0  0  0  0  0  0  0  0  0
   32.8450   29.4890   35.2600 C   0  0  0  0  0  0  0  0  0  0  0  0
   33.3920   29.8270   36.1540 H   0  0  0  0  0  0  0  0  0  0  0  0
   31.6460   28.8860   35.5740 C   0  0  0  0  0  0  0  0  0  0  0  0
   31.2980   28.7750   36.6080 H   0  0  0  0  0  0  0  0  0  0  0  0
   30.8240   28.3900   34.5610 C   0  0  0  0  0  3  0  0  0  0  0  0
   31.3690   28.5880   33.3120 C   0  0  0  0  0  3  0  0  0  0  0  0
   32.5330   29.1690   32.9860 N   0  0  0  0  0  0  0  0  0  0  0  0
   36.0470   28.4380   33.7560 C   0  0  0  0  0  3  0  0  0  0  0  0
   35.7020   29.4870   34.4520 C   0  0  0  0  0  3  0  0  0  0  0  0
   38.8100   26.9940   35.8160 C   0  0  0  0  0  0  0  0  0  0  0  0
   37.7820   27.8020   35.3560 C   0  0  0  0  0  0  0  0  0  0  0  0
   37.0890   27.5330   34.1910 C   0  0  0  0  0  0  0  0  0  0  0  0
   37.4610   26.4310   33.5100 N   0  0  0  0  0  0  0  0  0  0  0  0
   38.4490   25.6460   33.9490 C   0  0  0  0  0  0  0  0  0  0  0  0
   39.1260   25.9120   35.0880 N   0  0  0  0  0  0  0  0  0  0  0  0
   39.3560   27.2030   36.7250 H   0  0  0  0  0  0  0  0  0  0  0  0
   37.5930   28.6610   36.0180 H   0  0  0  0  0  0  0  0  0  0  0  0
   38.6750   24.7890   33.3280 H   0  0  0  0  0  0  0  0  0  0  0  0
   34.4370   31.8090   34.9980 S   0  0  0  0  0  0  0  0  0  0  0  0
   36.0200   32.6050   35.2760 C   0  0  0  0  0  0  0  0  0  0  0  0
   36.7470   32.8070   34.1180 F   0  0  0  0  0  0  0  0  0  0  0  0
   35.8880   33.7720   36.0000 F   0  0  0  0  0  0  0  0  0  0  0  0
   36.7710   31.7300   36.0960 F   0  0  0  0  0  0  0  0  0  0  0  0
  1  2  1  6  0  0  0
  1  3  1  0  0  0  0
  1 12  1  0  0  0  0
  1 22  1  0  0  0  0
  3  4  1  0  0  0  0
  4  6  2  0  0  0  0
  4  5  1  0  0  0  0
  6  7  1  0  0  0  0
  8  6  1  0  0  0  0
  9  8  2  0  0  0  0
 10  9  1  0  0  0  0
 10  3  2  0  0  0  0
 11 15  1  0  0  0  0
 11 12  2  0  0  0  0
 13 19  1  0  0  0  0
 14 13  1  0  0  0  0
 14 20  1  0  0  0  0
 15 14  2  0  0  0  0
 16 17  2  0  0  0  0
 16 15  1  0  0  0  0
 17 18  1  0  0  0  0
 18 13  2  0  0  0  0
 21 17  1  0  0  0  0
 22 23  1  0  0  0  0
 23 25  1  0  0  0  0
 23 26  1  0  0  0  0
 24 23  1  0  0  0  0
M  END
>  <minimizedAffinity>
-4.69760227

$$$$

 OpenBabel03272502323D

 26 27  0  0  1  0  0  0  0  0999 V2000
   35.0000   29.4080   34.1320 C   0  0  2  0  0  0  0  0  0  0  0  0
   34.4580   29.0800   35.0510 H   0  0  0  0  0  0  0  0  0  0  0  0
   35.4800   30.8020   34.2530 C   0  0  0  0  0  0  0  0  0  0  0  0
   35.6650   31.2230   35.5840 C   0  0  0  0  0  0  0  0  0  0  0  0
   35.4440   30.5850   36.4540 H   0  0  0  0  0  0  0  0  0  0  0  0
   36.1270   32.4690   35.9500 C   0  0  0  0  0  0  0  0  0  0  0  0
   36.2560   32.7620   36.9990 H   0  0  0  0  0  0  0  0  0  0  0  0
   36.4500   33.4130   34.9740 C   0  0  0  0  0  3  0  0  0  0  0  0
   36.2450   32.9280   33.7010 C   0  0  0  0  0  3  0  0  0  0  0  0
   35.7950   31.7220   33.3250 N   0  0  0  0  0  0  0  0  0  0  0  0
   36.7180   27.8610   34.7180 C   0  0  0  0  0  3  0  0  0  0  0  0
   36.1340   28.5210   33.7550 C   0  0  0  0  0  3  0  0  0  0  0  0
   40.1310   26.3480   34.8780 C   0  0  0  0  0  0  0  0  0  0  0  0
   39.0310   27.1650   35.0900 C   0  0  0  0  0  0  0  0  0  0  0  0
   37.8140   26.9490   34.4730 C   0  0  0  0  0  0  0  0  0  0  0  0
   37.7390   25.8900   33.6430 N   0  0  0  0  0  0  0  0  0  0  0  0
   38.7950   25.0970   33.4350 C   0  0  0  0  0  0  0  0  0  0  0  0
   39.9840   25.3120   34.0390 N   0  0  0  0  0  0  0  0  0  0  0  0
   41.0850   26.5160   35.3560 H   0  0  0  0  0  0  0  0  0  0  0  0
   39.2450   27.9860   35.7930 H   0  0  0  0  0  0  0  0  0  0  0  0
   38.6340   24.2770   32.7470 H   0  0  0  0  0  0  0  0  0  0  0  0
   33.8160   29.4420   32.7220 S   0  0  0  0  0  0  0  0  0  0  0  0
   32.1510   29.0950   33.2940 C   0  0  0  0  0  0  0  0  0  0  0  0
   32.0650   28.9080   34.6600 F   0  0  0  0  0  0  0  0  0  0  0  0
   31.2490   30.0430   32.8560 F   0  0  0  0  0  0  0  0  0  0  0  0
   31.7600   27.8830   32.6790 F   0  0  0  0  0  0  0  0  0  0  0  0
  1  3  1  0  0  0  0
  1  2  1  1  0  0  0
  3  4  1  0  0  0  0
  4  6  2  0  0  0  0
  4  5  1  0  0  0  0
  6  7  1  0  0  0  0
  8  6  1  0  0  0  0
  9  8  2  0  0  0  0
 10  9  1  0  0  0  0
 10  3  2  0  0  0  0
 12  1  1  0  0  0  0
 12 11  2  0  0  0  0
 13 14  1  0  0  0  0
 13 19  1  0  0  0  0
 14 20  1  0  0  0  0
 15 11  1  0  0  0  0
 15 14  2  0  0  0  0
 16 15  1  0  0  0  0
 17 16  2  0  0  0  0
 17 18  1  0  0  0  0
 18 13  2  0  0  0  0
 21 17  1  0  0  0  0
 22 23  1  0  0  0  0
 22  1  1  0  0  0  0
 23 24  1  0  0  0  0
 25 23  1  0  0  0  0
 26 23  1  0  0  0  0
M  END
>  <minimizedAffinity>
-4.63606024

$$$$
