
 OpenBabel03262522023D

 38 41  0  0  1  0  0  0  0  0999 V2000
   34.4640   29.2060   48.8230 C   0  0  2  0  0  0  0  0  0  0  0  0
   35.1460   28.4490   49.9130 C   0  0  0  0  0  0  0  0  0  0  0  0
   36.3320   29.1840   50.3290 N   0  0  0  0  0  0  0  0  0  0  0  0
   37.3350   29.8770   51.0820 C   0  0  0  0  0  0  0  0  0  0  0  0
   37.6200   30.0470   52.2860 O   0  0  0  0  0  0  0  0  0  0  0  0
   38.0130   30.3960   49.8960 C   0  0  1  0  0  0  0  0  0  0  0  0
   37.1320   29.4260   49.1560 C   0  0  2  0  0  0  0  0  0  0  0  0
   35.8450   30.1860   48.1130 S   0  0  0  0  0  0  0  0  0  0  0  0
   35.4440   27.4530   49.5730 H   0  0  0  0  0  0  0  0  0  0  0  0
   34.4900   28.3440   50.8010 H   0  0  0  0  0  0  0  0  0  0  0  0
   39.0720   30.0920   49.6940 H   0  0  0  0  0  0  0  0  0  0  0  0
   37.6120   28.5430   48.7100 H   0  0  0  0  0  0  0  0  0  0  0  0
   33.2980   30.0390   49.2350 C   0  0  0  0  0  0  0  0  0  0  0  0
   33.4930   31.1220   49.0650 H   0  0  0  0  0  0  0  0  0  0  0  0
   32.3380   29.7750   48.7760 H   0  0  0  0  0  0  0  0  0  0  0  0
   33.2250   29.9460   50.3580 H   0  0  0  0  0  0  0  0  0  0  0  0
   34.0920   28.2120   47.7120 C   0  0  0  0  0  0  0  0  0  0  0  0
   34.6430   27.2830   47.9400 H   0  0  0  0  0  0  0  0  0  0  0  0
   34.5200   28.6300   46.7780 H   0  0  0  0  0  0  0  0  0  0  0  0
   32.6420   28.0160   47.5780 C   0  0  0  0  0  0  0  0  0  0  0  0
   31.9900   27.1070   48.3840 C   0  0  0  0  0  0  0  0  0  0  0  0
   32.6080   26.5550   49.1110 H   0  0  0  0  0  0  0  0  0  0  0  0
   30.6360   26.8020   48.3880 C   0  0  0  0  0  0  0  0  0  0  0  0
   30.2570   26.0620   49.0800 H   0  0  0  0  0  0  0  0  0  0  0  0
   29.8860   27.5230   47.4530 C   0  0  0  0  0  0  0  0  0  0  0  0
   30.5140   28.4430   46.6300 C   0  0  0  0  0  0  0  0  0  0  0  0
   31.8380   28.6610   46.7110 N   0  0  0  0  0  0  0  0  0  0  0  0
   37.7980   31.8350   49.6140 C   0  0  0  0  0  0  0  0  0  0  0  0
   36.8270   32.3440   50.2430 O   0  0  0  0  0  0  0  0  0  0  0  0
   38.6300   32.5820   48.7060 C   0  0  0  0  0  0  0  0  0  0  0  0
   39.1520   33.7830   49.1610 C   0  0  0  0  0  0  0  0  0  0  0  0
   39.9700   34.5230   48.2730 C   0  0  0  0  0  0  0  0  0  0  0  0
   40.1920   34.0090   47.0300 N   0  0  0  0  0  0  0  0  0  0  0  0
   39.6720   32.8520   46.6310 C   0  0  0  0  0  0  0  0  0  0  0  0
   38.8900   32.1350   47.4660 N   0  0  0  0  0  0  0  0  0  0  0  0
   38.9850   34.2050   50.1480 H   0  0  0  0  0  0  0  0  0  0  0  0
   40.3720   35.4590   48.6420 H   0  0  0  0  0  0  0  0  0  0  0  0
   39.8770   32.4890   45.6400 H   0  0  0  0  0  0  0  0  0  0  0  0
  1 17  1  6  0  0  0
  1 13  1  0  0  0  0
  1  2  1  0  0  0  0
  2  3  1  0  0  0  0
  2 10  1  0  0  0  0
  3  4  1  0  0  0  0
  4  5  2  0  0  0  0
  6 11  1  6  0  0  0
  6  4  1  0  0  0  0
  7 12  1  6  0  0  0
  7  6  1  0  0  0  0
  7  3  1  0  0  0  0
  8  1  1  0  0  0  0
  8  7  1  0  0  0  0
  9  2  1  0  0  0  0
 13 16  1  0  0  0  0
 14 13  1  0  0  0  0
 15 13  1  0  0  0  0
 17 18  1  0  0  0  0
 19 17  1  0  0  0  0
 20 17  1  0  0  0  0
 20 21  1  0  0  0  0
 21 23  2  0  0  0  0
 21 22  1  0  0  0  0
 23 24  1  0  0  0  0
 25 23  1  0  0  0  0
 26 27  1  0  0  0  0
 26 25  2  0  0  0  0
 27 20  2  0  0  0  0
 28  6  1  0  0  0  0
 28 29  2  0  0  0  0
 30 31  1  0  0  0  0
 30 28  1  0  0  0  0
 31 36  1  0  0  0  0
 32 37  1  0  0  0  0
 32 31  2  0  0  0  0
 33 32  1  0  0  0  0
 34 33  2  0  0  0  0
 34 35  1  0  0  0  0
 35 30  2  0  0  0  0
 38 34  1  0  0  0  0
M  END
>  <minimizedAffinity>
-5.31799936

>  <minimizedRMSD>
1.72869575

$$$$
