
 OpenBabel03272508353D

 44 48  0  0  0  0  0  0  0  0999 V2000
   41.4760   36.9100   42.8870 C   0  0  0  0  0  0  0  0  0  0  0  0
   41.8380   36.0920   43.5710 H   0  0  0  0  0  0  0  0  0  0  0  0
   40.9500   37.6460   43.5090 H   0  0  0  0  0  0  0  0  0  0  0  0
   42.6790   37.4660   42.2500 C   0  0  0  0  0  0  0  0  0  0  0  0
   43.6460   38.0520   43.0420 C   0  0  0  0  0  0  0  0  0  0  0  0
   43.4990   38.0890   44.1110 H   0  0  0  0  0  0  0  0  0  0  0  0
   44.7800   38.5780   42.4590 C   0  0  0  0  0  0  0  0  0  0  0  0
   45.4970   39.0240   43.1660 H   0  0  0  0  0  0  0  0  0  0  0  0
   45.0330   38.5660   41.1040 C   0  0  0  0  0  0  0  0  0  0  0  0
   44.0580   37.9780   40.3370 C   0  0  0  0  0  0  0  0  0  0  0  0
   42.9450   37.4610   40.8960 C   0  0  0  0  0  0  0  0  0  0  0  0
   42.1790   36.9960   40.2550 H   0  0  0  0  0  0  0  0  0  0  0  0
   44.2900   37.9130   38.5730 S   0  0  0  0  0  0  0  0  0  0  0  0
   45.8540   38.6890   38.2520 C   0  0  0  0  0  0  0  0  0  0  0  0
   46.3100   38.7900   36.9650 C   0  0  0  0  0  0  0  0  0  0  0  0
   45.7070   38.3890   36.1360 H   0  0  0  0  0  0  0  0  0  0  0  0
   47.5080   39.3750   36.6210 C   0  0  0  0  0  0  0  0  0  0  0  0
   47.9170   39.4810   35.6290 H   0  0  0  0  0  0  0  0  0  0  0  0
   48.2650   39.8770   37.6590 C   0  0  0  0  0  0  0  0  0  0  0  0
   49.2160   40.3480   37.4520 H   0  0  0  0  0  0  0  0  0  0  0  0
   47.7880   39.7650   38.9490 C   0  0  0  0  0  0  0  0  0  0  0  0
   48.4480   40.1900   39.7190 H   0  0  0  0  0  0  0  0  0  0  0  0
   46.5890   39.1810   39.2980 C   0  0  0  0  0  0  0  0  0  0  0  0
   46.2450   39.1470   40.6610 N   0  0  0  0  0  0  0  0  0  0  0  0
   46.8960   39.5580   41.3600 H   0  0  0  0  0  0  0  0  0  0  0  0
   40.6080   36.2210   41.8670 C   0  0  0  0  0  0  0  0  0  0  0  0
   39.8210   36.9220   41.5190 H   0  0  0  0  0  0  0  0  0  0  0  0
   41.2380   35.8850   41.0360 H   0  0  0  0  0  0  0  0  0  0  0  0
   39.4040   33.4650   43.8610 C   0  0  0  0  0  0  0  0  0  0  0  0
   38.9120   33.1350   42.6290 C   0  0  0  0  0  0  0  0  0  0  0  0
   39.3010   34.1240   41.7280 C   0  0  0  0  0  0  0  0  0  0  0  0
   40.0160   35.0190   42.4530 N   0  0  0  0  0  0  0  0  0  0  0  0
   40.0760   34.6240   43.7240 N   0  0  0  0  0  0  0  0  0  0  0  0
   38.3140   32.2810   42.2930 H   0  0  0  0  0  0  0  0  0  0  0  0
   39.0900   34.1900   40.6650 H   0  0  0  0  0  0  0  0  0  0  0  0
   39.3110   32.1620   47.3790 C   0  0  0  0  0  0  0  0  0  0  0  0
   39.5760   33.0330   46.3320 C   0  0  0  0  0  0  0  0  0  0  0  0
   39.1840   32.6460   45.0380 C   0  0  0  0  0  0  0  0  0  0  0  0
   38.5670   31.4350   44.9030 N   0  0  0  0  0  0  0  0  0  0  0  0
   38.3250   30.6130   45.9520 C   0  0  0  0  0  0  0  0  0  0  0  0
   38.6980   30.9800   47.1830 N   0  0  0  0  0  0  0  0  0  0  0  0
   39.6410   32.5260   48.3460 H   0  0  0  0  0  0  0  0  0  0  0  0
   40.0640   33.9850   46.4560 H   0  0  0  0  0  0  0  0  0  0  0  0
   37.8310   29.6790   45.7300 H   0  0  0  0  0  0  0  0  0  0  0  0
  1  3  1  0  0  0  0
  1  2  1  0  0  0  0
  4  1  1  0  0  0  0
  4  5  1  0  0  0  0
  5  6  1  0  0  0  0
  7  5  2  0  0  0  0
  7  8  1  0  0  0  0
  9  7  1  0  0  0  0
 10 11  1  0  0  0  0
 10  9  2  0  0  0  0
 11  4  2  0  0  0  0
 12 11  1  0  0  0  0
 13 10  1  0  0  0  0
 14 13  1  0  0  0  0
 14 23  1  0  0  0  0
 15 14  2  0  0  0  0
 16 15  1  0  0  0  0
 17 15  1  0  0  0  0
 17 19  2  0  0  0  0
 18 17  1  0  0  0  0
 19 21  1  0  0  0  0
 20 19  1  0  0  0  0
 21 23  2  0  0  0  0
 21 22  1  0  0  0  0
 23 24  1  0  0  0  0
 24  9  1  0  0  0  0
 24 25  1  0  0  0  0
 26 32  1  0  0  0  0
 26  1  1  0  0  0  0
 27 26  1  0  0  0  0
 28 26  1  0  0  0  0
 29 38  1  0  0  0  0
 30 29  1  0  0  0  0
 31 32  1  0  0  0  0
 31 30  2  0  0  0  0
 32 33  1  0  0  0  0
 33 29  2  0  0  0  0
 34 30  1  0  0  0  0
 35 31  1  0  0  0  0
 36 42  1  0  0  0  0
 37 43  1  0  0  0  0
 37 36  2  0  0  0  0
 38 37  1  0  0  0  0
 39 38  2  0  0  0  0
 39 40  1  0  0  0  0
 40 41  2  0  0  0  0
 41 36  1  0  0  0  0
 44 40  1  0  0  0  0
M  END
>  <minimizedAffinity>
-1.58202469

>  <minimizedRMSD>
4.37228727

$$$$
