
 OpenBabel03272503423D

 54 59  0  0  1  0  0  0  0  0999 V2000
   40.0020   30.9770   41.7680 C   0  0  2  0  0  0  0  0  0  0  0  0
   39.7910   32.1700   42.7030 C   0  0  1  0  0  0  0  0  0  0  0  0
   38.6120   32.8010   42.0130 C   0  0  0  0  0  0  0  0  0  0  0  0
   38.7910   32.6130   40.6630 O   0  0  0  0  0  0  0  0  0  0  0  0
   39.7930   31.7160   40.4430 C   0  0  0  0  0  0  0  0  0  0  0  0
   41.0170   30.5600   41.8650 H   0  0  0  0  0  0  0  0  0  0  0  0
   40.6450   32.8580   42.7020 H   0  0  0  0  0  0  0  0  0  0  0  0
   37.6830   32.3740   42.4120 H   0  0  0  0  0  0  0  0  0  0  0  0
   38.6380   33.8910   42.3050 H   0  0  0  0  0  0  0  0  0  0  0  0
   40.7100   32.2740   40.1860 H   0  0  0  0  0  0  0  0  0  0  0  0
   39.4710   31.0130   39.6450 H   0  0  0  0  0  0  0  0  0  0  0  0
   38.4740   31.1320   45.8830 C   0  0  0  0  0  0  0  0  0  0  0  0
   39.8110   31.0090   46.1300 C   0  0  0  0  0  0  0  0  0  0  0  0
   40.4270   31.3950   44.9390 C   0  0  0  0  0  0  0  0  0  0  0  0
   39.4940   31.7270   44.0400 N   0  0  0  0  0  0  0  0  0  0  0  0
   38.2980   31.5650   44.6190 N   0  0  0  0  0  0  0  0  0  0  0  0
   40.2710   30.6800   47.0660 H   0  0  0  0  0  0  0  0  0  0  0  0
   41.5160   31.3900   44.8600 H   0  0  0  0  0  0  0  0  0  0  0  0
   36.5350   30.6380   49.0580 C   0  0  0  0  0  0  0  0  0  0  0  0
   37.5660   30.9270   48.1910 C   0  0  0  0  0  0  0  0  0  0  0  0
   37.4280   30.8410   46.8300 C   0  0  0  0  0  0  0  0  0  0  0  0
   36.2050   30.4540   46.3700 N   0  0  0  0  0  0  0  0  0  0  0  0
   35.1870   30.1710   47.2360 C   0  0  0  0  0  0  0  0  0  0  0  0
   35.3310   30.2550   48.5410 N   0  0  0  0  0  0  0  0  0  0  0  0
   38.5590   31.2390   48.5150 H   0  0  0  0  0  0  0  0  0  0  0  0
   34.2100   29.8600   46.8390 H   0  0  0  0  0  0  0  0  0  0  0  0
   36.8670   30.7820   50.3960 O   0  0  0  0  0  0  0  0  0  0  0  0
   36.9040   29.6940   51.2940 C   0  0  0  0  0  0  0  0  0  0  0  0
   35.6400   29.2470   51.6350 F   0  0  0  0  0  0  0  0  0  0  0  0
   37.5970   30.0750   52.4120 F   0  0  0  0  0  0  0  0  0  0  0  0
   37.5960   28.6530   50.7020 F   0  0  0  0  0  0  0  0  0  0  0  0
   38.9490   30.1050   41.9880 O   0  0  0  0  0  0  0  0  0  0  0  0
   39.0050   28.7410   42.0770 C   0  0  0  0  0  0  0  0  0  0  0  0
   39.0310   28.0160   43.2510 C   0  0  0  0  0  0  0  0  0  0  0  0
   39.0070   28.5580   44.1850 H   0  0  0  0  0  0  0  0  0  0  0  0
   39.0870   26.6390   43.1920 C   0  0  0  0  0  0  0  0  0  0  0  0
   39.1050   26.1390   44.1740 H   0  0  0  0  0  0  0  0  0  0  0  0
   39.1200   25.8910   42.0350 C   0  0  0  0  0  0  0  0  0  0  0  0
   39.0940   26.6360   40.8950 C   0  0  0  0  0  0  0  0  0  0  0  0
   39.0380   28.0030   40.9130 C   0  0  0  0  0  0  0  0  0  0  0  0
   39.0190   28.5420   39.9510 H   0  0  0  0  0  0  0  0  0  0  0  0
   39.1310   25.7970   39.3230 S   0  0  0  0  0  0  0  0  0  0  0  0
   39.2000   24.0650   39.6810 C   0  0  0  0  0  0  0  0  0  0  0  0
   39.2370   23.1780   38.6630 C   0  0  0  0  0  0  0  0  0  0  0  0
   39.2290   23.4640   37.6130 H   0  0  0  0  0  0  0  0  0  0  0  0
   39.2920   21.7970   38.8860 C   0  0  0  0  0  0  0  0  0  0  0  0
   39.3240   21.0600   38.0950 H   0  0  0  0  0  0  0  0  0  0  0  0
   39.3060   21.3620   40.1960 C   0  0  0  0  0  0  0  0  0  0  0  0
   39.3480   20.3150   40.3860 H   0  0  0  0  0  0  0  0  0  0  0  0
   39.2660   22.3140   41.1920 C   0  0  0  0  0  0  0  0  0  0  0  0
   39.2810   21.8920   42.1980 H   0  0  0  0  0  0  0  0  0  0  0  0
   39.2120   23.6760   40.9950 C   0  0  0  0  0  0  0  0  0  0  0  0
   39.1760   24.5020   42.1360 N   0  0  0  0  0  0  0  0  0  0  0  0
   39.1910   24.0650   43.0830 H   0  0  0  0  0  0  0  0  0  0  0  0
  1  6  1  1  0  0  0
  1 32  1  0  0  0  0
  1  2  1  0  0  0  0
  2  7  1  6  0  0  0
  2 15  1  0  0  0  0
  3  9  1  0  0  0  0
  3  8  1  0  0  0  0
  3  2  1  0  0  0  0
  4  3  1  0  0  0  0
  5  4  1  0  0  0  0
  5  1  1  0  0  0  0
 10  5  1  0  0  0  0
 11  5  1  0  0  0  0
 12 13  1  0  0  0  0
 12 21  1  0  0  0  0
 13 17  1  0  0  0  0
 14 13  2  0  0  0  0
 15 16  1  0  0  0  0
 15 14  1  0  0  0  0
 16 12  2  0  0  0  0
 18 14  1  0  0  0  0
 19 27  1  0  0  0  0
 20 25  1  0  0  0  0
 20 19  2  0  0  0  0
 21 20  1  0  0  0  0
 22 21  2  0  0  0  0
 22 23  1  0  0  0  0
 23 24  2  0  0  0  0
 24 19  1  0  0  0  0
 26 23  1  0  0  0  0
 27 28  1  0  0  0  0
 28 29  1  0  0  0  0
 28 30  1  0  0  0  0
 31 28  1  0  0  0  0
 32 33  1  0  0  0  0
 33 34  1  0  0  0  0
 34 35  1  0  0  0  0
 36 34  2  0  0  0  0
 36 37  1  0  0  0  0
 38 53  1  0  0  0  0
 38 36  1  0  0  0  0
 39 40  1  0  0  0  0
 39 38  2  0  0  0  0
 40 33  2  0  0  0  0
 41 40  1  0  0  0  0
 42 43  1  0  0  0  0
 42 39  1  0  0  0  0
 43 52  1  0  0  0  0
 44 46  1  0  0  0  0
 44 43  2  0  0  0  0
 45 44  1  0  0  0  0
 46 48  2  0  0  0  0
 47 46  1  0  0  0  0
 48 49  1  0  0  0  0
 48 50  1  0  0  0  0
 50 51  1  0  0  0  0
 52 50  2  0  0  0  0
 52 53  1  0  0  0  0
 53 54  1  0  0  0  0
M  END
>  <minimizedAffinity>
-6.80820274

>  <minimizedRMSD>
1.09573412

$$$$
