
 OpenBabel03272501033D

 50 54  0  0  0  0  0  0  0  0999 V2000
   34.7070   27.9160   48.2750 O   0  0  0  0  0  0  0  0  0  0  0  0
   34.0390   29.0580   47.5170 P   0  0  1  0  0  0  0  0  0  0  0  0
   34.4830   28.9060   45.8950 O   0  0  0  0  0  0  0  0  0  0  0  0
   37.0440   29.6610   46.2520 F   0  0  0  0  0  0  0  0  0  0  0  0
   36.3430   30.2390   45.2310 C   0  0  0  0  0  0  0  0  0  0  0  0
   36.8800   31.1810   44.3860 C   0  0  0  0  0  0  0  0  0  0  0  0
   36.1100   31.7050   43.3960 C   0  0  0  0  0  0  0  0  0  0  0  0
   34.7870   31.3340   43.1900 C   0  0  0  0  0  0  0  0  0  0  0  0
   34.2550   30.3800   44.0520 C   0  0  0  0  0  0  0  0  0  0  0  0
   35.0260   29.8310   45.0720 C   0  0  0  0  0  0  0  0  0  0  0  0
   36.5020   32.4490   42.7120 H   0  0  0  0  0  0  0  0  0  0  0  0
   34.2100   31.7790   42.3870 H   0  0  0  0  0  0  0  0  0  0  0  0
   33.2210   30.1020   43.8760 H   0  0  0  0  0  0  0  0  0  0  0  0
   39.7530   33.2100   45.4010 C   0  0  0  0  0  0  0  0  0  0  0  0
   40.8620   32.4510   45.0120 C   0  0  0  0  0  0  0  0  0  0  0  0
   40.6100   31.2260   44.3930 C   0  0  0  0  0  0  0  0  0  0  0  0
   39.3230   30.8150   44.1900 N   0  0  0  0  0  0  0  0  0  0  0  0
   38.2720   31.5870   44.5850 C   0  0  0  0  0  0  0  0  0  0  0  0
   38.5030   32.7780   45.1870 N   0  0  0  0  0  0  0  0  0  0  0  0
   39.9160   34.1680   45.8840 H   0  0  0  0  0  0  0  0  0  0  0  0
   41.8800   32.7890   45.1780 H   0  0  0  0  0  0  0  0  0  0  0  0
   41.4480   30.6190   44.0820 H   0  0  0  0  0  0  0  0  0  0  0  0
   32.3980   28.9630   47.8190 O   0  0  0  0  0  0  0  0  0  0  0  0
   31.5260   28.2700   46.9910 C   0  0  0  0  0  0  0  0  0  0  0  0
   31.9090   27.0880   46.3910 C   0  0  0  0  0  0  0  0  0  0  0  0
   32.8950   26.6760   46.5510 H   0  0  0  0  0  0  0  0  0  0  0  0
   30.9900   26.4520   45.5800 C   0  0  0  0  0  0  0  0  0  0  0  0
   31.3500   25.5150   45.1290 H   0  0  0  0  0  0  0  0  0  0  0  0
   29.7080   26.8940   45.3110 C   0  0  0  0  0  0  0  0  0  0  0  0
   29.3920   28.0730   45.9400 C   0  0  0  0  0  0  0  0  0  0  0  0
   30.2570   28.7550   46.7570 C   0  0  0  0  0  0  0  0  0  0  0  0
   29.9580   29.6950   47.2370 H   0  0  0  0  0  0  0  0  0  0  0  0
   27.7860   28.7720   45.6980 S   0  0  0  0  0  0  0  0  0  0  0  0
   26.9130   27.6870   44.6160 C   0  0  0  0  0  0  0  0  0  0  0  0
   25.6460   27.9280   44.2230 C   0  0  0  0  0  0  0  0  0  0  0  0
   25.1730   28.8400   44.6100 H   0  0  0  0  0  0  0  0  0  0  0  0
   24.9050   27.1200   43.3790 C   0  0  0  0  0  0  0  0  0  0  0  0
   23.8920   27.4070   43.1260 H   0  0  0  0  0  0  0  0  0  0  0  0
   25.5530   25.9890   42.9260 C   0  0  0  0  0  0  0  0  0  0  0  0
   25.0200   25.3310   42.2680 H   0  0  0  0  0  0  0  0  0  0  0  0
   26.8510   25.7360   43.3230 C   0  0  0  0  0  0  0  0  0  0  0  0
   27.2770   24.8100   42.9070 H   0  0  0  0  0  0  0  0  0  0  0  0
   27.5630   26.5630   44.1680 C   0  0  0  0  0  0  0  0  0  0  0  0
   28.8640   26.1410   44.4580 N   0  0  0  0  0  0  0  0  0  0  0  0
   29.2740   25.2660   44.0680 H   0  0  0  0  0  0  0  0  0  0  0  0
   34.6580   30.5080   48.1810 O   0  0  0  0  0  0  0  0  0  0  0  0
   35.2560   30.3260   49.3950 C   0  0  0  0  0  0  0  0  0  0  0  0
   36.3270   29.4690   49.3420 F   0  0  0  0  0  0  0  0  0  0  0  0
   35.7050   31.5480   49.8170 F   0  0  0  0  0  0  0  0  0  0  0  0
   34.3360   29.8410   50.3210 F   0  0  0  0  0  0  0  0  0  0  0  0
  2 23  1  0  0  0  0
  2 46  1  0  0  0  0
  2  1  2  1  0  0  0
  3  2  1  0  0  0  0
  5  4  1  0  0  0  0
  6 18  1  0  0  0  0
  6  5  2  0  0  0  0
  7  6  1  0  0  0  0
  8  7  2  0  0  0  0
  8  9  1  0  0  0  0
  9 10  2  0  0  0  0
 10  5  1  0  0  0  0
 10  3  1  0  0  0  0
 11  7  1  0  0  0  0
 12  8  1  0  0  0  0
 13  9  1  0  0  0  0
 14 20  1  0  0  0  0
 15 21  1  0  0  0  0
 15 14  2  0  0  0  0
 16 15  1  0  0  0  0
 17 16  2  0  0  0  0
 17 18  1  0  0  0  0
 18 19  2  0  0  0  0
 19 14  1  0  0  0  0
 22 16  1  0  0  0  0
 24 23  1  0  0  0  0
 25 26  1  0  0  0  0
 25 24  2  0  0  0  0
 27 25  1  0  0  0  0
 28 27  1  0  0  0  0
 29 27  2  0  0  0  0
 29 30  1  0  0  0  0
 30 31  2  0  0  0  0
 31 24  1  0  0  0  0
 31 32  1  0  0  0  0
 33 30  1  0  0  0  0
 34 33  1  0  0  0  0
 35 36  1  0  0  0  0
 35 34  1  0  0  0  0
 37 35  2  0  0  0  0
 38 37  1  0  0  0  0
 39 41  2  0  0  0  0
 39 37  1  0  0  0  0
 40 39  1  0  0  0  0
 41 43  1  0  0  0  0
 42 41  1  0  0  0  0
 43 44  1  0  0  0  0
 43 34  2  0  0  0  0
 44 29  1  0  0  0  0
 45 44  1  0  0  0  0
 46 47  1  0  0  0  0
 47 49  1  0  0  0  0
 47 50  1  0  0  0  0
 48 47  1  0  0  0  0
M  END
>  <minimizedAffinity>
-5.73267221

>  <minimizedRMSD>
4.63658524

$$$$
