
 OpenBabel03272503423D

 54 59  0  0  1  0  0  0  0  0999 V2000
   40.0010   30.9780   41.7700 C   0  0  2  0  0  0  0  0  0  0  0  0
   39.7900   32.1700   42.7050 C   0  0  1  0  0  0  0  0  0  0  0  0
   38.6100   32.8020   42.0150 C   0  0  0  0  0  0  0  0  0  0  0  0
   38.7900   32.6130   40.6640 O   0  0  0  0  0  0  0  0  0  0  0  0
   39.7920   31.7170   40.4440 C   0  0  0  0  0  0  0  0  0  0  0  0
   41.0160   30.5600   41.8670 H   0  0  0  0  0  0  0  0  0  0  0  0
   40.6430   32.8580   42.7040 H   0  0  0  0  0  0  0  0  0  0  0  0
   37.6820   32.3740   42.4130 H   0  0  0  0  0  0  0  0  0  0  0  0
   38.6360   33.8910   42.3070 H   0  0  0  0  0  0  0  0  0  0  0  0
   40.7090   32.2760   40.1880 H   0  0  0  0  0  0  0  0  0  0  0  0
   39.4700   31.0140   39.6460 H   0  0  0  0  0  0  0  0  0  0  0  0
   38.4730   31.1320   45.8850 C   0  0  0  0  0  0  0  0  0  0  0  0
   39.8090   31.0080   46.1310 C   0  0  0  0  0  0  0  0  0  0  0  0
   40.4250   31.3940   44.9410 C   0  0  0  0  0  0  0  0  0  0  0  0
   39.4920   31.7270   44.0410 N   0  0  0  0  0  0  0  0  0  0  0  0
   38.2970   31.5660   44.6210 N   0  0  0  0  0  0  0  0  0  0  0  0
   40.2690   30.6780   47.0670 H   0  0  0  0  0  0  0  0  0  0  0  0
   41.5140   31.3890   44.8620 H   0  0  0  0  0  0  0  0  0  0  0  0
   36.5330   30.6380   49.0590 C   0  0  0  0  0  0  0  0  0  0  0  0
   37.5640   30.9270   48.1930 C   0  0  0  0  0  0  0  0  0  0  0  0
   37.4260   30.8410   46.8320 C   0  0  0  0  0  0  0  0  0  0  0  0
   36.2030   30.4540   46.3720 N   0  0  0  0  0  0  0  0  0  0  0  0
   35.1860   30.1710   47.2370 C   0  0  0  0  0  0  0  0  0  0  0  0
   35.3290   30.2550   48.5420 N   0  0  0  0  0  0  0  0  0  0  0  0
   38.5570   31.2390   48.5160 H   0  0  0  0  0  0  0  0  0  0  0  0
   34.2080   29.8590   46.8400 H   0  0  0  0  0  0  0  0  0  0  0  0
   36.8640   30.7820   50.3970 O   0  0  0  0  0  0  0  0  0  0  0  0
   36.9030   29.6940   51.2960 C   0  0  0  0  0  0  0  0  0  0  0  0
   35.6390   29.2450   51.6360 F   0  0  0  0  0  0  0  0  0  0  0  0
   37.5950   30.0760   52.4140 F   0  0  0  0  0  0  0  0  0  0  0  0
   37.5970   28.6540   50.7030 F   0  0  0  0  0  0  0  0  0  0  0  0
   38.9480   30.1050   41.9890 O   0  0  0  0  0  0  0  0  0  0  0  0
   39.0040   28.7410   42.0780 C   0  0  0  0  0  0  0  0  0  0  0  0
   39.0310   28.0160   43.2510 C   0  0  0  0  0  0  0  0  0  0  0  0
   39.0070   28.5570   44.1850 H   0  0  0  0  0  0  0  0  0  0  0  0
   39.0870   26.6390   43.1930 C   0  0  0  0  0  0  0  0  0  0  0  0
   39.1060   26.1390   44.1740 H   0  0  0  0  0  0  0  0  0  0  0  0
   39.1210   25.8910   42.0340 C   0  0  0  0  0  0  0  0  0  0  0  0
   39.0920   26.6370   40.8950 C   0  0  0  0  0  0  0  0  0  0  0  0
   39.0370   28.0040   40.9130 C   0  0  0  0  0  0  0  0  0  0  0  0
   39.0170   28.5420   39.9530 H   0  0  0  0  0  0  0  0  0  0  0  0
   39.1310   25.7970   39.3220 S   0  0  0  0  0  0  0  0  0  0  0  0
   39.1990   24.0660   39.6800 C   0  0  0  0  0  0  0  0  0  0  0  0
   39.2370   23.1800   38.6630 C   0  0  0  0  0  0  0  0  0  0  0  0
   39.2270   23.4660   37.6120 H   0  0  0  0  0  0  0  0  0  0  0  0
   39.2920   21.7980   38.8860 C   0  0  0  0  0  0  0  0  0  0  0  0
   39.3230   21.0630   38.0930 H   0  0  0  0  0  0  0  0  0  0  0  0
   39.3070   21.3630   40.1930 C   0  0  0  0  0  0  0  0  0  0  0  0
   39.3480   20.3160   40.3840 H   0  0  0  0  0  0  0  0  0  0  0  0
   39.2670   22.3140   41.1920 C   0  0  0  0  0  0  0  0  0  0  0  0
   39.2810   21.8930   42.1960 H   0  0  0  0  0  0  0  0  0  0  0  0
   39.2130   23.6770   40.9930 C   0  0  0  0  0  0  0  0  0  0  0  0
   39.1760   24.5020   42.1350 N   0  0  0  0  0  0  0  0  0  0  0  0
   39.1920   24.0650   43.0820 H   0  0  0  0  0  0  0  0  0  0  0  0
  1  6  1  1  0  0  0
  1 32  1  0  0  0  0
  1  2  1  0  0  0  0
  2  7  1  6  0  0  0
  2 15  1  0  0  0  0
  3  9  1  0  0  0  0
  3  8  1  0  0  0  0
  3  2  1  0  0  0  0
  4  3  1  0  0  0  0
  5  4  1  0  0  0  0
  5  1  1  0  0  0  0
 10  5  1  0  0  0  0
 11  5  1  0  0  0  0
 12 13  1  0  0  0  0
 12 21  1  0  0  0  0
 13 17  1  0  0  0  0
 14 13  2  0  0  0  0
 15 16  1  0  0  0  0
 15 14  1  0  0  0  0
 16 12  2  0  0  0  0
 18 14  1  0  0  0  0
 19 27  1  0  0  0  0
 20 25  1  0  0  0  0
 20 19  2  0  0  0  0
 21 20  1  0  0  0  0
 22 21  2  0  0  0  0
 22 23  1  0  0  0  0
 23 24  2  0  0  0  0
 24 19  1  0  0  0  0
 26 23  1  0  0  0  0
 27 28  1  0  0  0  0
 28 29  1  0  0  0  0
 28 30  1  0  0  0  0
 31 28  1  0  0  0  0
 32 33  1  0  0  0  0
 33 34  1  0  0  0  0
 34 35  1  0  0  0  0
 36 34  2  0  0  0  0
 36 37  1  0  0  0  0
 38 53  1  0  0  0  0
 38 36  1  0  0  0  0
 39 40  1  0  0  0  0
 39 38  2  0  0  0  0
 40 33  2  0  0  0  0
 41 40  1  0  0  0  0
 42 43  1  0  0  0  0
 42 39  1  0  0  0  0
 43 52  1  0  0  0  0
 44 46  1  0  0  0  0
 44 43  2  0  0  0  0
 45 44  1  0  0  0  0
 46 48  2  0  0  0  0
 47 46  1  0  0  0  0
 48 49  1  0  0  0  0
 48 50  1  0  0  0  0
 50 51  1  0  0  0  0
 52 50  2  0  0  0  0
 52 53  1  0  0  0  0
 53 54  1  0  0  0  0
M  END
>  <minimizedAffinity>
-6.80794287

>  <minimizedRMSD>
1.0417577

$$$$
