
 OpenBabel03272507163D

 39 43  0  0  1  0  0  0  0  0999 V2000
   34.8110   28.9540   48.4420 C   0  0  0  0  0  0  0  0  0  0  0  0
   34.6860   29.8360   47.3600 C   0  0  0  0  0  0  0  0  0  0  0  0
   35.5080   30.5220   47.1160 H   0  0  0  0  0  0  0  0  0  0  0  0
   33.5300   29.8330   46.6100 C   0  0  0  0  0  0  0  0  0  0  0  0
   33.5030   30.5420   45.7870 H   0  0  0  0  0  0  0  0  0  0  0  0
   32.4550   29.0070   46.8470 C   0  0  0  0  0  0  0  0  0  0  0  0
   32.6050   28.1580   47.9090 C   0  0  0  0  0  0  0  0  0  0  0  0
   33.7200   28.1340   48.6620 C   0  0  0  0  0  0  0  0  0  0  0  0
   33.8130   27.4480   49.5030 H   0  0  0  0  0  0  0  0  0  0  0  0
   31.2790   27.0390   48.3160 S   0  0  0  0  0  0  0  0  0  0  0  0
   29.9990   27.3590   47.1190 C   0  0  0  0  0  0  0  0  0  0  0  0
   28.8580   26.6310   47.2020 C   0  0  0  0  0  0  0  0  0  0  0  0
   28.7340   25.8740   47.9800 H   0  0  0  0  0  0  0  0  0  0  0  0
   27.8100   26.8060   46.3200 C   0  0  0  0  0  0  0  0  0  0  0  0
   26.9030   26.2280   46.3850 H   0  0  0  0  0  0  0  0  0  0  0  0
   27.9530   27.7580   45.3330 C   0  0  0  0  0  0  0  0  0  0  0  0
   27.1630   27.9370   44.6150 H   0  0  0  0  0  0  0  0  0  0  0  0
   29.1350   28.4700   45.2950 C   0  0  0  0  0  0  0  0  0  0  0  0
   29.1960   29.2140   44.4900 H   0  0  0  0  0  0  0  0  0  0  0  0
   30.1990   28.3190   46.1590 C   0  0  0  0  0  0  0  0  0  0  0  0
   31.3390   29.1070   46.0070 N   0  0  0  0  0  0  0  0  0  0  0  0
   31.3490   29.7990   45.2280 H   0  0  0  0  0  0  0  0  0  0  0  0
   35.9790   28.9990   49.1530 O   0  0  0  0  0  0  0  0  0  0  0  0
   37.0200   30.7110   50.5730 C   0  0  1  0  0  0  0  0  0  0  0  0
   36.1820   29.5420   50.4270 C   0  0  2  0  0  0  0  0  0  0  0  0
   37.5680   29.3470   51.0100 C   0  0  0  0  0  0  0  0  0  0  0  0
   36.9990   31.4100   51.4440 H   0  0  0  0  0  0  0  0  0  0  0  0
   35.3170   29.4340   51.1010 H   0  0  0  0  0  0  0  0  0  0  0  0
   37.5740   29.0830   52.0780 H   0  0  0  0  0  0  0  0  0  0  0  0
   38.3450   28.8620   50.3830 H   0  0  0  0  0  0  0  0  0  0  0  0
   37.7800   31.2810   49.3920 C   0  0  0  0  0  0  0  0  0  0  0  0
   38.2000   32.6100   49.5110 C   0  0  0  0  0  0  0  0  0  0  0  0
   38.8760   33.1160   48.4180 C   0  0  0  0  0  0  0  0  0  0  0  0
   39.1060   32.3510   47.3050 N   0  0  0  0  0  0  0  0  0  0  0  0
   38.6740   31.0560   47.2380 C   0  0  0  0  0  0  0  0  0  0  0  0
   38.0050   30.5160   48.2900 N   0  0  0  0  0  0  0  0  0  0  0  0
   37.9960   33.1720   50.4100 H   0  0  0  0  0  0  0  0  0  0  0  0
   39.2250   34.1420   48.4570 H   0  0  0  0  0  0  0  0  0  0  0  0
   38.8600   30.4630   46.3560 H   0  0  0  0  0  0  0  0  0  0  0  0
  1  8  1  0  0  0  0
  1 23  1  0  0  0  0
  2  1  2  0  0  0  0
  3  2  1  0  0  0  0
  4  6  2  0  0  0  0
  4  2  1  0  0  0  0
  5  4  1  0  0  0  0
  6  7  1  0  0  0  0
  7 10  1  0  0  0  0
  7  8  2  0  0  0  0
  8  9  1  0  0  0  0
 11 12  1  0  0  0  0
 11 10  1  0  0  0  0
 12 13  1  0  0  0  0
 14 15  1  0  0  0  0
 14 12  2  0  0  0  0
 16 14  1  0  0  0  0
 17 16  1  0  0  0  0
 18 16  2  0  0  0  0
 18 20  1  0  0  0  0
 19 18  1  0  0  0  0
 20 11  2  0  0  0  0
 21 20  1  0  0  0  0
 21  6  1  0  0  0  0
 22 21  1  0  0  0  0
 23 25  1  0  0  0  0
 24 26  1  0  0  0  0
 24 27  1  1  0  0  0
 25 24  1  0  0  0  0
 25 26  1  0  0  0  0
 25 28  1  1  0  0  0
 26 29  1  0  0  0  0
 30 26  1  0  0  0  0
 31 32  1  0  0  0  0
 31 24  1  0  0  0  0
 32 37  1  0  0  0  0
 33 38  1  0  0  0  0
 33 32  2  0  0  0  0
 34 33  1  0  0  0  0
 35 34  2  0  0  0  0
 35 36  1  0  0  0  0
 36 31  2  0  0  0  0
 39 35  1  0  0  0  0
M  END
>  <minimizedAffinity>
-6.54078436

>  <minimizedRMSD>
4.21523809

$$$$
