
 OpenBabel03272501583D

 44 48  0  0  0  0  0  0  0  0999 V2000
   32.9390   28.0860   47.9480 C   0  0  0  0  0  0  0  0  0  0  0  0
   31.9000   27.5780   48.6840 C   0  0  0  0  0  0  0  0  0  0  0  0
   30.6980   27.8280   48.0340 C   0  0  0  0  0  0  0  0  0  0  0  0
   31.0520   28.4900   46.9090 N   0  0  0  0  0  0  0  0  0  0  0  0
   32.3660   28.6390   46.8590 N   0  0  0  0  0  0  0  0  0  0  0  0
   31.9470   27.0490   49.6380 H   0  0  0  0  0  0  0  0  0  0  0  0
   29.6780   27.5660   48.3320 H   0  0  0  0  0  0  0  0  0  0  0  0
   30.2100   28.9870   45.8770 C   0  0  0  0  0  0  0  0  0  0  0  0
   30.2890   30.2950   45.4730 C   0  0  0  0  0  0  0  0  0  0  0  0
   31.0050   30.9440   45.9510 H   0  0  0  0  0  0  0  0  0  0  0  0
   29.4590   30.7490   44.4690 C   0  0  0  0  0  0  0  0  0  0  0  0
   29.5940   31.8080   44.2130 H   0  0  0  0  0  0  0  0  0  0  0  0
   28.5260   29.9700   43.8220 C   0  0  0  0  0  0  0  0  0  0  0  0
   28.4630   28.6660   44.2430 C   0  0  0  0  0  0  0  0  0  0  0  0
   29.2800   28.2030   45.2340 C   0  0  0  0  0  0  0  0  0  0  0  0
   29.2090   27.1610   45.5480 H   0  0  0  0  0  0  0  0  0  0  0  0
   27.2830   27.5920   43.4550 S   0  0  0  0  0  0  0  0  0  0  0  0
   26.4320   28.5730   42.2360 C   0  0  0  0  0  0  0  0  0  0  0  0
   25.4610   27.9740   41.4820 C   0  0  0  0  0  0  0  0  0  0  0  0
   25.2110   26.9250   41.6190 H   0  0  0  0  0  0  0  0  0  0  0  0
   24.7680   28.6730   40.5280 C   0  0  0  0  0  0  0  0  0  0  0  0
   23.9950   28.2450   39.9090 H   0  0  0  0  0  0  0  0  0  0  0  0
   25.0790   30.0020   40.3460 C   0  0  0  0  0  0  0  0  0  0  0  0
   24.5530   30.5600   39.6110 H   0  0  0  0  0  0  0  0  0  0  0  0
   26.0650   30.5540   41.1330 C   0  0  0  0  0  0  0  0  0  0  0  0
   26.2560   31.6150   40.9310 H   0  0  0  0  0  0  0  0  0  0  0  0
   26.7860   29.8920   42.1030 C   0  0  0  0  0  0  0  0  0  0  0  0
   27.7660   30.6030   42.8230 N   0  0  0  0  0  0  0  0  0  0  0  0
   27.9090   31.6070   42.5940 H   0  0  0  0  0  0  0  0  0  0  0  0
   34.4030   28.0240   48.3020 C   0  0  0  0  0  0  0  0  0  0  0  0
   34.7000   26.9610   48.1280 H   0  0  0  0  0  0  0  0  0  0  0  0
   34.9650   28.6980   47.6130 H   0  0  0  0  0  0  0  0  0  0  0  0
   34.4920   28.4440   49.7390 C   0  0  0  0  0  0  0  0  0  0  0  0
   33.6030   28.9460   50.1390 H   0  0  0  0  0  0  0  0  0  0  0  0
   34.6190   27.4930   50.3310 H   0  0  0  0  0  0  0  0  0  0  0  0
   37.3140   30.1890   51.3770 C   0  0  0  0  0  0  0  0  0  0  0  0
   38.0800   30.6320   50.2920 C   0  0  0  0  0  0  0  0  0  0  0  0
   37.6120   30.3210   48.9930 C   0  0  0  0  0  0  0  0  0  0  0  0
   36.4570   29.6190   48.8710 N   0  0  0  0  0  0  0  0  0  0  0  0
   35.7580   29.2170   49.9580 C   0  0  0  0  0  0  0  0  0  0  0  0
   36.1870   29.5020   51.1890 N   0  0  0  0  0  0  0  0  0  0  0  0
   37.7030   30.4440   52.3600 H   0  0  0  0  0  0  0  0  0  0  0  0
   39.0040   31.1940   50.3430 H   0  0  0  0  0  0  0  0  0  0  0  0
   38.0900   30.5950   48.0740 H   0  0  0  0  0  0  0  0  0  0  0  0
  1 30  1  0  0  0  0
  1  2  1  0  0  0  0
  2  6  1  0  0  0  0
  3  7  1  0  0  0  0
  3  2  2  0  0  0  0
  4  3  1  0  0  0  0
  5  4  1  0  0  0  0
  5  1  2  0  0  0  0
  8  4  1  0  0  0  0
  9  8  1  0  0  0  0
  9 10  1  0  0  0  0
 11  9  2  0  0  0  0
 12 11  1  0  0  0  0
 13 14  2  0  0  0  0
 13 11  1  0  0  0  0
 14 15  1  0  0  0  0
 15 16  1  0  0  0  0
 15  8  2  0  0  0  0
 17 14  1  0  0  0  0
 18 17  1  0  0  0  0
 19 20  1  0  0  0  0
 19 18  2  0  0  0  0
 21 19  1  0  0  0  0
 22 21  1  0  0  0  0
 23 21  2  0  0  0  0
 23 25  1  0  0  0  0
 24 23  1  0  0  0  0
 25 27  2  0  0  0  0
 26 25  1  0  0  0  0
 27 18  1  0  0  0  0
 27 28  1  0  0  0  0
 28 13  1  0  0  0  0
 29 28  1  0  0  0  0
 30 33  1  0  0  0  0
 31 30  1  0  0  0  0
 32 30  1  0  0  0  0
 33 40  1  0  0  0  0
 33 34  1  0  0  0  0
 33 35  1  0  0  0  0
 36 42  1  0  0  0  0
 37 43  1  0  0  0  0
 37 36  2  0  0  0  0
 38 37  1  0  0  0  0
 39 38  2  0  0  0  0
 39 40  1  0  0  0  0
 40 41  2  0  0  0  0
 41 36  1  0  0  0  0
 44 38  1  0  0  0  0
M  END
>  <minimizedAffinity>
-5.4326272

>  <minimizedRMSD>
0.66902101

$$$$
