
 OpenBabel03272503303D

 47 51  0  0  1  0  0  0  0  0999 V2000
   35.2960   29.5400   47.9170 C   0  0  0  0  0  0  0  0  0  0  0  0
   35.2740   29.9860   46.5970 C   0  0  0  0  0  0  0  0  0  0  0  0
   34.1580   29.6770   45.8340 C   0  0  0  0  0  0  0  0  0  0  0  0
   33.1560   28.9550   46.4360 N   0  0  0  0  0  0  0  0  0  0  0  0
   33.2090   28.5420   47.7110 C   0  0  0  0  0  0  0  0  0  0  0  0
   34.2850   28.8380   48.4540 N   0  0  0  0  0  0  0  0  0  0  0  0
   36.0520   30.5480   46.1220 H   0  0  0  0  0  0  0  0  0  0  0  0
   34.0550   29.9840   44.7950 H   0  0  0  0  0  0  0  0  0  0  0  0
   36.4620   29.8710   48.6950 N   0  0  0  0  0  0  0  0  0  0  0  0
   37.6060   30.6050   48.2640 C   0  0  0  0  0  0  0  0  0  0  0  0
   38.0930   31.2600   49.5570 C   0  0  2  0  0  0  0  0  0  0  0  0
   37.0780   30.8920   50.6120 C   0  0  0  0  0  0  0  0  0  0  0  0
   36.6960   29.5150   50.0710 C   0  0  0  0  0  0  0  0  0  0  0  0
   38.3730   29.8730   47.9530 H   0  0  0  0  0  0  0  0  0  0  0  0
   37.3900   31.3810   47.4960 H   0  0  0  0  0  0  0  0  0  0  0  0
   39.0600   30.7970   49.8940 H   0  0  0  0  0  0  0  0  0  0  0  0
   36.1860   31.5270   50.5140 H   0  0  0  0  0  0  0  0  0  0  0  0
   37.4930   30.8540   51.6250 H   0  0  0  0  0  0  0  0  0  0  0  0
   35.7470   29.2080   50.5410 H   0  0  0  0  0  0  0  0  0  0  0  0
   37.5190   28.7900   50.2150 H   0  0  0  0  0  0  0  0  0  0  0  0
   38.2970   32.7390   49.4230 C   0  0  0  0  0  0  0  0  0  0  0  0
   37.1340   33.3300   49.8770 F   0  0  0  0  0  0  0  0  0  0  0  0
   38.3990   33.0120   48.0810 F   0  0  0  0  0  0  0  0  0  0  0  0
   39.3940   33.2030   50.0850 F   0  0  0  0  0  0  0  0  0  0  0  0
   31.8860   27.6070   48.4520 S   0  0  0  0  0  0  0  0  0  0  0  0
   30.5850   27.3030   47.2720 C   0  0  0  0  0  0  0  0  0  0  0  0
   29.7260   28.3050   46.8330 C   0  0  0  0  0  0  0  0  0  0  0  0
   29.8440   29.2950   47.2110 H   0  0  0  0  0  0  0  0  0  0  0  0
   28.7410   27.9810   45.9120 C   0  0  0  0  0  0  0  0  0  0  0  0
   28.1100   28.8160   45.6160 H   0  0  0  0  0  0  0  0  0  0  0  0
   28.5480   26.7170   45.3930 C   0  0  0  0  0  0  0  0  0  0  0  0
   29.4130   25.7600   45.8500 C   0  0  0  0  0  0  0  0  0  0  0  0
   30.3820   26.0480   46.7470 C   0  0  0  0  0  0  0  0  0  0  0  0
   31.0450   25.2410   47.0770 H   0  0  0  0  0  0  0  0  0  0  0  0
   29.2290   24.1100   45.2300 S   0  0  0  0  0  0  0  0  0  0  0  0
   27.8640   24.1410   44.0910 C   0  0  0  0  0  0  0  0  0  0  0  0
   27.5190   22.9770   43.4720 C   0  0  0  0  0  0  0  0  0  0  0  0
   28.0440   22.0360   43.6470 H   0  0  0  0  0  0  0  0  0  0  0  0
   26.4690   22.9240   42.5730 C   0  0  0  0  0  0  0  0  0  0  0  0
   26.2050   22.0050   42.0920 H   0  0  0  0  0  0  0  0  0  0  0  0
   25.7760   24.0900   42.3190 C   0  0  0  0  0  0  0  0  0  0  0  0
   24.9580   24.0820   41.6290 H   0  0  0  0  0  0  0  0  0  0  0  0
   26.1780   25.2310   42.9790 C   0  0  0  0  0  0  0  0  0  0  0  0
   25.5840   26.1220   42.7300 H   0  0  0  0  0  0  0  0  0  0  0  0
   27.2170   25.3320   43.8820 C   0  0  0  0  0  0  0  0  0  0  0  0
   27.5070   26.5700   44.4750 N   0  0  0  0  0  0  0  0  0  0  0  0
   26.9100   27.3800   44.2010 H   0  0  0  0  0  0  0  0  0  0  0  0
  1  6  1  0  0  0  0
  1  9  1  0  0  0  0
  2  1  2  0  0  0  0
  3  4  2  0  0  0  0
  3  2  1  0  0  0  0
  4  5  1  0  0  0  0
  5 25  1  0  0  0  0
  5  6  2  0  0  0  0
  7  2  1  0  0  0  0
  8  3  1  0  0  0  0
  9 13  1  0  0  0  0
 10  9  1  0  0  0  0
 10 11  1  0  0  0  0
 11 16  1  1  0  0  0
 11 12  1  0  0  0  0
 12 18  1  0  0  0  0
 13 20  1  0  0  0  0
 13 19  1  0  0  0  0
 13 12  1  0  0  0  0
 14 10  1  0  0  0  0
 15 10  1  0  0  0  0
 17 12  1  0  0  0  0
 21 11  1  0  0  0  0
 21 22  1  0  0  0  0
 21 24  1  0  0  0  0
 23 21  1  0  0  0  0
 26 25  1  0  0  0  0
 27 28  1  0  0  0  0
 27 26  1  0  0  0  0
 29 27  2  0  0  0  0
 30 29  1  0  0  0  0
 31 32  2  0  0  0  0
 31 29  1  0  0  0  0
 32 33  1  0  0  0  0
 33 34  1  0  0  0  0
 33 26  2  0  0  0  0
 35 32  1  0  0  0  0
 36 35  1  0  0  0  0
 37 38  1  0  0  0  0
 37 36  2  0  0  0  0
 39 37  1  0  0  0  0
 40 39  1  0  0  0  0
 41 39  2  0  0  0  0
 41 43  1  0  0  0  0
 42 41  1  0  0  0  0
 43 45  2  0  0  0  0
 44 43  1  0  0  0  0
 45 36  1  0  0  0  0
 45 46  1  0  0  0  0
 46 31  1  0  0  0  0
 47 46  1  0  0  0  0
M  END
>  <minimizedAffinity>
-6.80780792

>  <minimizedRMSD>
0.681853592

$$$$
