
 OpenBabel03272501583D

 44 48  0  0  0  0  0  0  0  0999 V2000
   32.9130   28.2560   47.8220 C   0  0  0  0  0  0  0  0  0  0  0  0
   32.1460   27.3710   48.5360 C   0  0  0  0  0  0  0  0  0  0  0  0
   30.8180   27.4780   48.1440 C   0  0  0  0  0  0  0  0  0  0  0  0
   30.8220   28.4380   47.1910 N   0  0  0  0  0  0  0  0  0  0  0  0
   32.0510   28.8920   47.0040 N   0  0  0  0  0  0  0  0  0  0  0  0
   32.4720   26.6680   49.3050 H   0  0  0  0  0  0  0  0  0  0  0  0
   29.9410   26.9290   48.5010 H   0  0  0  0  0  0  0  0  0  0  0  0
   29.7210   28.9470   46.4490 C   0  0  0  0  0  0  0  0  0  0  0  0
   28.5520   29.2970   47.0760 C   0  0  0  0  0  0  0  0  0  0  0  0
   28.4810   29.1820   48.1450 H   0  0  0  0  0  0  0  0  0  0  0  0
   27.5010   29.7880   46.3300 C   0  0  0  0  0  0  0  0  0  0  0  0
   26.6080   30.0420   46.9170 H   0  0  0  0  0  0  0  0  0  0  0  0
   27.5310   29.9570   44.9640 C   0  0  0  0  0  0  0  0  0  0  0  0
   28.7090   29.6000   44.3580 C   0  0  0  0  0  0  0  0  0  0  0  0
   29.7580   29.1140   45.0840 C   0  0  0  0  0  0  0  0  0  0  0  0
   30.6830   28.8370   44.5770 H   0  0  0  0  0  0  0  0  0  0  0  0
   28.8300   29.7890   42.5920 S   0  0  0  0  0  0  0  0  0  0  0  0
   27.2680   30.4430   42.0410 C   0  0  0  0  0  0  0  0  0  0  0  0
   27.0990   30.6830   40.7050 C   0  0  0  0  0  0  0  0  0  0  0  0
   27.8960   30.4820   39.9930 H   0  0  0  0  0  0  0  0  0  0  0  0
   25.9220   31.1860   40.2150 C   0  0  0  0  0  0  0  0  0  0  0  0
   25.7410   31.3920   39.1710 H   0  0  0  0  0  0  0  0  0  0  0  0
   24.9070   31.4460   41.1080 C   0  0  0  0  0  0  0  0  0  0  0  0
   23.9870   31.8360   40.7470 H   0  0  0  0  0  0  0  0  0  0  0  0
   25.1310   31.1850   42.4410 C   0  0  0  0  0  0  0  0  0  0  0  0
   24.2780   31.4160   43.0910 H   0  0  0  0  0  0  0  0  0  0  0  0
   26.2960   30.6810   42.9800 C   0  0  0  0  0  0  0  0  0  0  0  0
   26.3650   30.4700   44.3700 N   0  0  0  0  0  0  0  0  0  0  0  0
   25.5300   30.7040   44.9430 H   0  0  0  0  0  0  0  0  0  0  0  0
   34.4020   28.4540   47.9450 C   0  0  0  0  0  0  0  0  0  0  0  0
   34.8540   27.6720   47.2880 H   0  0  0  0  0  0  0  0  0  0  0  0
   34.6580   29.4710   47.5630 H   0  0  0  0  0  0  0  0  0  0  0  0
   34.7180   28.2740   49.4000 C   0  0  0  0  0  0  0  0  0  0  0  0
   33.8680   28.3820   50.0840 H   0  0  0  0  0  0  0  0  0  0  0  0
   35.0850   27.2130   49.5060 H   0  0  0  0  0  0  0  0  0  0  0  0
   37.2150   30.1670   51.3660 C   0  0  0  0  0  0  0  0  0  0  0  0
   38.0430   30.7140   50.3780 C   0  0  0  0  0  0  0  0  0  0  0  0
   37.7290   30.4210   49.0300 C   0  0  0  0  0  0  0  0  0  0  0  0
   36.6540   29.6350   48.7700 N   0  0  0  0  0  0  0  0  0  0  0  0
   35.8890   29.1340   49.7700 C   0  0  0  0  0  0  0  0  0  0  0  0
   36.1730   29.4010   51.0450 N   0  0  0  0  0  0  0  0  0  0  0  0
   37.4860   30.4120   52.3920 H   0  0  0  0  0  0  0  0  0  0  0  0
   38.9080   31.3440   50.5400 H   0  0  0  0  0  0  0  0  0  0  0  0
   38.2700   30.7690   48.1720 H   0  0  0  0  0  0  0  0  0  0  0  0
  1 30  1  0  0  0  0
  1  2  1  0  0  0  0
  2  6  1  0  0  0  0
  3  7  1  0  0  0  0
  3  2  2  0  0  0  0
  4  3  1  0  0  0  0
  5  4  1  0  0  0  0
  5  1  2  0  0  0  0
  8  9  1  0  0  0  0
  8  4  1  0  0  0  0
  9 10  1  0  0  0  0
 11 12  1  0  0  0  0
 11  9  2  0  0  0  0
 13 11  1  0  0  0  0
 14 13  2  0  0  0  0
 14 15  1  0  0  0  0
 15  8  2  0  0  0  0
 16 15  1  0  0  0  0
 17 14  1  0  0  0  0
 18 17  1  0  0  0  0
 18 27  1  0  0  0  0
 19 18  2  0  0  0  0
 20 19  1  0  0  0  0
 21 19  1  0  0  0  0
 21 23  2  0  0  0  0
 22 21  1  0  0  0  0
 23 25  1  0  0  0  0
 24 23  1  0  0  0  0
 25 27  2  0  0  0  0
 25 26  1  0  0  0  0
 27 28  1  0  0  0  0
 28 29  1  0  0  0  0
 28 13  1  0  0  0  0
 30 33  1  0  0  0  0
 31 30  1  0  0  0  0
 32 30  1  0  0  0  0
 33 35  1  0  0  0  0
 33 40  1  0  0  0  0
 33 34  1  0  0  0  0
 36 42  1  0  0  0  0
 37 43  1  0  0  0  0
 37 36  2  0  0  0  0
 38 37  1  0  0  0  0
 39 38  2  0  0  0  0
 39 40  1  0  0  0  0
 40 41  2  0  0  0  0
 41 36  1  0  0  0  0
 44 38  1  0  0  0  0
M  END
>  <minimizedAffinity>
-5.73330116

>  <minimizedRMSD>
0.675949454

$$$$
