
 OpenBabel03272503423D

 54 59  0  0  1  0  0  0  0  0999 V2000
   39.6730   31.3890   41.5270 C   0  0  2  0  0  0  0  0  0  0  0  0
   39.5160   32.4800   42.5880 C   0  0  1  0  0  0  0  0  0  0  0  0
   38.3180   33.1910   42.0170 C   0  0  0  0  0  0  0  0  0  0  0  0
   38.4400   33.1420   40.6480 O   0  0  0  0  0  0  0  0  0  0  0  0
   39.4200   32.2640   40.2950 C   0  0  0  0  0  0  0  0  0  0  0  0
   40.6850   30.9540   41.5370 H   0  0  0  0  0  0  0  0  0  0  0  0
   40.3780   33.1560   42.6230 H   0  0  0  0  0  0  0  0  0  0  0  0
   37.4010   32.7330   42.4080 H   0  0  0  0  0  0  0  0  0  0  0  0
   38.3710   34.2440   42.4190 H   0  0  0  0  0  0  0  0  0  0  0  0
   40.3330   32.8380   40.0590 H   0  0  0  0  0  0  0  0  0  0  0  0
   39.0570   31.6500   39.4420 H   0  0  0  0  0  0  0  0  0  0  0  0
   38.3190   31.1690   45.7140 C   0  0  0  0  0  0  0  0  0  0  0  0
   39.6540   30.9180   45.8480 C   0  0  0  0  0  0  0  0  0  0  0  0
   40.2240   31.3960   44.6690 C   0  0  0  0  0  0  0  0  0  0  0  0
   39.2670   31.9030   43.8830 N   0  0  0  0  0  0  0  0  0  0  0  0
   38.1010   31.7630   44.5240 N   0  0  0  0  0  0  0  0  0  0  0  0
   40.1420   30.4450   46.7050 H   0  0  0  0  0  0  0  0  0  0  0  0
   41.3020   31.3200   44.5120 H   0  0  0  0  0  0  0  0  0  0  0  0
   36.4940   30.6310   48.9490 C   0  0  0  0  0  0  0  0  0  0  0  0
   37.4870   30.9520   48.0500 C   0  0  0  0  0  0  0  0  0  0  0  0
   37.3130   30.8450   46.6940 C   0  0  0  0  0  0  0  0  0  0  0  0
   36.0950   30.4020   46.2740 N   0  0  0  0  0  0  0  0  0  0  0  0
   35.1160   30.0870   47.1720 C   0  0  0  0  0  0  0  0  0  0  0  0
   35.2920   30.1910   48.4710 N   0  0  0  0  0  0  0  0  0  0  0  0
   38.4740   31.3090   48.3410 H   0  0  0  0  0  0  0  0  0  0  0  0
   34.1410   29.7310   46.8070 H   0  0  0  0  0  0  0  0  0  0  0  0
   36.8570   30.8030   50.2750 O   0  0  0  0  0  0  0  0  0  0  0  0
   36.9200   29.7350   51.1950 C   0  0  0  0  0  0  0  0  0  0  0  0
   35.6660   29.3120   51.5990 F   0  0  0  0  0  0  0  0  0  0  0  0
   37.6660   30.1310   52.2740 F   0  0  0  0  0  0  0  0  0  0  0  0
   37.5730   28.6720   50.5960 F   0  0  0  0  0  0  0  0  0  0  0  0
   38.6180   30.5090   41.6980 O   0  0  0  0  0  0  0  0  0  0  0  0
   38.6820   29.2060   42.1100 C   0  0  0  0  0  0  0  0  0  0  0  0
   39.8400   28.4740   42.2740 C   0  0  0  0  0  0  0  0  0  0  0  0
   40.7830   28.9570   42.0640 H   0  0  0  0  0  0  0  0  0  0  0  0
   39.7550   27.1620   42.6960 C   0  0  0  0  0  0  0  0  0  0  0  0
   40.7260   26.6520   42.8020 H   0  0  0  0  0  0  0  0  0  0  0  0
   38.5850   26.4900   42.9800 C   0  0  0  0  0  0  0  0  0  0  0  0
   37.4620   27.2410   42.8070 C   0  0  0  0  0  0  0  0  0  0  0  0
   37.5050   28.5430   42.3900 C   0  0  0  0  0  0  0  0  0  0  0  0
   36.5570   29.0900   42.2720 H   0  0  0  0  0  0  0  0  0  0  0  0
   35.8770   26.4950   43.1380 S   0  0  0  0  0  0  0  0  0  0  0  0
   36.2010   24.8330   43.6490 C   0  0  0  0  0  0  0  0  0  0  0  0
   35.1680   24.0240   43.9680 C   0  0  0  0  0  0  0  0  0  0  0  0
   34.1260   24.3330   43.9310 H   0  0  0  0  0  0  0  0  0  0  0  0
   35.3650   22.7000   44.3790 C   0  0  0  0  0  0  0  0  0  0  0  0
   34.5600   22.0250   44.6410 H   0  0  0  0  0  0  0  0  0  0  0  0
   36.6640   22.2390   44.4490 C   0  0  0  0  0  0  0  0  0  0  0  0
   36.8330   21.2340   44.7590 H   0  0  0  0  0  0  0  0  0  0  0  0
   37.6770   23.1110   44.1110 C   0  0  0  0  0  0  0  0  0  0  0  0
   38.6720   22.6740   44.1920 H   0  0  0  0  0  0  0  0  0  0  0  0
   37.5050   24.4160   43.7040 C   0  0  0  0  0  0  0  0  0  0  0  0
   38.6600   25.1630   43.3990 N   0  0  0  0  0  0  0  0  0  0  0  0
   39.5970   24.7140   43.4860 H   0  0  0  0  0  0  0  0  0  0  0  0
  1  6  1  1  0  0  0
  1 32  1  0  0  0  0
  1  2  1  0  0  0  0
  2  7  1  1  0  0  0
  2 15  1  0  0  0  0
  3  8  1  0  0  0  0
  3  9  1  0  0  0  0
  3  2  1  0  0  0  0
  4  3  1  0  0  0  0
  5  4  1  0  0  0  0
  5  1  1  0  0  0  0
 10  5  1  0  0  0  0
 11  5  1  0  0  0  0
 12 13  1  0  0  0  0
 12 21  1  0  0  0  0
 13 17  1  0  0  0  0
 14 13  2  0  0  0  0
 15 16  1  0  0  0  0
 15 14  1  0  0  0  0
 16 12  2  0  0  0  0
 18 14  1  0  0  0  0
 19 27  1  0  0  0  0
 20 25  1  0  0  0  0
 20 19  2  0  0  0  0
 21 20  1  0  0  0  0
 22 21  2  0  0  0  0
 22 23  1  0  0  0  0
 23 24  2  0  0  0  0
 24 19  1  0  0  0  0
 26 23  1  0  0  0  0
 27 28  1  0  0  0  0
 28 29  1  0  0  0  0
 28 30  1  0  0  0  0
 31 28  1  0  0  0  0
 32 33  1  0  0  0  0
 33 34  2  0  0  0  0
 33 40  1  0  0  0  0
 34 36  1  0  0  0  0
 35 34  1  0  0  0  0
 36 37  1  0  0  0  0
 36 38  2  0  0  0  0
 38 53  1  0  0  0  0
 39 38  1  0  0  0  0
 39 42  1  0  0  0  0
 40 39  2  0  0  0  0
 41 40  1  0  0  0  0
 42 43  1  0  0  0  0
 43 52  2  0  0  0  0
 43 44  1  0  0  0  0
 44 46  2  0  0  0  0
 45 44  1  0  0  0  0
 46 48  1  0  0  0  0
 46 47  1  0  0  0  0
 48 49  1  0  0  0  0
 50 51  1  0  0  0  0
 50 48  2  0  0  0  0
 52 50  1  0  0  0  0
 53 54  1  0  0  0  0
 53 52  1  0  0  0  0
M  END
>  <minimizedAffinity>
-6.64907122

>  <minimizedRMSD>
0.694397271

$$$$
