
 OpenBabel03262522113D

 43 47  0  0  0  0  0  0  0  0999 V2000
   40.0940   31.9840   43.7090 C   0  0  0  0  0  0  0  0  0  0  0  0
   39.2830   32.5840   42.7870 C   0  0  0  0  0  0  0  0  0  0  0  0
   39.0450   33.6270   42.9150 H   0  0  0  0  0  0  0  0  0  0  0  0
   38.8000   31.8390   41.7330 C   0  0  0  0  0  0  0  0  0  0  0  0
   38.1630   32.3900   41.0450 H   0  0  0  0  0  0  0  0  0  0  0  0
   39.0850   30.5060   41.5420 C   0  0  0  0  0  0  0  0  0  0  0  0
   39.8930   29.9270   42.4690 C   0  0  0  0  0  0  0  0  0  0  0  0
   40.3810   30.6290   43.5110 C   0  0  0  0  0  0  0  0  0  0  0  0
   41.0300   30.1680   44.2570 H   0  0  0  0  0  0  0  0  0  0  0  0
   40.3040   28.2040   42.2840 S   0  0  0  0  0  0  0  0  0  0  0  0
   39.4740   27.6530   40.8070 C   0  0  0  0  0  0  0  0  0  0  0  0
   39.6290   26.3520   40.4380 C   0  0  0  0  0  0  0  0  0  0  0  0
   40.2440   25.6770   41.0360 H   0  0  0  0  0  0  0  0  0  0  0  0
   39.0250   25.8460   39.3150 C   0  0  0  0  0  0  0  0  0  0  0  0
   39.1120   24.8260   38.9770 H   0  0  0  0  0  0  0  0  0  0  0  0
   38.2420   26.7060   38.5550 C   0  0  0  0  0  0  0  0  0  0  0  0
   37.7580   26.3340   37.6700 H   0  0  0  0  0  0  0  0  0  0  0  0
   38.1270   28.0000   38.9780 C   0  0  0  0  0  0  0  0  0  0  0  0
   37.4930   28.6280   38.3320 H   0  0  0  0  0  0  0  0  0  0  0  0
   38.7140   28.5490   40.0970 C   0  0  0  0  0  0  0  0  0  0  0  0
   38.5030   29.9000   40.4050 N   0  0  0  0  0  0  0  0  0  0  0  0
   37.8950   30.4460   39.7600 H   0  0  0  0  0  0  0  0  0  0  0  0
   40.7250   32.9420   45.0800 S   0  0  0  0  0  0  0  0  0  0  0  0
   37.8180   31.7460   47.5050 C   0  0  0  0  0  0  0  0  0  0  0  0
   37.9530   32.5140   48.6610 C   0  0  0  0  0  0  0  0  0  0  0  0
   38.9690   33.4550   48.7430 C   0  0  0  0  0  0  0  0  0  0  0  0
   39.7870   33.5500   47.6310 C   0  0  0  0  0  0  0  0  0  0  0  0
   39.6460   32.7930   46.5060 C   0  0  0  0  0  0  0  0  0  0  0  0
   38.6450   31.8720   46.4360 N   0  0  0  0  0  0  0  0  0  0  0  0
   37.2710   32.3830   49.4940 H   0  0  0  0  0  0  0  0  0  0  0  0
   39.1260   34.0800   49.6070 H   0  0  0  0  0  0  0  0  0  0  0  0
   40.6150   34.2550   47.5870 H   0  0  0  0  0  0  0  0  0  0  0  0
   36.7310   30.7850   47.5000 C   0  0  0  0  0  0  0  0  0  0  0  0
   36.2410   30.3880   46.4290 O   0  0  0  0  0  0  0  0  0  0  0  0
   36.9800   29.5980   49.6390 C   0  0  0  0  0  0  0  0  0  0  0  0
   36.1570   30.2360   48.7210 C   0  0  0  0  0  0  0  0  0  0  0  0
   34.8020   30.3170   49.0270 C   0  0  0  0  0  0  0  0  0  0  0  0
   34.3220   29.7810   50.1920 N   0  0  0  0  0  0  0  0  0  0  0  0
   35.1810   29.1640   51.0580 C   0  0  0  0  0  0  0  0  0  0  0  0
   36.4690   29.0760   50.7870 N   0  0  0  0  0  0  0  0  0  0  0  0
   38.0390   29.5240   49.4180 H   0  0  0  0  0  0  0  0  0  0  0  0
   34.1760   30.8180   48.3010 H   0  0  0  0  0  0  0  0  0  0  0  0
   34.7510   28.7570   51.9660 H   0  0  0  0  0  0  0  0  0  0  0  0
  1 23  1  0  0  0  0
  2  3  1  0  0  0  0
  2  1  2  0  0  0  0
  4  2  1  0  0  0  0
  5  4  1  0  0  0  0
  6  4  2  0  0  0  0
  6  7  1  0  0  0  0
  7  8  2  0  0  0  0
  8  1  1  0  0  0  0
  8  9  1  0  0  0  0
 10  7  1  0  0  0  0
 11 10  1  0  0  0  0
 12 11  1  0  0  0  0
 12 13  1  0  0  0  0
 14 12  2  0  0  0  0
 15 14  1  0  0  0  0
 16 18  2  0  0  0  0
 16 14  1  0  0  0  0
 17 16  1  0  0  0  0
 18 20  1  0  0  0  0
 19 18  1  0  0  0  0
 20 21  1  0  0  0  0
 20 11  2  0  0  0  0
 21  6  1  0  0  0  0
 22 21  1  0  0  0  0
 23 28  1  0  0  0  0
 24 25  1  0  0  0  0
 25 26  2  0  0  0  0
 25 30  1  0  0  0  0
 26 31  1  0  0  0  0
 27 26  1  0  0  0  0
 28 27  2  0  0  0  0
 29 28  1  0  0  0  0
 29 24  2  0  0  0  0
 32 27  1  0  0  0  0
 33 24  1  0  0  0  0
 33 36  1  0  0  0  0
 34 33  2  0  0  0  0
 35 40  1  0  0  0  0
 36 37  1  0  0  0  0
 36 35  2  0  0  0  0
 37 38  2  0  0  0  0
 38 39  1  0  0  0  0
 39 43  1  0  0  0  0
 40 39  2  0  0  0  0
 41 35  1  0  0  0  0
 42 37  1  0  0  0  0
M  END
>  <minimizedAffinity>
-6.0932579

>  <minimizedRMSD>
4.98922014

$$$$
