
 OpenBabel03272503423D

 54 59  0  0  1  0  0  0  0  0999 V2000
   40.0020   30.9760   41.7680 C   0  0  2  0  0  0  0  0  0  0  0  0
   39.7920   32.1690   42.7020 C   0  0  1  0  0  0  0  0  0  0  0  0
   38.6120   32.8000   42.0130 C   0  0  0  0  0  0  0  0  0  0  0  0
   38.7910   32.6110   40.6620 O   0  0  0  0  0  0  0  0  0  0  0  0
   39.7930   31.7140   40.4420 C   0  0  0  0  0  0  0  0  0  0  0  0
   41.0180   30.5580   41.8640 H   0  0  0  0  0  0  0  0  0  0  0  0
   40.6460   32.8570   42.7010 H   0  0  0  0  0  0  0  0  0  0  0  0
   37.6840   32.3740   42.4120 H   0  0  0  0  0  0  0  0  0  0  0  0
   38.6390   33.8900   42.3040 H   0  0  0  0  0  0  0  0  0  0  0  0
   40.7100   32.2720   40.1850 H   0  0  0  0  0  0  0  0  0  0  0  0
   39.4710   31.0110   39.6450 H   0  0  0  0  0  0  0  0  0  0  0  0
   38.4760   31.1320   45.8830 C   0  0  0  0  0  0  0  0  0  0  0  0
   39.8130   31.0090   46.1290 C   0  0  0  0  0  0  0  0  0  0  0  0
   40.4280   31.3940   44.9390 C   0  0  0  0  0  0  0  0  0  0  0  0
   39.4950   31.7260   44.0390 N   0  0  0  0  0  0  0  0  0  0  0  0
   38.3000   31.5650   44.6190 N   0  0  0  0  0  0  0  0  0  0  0  0
   40.2730   30.6800   47.0650 H   0  0  0  0  0  0  0  0  0  0  0  0
   41.5170   31.3900   44.8590 H   0  0  0  0  0  0  0  0  0  0  0  0
   36.5380   30.6380   49.0580 C   0  0  0  0  0  0  0  0  0  0  0  0
   37.5680   30.9260   48.1920 C   0  0  0  0  0  0  0  0  0  0  0  0
   37.4290   30.8410   46.8300 C   0  0  0  0  0  0  0  0  0  0  0  0
   36.2070   30.4540   46.3710 N   0  0  0  0  0  0  0  0  0  0  0  0
   35.1890   30.1720   47.2370 C   0  0  0  0  0  0  0  0  0  0  0  0
   35.3330   30.2550   48.5420 N   0  0  0  0  0  0  0  0  0  0  0  0
   38.5610   31.2390   48.5150 H   0  0  0  0  0  0  0  0  0  0  0  0
   34.2110   29.8610   46.8400 H   0  0  0  0  0  0  0  0  0  0  0  0
   36.8700   30.7810   50.3960 O   0  0  0  0  0  0  0  0  0  0  0  0
   36.9040   29.6940   51.2950 C   0  0  0  0  0  0  0  0  0  0  0  0
   35.6390   29.2470   51.6330 F   0  0  0  0  0  0  0  0  0  0  0  0
   37.5950   30.0760   52.4150 F   0  0  0  0  0  0  0  0  0  0  0  0
   37.5980   28.6530   50.7050 F   0  0  0  0  0  0  0  0  0  0  0  0
   38.9500   30.1040   41.9880 O   0  0  0  0  0  0  0  0  0  0  0  0
   39.0050   28.7400   42.0780 C   0  0  0  0  0  0  0  0  0  0  0  0
   39.0310   28.0150   43.2520 C   0  0  0  0  0  0  0  0  0  0  0  0
   39.0070   28.5580   44.1850 H   0  0  0  0  0  0  0  0  0  0  0  0
   39.0870   26.6380   43.1940 C   0  0  0  0  0  0  0  0  0  0  0  0
   39.1040   26.1400   44.1760 H   0  0  0  0  0  0  0  0  0  0  0  0
   39.1200   25.8900   42.0360 C   0  0  0  0  0  0  0  0  0  0  0  0
   39.0930   26.6340   40.8970 C   0  0  0  0  0  0  0  0  0  0  0  0
   39.0380   28.0010   40.9130 C   0  0  0  0  0  0  0  0  0  0  0  0
   39.0190   28.5390   39.9530 H   0  0  0  0  0  0  0  0  0  0  0  0
   39.1320   25.7940   39.3250 S   0  0  0  0  0  0  0  0  0  0  0  0
   39.2000   24.0620   39.6840 C   0  0  0  0  0  0  0  0  0  0  0  0
   39.2380   23.1750   38.6670 C   0  0  0  0  0  0  0  0  0  0  0  0
   39.2290   23.4610   37.6170 H   0  0  0  0  0  0  0  0  0  0  0  0
   39.2920   21.7940   38.8920 C   0  0  0  0  0  0  0  0  0  0  0  0
   39.3230   21.0570   38.1000 H   0  0  0  0  0  0  0  0  0  0  0  0
   39.3060   21.3590   40.2000 C   0  0  0  0  0  0  0  0  0  0  0  0
   39.3470   20.3130   40.3920 H   0  0  0  0  0  0  0  0  0  0  0  0
   39.2650   22.3120   41.1970 C   0  0  0  0  0  0  0  0  0  0  0  0
   39.2800   21.8910   42.2030 H   0  0  0  0  0  0  0  0  0  0  0  0
   39.2110   23.6740   40.9980 C   0  0  0  0  0  0  0  0  0  0  0  0
   39.1750   24.5010   42.1390 N   0  0  0  0  0  0  0  0  0  0  0  0
   39.1900   24.0650   43.0850 H   0  0  0  0  0  0  0  0  0  0  0  0
  1  6  1  1  0  0  0
  1 32  1  0  0  0  0
  1  2  1  0  0  0  0
  2  7  1  6  0  0  0
  2 15  1  0  0  0  0
  3  9  1  0  0  0  0
  3  8  1  0  0  0  0
  3  2  1  0  0  0  0
  4  3  1  0  0  0  0
  5  4  1  0  0  0  0
  5  1  1  0  0  0  0
 10  5  1  0  0  0  0
 11  5  1  0  0  0  0
 12 13  1  0  0  0  0
 12 21  1  0  0  0  0
 13 17  1  0  0  0  0
 14 13  2  0  0  0  0
 15 16  1  0  0  0  0
 15 14  1  0  0  0  0
 16 12  2  0  0  0  0
 18 14  1  0  0  0  0
 19 27  1  0  0  0  0
 20 25  1  0  0  0  0
 20 19  2  0  0  0  0
 21 20  1  0  0  0  0
 22 21  2  0  0  0  0
 22 23  1  0  0  0  0
 23 24  2  0  0  0  0
 24 19  1  0  0  0  0
 26 23  1  0  0  0  0
 27 28  1  0  0  0  0
 28 29  1  0  0  0  0
 28 30  1  0  0  0  0
 31 28  1  0  0  0  0
 32 33  1  0  0  0  0
 33 34  1  0  0  0  0
 34 35  1  0  0  0  0
 36 34  2  0  0  0  0
 36 37  1  0  0  0  0
 38 53  1  0  0  0  0
 38 36  1  0  0  0  0
 39 40  1  0  0  0  0
 39 38  2  0  0  0  0
 40 33  2  0  0  0  0
 41 40  1  0  0  0  0
 42 43  1  0  0  0  0
 42 39  1  0  0  0  0
 43 52  1  0  0  0  0
 44 46  1  0  0  0  0
 44 43  2  0  0  0  0
 45 44  1  0  0  0  0
 46 48  2  0  0  0  0
 47 46  1  0  0  0  0
 48 49  1  0  0  0  0
 48 50  1  0  0  0  0
 50 51  1  0  0  0  0
 52 50  2  0  0  0  0
 52 53  1  0  0  0  0
 53 54  1  0  0  0  0
M  END
>  <minimizedAffinity>
-6.81055307

>  <minimizedRMSD>
1.28144443

$$$$
