
 OpenBabel03272503423D

 54 59  0  0  1  0  0  0  0  0999 V2000
   39.6720   31.3890   41.5270 C   0  0  2  0  0  0  0  0  0  0  0  0
   39.5160   32.4800   42.5880 C   0  0  1  0  0  0  0  0  0  0  0  0
   38.3180   33.1910   42.0170 C   0  0  0  0  0  0  0  0  0  0  0  0
   38.4400   33.1420   40.6480 O   0  0  0  0  0  0  0  0  0  0  0  0
   39.4190   32.2640   40.2940 C   0  0  0  0  0  0  0  0  0  0  0  0
   40.6850   30.9540   41.5370 H   0  0  0  0  0  0  0  0  0  0  0  0
   40.3780   33.1570   42.6220 H   0  0  0  0  0  0  0  0  0  0  0  0
   37.4010   32.7340   42.4080 H   0  0  0  0  0  0  0  0  0  0  0  0
   38.3710   34.2440   42.4190 H   0  0  0  0  0  0  0  0  0  0  0  0
   40.3330   32.8370   40.0580 H   0  0  0  0  0  0  0  0  0  0  0  0
   39.0560   31.6500   39.4430 H   0  0  0  0  0  0  0  0  0  0  0  0
   38.3200   31.1700   45.7150 C   0  0  0  0  0  0  0  0  0  0  0  0
   39.6550   30.9200   45.8490 C   0  0  0  0  0  0  0  0  0  0  0  0
   40.2240   31.3980   44.6700 C   0  0  0  0  0  0  0  0  0  0  0  0
   39.2670   31.9030   43.8830 N   0  0  0  0  0  0  0  0  0  0  0  0
   38.1010   31.7630   44.5240 N   0  0  0  0  0  0  0  0  0  0  0  0
   40.1430   30.4470   46.7060 H   0  0  0  0  0  0  0  0  0  0  0  0
   41.3020   31.3230   44.5130 H   0  0  0  0  0  0  0  0  0  0  0  0
   36.4950   30.6300   48.9490 C   0  0  0  0  0  0  0  0  0  0  0  0
   37.4870   30.9520   48.0500 C   0  0  0  0  0  0  0  0  0  0  0  0
   37.3140   30.8460   46.6940 C   0  0  0  0  0  0  0  0  0  0  0  0
   36.0960   30.4020   46.2740 N   0  0  0  0  0  0  0  0  0  0  0  0
   35.1160   30.0870   47.1720 C   0  0  0  0  0  0  0  0  0  0  0  0
   35.2930   30.1910   48.4710 N   0  0  0  0  0  0  0  0  0  0  0  0
   38.4750   31.3100   48.3410 H   0  0  0  0  0  0  0  0  0  0  0  0
   34.1420   29.7300   46.8070 H   0  0  0  0  0  0  0  0  0  0  0  0
   36.8580   30.8030   50.2750 O   0  0  0  0  0  0  0  0  0  0  0  0
   36.9200   29.7340   51.1950 C   0  0  0  0  0  0  0  0  0  0  0  0
   35.6660   29.3130   51.5990 F   0  0  0  0  0  0  0  0  0  0  0  0
   37.6660   30.1300   52.2740 F   0  0  0  0  0  0  0  0  0  0  0  0
   37.5720   28.6710   50.5970 F   0  0  0  0  0  0  0  0  0  0  0  0
   38.6180   30.5090   41.6990 O   0  0  0  0  0  0  0  0  0  0  0  0
   38.6810   29.2060   42.1100 C   0  0  0  0  0  0  0  0  0  0  0  0
   39.8390   28.4740   42.2750 C   0  0  0  0  0  0  0  0  0  0  0  0
   40.7820   28.9570   42.0650 H   0  0  0  0  0  0  0  0  0  0  0  0
   39.7550   27.1630   42.6960 C   0  0  0  0  0  0  0  0  0  0  0  0
   40.7250   26.6530   42.8010 H   0  0  0  0  0  0  0  0  0  0  0  0
   38.5840   26.4900   42.9790 C   0  0  0  0  0  0  0  0  0  0  0  0
   37.4620   27.2400   42.8070 C   0  0  0  0  0  0  0  0  0  0  0  0
   37.5040   28.5430   42.3900 C   0  0  0  0  0  0  0  0  0  0  0  0
   36.5550   29.0900   42.2730 H   0  0  0  0  0  0  0  0  0  0  0  0
   35.8760   26.4950   43.1380 S   0  0  0  0  0  0  0  0  0  0  0  0
   36.2010   24.8330   43.6490 C   0  0  0  0  0  0  0  0  0  0  0  0
   35.1690   24.0230   43.9680 C   0  0  0  0  0  0  0  0  0  0  0  0
   34.1260   24.3320   43.9310 H   0  0  0  0  0  0  0  0  0  0  0  0
   35.3660   22.6990   44.3780 C   0  0  0  0  0  0  0  0  0  0  0  0
   34.5610   22.0240   44.6410 H   0  0  0  0  0  0  0  0  0  0  0  0
   36.6640   22.2380   44.4480 C   0  0  0  0  0  0  0  0  0  0  0  0
   36.8340   21.2340   44.7580 H   0  0  0  0  0  0  0  0  0  0  0  0
   37.6770   23.1100   44.1100 C   0  0  0  0  0  0  0  0  0  0  0  0
   38.6730   22.6730   44.1900 H   0  0  0  0  0  0  0  0  0  0  0  0
   37.5050   24.4160   43.7040 C   0  0  0  0  0  0  0  0  0  0  0  0
   38.6600   25.1630   43.3980 N   0  0  0  0  0  0  0  0  0  0  0  0
   39.5970   24.7130   43.4850 H   0  0  0  0  0  0  0  0  0  0  0  0
  1  6  1  1  0  0  0
  1 32  1  0  0  0  0
  1  2  1  0  0  0  0
  2  7  1  1  0  0  0
  2 15  1  0  0  0  0
  3  8  1  0  0  0  0
  3  9  1  0  0  0  0
  3  2  1  0  0  0  0
  4  3  1  0  0  0  0
  5  4  1  0  0  0  0
  5  1  1  0  0  0  0
 10  5  1  0  0  0  0
 11  5  1  0  0  0  0
 12 13  1  0  0  0  0
 12 21  1  0  0  0  0
 13 17  1  0  0  0  0
 14 13  2  0  0  0  0
 15 16  1  0  0  0  0
 15 14  1  0  0  0  0
 16 12  2  0  0  0  0
 18 14  1  0  0  0  0
 19 27  1  0  0  0  0
 20 25  1  0  0  0  0
 20 19  2  0  0  0  0
 21 20  1  0  0  0  0
 22 21  2  0  0  0  0
 22 23  1  0  0  0  0
 23 24  2  0  0  0  0
 24 19  1  0  0  0  0
 26 23  1  0  0  0  0
 27 28  1  0  0  0  0
 28 29  1  0  0  0  0
 28 30  1  0  0  0  0
 31 28  1  0  0  0  0
 32 33  1  0  0  0  0
 33 34  2  0  0  0  0
 33 40  1  0  0  0  0
 34 36  1  0  0  0  0
 35 34  1  0  0  0  0
 36 37  1  0  0  0  0
 36 38  2  0  0  0  0
 38 53  1  0  0  0  0
 39 38  1  0  0  0  0
 39 42  1  0  0  0  0
 40 39  2  0  0  0  0
 41 40  1  0  0  0  0
 42 43  1  0  0  0  0
 43 52  2  0  0  0  0
 43 44  1  0  0  0  0
 44 46  2  0  0  0  0
 45 44  1  0  0  0  0
 46 48  1  0  0  0  0
 46 47  1  0  0  0  0
 48 49  1  0  0  0  0
 50 51  1  0  0  0  0
 50 48  2  0  0  0  0
 52 50  1  0  0  0  0
 53 54  1  0  0  0  0
 53 52  1  0  0  0  0
M  END
>  <minimizedAffinity>
-6.64898777

>  <minimizedRMSD>
0.904497325

$$$$
