
 OpenBabel03262522583D

 38 42  0  0  0  0  0  0  0  0999 V2000
   37.7650   27.4490   32.1430 C   0  0  0  0  0  0  0  0  0  0  0  0
   36.8330   27.9110   33.0470 C   0  0  0  0  0  0  0  0  0  0  0  0
   36.1430   28.7020   32.7890 H   0  0  0  0  0  0  0  0  0  0  0  0
   36.8140   27.3230   34.2940 C   0  0  0  0  0  0  0  0  0  0  0  0
   36.0510   27.7260   34.9790 H   0  0  0  0  0  0  0  0  0  0  0  0
   37.6410   26.3110   34.7310 C   0  0  0  0  0  0  0  0  0  0  0  0
   38.5380   25.9120   33.7700 C   0  0  0  0  0  0  0  0  0  0  0  0
   38.6260   26.4410   32.5080 C   0  0  0  0  0  0  0  0  0  0  0  0
   39.3510   26.0900   31.7860 H   0  0  0  0  0  0  0  0  0  0  0  0
   39.6910   24.6090   34.1600 S   0  0  0  0  0  0  0  0  0  0  0  0
   39.3540   24.1220   35.8320 C   0  0  0  0  0  0  0  0  0  0  0  0
   40.0640   23.1450   36.4300 C   0  0  0  0  0  0  0  0  0  0  0  0
   40.8610   22.6520   35.8610 H   0  0  0  0  0  0  0  0  0  0  0  0
   39.8620   22.7020   37.7430 C   0  0  0  0  0  0  0  0  0  0  0  0
   40.4790   21.9210   38.1220 H   0  0  0  0  0  0  0  0  0  0  0  0
   38.8450   23.3580   38.4130 C   0  0  0  0  0  0  0  0  0  0  0  0
   38.6500   23.0510   39.4340 H   0  0  0  0  0  0  0  0  0  0  0  0
   38.1230   24.3580   37.7930 C   0  0  0  0  0  0  0  0  0  0  0  0
   37.3460   24.8040   38.4170 H   0  0  0  0  0  0  0  0  0  0  0  0
   38.3500   24.7680   36.4960 C   0  0  0  0  0  0  0  0  0  0  0  0
   37.5100   25.8040   36.0360 N   0  0  0  0  0  0  0  0  0  0  0  0
   36.7840   26.2200   36.6210 H   0  0  0  0  0  0  0  0  0  0  0  0
   38.5640   28.4550   28.8210 C   0  0  0  0  0  0  0  0  0  0  0  0
   37.3990   29.1720   29.0570 C   0  0  0  0  0  0  0  0  0  0  0  0
   36.9490   28.8950   30.3180 C   0  0  0  0  0  0  0  0  0  0  0  0
   37.8350   28.0160   30.8410 N   0  0  0  0  0  0  0  0  0  0  0  0
   38.7790   27.7720   29.9370 N   0  0  0  0  0  0  0  0  0  0  0  0
   36.9640   29.8320   28.3150 H   0  0  0  0  0  0  0  0  0  0  0  0
   36.0730   29.3040   30.7730 H   0  0  0  0  0  0  0  0  0  0  0  0
   40.3970   29.6450   25.8760 C   0  0  0  0  0  0  0  0  0  0  0  0
   40.8450   28.4330   25.2970 C   0  0  0  0  0  0  0  0  0  0  0  0
   40.5070   27.2390   25.9300 C   0  0  0  0  0  0  0  0  0  0  0  0
   39.7680   27.2920   27.0680 N   0  0  0  0  0  0  0  0  0  0  0  0
   39.3550   28.4710   27.5950 C   0  0  0  0  0  0  0  0  0  0  0  0
   39.6680   29.6390   27.0040 N   0  0  0  0  0  0  0  0  0  0  0  0
   40.6580   30.5880   25.3850 H   0  0  0  0  0  0  0  0  0  0  0  0
   41.4320   28.4610   24.3870 H   0  0  0  0  0  0  0  0  0  0  0  0
   40.8350   26.2990   25.5110 H   0  0  0  0  0  0  0  0  0  0  0  0
  1  8  2  0  0  0  0
  1  2  1  0  0  0  0
  2  4  2  0  0  0  0
  3  2  1  0  0  0  0
  4  6  1  0  0  0  0
  4  5  1  0  0  0  0
  6 21  1  0  0  0  0
  7 10  1  0  0  0  0
  7  6  2  0  0  0  0
  8  7  1  0  0  0  0
  9  8  1  0  0  0  0
 10 11  1  0  0  0  0
 11 12  2  0  0  0  0
 11 20  1  0  0  0  0
 12 14  1  0  0  0  0
 13 12  1  0  0  0  0
 14 15  1  0  0  0  0
 14 16  2  0  0  0  0
 16 17  1  0  0  0  0
 18 16  1  0  0  0  0
 18 19  1  0  0  0  0
 20 18  2  0  0  0  0
 21 20  1  0  0  0  0
 21 22  1  0  0  0  0
 23 24  1  0  0  0  0
 23 27  2  0  0  0  0
 24 25  2  0  0  0  0
 25 29  1  0  0  0  0
 25 26  1  0  0  0  0
 26  1  1  0  0  0  0
 27 26  1  0  0  0  0
 28 24  1  0  0  0  0
 30 35  1  0  0  0  0
 31 30  2  0  0  0  0
 31 32  1  0  0  0  0
 32 33  2  0  0  0  0
 33 34  1  0  0  0  0
 34 23  1  0  0  0  0
 35 34  2  0  0  0  0
 36 30  1  0  0  0  0
 37 31  1  0  0  0  0
 38 32  1  0  0  0  0
M  END
>  <minimizedAffinity>
-6.06294632

$$$$

 OpenBabel03262522583D

 38 42  0  0  0  0  0  0  0  0999 V2000
   37.9270   27.5240   32.1480 C   0  0  0  0  0  0  0  0  0  0  0  0
   36.9340   27.9150   33.0200 C   0  0  0  0  0  0  0  0  0  0  0  0
   36.2230   28.6840   32.7550 H   0  0  0  0  0  0  0  0  0  0  0  0
   36.8850   27.2850   34.2460 C   0  0  0  0  0  0  0  0  0  0  0  0
   36.0740   27.6330   34.9060 H   0  0  0  0  0  0  0  0  0  0  0  0
   37.7350   26.2960   34.6890 C   0  0  0  0  0  0  0  0  0  0  0  0
   38.6920   25.9680   33.7600 C   0  0  0  0  0  0  0  0  0  0  0  0
   38.8140   26.5420   32.5210 C   0  0  0  0  0  0  0  0  0  0  0  0
   39.5870   26.2480   31.8240 H   0  0  0  0  0  0  0  0  0  0  0  0
   39.8830   24.7040   34.1630 S   0  0  0  0  0  0  0  0  0  0  0  0
   39.4910   24.1470   35.8010 C   0  0  0  0  0  0  0  0  0  0  0  0
   40.2160   23.1810   36.4010 C   0  0  0  0  0  0  0  0  0  0  0  0
   41.0600   22.7420   35.8550 H   0  0  0  0  0  0  0  0  0  0  0  0
   39.9730   22.6870   37.6880 C   0  0  0  0  0  0  0  0  0  0  0  0
   40.6070   21.9210   38.0710 H   0  0  0  0  0  0  0  0  0  0  0  0
   38.8980   23.2760   38.3290 C   0  0  0  0  0  0  0  0  0  0  0  0
   38.6710   22.9270   39.3300 H   0  0  0  0  0  0  0  0  0  0  0  0
   38.1620   24.2640   37.7080 C   0  0  0  0  0  0  0  0  0  0  0  0
   37.3380   24.6550   38.3080 H   0  0  0  0  0  0  0  0  0  0  0  0
   38.4300   24.7270   36.4370 C   0  0  0  0  0  0  0  0  0  0  0  0
   37.5670   25.7400   35.9710 N   0  0  0  0  0  0  0  0  0  0  0  0
   36.7970   26.1050   36.5330 H   0  0  0  0  0  0  0  0  0  0  0  0
   37.7840   29.6060   29.2610 C   0  0  0  0  0  0  0  0  0  0  0  0
   38.5230   28.5290   28.7910 C   0  0  0  0  0  0  0  0  0  0  0  0
   38.6740   27.6160   29.7970 C   0  0  0  0  0  0  0  0  0  0  0  0
   38.0310   28.1370   30.8680 N   0  0  0  0  0  0  0  0  0  0  0  0
   37.5140   29.3130   30.5260 N   0  0  0  0  0  0  0  0  0  0  0  0
   38.8940   28.4800   27.7740 H   0  0  0  0  0  0  0  0  0  0  0  0
   39.1980   26.6870   29.7250 H   0  0  0  0  0  0  0  0  0  0  0  0
   37.3640   31.9850   26.5010 C   0  0  0  0  0  0  0  0  0  0  0  0
   36.6610   33.0430   27.1270 C   0  0  0  0  0  0  0  0  0  0  0  0
   36.3490   32.9140   28.4790 C   0  0  0  0  0  0  0  0  0  0  0  0
   36.7310   31.7860   29.1300 N   0  0  0  0  0  0  0  0  0  0  0  0
   37.4040   30.7910   28.5000 C   0  0  0  0  0  0  0  0  0  0  0  0
   37.7180   30.8900   27.1950 N   0  0  0  0  0  0  0  0  0  0  0  0
   37.6140   32.0770   25.4390 H   0  0  0  0  0  0  0  0  0  0  0  0
   36.3860   33.9160   26.5490 H   0  0  0  0  0  0  0  0  0  0  0  0
   35.8130   33.7050   28.9820 H   0  0  0  0  0  0  0  0  0  0  0  0
  1  8  2  0  0  0  0
  1  2  1  0  0  0  0
  2  4  2  0  0  0  0
  3  2  1  0  0  0  0
  4  6  1  0  0  0  0
  4  5  1  0  0  0  0
  6 21  1  0  0  0  0
  7 10  1  0  0  0  0
  7  6  2  0  0  0  0
  8  7  1  0  0  0  0
  9  8  1  0  0  0  0
 10 11  1  0  0  0  0
 11 12  2  0  0  0  0
 11 20  1  0  0  0  0
 12 14  1  0  0  0  0
 13 12  1  0  0  0  0
 14 15  1  0  0  0  0
 14 16  2  0  0  0  0
 16 17  1  0  0  0  0
 18 19  1  0  0  0  0
 18 16  1  0  0  0  0
 20 18  2  0  0  0  0
 21 20  1  0  0  0  0
 21 22  1  0  0  0  0
 23 27  2  0  0  0  0
 24 23  1  0  0  0  0
 24 25  2  0  0  0  0
 25 26  1  0  0  0  0
 26  1  1  0  0  0  0
 27 26  1  0  0  0  0
 28 24  1  0  0  0  0
 29 25  1  0  0  0  0
 30 31  2  0  0  0  0
 30 35  1  0  0  0  0
 31 32  1  0  0  0  0
 32 38  1  0  0  0  0
 32 33  2  0  0  0  0
 34 33  1  0  0  0  0
 34 23  1  0  0  0  0
 35 34  2  0  0  0  0
 36 30  1  0  0  0  0
 37 31  1  0  0  0  0
M  END
>  <minimizedAffinity>
-5.90421438

$$$$

 OpenBabel03262522583D

 38 42  0  0  0  0  0  0  0  0999 V2000
   37.6970   27.4580   32.8720 C   0  0  0  0  0  0  0  0  0  0  0  0
   38.8980   27.3430   32.2060 C   0  0  0  0  0  0  0  0  0  0  0  0
   39.1090   27.9260   31.3210 H   0  0  0  0  0  0  0  0  0  0  0  0
   39.8210   26.4530   32.7140 C   0  0  0  0  0  0  0  0  0  0  0  0
   40.7630   26.3970   32.1470 H   0  0  0  0  0  0  0  0  0  0  0  0
   39.6600   25.6610   33.8300 C   0  0  0  0  0  0  0  0  0  0  0  0
   38.4380   25.8380   34.4320 C   0  0  0  0  0  0  0  0  0  0  0  0
   37.4650   26.7000   33.9950 C   0  0  0  0  0  0  0  0  0  0  0  0
   36.5170   26.8030   34.5050 H   0  0  0  0  0  0  0  0  0  0  0  0
   38.0550   24.8930   35.8940 S   0  0  0  0  0  0  0  0  0  0  0  0
   39.4730   23.8790   36.2240 C   0  0  0  0  0  0  0  0  0  0  0  0
   39.4990   23.0380   37.2770 C   0  0  0  0  0  0  0  0  0  0  0  0
   38.6210   22.9900   37.9320 H   0  0  0  0  0  0  0  0  0  0  0  0
   40.5760   22.2060   37.6060 C   0  0  0  0  0  0  0  0  0  0  0  0
   40.4950   21.5770   38.4620 H   0  0  0  0  0  0  0  0  0  0  0  0
   41.6550   22.3080   36.7470 C   0  0  0  0  0  0  0  0  0  0  0  0
   42.5140   21.6830   36.9600 H   0  0  0  0  0  0  0  0  0  0  0  0
   41.6200   23.1710   35.6710 C   0  0  0  0  0  0  0  0  0  0  0  0
   42.5270   23.1680   35.0620 H   0  0  0  0  0  0  0  0  0  0  0  0
   40.5400   23.9770   35.3770 C   0  0  0  0  0  0  0  0  0  0  0  0
   40.6910   24.7930   34.2360 N   0  0  0  0  0  0  0  0  0  0  0  0
   41.5400   24.7890   33.6680 H   0  0  0  0  0  0  0  0  0  0  0  0
   34.7870   29.4050   32.2190 C   0  0  0  0  0  0  0  0  0  0  0  0
   35.6680   29.8930   31.2650 C   0  0  0  0  0  0  0  0  0  0  0  0
   36.8620   29.2380   31.3800 C   0  0  0  0  0  0  0  0  0  0  0  0
   36.7050   28.3590   32.3970 N   0  0  0  0  0  0  0  0  0  0  0  0
   35.4700   28.4780   32.8760 N   0  0  0  0  0  0  0  0  0  0  0  0
   35.3920   30.6750   30.5660 H   0  0  0  0  0  0  0  0  0  0  0  0
   37.7280   29.4050   30.7760 H   0  0  0  0  0  0  0  0  0  0  0  0
   31.6910   31.3640   32.0450 C   0  0  0  0  0  0  0  0  0  0  0  0
   30.8150   30.6060   32.8590 C   0  0  0  0  0  0  0  0  0  0  0  0
   31.3080   29.4430   33.4480 C   0  0  0  0  0  0  0  0  0  0  0  0
   32.5980   29.0920   33.2140 N   0  0  0  0  0  0  0  0  0  0  0  0
   33.4100   29.8420   32.4280 C   0  0  0  0  0  0  0  0  0  0  0  0
   32.9600   30.9690   31.8480 N   0  0  0  0  0  0  0  0  0  0  0  0
   31.3120   32.2800   31.5790 H   0  0  0  0  0  0  0  0  0  0  0  0
   29.7960   30.9430   33.0050 H   0  0  0  0  0  0  0  0  0  0  0  0
   30.6620   28.8450   34.0740 H   0  0  0  0  0  0  0  0  0  0  0  0
  1  8  1  0  0  0  0
  2  4  1  0  0  0  0
  2  1  2  0  0  0  0
  3  2  1  0  0  0  0
  4  6  2  0  0  0  0
  5  4  1  0  0  0  0
  6 21  1  0  0  0  0
  6  7  1  0  0  0  0
  7 10  1  0  0  0  0
  8  7  2  0  0  0  0
  8  9  1  0  0  0  0
 10 11  1  0  0  0  0
 11 12  1  0  0  0  0
 12 14  2  0  0  0  0
 12 13  1  0  0  0  0
 14 15  1  0  0  0  0
 16 17  1  0  0  0  0
 16 14  1  0  0  0  0
 18 16  2  0  0  0  0
 19 18  1  0  0  0  0
 20 18  1  0  0  0  0
 20 11  2  0  0  0  0
 21 20  1  0  0  0  0
 22 21  1  0  0  0  0
 23 34  1  0  0  0  0
 23 27  2  0  0  0  0
 24 25  2  0  0  0  0
 24 23  1  0  0  0  0
 25 26  1  0  0  0  0
 26  1  1  0  0  0  0
 26 27  1  0  0  0  0
 28 24  1  0  0  0  0
 29 25  1  0  0  0  0
 30 31  1  0  0  0  0
 31 37  1  0  0  0  0
 31 32  2  0  0  0  0
 32 38  1  0  0  0  0
 33 32  1  0  0  0  0
 34 33  2  0  0  0  0
 35 30  2  0  0  0  0
 35 34  1  0  0  0  0
 36 30  1  0  0  0  0
M  END
>  <minimizedAffinity>
-5.87214756

$$$$

 OpenBabel03262522583D

 38 42  0  0  0  0  0  0  0  0999 V2000
   38.2900   26.9190   33.9460 C   0  0  0  0  0  0  0  0  0  0  0  0
   39.4980   27.1530   33.3260 C   0  0  0  0  0  0  0  0  0  0  0  0
   39.6190   27.9580   32.6140 H   0  0  0  0  0  0  0  0  0  0  0  0
   40.5480   26.3200   33.6500 C   0  0  0  0  0  0  0  0  0  0  0  0
   41.4910   26.5480   33.1290 H   0  0  0  0  0  0  0  0  0  0  0  0
   40.5090   25.2680   34.5390 C   0  0  0  0  0  0  0  0  0  0  0  0
   39.2700   25.1060   35.1100 C   0  0  0  0  0  0  0  0  0  0  0  0
   38.1740   25.8870   34.8460 C   0  0  0  0  0  0  0  0  0  0  0  0
   37.2190   25.7170   35.3230 H   0  0  0  0  0  0  0  0  0  0  0  0
   39.0330   23.7890   36.2890 S   0  0  0  0  0  0  0  0  0  0  0  0
   40.5930   22.9570   36.4340 C   0  0  0  0  0  0  0  0  0  0  0  0
   40.7470   21.9010   37.2590 C   0  0  0  0  0  0  0  0  0  0  0  0
   39.8820   21.5630   37.8440 H   0  0  0  0  0  0  0  0  0  0  0  0
   41.9400   21.1910   37.4300 C   0  0  0  0  0  0  0  0  0  0  0  0
   41.9550   20.3700   38.1090 H   0  0  0  0  0  0  0  0  0  0  0  0
   42.9950   21.6610   36.6690 C   0  0  0  0  0  0  0  0  0  0  0  0
   43.9420   21.1430   36.7660 H   0  0  0  0  0  0  0  0  0  0  0  0
   42.8300   22.7410   35.8270 C   0  0  0  0  0  0  0  0  0  0  0  0
   43.7290   23.0240   35.2760 H   0  0  0  0  0  0  0  0  0  0  0  0
   41.6370   23.4180   35.6830 C   0  0  0  0  0  0  0  0  0  0  0  0
   41.6630   24.4980   34.7750 N   0  0  0  0  0  0  0  0  0  0  0  0
   42.5050   24.7610   34.2600 H   0  0  0  0  0  0  0  0  0  0  0  0
   35.4190   29.0290   33.9580 C   0  0  0  0  0  0  0  0  0  0  0  0
   35.6400   28.8670   32.5980 C   0  0  0  0  0  0  0  0  0  0  0  0
   36.7320   28.0650   32.4120 C   0  0  0  0  0  0  0  0  0  0  0  0
   37.1690   27.7440   33.6520 N   0  0  0  0  0  0  0  0  0  0  0  0
   36.3770   28.3260   34.5480 N   0  0  0  0  0  0  0  0  0  0  0  0
   35.0090   29.3310   31.8490 H   0  0  0  0  0  0  0  0  0  0  0  0
   37.1360   27.7680   31.4690 H   0  0  0  0  0  0  0  0  0  0  0  0
   32.0940   30.1620   35.0120 C   0  0  0  0  0  0  0  0  0  0  0  0
   32.4000   31.3270   35.7540 C   0  0  0  0  0  0  0  0  0  0  0  0
   33.7390   31.6960   35.8760 C   0  0  0  0  0  0  0  0  0  0  0  0
   34.6820   30.9230   35.2790 N   0  0  0  0  0  0  0  0  0  0  0  0
   34.3540   29.8120   34.5740 C   0  0  0  0  0  0  0  0  0  0  0  0
   33.0700   29.4340   34.4410 N   0  0  0  0  0  0  0  0  0  0  0  0
   31.0450   29.8650   34.9110 H   0  0  0  0  0  0  0  0  0  0  0  0
   31.5980   31.8990   36.2050 H   0  0  0  0  0  0  0  0  0  0  0  0
   34.0020   32.5800   36.4370 H   0  0  0  0  0  0  0  0  0  0  0  0
  1  8  1  0  0  0  0
  2  4  1  0  0  0  0
  2  1  2  0  0  0  0
  3  2  1  0  0  0  0
  4  6  2  0  0  0  0
  5  4  1  0  0  0  0
  6 21  1  0  0  0  0
  6  7  1  0  0  0  0
  7 10  1  0  0  0  0
  8  7  2  0  0  0  0
  8  9  1  0  0  0  0
 10 11  1  0  0  0  0
 11 12  1  0  0  0  0
 12 14  2  0  0  0  0
 12 13  1  0  0  0  0
 14 15  1  0  0  0  0
 16 17  1  0  0  0  0
 16 14  1  0  0  0  0
 18 16  2  0  0  0  0
 19 18  1  0  0  0  0
 20 18  1  0  0  0  0
 20 11  2  0  0  0  0
 21 20  1  0  0  0  0
 22 21  1  0  0  0  0
 23 27  2  0  0  0  0
 23 34  1  0  0  0  0
 24 23  1  0  0  0  0
 25 24  2  0  0  0  0
 25 26  1  0  0  0  0
 26  1  1  0  0  0  0
 26 27  1  0  0  0  0
 28 24  1  0  0  0  0
 29 25  1  0  0  0  0
 30 31  1  0  0  0  0
 31 32  2  0  0  0  0
 31 37  1  0  0  0  0
 32 38  1  0  0  0  0
 33 32  1  0  0  0  0
 34 33  2  0  0  0  0
 35 34  1  0  0  0  0
 35 30  2  0  0  0  0
 36 30  1  0  0  0  0
M  END
>  <minimizedAffinity>
-5.85775042

$$$$

 OpenBabel03262522583D

 38 42  0  0  0  0  0  0  0  0999 V2000
   37.0410   27.5370   33.8200 C   0  0  0  0  0  0  0  0  0  0  0  0
   37.9720   27.3640   32.8190 C   0  0  0  0  0  0  0  0  0  0  0  0
   37.9500   27.9640   31.9200 H   0  0  0  0  0  0  0  0  0  0  0  0
   38.9350   26.3960   33.0110 C   0  0  0  0  0  0  0  0  0  0  0  0
   39.6560   26.2960   32.1840 H   0  0  0  0  0  0  0  0  0  0  0  0
   39.0590   25.5770   34.1120 C   0  0  0  0  0  0  0  0  0  0  0  0
   38.0930   25.8160   35.0590 C   0  0  0  0  0  0  0  0  0  0  0  0
   37.1010   26.7570   34.9490 C   0  0  0  0  0  0  0  0  0  0  0  0
   36.3620   26.9060   35.7250 H   0  0  0  0  0  0  0  0  0  0  0  0
   38.0980   24.8470   36.5550 S   0  0  0  0  0  0  0  0  0  0  0  0
   39.4680   23.7280   36.4260 C   0  0  0  0  0  0  0  0  0  0  0  0
   39.7470   22.8500   37.4100 C   0  0  0  0  0  0  0  0  0  0  0  0
   39.1060   22.8380   38.3000 H   0  0  0  0  0  0  0  0  0  0  0  0
   40.8070   21.9360   37.3860 C   0  0  0  0  0  0  0  0  0  0  0  0
   40.9410   21.2830   38.2170 H   0  0  0  0  0  0  0  0  0  0  0  0
   41.5810   21.9940   36.2410 C   0  0  0  0  0  0  0  0  0  0  0  0
   42.4150   21.3050   36.1740 H   0  0  0  0  0  0  0  0  0  0  0  0
   41.2890   22.8960   35.2380 C   0  0  0  0  0  0  0  0  0  0  0  0
   41.9660   22.8530   34.3830 H   0  0  0  0  0  0  0  0  0  0  0  0
   40.2350   23.7830   35.2960 C   0  0  0  0  0  0  0  0  0  0  0  0
   40.0960   24.6280   34.1740 N   0  0  0  0  0  0  0  0  0  0  0  0
   40.7310   24.5860   33.3760 H   0  0  0  0  0  0  0  0  0  0  0  0
   34.3780   29.8730   34.2030 C   0  0  0  0  0  0  0  0  0  0  0  0
   34.6790   30.0120   32.8550 C   0  0  0  0  0  0  0  0  0  0  0  0
   35.7040   29.1660   32.5350 C   0  0  0  0  0  0  0  0  0  0  0  0
   36.0220   28.5200   33.6800 N   0  0  0  0  0  0  0  0  0  0  0  0
   35.2240   28.9550   34.6520 N   0  0  0  0  0  0  0  0  0  0  0  0
   34.1470   30.7020   32.2110 H   0  0  0  0  0  0  0  0  0  0  0  0
   36.1460   29.0580   31.5670 H   0  0  0  0  0  0  0  0  0  0  0  0
   31.1730   31.4170   35.0940 C   0  0  0  0  0  0  0  0  0  0  0  0
   31.4540   31.9670   36.3680 C   0  0  0  0  0  0  0  0  0  0  0  0
   32.7350   31.7950   36.8890 C   0  0  0  0  0  0  0  0  0  0  0  0
   33.6490   31.1110   36.1550 N   0  0  0  0  0  0  0  0  0  0  0  0
   33.3460   30.5970   34.9370 C   0  0  0  0  0  0  0  0  0  0  0  0
   32.1180   30.7480   34.4110 N   0  0  0  0  0  0  0  0  0  0  0  0
   30.1690   31.5480   34.6760 H   0  0  0  0  0  0  0  0  0  0  0  0
   30.6780   32.5020   36.9010 H   0  0  0  0  0  0  0  0  0  0  0  0
   32.9770   32.2040   37.8590 H   0  0  0  0  0  0  0  0  0  0  0  0
  1  8  1  0  0  0  0
  2  4  1  0  0  0  0
  2  1  2  0  0  0  0
  3  2  1  0  0  0  0
  4  6  2  0  0  0  0
  5  4  1  0  0  0  0
  6 21  1  0  0  0  0
  6  7  1  0  0  0  0
  7 10  1  0  0  0  0
  8  7  2  0  0  0  0
  8  9  1  0  0  0  0
 11 10  1  0  0  0  0
 11 12  1  0  0  0  0
 12 13  1  0  0  0  0
 14 12  2  0  0  0  0
 14 15  1  0  0  0  0
 16 14  1  0  0  0  0
 17 16  1  0  0  0  0
 18 20  1  0  0  0  0
 18 16  2  0  0  0  0
 19 18  1  0  0  0  0
 20 11  2  0  0  0  0
 21 20  1  0  0  0  0
 22 21  1  0  0  0  0
 23 27  2  0  0  0  0
 23 34  1  0  0  0  0
 24 23  1  0  0  0  0
 25 24  2  0  0  0  0
 25 26  1  0  0  0  0
 26  1  1  0  0  0  0
 26 27  1  0  0  0  0
 28 24  1  0  0  0  0
 29 25  1  0  0  0  0
 30 31  1  0  0  0  0
 31 32  2  0  0  0  0
 31 37  1  0  0  0  0
 32 38  1  0  0  0  0
 33 32  1  0  0  0  0
 34 33  2  0  0  0  0
 35 34  1  0  0  0  0
 35 30  2  0  0  0  0
 36 30  1  0  0  0  0
M  END
>  <minimizedAffinity>
-5.81224346

$$$$

 OpenBabel03262522583D

 38 42  0  0  0  0  0  0  0  0999 V2000
   36.7420   26.8120   31.4960 C   0  0  0  0  0  0  0  0  0  0  0  0
   36.6320   27.7180   30.4630 C   0  0  0  0  0  0  0  0  0  0  0  0
   36.7580   27.4150   29.4330 H   0  0  0  0  0  0  0  0  0  0  0  0
   36.3550   29.0270   30.7970 C   0  0  0  0  0  0  0  0  0  0  0  0
   36.2770   29.7120   29.9370 H   0  0  0  0  0  0  0  0  0  0  0  0
   36.1760   29.5230   32.0700 C   0  0  0  0  0  0  0  0  0  0  0  0
   36.3020   28.5550   33.0360 C   0  0  0  0  0  0  0  0  0  0  0  0
   36.5750   27.2340   32.7940 C   0  0  0  0  0  0  0  0  0  0  0  0
   36.6650   26.5090   33.5920 H   0  0  0  0  0  0  0  0  0  0  0  0
   36.1010   29.0180   34.7460 S   0  0  0  0  0  0  0  0  0  0  0  0
   35.7600   30.7580   34.7600 C   0  0  0  0  0  0  0  0  0  0  0  0
   35.5550   31.4200   35.9170 C   0  0  0  0  0  0  0  0  0  0  0  0
   35.6040   30.8580   36.8580 H   0  0  0  0  0  0  0  0  0  0  0  0
   35.2820   32.7890   36.0150 C   0  0  0  0  0  0  0  0  0  0  0  0
   35.1360   33.2150   36.9800 H   0  0  0  0  0  0  0  0  0  0  0  0
   35.2320   33.4460   34.7990 C   0  0  0  0  0  0  0  0  0  0  0  0
   35.0230   34.5090   34.8220 H   0  0  0  0  0  0  0  0  0  0  0  0
   35.4420   32.7620   33.6190 C   0  0  0  0  0  0  0  0  0  0  0  0
   35.3790   33.3820   32.7230 H   0  0  0  0  0  0  0  0  0  0  0  0
   35.7100   31.4100   33.5610 C   0  0  0  0  0  0  0  0  0  0  0  0
   35.8960   30.8890   32.2630 N   0  0  0  0  0  0  0  0  0  0  0  0
   35.8370   31.4700   31.4260 H   0  0  0  0  0  0  0  0  0  0  0  0
   36.8110   23.2660   31.1580 C   0  0  0  0  0  0  0  0  0  0  0  0
   37.9850   23.6300   30.5140 C   0  0  0  0  0  0  0  0  0  0  0  0
   38.1160   24.9910   30.5540 C   0  0  0  0  0  0  0  0  0  0  0  0
   37.0270   25.4470   31.2170 N   0  0  0  0  0  0  0  0  0  0  0  0
   36.2720   24.4080   31.5630 N   0  0  0  0  0  0  0  0  0  0  0  0
   38.6530   22.9010   30.0690 H   0  0  0  0  0  0  0  0  0  0  0  0
   38.9240   25.5540   30.1380 H   0  0  0  0  0  0  0  0  0  0  0  0
   36.3340   19.6510   30.7650 C   0  0  0  0  0  0  0  0  0  0  0  0
   35.3160   19.3820   31.7100 C   0  0  0  0  0  0  0  0  0  0  0  0
   34.8180   20.4470   32.4590 C   0  0  0  0  0  0  0  0  0  0  0  0
   35.3300   21.6860   32.2480 N   0  0  0  0  0  0  0  0  0  0  0  0
   36.3060   21.9090   31.3330 C   0  0  0  0  0  0  0  0  0  0  0  0
   36.8050   20.8990   30.5970 N   0  0  0  0  0  0  0  0  0  0  0  0
   36.7310   18.8210   30.1710 H   0  0  0  0  0  0  0  0  0  0  0  0
   34.9510   18.3690   31.8290 H   0  0  0  0  0  0  0  0  0  0  0  0
   34.0410   20.2710   33.1880 H   0  0  0  0  0  0  0  0  0  0  0  0
  1  8  1  0  0  0  0
  2  4  1  0  0  0  0
  2  1  2  0  0  0  0
  3  2  1  0  0  0  0
  4  6  2  0  0  0  0
  5  4  1  0  0  0  0
  6 21  1  0  0  0  0
  6  7  1  0  0  0  0
  7 10  1  0  0  0  0
  8  7  2  0  0  0  0
  8  9  1  0  0  0  0
 10 11  1  0  0  0  0
 11 12  1  0  0  0  0
 12 14  2  0  0  0  0
 12 13  1  0  0  0  0
 14 15  1  0  0  0  0
 16 17  1  0  0  0  0
 16 14  1  0  0  0  0
 18 16  2  0  0  0  0
 19 18  1  0  0  0  0
 20 18  1  0  0  0  0
 20 11  2  0  0  0  0
 21 20  1  0  0  0  0
 22 21  1  0  0  0  0
 23 34  1  0  0  0  0
 23 27  2  0  0  0  0
 24 25  2  0  0  0  0
 24 23  1  0  0  0  0
 25 26  1  0  0  0  0
 26  1  1  0  0  0  0
 26 27  1  0  0  0  0
 28 24  1  0  0  0  0
 29 25  1  0  0  0  0
 30 31  1  0  0  0  0
 31 37  1  0  0  0  0
 31 32  2  0  0  0  0
 32 38  1  0  0  0  0
 33 32  1  0  0  0  0
 34 33  2  0  0  0  0
 35 30  2  0  0  0  0
 35 34  1  0  0  0  0
 36 30  1  0  0  0  0
M  END
>  <minimizedAffinity>
-5.79778004

$$$$

 OpenBabel03262522583D

 38 42  0  0  0  0  0  0  0  0999 V2000
   39.2390   24.5210   35.5540 C   0  0  0  0  0  0  0  0  0  0  0  0
   38.1460   25.0680   36.1920 C   0  0  0  0  0  0  0  0  0  0  0  0
   37.8600   24.7540   37.1860 H   0  0  0  0  0  0  0  0  0  0  0  0
   37.4320   26.0310   35.5120 C   0  0  0  0  0  0  0  0  0  0  0  0
   36.5690   26.4370   36.0640 H   0  0  0  0  0  0  0  0  0  0  0  0
   37.7040   26.5070   34.2470 C   0  0  0  0  0  0  0  0  0  0  0  0
   38.8070   25.9100   33.6850 C   0  0  0  0  0  0  0  0  0  0  0  0
   39.5720   24.9460   34.2900 C   0  0  0  0  0  0  0  0  0  0  0  0
   40.4330   24.5070   33.8040 H   0  0  0  0  0  0  0  0  0  0  0  0
   39.3090   26.4030   32.0470 S   0  0  0  0  0  0  0  0  0  0  0  0
   38.1570   27.6440   31.5200 C   0  0  0  0  0  0  0  0  0  0  0  0
   38.2640   28.2260   30.3080 C   0  0  0  0  0  0  0  0  0  0  0  0
   39.0840   27.9160   29.6480 H   0  0  0  0  0  0  0  0  0  0  0  0
   37.3990   29.2100   29.8170 C   0  0  0  0  0  0  0  0  0  0  0  0
   37.5720   29.6060   28.8440 H   0  0  0  0  0  0  0  0  0  0  0  0
   36.3850   29.5620   30.6900 C   0  0  0  0  0  0  0  0  0  0  0  0
   35.6880   30.3200   30.3550 H   0  0  0  0  0  0  0  0  0  0  0  0
   36.2820   28.9620   31.9280 C   0  0  0  0  0  0  0  0  0  0  0  0
   35.4440   29.3170   32.5320 H   0  0  0  0  0  0  0  0  0  0  0  0
   37.1540   27.9930   32.3790 C   0  0  0  0  0  0  0  0  0  0  0  0
   36.8870   27.4980   33.6730 N   0  0  0  0  0  0  0  0  0  0  0  0
   36.1030   27.8320   34.2360 H   0  0  0  0  0  0  0  0  0  0  0  0
   41.6450   22.1100   36.5940 C   0  0  0  0  0  0  0  0  0  0  0  0
   40.7130   22.0330   37.6200 C   0  0  0  0  0  0  0  0  0  0  0  0
   39.6990   22.9160   37.3710 C   0  0  0  0  0  0  0  0  0  0  0  0
   40.0150   23.5220   36.2030 N   0  0  0  0  0  0  0  0  0  0  0  0
   41.1700   23.0290   35.7640 N   0  0  0  0  0  0  0  0  0  0  0  0
   40.8290   21.3590   38.4600 H   0  0  0  0  0  0  0  0  0  0  0  0
   38.8420   23.0740   37.9900 H   0  0  0  0  0  0  0  0  0  0  0  0
   44.0660   19.3680   36.8610 C   0  0  0  0  0  0  0  0  0  0  0  0
   45.2130   19.9240   36.2460 C   0  0  0  0  0  0  0  0  0  0  0  0
   45.1270   21.2260   35.7540 C   0  0  0  0  0  0  0  0  0  0  0  0
   43.9540   21.8960   35.8880 N   0  0  0  0  0  0  0  0  0  0  0  0
   42.8740   21.3320   36.4840 C   0  0  0  0  0  0  0  0  0  0  0  0
   42.9300   20.0770   36.9670 N   0  0  0  0  0  0  0  0  0  0  0  0
   44.1240   18.3460   37.2510 H   0  0  0  0  0  0  0  0  0  0  0  0
   46.1180   19.3350   36.1710 H   0  0  0  0  0  0  0  0  0  0  0  0
   45.9870   21.6760   35.2790 H   0  0  0  0  0  0  0  0  0  0  0  0
  1  2  1  0  0  0  0
  1 26  1  0  0  0  0
  2  3  1  0  0  0  0
  4  5  1  0  0  0  0
  4  2  2  0  0  0  0
  6  4  1  0  0  0  0
  7  6  2  0  0  0  0
  7  8  1  0  0  0  0
  8  1  2  0  0  0  0
  9  8  1  0  0  0  0
 10  7  1  0  0  0  0
 11 10  1  0  0  0  0
 11 20  1  0  0  0  0
 12 11  2  0  0  0  0
 13 12  1  0  0  0  0
 14 12  1  0  0  0  0
 14 16  2  0  0  0  0
 15 14  1  0  0  0  0
 16 18  1  0  0  0  0
 17 16  1  0  0  0  0
 18 20  2  0  0  0  0
 18 19  1  0  0  0  0
 20 21  1  0  0  0  0
 21 22  1  0  0  0  0
 21  6  1  0  0  0  0
 23 24  1  0  0  0  0
 24 28  1  0  0  0  0
 25 24  2  0  0  0  0
 25 29  1  0  0  0  0
 26 25  1  0  0  0  0
 27 26  1  0  0  0  0
 27 23  2  0  0  0  0
 30 35  1  0  0  0  0
 30 36  1  0  0  0  0
 31 30  2  0  0  0  0
 32 33  2  0  0  0  0
 32 31  1  0  0  0  0
 33 34  1  0  0  0  0
 34 23  1  0  0  0  0
 34 35  2  0  0  0  0
 37 31  1  0  0  0  0
 38 32  1  0  0  0  0
M  END
>  <minimizedAffinity>
-5.78022242

$$$$

 OpenBabel03262522583D

 38 42  0  0  0  0  0  0  0  0999 V2000
   38.0360   26.2000   34.0820 C   0  0  0  0  0  0  0  0  0  0  0  0
   37.4910   26.0200   35.3350 C   0  0  0  0  0  0  0  0  0  0  0  0
   36.6340   26.5920   35.6640 H   0  0  0  0  0  0  0  0  0  0  0  0
   38.0800   25.0800   36.1540 C   0  0  0  0  0  0  0  0  0  0  0  0
   37.6080   24.9740   37.1430 H   0  0  0  0  0  0  0  0  0  0  0  0
   39.1700   24.2960   35.8420 C   0  0  0  0  0  0  0  0  0  0  0  0
   39.6500   24.5390   34.5780 C   0  0  0  0  0  0  0  0  0  0  0  0
   39.1250   25.4530   33.7000 C   0  0  0  0  0  0  0  0  0  0  0  0
   39.5410   25.6070   32.7130 H   0  0  0  0  0  0  0  0  0  0  0  0
   41.0610   23.6130   34.0020 S   0  0  0  0  0  0  0  0  0  0  0  0
   41.5210   22.5230   35.3230 C   0  0  0  0  0  0  0  0  0  0  0  0
   42.5650   21.6790   35.2000 C   0  0  0  0  0  0  0  0  0  0  0  0
   43.1310   21.6790   34.2600 H   0  0  0  0  0  0  0  0  0  0  0  0
   42.9930   20.7900   36.1920 C   0  0  0  0  0  0  0  0  0  0  0  0
   43.8310   20.1640   35.9930 H   0  0  0  0  0  0  0  0  0  0  0  0
   42.2440   20.8330   37.3540 C   0  0  0  0  0  0  0  0  0  0  0  0
   42.5360   20.1630   38.1540 H   0  0  0  0  0  0  0  0  0  0  0  0
   41.1760   21.7000   37.4730 C   0  0  0  0  0  0  0  0  0  0  0  0
   40.6590   21.6480   38.4330 H   0  0  0  0  0  0  0  0  0  0  0  0
   40.7830   22.5640   36.4720 C   0  0  0  0  0  0  0  0  0  0  0  0
   39.6690   23.3730   36.7790 N   0  0  0  0  0  0  0  0  0  0  0  0
   39.1860   23.3230   37.6780 H   0  0  0  0  0  0  0  0  0  0  0  0
   36.0710   28.6180   32.3580 C   0  0  0  0  0  0  0  0  0  0  0  0
   37.1540   28.4780   31.5020 C   0  0  0  0  0  0  0  0  0  0  0  0
   38.0250   27.5640   32.0260 C   0  0  0  0  0  0  0  0  0  0  0  0
   37.4730   27.1550   33.1920 N   0  0  0  0  0  0  0  0  0  0  0  0
   36.3190   27.7920   33.3650 N   0  0  0  0  0  0  0  0  0  0  0  0
   37.2380   29.0350   30.5760 H   0  0  0  0  0  0  0  0  0  0  0  0
   38.9480   27.2550   31.5840 H   0  0  0  0  0  0  0  0  0  0  0  0
   33.9760   31.4140   31.2410 C   0  0  0  0  0  0  0  0  0  0  0  0
   32.7270   31.1020   31.8310 C   0  0  0  0  0  0  0  0  0  0  0  0
   32.6350   29.9410   32.5960 C   0  0  0  0  0  0  0  0  0  0  0  0
   33.7410   29.1670   32.7400 N   0  0  0  0  0  0  0  0  0  0  0  0
   34.9220   29.4960   32.1610 C   0  0  0  0  0  0  0  0  0  0  0  0
   35.0390   30.6110   31.4170 N   0  0  0  0  0  0  0  0  0  0  0  0
   34.0580   32.3250   30.6390 H   0  0  0  0  0  0  0  0  0  0  0  0
   31.8830   31.7630   31.6760 H   0  0  0  0  0  0  0  0  0  0  0  0
   31.6940   29.6780   33.0580 H   0  0  0  0  0  0  0  0  0  0  0  0
  1  2  1  0  0  0  0
  2  3  1  0  0  0  0
  2  4  2  0  0  0  0
  4  5  1  0  0  0  0
  6  4  1  0  0  0  0
  6 21  1  0  0  0  0
  7  6  2  0  0  0  0
  8  1  2  0  0  0  0
  8  7  1  0  0  0  0
  9  8  1  0  0  0  0
 10  7  1  0  0  0  0
 10 11  1  0  0  0  0
 11 20  1  0  0  0  0
 12 11  2  0  0  0  0
 12 14  1  0  0  0  0
 13 12  1  0  0  0  0
 14 16  2  0  0  0  0
 15 14  1  0  0  0  0
 16 18  1  0  0  0  0
 16 17  1  0  0  0  0
 18 19  1  0  0  0  0
 20 21  1  0  0  0  0
 20 18  2  0  0  0  0
 21 22  1  0  0  0  0
 23 27  2  0  0  0  0
 24 25  2  0  0  0  0
 24 23  1  0  0  0  0
 25 26  1  0  0  0  0
 26 27  1  0  0  0  0
 26  1  1  0  0  0  0
 28 24  1  0  0  0  0
 29 25  1  0  0  0  0
 30 35  2  0  0  0  0
 30 31  1  0  0  0  0
 31 32  2  0  0  0  0
 32 33  1  0  0  0  0
 32 38  1  0  0  0  0
 34 23  1  0  0  0  0
 34 33  2  0  0  0  0
 35 34  1  0  0  0  0
 36 30  1  0  0  0  0
 37 31  1  0  0  0  0
M  END
>  <minimizedAffinity>
-5.75280237

$$$$

 OpenBabel03262522583D

 38 42  0  0  0  0  0  0  0  0999 V2000
   36.9790   27.0140   32.1730 C   0  0  0  0  0  0  0  0  0  0  0  0
   38.3260   26.9020   31.9010 C   0  0  0  0  0  0  0  0  0  0  0  0
   38.9880   27.7530   31.9830 H   0  0  0  0  0  0  0  0  0  0  0  0
   38.7940   25.6620   31.5230 C   0  0  0  0  0  0  0  0  0  0  0  0
   39.8760   25.6250   31.3170 H   0  0  0  0  0  0  0  0  0  0  0  0
   38.0450   24.5140   31.3860 C   0  0  0  0  0  0  0  0  0  0  0  0
   36.7170   24.7140   31.6750 C   0  0  0  0  0  0  0  0  0  0  0  0
   36.1670   25.9100   32.0580 C   0  0  0  0  0  0  0  0  0  0  0  0
   35.1130   26.0160   32.2750 H   0  0  0  0  0  0  0  0  0  0  0  0
   35.5940   23.3350   31.5510 S   0  0  0  0  0  0  0  0  0  0  0  0
   36.5650   21.9390   31.0450 C   0  0  0  0  0  0  0  0  0  0  0  0
   36.0020   20.7280   30.8600 C   0  0  0  0  0  0  0  0  0  0  0  0
   34.9230   20.6190   31.0290 H   0  0  0  0  0  0  0  0  0  0  0  0
   36.6950   19.5790   30.4620 C   0  0  0  0  0  0  0  0  0  0  0  0
   36.1550   18.6690   30.3440 H   0  0  0  0  0  0  0  0  0  0  0  0
   38.0500   19.7750   30.2630 C   0  0  0  0  0  0  0  0  0  0  0  0
   38.6310   18.9140   29.9530 H   0  0  0  0  0  0  0  0  0  0  0  0
   38.6180   21.0170   30.4530 C   0  0  0  0  0  0  0  0  0  0  0  0
   39.6940   21.0530   30.2670 H   0  0  0  0  0  0  0  0  0  0  0  0
   37.9030   22.1290   30.8470 C   0  0  0  0  0  0  0  0  0  0  0  0
   38.6590   23.3120   30.9900 N   0  0  0  0  0  0  0  0  0  0  0  0
   39.6640   23.3430   30.8150 H   0  0  0  0  0  0  0  0  0  0  0  0
   35.4950   29.8040   33.8170 C   0  0  0  0  0  0  0  0  0  0  0  0
   35.7680   30.3320   32.5630 C   0  0  0  0  0  0  0  0  0  0  0  0
   36.3530   29.3700   31.7880 C   0  0  0  0  0  0  0  0  0  0  0  0
   36.4350   28.2670   32.5680 N   0  0  0  0  0  0  0  0  0  0  0  0
   35.9210   28.5490   33.7620 N   0  0  0  0  0  0  0  0  0  0  0  0
   35.5300   31.3570   32.3010 H   0  0  0  0  0  0  0  0  0  0  0  0
   36.6720   29.4910   30.7750 H   0  0  0  0  0  0  0  0  0  0  0  0
   33.0030   30.9830   36.2340 C   0  0  0  0  0  0  0  0  0  0  0  0
   33.7670   31.8550   37.0460 C   0  0  0  0  0  0  0  0  0  0  0  0
   35.1180   32.0170   36.7450 C   0  0  0  0  0  0  0  0  0  0  0  0
   35.6360   31.3340   35.6920 N   0  0  0  0  0  0  0  0  0  0  0  0
   34.8740   30.5070   34.9340 C   0  0  0  0  0  0  0  0  0  0  0  0
   33.5670   30.3330   35.2030 N   0  0  0  0  0  0  0  0  0  0  0  0
   31.9400   30.8510   36.4640 H   0  0  0  0  0  0  0  0  0  0  0  0
   33.2920   32.3700   37.8720 H   0  0  0  0  0  0  0  0  0  0  0  0
   35.7260   32.6760   37.3480 H   0  0  0  0  0  0  0  0  0  0  0  0
  1 26  1  0  0  0  0
  2  3  1  0  0  0  0
  2  1  2  0  0  0  0
  4  2  1  0  0  0  0
  5  4  1  0  0  0  0
  6  4  2  0  0  0  0
  6  7  1  0  0  0  0
  7  8  2  0  0  0  0
  8  1  1  0  0  0  0
  8  9  1  0  0  0  0
 10  7  1  0  0  0  0
 11 10  1  0  0  0  0
 12 13  1  0  0  0  0
 12 11  1  0  0  0  0
 14 12  2  0  0  0  0
 15 14  1  0  0  0  0
 16 18  2  0  0  0  0
 16 14  1  0  0  0  0
 17 16  1  0  0  0  0
 18 20  1  0  0  0  0
 19 18  1  0  0  0  0
 20 21  1  0  0  0  0
 20 11  2  0  0  0  0
 21  6  1  0  0  0  0
 22 21  1  0  0  0  0
 23 34  1  0  0  0  0
 24 23  1  0  0  0  0
 25 24  2  0  0  0  0
 25 26  1  0  0  0  0
 26 27  1  0  0  0  0
 27 23  2  0  0  0  0
 28 24  1  0  0  0  0
 29 25  1  0  0  0  0
 30 36  1  0  0  0  0
 30 31  1  0  0  0  0
 31 37  1  0  0  0  0
 32 31  2  0  0  0  0
 32 38  1  0  0  0  0
 33 32  1  0  0  0  0
 34 35  1  0  0  0  0
 34 33  2  0  0  0  0
 35 30  2  0  0  0  0
M  END
>  <minimizedAffinity>
-5.72533274

$$$$
