
 OpenBabel03272503303D

 47 51  0  0  1  0  0  0  0  0999 V2000
   35.6110   29.7100   47.9750 C   0  0  0  0  0  0  0  0  0  0  0  0
   35.5480   30.0880   46.6350 C   0  0  0  0  0  0  0  0  0  0  0  0
   34.4070   29.7470   45.9250 C   0  0  0  0  0  0  0  0  0  0  0  0
   33.4220   29.0620   46.5950 N   0  0  0  0  0  0  0  0  0  0  0  0
   33.5150   28.7140   47.8870 C   0  0  0  0  0  0  0  0  0  0  0  0
   34.6160   29.0410   48.5790 N   0  0  0  0  0  0  0  0  0  0  0  0
   36.3120   30.6210   46.1080 H   0  0  0  0  0  0  0  0  0  0  0  0
   34.2710   30.0020   44.8760 H   0  0  0  0  0  0  0  0  0  0  0  0
   36.8030   30.0730   48.6970 N   0  0  0  0  0  0  0  0  0  0  0  0
   37.8860   30.8730   48.2270 C   0  0  0  0  0  0  0  0  0  0  0  0
   38.4150   31.5120   49.5110 C   0  0  2  0  0  0  0  0  0  0  0  0
   37.4790   31.0670   50.6080 C   0  0  0  0  0  0  0  0  0  0  0  0
   37.1310   29.6890   50.0470 C   0  0  0  0  0  0  0  0  0  0  0  0
   38.6660   30.1880   47.8510 H   0  0  0  0  0  0  0  0  0  0  0  0
   37.5910   31.6590   47.4970 H   0  0  0  0  0  0  0  0  0  0  0  0
   39.4190   31.0870   49.7790 H   0  0  0  0  0  0  0  0  0  0  0  0
   36.5550   31.6610   50.5800 H   0  0  0  0  0  0  0  0  0  0  0  0
   37.9520   31.0200   51.5950 H   0  0  0  0  0  0  0  0  0  0  0  0
   36.2250   29.3240   50.5580 H   0  0  0  0  0  0  0  0  0  0  0  0
   37.9930   29.0000   50.1220 H   0  0  0  0  0  0  0  0  0  0  0  0
   38.5430   33.0030   49.4120 C   0  0  0  0  0  0  0  0  0  0  0  0
   37.2950   33.5160   49.7100 F   0  0  0  0  0  0  0  0  0  0  0  0
   38.8040   33.2990   48.0970 F   0  0  0  0  0  0  0  0  0  0  0  0
   39.5110   33.5240   50.2170 F   0  0  0  0  0  0  0  0  0  0  0  0
   32.2130   27.8250   48.7170 S   0  0  0  0  0  0  0  0  0  0  0  0
   30.8920   27.4320   47.5870 C   0  0  0  0  0  0  0  0  0  0  0  0
   30.5840   26.1250   47.2250 C   0  0  0  0  0  0  0  0  0  0  0  0
   31.1540   25.3220   47.6340 H   0  0  0  0  0  0  0  0  0  0  0  0
   29.5390   25.9090   46.3380 C   0  0  0  0  0  0  0  0  0  0  0  0
   29.3570   24.8630   46.1030 H   0  0  0  0  0  0  0  0  0  0  0  0
   28.7720   26.9120   45.7810 C   0  0  0  0  0  0  0  0  0  0  0  0
   29.1060   28.1830   46.1620 C   0  0  0  0  0  0  0  0  0  0  0  0
   30.1200   28.4220   47.0250 C   0  0  0  0  0  0  0  0  0  0  0  0
   30.3440   29.4600   47.2930 H   0  0  0  0  0  0  0  0  0  0  0  0
   28.1680   29.5270   45.4890 S   0  0  0  0  0  0  0  0  0  0  0  0
   26.9470   28.8090   44.4150 C   0  0  0  0  0  0  0  0  0  0  0  0
   26.0880   29.6490   43.7690 C   0  0  0  0  0  0  0  0  0  0  0  0
   26.1240   30.7330   43.8850 H   0  0  0  0  0  0  0  0  0  0  0  0
   25.1120   29.1630   42.9170 C   0  0  0  0  0  0  0  0  0  0  0  0
   24.4430   29.8300   42.4140 H   0  0  0  0  0  0  0  0  0  0  0  0
   25.0300   27.7980   42.7400 C   0  0  0  0  0  0  0  0  0  0  0  0
   24.2860   27.3900   42.0880 H   0  0  0  0  0  0  0  0  0  0  0  0
   25.9290   27.0070   43.4240 C   0  0  0  0  0  0  0  0  0  0  0  0
   25.8070   25.9310   43.2360 H   0  0  0  0  0  0  0  0  0  0  0  0
   26.9170   27.4450   44.2810 C   0  0  0  0  0  0  0  0  0  0  0  0
   27.7590   26.5120   44.9070 N   0  0  0  0  0  0  0  0  0  0  0  0
   27.5980   25.5060   44.6910 H   0  0  0  0  0  0  0  0  0  0  0  0
  1  6  1  0  0  0  0
  1  9  1  0  0  0  0
  2  1  2  0  0  0  0
  3  4  2  0  0  0  0
  3  2  1  0  0  0  0
  4  5  1  0  0  0  0
  5  6  2  0  0  0  0
  5 25  1  0  0  0  0
  7  2  1  0  0  0  0
  8  3  1  0  0  0  0
  9 13  1  0  0  0  0
 10  9  1  0  0  0  0
 10 11  1  0  0  0  0
 11 16  1  1  0  0  0
 11 12  1  0  0  0  0
 12 18  1  0  0  0  0
 13 20  1  0  0  0  0
 13 19  1  0  0  0  0
 13 12  1  0  0  0  0
 14 10  1  0  0  0  0
 15 10  1  0  0  0  0
 17 12  1  0  0  0  0
 21 11  1  0  0  0  0
 21 22  1  0  0  0  0
 21 24  1  0  0  0  0
 23 21  1  0  0  0  0
 26 25  1  0  0  0  0
 27 26  1  0  0  0  0
 27 28  1  0  0  0  0
 29 27  2  0  0  0  0
 30 29  1  0  0  0  0
 31 32  2  0  0  0  0
 31 29  1  0  0  0  0
 32 33  1  0  0  0  0
 33 34  1  0  0  0  0
 33 26  2  0  0  0  0
 35 32  1  0  0  0  0
 36 35  1  0  0  0  0
 37 38  1  0  0  0  0
 37 36  2  0  0  0  0
 39 37  1  0  0  0  0
 40 39  1  0  0  0  0
 41 39  2  0  0  0  0
 41 43  1  0  0  0  0
 42 41  1  0  0  0  0
 43 45  2  0  0  0  0
 44 43  1  0  0  0  0
 45 36  1  0  0  0  0
 45 46  1  0  0  0  0
 46 31  1  0  0  0  0
 47 46  1  0  0  0  0
M  END
>  <minimizedAffinity>
-6.85280418

>  <minimizedRMSD>
0.487012178

$$$$
