
 OpenBabel03272503303D

 47 51  0  0  1  0  0  0  0  0999 V2000
   35.3000   29.5490   48.0020 C   0  0  0  0  0  0  0  0  0  0  0  0
   35.1760   30.0060   46.6910 C   0  0  0  0  0  0  0  0  0  0  0  0
   34.0200   29.6730   46.0010 C   0  0  0  0  0  0  0  0  0  0  0  0
   33.0810   28.9180   46.6620 N   0  0  0  0  0  0  0  0  0  0  0  0
   33.2320   28.4960   47.9260 C   0  0  0  0  0  0  0  0  0  0  0  0
   34.3470   28.8150   48.5980 N   0  0  0  0  0  0  0  0  0  0  0  0
   35.9050   30.5930   46.1700 H   0  0  0  0  0  0  0  0  0  0  0  0
   33.8390   29.9850   44.9750 H   0  0  0  0  0  0  0  0  0  0  0  0
   36.5060   29.9050   48.7020 N   0  0  0  0  0  0  0  0  0  0  0  0
   37.5880   30.6960   48.2110 C   0  0  0  0  0  0  0  0  0  0  0  0
   38.1430   31.3340   49.4850 C   0  0  2  0  0  0  0  0  0  0  0  0
   37.2230   30.8980   50.5990 C   0  0  0  0  0  0  0  0  0  0  0  0
   36.8550   29.5220   50.0470 C   0  0  0  0  0  0  0  0  0  0  0  0
   38.3560   30.0040   47.8240 H   0  0  0  0  0  0  0  0  0  0  0  0
   37.2870   31.4820   47.4850 H   0  0  0  0  0  0  0  0  0  0  0  0
   39.1490   30.9020   49.7370 H   0  0  0  0  0  0  0  0  0  0  0  0
   36.3020   31.5000   50.5850 H   0  0  0  0  0  0  0  0  0  0  0  0
   37.7120   30.8500   51.5780 H   0  0  0  0  0  0  0  0  0  0  0  0
   35.9540   29.1650   50.5750 H   0  0  0  0  0  0  0  0  0  0  0  0
   37.7130   28.8270   50.1090 H   0  0  0  0  0  0  0  0  0  0  0  0
   38.2800   32.8240   49.3800 C   0  0  0  0  0  0  0  0  0  0  0  0
   37.1070   33.3540   49.8810 F   0  0  0  0  0  0  0  0  0  0  0  0
   38.3300   33.1310   48.0420 F   0  0  0  0  0  0  0  0  0  0  0  0
   39.3760   33.3190   50.0210 F   0  0  0  0  0  0  0  0  0  0  0  0
   31.9870   27.5190   48.7450 S   0  0  0  0  0  0  0  0  0  0  0  0
   30.4420   27.5870   47.8600 C   0  0  0  0  0  0  0  0  0  0  0  0
   29.2420   27.1580   48.4170 C   0  0  0  0  0  0  0  0  0  0  0  0
   29.2390   26.7720   49.4120 H   0  0  0  0  0  0  0  0  0  0  0  0
   28.0850   27.2470   47.6580 C   0  0  0  0  0  0  0  0  0  0  0  0
   27.1880   26.8930   48.1610 H   0  0  0  0  0  0  0  0  0  0  0  0
   28.0370   27.7370   46.3690 C   0  0  0  0  0  0  0  0  0  0  0  0
   29.2380   28.1480   45.8550 C   0  0  0  0  0  0  0  0  0  0  0  0
   30.3800   28.0730   46.5740 C   0  0  0  0  0  0  0  0  0  0  0  0
   31.3130   28.4170   46.1120 H   0  0  0  0  0  0  0  0  0  0  0  0
   29.2600   28.7900   44.2040 S   0  0  0  0  0  0  0  0  0  0  0  0
   27.5860   28.7240   43.6090 C   0  0  0  0  0  0  0  0  0  0  0  0
   27.3380   29.1690   42.3430 C   0  0  0  0  0  0  0  0  0  0  0  0
   28.1190   29.5600   41.6900 H   0  0  0  0  0  0  0  0  0  0  0  0
   26.0610   29.1470   41.8120 C   0  0  0  0  0  0  0  0  0  0  0  0
   25.8750   29.4990   40.8170 H   0  0  0  0  0  0  0  0  0  0  0  0
   25.0390   28.6610   42.6010 C   0  0  0  0  0  0  0  0  0  0  0  0
   24.0410   28.6310   42.2190 H   0  0  0  0  0  0  0  0  0  0  0  0
   25.3610   28.2270   43.8700 C   0  0  0  0  0  0  0  0  0  0  0  0
   24.5000   27.8530   44.4430 H   0  0  0  0  0  0  0  0  0  0  0  0
   26.6160   28.2290   44.4420 C   0  0  0  0  0  0  0  0  0  0  0  0
   26.7850   27.7530   45.7510 N   0  0  0  0  0  0  0  0  0  0  0  0
   25.9350   27.4100   46.2470 H   0  0  0  0  0  0  0  0  0  0  0  0
  1  6  1  0  0  0  0
  1  9  1  0  0  0  0
  2  1  2  0  0  0  0
  3  4  2  0  0  0  0
  3  2  1  0  0  0  0
  4  5  1  0  0  0  0
  5  6  2  0  0  0  0
  5 25  1  0  0  0  0
  7  2  1  0  0  0  0
  8  3  1  0  0  0  0
  9 13  1  0  0  0  0
 10  9  1  0  0  0  0
 10 11  1  0  0  0  0
 11 16  1  1  0  0  0
 11 12  1  0  0  0  0
 12 18  1  0  0  0  0
 13 20  1  0  0  0  0
 13 19  1  0  0  0  0
 13 12  1  0  0  0  0
 14 10  1  0  0  0  0
 15 10  1  0  0  0  0
 17 12  1  0  0  0  0
 21 11  1  0  0  0  0
 21 22  1  0  0  0  0
 21 24  1  0  0  0  0
 23 21  1  0  0  0  0
 26 27  1  0  0  0  0
 26 25  1  0  0  0  0
 27 28  1  0  0  0  0
 29 30  1  0  0  0  0
 29 27  2  0  0  0  0
 31 29  1  0  0  0  0
 32 31  2  0  0  0  0
 32 33  1  0  0  0  0
 33 26  2  0  0  0  0
 34 33  1  0  0  0  0
 35 32  1  0  0  0  0
 36 35  1  0  0  0  0
 36 45  1  0  0  0  0
 37 36  2  0  0  0  0
 38 37  1  0  0  0  0
 39 37  1  0  0  0  0
 39 41  2  0  0  0  0
 40 39  1  0  0  0  0
 41 43  1  0  0  0  0
 42 41  1  0  0  0  0
 43 45  2  0  0  0  0
 43 44  1  0  0  0  0
 45 46  1  0  0  0  0
 46 47  1  0  0  0  0
 46 31  1  0  0  0  0
M  END
>  <minimizedAffinity>
-6.83925104

>  <minimizedRMSD>
1.26171827

$$$$
