
 OpenBabel03272503423D

 54 59  0  0  1  0  0  0  0  0999 V2000
   39.8140   31.2140   41.7140 C   0  0  2  0  0  0  0  0  0  0  0  0
   39.5930   32.3600   42.7030 C   0  0  1  0  0  0  0  0  0  0  0  0
   38.3850   32.9900   42.0630 C   0  0  0  0  0  0  0  0  0  0  0  0
   38.5430   32.8640   40.7020 O   0  0  0  0  0  0  0  0  0  0  0  0
   39.5620   32.0040   40.4250 C   0  0  0  0  0  0  0  0  0  0  0  0
   40.8410   30.8190   41.7740 H   0  0  0  0  0  0  0  0  0  0  0  0
   40.4290   33.0690   42.7160 H   0  0  0  0  0  0  0  0  0  0  0  0
   37.4750   32.5230   42.4590 H   0  0  0  0  0  0  0  0  0  0  0  0
   38.3900   34.0670   42.4010 H   0  0  0  0  0  0  0  0  0  0  0  0
   40.4600   32.5950   40.1760 H   0  0  0  0  0  0  0  0  0  0  0  0
   39.2420   31.3270   39.6040 H   0  0  0  0  0  0  0  0  0  0  0  0
   38.3640   31.1820   45.8700 C   0  0  0  0  0  0  0  0  0  0  0  0
   39.7060   31.0190   46.0610 C   0  0  0  0  0  0  0  0  0  0  0  0
   40.2880   31.4540   44.8710 C   0  0  0  0  0  0  0  0  0  0  0  0
   39.3320   31.8530   44.0240 N   0  0  0  0  0  0  0  0  0  0  0  0
   38.1540   31.6850   44.6370 N   0  0  0  0  0  0  0  0  0  0  0  0
   40.1900   30.6310   46.9620 H   0  0  0  0  0  0  0  0  0  0  0  0
   41.3730   31.4320   44.7530 H   0  0  0  0  0  0  0  0  0  0  0  0
   36.5040   30.6310   49.0820 C   0  0  0  0  0  0  0  0  0  0  0  0
   37.5100   30.9470   48.1960 C   0  0  0  0  0  0  0  0  0  0  0  0
   37.3450   30.8630   46.8370 C   0  0  0  0  0  0  0  0  0  0  0  0
   36.1230   30.4480   46.4010 N   0  0  0  0  0  0  0  0  0  0  0  0
   35.1300   30.1380   47.2870 C   0  0  0  0  0  0  0  0  0  0  0  0
   35.2990   30.2200   48.5890 N   0  0  0  0  0  0  0  0  0  0  0  0
   38.5010   31.2820   48.4990 H   0  0  0  0  0  0  0  0  0  0  0  0
   34.1520   29.8040   46.9090 H   0  0  0  0  0  0  0  0  0  0  0  0
   36.8600   30.7770   50.4140 O   0  0  0  0  0  0  0  0  0  0  0  0
   36.8990   29.6940   51.3170 C   0  0  0  0  0  0  0  0  0  0  0  0
   35.6360   29.2390   51.6500 F   0  0  0  0  0  0  0  0  0  0  0  0
   37.5810   30.0870   52.4390 F   0  0  0  0  0  0  0  0  0  0  0  0
   37.6040   28.6560   50.7360 F   0  0  0  0  0  0  0  0  0  0  0  0
   38.7880   30.3070   41.9140 O   0  0  0  0  0  0  0  0  0  0  0  0
   38.8920   28.9490   42.0480 C   0  0  0  0  0  0  0  0  0  0  0  0
   39.0420   28.2720   43.2400 C   0  0  0  0  0  0  0  0  0  0  0  0
   39.0810   28.8490   44.1520 H   0  0  0  0  0  0  0  0  0  0  0  0
   39.1350   26.8950   43.2270 C   0  0  0  0  0  0  0  0  0  0  0  0
   39.2520   26.4340   44.2200 H   0  0  0  0  0  0  0  0  0  0  0  0
   39.0910   26.1040   42.0980 C   0  0  0  0  0  0  0  0  0  0  0  0
   38.9430   26.8040   40.9390 C   0  0  0  0  0  0  0  0  0  0  0  0
   38.8470   28.1680   40.9120 C   0  0  0  0  0  0  0  0  0  0  0  0
   38.7290   28.6680   39.9370 H   0  0  0  0  0  0  0  0  0  0  0  0
   38.8710   25.9050   39.4010 S   0  0  0  0  0  0  0  0  0  0  0  0
   39.0220   24.1920   39.8130 C   0  0  0  0  0  0  0  0  0  0  0  0
   38.9990   23.2670   38.8300 C   0  0  0  0  0  0  0  0  0  0  0  0
   38.8910   23.5120   37.7750 H   0  0  0  0  0  0  0  0  0  0  0  0
   39.1150   21.8970   39.0980 C   0  0  0  0  0  0  0  0  0  0  0  0
   39.1010   21.1320   38.3330 H   0  0  0  0  0  0  0  0  0  0  0  0
   39.2550   21.5140   40.4150 C   0  0  0  0  0  0  0  0  0  0  0  0
   39.3440   20.4770   40.6390 H   0  0  0  0  0  0  0  0  0  0  0  0
   39.2720   22.5030   41.3760 C   0  0  0  0  0  0  0  0  0  0  0  0
   39.3860   22.1210   42.3910 H   0  0  0  0  0  0  0  0  0  0  0  0
   39.1600   23.8540   41.1350 C   0  0  0  0  0  0  0  0  0  0  0  0
   39.1960   24.7230   42.2450 N   0  0  0  0  0  0  0  0  0  0  0  0
   39.3070   24.3230   43.2010 H   0  0  0  0  0  0  0  0  0  0  0  0
  1  6  1  1  0  0  0
  1 32  1  0  0  0  0
  1  2  1  0  0  0  0
  2  7  1  1  0  0  0
  2 15  1  0  0  0  0
  3  9  1  0  0  0  0
  3  8  1  0  0  0  0
  3  2  1  0  0  0  0
  4  3  1  0  0  0  0
  5  4  1  0  0  0  0
  5  1  1  0  0  0  0
 10  5  1  0  0  0  0
 11  5  1  0  0  0  0
 12 13  1  0  0  0  0
 12 21  1  0  0  0  0
 13 17  1  0  0  0  0
 14 13  2  0  0  0  0
 15 16  1  0  0  0  0
 15 14  1  0  0  0  0
 16 12  2  0  0  0  0
 18 14  1  0  0  0  0
 19 27  1  0  0  0  0
 20 25  1  0  0  0  0
 20 19  2  0  0  0  0
 21 20  1  0  0  0  0
 22 21  2  0  0  0  0
 22 23  1  0  0  0  0
 23 24  2  0  0  0  0
 24 19  1  0  0  0  0
 26 23  1  0  0  0  0
 27 28  1  0  0  0  0
 28 29  1  0  0  0  0
 28 30  1  0  0  0  0
 31 28  1  0  0  0  0
 32 33  1  0  0  0  0
 33 34  1  0  0  0  0
 34 35  1  0  0  0  0
 36 34  2  0  0  0  0
 36 37  1  0  0  0  0
 38 53  1  0  0  0  0
 38 36  1  0  0  0  0
 39 38  2  0  0  0  0
 40 39  1  0  0  0  0
 40 33  2  0  0  0  0
 41 40  1  0  0  0  0
 42 43  1  0  0  0  0
 42 39  1  0  0  0  0
 43 52  1  0  0  0  0
 44 46  1  0  0  0  0
 44 43  2  0  0  0  0
 45 44  1  0  0  0  0
 46 48  2  0  0  0  0
 47 46  1  0  0  0  0
 48 49  1  0  0  0  0
 48 50  1  0  0  0  0
 50 51  1  0  0  0  0
 52 50  2  0  0  0  0
 52 53  1  0  0  0  0
 53 54  1  0  0  0  0
M  END
>  <minimizedAffinity>
-6.77362823

>  <minimizedRMSD>
1.53106153

$$$$
