
 OpenBabel03272503303D

 47 51  0  0  1  0  0  0  0  0999 V2000
   35.5730   29.6510   47.8840 C   0  0  0  0  0  0  0  0  0  0  0  0
   35.5170   30.1810   46.5950 C   0  0  0  0  0  0  0  0  0  0  0  0
   34.4250   29.8430   45.8100 C   0  0  0  0  0  0  0  0  0  0  0  0
   33.4790   29.0120   46.3600 N   0  0  0  0  0  0  0  0  0  0  0  0
   33.5640   28.5200   47.6050 C   0  0  0  0  0  0  0  0  0  0  0  0
   34.6170   28.8430   48.3690 N   0  0  0  0  0  0  0  0  0  0  0  0
   36.2510   30.8270   46.1610 H   0  0  0  0  0  0  0  0  0  0  0  0
   34.2980   30.2100   44.7930 H   0  0  0  0  0  0  0  0  0  0  0  0
   36.7130   30.0130   48.6850 N   0  0  0  0  0  0  0  0  0  0  0  0
   37.8580   30.7570   48.2710 C   0  0  0  0  0  0  0  0  0  0  0  0
   38.3010   31.4410   49.5640 C   0  0  2  0  0  0  0  0  0  0  0  0
   37.2640   31.0770   50.5990 C   0  0  0  0  0  0  0  0  0  0  0  0
   36.9170   29.6850   50.0730 C   0  0  0  0  0  0  0  0  0  0  0  0
   38.6430   30.0320   47.9930 H   0  0  0  0  0  0  0  0  0  0  0  0
   37.6500   31.5160   47.4840 H   0  0  0  0  0  0  0  0  0  0  0  0
   39.2650   31.0000   49.9340 H   0  0  0  0  0  0  0  0  0  0  0  0
   36.3650   31.6970   50.4660 H   0  0  0  0  0  0  0  0  0  0  0  0
   37.6530   31.0630   51.6230 H   0  0  0  0  0  0  0  0  0  0  0  0
   35.9600   29.3720   50.5230 H   0  0  0  0  0  0  0  0  0  0  0  0
   37.7470   28.9750   50.2510 H   0  0  0  0  0  0  0  0  0  0  0  0
   38.4860   32.9210   49.4090 C   0  0  0  0  0  0  0  0  0  0  0  0
   37.2650   33.4940   49.7060 F   0  0  0  0  0  0  0  0  0  0  0  0
   38.7370   33.1590   48.0800 F   0  0  0  0  0  0  0  0  0  0  0  0
   39.4870   33.4310   50.1790 F   0  0  0  0  0  0  0  0  0  0  0  0
   32.3130   27.4450   48.2780 S   0  0  0  0  0  0  0  0  0  0  0  0
   32.3370   25.8580   47.4680 C   0  0  0  0  0  0  0  0  0  0  0  0
   31.2110   25.3120   46.8610 C   0  0  0  0  0  0  0  0  0  0  0  0
   30.2950   25.8570   46.8760 H   0  0  0  0  0  0  0  0  0  0  0  0
   31.3190   24.0700   46.2530 C   0  0  0  0  0  0  0  0  0  0  0  0
   30.3970   23.7090   45.8010 H   0  0  0  0  0  0  0  0  0  0  0  0
   32.4800   23.3250   46.2060 C   0  0  0  0  0  0  0  0  0  0  0  0
   33.5650   23.8960   46.8140 C   0  0  0  0  0  0  0  0  0  0  0  0
   33.4880   25.1050   47.4140 C   0  0  0  0  0  0  0  0  0  0  0  0
   34.3890   25.5130   47.8850 H   0  0  0  0  0  0  0  0  0  0  0  0
   35.0930   23.0010   46.7960 S   0  0  0  0  0  0  0  0  0  0  0  0
   34.7860   21.4820   45.9250 C   0  0  0  0  0  0  0  0  0  0  0  0
   35.8230   20.6090   45.7760 C   0  0  0  0  0  0  0  0  0  0  0  0
   36.8230   20.8050   46.1660 H   0  0  0  0  0  0  0  0  0  0  0  0
   35.6580   19.4060   45.1090 C   0  0  0  0  0  0  0  0  0  0  0  0
   36.4780   18.7270   44.9960 H   0  0  0  0  0  0  0  0  0  0  0  0
   34.4110   19.1160   44.5980 C   0  0  0  0  0  0  0  0  0  0  0  0
   34.2510   18.1940   44.0780 H   0  0  0  0  0  0  0  0  0  0  0  0
   33.4080   20.0440   44.7850 C   0  0  0  0  0  0  0  0  0  0  0  0
   32.4410   19.7480   44.3530 H   0  0  0  0  0  0  0  0  0  0  0  0
   33.5250   21.2520   45.4410 C   0  0  0  0  0  0  0  0  0  0  0  0
   32.4070   22.0950   45.5510 N   0  0  0  0  0  0  0  0  0  0  0  0
   31.5170   21.7630   45.1220 H   0  0  0  0  0  0  0  0  0  0  0  0
  1  6  1  0  0  0  0
  1  9  1  0  0  0  0
  2  1  2  0  0  0  0
  3  4  2  0  0  0  0
  3  2  1  0  0  0  0
  4  5  1  0  0  0  0
  5 25  1  0  0  0  0
  5  6  2  0  0  0  0
  7  2  1  0  0  0  0
  8  3  1  0  0  0  0
  9 13  1  0  0  0  0
 10  9  1  0  0  0  0
 10 11  1  0  0  0  0
 11 16  1  1  0  0  0
 11 12  1  0  0  0  0
 12 18  1  0  0  0  0
 13 20  1  0  0  0  0
 13 19  1  0  0  0  0
 13 12  1  0  0  0  0
 14 10  1  0  0  0  0
 15 10  1  0  0  0  0
 17 12  1  0  0  0  0
 21 11  1  0  0  0  0
 21 22  1  0  0  0  0
 21 24  1  0  0  0  0
 23 21  1  0  0  0  0
 26 25  1  0  0  0  0
 27 28  1  0  0  0  0
 27 26  2  0  0  0  0
 29 27  1  0  0  0  0
 30 29  1  0  0  0  0
 31 29  2  0  0  0  0
 31 32  1  0  0  0  0
 32 33  2  0  0  0  0
 33 26  1  0  0  0  0
 33 34  1  0  0  0  0
 35 32  1  0  0  0  0
 36 35  1  0  0  0  0
 37 36  1  0  0  0  0
 37 38  1  0  0  0  0
 39 37  2  0  0  0  0
 40 39  1  0  0  0  0
 41 43  2  0  0  0  0
 41 39  1  0  0  0  0
 42 41  1  0  0  0  0
 43 45  1  0  0  0  0
 44 43  1  0  0  0  0
 45 46  1  0  0  0  0
 45 36  2  0  0  0  0
 46 31  1  0  0  0  0
 47 46  1  0  0  0  0
M  END
>  <minimizedAffinity>
-5.84952974

>  <minimizedRMSD>
4.83757544

$$$$
