
 OpenBabel03272501583D

 44 48  0  0  0  0  0  0  0  0999 V2000
   32.9140   28.1940   47.7730 C   0  0  0  0  0  0  0  0  0  0  0  0
   32.1470   27.2420   48.3950 C   0  0  0  0  0  0  0  0  0  0  0  0
   30.8270   27.3610   47.9830 C   0  0  0  0  0  0  0  0  0  0  0  0
   30.8340   28.3950   47.1110 N   0  0  0  0  0  0  0  0  0  0  0  0
   32.0580   28.8820   46.9890 N   0  0  0  0  0  0  0  0  0  0  0  0
   32.4690   26.4840   49.1110 H   0  0  0  0  0  0  0  0  0  0  0  0
   29.9520   26.7700   48.2730 H   0  0  0  0  0  0  0  0  0  0  0  0
   29.7410   28.9460   46.3880 C   0  0  0  0  0  0  0  0  0  0  0  0
   28.5050   28.3480   46.4180 C   0  0  0  0  0  0  0  0  0  0  0  0
   28.3770   27.4490   47.0010 H   0  0  0  0  0  0  0  0  0  0  0  0
   27.4630   28.9040   45.7060 C   0  0  0  0  0  0  0  0  0  0  0  0
   26.5150   28.3570   45.7900 H   0  0  0  0  0  0  0  0  0  0  0  0
   27.5660   30.0470   44.9450 C   0  0  0  0  0  0  0  0  0  0  0  0
   28.8090   30.6280   44.9300 C   0  0  0  0  0  0  0  0  0  0  0  0
   29.8500   30.0870   45.6290 C   0  0  0  0  0  0  0  0  0  0  0  0
   30.8270   30.5690   45.6000 H   0  0  0  0  0  0  0  0  0  0  0  0
   29.0260   32.1100   43.9690 S   0  0  0  0  0  0  0  0  0  0  0  0
   27.4480   32.4710   43.2260 C   0  0  0  0  0  0  0  0  0  0  0  0
   27.3440   33.5770   42.4260 C   0  0  0  0  0  0  0  0  0  0  0  0
   28.2010   34.2210   42.2460 H   0  0  0  0  0  0  0  0  0  0  0  0
   26.1600   33.9110   41.8240 C   0  0  0  0  0  0  0  0  0  0  0  0
   26.0280   34.7720   41.1860 H   0  0  0  0  0  0  0  0  0  0  0  0
   25.0680   33.1010   42.0470 C   0  0  0  0  0  0  0  0  0  0  0  0
   24.1410   33.3440   41.5890 H   0  0  0  0  0  0  0  0  0  0  0  0
   25.2300   32.0020   42.8590 C   0  0  0  0  0  0  0  0  0  0  0  0
   24.3180   31.4040   42.9900 H   0  0  0  0  0  0  0  0  0  0  0  0
   26.3990   31.6260   43.4850 C   0  0  0  0  0  0  0  0  0  0  0  0
   26.3970   30.4690   44.2870 N   0  0  0  0  0  0  0  0  0  0  0  0
   25.5090   29.9380   44.3790 H   0  0  0  0  0  0  0  0  0  0  0  0
   34.3960   28.4050   47.9450 C   0  0  0  0  0  0  0  0  0  0  0  0
   34.8770   27.5930   47.3450 H   0  0  0  0  0  0  0  0  0  0  0  0
   34.6650   29.4030   47.5250 H   0  0  0  0  0  0  0  0  0  0  0  0
   34.6540   28.2960   49.4190 C   0  0  0  0  0  0  0  0  0  0  0  0
   33.7850   28.4700   50.0630 H   0  0  0  0  0  0  0  0  0  0  0  0
   34.9790   27.2310   49.5960 H   0  0  0  0  0  0  0  0  0  0  0  0
   37.1910   30.1470   51.3750 C   0  0  0  0  0  0  0  0  0  0  0  0
   38.0250   30.6780   50.3840 C   0  0  0  0  0  0  0  0  0  0  0  0
   37.7010   30.3900   49.0370 C   0  0  0  0  0  0  0  0  0  0  0  0
   36.6110   29.6230   48.7810 N   0  0  0  0  0  0  0  0  0  0  0  0
   35.8420   29.1360   49.7830 C   0  0  0  0  0  0  0  0  0  0  0  0
   36.1340   29.3990   51.0580 N   0  0  0  0  0  0  0  0  0  0  0  0
   37.4690   30.3880   52.3990 H   0  0  0  0  0  0  0  0  0  0  0  0
   38.9010   31.2930   50.5420 H   0  0  0  0  0  0  0  0  0  0  0  0
   38.2450   30.7270   48.1770 H   0  0  0  0  0  0  0  0  0  0  0  0
  1 30  1  0  0  0  0
  1  2  1  0  0  0  0
  2  6  1  0  0  0  0
  3  7  1  0  0  0  0
  3  2  2  0  0  0  0
  4  3  1  0  0  0  0
  5  4  1  0  0  0  0
  5  1  2  0  0  0  0
  8  9  1  0  0  0  0
  8  4  1  0  0  0  0
  9 10  1  0  0  0  0
 11 12  1  0  0  0  0
 11  9  2  0  0  0  0
 13 11  1  0  0  0  0
 14 13  2  0  0  0  0
 14 15  1  0  0  0  0
 15  8  2  0  0  0  0
 16 15  1  0  0  0  0
 17 14  1  0  0  0  0
 18 27  1  0  0  0  0
 18 17  1  0  0  0  0
 19 18  2  0  0  0  0
 20 19  1  0  0  0  0
 21 23  2  0  0  0  0
 21 19  1  0  0  0  0
 22 21  1  0  0  0  0
 23 25  1  0  0  0  0
 24 23  1  0  0  0  0
 25 26  1  0  0  0  0
 25 27  2  0  0  0  0
 27 28  1  0  0  0  0
 28 29  1  0  0  0  0
 28 13  1  0  0  0  0
 30 33  1  0  0  0  0
 31 30  1  0  0  0  0
 32 30  1  0  0  0  0
 33 35  1  0  0  0  0
 33 40  1  0  0  0  0
 33 34  1  0  0  0  0
 36 42  1  0  0  0  0
 37 43  1  0  0  0  0
 37 36  2  0  0  0  0
 38 37  1  0  0  0  0
 39 38  2  0  0  0  0
 39 40  1  0  0  0  0
 40 41  2  0  0  0  0
 41 36  1  0  0  0  0
 44 38  1  0  0  0  0
M  END
>  <minimizedAffinity>
-6.10486794

>  <minimizedRMSD>
0.798199534

$$$$
