
 OpenBabel03272503423D

 54 59  0  0  1  0  0  0  0  0999 V2000
   40.3290   30.6530   41.9020 C   0  0  2  0  0  0  0  0  0  0  0  0
   39.9560   31.9060   42.6960 C   0  0  1  0  0  0  0  0  0  0  0  0
   38.7620   32.3450   41.8910 C   0  0  0  0  0  0  0  0  0  0  0  0
   39.0340   32.0420   40.5770 O   0  0  0  0  0  0  0  0  0  0  0  0
   40.1260   31.2320   40.4980 C   0  0  0  0  0  0  0  0  0  0  0  0
   41.3730   30.3500   42.0880 H   0  0  0  0  0  0  0  0  0  0  0  0
   40.7400   32.6710   42.6630 H   0  0  0  0  0  0  0  0  0  0  0  0
   37.8580   31.8700   42.2890 H   0  0  0  0  0  0  0  0  0  0  0  0
   38.6700   33.4560   42.0690 H   0  0  0  0  0  0  0  0  0  0  0  0
   41.0000   31.8500   40.2270 H   0  0  0  0  0  0  0  0  0  0  0  0
   39.9170   30.4240   39.7640 H   0  0  0  0  0  0  0  0  0  0  0  0
   38.5650   31.0850   45.9090 C   0  0  0  0  0  0  0  0  0  0  0  0
   39.8950   31.0700   46.2160 C   0  0  0  0  0  0  0  0  0  0  0  0
   40.5380   31.3820   45.0190 C   0  0  0  0  0  0  0  0  0  0  0  0
   39.6270   31.5700   44.0570 N   0  0  0  0  0  0  0  0  0  0  0  0
   38.4190   31.3880   44.6030 N   0  0  0  0  0  0  0  0  0  0  0  0
   40.3320   30.8590   47.1960 H   0  0  0  0  0  0  0  0  0  0  0  0
   41.6280   31.4400   44.9820 H   0  0  0  0  0  0  0  0  0  0  0  0
   36.5630   30.6420   49.0510 C   0  0  0  0  0  0  0  0  0  0  0  0
   37.6130   30.9080   48.2020 C   0  0  0  0  0  0  0  0  0  0  0  0
   37.4970   30.8180   46.8390 C   0  0  0  0  0  0  0  0  0  0  0  0
   36.2760   30.4490   46.3590 N   0  0  0  0  0  0  0  0  0  0  0  0
   35.2390   30.1890   47.2080 C   0  0  0  0  0  0  0  0  0  0  0  0
   35.3610   30.2770   48.5150 N   0  0  0  0  0  0  0  0  0  0  0  0
   38.6060   31.2040   48.5410 H   0  0  0  0  0  0  0  0  0  0  0  0
   34.2630   29.8930   46.7960 H   0  0  0  0  0  0  0  0  0  0  0  0
   36.8730   30.7860   50.3940 O   0  0  0  0  0  0  0  0  0  0  0  0
   36.8960   29.6990   51.2940 C   0  0  0  0  0  0  0  0  0  0  0  0
   35.6270   29.2510   51.6130 F   0  0  0  0  0  0  0  0  0  0  0  0
   37.5700   30.0820   52.4230 F   0  0  0  0  0  0  0  0  0  0  0  0
   37.6000   28.6590   50.7140 F   0  0  0  0  0  0  0  0  0  0  0  0
   39.3530   29.7060   42.1620 O   0  0  0  0  0  0  0  0  0  0  0  0
   39.3600   28.3850   41.8070 C   0  0  0  0  0  0  0  0  0  0  0  0
   39.5560   27.9000   40.5310 C   0  0  0  0  0  0  0  0  0  0  0  0
   39.7180   28.6120   39.7350 H   0  0  0  0  0  0  0  0  0  0  0  0
   39.5380   26.5380   40.3150 C   0  0  0  0  0  0  0  0  0  0  0  0
   39.7020   26.2370   39.2690 H   0  0  0  0  0  0  0  0  0  0  0  0
   39.3350   25.5800   41.2870 C   0  0  0  0  0  0  0  0  0  0  0  0
   39.1460   26.0910   42.5350 C   0  0  0  0  0  0  0  0  0  0  0  0
   39.1570   27.4360   42.7880 C   0  0  0  0  0  0  0  0  0  0  0  0
   38.9970   27.7790   43.8210 H   0  0  0  0  0  0  0  0  0  0  0  0
   38.8730   24.9640   43.8890 S   0  0  0  0  0  0  0  0  0  0  0  0
   38.9240   23.3350   43.2020 C   0  0  0  0  0  0  0  0  0  0  0  0
   38.7460   22.2680   44.0110 C   0  0  0  0  0  0  0  0  0  0  0  0
   38.5690   22.3460   45.0810 H   0  0  0  0  0  0  0  0  0  0  0  0
   38.7770   20.9560   43.5220 C   0  0  0  0  0  0  0  0  0  0  0  0
   38.6380   20.0800   44.1430 H   0  0  0  0  0  0  0  0  0  0  0  0
   38.9970   20.7820   42.1720 C   0  0  0  0  0  0  0  0  0  0  0  0
   39.0240   19.7910   41.7810 H   0  0  0  0  0  0  0  0  0  0  0  0
   39.1720   21.9080   41.3960 C   0  0  0  0  0  0  0  0  0  0  0  0
   39.3400   21.6880   40.3420 H   0  0  0  0  0  0  0  0  0  0  0  0
   39.1460   23.2070   41.8560 C   0  0  0  0  0  0  0  0  0  0  0  0
   39.3440   24.2370   40.9150 N   0  0  0  0  0  0  0  0  0  0  0  0
   39.5040   23.9920   39.9150 H   0  0  0  0  0  0  0  0  0  0  0  0
  1  6  1  1  0  0  0
  1 32  1  0  0  0  0
  1  2  1  0  0  0  0
  2  7  1  6  0  0  0
  2 15  1  0  0  0  0
  3  9  1  0  0  0  0
  3  8  1  0  0  0  0
  3  2  1  0  0  0  0
  4  3  1  0  0  0  0
  5  4  1  0  0  0  0
  5  1  1  0  0  0  0
 10  5  1  0  0  0  0
 11  5  1  0  0  0  0
 12 13  1  0  0  0  0
 12 21  1  0  0  0  0
 13 17  1  0  0  0  0
 14 13  2  0  0  0  0
 15 16  1  0  0  0  0
 15 14  1  0  0  0  0
 16 12  2  0  0  0  0
 18 14  1  0  0  0  0
 19 27  1  0  0  0  0
 20 25  1  0  0  0  0
 20 19  2  0  0  0  0
 21 20  1  0  0  0  0
 22 21  2  0  0  0  0
 22 23  1  0  0  0  0
 23 24  2  0  0  0  0
 24 19  1  0  0  0  0
 26 23  1  0  0  0  0
 27 28  1  0  0  0  0
 28 29  1  0  0  0  0
 28 30  1  0  0  0  0
 31 28  1  0  0  0  0
 33 32  1  0  0  0  0
 33 40  1  0  0  0  0
 34 33  2  0  0  0  0
 35 34  1  0  0  0  0
 36 34  1  0  0  0  0
 36 38  2  0  0  0  0
 37 36  1  0  0  0  0
 38 39  1  0  0  0  0
 39 40  2  0  0  0  0
 39 42  1  0  0  0  0
 40 41  1  0  0  0  0
 43 42  1  0  0  0  0
 43 44  1  0  0  0  0
 44 45  1  0  0  0  0
 46 44  2  0  0  0  0
 46 47  1  0  0  0  0
 48 46  1  0  0  0  0
 49 48  1  0  0  0  0
 50 52  1  0  0  0  0
 50 48  2  0  0  0  0
 51 50  1  0  0  0  0
 52 43  2  0  0  0  0
 53 38  1  0  0  0  0
 53 52  1  0  0  0  0
 54 53  1  0  0  0  0
M  END
>  <minimizedAffinity>
-6.87468338

>  <minimizedRMSD>
2.05645967

$$$$
