
 OpenBabel03272503303D

 47 51  0  0  1  0  0  0  0  0999 V2000
   35.3350   29.5360   47.9190 C   0  0  0  0  0  0  0  0  0  0  0  0
   35.3600   29.9020   46.5740 C   0  0  0  0  0  0  0  0  0  0  0  0
   34.2630   29.5630   45.7960 C   0  0  0  0  0  0  0  0  0  0  0  0
   33.2330   28.8910   46.4090 N   0  0  0  0  0  0  0  0  0  0  0  0
   33.2410   28.5550   47.7070 C   0  0  0  0  0  0  0  0  0  0  0  0
   34.2980   28.8810   48.4650 N   0  0  0  0  0  0  0  0  0  0  0  0
   36.1600   30.4240   46.0910 H   0  0  0  0  0  0  0  0  0  0  0  0
   34.1960   29.8080   44.7380 H   0  0  0  0  0  0  0  0  0  0  0  0
   36.4820   29.8970   48.7110 N   0  0  0  0  0  0  0  0  0  0  0  0
   37.6260   30.6350   48.2860 C   0  0  0  0  0  0  0  0  0  0  0  0
   38.0800   31.3240   49.5740 C   0  0  2  0  0  0  0  0  0  0  0  0
   37.0480   30.9680   50.6160 C   0  0  0  0  0  0  0  0  0  0  0  0
   36.6930   29.5750   50.1000 C   0  0  0  0  0  0  0  0  0  0  0  0
   38.4060   29.9050   48.0070 H   0  0  0  0  0  0  0  0  0  0  0  0
   37.4170   31.3910   47.4970 H   0  0  0  0  0  0  0  0  0  0  0  0
   39.0450   30.8810   49.9400 H   0  0  0  0  0  0  0  0  0  0  0  0
   36.1510   31.5910   50.4870 H   0  0  0  0  0  0  0  0  0  0  0  0
   37.4440   30.9580   51.6380 H   0  0  0  0  0  0  0  0  0  0  0  0
   35.7370   29.2680   50.5570 H   0  0  0  0  0  0  0  0  0  0  0  0
   37.5210   28.8630   50.2760 H   0  0  0  0  0  0  0  0  0  0  0  0
   38.2700   32.8020   49.4100 C   0  0  0  0  0  0  0  0  0  0  0  0
   37.1150   33.3930   49.8840 F   0  0  0  0  0  0  0  0  0  0  0  0
   38.3350   33.0540   48.0610 F   0  0  0  0  0  0  0  0  0  0  0  0
   39.3810   33.2840   50.0350 F   0  0  0  0  0  0  0  0  0  0  0  0
   31.8810   27.6840   48.4620 S   0  0  0  0  0  0  0  0  0  0  0  0
   30.4520   27.6950   47.3970 C   0  0  0  0  0  0  0  0  0  0  0  0
   29.7040   26.5500   47.1400 C   0  0  0  0  0  0  0  0  0  0  0  0
   29.9900   25.6290   47.5950 H   0  0  0  0  0  0  0  0  0  0  0  0
   28.6060   26.6480   46.2990 C   0  0  0  0  0  0  0  0  0  0  0  0
   28.0710   25.7120   46.1470 H   0  0  0  0  0  0  0  0  0  0  0  0
   28.1950   27.8150   45.6890 C   0  0  0  0  0  0  0  0  0  0  0  0
   28.9570   28.9180   45.9650 C   0  0  0  0  0  0  0  0  0  0  0  0
   30.0330   28.8520   46.7820 C   0  0  0  0  0  0  0  0  0  0  0  0
   30.6050   29.7670   46.9680 H   0  0  0  0  0  0  0  0  0  0  0  0
   28.4940   30.4570   45.2180 S   0  0  0  0  0  0  0  0  0  0  0  0
   27.0510   30.1310   44.2310 C   0  0  0  0  0  0  0  0  0  0  0  0
   26.4960   31.1720   43.5470 C   0  0  0  0  0  0  0  0  0  0  0  0
   26.9000   32.1850   43.5810 H   0  0  0  0  0  0  0  0  0  0  0  0
   25.3730   30.9950   42.7580 C   0  0  0  0  0  0  0  0  0  0  0  0
   24.9440   31.8180   42.2230 H   0  0  0  0  0  0  0  0  0  0  0  0
   24.8280   29.7300   42.6840 C   0  0  0  0  0  0  0  0  0  0  0  0
   23.9590   29.5610   42.0830 H   0  0  0  0  0  0  0  0  0  0  0  0
   25.4400   28.7250   43.4020 C   0  0  0  0  0  0  0  0  0  0  0  0
   24.9530   27.7440   43.2980 H   0  0  0  0  0  0  0  0  0  0  0  0
   26.5580   28.8530   44.2000 C   0  0  0  0  0  0  0  0  0  0  0  0
   27.0660   27.7310   44.8720 N   0  0  0  0  0  0  0  0  0  0  0  0
   26.5650   26.8280   44.7360 H   0  0  0  0  0  0  0  0  0  0  0  0
  1  6  1  0  0  0  0
  1  9  1  0  0  0  0
  2  1  2  0  0  0  0
  3  4  2  0  0  0  0
  3  2  1  0  0  0  0
  4  5  1  0  0  0  0
  5 25  1  0  0  0  0
  5  6  2  0  0  0  0
  7  2  1  0  0  0  0
  8  3  1  0  0  0  0
  9 13  1  0  0  0  0
 10  9  1  0  0  0  0
 10 11  1  0  0  0  0
 11 16  1  1  0  0  0
 11 12  1  0  0  0  0
 12 18  1  0  0  0  0
 13 20  1  0  0  0  0
 13 19  1  0  0  0  0
 13 12  1  0  0  0  0
 14 10  1  0  0  0  0
 15 10  1  0  0  0  0
 17 12  1  0  0  0  0
 21 11  1  0  0  0  0
 21 22  1  0  0  0  0
 21 24  1  0  0  0  0
 23 21  1  0  0  0  0
 26 25  1  0  0  0  0
 27 26  1  0  0  0  0
 27 28  1  0  0  0  0
 29 27  2  0  0  0  0
 30 29  1  0  0  0  0
 31 32  2  0  0  0  0
 31 29  1  0  0  0  0
 32 33  1  0  0  0  0
 33 34  1  0  0  0  0
 33 26  2  0  0  0  0
 35 32  1  0  0  0  0
 36 35  1  0  0  0  0
 37 38  1  0  0  0  0
 37 36  2  0  0  0  0
 39 37  1  0  0  0  0
 40 39  1  0  0  0  0
 41 39  2  0  0  0  0
 41 43  1  0  0  0  0
 42 41  1  0  0  0  0
 43 45  2  0  0  0  0
 44 43  1  0  0  0  0
 45 36  1  0  0  0  0
 45 46  1  0  0  0  0
 46 31  1  0  0  0  0
 47 46  1  0  0  0  0
M  END
>  <minimizedAffinity>
-7.05606222

>  <minimizedRMSD>
0.799834251

$$$$
