
 OpenBabel03272500173D

 47 51  0  0  0  0  0  0  0  0999 V2000
   35.4020   29.1460   50.4810 C   0  0  0  0  0  0  0  0  0  0  0  0
   36.3050   29.9740   49.7860 C   0  0  0  0  0  0  0  0  0  0  0  0
   36.2530   29.9890   48.4010 C   0  0  0  0  0  0  0  0  0  0  0  0
   35.3280   29.1980   47.7810 N   0  0  0  0  0  0  0  0  0  0  0  0
   34.4850   28.4230   48.4620 C   0  0  0  0  0  0  0  0  0  0  0  0
   34.5180   28.3950   49.7940 N   0  0  0  0  0  0  0  0  0  0  0  0
   35.4620   29.1520   51.5590 H   0  0  0  0  0  0  0  0  0  0  0  0
   37.0250   30.7710   47.4670 C   0  0  0  0  0  0  0  0  0  0  0  0
   38.0430   31.6880   47.5480 C   0  0  0  0  0  0  0  0  0  0  0  0
   38.4340   31.8450   48.5190 H   0  0  0  0  0  0  0  0  0  0  0  0
   38.5650   32.3380   46.4560 C   0  0  0  0  0  0  0  0  0  0  0  0
   39.3720   33.0430   46.6780 H   0  0  0  0  0  0  0  0  0  0  0  0
   38.1010   32.1140   45.1770 C   0  0  0  0  0  0  0  0  0  0  0  0
   37.0820   31.2040   45.0300 C   0  0  0  0  0  0  0  0  0  0  0  0
   36.5970   30.5880   46.1320 C   0  0  0  0  0  0  0  0  0  0  0  0
   35.7850   29.8830   45.8820 H   0  0  0  0  0  0  0  0  0  0  0  0
   36.4720   30.9030   43.3830 S   0  0  0  0  0  0  0  0  0  0  0  0
   37.4290   31.9490   42.3060 C   0  0  0  0  0  0  0  0  0  0  0  0
   37.0860   31.8430   40.9810 C   0  0  0  0  0  0  0  0  0  0  0  0
   36.3140   31.1980   40.5850 H   0  0  0  0  0  0  0  0  0  0  0  0
   37.7780   32.6220   40.0540 C   0  0  0  0  0  0  0  0  0  0  0  0
   37.5360   32.5660   39.0020 H   0  0  0  0  0  0  0  0  0  0  0  0
   38.7710   33.4600   40.5120 C   0  0  0  0  0  0  0  0  0  0  0  0
   39.2850   34.0470   39.7770 H   0  0  0  0  0  0  0  0  0  0  0  0
   39.0450   33.4980   41.8640 C   0  0  0  0  0  0  0  0  0  0  0  0
   39.8440   34.1930   42.1040 H   0  0  0  0  0  0  0  0  0  0  0  0
   38.3930   32.7510   42.8230 C   0  0  0  0  0  0  0  0  0  0  0  0
   38.7470   32.8640   44.1700 N   0  0  0  0  0  0  0  0  0  0  0  0
   39.5150   33.5330   44.3900 H   0  0  0  0  0  0  0  0  0  0  0  0
   32.5530   29.9180   46.6790 Cl  0  0  0  0  0  0  0  0  0  0  0  0
   32.5890   28.1710   46.8750 C   0  0  0  0  0  0  0  0  0  0  0  0
   33.5210   27.5920   47.7240 C   0  0  0  0  0  0  0  0  0  0  0  0
   33.5920   26.2030   47.9150 C   0  0  0  0  0  0  0  0  0  0  0  0
   32.6740   25.4340   47.2050 C   0  0  0  0  0  0  0  0  0  0  0  0
   31.7420   25.9860   46.3610 C   0  0  0  0  0  0  0  0  0  0  0  0
   30.6430   24.9160   45.5260 Cl  0  0  0  0  0  0  0  0  0  0  0  0
   31.7110   27.3610   46.2050 C   0  0  0  0  0  0  0  0  0  0  0  0
   34.3160   25.7490   48.5730 H   0  0  0  0  0  0  0  0  0  0  0  0
   32.7240   24.3600   47.3490 H   0  0  0  0  0  0  0  0  0  0  0  0
   30.7100   27.9700   45.2950 C   0  0  0  0  0  0  0  0  0  0  0  0
   29.7640   27.0210   44.9080 F   0  0  0  0  0  0  0  0  0  0  0  0
   31.2790   28.5430   44.2000 F   0  0  0  0  0  0  0  0  0  0  0  0
   30.0030   28.9620   45.9770 F   0  0  0  0  0  0  0  0  0  0  0  0
   37.2620   30.8210   50.5440 C   0  0  0  0  0  0  0  0  0  0  0  0
   38.5610   30.6500   50.1070 F   0  0  0  0  0  0  0  0  0  0  0  0
   36.9020   32.1540   50.3970 F   0  0  0  0  0  0  0  0  0  0  0  0
   37.2270   30.5530   51.9040 F   0  0  0  0  0  0  0  0  0  0  0  0
  1  7  1  0  0  0  0
  2  1  2  0  0  0  0
  2 44  1  0  0  0  0
  3  2  1  0  0  0  0
  4  3  2  0  0  0  0
  4  5  1  0  0  0  0
  5  6  2  0  0  0  0
  6  1  1  0  0  0  0
  8  9  1  0  0  0  0
  8  3  1  0  0  0  0
  9 10  1  0  0  0  0
 11 12  1  0  0  0  0
 11  9  2  0  0  0  0
 13 11  1  0  0  0  0
 14 13  2  0  0  0  0
 14 15  1  0  0  0  0
 15  8  2  0  0  0  0
 16 15  1  0  0  0  0
 17 14  1  0  0  0  0
 18 27  1  0  0  0  0
 18 17  1  0  0  0  0
 19 18  2  0  0  0  0
 20 19  1  0  0  0  0
 21 23  2  0  0  0  0
 21 19  1  0  0  0  0
 22 21  1  0  0  0  0
 23 25  1  0  0  0  0
 24 23  1  0  0  0  0
 25 26  1  0  0  0  0
 25 27  2  0  0  0  0
 27 28  1  0  0  0  0
 28 29  1  0  0  0  0
 28 13  1  0  0  0  0
 30 31  1  0  0  0  0
 31 32  1  0  0  0  0
 32 33  2  0  0  0  0
 32  5  1  0  0  0  0
 33 38  1  0  0  0  0
 34 39  1  0  0  0  0
 34 33  1  0  0  0  0
 35 34  2  0  0  0  0
 36 35  1  0  0  0  0
 37 35  1  0  0  0  0
 37 31  2  0  0  0  0
 40 43  1  0  0  0  0
 40 37  1  0  0  0  0
 41 40  1  0  0  0  0
 42 40  1  0  0  0  0
 44 47  1  0  0  0  0
 45 44  1  0  0  0  0
 46 44  1  0  0  0  0
M  END
>  <minimizedAffinity>
-7.63006926

>  <minimizedRMSD>
1.36810637

$$$$
