
 OpenBabel03272507183D

 43 47  0  0  1  0  0  0  0  0999 V2000
   37.6540   30.7040   45.8350 C   0  0  0  0  0  0  0  0  0  0  0  0
   36.3880   30.3890   45.3720 C   0  0  0  0  0  0  0  0  0  0  0  0
   35.5030   30.5790   45.9700 H   0  0  0  0  0  0  0  0  0  0  0  0
   36.2670   29.8210   44.1160 C   0  0  0  0  0  0  0  0  0  0  0  0
   35.3040   29.5510   43.6940 H   0  0  0  0  0  0  0  0  0  0  0  0
   37.3870   29.5710   43.3380 C   0  0  0  0  0  0  0  0  0  0  0  0
   38.6370   29.9100   43.8600 C   0  0  0  0  0  0  0  0  0  0  0  0
   38.8130   30.4820   45.1120 C   0  0  0  0  0  0  0  0  0  0  0  0
   39.7990   30.7310   45.4830 H   0  0  0  0  0  0  0  0  0  0  0  0
   40.1220   29.6180   42.9140 S   0  0  0  0  0  0  0  0  0  0  0  0
   39.6170   28.8860   41.3650 C   0  0  0  0  0  0  0  0  0  0  0  0
   40.6330   28.5800   40.4830 C   0  0  0  0  0  0  0  0  0  0  0  0
   41.6700   28.7730   40.7160 H   0  0  0  0  0  0  0  0  0  0  0  0
   40.3110   28.0140   39.2680 C   0  0  0  0  0  0  0  0  0  0  0  0
   41.1040   27.7850   38.6020 H   0  0  0  0  0  0  0  0  0  0  0  0
   38.9700   27.7880   39.0190 C   0  0  0  0  0  0  0  0  0  0  0  0
   38.7740   27.3340   38.0390 H   0  0  0  0  0  0  0  0  0  0  0  0
   37.9620   28.0970   39.9100 C   0  0  0  0  0  0  0  0  0  0  0  0
   36.9330   27.8900   39.6430 H   0  0  0  0  0  0  0  0  0  0  0  0
   38.2720   28.6730   41.1480 C   0  0  0  0  0  0  0  0  0  0  0  0
   37.2570   28.9890   42.0520 N   0  0  0  0  0  0  0  0  0  0  0  0
   36.2690   28.7690   41.7500 H   0  0  0  0  0  0  0  0  0  0  0  0
   37.5030   31.4200   49.4690 C   0  0  0  0  0  0  0  0  0  0  0  0
   38.2910   32.5450   49.6360 C   0  0  0  0  0  0  0  0  0  0  0  0
   38.8660   33.0310   48.4360 C   0  0  0  0  0  0  0  0  0  0  0  0
   38.6300   32.4010   47.2350 N   0  0  0  0  0  0  0  0  0  0  0  0
   37.8480   31.3070   47.1540 C   0  0  0  0  0  0  0  0  0  0  0  0
   37.2730   30.8030   48.2830 N   0  0  0  0  0  0  0  0  0  0  0  0
   38.4590   33.0130   50.5730 H   0  0  0  0  0  0  0  0  0  0  0  0
   39.4890   33.8940   48.4660 H   0  0  0  0  0  0  0  0  0  0  0  0
   36.8470   30.9090   50.7130 C   0  0  1  0  0  0  0  0  0  0  0  0
   36.0850   29.6590   50.7300 C   0  0  2  0  0  0  0  0  0  0  0  0
   37.5000   29.6080   51.2200 C   0  0  0  0  0  0  0  0  0  0  0  0
   36.8020   31.6860   51.5270 H   0  0  0  0  0  0  0  0  0  0  0  0
   35.2170   29.7090   51.4560 H   0  0  0  0  0  0  0  0  0  0  0  0
   37.6230   29.4840   52.3100 H   0  0  0  0  0  0  0  0  0  0  0  0
   38.2290   29.0920   50.5720 H   0  0  0  0  0  0  0  0  0  0  0  0
   35.7750   29.0940   49.5010 O   0  0  0  0  0  0  0  0  0  0  0  0
   34.5840   28.6620   49.0170 C   0  0  0  0  0  0  0  0  0  0  0  0
   34.5030   27.8850   48.0430 O   0  0  0  0  0  0  0  0  0  0  0  0
   33.5680   29.2340   49.7830 N   0  0  0  0  0  0  0  0  0  0  0  0
   32.9090   28.7410   50.4330 H   0  0  0  0  0  0  0  0  0  0  0  0
   33.2400   30.2390   49.8830 H   0  0  0  0  0  0  0  0  0  0  0  0
  1 27  1  0  0  0  0
  2  1  1  0  0  0  0
  2  3  1  0  0  0  0
  4  2  2  0  0  0  0
  5  4  1  0  0  0  0
  6  7  2  0  0  0  0
  6  4  1  0  0  0  0
  7  8  1  0  0  0  0
  8  9  1  0  0  0  0
  8  1  2  0  0  0  0
 10  7  1  0  0  0  0
 11 10  1  0  0  0  0
 12 13  1  0  0  0  0
 12 11  2  0  0  0  0
 14 12  1  0  0  0  0
 15 14  1  0  0  0  0
 16 14  2  0  0  0  0
 16 18  1  0  0  0  0
 17 16  1  0  0  0  0
 18 20  2  0  0  0  0
 19 18  1  0  0  0  0
 20 11  1  0  0  0  0
 20 21  1  0  0  0  0
 21  6  1  0  0  0  0
 22 21  1  0  0  0  0
 23 24  1  0  0  0  0
 23 31  1  0  0  0  0
 24 29  1  0  0  0  0
 25 30  1  0  0  0  0
 25 24  2  0  0  0  0
 26 25  1  0  0  0  0
 27 26  2  0  0  0  0
 27 28  1  0  0  0  0
 28 23  2  0  0  0  0
 31 32  1  0  0  0  0
 31 33  1  0  0  0  0
 31 34  1  1  0  0  0
 32 33  1  0  0  0  0
 32 35  1  1  0  0  0
 33 36  1  0  0  0  0
 37 33  1  0  0  0  0
 38 32  1  0  0  0  0
 39 38  1  0  0  0  0
 39 41  1  0  0  0  0
 40 39  2  0  0  0  0
 41 43  1  0  0  0  0
 41 42  1  0  0  0  0
M  END
>  <minimizedAffinity>
-6.23693275

>  <minimizedRMSD>
2.20191479

$$$$
