
 OpenBabel03272507183D

 43 47  0  0  1  0  0  0  0  0999 V2000
   36.7730   30.6020   45.8540 C   0  0  0  0  0  0  0  0  0  0  0  0
   37.5300   30.6810   44.6980 C   0  0  0  0  0  0  0  0  0  0  0  0
   38.5210   31.1240   44.7000 H   0  0  0  0  0  0  0  0  0  0  0  0
   36.9960   30.1820   43.5230 C   0  0  0  0  0  0  0  0  0  0  0  0
   37.5370   30.2140   42.5830 H   0  0  0  0  0  0  0  0  0  0  0  0
   35.7320   29.6140   43.5030 C   0  0  0  0  0  0  0  0  0  0  0  0
   35.0170   29.5620   44.7000 C   0  0  0  0  0  0  0  0  0  0  0  0
   35.5050   30.0480   45.9050 C   0  0  0  0  0  0  0  0  0  0  0  0
   34.9210   29.9900   46.8140 H   0  0  0  0  0  0  0  0  0  0  0  0
   33.3820   28.8440   44.7480 S   0  0  0  0  0  0  0  0  0  0  0  0
   33.0020   28.3050   43.0890 C   0  0  0  0  0  0  0  0  0  0  0  0
   31.7660   27.7170   42.9140 C   0  0  0  0  0  0  0  0  0  0  0  0
   31.0730   27.5890   43.7320 H   0  0  0  0  0  0  0  0  0  0  0  0
   31.4110   27.2780   41.6570 C   0  0  0  0  0  0  0  0  0  0  0  0
   30.4580   26.8270   41.5410 H   0  0  0  0  0  0  0  0  0  0  0  0
   32.3340   27.4640   40.6450 C   0  0  0  0  0  0  0  0  0  0  0  0
   31.9960   27.0960   39.6670 H   0  0  0  0  0  0  0  0  0  0  0  0
   33.5670   28.0550   40.8310 C   0  0  0  0  0  0  0  0  0  0  0  0
   34.2380   28.1650   39.9880 H   0  0  0  0  0  0  0  0  0  0  0  0
   33.9440   28.5050   42.1010 C   0  0  0  0  0  0  0  0  0  0  0  0
   35.1890   29.1040   42.2960 N   0  0  0  0  0  0  0  0  0  0  0  0
   35.8110   29.1920   41.4460 H   0  0  0  0  0  0  0  0  0  0  0  0
   37.3270   31.2080   49.4690 C   0  0  0  0  0  0  0  0  0  0  0  0
   38.3300   32.1600   49.5130 C   0  0  0  0  0  0  0  0  0  0  0  0
   38.7940   32.5710   48.2390 C   0  0  0  0  0  0  0  0  0  0  0  0
   38.2590   32.0380   47.0880 N   0  0  0  0  0  0  0  0  0  0  0  0
   37.2810   31.1120   47.1280 C   0  0  0  0  0  0  0  0  0  0  0  0
   36.8040   30.6860   48.3320 N   0  0  0  0  0  0  0  0  0  0  0  0
   38.7280   32.5570   50.4130 H   0  0  0  0  0  0  0  0  0  0  0  0
   39.5650   33.3020   48.1740 H   0  0  0  0  0  0  0  0  0  0  0  0
   36.7880   30.7860   50.7980 C   0  0  1  0  0  0  0  0  0  0  0  0
   36.0750   29.5200   50.9800 C   0  0  2  0  0  0  0  0  0  0  0  0
   37.5240   29.5530   51.3580 C   0  0  0  0  0  0  0  0  0  0  0  0
   36.7780   31.6280   51.5470 H   0  0  0  0  0  0  0  0  0  0  0  0
   35.2650   29.6060   51.7660 H   0  0  0  0  0  0  0  0  0  0  0  0
   37.7350   29.5260   52.4410 H   0  0  0  0  0  0  0  0  0  0  0  0
   38.2200   29.0060   50.6990 H   0  0  0  0  0  0  0  0  0  0  0  0
   35.6920   28.8430   49.8300 O   0  0  0  0  0  0  0  0  0  0  0  0
   34.4580   28.4700   49.4110 C   0  0  0  0  0  0  0  0  0  0  0  0
   34.2810   27.5110   48.6300 O   0  0  0  0  0  0  0  0  0  0  0  0
   33.5210   29.3240   49.9940 N   0  0  0  0  0  0  0  0  0  0  0  0
   32.7980   29.0770   50.7120 H   0  0  0  0  0  0  0  0  0  0  0  0
   33.3280   30.3590   49.8570 H   0  0  0  0  0  0  0  0  0  0  0  0
  1  8  1  0  0  0  0
  1 27  1  0  0  0  0
  2  3  1  0  0  0  0
  2  1  2  0  0  0  0
  4  2  1  0  0  0  0
  5  4  1  0  0  0  0
  6  4  2  0  0  0  0
  6  7  1  0  0  0  0
  7 10  1  0  0  0  0
  7  8  2  0  0  0  0
  8  9  1  0  0  0  0
 11 10  1  0  0  0  0
 12 11  1  0  0  0  0
 12 13  1  0  0  0  0
 14 12  2  0  0  0  0
 15 14  1  0  0  0  0
 16 18  2  0  0  0  0
 16 14  1  0  0  0  0
 17 16  1  0  0  0  0
 18 20  1  0  0  0  0
 19 18  1  0  0  0  0
 20 21  1  0  0  0  0
 20 11  2  0  0  0  0
 21  6  1  0  0  0  0
 22 21  1  0  0  0  0
 23 24  1  0  0  0  0
 23 31  1  0  0  0  0
 24 29  1  0  0  0  0
 25 24  2  0  0  0  0
 26 27  2  0  0  0  0
 26 25  1  0  0  0  0
 27 28  1  0  0  0  0
 28 23  2  0  0  0  0
 30 25  1  0  0  0  0
 31 32  1  0  0  0  0
 31 33  1  0  0  0  0
 31 34  1  1  0  0  0
 32 33  1  0  0  0  0
 32 35  1  1  0  0  0
 33 36  1  0  0  0  0
 37 33  1  0  0  0  0
 38 32  1  0  0  0  0
 39 38  1  0  0  0  0
 39 41  1  0  0  0  0
 40 39  2  0  0  0  0
 41 42  1  0  0  0  0
 43 41  1  0  0  0  0
M  END
>  <minimizedAffinity>
-5.6491971

>  <minimizedRMSD>
1.36145592

$$$$
