
 OpenBabel03262521203D

 42 45  0  0  0  0  0  0  0  0999 V2000
   38.0900   25.7190   35.0590 C   0  0  0  0  0  0  0  0  0  0  0  0
   37.1440   26.7160   35.2280 C   0  0  0  0  0  0  0  0  0  0  0  0
   36.6200   26.8250   36.1670 H   0  0  0  0  0  0  0  0  0  0  0  0
   36.9000   27.5520   34.1570 C   0  0  0  0  0  0  0  0  0  0  0  0
   36.1390   28.3220   34.3520 H   0  0  0  0  0  0  0  0  0  0  0  0
   37.5190   27.4880   32.9240 C   0  0  0  0  0  0  0  0  0  0  0  0
   38.4480   26.4830   32.8080 C   0  0  0  0  0  0  0  0  0  0  0  0
   38.7230   25.6350   33.8320 C   0  0  0  0  0  0  0  0  0  0  0  0
   39.4660   24.8440   33.7140 H   0  0  0  0  0  0  0  0  0  0  0  0
   39.3130   26.2890   31.2800 S   0  0  0  0  0  0  0  0  0  0  0  0
   38.6920   27.5650   30.1980 C   0  0  0  0  0  0  0  0  0  0  0  0
   39.1920   27.6460   28.9460 C   0  0  0  0  0  0  0  0  0  0  0  0
   39.9630   26.9400   28.6030 H   0  0  0  0  0  0  0  0  0  0  0  0
   38.7640   28.6010   28.0530 C   0  0  0  0  0  0  0  0  0  0  0  0
   39.1620   28.6680   27.0520 H   0  0  0  0  0  0  0  0  0  0  0  0
   37.8020   29.4910   28.4600 C   0  0  0  0  0  0  0  0  0  0  0  0
   37.4270   30.2630   27.8030 H   0  0  0  0  0  0  0  0  0  0  0  0
   37.3270   29.3580   29.7580 C   0  0  0  0  0  0  0  0  0  0  0  0
   36.5580   30.0950   30.0340 H   0  0  0  0  0  0  0  0  0  0  0  0
   37.7400   28.4100   30.6710 C   0  0  0  0  0  0  0  0  0  0  0  0
   37.1630   28.4080   31.9400 N   0  0  0  0  0  0  0  0  0  0  0  0
   36.4370   29.1230   32.1660 H   0  0  0  0  0  0  0  0  0  0  0  0
   39.4960   22.8670   36.8610 C   0  0  0  0  0  0  0  0  0  0  0  0
   39.0190   23.0550   38.1470 C   0  0  0  0  0  0  0  0  0  0  0  0
   38.2070   24.1600   38.4210 C   0  0  0  0  0  0  0  0  0  0  0  0
   37.9330   25.0000   37.3770 N   0  0  0  0  0  0  0  0  0  0  0  0
   38.4200   24.7860   36.1240 C   0  0  0  0  0  0  0  0  0  0  0  0
   39.1860   23.7350   35.8810 N   0  0  0  0  0  0  0  0  0  0  0  0
   39.2060   22.4200   39.0060 H   0  0  0  0  0  0  0  0  0  0  0  0
   37.8080   24.3530   39.4080 H   0  0  0  0  0  0  0  0  0  0  0  0
   40.2850   21.7290   36.7520 O   0  0  0  0  0  0  0  0  0  0  0  0
   41.4700   21.7040   37.4550 C   0  0  0  0  0  0  0  0  0  0  0  0
   41.4040   22.5100   38.2350 H   0  0  0  0  0  0  0  0  0  0  0  0
   41.6300   20.7690   38.0460 H   0  0  0  0  0  0  0  0  0  0  0  0
   42.3250   21.9370   36.4390 C   0  0  0  0  0  0  0  0  0  0  0  0
   41.8660   21.9440   35.4160 H   0  0  0  0  0  0  0  0  0  0  0  0
   43.0440   21.0710   36.3240 H   0  0  0  0  0  0  0  0  0  0  0  0
   43.1630   23.1680   36.5180 C   0  0  0  0  0  0  0  0  0  0  0  0
   44.2320   22.8320   36.4170 H   0  0  0  0  0  0  0  0  0  0  0  0
   43.1180   23.6890   37.4900 H   0  0  0  0  0  0  0  0  0  0  0  0
   42.7970   24.3520   35.2270 S   0  0  0  0  0  0  0  0  0  0  0  0
   42.9770   23.7160   33.9700 H   0  0  0  0  0  0  0  0  0  0  0  0
  1  2  1  0  0  0  0
  1 27  1  0  0  0  0
  2  3  1  0  0  0  0
  4  5  1  0  0  0  0
  4  2  2  0  0  0  0
  6  4  1  0  0  0  0
  7  6  2  0  0  0  0
  7  8  1  0  0  0  0
  8  1  2  0  0  0  0
  9  8  1  0  0  0  0
 10  7  1  0  0  0  0
 11 20  1  0  0  0  0
 11 10  1  0  0  0  0
 12 11  2  0  0  0  0
 13 12  1  0  0  0  0
 14 16  2  0  0  0  0
 14 12  1  0  0  0  0
 15 14  1  0  0  0  0
 16 18  1  0  0  0  0
 17 16  1  0  0  0  0
 18 19  1  0  0  0  0
 18 20  2  0  0  0  0
 20 21  1  0  0  0  0
 21 22  1  0  0  0  0
 21  6  1  0  0  0  0
 23 24  1  0  0  0  0
 24 25  2  0  0  0  0
 24 29  1  0  0  0  0
 25 30  1  0  0  0  0
 26 25  1  0  0  0  0
 27 26  2  0  0  0  0
 28 27  1  0  0  0  0
 28 23  2  0  0  0  0
 31 23  1  0  0  0  0
 31 32  1  0  0  0  0
 32 34  1  0  0  0  0
 32 33  1  0  0  0  0
 35 38  1  0  0  0  0
 35 32  1  0  0  0  0
 36 35  1  0  0  0  0
 37 35  1  0  0  0  0
 38 40  1  0  0  0  0
 39 38  1  0  0  0  0
 41 38  1  0  0  0  0
 42 41  1  0  0  0  0
M  END
>  <minimizedAffinity>
-5.48549747

$$$$

 OpenBabel03262521203D

 42 45  0  0  0  0  0  0  0  0999 V2000
   37.1830   27.5550   33.5600 C   0  0  0  0  0  0  0  0  0  0  0  0
   38.2450   27.4050   32.6850 C   0  0  0  0  0  0  0  0  0  0  0  0
   38.3090   28.0060   31.7880 H   0  0  0  0  0  0  0  0  0  0  0  0
   39.2050   26.4650   33.0010 C   0  0  0  0  0  0  0  0  0  0  0  0
   40.0220   26.3930   32.2670 H   0  0  0  0  0  0  0  0  0  0  0  0
   39.2060   25.6550   34.1190 C   0  0  0  0  0  0  0  0  0  0  0  0
   38.1320   25.8430   34.9550 C   0  0  0  0  0  0  0  0  0  0  0  0
   37.1620   26.7550   34.6880 C   0  0  0  0  0  0  0  0  0  0  0  0
   36.3180   26.8840   35.3690 H   0  0  0  0  0  0  0  0  0  0  0  0
   38.0100   24.8690   36.4240 S   0  0  0  0  0  0  0  0  0  0  0  0
   39.4430   23.8050   36.4300 C   0  0  0  0  0  0  0  0  0  0  0  0
   39.6010   22.9440   37.4570 C   0  0  0  0  0  0  0  0  0  0  0  0
   38.8620   22.9000   38.2720 H   0  0  0  0  0  0  0  0  0  0  0  0
   40.6790   22.0920   37.5320 C   0  0  0  0  0  0  0  0  0  0  0  0
   40.8070   21.4030   38.3530 H   0  0  0  0  0  0  0  0  0  0  0  0
   41.6120   22.1310   36.5280 C   0  0  0  0  0  0  0  0  0  0  0  0
   42.4800   21.4860   36.5330 H   0  0  0  0  0  0  0  0  0  0  0  0
   41.3960   23.0360   35.4980 C   0  0  0  0  0  0  0  0  0  0  0  0
   42.1730   23.0270   34.7190 H   0  0  0  0  0  0  0  0  0  0  0  0
   40.3240   23.9000   35.4010 C   0  0  0  0  0  0  0  0  0  0  0  0
   40.2510   24.7520   34.2990 N   0  0  0  0  0  0  0  0  0  0  0  0
   41.0060   24.7140   33.5810 H   0  0  0  0  0  0  0  0  0  0  0  0
   34.3090   29.7520   34.0790 C   0  0  0  0  0  0  0  0  0  0  0  0
   34.1330   30.3240   32.8300 C   0  0  0  0  0  0  0  0  0  0  0  0
   34.9950   29.9670   31.7870 C   0  0  0  0  0  0  0  0  0  0  0  0
   35.9750   29.0590   32.0780 N   0  0  0  0  0  0  0  0  0  0  0  0
   36.1190   28.5170   33.3190 C   0  0  0  0  0  0  0  0  0  0  0  0
   35.2950   28.8630   34.2940 N   0  0  0  0  0  0  0  0  0  0  0  0
   33.3740   31.0460   32.5500 H   0  0  0  0  0  0  0  0  0  0  0  0
   34.9020   30.3840   30.7940 H   0  0  0  0  0  0  0  0  0  0  0  0
   33.3770   30.2070   35.0030 O   0  0  0  0  0  0  0  0  0  0  0  0
   33.3720   31.5540   35.2940 C   0  0  0  0  0  0  0  0  0  0  0  0
   33.9950   32.0600   34.5080 H   0  0  0  0  0  0  0  0  0  0  0  0
   32.3690   32.0390   35.1960 H   0  0  0  0  0  0  0  0  0  0  0  0
   33.9080   31.5070   36.5300 C   0  0  0  0  0  0  0  0  0  0  0  0
   34.2990   30.5060   36.8460 H   0  0  0  0  0  0  0  0  0  0  0  0
   33.1050   31.6600   37.3130 H   0  0  0  0  0  0  0  0  0  0  0  0
   34.9900   32.4850   36.8450 C   0  0  0  0  0  0  0  0  0  0  0  0
   35.4970   32.1090   37.7750 H   0  0  0  0  0  0  0  0  0  0  0  0
   34.6300   33.4960   37.1040 H   0  0  0  0  0  0  0  0  0  0  0  0
   36.2020   32.6370   35.5380 S   0  0  0  0  0  0  0  0  0  0  0  0
   36.7570   31.3540   35.2880 H   0  0  0  0  0  0  0  0  0  0  0  0
  1  8  1  0  0  0  0
  2  4  1  0  0  0  0
  2  1  2  0  0  0  0
  3  2  1  0  0  0  0
  4  6  2  0  0  0  0
  5  4  1  0  0  0  0
  6 21  1  0  0  0  0
  6  7  1  0  0  0  0
  7 10  1  0  0  0  0
  8  7  2  0  0  0  0
  8  9  1  0  0  0  0
 10 11  1  0  0  0  0
 11 12  1  0  0  0  0
 12 14  2  0  0  0  0
 12 13  1  0  0  0  0
 14 15  1  0  0  0  0
 16 17  1  0  0  0  0
 16 14  1  0  0  0  0
 18 16  2  0  0  0  0
 19 18  1  0  0  0  0
 20 18  1  0  0  0  0
 20 11  2  0  0  0  0
 21 20  1  0  0  0  0
 22 21  1  0  0  0  0
 23 28  1  0  0  0  0
 23 31  1  0  0  0  0
 24 23  2  0  0  0  0
 25 26  2  0  0  0  0
 25 24  1  0  0  0  0
 26 27  1  0  0  0  0
 27  1  1  0  0  0  0
 27 28  2  0  0  0  0
 29 24  1  0  0  0  0
 30 25  1  0  0  0  0
 31 32  1  0  0  0  0
 32 35  1  0  0  0  0
 33 32  1  0  0  0  0
 34 32  1  0  0  0  0
 35 38  1  0  0  0  0
 35 36  1  0  0  0  0
 35 37  1  0  0  0  0
 38 40  1  0  0  0  0
 38 39  1  0  0  0  0
 41 38  1  0  0  0  0
 42 41  1  0  0  0  0
M  END
>  <minimizedAffinity>
-5.48165464

$$$$

 OpenBabel03262521203D

 42 45  0  0  0  0  0  0  0  0999 V2000
   37.3000   27.5140   33.4920 C   0  0  0  0  0  0  0  0  0  0  0  0
   38.3660   27.3440   32.6260 C   0  0  0  0  0  0  0  0  0  0  0  0
   38.4440   27.9370   31.7250 H   0  0  0  0  0  0  0  0  0  0  0  0
   39.3130   26.3960   32.9570 C   0  0  0  0  0  0  0  0  0  0  0  0
   40.1330   26.3070   32.2300 H   0  0  0  0  0  0  0  0  0  0  0  0
   39.2960   25.5950   34.0820 C   0  0  0  0  0  0  0  0  0  0  0  0
   38.2190   25.8030   34.9090 C   0  0  0  0  0  0  0  0  0  0  0  0
   37.2610   26.7240   34.6270 C   0  0  0  0  0  0  0  0  0  0  0  0
   36.4150   26.8690   35.3000 H   0  0  0  0  0  0  0  0  0  0  0  0
   38.0740   24.8430   36.3850 S   0  0  0  0  0  0  0  0  0  0  0  0
   39.4940   23.7620   36.4100 C   0  0  0  0  0  0  0  0  0  0  0  0
   39.6350   22.9080   37.4460 C   0  0  0  0  0  0  0  0  0  0  0  0
   38.8890   22.8800   38.2550 H   0  0  0  0  0  0  0  0  0  0  0  0
   40.7020   22.0440   37.5360 C   0  0  0  0  0  0  0  0  0  0  0  0
   40.8160   21.3600   38.3630 H   0  0  0  0  0  0  0  0  0  0  0  0
   41.6420   22.0630   36.5380 C   0  0  0  0  0  0  0  0  0  0  0  0
   42.5020   21.4080   36.5550 H   0  0  0  0  0  0  0  0  0  0  0  0
   41.4450   22.9620   35.4990 C   0  0  0  0  0  0  0  0  0  0  0  0
   42.2270   22.9370   34.7260 H   0  0  0  0  0  0  0  0  0  0  0  0
   40.3840   23.8370   35.3870 C   0  0  0  0  0  0  0  0  0  0  0  0
   40.3290   24.6810   34.2770 N   0  0  0  0  0  0  0  0  0  0  0  0
   41.0890   24.6280   33.5650 H   0  0  0  0  0  0  0  0  0  0  0  0
   34.4230   29.7190   33.9600 C   0  0  0  0  0  0  0  0  0  0  0  0
   34.2900   30.3140   32.7180 C   0  0  0  0  0  0  0  0  0  0  0  0
   35.1820   29.9710   31.6960 C   0  0  0  0  0  0  0  0  0  0  0  0
   36.1470   29.0520   32.0010 N   0  0  0  0  0  0  0  0  0  0  0  0
   36.2490   28.4870   33.2350 C   0  0  0  0  0  0  0  0  0  0  0  0
   35.3970   28.8210   34.1910 N   0  0  0  0  0  0  0  0  0  0  0  0
   33.5440   31.0450   32.4270 H   0  0  0  0  0  0  0  0  0  0  0  0
   35.1220   30.4060   30.7070 H   0  0  0  0  0  0  0  0  0  0  0  0
   33.4650   30.1630   34.8630 O   0  0  0  0  0  0  0  0  0  0  0  0
   32.1570   30.2140   34.4330 C   0  0  0  0  0  0  0  0  0  0  0  0
   31.6820   31.0980   34.9370 H   0  0  0  0  0  0  0  0  0  0  0  0
   32.0440   30.4320   33.3420 H   0  0  0  0  0  0  0  0  0  0  0  0
   31.7460   29.0020   34.8570 C   0  0  0  0  0  0  0  0  0  0  0  0
   32.3080   28.1290   34.4340 H   0  0  0  0  0  0  0  0  0  0  0  0
   30.7100   28.7770   34.4610 H   0  0  0  0  0  0  0  0  0  0  0  0
   31.6890   28.7760   36.3310 C   0  0  0  0  0  0  0  0  0  0  0  0
   31.0460   29.5960   36.7530 H   0  0  0  0  0  0  0  0  0  0  0  0
   32.6600   28.8810   36.8460 H   0  0  0  0  0  0  0  0  0  0  0  0
   30.9850   27.1920   36.7730 S   0  0  0  0  0  0  0  0  0  0  0  0
   29.6820   27.1080   36.2120 H   0  0  0  0  0  0  0  0  0  0  0  0
  1  8  1  0  0  0  0
  2  4  1  0  0  0  0
  2  1  2  0  0  0  0
  3  2  1  0  0  0  0
  4  6  2  0  0  0  0
  5  4  1  0  0  0  0
  6 21  1  0  0  0  0
  6  7  1  0  0  0  0
  7 10  1  0  0  0  0
  8  7  2  0  0  0  0
  8  9  1  0  0  0  0
 10 11  1  0  0  0  0
 11 12  1  0  0  0  0
 12 14  2  0  0  0  0
 12 13  1  0  0  0  0
 14 15  1  0  0  0  0
 16 17  1  0  0  0  0
 16 14  1  0  0  0  0
 18 16  2  0  0  0  0
 19 18  1  0  0  0  0
 20 18  1  0  0  0  0
 20 11  2  0  0  0  0
 21 20  1  0  0  0  0
 22 21  1  0  0  0  0
 23 28  1  0  0  0  0
 23 31  1  0  0  0  0
 24 23  2  0  0  0  0
 25 26  2  0  0  0  0
 25 24  1  0  0  0  0
 26 27  1  0  0  0  0
 27  1  1  0  0  0  0
 27 28  2  0  0  0  0
 29 24  1  0  0  0  0
 30 25  1  0  0  0  0
 32 35  1  0  0  0  0
 32 31  1  0  0  0  0
 32 33  1  0  0  0  0
 34 32  1  0  0  0  0
 35 38  1  0  0  0  0
 36 35  1  0  0  0  0
 37 35  1  0  0  0  0
 38 39  1  0  0  0  0
 38 41  1  0  0  0  0
 38 40  1  0  0  0  0
 42 41  1  0  0  0  0
M  END
>  <minimizedAffinity>
-5.43151665

$$$$

 OpenBabel03262521203D

 42 45  0  0  0  0  0  0  0  0999 V2000
   37.8220   25.9710   34.7170 C   0  0  0  0  0  0  0  0  0  0  0  0
   37.5440   25.7230   36.0500 C   0  0  0  0  0  0  0  0  0  0  0  0
   36.7690   26.2750   36.5630 H   0  0  0  0  0  0  0  0  0  0  0  0
   38.2920   24.7540   36.6880 C   0  0  0  0  0  0  0  0  0  0  0  0
   38.0250   24.6040   37.7450 H   0  0  0  0  0  0  0  0  0  0  0  0
   39.2980   24.0020   36.1150 C   0  0  0  0  0  0  0  0  0  0  0  0
   39.5340   24.2850   34.7920 C   0  0  0  0  0  0  0  0  0  0  0  0
   38.8260   25.2300   34.1200 C   0  0  0  0  0  0  0  0  0  0  0  0
   39.0340   25.4360   33.0690 H   0  0  0  0  0  0  0  0  0  0  0  0
   40.7970   23.3940   33.9370 S   0  0  0  0  0  0  0  0  0  0  0  0
   41.4920   22.2610   35.1280 C   0  0  0  0  0  0  0  0  0  0  0  0
   42.4930   21.4450   34.7330 C   0  0  0  0  0  0  0  0  0  0  0  0
   42.8700   21.4800   33.7000 H   0  0  0  0  0  0  0  0  0  0  0  0
   43.0800   20.5460   35.5930 C   0  0  0  0  0  0  0  0  0  0  0  0
   43.8800   19.8930   35.2790 H   0  0  0  0  0  0  0  0  0  0  0  0
   42.6240   20.4860   36.8850 C   0  0  0  0  0  0  0  0  0  0  0  0
   43.0460   19.7990   37.6050 H   0  0  0  0  0  0  0  0  0  0  0  0
   41.5940   21.3490   37.2330 C   0  0  0  0  0  0  0  0  0  0  0  0
   41.2660   21.2600   38.2800 H   0  0  0  0  0  0  0  0  0  0  0  0
   40.9900   22.2580   36.3900 C   0  0  0  0  0  0  0  0  0  0  0  0
   39.9630   23.0570   36.8940 N   0  0  0  0  0  0  0  0  0  0  0  0
   39.6800   22.9450   37.8910 H   0  0  0  0  0  0  0  0  0  0  0  0
   35.9240   28.9730   33.8530 C   0  0  0  0  0  0  0  0  0  0  0  0
   35.7280   28.8270   32.4900 C   0  0  0  0  0  0  0  0  0  0  0  0
   36.2410   27.6990   31.8420 C   0  0  0  0  0  0  0  0  0  0  0  0
   36.9180   26.7960   32.6150 N   0  0  0  0  0  0  0  0  0  0  0  0
   37.0930   26.9710   33.9540 C   0  0  0  0  0  0  0  0  0  0  0  0
   36.6000   28.0440   34.5520 N   0  0  0  0  0  0  0  0  0  0  0  0
   35.2010   29.5120   31.8360 H   0  0  0  0  0  0  0  0  0  0  0  0
   36.1160   27.5360   30.7800 H   0  0  0  0  0  0  0  0  0  0  0  0
   35.3570   30.1410   34.3460 O   0  0  0  0  0  0  0  0  0  0  0  0
   35.9940   30.7660   35.3960 C   0  0  0  0  0  0  0  0  0  0  0  0
   36.0370   30.0250   36.2390 H   0  0  0  0  0  0  0  0  0  0  0  0
   37.0660   31.0120   35.1980 H   0  0  0  0  0  0  0  0  0  0  0  0
   35.1520   31.8050   35.5670 C   0  0  0  0  0  0  0  0  0  0  0  0
   34.2690   31.8260   34.8780 H   0  0  0  0  0  0  0  0  0  0  0  0
   35.6560   32.7730   35.2680 H   0  0  0  0  0  0  0  0  0  0  0  0
   34.6050   32.0240   36.9380 C   0  0  0  0  0  0  0  0  0  0  0  0
   34.6830   33.1280   37.1380 H   0  0  0  0  0  0  0  0  0  0  0  0
   35.1890   31.5460   37.7440 H   0  0  0  0  0  0  0  0  0  0  0  0
   32.8980   31.5170   37.1030 S   0  0  0  0  0  0  0  0  0  0  0  0
   32.1240   32.2270   36.1470 H   0  0  0  0  0  0  0  0  0  0  0  0
  1  2  1  0  0  0  0
  2  3  1  0  0  0  0
  2  4  2  0  0  0  0
  4  5  1  0  0  0  0
  6  4  1  0  0  0  0
  6 21  1  0  0  0  0
  7  6  2  0  0  0  0
  8  1  2  0  0  0  0
  8  7  1  0  0  0  0
  9  8  1  0  0  0  0
 10  7  1  0  0  0  0
 10 11  1  0  0  0  0
 11 20  1  0  0  0  0
 12 11  2  0  0  0  0
 12 14  1  0  0  0  0
 13 12  1  0  0  0  0
 14 16  2  0  0  0  0
 15 14  1  0  0  0  0
 16 18  1  0  0  0  0
 16 17  1  0  0  0  0
 18 19  1  0  0  0  0
 20 21  1  0  0  0  0
 20 18  2  0  0  0  0
 21 22  1  0  0  0  0
 23 31  1  0  0  0  0
 23 28  1  0  0  0  0
 24 23  2  0  0  0  0
 25 24  1  0  0  0  0
 25 26  2  0  0  0  0
 26 27  1  0  0  0  0
 27 28  2  0  0  0  0
 27  1  1  0  0  0  0
 29 24  1  0  0  0  0
 30 25  1  0  0  0  0
 31 32  1  0  0  0  0
 32 35  1  0  0  0  0
 32 33  1  0  0  0  0
 34 32  1  0  0  0  0
 35 38  1  0  0  0  0
 36 35  1  0  0  0  0
 37 35  1  0  0  0  0
 38 41  1  0  0  0  0
 38 39  1  0  0  0  0
 38 40  1  0  0  0  0
 42 41  1  0  0  0  0
M  END
>  <minimizedAffinity>
-5.32336187

$$$$

 OpenBabel03262521203D

 42 45  0  0  0  0  0  0  0  0999 V2000
   37.7720   27.6260   32.1150 C   0  0  0  0  0  0  0  0  0  0  0  0
   36.8040   28.0030   33.0290 C   0  0  0  0  0  0  0  0  0  0  0  0
   36.0890   28.7770   32.7870 H   0  0  0  0  0  0  0  0  0  0  0  0
   36.7930   27.3570   34.2490 C   0  0  0  0  0  0  0  0  0  0  0  0
   36.0020   27.7010   34.9320 H   0  0  0  0  0  0  0  0  0  0  0  0
   37.6630   26.3610   34.6440 C   0  0  0  0  0  0  0  0  0  0  0  0
   38.6040   26.0230   33.7020 C   0  0  0  0  0  0  0  0  0  0  0  0
   38.6560   26.6290   32.4880 C   0  0  0  0  0  0  0  0  0  0  0  0
   39.4140   26.3430   31.7560 H   0  0  0  0  0  0  0  0  0  0  0  0
   39.7800   24.7610   34.0800 S   0  0  0  0  0  0  0  0  0  0  0  0
   39.4000   24.2130   35.7350 C   0  0  0  0  0  0  0  0  0  0  0  0
   40.1580   23.2380   36.2800 C   0  0  0  0  0  0  0  0  0  0  0  0
   40.9910   22.7930   35.7160 H   0  0  0  0  0  0  0  0  0  0  0  0
   39.9270   22.7620   37.5500 C   0  0  0  0  0  0  0  0  0  0  0  0
   40.5310   21.9830   37.9880 H   0  0  0  0  0  0  0  0  0  0  0  0
   38.8930   23.3030   38.2710 C   0  0  0  0  0  0  0  0  0  0  0  0
   38.6630   22.9700   39.2740 H   0  0  0  0  0  0  0  0  0  0  0  0
   38.1490   24.3020   37.6590 C   0  0  0  0  0  0  0  0  0  0  0  0
   37.3330   24.7010   38.2790 H   0  0  0  0  0  0  0  0  0  0  0  0
   38.3610   24.7950   36.3870 C   0  0  0  0  0  0  0  0  0  0  0  0
   37.5220   25.8040   35.9140 N   0  0  0  0  0  0  0  0  0  0  0  0
   36.7590   26.1580   36.5310 H   0  0  0  0  0  0  0  0  0  0  0  0
   38.6520   28.2230   28.6180 C   0  0  0  0  0  0  0  0  0  0  0  0
   38.0340   29.4330   28.3510 C   0  0  0  0  0  0  0  0  0  0  0  0
   37.3040   30.0660   29.3620 C   0  0  0  0  0  0  0  0  0  0  0  0
   37.2500   29.4340   30.5740 N   0  0  0  0  0  0  0  0  0  0  0  0
   37.8700   28.2440   30.8020 C   0  0  0  0  0  0  0  0  0  0  0  0
   38.5570   27.6580   29.8350 N   0  0  0  0  0  0  0  0  0  0  0  0
   38.0470   29.9730   27.4110 H   0  0  0  0  0  0  0  0  0  0  0  0
   36.8030   31.0120   29.2070 H   0  0  0  0  0  0  0  0  0  0  0  0
   39.3340   27.7240   27.5150 O   0  0  0  0  0  0  0  0  0  0  0  0
   40.5120   27.0480   27.7460 C   0  0  0  0  0  0  0  0  0  0  0  0
   41.2450   27.7980   28.1490 H   0  0  0  0  0  0  0  0  0  0  0  0
   40.4450   26.2760   28.5520 H   0  0  0  0  0  0  0  0  0  0  0  0
   40.7510   26.6040   26.4950 C   0  0  0  0  0  0  0  0  0  0  0  0
   41.5540   27.1500   25.9370 H   0  0  0  0  0  0  0  0  0  0  0  0
   39.8660   26.8200   25.8250 H   0  0  0  0  0  0  0  0  0  0  0  0
   41.0550   25.1520   26.3310 C   0  0  0  0  0  0  0  0  0  0  0  0
   41.9980   24.9580   26.9120 H   0  0  0  0  0  0  0  0  0  0  0  0
   41.2900   24.8500   25.2960 H   0  0  0  0  0  0  0  0  0  0  0  0
   39.7570   24.0880   26.9490 S   0  0  0  0  0  0  0  0  0  0  0  0
   39.5400   24.3920   28.3190 H   0  0  0  0  0  0  0  0  0  0  0  0
  1  8  2  0  0  0  0
  1  2  1  0  0  0  0
  2  4  2  0  0  0  0
  3  2  1  0  0  0  0
  4  6  1  0  0  0  0
  4  5  1  0  0  0  0
  6 21  1  0  0  0  0
  7 10  1  0  0  0  0
  7  6  2  0  0  0  0
  8  7  1  0  0  0  0
  9  8  1  0  0  0  0
 10 11  1  0  0  0  0
 11 12  2  0  0  0  0
 11 20  1  0  0  0  0
 12 14  1  0  0  0  0
 13 12  1  0  0  0  0
 14 15  1  0  0  0  0
 14 16  2  0  0  0  0
 16 17  1  0  0  0  0
 18 16  1  0  0  0  0
 18 19  1  0  0  0  0
 20 18  2  0  0  0  0
 21 20  1  0  0  0  0
 21 22  1  0  0  0  0
 23 28  1  0  0  0  0
 24 23  2  0  0  0  0
 24 25  1  0  0  0  0
 25 26  2  0  0  0  0
 26 27  1  0  0  0  0
 27  1  1  0  0  0  0
 28 27  2  0  0  0  0
 29 24  1  0  0  0  0
 30 25  1  0  0  0  0
 31 32  1  0  0  0  0
 31 23  1  0  0  0  0
 32 33  1  0  0  0  0
 32 34  1  0  0  0  0
 35 32  1  0  0  0  0
 36 35  1  0  0  0  0
 37 35  1  0  0  0  0
 38 35  1  0  0  0  0
 38 39  1  0  0  0  0
 38 41  1  0  0  0  0
 40 38  1  0  0  0  0
 41 42  1  0  0  0  0
M  END
>  <minimizedAffinity>
-5.26176882

$$$$

 OpenBabel03262521203D

 42 45  0  0  0  0  0  0  0  0999 V2000
   38.0760   27.3520   31.9510 C   0  0  0  0  0  0  0  0  0  0  0  0
   37.0770   27.8090   32.7930 C   0  0  0  0  0  0  0  0  0  0  0  0
   36.4000   28.5880   32.4730 H   0  0  0  0  0  0  0  0  0  0  0  0
   36.9860   27.2350   34.0460 C   0  0  0  0  0  0  0  0  0  0  0  0
   36.1750   27.6410   34.6680 H   0  0  0  0  0  0  0  0  0  0  0  0
   37.8040   26.2390   34.5400 C   0  0  0  0  0  0  0  0  0  0  0  0
   38.7780   25.8200   33.6660 C   0  0  0  0  0  0  0  0  0  0  0  0
   38.9080   26.3530   32.4240 C   0  0  0  0  0  0  0  0  0  0  0  0
   39.6910   26.0030   31.7490 H   0  0  0  0  0  0  0  0  0  0  0  0
   39.8940   24.5490   34.1730 S   0  0  0  0  0  0  0  0  0  0  0  0
   39.4170   24.1080   35.8350 C   0  0  0  0  0  0  0  0  0  0  0  0
   40.1160   23.1440   36.4720 C   0  0  0  0  0  0  0  0  0  0  0  0
   40.9610   22.6440   35.9750 H   0  0  0  0  0  0  0  0  0  0  0  0
   39.8090   22.7500   37.7530 C   0  0  0  0  0  0  0  0  0  0  0  0
   40.3660   21.9800   38.2640 H   0  0  0  0  0  0  0  0  0  0  0  0
   38.7590   23.3610   38.3900 C   0  0  0  0  0  0  0  0  0  0  0  0
   38.4700   23.0930   39.3970 H   0  0  0  0  0  0  0  0  0  0  0  0
   38.0780   24.3450   37.6860 C   0  0  0  0  0  0  0  0  0  0  0  0
   37.2450   24.8020   38.2410 H   0  0  0  0  0  0  0  0  0  0  0  0
   38.3670   24.7570   36.4010 C   0  0  0  0  0  0  0  0  0  0  0  0
   37.5840   25.7610   35.8300 N   0  0  0  0  0  0  0  0  0  0  0  0
   36.8040   26.1710   36.3870 H   0  0  0  0  0  0  0  0  0  0  0  0
   37.8170   29.5150   29.0160 C   0  0  0  0  0  0  0  0  0  0  0  0
   38.6200   28.8690   28.0910 C   0  0  0  0  0  0  0  0  0  0  0  0
   39.2640   27.6820   28.4540 C   0  0  0  0  0  0  0  0  0  0  0  0
   39.0530   27.2290   29.7270 N   0  0  0  0  0  0  0  0  0  0  0  0
   38.2570   27.8900   30.6120 C   0  0  0  0  0  0  0  0  0  0  0  0
   37.6540   29.0110   30.2530 N   0  0  0  0  0  0  0  0  0  0  0  0
   38.8170   29.1870   27.0730 H   0  0  0  0  0  0  0  0  0  0  0  0
   39.9010   27.1380   27.7700 H   0  0  0  0  0  0  0  0  0  0  0  0
   37.2510   30.6760   28.5050 O   0  0  0  0  0  0  0  0  0  0  0  0
   37.7740   31.1790   27.3340 C   0  0  0  0  0  0  0  0  0  0  0  0
   38.8090   31.5460   27.5710 H   0  0  0  0  0  0  0  0  0  0  0  0
   37.9370   30.4100   26.5390 H   0  0  0  0  0  0  0  0  0  0  0  0
   36.8540   32.1320   27.0810 C   0  0  0  0  0  0  0  0  0  0  0  0
   35.7980   31.7680   26.9940 H   0  0  0  0  0  0  0  0  0  0  0  0
   37.0020   32.5550   26.0420 H   0  0  0  0  0  0  0  0  0  0  0  0
   36.8080   33.3010   28.0070 C   0  0  0  0  0  0  0  0  0  0  0  0
   36.5030   32.8990   29.0120 H   0  0  0  0  0  0  0  0  0  0  0  0
   36.0390   34.0520   27.7550 H   0  0  0  0  0  0  0  0  0  0  0  0
   38.3820   34.1370   28.1630 S   0  0  0  0  0  0  0  0  0  0  0  0
   39.3480   33.1960   28.6090 H   0  0  0  0  0  0  0  0  0  0  0  0
  1  8  2  0  0  0  0
  1  2  1  0  0  0  0
  2  4  2  0  0  0  0
  3  2  1  0  0  0  0
  4  6  1  0  0  0  0
  4  5  1  0  0  0  0
  6 21  1  0  0  0  0
  7 10  1  0  0  0  0
  7  6  2  0  0  0  0
  8  7  1  0  0  0  0
  9  8  1  0  0  0  0
 10 11  1  0  0  0  0
 11 20  2  0  0  0  0
 11 12  1  0  0  0  0
 12 14  2  0  0  0  0
 13 12  1  0  0  0  0
 14 15  1  0  0  0  0
 14 16  1  0  0  0  0
 16 17  1  0  0  0  0
 18 19  1  0  0  0  0
 18 16  2  0  0  0  0
 20 18  1  0  0  0  0
 21 22  1  0  0  0  0
 21 20  1  0  0  0  0
 23 28  1  0  0  0  0
 24 25  1  0  0  0  0
 24 23  2  0  0  0  0
 25 26  2  0  0  0  0
 26 27  1  0  0  0  0
 27  1  1  0  0  0  0
 28 27  2  0  0  0  0
 29 24  1  0  0  0  0
 30 25  1  0  0  0  0
 31 23  1  0  0  0  0
 32 33  1  0  0  0  0
 32 31  1  0  0  0  0
 34 32  1  0  0  0  0
 35 32  1  0  0  0  0
 35 38  1  0  0  0  0
 36 35  1  0  0  0  0
 37 35  1  0  0  0  0
 38 41  1  0  0  0  0
 38 39  1  0  0  0  0
 40 38  1  0  0  0  0
 41 42  1  0  0  0  0
M  END
>  <minimizedAffinity>
-5.18771887

$$$$

 OpenBabel03262521203D

 42 45  0  0  0  0  0  0  0  0999 V2000
   34.7680   29.6990   34.2060 C   0  0  0  0  0  0  0  0  0  0  0  0
   33.4270   29.6560   33.8660 C   0  0  0  0  0  0  0  0  0  0  0  0
   33.0580   28.9160   33.1700 H   0  0  0  0  0  0  0  0  0  0  0  0
   32.5910   30.5890   34.4460 C   0  0  0  0  0  0  0  0  0  0  0  0
   31.5390   30.5040   34.1360 H   0  0  0  0  0  0  0  0  0  0  0  0
   32.9720   31.5680   35.3420 C   0  0  0  0  0  0  0  0  0  0  0  0
   34.3110   31.5680   35.6470 C   0  0  0  0  0  0  0  0  0  0  0  0
   35.1730   30.6710   35.1020 C   0  0  0  0  0  0  0  0  0  0  0  0
   36.2340   30.6930   35.3610 H   0  0  0  0  0  0  0  0  0  0  0  0
   34.9310   32.7710   36.7820 S   0  0  0  0  0  0  0  0  0  0  0  0
   33.5260   33.7540   37.2740 C   0  0  0  0  0  0  0  0  0  0  0  0
   33.7200   34.7620   38.1520 C   0  0  0  0  0  0  0  0  0  0  0  0
   34.7240   34.9710   38.5520 H   0  0  0  0  0  0  0  0  0  0  0  0
   32.6870   35.5630   38.5780 C   0  0  0  0  0  0  0  0  0  0  0  0
   32.8410   36.3700   39.2800 H   0  0  0  0  0  0  0  0  0  0  0  0
   31.4280   35.3200   38.0920 C   0  0  0  0  0  0  0  0  0  0  0  0
   30.5780   35.9160   38.3910 H   0  0  0  0  0  0  0  0  0  0  0  0
   31.2900   34.2710   37.1930 C   0  0  0  0  0  0  0  0  0  0  0  0
   30.2610   34.1190   36.8330 H   0  0  0  0  0  0  0  0  0  0  0  0
   32.3100   33.4540   36.7500 C   0  0  0  0  0  0  0  0  0  0  0  0
   32.0060   32.4390   35.8420 N   0  0  0  0  0  0  0  0  0  0  0  0
   31.0190   32.3250   35.5240 H   0  0  0  0  0  0  0  0  0  0  0  0
   37.4880   27.2730   33.9330 C   0  0  0  0  0  0  0  0  0  0  0  0
   37.5250   27.0090   32.5740 C   0  0  0  0  0  0  0  0  0  0  0  0
   36.6210   27.6570   31.7260 C   0  0  0  0  0  0  0  0  0  0  0  0
   35.7410   28.5260   32.3100 N   0  0  0  0  0  0  0  0  0  0  0  0
   35.7310   28.7610   33.6510 C   0  0  0  0  0  0  0  0  0  0  0  0
   36.5940   28.1410   34.4390 N   0  0  0  0  0  0  0  0  0  0  0  0
   38.2010   26.3310   32.0650 H   0  0  0  0  0  0  0  0  0  0  0  0
   36.6070   27.4870   30.6580 H   0  0  0  0  0  0  0  0  0  0  0  0
   38.4460   26.5530   34.6360 O   0  0  0  0  0  0  0  0  0  0  0  0
   38.4370   26.6540   36.0110 C   0  0  0  0  0  0  0  0  0  0  0  0
   39.4610   26.9970   36.3190 H   0  0  0  0  0  0  0  0  0  0  0  0
   37.7560   27.4490   36.4060 H   0  0  0  0  0  0  0  0  0  0  0  0
   38.1260   25.3780   36.3160 C   0  0  0  0  0  0  0  0  0  0  0  0
   37.1230   25.0300   35.9570 H   0  0  0  0  0  0  0  0  0  0  0  0
   37.9840   25.2640   37.4320 H   0  0  0  0  0  0  0  0  0  0  0  0
   39.0960   24.3210   35.9070 C   0  0  0  0  0  0  0  0  0  0  0  0
   39.8340   24.2250   36.7490 H   0  0  0  0  0  0  0  0  0  0  0  0
   39.7040   24.5780   35.0220 H   0  0  0  0  0  0  0  0  0  0  0  0
   38.3250   22.7330   35.6180 S   0  0  0  0  0  0  0  0  0  0  0  0
   37.6430   22.3430   36.8020 H   0  0  0  0  0  0  0  0  0  0  0  0
  1  8  1  0  0  0  0
  2  1  2  0  0  0  0
  2  4  1  0  0  0  0
  3  2  1  0  0  0  0
  4  6  2  0  0  0  0
  5  4  1  0  0  0  0
  6  7  1  0  0  0  0
  6 21  1  0  0  0  0
  7 10  1  0  0  0  0
  8  9  1  0  0  0  0
  8  7  2  0  0  0  0
 10 11  1  0  0  0  0
 11 12  1  0  0  0  0
 12 13  1  0  0  0  0
 12 14  2  0  0  0  0
 14 15  1  0  0  0  0
 16 17  1  0  0  0  0
 16 14  1  0  0  0  0
 18 16  2  0  0  0  0
 19 18  1  0  0  0  0
 20 18  1  0  0  0  0
 20 11  2  0  0  0  0
 21 20  1  0  0  0  0
 22 21  1  0  0  0  0
 23 28  1  0  0  0  0
 23 31  1  0  0  0  0
 24 23  2  0  0  0  0
 25 26  2  0  0  0  0
 25 24  1  0  0  0  0
 26 27  1  0  0  0  0
 27  1  1  0  0  0  0
 27 28  2  0  0  0  0
 29 24  1  0  0  0  0
 30 25  1  0  0  0  0
 31 32  1  0  0  0  0
 32 35  1  0  0  0  0
 32 33  1  0  0  0  0
 32 34  1  0  0  0  0
 35 37  1  0  0  0  0
 36 35  1  0  0  0  0
 38 35  1  0  0  0  0
 38 39  1  0  0  0  0
 40 38  1  0  0  0  0
 41 38  1  0  0  0  0
 41 42  1  0  0  0  0
M  END
>  <minimizedAffinity>
-5.18040371

$$$$

 OpenBabel03262521203D

 42 45  0  0  0  0  0  0  0  0999 V2000
   37.7000   27.0160   33.3070 C   0  0  0  0  0  0  0  0  0  0  0  0
   37.0580   27.0130   34.5340 C   0  0  0  0  0  0  0  0  0  0  0  0
   36.2380   27.6900   34.7290 H   0  0  0  0  0  0  0  0  0  0  0  0
   37.5070   26.1200   35.4860 C   0  0  0  0  0  0  0  0  0  0  0  0
   36.9580   26.1660   36.4390 H   0  0  0  0  0  0  0  0  0  0  0  0
   38.5420   25.2210   35.3270 C   0  0  0  0  0  0  0  0  0  0  0  0
   39.1460   25.2640   34.0940 C   0  0  0  0  0  0  0  0  0  0  0  0
   38.7410   26.1250   33.1240 C   0  0  0  0  0  0  0  0  0  0  0  0
   39.2380   26.1390   32.1520 H   0  0  0  0  0  0  0  0  0  0  0  0
   40.4870   24.1660   33.7570 S   0  0  0  0  0  0  0  0  0  0  0  0
   40.7240   23.2080   35.2440 C   0  0  0  0  0  0  0  0  0  0  0  0
   41.7020   22.2770   35.2620 C   0  0  0  0  0  0  0  0  0  0  0  0
   42.3380   22.1150   34.3790 H   0  0  0  0  0  0  0  0  0  0  0  0
   41.9450   21.5000   36.3710 C   0  0  0  0  0  0  0  0  0  0  0  0
   42.7260   20.7550   36.3870 H   0  0  0  0  0  0  0  0  0  0  0  0
   41.1640   21.6850   37.4820 C   0  0  0  0  0  0  0  0  0  0  0  0
   41.3070   21.1040   38.3820 H   0  0  0  0  0  0  0  0  0  0  0  0
   40.1740   22.6560   37.4050 C   0  0  0  0  0  0  0  0  0  0  0  0
   39.5760   22.7650   38.3220 H   0  0  0  0  0  0  0  0  0  0  0  0
   39.9110   23.4470   36.3060 C   0  0  0  0  0  0  0  0  0  0  0  0
   38.8780   24.3810   36.3870 N   0  0  0  0  0  0  0  0  0  0  0  0
   38.3330   24.4550   37.2730 H   0  0  0  0  0  0  0  0  0  0  0  0
   37.3850   28.5590   30.0090 C   0  0  0  0  0  0  0  0  0  0  0  0
   36.5430   29.6300   30.2520 C   0  0  0  0  0  0  0  0  0  0  0  0
   36.0680   29.8450   31.5500 C   0  0  0  0  0  0  0  0  0  0  0  0
   36.4760   28.9620   32.5120 N   0  0  0  0  0  0  0  0  0  0  0  0
   37.3050   27.9180   32.2360 C   0  0  0  0  0  0  0  0  0  0  0  0
   37.7470   27.7290   31.0040 N   0  0  0  0  0  0  0  0  0  0  0  0
   36.1930   30.3560   29.5270 H   0  0  0  0  0  0  0  0  0  0  0  0
   35.4090   30.6660   31.7950 H   0  0  0  0  0  0  0  0  0  0  0  0
   37.7690   28.4820   28.6760 O   0  0  0  0  0  0  0  0  0  0  0  0
   38.1770   29.6450   28.0610 C   0  0  0  0  0  0  0  0  0  0  0  0
   37.4940   29.8080   27.1840 H   0  0  0  0  0  0  0  0  0  0  0  0
   38.0400   30.5630   28.6840 H   0  0  0  0  0  0  0  0  0  0  0  0
   39.4450   29.2950   27.7630 C   0  0  0  0  0  0  0  0  0  0  0  0
   40.1930   29.4610   28.5810 H   0  0  0  0  0  0  0  0  0  0  0  0
   39.8670   29.9830   26.9700 H   0  0  0  0  0  0  0  0  0  0  0  0
   39.6740   27.9040   27.2760 C   0  0  0  0  0  0  0  0  0  0  0  0
   38.6580   27.4660   27.0750 H   0  0  0  0  0  0  0  0  0  0  0  0
   40.1320   27.2300   28.0210 H   0  0  0  0  0  0  0  0  0  0  0  0
   40.6490   27.8340   25.7780 S   0  0  0  0  0  0  0  0  0  0  0  0
   39.9930   28.6020   24.7790 H   0  0  0  0  0  0  0  0  0  0  0  0
  1  2  1  0  0  0  0
  2  3  1  0  0  0  0
  2  4  2  0  0  0  0
  4  5  1  0  0  0  0
  6  4  1  0  0  0  0
  6 21  1  0  0  0  0
  7  6  2  0  0  0  0
  8  1  2  0  0  0  0
  8  7  1  0  0  0  0
  9  8  1  0  0  0  0
 10  7  1  0  0  0  0
 10 11  1  0  0  0  0
 11 12  2  0  0  0  0
 11 20  1  0  0  0  0
 12 14  1  0  0  0  0
 13 12  1  0  0  0  0
 14 15  1  0  0  0  0
 14 16  2  0  0  0  0
 16 17  1  0  0  0  0
 18 16  1  0  0  0  0
 18 19  1  0  0  0  0
 20 21  1  0  0  0  0
 20 18  2  0  0  0  0
 21 22  1  0  0  0  0
 23 24  2  0  0  0  0
 23 28  1  0  0  0  0
 24 25  1  0  0  0  0
 25 30  1  0  0  0  0
 25 26  2  0  0  0  0
 27 26  1  0  0  0  0
 27  1  1  0  0  0  0
 28 27  2  0  0  0  0
 29 24  1  0  0  0  0
 31 23  1  0  0  0  0
 32 31  1  0  0  0  0
 32 34  1  0  0  0  0
 33 32  1  0  0  0  0
 35 32  1  0  0  0  0
 35 36  1  0  0  0  0
 37 35  1  0  0  0  0
 38 35  1  0  0  0  0
 38 40  1  0  0  0  0
 39 38  1  0  0  0  0
 41 38  1  0  0  0  0
 42 41  1  0  0  0  0
M  END
>  <minimizedAffinity>
-5.12683535

$$$$

 OpenBabel03262521203D

 42 45  0  0  0  0  0  0  0  0999 V2000
   38.6940   27.1470   31.7050 C   0  0  0  0  0  0  0  0  0  0  0  0
   39.7530   26.3060   31.4080 C   0  0  0  0  0  0  0  0  0  0  0  0
   40.2530   26.3660   30.4510 H   0  0  0  0  0  0  0  0  0  0  0  0
   40.1380   25.3990   32.3750 C   0  0  0  0  0  0  0  0  0  0  0  0
   40.9830   24.7590   32.0800 H   0  0  0  0  0  0  0  0  0  0  0  0
   39.5610   25.2520   33.6200 C   0  0  0  0  0  0  0  0  0  0  0  0
   38.5150   26.1080   33.8650 C   0  0  0  0  0  0  0  0  0  0  0  0
   38.1000   27.0180   32.9470 C   0  0  0  0  0  0  0  0  0  0  0  0
   37.2660   27.6870   33.1660 H   0  0  0  0  0  0  0  0  0  0  0  0
   37.6870   26.0250   35.4230 S   0  0  0  0  0  0  0  0  0  0  0  0
   38.5020   24.7330   36.3450 C   0  0  0  0  0  0  0  0  0  0  0  0
   38.0610   24.4550   37.5910 C   0  0  0  0  0  0  0  0  0  0  0  0
   37.2180   25.0130   38.0250 H   0  0  0  0  0  0  0  0  0  0  0  0
   38.6370   23.4730   38.3640 C   0  0  0  0  0  0  0  0  0  0  0  0
   38.2870   23.2500   39.3600 H   0  0  0  0  0  0  0  0  0  0  0  0
   39.6890   22.7660   37.8420 C   0  0  0  0  0  0  0  0  0  0  0  0
   40.1820   21.9830   38.4020 H   0  0  0  0  0  0  0  0  0  0  0  0
   40.0980   23.0950   36.5560 C   0  0  0  0  0  0  0  0  0  0  0  0
   40.9450   22.4990   36.1850 H   0  0  0  0  0  0  0  0  0  0  0  0
   39.5370   24.0750   35.7630 C   0  0  0  0  0  0  0  0  0  0  0  0
   40.0650   24.2850   34.4890 N   0  0  0  0  0  0  0  0  0  0  0  0
   40.8670   23.7000   34.1720 H   0  0  0  0  0  0  0  0  0  0  0  0
   36.8790   29.9700   30.2580 C   0  0  0  0  0  0  0  0  0  0  0  0
   37.3270   29.9810   28.9480 C   0  0  0  0  0  0  0  0  0  0  0  0
   38.2590   29.0230   28.5360 C   0  0  0  0  0  0  0  0  0  0  0  0
   38.6730   28.1200   29.4750 N   0  0  0  0  0  0  0  0  0  0  0  0
   38.2120   28.1380   30.7560 C   0  0  0  0  0  0  0  0  0  0  0  0
   37.3300   29.0500   31.1300 N   0  0  0  0  0  0  0  0  0  0  0  0
   37.0300   30.6740   28.1690 H   0  0  0  0  0  0  0  0  0  0  0  0
   38.6420   28.9870   27.5250 H   0  0  0  0  0  0  0  0  0  0  0  0
   35.9600   30.9810   30.5100 O   0  0  0  0  0  0  0  0  0  0  0  0
   36.2660   31.8890   31.5010 C   0  0  0  0  0  0  0  0  0  0  0  0
   37.2720   31.6000   31.9080 H   0  0  0  0  0  0  0  0  0  0  0  0
   36.4130   32.9340   31.1320 H   0  0  0  0  0  0  0  0  0  0  0  0
   35.2160   31.6730   32.3180 C   0  0  0  0  0  0  0  0  0  0  0  0
   34.4490   30.9510   31.9350 H   0  0  0  0  0  0  0  0  0  0  0  0
   34.5810   32.6060   32.3980 H   0  0  0  0  0  0  0  0  0  0  0  0
   35.5130   31.2490   33.7170 C   0  0  0  0  0  0  0  0  0  0  0  0
   34.9240   31.9320   34.3890 H   0  0  0  0  0  0  0  0  0  0  0  0
   36.5650   31.3880   34.0220 H   0  0  0  0  0  0  0  0  0  0  0  0
   35.0490   29.5540   34.0520 S   0  0  0  0  0  0  0  0  0  0  0  0
   33.6630   29.4050   33.7780 H   0  0  0  0  0  0  0  0  0  0  0  0
  1  8  1  0  0  0  0
  2  1  2  0  0  0  0
  2  4  1  0  0  0  0
  3  2  1  0  0  0  0
  4  6  2  0  0  0  0
  5  4  1  0  0  0  0
  6  7  1  0  0  0  0
  6 21  1  0  0  0  0
  7 10  1  0  0  0  0
  8  9  1  0  0  0  0
  8  7  2  0  0  0  0
 10 11  1  0  0  0  0
 11 12  1  0  0  0  0
 12 13  1  0  0  0  0
 12 14  2  0  0  0  0
 14 15  1  0  0  0  0
 16 14  1  0  0  0  0
 16 17  1  0  0  0  0
 18 16  2  0  0  0  0
 19 18  1  0  0  0  0
 20 11  2  0  0  0  0
 20 18  1  0  0  0  0
 21 20  1  0  0  0  0
 22 21  1  0  0  0  0
 23 31  1  0  0  0  0
 23 28  1  0  0  0  0
 24 23  2  0  0  0  0
 25 24  1  0  0  0  0
 25 26  2  0  0  0  0
 26 27  1  0  0  0  0
 27 28  2  0  0  0  0
 27  1  1  0  0  0  0
 29 24  1  0  0  0  0
 30 25  1  0  0  0  0
 31 32  1  0  0  0  0
 32 33  1  0  0  0  0
 32 35  1  0  0  0  0
 34 32  1  0  0  0  0
 35 37  1  0  0  0  0
 35 38  1  0  0  0  0
 36 35  1  0  0  0  0
 38 40  1  0  0  0  0
 38 41  1  0  0  0  0
 38 39  1  0  0  0  0
 42 41  1  0  0  0  0
M  END
>  <minimizedAffinity>
-5.08659267

$$$$
