
 OpenBabel03272500133D

 34 37  0  0  0  0  0  0  0  0999 V2000
   37.9100   27.0450   33.7850 C   0  0  0  0  0  0  0  0  0  0  0  0
   39.1350   27.2310   33.1770 C   0  0  0  0  0  0  0  0  0  0  0  0
   39.2300   28.0070   32.4440 H   0  0  0  0  0  0  0  0  0  0  0  0
   40.1880   26.4150   33.5340 C   0  0  0  0  0  0  0  0  0  0  0  0
   41.1230   26.6390   32.9970 H   0  0  0  0  0  0  0  0  0  0  0  0
   40.1130   25.4060   34.4710 C   0  0  0  0  0  0  0  0  0  0  0  0
   38.8900   25.2290   35.0690 C   0  0  0  0  0  0  0  0  0  0  0  0
   37.8370   26.0350   34.7210 C   0  0  0  0  0  0  0  0  0  0  0  0
   36.8760   25.8720   35.2120 H   0  0  0  0  0  0  0  0  0  0  0  0
   38.7320   23.9530   36.2760 S   0  0  0  0  0  0  0  0  0  0  0  0
   40.3250   23.1640   36.4140 C   0  0  0  0  0  0  0  0  0  0  0  0
   40.4120   22.1380   37.3070 C   0  0  0  0  0  0  0  0  0  0  0  0
   39.5780   21.8120   37.9010 H   0  0  0  0  0  0  0  0  0  0  0  0
   41.6200   21.4920   37.4560 C   0  0  0  0  0  0  0  0  0  0  0  0
   41.7480   20.6730   38.1470 H   0  0  0  0  0  0  0  0  0  0  0  0
   42.6970   21.9030   36.7000 C   0  0  0  0  0  0  0  0  0  0  0  0
   43.6560   21.4140   36.7960 H   0  0  0  0  0  0  0  0  0  0  0  0
   42.5220   22.9500   35.8180 C   0  0  0  0  0  0  0  0  0  0  0  0
   43.4200   23.2290   35.2450 H   0  0  0  0  0  0  0  0  0  0  0  0
   41.3400   23.6360   35.6240 C   0  0  0  0  0  0  0  0  0  0  0  0
   41.3050   24.6770   34.6990 N   0  0  0  0  0  0  0  0  0  0  0  0
   42.1780   24.9090   34.1780 H   0  0  0  0  0  0  0  0  0  0  0  0
   35.3260   28.7650   31.8400 C   0  0  0  0  0  0  0  0  0  0  0  0
   34.5990   29.4390   32.8400 C   0  0  0  0  0  0  0  0  0  0  0  0
   35.0060   29.2950   34.1740 C   0  0  0  0  0  0  0  0  0  0  0  0
   36.0940   28.5000   34.4230 N   0  0  0  0  0  0  0  0  0  0  0  0
   36.7600   27.8750   33.4490 C   0  0  0  0  0  0  0  0  0  0  0  0
   36.4010   27.9900   32.1660 N   0  0  0  0  0  0  0  0  0  0  0  0
   35.0640   28.8370   30.8090 H   0  0  0  0  0  0  0  0  0  0  0  0
   34.4410   29.8170   34.9350 H   0  0  0  0  0  0  0  0  0  0  0  0
   33.4300   30.2750   32.4250 C   0  0  0  0  0  0  0  0  0  0  0  0
   32.2580   29.5160   32.4150 F   0  0  0  0  0  0  0  0  0  0  0  0
   33.2690   31.2740   33.3590 F   0  0  0  0  0  0  0  0  0  0  0  0
   33.5870   30.8380   31.1880 F   0  0  0  0  0  0  0  0  0  0  0  0
  1  8  1  0  0  0  0
  2  4  1  0  0  0  0
  2  1  2  0  0  0  0
  3  2  1  0  0  0  0
  4  6  2  0  0  0  0
  5  4  1  0  0  0  0
  6 21  1  0  0  0  0
  6  7  1  0  0  0  0
  7 10  1  0  0  0  0
  8  7  2  0  0  0  0
  8  9  1  0  0  0  0
 10 11  1  0  0  0  0
 11 12  1  0  0  0  0
 12 14  2  0  0  0  0
 12 13  1  0  0  0  0
 14 15  1  0  0  0  0
 16 17  1  0  0  0  0
 16 14  1  0  0  0  0
 18 16  2  0  0  0  0
 19 18  1  0  0  0  0
 20 18  1  0  0  0  0
 20 11  2  0  0  0  0
 21 20  1  0  0  0  0
 22 21  1  0  0  0  0
 23 28  2  0  0  0  0
 23 24  1  0  0  0  0
 24 25  2  0  0  0  0
 25 26  1  0  0  0  0
 25 30  1  0  0  0  0
 27  1  1  0  0  0  0
 27 26  2  0  0  0  0
 28 27  1  0  0  0  0
 29 23  1  0  0  0  0
 31 24  1  0  0  0  0
 31 33  1  0  0  0  0
 32 31  1  0  0  0  0
 34 31  1  0  0  0  0
M  END
>  <minimizedAffinity>
-5.7102108

$$$$

 OpenBabel03272500133D

 34 37  0  0  0  0  0  0  0  0999 V2000
   37.8390   26.7330   33.6590 C   0  0  0  0  0  0  0  0  0  0  0  0
   36.7090   27.5020   33.4700 C   0  0  0  0  0  0  0  0  0  0  0  0
   35.9360   27.4660   34.2110 H   0  0  0  0  0  0  0  0  0  0  0  0
   36.6150   28.2840   32.3380 C   0  0  0  0  0  0  0  0  0  0  0  0
   35.6790   28.8610   32.2750 H   0  0  0  0  0  0  0  0  0  0  0  0
   37.5840   28.3630   31.3590 C   0  0  0  0  0  0  0  0  0  0  0  0
   38.7030   27.5940   31.5570 C   0  0  0  0  0  0  0  0  0  0  0  0
   38.8050   26.8120   32.6780 C   0  0  0  0  0  0  0  0  0  0  0  0
   39.7070   26.2110   32.8100 H   0  0  0  0  0  0  0  0  0  0  0  0
   39.9770   27.6510   30.3380 S   0  0  0  0  0  0  0  0  0  0  0  0
   39.4340   28.7790   29.0680 C   0  0  0  0  0  0  0  0  0  0  0  0
   40.2890   28.9640   28.0230 C   0  0  0  0  0  0  0  0  0  0  0  0
   41.2390   28.4660   27.9540 H   0  0  0  0  0  0  0  0  0  0  0  0
   39.9220   29.8260   27.0130 C   0  0  0  0  0  0  0  0  0  0  0  0
   40.5580   30.0110   26.1610 H   0  0  0  0  0  0  0  0  0  0  0  0
   38.7070   30.4720   27.0920 C   0  0  0  0  0  0  0  0  0  0  0  0
   38.3930   31.1520   26.3130 H   0  0  0  0  0  0  0  0  0  0  0  0
   37.9000   30.2270   28.1850 C   0  0  0  0  0  0  0  0  0  0  0  0
   36.9440   30.7730   28.1880 H   0  0  0  0  0  0  0  0  0  0  0  0
   38.2110   29.3770   29.2270 C   0  0  0  0  0  0  0  0  0  0  0  0
   37.3020   29.2240   30.2720 N   0  0  0  0  0  0  0  0  0  0  0  0
   36.4090   29.7600   30.2350 H   0  0  0  0  0  0  0  0  0  0  0  0
   38.1790   25.6740   37.1490 C   0  0  0  0  0  0  0  0  0  0  0  0
   38.2900   24.2750   37.0270 C   0  0  0  0  0  0  0  0  0  0  0  0
   38.2460   23.7110   35.7440 C   0  0  0  0  0  0  0  0  0  0  0  0
   38.0970   24.5630   34.6810 N   0  0  0  0  0  0  0  0  0  0  0  0
   37.9950   25.8850   34.8340 C   0  0  0  0  0  0  0  0  0  0  0  0
   38.0330   26.4580   36.0420 N   0  0  0  0  0  0  0  0  0  0  0  0
   38.2060   26.1590   38.0980 H   0  0  0  0  0  0  0  0  0  0  0  0
   38.3320   22.6350   35.6600 H   0  0  0  0  0  0  0  0  0  0  0  0
   38.4480   23.4650   38.2740 C   0  0  0  0  0  0  0  0  0  0  0  0
   39.5060   22.5630   38.1470 F   0  0  0  0  0  0  0  0  0  0  0  0
   38.7590   24.3260   39.3030 F   0  0  0  0  0  0  0  0  0  0  0  0
   37.3210   22.7620   38.6020 F   0  0  0  0  0  0  0  0  0  0  0  0
  1 27  1  0  0  0  0
  2  1  1  0  0  0  0
  2  3  1  0  0  0  0
  4  2  2  0  0  0  0
  5  4  1  0  0  0  0
  6  7  2  0  0  0  0
  6  4  1  0  0  0  0
  7  8  1  0  0  0  0
  8  9  1  0  0  0  0
  8  1  2  0  0  0  0
 10  7  1  0  0  0  0
 11 20  1  0  0  0  0
 11 10  1  0  0  0  0
 12 11  2  0  0  0  0
 13 12  1  0  0  0  0
 14 16  2  0  0  0  0
 14 12  1  0  0  0  0
 15 14  1  0  0  0  0
 16 18  1  0  0  0  0
 17 16  1  0  0  0  0
 18 19  1  0  0  0  0
 18 20  2  0  0  0  0
 20 21  1  0  0  0  0
 21  6  1  0  0  0  0
 22 21  1  0  0  0  0
 23 29  1  0  0  0  0
 24 23  1  0  0  0  0
 24 31  1  0  0  0  0
 25 24  2  0  0  0  0
 26 27  2  0  0  0  0
 26 25  1  0  0  0  0
 27 28  1  0  0  0  0
 28 23  2  0  0  0  0
 30 25  1  0  0  0  0
 31 34  1  0  0  0  0
 31 33  1  0  0  0  0
 32 31  1  0  0  0  0
M  END
>  <minimizedAffinity>
-5.6509161

$$$$

 OpenBabel03272500133D

 34 37  0  0  0  0  0  0  0  0999 V2000
   38.8340   24.2890   32.8250 C   0  0  0  0  0  0  0  0  0  0  0  0
   38.7110   25.5160   32.2050 C   0  0  0  0  0  0  0  0  0  0  0  0
   38.4940   26.3750   32.8090 H   0  0  0  0  0  0  0  0  0  0  0  0
   38.8700   25.5920   30.8380 C   0  0  0  0  0  0  0  0  0  0  0  0
   38.7540   26.6100   30.4340 H   0  0  0  0  0  0  0  0  0  0  0  0
   39.1500   24.5160   30.0210 C   0  0  0  0  0  0  0  0  0  0  0  0
   39.2700   23.3010   30.6490 C   0  0  0  0  0  0  0  0  0  0  0  0
   39.1130   23.2150   32.0070 C   0  0  0  0  0  0  0  0  0  0  0  0
   39.2140   22.2360   32.4790 H   0  0  0  0  0  0  0  0  0  0  0  0
   39.6280   21.8860   29.6570 S   0  0  0  0  0  0  0  0  0  0  0  0
   39.7470   22.4480   27.9690 C   0  0  0  0  0  0  0  0  0  0  0  0
   40.0210   21.4930   27.0360 C   0  0  0  0  0  0  0  0  0  0  0  0
   40.1600   20.4570   27.2880 H   0  0  0  0  0  0  0  0  0  0  0  0
   40.1270   21.8700   25.7150 C   0  0  0  0  0  0  0  0  0  0  0  0
   40.3410   21.1580   24.9340 H   0  0  0  0  0  0  0  0  0  0  0  0
   39.9520   23.1960   25.3820 C   0  0  0  0  0  0  0  0  0  0  0  0
   40.0280   23.5200   24.3530 H   0  0  0  0  0  0  0  0  0  0  0  0
   39.6760   24.0980   26.3890 C   0  0  0  0  0  0  0  0  0  0  0  0
   39.5470   25.1400   26.0560 H   0  0  0  0  0  0  0  0  0  0  0  0
   39.5590   23.7830   27.7280 C   0  0  0  0  0  0  0  0  0  0  0  0
   39.2780   24.7970   28.6410 N   0  0  0  0  0  0  0  0  0  0  0  0
   39.1630   25.7700   28.2840 H   0  0  0  0  0  0  0  0  0  0  0  0
   38.3140   25.1180   36.3550 C   0  0  0  0  0  0  0  0  0  0  0  0
   38.3810   23.8540   36.9720 C   0  0  0  0  0  0  0  0  0  0  0  0
   38.6030   22.7290   36.1660 C   0  0  0  0  0  0  0  0  0  0  0  0
   38.7440   22.9310   34.8170 N   0  0  0  0  0  0  0  0  0  0  0  0
   38.6750   24.1460   34.2670 C   0  0  0  0  0  0  0  0  0  0  0  0
   38.4650   25.2420   35.0040 N   0  0  0  0  0  0  0  0  0  0  0  0
   38.1480   26.0090   36.9160 H   0  0  0  0  0  0  0  0  0  0  0  0
   38.6530   21.7610   36.6480 H   0  0  0  0  0  0  0  0  0  0  0  0
   38.2100   23.7790   38.4560 C   0  0  0  0  0  0  0  0  0  0  0  0
   39.4270   23.4990   39.0800 F   0  0  0  0  0  0  0  0  0  0  0  0
   37.7910   25.0140   38.8980 F   0  0  0  0  0  0  0  0  0  0  0  0
   37.3010   22.8330   38.8430 F   0  0  0  0  0  0  0  0  0  0  0  0
  1 27  1  0  0  0  0
  2  3  1  0  0  0  0
  2  1  1  0  0  0  0
  4  2  2  0  0  0  0
  5  4  1  0  0  0  0
  6  7  2  0  0  0  0
  6  4  1  0  0  0  0
  7  8  1  0  0  0  0
  8  9  1  0  0  0  0
  8  1  2  0  0  0  0
 10  7  1  0  0  0  0
 11 10  1  0  0  0  0
 12 13  1  0  0  0  0
 12 11  2  0  0  0  0
 14 12  1  0  0  0  0
 15 14  1  0  0  0  0
 16 14  2  0  0  0  0
 16 18  1  0  0  0  0
 17 16  1  0  0  0  0
 18 20  2  0  0  0  0
 19 18  1  0  0  0  0
 20 11  1  0  0  0  0
 20 21  1  0  0  0  0
 21  6  1  0  0  0  0
 22 21  1  0  0  0  0
 23 29  1  0  0  0  0
 23 24  1  0  0  0  0
 24 31  1  0  0  0  0
 25 30  1  0  0  0  0
 25 24  2  0  0  0  0
 26 25  1  0  0  0  0
 27 26  2  0  0  0  0
 27 28  1  0  0  0  0
 28 23  2  0  0  0  0
 31 34  1  0  0  0  0
 31 33  1  0  0  0  0
 31 32  1  0  0  0  0
M  END
>  <minimizedAffinity>
-5.62977982

$$$$

 OpenBabel03272500133D

 34 37  0  0  0  0  0  0  0  0999 V2000
   37.6010   26.8360   33.9080 C   0  0  0  0  0  0  0  0  0  0  0  0
   37.9060   26.9890   32.5710 C   0  0  0  0  0  0  0  0  0  0  0  0
   38.6250   26.3270   32.1310 H   0  0  0  0  0  0  0  0  0  0  0  0
   37.2780   27.9850   31.8530 C   0  0  0  0  0  0  0  0  0  0  0  0
   37.5850   28.0300   30.7970 H   0  0  0  0  0  0  0  0  0  0  0  0
   36.3470   28.8580   32.3760 C   0  0  0  0  0  0  0  0  0  0  0  0
   36.0520   28.6960   33.7070 C   0  0  0  0  0  0  0  0  0  0  0  0
   36.6710   27.7100   34.4290 C   0  0  0  0  0  0  0  0  0  0  0  0
   36.4170   27.6050   35.4850 H   0  0  0  0  0  0  0  0  0  0  0  0
   34.8680   29.7840   34.4330 S   0  0  0  0  0  0  0  0  0  0  0  0
   34.3240   30.8960   33.1500 C   0  0  0  0  0  0  0  0  0  0  0  0
   33.3970   31.8260   33.5140 C   0  0  0  0  0  0  0  0  0  0  0  0
   33.0060   31.8980   34.5130 H   0  0  0  0  0  0  0  0  0  0  0  0
   32.9390   32.7110   32.5620 C   0  0  0  0  0  0  0  0  0  0  0  0
   32.2060   33.4690   32.7930 H   0  0  0  0  0  0  0  0  0  0  0  0
   33.4320   32.6270   31.2780 C   0  0  0  0  0  0  0  0  0  0  0  0
   33.0910   33.3100   30.5120 H   0  0  0  0  0  0  0  0  0  0  0  0
   34.3700   31.6560   30.9940 C   0  0  0  0  0  0  0  0  0  0  0  0
   34.7230   31.6420   29.9510 H   0  0  0  0  0  0  0  0  0  0  0  0
   34.8670   30.7420   31.9010 C   0  0  0  0  0  0  0  0  0  0  0  0
   35.8130   29.8120   31.4770 N   0  0  0  0  0  0  0  0  0  0  0  0
   36.1200   29.8340   30.4810 H   0  0  0  0  0  0  0  0  0  0  0  0
   38.2860   24.5360   36.6760 C   0  0  0  0  0  0  0  0  0  0  0  0
   39.4380   23.8620   36.2260 C   0  0  0  0  0  0  0  0  0  0  0  0
   39.9670   24.2050   34.9750 C   0  0  0  0  0  0  0  0  0  0  0  0
   39.3250   25.1840   34.2610 N   0  0  0  0  0  0  0  0  0  0  0  0
   38.2340   25.8030   34.7200 C   0  0  0  0  0  0  0  0  0  0  0  0
   37.7020   25.5020   35.9090 N   0  0  0  0  0  0  0  0  0  0  0  0
   37.8400   24.3180   37.6190 H   0  0  0  0  0  0  0  0  0  0  0  0
   40.8520   23.6820   34.6370 H   0  0  0  0  0  0  0  0  0  0  0  0
   40.0360   22.8130   37.1100 C   0  0  0  0  0  0  0  0  0  0  0  0
   41.3900   23.0700   37.3340 F   0  0  0  0  0  0  0  0  0  0  0  0
   39.3960   22.8690   38.3280 F   0  0  0  0  0  0  0  0  0  0  0  0
   39.9170   21.5500   36.5970 F   0  0  0  0  0  0  0  0  0  0  0  0
  1  8  1  0  0  0  0
  1 27  1  0  0  0  0
  2  1  2  0  0  0  0
  3  2  1  0  0  0  0
  4  6  2  0  0  0  0
  4  2  1  0  0  0  0
  5  4  1  0  0  0  0
  6  7  1  0  0  0  0
  7  8  2  0  0  0  0
  7 10  1  0  0  0  0
  8  9  1  0  0  0  0
 11 12  1  0  0  0  0
 11 10  1  0  0  0  0
 12 13  1  0  0  0  0
 14 15  1  0  0  0  0
 14 12  2  0  0  0  0
 16 14  1  0  0  0  0
 17 16  1  0  0  0  0
 18 16  2  0  0  0  0
 18 20  1  0  0  0  0
 19 18  1  0  0  0  0
 20 11  2  0  0  0  0
 21 20  1  0  0  0  0
 21  6  1  0  0  0  0
 22 21  1  0  0  0  0
 23 29  1  0  0  0  0
 24 23  1  0  0  0  0
 24 31  1  0  0  0  0
 25 24  2  0  0  0  0
 26 27  2  0  0  0  0
 26 25  1  0  0  0  0
 27 28  1  0  0  0  0
 28 23  2  0  0  0  0
 30 25  1  0  0  0  0
 31 32  1  0  0  0  0
 31 33  1  0  0  0  0
 34 31  1  0  0  0  0
M  END
>  <minimizedAffinity>
-5.59217262

$$$$

 OpenBabel03272500133D

 34 37  0  0  0  0  0  0  0  0999 V2000
   38.8670   24.7870   32.8430 C   0  0  0  0  0  0  0  0  0  0  0  0
   38.4310   23.8850   31.8940 C   0  0  0  0  0  0  0  0  0  0  0  0
   37.9580   22.9820   32.2260 H   0  0  0  0  0  0  0  0  0  0  0  0
   38.6210   24.1750   30.5600 C   0  0  0  0  0  0  0  0  0  0  0  0
   38.2410   23.3980   29.8790 H   0  0  0  0  0  0  0  0  0  0  0  0
   39.2230   25.3230   30.0860 C   0  0  0  0  0  0  0  0  0  0  0  0
   39.6530   26.2130   31.0390 C   0  0  0  0  0  0  0  0  0  0  0  0
   39.4700   25.9330   32.3680 C   0  0  0  0  0  0  0  0  0  0  0  0
   39.8210   26.6590   33.1030 H   0  0  0  0  0  0  0  0  0  0  0  0
   40.4310   27.6990   30.4950 S   0  0  0  0  0  0  0  0  0  0  0  0
   40.4610   27.6530   28.7130 C   0  0  0  0  0  0  0  0  0  0  0  0
   41.0290   28.7240   28.0930 C   0  0  0  0  0  0  0  0  0  0  0  0
   41.4410   29.5580   28.6330 H   0  0  0  0  0  0  0  0  0  0  0  0
   41.0780   28.7420   26.7160 C   0  0  0  0  0  0  0  0  0  0  0  0
   41.5170   29.5640   26.1710 H   0  0  0  0  0  0  0  0  0  0  0  0
   40.5520   27.6800   26.0130 C   0  0  0  0  0  0  0  0  0  0  0  0
   40.5780   27.6670   24.9330 H   0  0  0  0  0  0  0  0  0  0  0  0
   39.9950   26.6330   26.7200 C   0  0  0  0  0  0  0  0  0  0  0  0
   39.5940   25.8160   26.1010 H   0  0  0  0  0  0  0  0  0  0  0  0
   39.9160   26.5570   28.0960 C   0  0  0  0  0  0  0  0  0  0  0  0
   39.3240   25.4390   28.6800 N   0  0  0  0  0  0  0  0  0  0  0  0
   38.9570   24.6880   28.0570 H   0  0  0  0  0  0  0  0  0  0  0  0
   38.2100   25.3300   36.4050 C   0  0  0  0  0  0  0  0  0  0  0  0
   38.3830   24.0390   36.9410 C   0  0  0  0  0  0  0  0  0  0  0  0
   38.7230   22.9950   36.0700 C   0  0  0  0  0  0  0  0  0  0  0  0
   38.8690   23.2980   34.7420 N   0  0  0  0  0  0  0  0  0  0  0  0
   38.6960   24.5350   34.2690 C   0  0  0  0  0  0  0  0  0  0  0  0
   38.3720   25.5550   35.0690 N   0  0  0  0  0  0  0  0  0  0  0  0
   37.9510   26.1630   37.0190 H   0  0  0  0  0  0  0  0  0  0  0  0
   38.8550   22.0060   36.4910 H   0  0  0  0  0  0  0  0  0  0  0  0
   38.1930   23.8510   38.4130 C   0  0  0  0  0  0  0  0  0  0  0  0
   37.2710   22.8340   38.6660 F   0  0  0  0  0  0  0  0  0  0  0  0
   39.3990   23.4600   38.9500 F   0  0  0  0  0  0  0  0  0  0  0  0
   37.7660   24.9860   39.0460 F   0  0  0  0  0  0  0  0  0  0  0  0
  1 27  1  0  0  0  0
  2  3  1  0  0  0  0
  2  1  2  0  0  0  0
  4  2  1  0  0  0  0
  5  4  1  0  0  0  0
  6  4  2  0  0  0  0
  6  7  1  0  0  0  0
  7  8  2  0  0  0  0
  8  1  1  0  0  0  0
  8  9  1  0  0  0  0
 10  7  1  0  0  0  0
 11 10  1  0  0  0  0
 12 13  1  0  0  0  0
 12 11  2  0  0  0  0
 14 12  1  0  0  0  0
 15 14  1  0  0  0  0
 16 14  2  0  0  0  0
 16 18  1  0  0  0  0
 17 16  1  0  0  0  0
 18 20  2  0  0  0  0
 19 18  1  0  0  0  0
 20 21  1  0  0  0  0
 20 11  1  0  0  0  0
 21  6  1  0  0  0  0
 22 21  1  0  0  0  0
 23 24  1  0  0  0  0
 23 29  1  0  0  0  0
 24 31  1  0  0  0  0
 25 30  1  0  0  0  0
 25 24  2  0  0  0  0
 26 25  1  0  0  0  0
 27 26  2  0  0  0  0
 27 28  1  0  0  0  0
 28 23  2  0  0  0  0
 31 32  1  0  0  0  0
 31 33  1  0  0  0  0
 31 34  1  0  0  0  0
M  END
>  <minimizedAffinity>
-5.53275394

$$$$

 OpenBabel03272500133D

 34 37  0  0  0  0  0  0  0  0999 V2000
   36.0830   28.0260   32.0470 C   0  0  0  0  0  0  0  0  0  0  0  0
   36.2650   28.8700   30.9710 C   0  0  0  0  0  0  0  0  0  0  0  0
   36.4200   28.4380   30.0020 H   0  0  0  0  0  0  0  0  0  0  0  0
   36.2410   30.2330   31.1800 C   0  0  0  0  0  0  0  0  0  0  0  0
   36.3940   30.8240   30.2640 H   0  0  0  0  0  0  0  0  0  0  0  0
   36.0430   30.8330   32.4060 C   0  0  0  0  0  0  0  0  0  0  0  0
   35.8630   29.9830   33.4700 C   0  0  0  0  0  0  0  0  0  0  0  0
   35.8870   28.6270   33.2720 C   0  0  0  0  0  0  0  0  0  0  0  0
   35.7410   27.9760   34.1360 H   0  0  0  0  0  0  0  0  0  0  0  0
   35.6070   30.6920   35.0640 S   0  0  0  0  0  0  0  0  0  0  0  0
   35.6530   32.4630   34.8630 C   0  0  0  0  0  0  0  0  0  0  0  0
   35.4730   33.2010   35.9940 C   0  0  0  0  0  0  0  0  0  0  0  0
   35.3110   32.7560   36.9590 H   0  0  0  0  0  0  0  0  0  0  0  0
   35.4970   34.5760   35.8970 C   0  0  0  0  0  0  0  0  0  0  0  0
   35.3610   35.2110   36.7590 H   0  0  0  0  0  0  0  0  0  0  0  0
   35.7020   35.1570   34.6650 C   0  0  0  0  0  0  0  0  0  0  0  0
   35.7270   36.2320   34.5600 H   0  0  0  0  0  0  0  0  0  0  0  0
   35.8770   34.3350   33.5690 C   0  0  0  0  0  0  0  0  0  0  0  0
   36.0370   34.8610   32.6150 H   0  0  0  0  0  0  0  0  0  0  0  0
   35.8630   32.9550   33.6010 C   0  0  0  0  0  0  0  0  0  0  0  0
   36.0510   32.2480   32.4160 N   0  0  0  0  0  0  0  0  0  0  0  0
   36.1990   32.7850   31.5350 H   0  0  0  0  0  0  0  0  0  0  0  0
   37.0640   24.5130   32.3840 C   0  0  0  0  0  0  0  0  0  0  0  0
   36.1130   23.8580   31.5770 C   0  0  0  0  0  0  0  0  0  0  0  0
   35.1450   24.6330   30.9250 C   0  0  0  0  0  0  0  0  0  0  0  0
   35.1830   25.9900   31.1150 N   0  0  0  0  0  0  0  0  0  0  0  0
   36.1000   26.5760   31.8890 C   0  0  0  0  0  0  0  0  0  0  0  0
   37.0390   25.8700   32.5260 N   0  0  0  0  0  0  0  0  0  0  0  0
   37.8250   23.9760   32.9040 H   0  0  0  0  0  0  0  0  0  0  0  0
   34.4190   24.1220   30.3060 H   0  0  0  0  0  0  0  0  0  0  0  0
   36.1890   22.3690   31.4580 C   0  0  0  0  0  0  0  0  0  0  0  0
   35.9680   21.7630   32.6960 F   0  0  0  0  0  0  0  0  0  0  0  0
   35.1860   21.9590   30.6090 F   0  0  0  0  0  0  0  0  0  0  0  0
   37.3920   21.9320   30.9750 F   0  0  0  0  0  0  0  0  0  0  0  0
  1  8  1  0  0  0  0
  2  4  1  0  0  0  0
  2  1  2  0  0  0  0
  3  2  1  0  0  0  0
  4  6  2  0  0  0  0
  5  4  1  0  0  0  0
  6 21  1  0  0  0  0
  6  7  1  0  0  0  0
  7 10  1  0  0  0  0
  8  7  2  0  0  0  0
  8  9  1  0  0  0  0
 11 10  1  0  0  0  0
 11 12  1  0  0  0  0
 12 13  1  0  0  0  0
 14 12  2  0  0  0  0
 14 15  1  0  0  0  0
 16 14  1  0  0  0  0
 17 16  1  0  0  0  0
 18 20  1  0  0  0  0
 18 16  2  0  0  0  0
 19 18  1  0  0  0  0
 20 11  2  0  0  0  0
 21 20  1  0  0  0  0
 22 21  1  0  0  0  0
 23 28  1  0  0  0  0
 23 29  1  0  0  0  0
 24 23  2  0  0  0  0
 25 26  2  0  0  0  0
 25 24  1  0  0  0  0
 26 27  1  0  0  0  0
 27  1  1  0  0  0  0
 27 28  2  0  0  0  0
 30 25  1  0  0  0  0
 31 24  1  0  0  0  0
 31 32  1  0  0  0  0
 33 31  1  0  0  0  0
 34 31  1  0  0  0  0
M  END
>  <minimizedAffinity>
-5.51126766

$$$$

 OpenBabel03272500133D

 34 37  0  0  0  0  0  0  0  0999 V2000
   37.9300   26.2790   34.7380 C   0  0  0  0  0  0  0  0  0  0  0  0
   37.3490   25.7530   35.8740 C   0  0  0  0  0  0  0  0  0  0  0  0
   36.4130   26.1590   36.2040 H   0  0  0  0  0  0  0  0  0  0  0  0
   37.9900   24.7300   36.5390 C   0  0  0  0  0  0  0  0  0  0  0  0
   37.4510   24.3750   37.4310 H   0  0  0  0  0  0  0  0  0  0  0  0
   39.1930   24.1760   36.1510 C   0  0  0  0  0  0  0  0  0  0  0  0
   39.7620   24.7080   35.0200 C   0  0  0  0  0  0  0  0  0  0  0  0
   39.1330   25.7260   34.3520 C   0  0  0  0  0  0  0  0  0  0  0  0
   39.6090   26.1290   33.4570 H   0  0  0  0  0  0  0  0  0  0  0  0
   41.3010   24.0420   34.4740 S   0  0  0  0  0  0  0  0  0  0  0  0
   41.7510   22.7540   35.6230 C   0  0  0  0  0  0  0  0  0  0  0  0
   42.9240   22.1080   35.3720 C   0  0  0  0  0  0  0  0  0  0  0  0
   43.5530   22.3490   34.5350 H   0  0  0  0  0  0  0  0  0  0  0  0
   43.3210   21.1020   36.2270 C   0  0  0  0  0  0  0  0  0  0  0  0
   44.2400   20.5570   36.0790 H   0  0  0  0  0  0  0  0  0  0  0  0
   42.5210   20.7840   37.3030 C   0  0  0  0  0  0  0  0  0  0  0  0
   42.8080   20.0010   37.9900 H   0  0  0  0  0  0  0  0  0  0  0  0
   41.3480   21.4890   37.4840 C   0  0  0  0  0  0  0  0  0  0  0  0
   40.7550   21.1870   38.3620 H   0  0  0  0  0  0  0  0  0  0  0  0
   40.8970   22.5040   36.6650 C   0  0  0  0  0  0  0  0  0  0  0  0
   39.6900   23.1320   36.9660 N   0  0  0  0  0  0  0  0  0  0  0  0
   39.1600   22.8150   37.8060 H   0  0  0  0  0  0  0  0  0  0  0  0
   37.0160   28.5240   31.9920 C   0  0  0  0  0  0  0  0  0  0  0  0
   36.1100   29.4040   32.6150 C   0  0  0  0  0  0  0  0  0  0  0  0
   35.8240   29.2160   33.9730 C   0  0  0  0  0  0  0  0  0  0  0  0
   36.4470   28.1790   34.6160 N   0  0  0  0  0  0  0  0  0  0  0  0
   37.3010   27.3630   33.9930 C   0  0  0  0  0  0  0  0  0  0  0  0
   37.5990   27.5120   32.6980 N   0  0  0  0  0  0  0  0  0  0  0  0
   37.2720   28.6180   30.9610 H   0  0  0  0  0  0  0  0  0  0  0  0
   35.1270   29.8980   34.4440 H   0  0  0  0  0  0  0  0  0  0  0  0
   35.5020   30.4950   31.7910 C   0  0  0  0  0  0  0  0  0  0  0  0
   34.2300   30.8220   32.2660 F   0  0  0  0  0  0  0  0  0  0  0  0
   36.2930   31.6150   31.9170 F   0  0  0  0  0  0  0  0  0  0  0  0
   35.3950   30.1690   30.4660 F   0  0  0  0  0  0  0  0  0  0  0  0
  1  2  1  0  0  0  0
  2  3  1  0  0  0  0
  2  4  2  0  0  0  0
  4  5  1  0  0  0  0
  6  4  1  0  0  0  0
  6 21  1  0  0  0  0
  7  6  2  0  0  0  0
  8  1  2  0  0  0  0
  8  7  1  0  0  0  0
  9  8  1  0  0  0  0
 10  7  1  0  0  0  0
 10 11  1  0  0  0  0
 11 20  1  0  0  0  0
 12 11  2  0  0  0  0
 12 14  1  0  0  0  0
 13 12  1  0  0  0  0
 14 16  2  0  0  0  0
 15 14  1  0  0  0  0
 16 18  1  0  0  0  0
 16 17  1  0  0  0  0
 18 19  1  0  0  0  0
 20 21  1  0  0  0  0
 20 18  2  0  0  0  0
 21 22  1  0  0  0  0
 23 24  2  0  0  0  0
 23 28  1  0  0  0  0
 24 25  1  0  0  0  0
 25 30  1  0  0  0  0
 25 26  2  0  0  0  0
 27 26  1  0  0  0  0
 27  1  1  0  0  0  0
 28 27  2  0  0  0  0
 29 23  1  0  0  0  0
 31 33  1  0  0  0  0
 31 32  1  0  0  0  0
 31 24  1  0  0  0  0
 34 31  1  0  0  0  0
M  END
>  <minimizedAffinity>
-5.4539628

$$$$

 OpenBabel03272500133D

 34 37  0  0  0  0  0  0  0  0999 V2000
   37.5470   27.4600   32.6890 C   0  0  0  0  0  0  0  0  0  0  0  0
   36.4350   28.2770   32.6660 C   0  0  0  0  0  0  0  0  0  0  0  0
   35.7310   28.2050   33.4720 H   0  0  0  0  0  0  0  0  0  0  0  0
   36.2700   29.1510   31.6130 C   0  0  0  0  0  0  0  0  0  0  0  0
   35.3550   29.7600   31.6820 H   0  0  0  0  0  0  0  0  0  0  0  0
   37.1480   29.2780   30.5560 C   0  0  0  0  0  0  0  0  0  0  0  0
   38.2500   28.4600   30.5890 C   0  0  0  0  0  0  0  0  0  0  0  0
   38.4230   27.5880   31.6320 C   0  0  0  0  0  0  0  0  0  0  0  0
   39.3090   26.9500   31.6320 H   0  0  0  0  0  0  0  0  0  0  0  0
   39.4100   28.5760   29.2650 S   0  0  0  0  0  0  0  0  0  0  0  0
   38.7990   29.8200   28.1430 C   0  0  0  0  0  0  0  0  0  0  0  0
   39.5620   30.0610   27.0400 C   0  0  0  0  0  0  0  0  0  0  0  0
   40.4820   29.5400   26.8440 H   0  0  0  0  0  0  0  0  0  0  0  0
   39.1390   31.0140   26.1390 C   0  0  0  0  0  0  0  0  0  0  0  0
   39.7020   31.2460   25.2480 H   0  0  0  0  0  0  0  0  0  0  0  0
   37.9620   31.6880   26.3810 C   0  0  0  0  0  0  0  0  0  0  0  0
   37.6060   32.4390   25.6900 H   0  0  0  0  0  0  0  0  0  0  0  0
   37.2490   31.3820   27.5210 C   0  0  0  0  0  0  0  0  0  0  0  0
   36.3190   31.9550   27.6560 H   0  0  0  0  0  0  0  0  0  0  0  0
   37.6200   30.4400   28.4610 C   0  0  0  0  0  0  0  0  0  0  0  0
   36.8030   30.2330   29.5710 N   0  0  0  0  0  0  0  0  0  0  0  0
   35.9310   30.7970   29.6590 H   0  0  0  0  0  0  0  0  0  0  0  0
   37.9780   26.0900   36.0590 C   0  0  0  0  0  0  0  0  0  0  0  0
   38.2070   24.7250   35.7990 C   0  0  0  0  0  0  0  0  0  0  0  0
   38.2110   24.2900   34.4670 C   0  0  0  0  0  0  0  0  0  0  0  0
   37.9890   25.2280   33.4920 N   0  0  0  0  0  0  0  0  0  0  0  0
   37.7750   26.5150   33.7760 C   0  0  0  0  0  0  0  0  0  0  0  0
   37.7650   26.9660   35.0340 N   0  0  0  0  0  0  0  0  0  0  0  0
   37.9650   26.4780   37.0520 H   0  0  0  0  0  0  0  0  0  0  0  0
   38.3880   23.2390   34.2770 H   0  0  0  0  0  0  0  0  0  0  0  0
   38.4350   23.8100   36.9610 C   0  0  0  0  0  0  0  0  0  0  0  0
   37.5380   22.7420   36.9320 F   0  0  0  0  0  0  0  0  0  0  0  0
   39.7050   23.2890   36.8490 F   0  0  0  0  0  0  0  0  0  0  0  0
   38.3140   24.4410   38.1690 F   0  0  0  0  0  0  0  0  0  0  0  0
  1 27  1  0  0  0  0
  2  1  1  0  0  0  0
  2  3  1  0  0  0  0
  4  5  1  0  0  0  0
  4  2  2  0  0  0  0
  6  7  2  0  0  0  0
  6  4  1  0  0  0  0
  7  8  1  0  0  0  0
  8  1  2  0  0  0  0
  9  8  1  0  0  0  0
 10  7  1  0  0  0  0
 11 20  1  0  0  0  0
 11 10  1  0  0  0  0
 12 11  2  0  0  0  0
 13 12  1  0  0  0  0
 14 16  2  0  0  0  0
 14 12  1  0  0  0  0
 15 14  1  0  0  0  0
 16 18  1  0  0  0  0
 17 16  1  0  0  0  0
 18 19  1  0  0  0  0
 18 20  2  0  0  0  0
 20 21  1  0  0  0  0
 21 22  1  0  0  0  0
 21  6  1  0  0  0  0
 23 29  1  0  0  0  0
 24 23  1  0  0  0  0
 24 31  1  0  0  0  0
 25 24  2  0  0  0  0
 26 27  2  0  0  0  0
 26 25  1  0  0  0  0
 27 28  1  0  0  0  0
 28 23  2  0  0  0  0
 30 25  1  0  0  0  0
 31 34  1  0  0  0  0
 32 31  1  0  0  0  0
 33 31  1  0  0  0  0
M  END
>  <minimizedAffinity>
-5.45350981

$$$$

 OpenBabel03272500133D

 34 37  0  0  0  0  0  0  0  0999 V2000
   38.3990   27.5420   31.8270 C   0  0  0  0  0  0  0  0  0  0  0  0
   37.2620   27.8430   32.5490 C   0  0  0  0  0  0  0  0  0  0  0  0
   36.5800   28.5670   32.1500 H   0  0  0  0  0  0  0  0  0  0  0  0
   37.0470   27.2060   33.7520 C   0  0  0  0  0  0  0  0  0  0  0  0
   36.1160   27.5100   34.2550 H   0  0  0  0  0  0  0  0  0  0  0  0
   37.8960   26.2680   34.3040 C   0  0  0  0  0  0  0  0  0  0  0  0
   39.0240   25.9770   33.5780 C   0  0  0  0  0  0  0  0  0  0  0  0
   39.2470   26.6060   32.3810 C   0  0  0  0  0  0  0  0  0  0  0  0
   40.1520   26.3540   31.8250 H   0  0  0  0  0  0  0  0  0  0  0  0
   40.1480   24.7860   34.2320 S   0  0  0  0  0  0  0  0  0  0  0  0
   39.4750   24.2300   35.7870 C   0  0  0  0  0  0  0  0  0  0  0  0
   40.2050   23.2960   36.4590 C   0  0  0  0  0  0  0  0  0  0  0  0
   41.1350   22.9070   36.0860 H   0  0  0  0  0  0  0  0  0  0  0  0
   39.7310   22.8290   37.6660 C   0  0  0  0  0  0  0  0  0  0  0  0
   40.2670   22.0910   38.2420 H   0  0  0  0  0  0  0  0  0  0  0  0
   38.5390   23.3210   38.1530 C   0  0  0  0  0  0  0  0  0  0  0  0
   38.1450   22.9740   39.0970 H   0  0  0  0  0  0  0  0  0  0  0  0
   37.8630   24.2660   37.4090 C   0  0  0  0  0  0  0  0  0  0  0  0
   36.9190   24.6180   37.8530 H   0  0  0  0  0  0  0  0  0  0  0  0
   38.2840   24.7720   36.1950 C   0  0  0  0  0  0  0  0  0  0  0  0
   37.5000   25.7260   35.5500 N   0  0  0  0  0  0  0  0  0  0  0  0
   36.6130   26.0310   36.0050 H   0  0  0  0  0  0  0  0  0  0  0  0
   40.2280   28.8770   28.9480 C   0  0  0  0  0  0  0  0  0  0  0  0
   39.1900   29.3950   28.1490 C   0  0  0  0  0  0  0  0  0  0  0  0
   37.8720   29.2780   28.6090 C   0  0  0  0  0  0  0  0  0  0  0  0
   37.6730   28.6630   29.8180 N   0  0  0  0  0  0  0  0  0  0  0  0
   38.6820   28.1840   30.5490 C   0  0  0  0  0  0  0  0  0  0  0  0
   39.9520   28.2780   30.1430 N   0  0  0  0  0  0  0  0  0  0  0  0
   41.2500   28.9380   28.6500 H   0  0  0  0  0  0  0  0  0  0  0  0
   37.0810   29.6790   27.9890 H   0  0  0  0  0  0  0  0  0  0  0  0
   39.5510   30.0420   26.8490 C   0  0  0  0  0  0  0  0  0  0  0  0
   39.9180   29.0820   25.9050 F   0  0  0  0  0  0  0  0  0  0  0  0
   38.4330   30.6890   26.3710 F   0  0  0  0  0  0  0  0  0  0  0  0
   40.5750   30.9430   26.9670 F   0  0  0  0  0  0  0  0  0  0  0  0
  1  8  2  0  0  0  0
  1  2  1  0  0  0  0
  2  4  2  0  0  0  0
  3  2  1  0  0  0  0
  4  5  1  0  0  0  0
  4  6  1  0  0  0  0
  6 21  1  0  0  0  0
  7 10  1  0  0  0  0
  7  6  2  0  0  0  0
  8  7  1  0  0  0  0
  9  8  1  0  0  0  0
 10 11  1  0  0  0  0
 11 20  2  0  0  0  0
 11 12  1  0  0  0  0
 12 14  2  0  0  0  0
 13 12  1  0  0  0  0
 14 16  1  0  0  0  0
 14 15  1  0  0  0  0
 16 17  1  0  0  0  0
 18 19  1  0  0  0  0
 18 16  2  0  0  0  0
 20 18  1  0  0  0  0
 21 22  1  0  0  0  0
 21 20  1  0  0  0  0
 23 28  1  0  0  0  0
 24 25  1  0  0  0  0
 24 23  2  0  0  0  0
 25 26  2  0  0  0  0
 26 27  1  0  0  0  0
 27  1  1  0  0  0  0
 28 27  2  0  0  0  0
 29 23  1  0  0  0  0
 30 25  1  0  0  0  0
 31 34  1  0  0  0  0
 31 24  1  0  0  0  0
 32 31  1  0  0  0  0
 33 31  1  0  0  0  0
M  END
>  <minimizedAffinity>
-5.44592142

$$$$
