
 OpenBabel03272507183D

 43 47  0  0  1  0  0  0  0  0999 V2000
   36.8400   30.7430   45.8370 C   0  0  0  0  0  0  0  0  0  0  0  0
   35.6430   30.0590   45.7180 C   0  0  0  0  0  0  0  0  0  0  0  0
   35.0290   29.8370   46.5850 H   0  0  0  0  0  0  0  0  0  0  0  0
   35.2340   29.6570   44.4590 C   0  0  0  0  0  0  0  0  0  0  0  0
   34.3070   29.1180   44.2980 H   0  0  0  0  0  0  0  0  0  0  0  0
   36.0060   29.9320   43.3400 C   0  0  0  0  0  0  0  0  0  0  0  0
   37.2040   30.6250   43.5250 C   0  0  0  0  0  0  0  0  0  0  0  0
   37.6590   31.0500   44.7650 C   0  0  0  0  0  0  0  0  0  0  0  0
   38.5940   31.5850   44.8680 H   0  0  0  0  0  0  0  0  0  0  0  0
   38.2480   31.0130   42.1290 S   0  0  0  0  0  0  0  0  0  0  0  0
   37.4390   30.3610   40.6770 C   0  0  0  0  0  0  0  0  0  0  0  0
   38.0960   30.5610   39.4790 C   0  0  0  0  0  0  0  0  0  0  0  0
   39.0410   31.0810   39.4250 H   0  0  0  0  0  0  0  0  0  0  0  0
   37.5250   30.0820   38.3200 C   0  0  0  0  0  0  0  0  0  0  0  0
   38.0430   30.2440   37.4090 H   0  0  0  0  0  0  0  0  0  0  0  0
   36.3150   29.4250   38.4440 C   0  0  0  0  0  0  0  0  0  0  0  0
   35.9080   29.0660   37.4880 H   0  0  0  0  0  0  0  0  0  0  0  0
   35.6670   29.2300   39.6460 C   0  0  0  0  0  0  0  0  0  0  0  0
   34.7200   28.7060   39.6630 H   0  0  0  0  0  0  0  0  0  0  0  0
   36.2330   29.7110   40.8330 C   0  0  0  0  0  0  0  0  0  0  0  0
   35.5830   29.5170   42.0520 N   0  0  0  0  0  0  0  0  0  0  0  0
   34.6620   29.0000   42.0210 H   0  0  0  0  0  0  0  0  0  0  0  0
   37.3200   31.2000   49.4850 C   0  0  0  0  0  0  0  0  0  0  0  0
   38.3390   32.1310   49.5890 C   0  0  0  0  0  0  0  0  0  0  0  0
   38.8390   32.5820   48.3420 C   0  0  0  0  0  0  0  0  0  0  0  0
   38.3210   32.1030   47.1600 N   0  0  0  0  0  0  0  0  0  0  0  0
   37.3270   31.1950   47.1410 C   0  0  0  0  0  0  0  0  0  0  0  0
   36.8140   30.7310   48.3170 N   0  0  0  0  0  0  0  0  0  0  0  0
   38.7220   32.4850   50.5120 H   0  0  0  0  0  0  0  0  0  0  0  0
   39.6240   33.3000   48.3220 H   0  0  0  0  0  0  0  0  0  0  0  0
   36.7430   30.7370   50.7850 C   0  0  1  0  0  0  0  0  0  0  0  0
   36.0180   29.4710   50.9050 C   0  0  2  0  0  0  0  0  0  0  0  0
   37.4560   29.4810   51.3220 C   0  0  0  0  0  0  0  0  0  0  0  0
   36.7180   31.5540   51.5600 H   0  0  0  0  0  0  0  0  0  0  0  0
   35.1870   29.5370   51.6710 H   0  0  0  0  0  0  0  0  0  0  0  0
   37.6380   29.4160   52.4090 H   0  0  0  0  0  0  0  0  0  0  0  0
   38.1660   28.9510   50.6630 H   0  0  0  0  0  0  0  0  0  0  0  0
   35.6610   28.8360   49.7230 O   0  0  0  0  0  0  0  0  0  0  0  0
   34.4460   28.4110   49.2950 C   0  0  0  0  0  0  0  0  0  0  0  0
   34.3150   27.4450   48.5150 O   0  0  0  0  0  0  0  0  0  0  0  0
   33.4710   29.2260   49.8700 N   0  0  0  0  0  0  0  0  0  0  0  0
   32.7540   28.9510   50.5840 H   0  0  0  0  0  0  0  0  0  0  0  0
   33.2370   30.2520   49.7310 H   0  0  0  0  0  0  0  0  0  0  0  0
  1 27  1  0  0  0  0
  2  1  1  0  0  0  0
  2  3  1  0  0  0  0
  4  2  2  0  0  0  0
  5  4  1  0  0  0  0
  6  7  2  0  0  0  0
  6  4  1  0  0  0  0
  7  8  1  0  0  0  0
  8  9  1  0  0  0  0
  8  1  2  0  0  0  0
 10  7  1  0  0  0  0
 11 20  1  0  0  0  0
 11 10  1  0  0  0  0
 12 11  2  0  0  0  0
 13 12  1  0  0  0  0
 14 16  2  0  0  0  0
 14 12  1  0  0  0  0
 15 14  1  0  0  0  0
 16 18  1  0  0  0  0
 17 16  1  0  0  0  0
 18 19  1  0  0  0  0
 18 20  2  0  0  0  0
 20 21  1  0  0  0  0
 21  6  1  0  0  0  0
 22 21  1  0  0  0  0
 23 24  1  0  0  0  0
 23 31  1  0  0  0  0
 24 29  1  0  0  0  0
 25 24  2  0  0  0  0
 26 25  1  0  0  0  0
 27 26  2  0  0  0  0
 27 28  1  0  0  0  0
 28 23  2  0  0  0  0
 30 25  1  0  0  0  0
 31 32  1  0  0  0  0
 31 33  1  0  0  0  0
 31 34  1  1  0  0  0
 32 33  1  0  0  0  0
 32 35  1  1  0  0  0
 33 36  1  0  0  0  0
 37 33  1  0  0  0  0
 38 32  1  0  0  0  0
 39 38  1  0  0  0  0
 39 41  1  0  0  0  0
 40 39  2  0  0  0  0
 41 42  1  0  0  0  0
 43 41  1  0  0  0  0
M  END
>  <minimizedAffinity>
-5.80315733

>  <minimizedRMSD>
0.304209501

$$$$
