
 OpenBabel03272507183D

 43 47  0  0  1  0  0  0  0  0999 V2000
   37.2480   30.7190   45.8630 C   0  0  0  0  0  0  0  0  0  0  0  0
   35.9810   30.2480   45.5700 C   0  0  0  0  0  0  0  0  0  0  0  0
   35.1860   30.2650   46.3090 H   0  0  0  0  0  0  0  0  0  0  0  0
   35.7380   29.7470   44.3040 C   0  0  0  0  0  0  0  0  0  0  0  0
   34.7660   29.3630   44.0100 H   0  0  0  0  0  0  0  0  0  0  0  0
   36.7410   29.7170   43.3470 C   0  0  0  0  0  0  0  0  0  0  0  0
   38.0000   30.2060   43.7030 C   0  0  0  0  0  0  0  0  0  0  0  0
   38.2950   30.7180   44.9580 C   0  0  0  0  0  0  0  0  0  0  0  0
   39.2840   31.0890   45.1960 H   0  0  0  0  0  0  0  0  0  0  0  0
   39.3390   30.1990   42.5220 S   0  0  0  0  0  0  0  0  0  0  0  0
   38.6970   29.4980   41.0090 C   0  0  0  0  0  0  0  0  0  0  0  0
   39.5880   29.4030   39.9610 C   0  0  0  0  0  0  0  0  0  0  0  0
   40.6130   29.7340   40.0510 H   0  0  0  0  0  0  0  0  0  0  0  0
   39.1560   28.8710   38.7660 C   0  0  0  0  0  0  0  0  0  0  0  0
   39.8550   28.8060   37.9710 H   0  0  0  0  0  0  0  0  0  0  0  0
   37.8360   28.4630   38.7040 C   0  0  0  0  0  0  0  0  0  0  0  0
   37.5490   28.0490   37.7290 H   0  0  0  0  0  0  0  0  0  0  0  0
   36.9530   28.5620   39.7590 C   0  0  0  0  0  0  0  0  0  0  0  0
   35.9330   28.2210   39.6340 H   0  0  0  0  0  0  0  0  0  0  0  0
   37.3760   29.1010   40.9800 C   0  0  0  0  0  0  0  0  0  0  0  0
   36.4870   29.2030   42.0500 N   0  0  0  0  0  0  0  0  0  0  0  0
   35.5020   28.8580   41.8840 H   0  0  0  0  0  0  0  0  0  0  0  0
   37.3870   31.3090   49.5200 C   0  0  0  0  0  0  0  0  0  0  0  0
   38.2530   32.3780   49.6680 C   0  0  0  0  0  0  0  0  0  0  0  0
   38.7750   32.8730   48.4470 C   0  0  0  0  0  0  0  0  0  0  0  0
   38.4200   32.3020   47.2460 N   0  0  0  0  0  0  0  0  0  0  0  0
   37.5680   31.2600   47.1840 C   0  0  0  0  0  0  0  0  0  0  0  0
   37.0400   30.7510   48.3340 N   0  0  0  0  0  0  0  0  0  0  0  0
   38.5130   32.8010   50.6060 H   0  0  0  0  0  0  0  0  0  0  0  0
   39.4510   33.6950   48.4620 H   0  0  0  0  0  0  0  0  0  0  0  0
   36.7860   30.7930   50.7890 C   0  0  1  0  0  0  0  0  0  0  0  0
   36.0460   29.5310   50.8390 C   0  0  2  0  0  0  0  0  0  0  0  0
   37.4780   29.5050   51.2770 C   0  0  0  0  0  0  0  0  0  0  0  0
   36.7590   31.5730   51.6010 H   0  0  0  0  0  0  0  0  0  0  0  0
   35.2050   29.5710   51.5970 H   0  0  0  0  0  0  0  0  0  0  0  0
   37.6440   29.3880   52.3620 H   0  0  0  0  0  0  0  0  0  0  0  0
   38.1910   28.9980   50.6040 H   0  0  0  0  0  0  0  0  0  0  0  0
   35.7000   28.9560   49.6250 O   0  0  0  0  0  0  0  0  0  0  0  0
   34.4990   28.5010   49.1880 C   0  0  0  0  0  0  0  0  0  0  0  0
   34.3990   27.5670   48.3650 O   0  0  0  0  0  0  0  0  0  0  0  0
   33.4970   29.2500   49.8060 N   0  0  0  0  0  0  0  0  0  0  0  0
   32.7990   28.9140   50.5120 H   0  0  0  0  0  0  0  0  0  0  0  0
   33.2200   30.2710   49.7150 H   0  0  0  0  0  0  0  0  0  0  0  0
  1 27  1  0  0  0  0
  2  1  1  0  0  0  0
  2  3  1  0  0  0  0
  4  2  2  0  0  0  0
  5  4  1  0  0  0  0
  6  7  2  0  0  0  0
  6  4  1  0  0  0  0
  7  8  1  0  0  0  0
  8  9  1  0  0  0  0
  8  1  2  0  0  0  0
 10  7  1  0  0  0  0
 11 10  1  0  0  0  0
 12 13  1  0  0  0  0
 12 11  2  0  0  0  0
 14 12  1  0  0  0  0
 15 14  1  0  0  0  0
 16 14  2  0  0  0  0
 16 18  1  0  0  0  0
 17 16  1  0  0  0  0
 18 20  2  0  0  0  0
 19 18  1  0  0  0  0
 20 11  1  0  0  0  0
 20 21  1  0  0  0  0
 21  6  1  0  0  0  0
 22 21  1  0  0  0  0
 23 24  1  0  0  0  0
 23 31  1  0  0  0  0
 24 29  1  0  0  0  0
 25 30  1  0  0  0  0
 25 24  2  0  0  0  0
 26 25  1  0  0  0  0
 27 26  2  0  0  0  0
 27 28  1  0  0  0  0
 28 23  2  0  0  0  0
 31 32  1  0  0  0  0
 31 33  1  0  0  0  0
 31 34  1  1  0  0  0
 32 33  1  0  0  0  0
 32 35  1  1  0  0  0
 33 36  1  0  0  0  0
 37 33  1  0  0  0  0
 38 32  1  0  0  0  0
 39 38  1  0  0  0  0
 39 41  1  0  0  0  0
 40 39  2  0  0  0  0
 41 42  1  0  0  0  0
 43 41  1  0  0  0  0
M  END
>  <minimizedAffinity>
-6.07069778

>  <minimizedRMSD>
0.631453514

$$$$
