
 OpenBabel03272507183D

 43 47  0  0  1  0  0  0  0  0999 V2000
   37.5630   30.6930   45.8320 C   0  0  0  0  0  0  0  0  0  0  0  0
   36.2870   30.3770   45.4010 C   0  0  0  0  0  0  0  0  0  0  0  0
   35.4190   30.5590   46.0250 H   0  0  0  0  0  0  0  0  0  0  0  0
   36.1340   29.8180   44.1440 C   0  0  0  0  0  0  0  0  0  0  0  0
   35.1600   29.5480   43.7480 H   0  0  0  0  0  0  0  0  0  0  0  0
   37.2330   29.5790   43.3340 C   0  0  0  0  0  0  0  0  0  0  0  0
   38.4950   29.9190   43.8240 C   0  0  0  0  0  0  0  0  0  0  0  0
   38.7040   30.4810   45.0760 C   0  0  0  0  0  0  0  0  0  0  0  0
   39.6980   30.7320   45.4210 H   0  0  0  0  0  0  0  0  0  0  0  0
   39.9550   29.6390   42.8350 S   0  0  0  0  0  0  0  0  0  0  0  0
   39.4100   28.9180   41.2950 C   0  0  0  0  0  0  0  0  0  0  0  0
   40.4020   28.6240   40.3830 C   0  0  0  0  0  0  0  0  0  0  0  0
   41.4440   28.8180   40.5880 H   0  0  0  0  0  0  0  0  0  0  0  0
   40.0490   28.0650   39.1740 C   0  0  0  0  0  0  0  0  0  0  0  0
   40.8240   27.8450   38.4830 H   0  0  0  0  0  0  0  0  0  0  0  0
   38.7020   27.8370   38.9600 C   0  0  0  0  0  0  0  0  0  0  0  0
   38.4810   27.3900   37.9800 H   0  0  0  0  0  0  0  0  0  0  0  0
   37.7180   28.1350   39.8800 C   0  0  0  0  0  0  0  0  0  0  0  0
   36.6830   27.9260   39.6400 H   0  0  0  0  0  0  0  0  0  0  0  0
   38.0600   28.7030   41.1130 C   0  0  0  0  0  0  0  0  0  0  0  0
   37.0700   29.0070   42.0480 N   0  0  0  0  0  0  0  0  0  0  0  0
   36.0740   28.7860   41.7700 H   0  0  0  0  0  0  0  0  0  0  0  0
   37.4920   31.3920   49.4720 C   0  0  0  0  0  0  0  0  0  0  0  0
   38.3000   32.5040   49.6300 C   0  0  0  0  0  0  0  0  0  0  0  0
   38.8610   32.9870   48.4210 C   0  0  0  0  0  0  0  0  0  0  0  0
   38.5920   32.3670   47.2220 N   0  0  0  0  0  0  0  0  0  0  0  0
   37.7920   31.2860   47.1500 C   0  0  0  0  0  0  0  0  0  0  0  0
   37.2300   30.7850   48.2880 N   0  0  0  0  0  0  0  0  0  0  0  0
   38.4940   32.9650   50.5650 H   0  0  0  0  0  0  0  0  0  0  0  0
   39.4970   33.8400   48.4440 H   0  0  0  0  0  0  0  0  0  0  0  0
   36.8510   30.8850   50.7250 C   0  0  1  0  0  0  0  0  0  0  0  0
   36.0850   29.6380   50.7540 C   0  0  2  0  0  0  0  0  0  0  0  0
   37.5060   29.5810   51.2240 C   0  0  0  0  0  0  0  0  0  0  0  0
   36.8220   31.6630   51.5390 H   0  0  0  0  0  0  0  0  0  0  0  0
   35.2280   29.6930   51.4930 H   0  0  0  0  0  0  0  0  0  0  0  0
   37.6440   29.4580   52.3120 H   0  0  0  0  0  0  0  0  0  0  0  0
   38.2240   29.0620   50.5660 H   0  0  0  0  0  0  0  0  0  0  0  0
   35.7550   29.0740   49.5300 O   0  0  0  0  0  0  0  0  0  0  0  0
   34.5640   28.6050   49.0800 C   0  0  0  0  0  0  0  0  0  0  0  0
   34.4840   27.7460   48.1770 O   0  0  0  0  0  0  0  0  0  0  0  0
   33.5470   29.2460   49.7880 N   0  0  0  0  0  0  0  0  0  0  0  0
   32.8840   28.8140   50.4760 H   0  0  0  0  0  0  0  0  0  0  0  0
   33.2220   30.2560   49.7990 H   0  0  0  0  0  0  0  0  0  0  0  0
  1 27  1  0  0  0  0
  2  1  1  0  0  0  0
  2  3  1  0  0  0  0
  4  2  2  0  0  0  0
  5  4  1  0  0  0  0
  6  7  2  0  0  0  0
  6  4  1  0  0  0  0
  7  8  1  0  0  0  0
  8  9  1  0  0  0  0
  8  1  2  0  0  0  0
 10  7  1  0  0  0  0
 11 10  1  0  0  0  0
 12 13  1  0  0  0  0
 12 11  2  0  0  0  0
 14 12  1  0  0  0  0
 15 14  1  0  0  0  0
 16 14  2  0  0  0  0
 16 18  1  0  0  0  0
 17 16  1  0  0  0  0
 18 20  2  0  0  0  0
 19 18  1  0  0  0  0
 20 11  1  0  0  0  0
 20 21  1  0  0  0  0
 21  6  1  0  0  0  0
 22 21  1  0  0  0  0
 23 24  1  0  0  0  0
 23 31  1  0  0  0  0
 24 29  1  0  0  0  0
 25 30  1  0  0  0  0
 25 24  2  0  0  0  0
 26 25  1  0  0  0  0
 27 26  2  0  0  0  0
 27 28  1  0  0  0  0
 28 23  2  0  0  0  0
 31 32  1  0  0  0  0
 31 33  1  0  0  0  0
 31 34  1  1  0  0  0
 32 33  1  0  0  0  0
 32 35  1  1  0  0  0
 33 36  1  0  0  0  0
 37 33  1  0  0  0  0
 38 32  1  0  0  0  0
 39 38  1  0  0  0  0
 39 41  1  0  0  0  0
 40 39  2  0  0  0  0
 41 43  1  0  0  0  0
 41 42  1  0  0  0  0
M  END
>  <minimizedAffinity>
-6.23284483

>  <minimizedRMSD>
1.11826408

$$$$
