
 OpenBabel03272507183D

 43 47  0  0  1  0  0  0  0  0999 V2000
   38.1120   30.6960   45.8790 C   0  0  0  0  0  0  0  0  0  0  0  0
   39.2810   30.3020   45.2500 C   0  0  0  0  0  0  0  0  0  0  0  0
   40.2490   30.4390   45.7190 H   0  0  0  0  0  0  0  0  0  0  0  0
   39.1920   29.7210   43.9970 C   0  0  0  0  0  0  0  0  0  0  0  0
   40.0690   29.3900   43.4500 H   0  0  0  0  0  0  0  0  0  0  0  0
   37.9620   29.5380   43.3850 C   0  0  0  0  0  0  0  0  0  0  0  0
   36.8190   29.9560   44.0690 C   0  0  0  0  0  0  0  0  0  0  0  0
   36.8530   30.5430   45.3270 C   0  0  0  0  0  0  0  0  0  0  0  0
   35.9450   30.8550   45.8260 H   0  0  0  0  0  0  0  0  0  0  0  0
   35.2020   29.7520   43.3400 S   0  0  0  0  0  0  0  0  0  0  0  0
   35.4420   28.9830   41.7460 C   0  0  0  0  0  0  0  0  0  0  0  0
   34.2980   28.7390   41.0160 C   0  0  0  0  0  0  0  0  0  0  0  0
   33.3170   28.9950   41.3870 H   0  0  0  0  0  0  0  0  0  0  0  0
   34.4140   28.1480   39.7770 C   0  0  0  0  0  0  0  0  0  0  0  0
   33.5250   27.9650   39.2280 H   0  0  0  0  0  0  0  0  0  0  0  0
   35.6920   27.8380   39.3480 C   0  0  0  0  0  0  0  0  0  0  0  0
   35.7230   27.3700   38.3550 H   0  0  0  0  0  0  0  0  0  0  0  0
   36.8300   28.0870   40.0880 C   0  0  0  0  0  0  0  0  0  0  0  0
   37.7980   27.8160   39.6840 H   0  0  0  0  0  0  0  0  0  0  0  0
   36.7300   28.6870   41.3490 C   0  0  0  0  0  0  0  0  0  0  0  0
   37.8770   28.9430   42.1000 N   0  0  0  0  0  0  0  0  0  0  0  0
   38.7990   28.6620   41.6680 H   0  0  0  0  0  0  0  0  0  0  0  0
   37.5760   31.4070   49.4780 C   0  0  0  0  0  0  0  0  0  0  0  0
   38.2560   32.5910   49.7050 C   0  0  0  0  0  0  0  0  0  0  0  0
   38.9000   33.1170   48.5570 C   0  0  0  0  0  0  0  0  0  0  0  0
   38.8230   32.4680   47.3460 N   0  0  0  0  0  0  0  0  0  0  0  0
   38.1390   31.3160   47.2050 C   0  0  0  0  0  0  0  0  0  0  0  0
   37.5040   30.7720   48.2820 N   0  0  0  0  0  0  0  0  0  0  0  0
   38.3020   33.0740   50.6480 H   0  0  0  0  0  0  0  0  0  0  0  0
   39.4480   34.0260   48.6350 H   0  0  0  0  0  0  0  0  0  0  0  0
   36.8520   30.8500   50.6620 C   0  0  1  0  0  0  0  0  0  0  0  0
   36.0340   29.6390   50.5710 C   0  0  2  0  0  0  0  0  0  0  0  0
   37.4250   29.4890   51.1050 C   0  0  0  0  0  0  0  0  0  0  0  0
   36.8120   31.5750   51.5230 H   0  0  0  0  0  0  0  0  0  0  0  0
   35.1420   29.6850   51.2680 H   0  0  0  0  0  0  0  0  0  0  0  0
   37.5020   29.2900   52.1880 H   0  0  0  0  0  0  0  0  0  0  0  0
   38.1540   28.9820   50.4500 H   0  0  0  0  0  0  0  0  0  0  0  0
   35.7440   29.1700   49.2970 O   0  0  0  0  0  0  0  0  0  0  0  0
   34.5460   28.9810   48.6910 C   0  0  0  0  0  0  0  0  0  0  0  0
   34.4480   28.7420   47.4680 O   0  0  0  0  0  0  0  0  0  0  0  0
   33.5440   29.1060   49.6530 N   0  0  0  0  0  0  0  0  0  0  0  0
   32.9120   28.3510   50.0130 H   0  0  0  0  0  0  0  0  0  0  0  0
   33.2050   29.9410   50.2140 H   0  0  0  0  0  0  0  0  0  0  0  0
  1 27  1  0  0  0  0
  2  3  1  0  0  0  0
  2  1  2  0  0  0  0
  4  2  1  0  0  0  0
  5  4  1  0  0  0  0
  6  4  2  0  0  0  0
  6  7  1  0  0  0  0
  7  8  2  0  0  0  0
  8  9  1  0  0  0  0
  8  1  1  0  0  0  0
 10  7  1  0  0  0  0
 11 10  1  0  0  0  0
 12 13  1  0  0  0  0
 12 11  2  0  0  0  0
 14 12  1  0  0  0  0
 15 14  1  0  0  0  0
 16 14  2  0  0  0  0
 16 18  1  0  0  0  0
 17 16  1  0  0  0  0
 18 20  2  0  0  0  0
 19 18  1  0  0  0  0
 20 11  1  0  0  0  0
 20 21  1  0  0  0  0
 21  6  1  0  0  0  0
 22 21  1  0  0  0  0
 23 24  1  0  0  0  0
 23 31  1  0  0  0  0
 24 29  1  0  0  0  0
 25 30  1  0  0  0  0
 25 24  2  0  0  0  0
 26 25  1  0  0  0  0
 27 26  2  0  0  0  0
 27 28  1  0  0  0  0
 28 23  2  0  0  0  0
 31 33  1  0  0  0  0
 31 34  1  1  0  0  0
 32 31  1  0  0  0  0
 32 33  1  0  0  0  0
 32 35  1  1  0  0  0
 33 36  1  0  0  0  0
 37 33  1  0  0  0  0
 38 32  1  0  0  0  0
 39 38  1  0  0  0  0
 39 41  1  0  0  0  0
 40 39  2  0  0  0  0
 41 42  1  0  0  0  0
 41 43  1  0  0  0  0
M  END
>  <minimizedAffinity>
-6.01491642

>  <minimizedRMSD>
1.85402417

$$$$
