
 OpenBabel03272501543D

 37 40  0  0  0  0  0  0  0  0999 V2000
   33.2650   27.8090   47.7400 C   0  0  0  0  0  0  0  0  0  0  0  0
   33.6090   26.4750   47.8180 C   0  0  0  0  0  0  0  0  0  0  0  0
   34.5210   26.1960   48.3590 H   0  0  0  0  0  0  0  0  0  0  0  0
   32.8390   25.5040   47.2390 C   0  0  0  0  0  0  0  0  0  0  0  0
   33.1910   24.4700   47.3520 H   0  0  0  0  0  0  0  0  0  0  0  0
   31.6820   25.7810   46.5450 C   0  0  0  0  0  0  0  0  0  0  0  0
   31.3490   27.0920   46.4720 C   0  0  0  0  0  0  0  0  0  0  0  0
   32.1030   28.0520   47.0410 C   0  0  0  0  0  0  0  0  0  0  0  0
   31.7940   29.1040   46.9560 H   0  0  0  0  0  0  0  0  0  0  0  0
   29.8680   27.5590   45.5960 S   0  0  0  0  0  0  0  0  0  0  0  0
   29.1660   26.0350   45.0020 C   0  0  0  0  0  0  0  0  0  0  0  0
   28.0140   26.1630   44.2960 C   0  0  0  0  0  0  0  0  0  0  0  0
   27.4970   27.0860   44.0680 H   0  0  0  0  0  0  0  0  0  0  0  0
   27.3860   25.0300   43.7890 C   0  0  0  0  0  0  0  0  0  0  0  0
   26.4650   25.0840   43.2200 H   0  0  0  0  0  0  0  0  0  0  0  0
   27.9680   23.8070   44.0270 C   0  0  0  0  0  0  0  0  0  0  0  0
   27.4810   22.9260   43.6320 H   0  0  0  0  0  0  0  0  0  0  0  0
   29.1460   23.7550   44.7560 C   0  0  0  0  0  0  0  0  0  0  0  0
   29.5240   22.7420   44.8880 H   0  0  0  0  0  0  0  0  0  0  0  0
   29.7870   24.8620   45.2700 C   0  0  0  0  0  0  0  0  0  0  0  0
   30.9680   24.6940   45.9890 N   0  0  0  0  0  0  0  0  0  0  0  0
   31.3360   23.7280   46.1200 H   0  0  0  0  0  0  0  0  0  0  0  0
   34.1080   28.8280   48.3700 C   0  0  0  0  0  0  0  0  0  0  0  0
   33.5780   29.7750   48.6040 H   0  0  0  0  0  0  0  0  0  0  0  0
   34.9170   29.1140   47.6420 H   0  0  0  0  0  0  0  0  0  0  0  0
   34.8160   28.3280   49.6050 C   0  0  0  0  0  0  0  0  0  0  0  0
   35.1600   27.2850   49.4560 H   0  0  0  0  0  0  0  0  0  0  0  0
   34.1070   28.3360   50.4590 H   0  0  0  0  0  0  0  0  0  0  0  0
   37.4040   30.2970   51.3850 C   0  0  0  0  0  0  0  0  0  0  0  0
   38.1660   30.8320   50.3300 C   0  0  0  0  0  0  0  0  0  0  0  0
   37.7840   30.5120   49.0090 C   0  0  0  0  0  0  0  0  0  0  0  0
   36.6960   29.7000   48.8390 N   0  0  0  0  0  0  0  0  0  0  0  0
   36.0000   29.2150   49.8980 C   0  0  0  0  0  0  0  0  0  0  0  0
   36.3580   29.5140   51.1440 N   0  0  0  0  0  0  0  0  0  0  0  0
   37.7460   30.5790   52.3830 H   0  0  0  0  0  0  0  0  0  0  0  0
   39.0230   31.4710   50.4460 H   0  0  0  0  0  0  0  0  0  0  0  0
   38.3300   30.8920   48.1380 H   0  0  0  0  0  0  0  0  0  0  0  0
  1  2  1  0  0  0  0
  1 23  1  0  0  0  0
  2  3  1  0  0  0  0
  4  5  1  0  0  0  0
  4  2  2  0  0  0  0
  6  4  1  0  0  0  0
  7  6  2  0  0  0  0
  7  8  1  0  0  0  0
  8  1  2  0  0  0  0
  9  8  1  0  0  0  0
 10  7  1  0  0  0  0
 11 20  1  0  0  0  0
 11 10  1  0  0  0  0
 12 11  2  0  0  0  0
 13 12  1  0  0  0  0
 14 16  2  0  0  0  0
 14 12  1  0  0  0  0
 15 14  1  0  0  0  0
 16 18  1  0  0  0  0
 17 16  1  0  0  0  0
 18 19  1  0  0  0  0
 18 20  2  0  0  0  0
 20 21  1  0  0  0  0
 21 22  1  0  0  0  0
 21  6  1  0  0  0  0
 23 24  1  0  0  0  0
 23 26  1  0  0  0  0
 25 23  1  0  0  0  0
 26 33  1  0  0  0  0
 26 28  1  0  0  0  0
 27 26  1  0  0  0  0
 29 35  1  0  0  0  0
 30 36  1  0  0  0  0
 30 29  2  0  0  0  0
 31 30  1  0  0  0  0
 32 31  2  0  0  0  0
 32 33  1  0  0  0  0
 33 34  2  0  0  0  0
 34 29  1  0  0  0  0
 37 31  1  0  0  0  0
M  END
>  <minimizedAffinity>
-5.27545786

>  <minimizedRMSD>
0.801484942

$$$$
