
 OpenBabel03272501543D

 37 40  0  0  0  0  0  0  0  0999 V2000
   33.2160   27.8940   47.7350 C   0  0  0  0  0  0  0  0  0  0  0  0
   33.5120   26.5470   47.8020 C   0  0  0  0  0  0  0  0  0  0  0  0
   34.4090   26.2300   48.3490 H   0  0  0  0  0  0  0  0  0  0  0  0
   32.7160   25.6090   47.2040 C   0  0  0  0  0  0  0  0  0  0  0  0
   33.0290   24.5630   47.3100 H   0  0  0  0  0  0  0  0  0  0  0  0
   31.5750   25.9350   46.5020 C   0  0  0  0  0  0  0  0  0  0  0  0
   31.2890   27.2570   46.4400 C   0  0  0  0  0  0  0  0  0  0  0  0
   32.0710   28.1840   47.0270 C   0  0  0  0  0  0  0  0  0  0  0  0
   31.7990   29.2470   46.9500 H   0  0  0  0  0  0  0  0  0  0  0  0
   29.8350   27.7840   45.5550 S   0  0  0  0  0  0  0  0  0  0  0  0
   29.0860   26.2930   44.9370 C   0  0  0  0  0  0  0  0  0  0  0  0
   27.9460   26.4680   44.2210 C   0  0  0  0  0  0  0  0  0  0  0  0
   27.4650   27.4120   43.9980 H   0  0  0  0  0  0  0  0  0  0  0  0
   27.2840   25.3640   43.6950 C   0  0  0  0  0  0  0  0  0  0  0  0
   26.3730   25.4550   43.1180 H   0  0  0  0  0  0  0  0  0  0  0  0
   27.8220   24.1190   43.9260 C   0  0  0  0  0  0  0  0  0  0  0  0
   27.3080   23.2590   43.5160 H   0  0  0  0  0  0  0  0  0  0  0  0
   28.9890   24.0170   44.6650 C   0  0  0  0  0  0  0  0  0  0  0  0
   29.3300   22.9910   44.7900 H   0  0  0  0  0  0  0  0  0  0  0  0
   29.6630   25.0970   45.1980 C   0  0  0  0  0  0  0  0  0  0  0  0
   30.8300   24.8790   45.9260 N   0  0  0  0  0  0  0  0  0  0  0  0
   31.1630   23.8990   46.0500 H   0  0  0  0  0  0  0  0  0  0  0  0
   34.0870   28.8750   48.3850 C   0  0  0  0  0  0  0  0  0  0  0  0
   33.5750   29.8170   48.6730 H   0  0  0  0  0  0  0  0  0  0  0  0
   34.8790   29.1840   47.6470 H   0  0  0  0  0  0  0  0  0  0  0  0
   34.8230   28.3150   49.5770 C   0  0  0  0  0  0  0  0  0  0  0  0
   35.1770   27.2870   49.3630 H   0  0  0  0  0  0  0  0  0  0  0  0
   34.1290   28.2650   50.4410 H   0  0  0  0  0  0  0  0  0  0  0  0
   37.3770   30.2680   51.4230 C   0  0  0  0  0  0  0  0  0  0  0  0
   38.1590   30.8120   50.3870 C   0  0  0  0  0  0  0  0  0  0  0  0
   37.8020   30.5040   49.0560 C   0  0  0  0  0  0  0  0  0  0  0  0
   36.7170   29.6940   48.8590 N   0  0  0  0  0  0  0  0  0  0  0  0
   36.0020   29.1990   49.9000 C   0  0  0  0  0  0  0  0  0  0  0  0
   36.3360   29.4870   51.1550 N   0  0  0  0  0  0  0  0  0  0  0  0
   37.7000   30.5400   52.4300 H   0  0  0  0  0  0  0  0  0  0  0  0
   39.0130   31.4500   50.5250 H   0  0  0  0  0  0  0  0  0  0  0  0
   38.3640   30.8920   48.1990 H   0  0  0  0  0  0  0  0  0  0  0  0
  1  2  1  0  0  0  0
  1 23  1  0  0  0  0
  2  3  1  0  0  0  0
  4  5  1  0  0  0  0
  4  2  2  0  0  0  0
  6  4  1  0  0  0  0
  7  6  2  0  0  0  0
  7  8  1  0  0  0  0
  8  1  2  0  0  0  0
  9  8  1  0  0  0  0
 10  7  1  0  0  0  0
 11 20  1  0  0  0  0
 11 10  1  0  0  0  0
 12 11  2  0  0  0  0
 13 12  1  0  0  0  0
 14 16  2  0  0  0  0
 14 12  1  0  0  0  0
 15 14  1  0  0  0  0
 16 18  1  0  0  0  0
 17 16  1  0  0  0  0
 18 19  1  0  0  0  0
 18 20  2  0  0  0  0
 20 21  1  0  0  0  0
 21 22  1  0  0  0  0
 21  6  1  0  0  0  0
 23 24  1  0  0  0  0
 23 26  1  0  0  0  0
 25 23  1  0  0  0  0
 26 33  1  0  0  0  0
 26 28  1  0  0  0  0
 27 26  1  0  0  0  0
 29 35  1  0  0  0  0
 30 36  1  0  0  0  0
 30 29  2  0  0  0  0
 31 30  1  0  0  0  0
 32 31  2  0  0  0  0
 32 33  1  0  0  0  0
 33 34  2  0  0  0  0
 34 29  1  0  0  0  0
 37 31  1  0  0  0  0
M  END
>  <minimizedAffinity>
-5.26833153

>  <minimizedRMSD>
0.624070525

$$$$
