
 OpenBabel03262520193D

 34 37  0  0  0  0  0  0  0  0999 V2000
   35.0230   29.6040   48.0400 C   0  0  0  0  0  0  0  0  0  0  0  0
   35.0170   29.9110   46.6820 C   0  0  0  0  0  0  0  0  0  0  0  0
   35.8180   30.4480   46.2160 H   0  0  0  0  0  0  0  0  0  0  0  0
   33.9100   29.4840   45.9490 C   0  0  0  0  0  0  0  0  0  0  0  0
   33.9420   29.7440   44.8890 H   0  0  0  0  0  0  0  0  0  0  0  0
   32.8360   28.7900   46.4640 C   0  0  0  0  0  0  0  0  0  0  0  0
   32.9140   28.5260   47.8000 C   0  0  0  0  0  0  0  0  0  0  0  0
   33.9680   28.9180   48.5600 C   0  0  0  0  0  0  0  0  0  0  0  0
   34.0010   28.6940   49.6200 H   0  0  0  0  0  0  0  0  0  0  0  0
   31.5900   27.6340   48.5890 S   0  0  0  0  0  0  0  0  0  0  0  0
   30.4000   27.2880   47.3070 C   0  0  0  0  0  0  0  0  0  0  0  0
   29.2760   26.6140   47.6190 C   0  0  0  0  0  0  0  0  0  0  0  0
   29.1020   26.2860   48.6450 H   0  0  0  0  0  0  0  0  0  0  0  0
   28.3050   26.3040   46.6920 C   0  0  0  0  0  0  0  0  0  0  0  0
   27.4280   25.7620   47.0040 H   0  0  0  0  0  0  0  0  0  0  0  0
   28.5340   26.7220   45.4000 C   0  0  0  0  0  0  0  0  0  0  0  0
   27.8060   26.5040   44.6440 H   0  0  0  0  0  0  0  0  0  0  0  0
   29.6880   27.4090   45.1090 C   0  0  0  0  0  0  0  0  0  0  0  0
   29.7980   27.7080   44.0550 H   0  0  0  0  0  0  0  0  0  0  0  0
   30.6640   27.7220   46.0310 C   0  0  0  0  0  0  0  0  0  0  0  0
   31.8050   28.4350   45.5940 N   0  0  0  0  0  0  0  0  0  0  0  0
   31.8640   28.6960   44.5880 H   0  0  0  0  0  0  0  0  0  0  0  0
   37.5890   29.5750   50.6380 C   0  0  0  0  0  0  0  0  0  0  0  0
   38.2840   30.7930   50.4340 C   0  0  0  0  0  0  0  0  0  0  0  0
   37.8390   31.6180   49.3780 C   0  0  0  0  0  0  0  0  0  0  0  0
   36.7760   31.1910   48.6260 N   0  0  0  0  0  0  0  0  0  0  0  0
   36.1480   30.0200   48.8610 C   0  0  0  0  0  0  0  0  0  0  0  0
   36.5620   29.2260   49.8650 N   0  0  0  0  0  0  0  0  0  0  0  0
   37.8750   28.8930   51.4290 H   0  0  0  0  0  0  0  0  0  0  0  0
   39.1160   31.0540   51.0760 H   0  0  0  0  0  0  0  0  0  0  0  0
   38.5350   32.8990   49.1280 C   0  0  0  0  0  0  0  0  0  0  0  0
   39.3890   33.0820   50.1860 F   0  0  0  0  0  0  0  0  0  0  0  0
   39.2640   32.8910   47.9600 F   0  0  0  0  0  0  0  0  0  0  0  0
   37.6460   33.9750   49.1020 F   0  0  0  0  0  0  0  0  0  0  0  0
  1  8  1  0  0  0  0
  1 27  1  0  0  0  0
  2  1  2  0  0  0  0
  3  2  1  0  0  0  0
  4  6  2  0  0  0  0
  4  2  1  0  0  0  0
  5  4  1  0  0  0  0
  6  7  1  0  0  0  0
  7  8  2  0  0  0  0
  7 10  1  0  0  0  0
  8  9  1  0  0  0  0
 11 12  1  0  0  0  0
 11 10  1  0  0  0  0
 12 13  1  0  0  0  0
 14 15  1  0  0  0  0
 14 12  2  0  0  0  0
 16 14  1  0  0  0  0
 17 16  1  0  0  0  0
 18 16  2  0  0  0  0
 18 20  1  0  0  0  0
 19 18  1  0  0  0  0
 20 11  2  0  0  0  0
 21 20  1  0  0  0  0
 21  6  1  0  0  0  0
 22 21  1  0  0  0  0
 23 29  1  0  0  0  0
 24 23  1  0  0  0  0
 24 30  1  0  0  0  0
 25 24  2  0  0  0  0
 26 27  2  0  0  0  0
 26 25  1  0  0  0  0
 27 28  1  0  0  0  0
 28 23  2  0  0  0  0
 31 25  1  0  0  0  0
 31 32  1  0  0  0  0
 33 31  1  0  0  0  0
 34 31  1  0  0  0  0
M  END
>  <minimizedAffinity>
-6.69515514

>  <minimizedRMSD>
2.05070567

$$$$
