
 OpenBabel03272501543D

 37 40  0  0  0  0  0  0  0  0999 V2000
   33.1360   28.0300   47.7560 C   0  0  0  0  0  0  0  0  0  0  0  0
   33.3910   26.6740   47.7780 C   0  0  0  0  0  0  0  0  0  0  0  0
   34.2770   26.3110   48.3150 H   0  0  0  0  0  0  0  0  0  0  0  0
   32.5690   25.7810   47.1480 C   0  0  0  0  0  0  0  0  0  0  0  0
   32.8500   24.7220   47.2190 H   0  0  0  0  0  0  0  0  0  0  0  0
   31.4410   26.1650   46.4560 C   0  0  0  0  0  0  0  0  0  0  0  0
   31.1940   27.4960   46.4380 C   0  0  0  0  0  0  0  0  0  0  0  0
   32.0020   28.3780   47.0570 C   0  0  0  0  0  0  0  0  0  0  0  0
   31.7630   29.4520   47.0160 H   0  0  0  0  0  0  0  0  0  0  0  0
   29.7580   28.0970   45.5690 S   0  0  0  0  0  0  0  0  0  0  0  0
   28.9670   26.6490   44.9000 C   0  0  0  0  0  0  0  0  0  0  0  0
   27.8340   26.8830   44.1890 C   0  0  0  0  0  0  0  0  0  0  0  0
   27.3820   27.8480   43.9990 H   0  0  0  0  0  0  0  0  0  0  0  0
   27.1400   25.8190   43.6250 C   0  0  0  0  0  0  0  0  0  0  0  0
   26.2340   25.9570   43.0500 H   0  0  0  0  0  0  0  0  0  0  0  0
   27.6390   24.5510   43.8150 C   0  0  0  0  0  0  0  0  0  0  0  0
   27.1000   23.7220   43.3760 H   0  0  0  0  0  0  0  0  0  0  0  0
   28.8010   24.3900   44.5520 C   0  0  0  0  0  0  0  0  0  0  0  0
   29.1110   23.3490   44.6430 H   0  0  0  0  0  0  0  0  0  0  0  0
   29.5070   25.4290   45.1220 C   0  0  0  0  0  0  0  0  0  0  0  0
   30.6650   25.1520   45.8440 N   0  0  0  0  0  0  0  0  0  0  0  0
   30.9680   24.1590   45.9360 H   0  0  0  0  0  0  0  0  0  0  0  0
   34.0360   28.9620   48.4400 C   0  0  0  0  0  0  0  0  0  0  0  0
   33.5330   29.8700   48.8360 H   0  0  0  0  0  0  0  0  0  0  0  0
   34.7830   29.3430   47.6890 H   0  0  0  0  0  0  0  0  0  0  0  0
   34.8400   28.3110   49.5370 C   0  0  0  0  0  0  0  0  0  0  0  0
   35.2060   27.3180   49.2090 H   0  0  0  0  0  0  0  0  0  0  0  0
   34.1890   28.1590   50.4230 H   0  0  0  0  0  0  0  0  0  0  0  0
   37.3620   30.2400   51.4500 C   0  0  0  0  0  0  0  0  0  0  0  0
   38.1590   30.8000   50.4350 C   0  0  0  0  0  0  0  0  0  0  0  0
   37.8230   30.5100   49.0940 C   0  0  0  0  0  0  0  0  0  0  0  0
   36.7430   29.7010   48.8690 N   0  0  0  0  0  0  0  0  0  0  0  0
   36.0120   29.1910   49.8910 C   0  0  0  0  0  0  0  0  0  0  0  0
   36.3260   29.4620   51.1550 N   0  0  0  0  0  0  0  0  0  0  0  0
   37.6690   30.4990   52.4660 H   0  0  0  0  0  0  0  0  0  0  0  0
   39.0100   31.4370   50.5950 H   0  0  0  0  0  0  0  0  0  0  0  0
   38.3980   30.9110   48.2510 H   0  0  0  0  0  0  0  0  0  0  0  0
  1  2  1  0  0  0  0
  1 23  1  0  0  0  0
  2  3  1  0  0  0  0
  4  5  1  0  0  0  0
  4  2  2  0  0  0  0
  6  4  1  0  0  0  0
  7  6  2  0  0  0  0
  7  8  1  0  0  0  0
  8  1  2  0  0  0  0
  9  8  1  0  0  0  0
 10  7  1  0  0  0  0
 11 20  1  0  0  0  0
 11 10  1  0  0  0  0
 12 11  2  0  0  0  0
 13 12  1  0  0  0  0
 14 16  2  0  0  0  0
 14 12  1  0  0  0  0
 15 14  1  0  0  0  0
 16 18  1  0  0  0  0
 17 16  1  0  0  0  0
 18 19  1  0  0  0  0
 18 20  2  0  0  0  0
 20 21  1  0  0  0  0
 21 22  1  0  0  0  0
 21  6  1  0  0  0  0
 23 24  1  0  0  0  0
 23 26  1  0  0  0  0
 25 23  1  0  0  0  0
 26 33  1  0  0  0  0
 26 28  1  0  0  0  0
 27 26  1  0  0  0  0
 29 35  1  0  0  0  0
 30 36  1  0  0  0  0
 30 29  2  0  0  0  0
 31 30  1  0  0  0  0
 32 31  2  0  0  0  0
 32 33  1  0  0  0  0
 33 34  2  0  0  0  0
 34 29  1  0  0  0  0
 37 31  1  0  0  0  0
M  END
>  <minimizedAffinity>
-5.28304672

>  <minimizedRMSD>
0.753983259

$$$$
