
 OpenBabel03262520203D

 34 37  0  0  0  0  0  0  0  0999 V2000
   37.8480   25.8750   33.9790 C   0  0  0  0  0  0  0  0  0  0  0  0
   37.0010   26.8570   34.4850 C   0  0  0  0  0  0  0  0  0  0  0  0
   36.5770   26.7920   35.4670 H   0  0  0  0  0  0  0  0  0  0  0  0
   36.7270   27.9390   33.6500 C   0  0  0  0  0  0  0  0  0  0  0  0
   36.0590   28.6860   34.0820 H   0  0  0  0  0  0  0  0  0  0  0  0
   37.2260   28.1050   32.3750 C   0  0  0  0  0  0  0  0  0  0  0  0
   38.0490   27.1030   31.9490 C   0  0  0  0  0  0  0  0  0  0  0  0
   38.3490   26.0280   32.7220 C   0  0  0  0  0  0  0  0  0  0  0  0
   39.0050   25.2480   32.3550 H   0  0  0  0  0  0  0  0  0  0  0  0
   38.7610   27.1970   30.3200 S   0  0  0  0  0  0  0  0  0  0  0  0
   38.1580   28.7160   29.6080 C   0  0  0  0  0  0  0  0  0  0  0  0
   38.5390   29.0530   28.3600 C   0  0  0  0  0  0  0  0  0  0  0  0
   39.2080   28.4010   27.7980 H   0  0  0  0  0  0  0  0  0  0  0  0
   38.1200   30.2070   27.7340 C   0  0  0  0  0  0  0  0  0  0  0  0
   38.4610   30.4200   26.7340 H   0  0  0  0  0  0  0  0  0  0  0  0
   37.2760   31.0240   28.4520 C   0  0  0  0  0  0  0  0  0  0  0  0
   36.9240   31.9320   28.0060 H   0  0  0  0  0  0  0  0  0  0  0  0
   36.9020   30.6560   29.7230 C   0  0  0  0  0  0  0  0  0  0  0  0
   36.2260   31.3610   30.2300 H   0  0  0  0  0  0  0  0  0  0  0  0
   37.3160   29.5030   30.3550 C   0  0  0  0  0  0  0  0  0  0  0  0
   36.8540   29.2470   31.6670 N   0  0  0  0  0  0  0  0  0  0  0  0
   36.2170   29.9430   32.1060 H   0  0  0  0  0  0  0  0  0  0  0  0
   38.8940   22.5070   34.9280 C   0  0  0  0  0  0  0  0  0  0  0  0
   38.8010   22.5160   36.3430 C   0  0  0  0  0  0  0  0  0  0  0  0
   38.3690   23.7140   36.9520 C   0  0  0  0  0  0  0  0  0  0  0  0
   38.0700   24.7800   36.1440 N   0  0  0  0  0  0  0  0  0  0  0  0
   38.1750   24.7210   34.8000 C   0  0  0  0  0  0  0  0  0  0  0  0
   38.5860   23.5840   34.2080 N   0  0  0  0  0  0  0  0  0  0  0  0
   39.2180   21.6230   34.3940 H   0  0  0  0  0  0  0  0  0  0  0  0
   39.0580   21.6270   36.9050 H   0  0  0  0  0  0  0  0  0  0  0  0
   38.2570   23.7680   38.4250 C   0  0  0  0  0  0  0  0  0  0  0  0
   39.5050   23.4730   38.9140 F   0  0  0  0  0  0  0  0  0  0  0  0
   37.8780   25.0090   38.8860 F   0  0  0  0  0  0  0  0  0  0  0  0
   37.3670   22.8100   38.9130 F   0  0  0  0  0  0  0  0  0  0  0  0
  1  2  1  0  0  0  0
  1 27  1  0  0  0  0
  2  3  1  0  0  0  0
  4  5  1  0  0  0  0
  4  2  2  0  0  0  0
  6  4  1  0  0  0  0
  7  6  2  0  0  0  0
  7  8  1  0  0  0  0
  8  1  2  0  0  0  0
  9  8  1  0  0  0  0
 10  7  1  0  0  0  0
 11 10  1  0  0  0  0
 11 20  1  0  0  0  0
 12 11  2  0  0  0  0
 13 12  1  0  0  0  0
 14 12  1  0  0  0  0
 14 16  2  0  0  0  0
 15 14  1  0  0  0  0
 16 18  1  0  0  0  0
 17 16  1  0  0  0  0
 18 19  1  0  0  0  0
 18 20  2  0  0  0  0
 20 21  1  0  0  0  0
 21 22  1  0  0  0  0
 21  6  1  0  0  0  0
 23 24  1  0  0  0  0
 24 30  1  0  0  0  0
 24 25  2  0  0  0  0
 25 31  1  0  0  0  0
 26 25  1  0  0  0  0
 27 26  2  0  0  0  0
 28 27  1  0  0  0  0
 28 23  2  0  0  0  0
 29 23  1  0  0  0  0
 31 33  1  0  0  0  0
 31 34  1  0  0  0  0
 31 32  1  0  0  0  0
M  END
>  <minimizedAffinity>
-6.49880075

$$$$

 OpenBabel03262520203D

 34 37  0  0  0  0  0  0  0  0999 V2000
   37.8710   25.8550   33.9640 C   0  0  0  0  0  0  0  0  0  0  0  0
   38.2880   25.8880   32.6360 C   0  0  0  0  0  0  0  0  0  0  0  0
   38.8980   25.1160   32.2120 H   0  0  0  0  0  0  0  0  0  0  0  0
   37.8740   26.9810   31.8760 C   0  0  0  0  0  0  0  0  0  0  0  0
   38.2220   26.9700   30.8410 H   0  0  0  0  0  0  0  0  0  0  0  0
   37.0920   28.0180   32.3370 C   0  0  0  0  0  0  0  0  0  0  0  0
   36.7220   27.9170   33.6460 C   0  0  0  0  0  0  0  0  0  0  0  0
   37.0970   26.8740   34.4300 C   0  0  0  0  0  0  0  0  0  0  0  0
   36.7880   26.8220   35.4680 H   0  0  0  0  0  0  0  0  0  0  0  0
   35.7090   29.1920   34.3650 S   0  0  0  0  0  0  0  0  0  0  0  0
   35.4170   30.3770   33.0650 C   0  0  0  0  0  0  0  0  0  0  0  0
   34.6690   31.4680   33.3260 C   0  0  0  0  0  0  0  0  0  0  0  0
   34.2500   31.6170   34.3220 H   0  0  0  0  0  0  0  0  0  0  0  0
   34.3930   32.4320   32.3810 C   0  0  0  0  0  0  0  0  0  0  0  0
   33.7880   33.2810   32.6530 H   0  0  0  0  0  0  0  0  0  0  0  0
   34.9260   32.2330   31.1280 C   0  0  0  0  0  0  0  0  0  0  0  0
   34.7390   32.9570   30.3600 H   0  0  0  0  0  0  0  0  0  0  0  0
   35.6860   31.1130   30.8880 C   0  0  0  0  0  0  0  0  0  0  0  0
   36.0770   31.0270   29.8630 H   0  0  0  0  0  0  0  0  0  0  0  0
   35.9660   30.1440   31.8280 C   0  0  0  0  0  0  0  0  0  0  0  0
   36.7640   29.0400   31.4460 N   0  0  0  0  0  0  0  0  0  0  0  0
   37.1090   29.0020   30.4650 H   0  0  0  0  0  0  0  0  0  0  0  0
   39.2030   22.6160   34.9970 C   0  0  0  0  0  0  0  0  0  0  0  0
   39.0290   22.6180   36.4040 C   0  0  0  0  0  0  0  0  0  0  0  0
   38.4410   23.7660   36.9780 C   0  0  0  0  0  0  0  0  0  0  0  0
   38.0800   24.7940   36.1460 N   0  0  0  0  0  0  0  0  0  0  0  0
   38.2680   24.7430   34.8110 C   0  0  0  0  0  0  0  0  0  0  0  0
   38.8270   23.6540   34.2520 N   0  0  0  0  0  0  0  0  0  0  0  0
   39.6470   21.7690   34.4890 H   0  0  0  0  0  0  0  0  0  0  0  0
   39.3430   21.7610   36.9870 H   0  0  0  0  0  0  0  0  0  0  0  0
   38.2400   23.8110   38.4420 C   0  0  0  0  0  0  0  0  0  0  0  0
   39.4400   23.4530   39.0040 F   0  0  0  0  0  0  0  0  0  0  0  0
   37.8910   25.0640   38.8940 F   0  0  0  0  0  0  0  0  0  0  0  0
   37.2770   22.8910   38.8620 F   0  0  0  0  0  0  0  0  0  0  0  0
  1  8  1  0  0  0  0
  1 27  1  0  0  0  0
  2  1  2  0  0  0  0
  3  2  1  0  0  0  0
  4  6  2  0  0  0  0
  4  2  1  0  0  0  0
  5  4  1  0  0  0  0
  6  7  1  0  0  0  0
  7 10  1  0  0  0  0
  7  8  2  0  0  0  0
  8  9  1  0  0  0  0
 11 12  1  0  0  0  0
 11 10  1  0  0  0  0
 12 13  1  0  0  0  0
 14 15  1  0  0  0  0
 14 12  2  0  0  0  0
 16 14  1  0  0  0  0
 17 16  1  0  0  0  0
 18 16  2  0  0  0  0
 18 20  1  0  0  0  0
 19 18  1  0  0  0  0
 20 11  2  0  0  0  0
 21 20  1  0  0  0  0
 21  6  1  0  0  0  0
 22 21  1  0  0  0  0
 23 24  1  0  0  0  0
 24 25  2  0  0  0  0
 24 30  1  0  0  0  0
 25 31  1  0  0  0  0
 26 25  1  0  0  0  0
 27 26  2  0  0  0  0
 28 27  1  0  0  0  0
 28 23  2  0  0  0  0
 29 23  1  0  0  0  0
 31 34  1  0  0  0  0
 31 33  1  0  0  0  0
 31 32  1  0  0  0  0
M  END
>  <minimizedAffinity>
-6.25466442

$$$$

 OpenBabel03262520203D

 34 37  0  0  0  0  0  0  0  0999 V2000
   38.2650   25.6400   35.0030 C   0  0  0  0  0  0  0  0  0  0  0  0
   37.2610   26.5860   35.1870 C   0  0  0  0  0  0  0  0  0  0  0  0
   36.7280   26.6770   36.1120 H   0  0  0  0  0  0  0  0  0  0  0  0
   36.9780   27.4190   34.1050 C   0  0  0  0  0  0  0  0  0  0  0  0
   36.1860   28.1460   34.2890 H   0  0  0  0  0  0  0  0  0  0  0  0
   37.6120   27.3730   32.8810 C   0  0  0  0  0  0  0  0  0  0  0  0
   38.5840   26.4210   32.7760 C   0  0  0  0  0  0  0  0  0  0  0  0
   38.8990   25.5860   33.7990 C   0  0  0  0  0  0  0  0  0  0  0  0
   39.6760   24.8390   33.6840 H   0  0  0  0  0  0  0  0  0  0  0  0
   39.4800   26.2590   31.2460 S   0  0  0  0  0  0  0  0  0  0  0  0
   38.8090   27.4970   30.1520 C   0  0  0  0  0  0  0  0  0  0  0  0
   39.3050   27.6070   28.9030 C   0  0  0  0  0  0  0  0  0  0  0  0
   40.1050   26.9440   28.5730 H   0  0  0  0  0  0  0  0  0  0  0  0
   38.8460   28.5350   27.9940 C   0  0  0  0  0  0  0  0  0  0  0  0
   39.2830   28.5720   27.0100 H   0  0  0  0  0  0  0  0  0  0  0  0
   37.8360   29.3670   28.4210 C   0  0  0  0  0  0  0  0  0  0  0  0
   37.4470   30.1040   27.7480 H   0  0  0  0  0  0  0  0  0  0  0  0
   37.3490   29.2330   29.7000 C   0  0  0  0  0  0  0  0  0  0  0  0
   36.5420   29.9340   29.9650 H   0  0  0  0  0  0  0  0  0  0  0  0
   37.8020   28.3070   30.6150 C   0  0  0  0  0  0  0  0  0  0  0  0
   37.2100   28.2780   31.8990 N   0  0  0  0  0  0  0  0  0  0  0  0
   36.4520   28.9610   32.1040 H   0  0  0  0  0  0  0  0  0  0  0  0
   38.1230   23.9030   38.2120 C   0  0  0  0  0  0  0  0  0  0  0  0
   39.2480   23.0410   38.1740 C   0  0  0  0  0  0  0  0  0  0  0  0
   40.0500   23.0800   37.0120 C   0  0  0  0  0  0  0  0  0  0  0  0
   39.6920   23.9410   36.0070 N   0  0  0  0  0  0  0  0  0  0  0  0
   38.6100   24.7410   36.0920 C   0  0  0  0  0  0  0  0  0  0  0  0
   37.8380   24.7130   37.1940 N   0  0  0  0  0  0  0  0  0  0  0  0
   37.4640   23.9260   39.0710 H   0  0  0  0  0  0  0  0  0  0  0  0
   39.4580   22.3910   39.0140 H   0  0  0  0  0  0  0  0  0  0  0  0
   41.2330   22.1980   36.9300 C   0  0  0  0  0  0  0  0  0  0  0  0
   42.3280   23.0260   36.9330 F   0  0  0  0  0  0  0  0  0  0  0  0
   41.3260   21.3290   37.9930 F   0  0  0  0  0  0  0  0  0  0  0  0
   41.2520   21.4660   35.7410 F   0  0  0  0  0  0  0  0  0  0  0  0
  1  2  1  0  0  0  0
  1 27  1  0  0  0  0
  2  3  1  0  0  0  0
  4  5  1  0  0  0  0
  4  2  2  0  0  0  0
  6  4  1  0  0  0  0
  7  6  2  0  0  0  0
  7  8  1  0  0  0  0
  8  1  2  0  0  0  0
  9  8  1  0  0  0  0
 10  7  1  0  0  0  0
 11 20  1  0  0  0  0
 11 10  1  0  0  0  0
 12 11  2  0  0  0  0
 13 12  1  0  0  0  0
 14 16  2  0  0  0  0
 14 12  1  0  0  0  0
 15 14  1  0  0  0  0
 16 18  1  0  0  0  0
 17 16  1  0  0  0  0
 18 19  1  0  0  0  0
 18 20  2  0  0  0  0
 20 21  1  0  0  0  0
 21 22  1  0  0  0  0
 21  6  1  0  0  0  0
 23 29  1  0  0  0  0
 24 23  1  0  0  0  0
 24 30  1  0  0  0  0
 25 24  2  0  0  0  0
 26 27  2  0  0  0  0
 26 25  1  0  0  0  0
 27 28  1  0  0  0  0
 28 23  2  0  0  0  0
 31 32  1  0  0  0  0
 31 25  1  0  0  0  0
 31 33  1  0  0  0  0
 34 31  1  0  0  0  0
M  END
>  <minimizedAffinity>
-6.23915958

$$$$

 OpenBabel03262520203D

 34 37  0  0  0  0  0  0  0  0999 V2000
   37.1040   27.5190   33.8870 C   0  0  0  0  0  0  0  0  0  0  0  0
   38.0270   27.3260   32.8630 C   0  0  0  0  0  0  0  0  0  0  0  0
   38.0090   27.9090   31.9640 H   0  0  0  0  0  0  0  0  0  0  0  0
   38.9840   26.3310   33.0610 C   0  0  0  0  0  0  0  0  0  0  0  0
   39.6880   26.2110   32.2360 H   0  0  0  0  0  0  0  0  0  0  0  0
   39.0800   25.5350   34.1830 C   0  0  0  0  0  0  0  0  0  0  0  0
   38.1430   25.7830   35.1420 C   0  0  0  0  0  0  0  0  0  0  0  0
   37.1900   26.7390   35.0000 C   0  0  0  0  0  0  0  0  0  0  0  0
   36.4580   26.9110   35.7810 H   0  0  0  0  0  0  0  0  0  0  0  0
   38.1590   24.8230   36.6420 S   0  0  0  0  0  0  0  0  0  0  0  0
   39.5220   23.6840   36.4810 C   0  0  0  0  0  0  0  0  0  0  0  0
   39.7770   22.8200   37.4820 C   0  0  0  0  0  0  0  0  0  0  0  0
   39.1550   22.8220   38.3770 H   0  0  0  0  0  0  0  0  0  0  0  0
   40.8090   21.9080   37.4410 C   0  0  0  0  0  0  0  0  0  0  0  0
   40.9620   21.2430   38.2750 H   0  0  0  0  0  0  0  0  0  0  0  0
   41.5900   21.9140   36.3070 C   0  0  0  0  0  0  0  0  0  0  0  0
   42.4040   21.2220   36.2300 H   0  0  0  0  0  0  0  0  0  0  0  0
   41.3070   22.8060   35.3000 C   0  0  0  0  0  0  0  0  0  0  0  0
   41.9760   22.7490   34.4270 H   0  0  0  0  0  0  0  0  0  0  0  0
   40.2770   23.7210   35.3340 C   0  0  0  0  0  0  0  0  0  0  0  0
   40.0990   24.5820   34.2260 N   0  0  0  0  0  0  0  0  0  0  0  0
   40.7560   24.4910   33.4240 H   0  0  0  0  0  0  0  0  0  0  0  0
   34.3870   29.4970   32.4590 C   0  0  0  0  0  0  0  0  0  0  0  0
   34.1300   30.4750   33.4520 C   0  0  0  0  0  0  0  0  0  0  0  0
   34.9200   30.4290   34.6210 C   0  0  0  0  0  0  0  0  0  0  0  0
   35.8750   29.4500   34.7190 N   0  0  0  0  0  0  0  0  0  0  0  0
   36.0800   28.5410   33.7440 C   0  0  0  0  0  0  0  0  0  0  0  0
   35.3330   28.5750   32.6250 N   0  0  0  0  0  0  0  0  0  0  0  0
   33.8200   29.4730   31.5370 H   0  0  0  0  0  0  0  0  0  0  0  0
   33.3540   31.2140   33.2930 H   0  0  0  0  0  0  0  0  0  0  0  0
   34.6860   31.4300   35.6830 C   0  0  0  0  0  0  0  0  0  0  0  0
   35.8490   31.4950   36.4100 F   0  0  0  0  0  0  0  0  0  0  0  0
   34.4000   32.6810   35.1840 F   0  0  0  0  0  0  0  0  0  0  0  0
   33.6610   31.0390   36.5480 F   0  0  0  0  0  0  0  0  0  0  0  0
  1  8  1  0  0  0  0
  2  4  1  0  0  0  0
  2  1  2  0  0  0  0
  3  2  1  0  0  0  0
  4  6  2  0  0  0  0
  5  4  1  0  0  0  0
  6 21  1  0  0  0  0
  6  7  1  0  0  0  0
  7 10  1  0  0  0  0
  8  7  2  0  0  0  0
  8  9  1  0  0  0  0
 11 10  1  0  0  0  0
 11 12  1  0  0  0  0
 12 13  1  0  0  0  0
 14 12  2  0  0  0  0
 14 15  1  0  0  0  0
 16 14  1  0  0  0  0
 17 16  1  0  0  0  0
 18 20  1  0  0  0  0
 18 16  2  0  0  0  0
 19 18  1  0  0  0  0
 20 11  2  0  0  0  0
 21 20  1  0  0  0  0
 22 21  1  0  0  0  0
 23 28  2  0  0  0  0
 23 24  1  0  0  0  0
 24 25  2  0  0  0  0
 25 26  1  0  0  0  0
 25 31  1  0  0  0  0
 27  1  1  0  0  0  0
 27 26  2  0  0  0  0
 28 27  1  0  0  0  0
 29 23  1  0  0  0  0
 30 24  1  0  0  0  0
 31 32  1  0  0  0  0
 31 34  1  0  0  0  0
 33 31  1  0  0  0  0
M  END
>  <minimizedAffinity>
-6.20282936

$$$$

 OpenBabel03262520203D

 34 37  0  0  0  0  0  0  0  0999 V2000
   37.4020   26.2230   34.1700 C   0  0  0  0  0  0  0  0  0  0  0  0
   37.0900   25.9350   32.8440 C   0  0  0  0  0  0  0  0  0  0  0  0
   37.3770   25.0140   32.3790 H   0  0  0  0  0  0  0  0  0  0  0  0
   36.3820   26.9090   32.1420 C   0  0  0  0  0  0  0  0  0  0  0  0
   36.1570   26.6470   31.1070 H   0  0  0  0  0  0  0  0  0  0  0  0
   35.9730   28.1210   32.6580 C   0  0  0  0  0  0  0  0  0  0  0  0
   36.3140   28.3310   33.9620 C   0  0  0  0  0  0  0  0  0  0  0  0
   37.0030   27.4150   34.6910 C   0  0  0  0  0  0  0  0  0  0  0  0
   37.2600   27.6120   35.7260 H   0  0  0  0  0  0  0  0  0  0  0  0
   35.8440   29.8570   34.7490 S   0  0  0  0  0  0  0  0  0  0  0  0
   34.9700   30.7980   33.5120 C   0  0  0  0  0  0  0  0  0  0  0  0
   34.4910   32.0160   33.8310 C   0  0  0  0  0  0  0  0  0  0  0  0
   34.6390   32.4160   34.8340 H   0  0  0  0  0  0  0  0  0  0  0  0
   33.8040   32.8090   32.9370 C   0  0  0  0  0  0  0  0  0  0  0  0
   33.4460   33.7750   33.2530 H   0  0  0  0  0  0  0  0  0  0  0  0
   33.6230   32.2950   31.6730 C   0  0  0  0  0  0  0  0  0  0  0  0
   33.0950   32.8760   30.9440 H   0  0  0  0  0  0  0  0  0  0  0  0
   34.1230   31.0500   31.3740 C   0  0  0  0  0  0  0  0  0  0  0  0
   33.9370   30.7090   30.3440 H   0  0  0  0  0  0  0  0  0  0  0  0
   34.8100   30.2510   32.2620 C   0  0  0  0  0  0  0  0  0  0  0  0
   35.2700   28.9880   31.8220 N   0  0  0  0  0  0  0  0  0  0  0  0
   35.0700   28.7100   30.8390 H   0  0  0  0  0  0  0  0  0  0  0  0
   39.8230   23.6410   35.0710 C   0  0  0  0  0  0  0  0  0  0  0  0
   39.5520   23.3940   36.4390 C   0  0  0  0  0  0  0  0  0  0  0  0
   38.5130   24.1410   37.0350 C   0  0  0  0  0  0  0  0  0  0  0  0
   37.8420   25.0490   36.2590 N   0  0  0  0  0  0  0  0  0  0  0  0
   38.1390   25.2490   34.9580 C   0  0  0  0  0  0  0  0  0  0  0  0
   39.1270   24.5420   34.3790 N   0  0  0  0  0  0  0  0  0  0  0  0
   40.6060   23.1050   34.5490 H   0  0  0  0  0  0  0  0  0  0  0  0
   40.1330   22.6560   36.9790 H   0  0  0  0  0  0  0  0  0  0  0  0
   38.1950   23.9150   38.4610 C   0  0  0  0  0  0  0  0  0  0  0  0
   37.6870   25.1000   38.9330 F   0  0  0  0  0  0  0  0  0  0  0  0
   37.2600   22.9220   38.6490 F   0  0  0  0  0  0  0  0  0  0  0  0
   39.3370   23.6110   39.2050 F   0  0  0  0  0  0  0  0  0  0  0  0
  1  8  1  0  0  0  0
  1 27  1  0  0  0  0
  2  1  2  0  0  0  0
  3  2  1  0  0  0  0
  4  6  2  0  0  0  0
  4  2  1  0  0  0  0
  5  4  1  0  0  0  0
  6  7  1  0  0  0  0
  7  8  2  0  0  0  0
  7 10  1  0  0  0  0
  8  9  1  0  0  0  0
 11 12  1  0  0  0  0
 11 10  1  0  0  0  0
 12 13  1  0  0  0  0
 14 15  1  0  0  0  0
 14 12  2  0  0  0  0
 16 14  1  0  0  0  0
 17 16  1  0  0  0  0
 18 16  2  0  0  0  0
 18 20  1  0  0  0  0
 19 18  1  0  0  0  0
 20 11  2  0  0  0  0
 21 20  1  0  0  0  0
 21  6  1  0  0  0  0
 22 21  1  0  0  0  0
 23 24  1  0  0  0  0
 24 30  1  0  0  0  0
 24 25  2  0  0  0  0
 25 31  1  0  0  0  0
 26 25  1  0  0  0  0
 27 26  2  0  0  0  0
 28 27  1  0  0  0  0
 28 23  2  0  0  0  0
 29 23  1  0  0  0  0
 31 33  1  0  0  0  0
 31 32  1  0  0  0  0
 31 34  1  0  0  0  0
M  END
>  <minimizedAffinity>
-6.14841175

$$$$

 OpenBabel03262520203D

 34 37  0  0  0  0  0  0  0  0999 V2000
   38.2040   25.6450   34.8910 C   0  0  0  0  0  0  0  0  0  0  0  0
   38.7720   25.4550   33.6340 C   0  0  0  0  0  0  0  0  0  0  0  0
   39.4440   24.6460   33.4300 H   0  0  0  0  0  0  0  0  0  0  0  0
   38.4230   26.3720   32.6440 C   0  0  0  0  0  0  0  0  0  0  0  0
   38.8890   26.1890   31.6740 H   0  0  0  0  0  0  0  0  0  0  0  0
   37.5690   27.4400   32.8160 C   0  0  0  0  0  0  0  0  0  0  0  0
   37.0510   27.5620   34.0730 C   0  0  0  0  0  0  0  0  0  0  0  0
   37.3580   26.6960   35.0730 C   0  0  0  0  0  0  0  0  0  0  0  0
   36.9310   26.8200   36.0620 H   0  0  0  0  0  0  0  0  0  0  0  0
   35.9320   28.9000   34.4270 S   0  0  0  0  0  0  0  0  0  0  0  0
   35.7650   29.8160   32.9060 C   0  0  0  0  0  0  0  0  0  0  0  0
   34.9670   30.9010   32.8770 C   0  0  0  0  0  0  0  0  0  0  0  0
   34.4320   31.2090   33.7760 H   0  0  0  0  0  0  0  0  0  0  0  0
   34.7800   31.6640   31.7450 C   0  0  0  0  0  0  0  0  0  0  0  0
   34.1280   32.5210   31.7860 H   0  0  0  0  0  0  0  0  0  0  0  0
   35.4600   31.2660   30.6160 C   0  0  0  0  0  0  0  0  0  0  0  0
   35.3460   31.8290   29.7120 H   0  0  0  0  0  0  0  0  0  0  0  0
   36.2690   30.1550   30.6740 C   0  0  0  0  0  0  0  0  0  0  0  0
   36.7770   29.9020   29.7310 H   0  0  0  0  0  0  0  0  0  0  0  0
   36.4600   29.3870   31.8020 C   0  0  0  0  0  0  0  0  0  0  0  0
   37.3220   28.2680   31.7210 N   0  0  0  0  0  0  0  0  0  0  0  0
   37.7800   28.0680   30.8080 H   0  0  0  0  0  0  0  0  0  0  0  0
   37.9500   23.7770   38.0180 C   0  0  0  0  0  0  0  0  0  0  0  0
   39.1200   22.9780   38.0250 C   0  0  0  0  0  0  0  0  0  0  0  0
   39.9930   23.1060   36.9220 C   0  0  0  0  0  0  0  0  0  0  0  0
   39.6540   23.9850   35.9270 N   0  0  0  0  0  0  0  0  0  0  0  0
   38.5260   24.7240   35.9680 C   0  0  0  0  0  0  0  0  0  0  0  0
   37.6870   24.6110   37.0140 N   0  0  0  0  0  0  0  0  0  0  0  0
   37.2360   23.7310   38.8310 H   0  0  0  0  0  0  0  0  0  0  0  0
   39.3110   22.3070   38.8540 H   0  0  0  0  0  0  0  0  0  0  0  0
   41.2260   22.2910   36.8870 C   0  0  0  0  0  0  0  0  0  0  0  0
   41.1630   21.4550   37.9740 F   0  0  0  0  0  0  0  0  0  0  0  0
   41.3320   21.5320   35.7440 F   0  0  0  0  0  0  0  0  0  0  0  0
   42.3720   23.0790   37.0180 F   0  0  0  0  0  0  0  0  0  0  0  0
  1  8  1  0  0  0  0
  1 27  1  0  0  0  0
  2  1  2  0  0  0  0
  3  2  1  0  0  0  0
  4  6  2  0  0  0  0
  4  2  1  0  0  0  0
  5  4  1  0  0  0  0
  6  7  1  0  0  0  0
  7 10  1  0  0  0  0
  7  8  2  0  0  0  0
  8  9  1  0  0  0  0
 11 10  1  0  0  0  0
 12 11  1  0  0  0  0
 12 13  1  0  0  0  0
 14 15  1  0  0  0  0
 14 12  2  0  0  0  0
 16 18  2  0  0  0  0
 16 14  1  0  0  0  0
 17 16  1  0  0  0  0
 18 20  1  0  0  0  0
 19 18  1  0  0  0  0
 20 11  2  0  0  0  0
 21 20  1  0  0  0  0
 21  6  1  0  0  0  0
 22 21  1  0  0  0  0
 23 24  1  0  0  0  0
 23 29  1  0  0  0  0
 24 30  1  0  0  0  0
 25 24  2  0  0  0  0
 26 27  2  0  0  0  0
 26 25  1  0  0  0  0
 27 28  1  0  0  0  0
 28 23  2  0  0  0  0
 31 25  1  0  0  0  0
 31 34  1  0  0  0  0
 31 32  1  0  0  0  0
 33 31  1  0  0  0  0
M  END
>  <minimizedAffinity>
-6.04569578

$$$$

 OpenBabel03262520203D

 34 37  0  0  0  0  0  0  0  0999 V2000
   37.9270   27.4340   32.0190 C   0  0  0  0  0  0  0  0  0  0  0  0
   36.9330   27.8850   32.8830 C   0  0  0  0  0  0  0  0  0  0  0  0
   36.2430   28.6560   32.6030 H   0  0  0  0  0  0  0  0  0  0  0  0
   36.8760   27.2850   34.1400 C   0  0  0  0  0  0  0  0  0  0  0  0
   36.0840   27.6660   34.7870 H   0  0  0  0  0  0  0  0  0  0  0  0
   37.7210   26.2900   34.5840 C   0  0  0  0  0  0  0  0  0  0  0  0
   38.6680   25.9000   33.6820 C   0  0  0  0  0  0  0  0  0  0  0  0
   38.7670   26.4510   32.4460 C   0  0  0  0  0  0  0  0  0  0  0  0
   39.5320   26.1200   31.7520 H   0  0  0  0  0  0  0  0  0  0  0  0
   39.8220   24.6210   34.1320 S   0  0  0  0  0  0  0  0  0  0  0  0
   39.3980   24.1410   35.7970 C   0  0  0  0  0  0  0  0  0  0  0  0
   40.1160   23.1760   36.4050 C   0  0  0  0  0  0  0  0  0  0  0  0
   40.9440   22.6990   35.8800 H   0  0  0  0  0  0  0  0  0  0  0  0
   39.8570   22.7450   37.6870 C   0  0  0  0  0  0  0  0  0  0  0  0
   40.4680   21.9690   38.1180 H   0  0  0  0  0  0  0  0  0  0  0  0
   38.8090   23.3540   38.3410 C   0  0  0  0  0  0  0  0  0  0  0  0
   38.5700   23.0510   39.3400 H   0  0  0  0  0  0  0  0  0  0  0  0
   38.0940   24.3360   37.6970 C   0  0  0  0  0  0  0  0  0  0  0  0
   37.2730   24.7730   38.2860 H   0  0  0  0  0  0  0  0  0  0  0  0
   38.3470   24.7730   36.4150 C   0  0  0  0  0  0  0  0  0  0  0  0
   37.5300   25.7930   35.8730 N   0  0  0  0  0  0  0  0  0  0  0  0
   36.7660   26.1750   36.4670 H   0  0  0  0  0  0  0  0  0  0  0  0
   37.4010   29.6770   29.1850 C   0  0  0  0  0  0  0  0  0  0  0  0
   38.2440   29.1440   28.1780 C   0  0  0  0  0  0  0  0  0  0  0  0
   38.9930   27.9940   28.5080 C   0  0  0  0  0  0  0  0  0  0  0  0
   38.8580   27.4730   29.7680 N   0  0  0  0  0  0  0  0  0  0  0  0
   38.0410   28.0190   30.6930 C   0  0  0  0  0  0  0  0  0  0  0  0
   37.3220   29.1150   30.3900 N   0  0  0  0  0  0  0  0  0  0  0  0
   36.7970   30.5570   29.0030 H   0  0  0  0  0  0  0  0  0  0  0  0
   38.2900   29.6200   27.2070 H   0  0  0  0  0  0  0  0  0  0  0  0
   39.8850   27.4040   27.4880 C   0  0  0  0  0  0  0  0  0  0  0  0
   41.1460   27.4160   28.0290 F   0  0  0  0  0  0  0  0  0  0  0  0
   39.5480   26.1070   27.1690 F   0  0  0  0  0  0  0  0  0  0  0  0
   39.9120   28.1670   26.3180 F   0  0  0  0  0  0  0  0  0  0  0  0
  1  8  2  0  0  0  0
  1  2  1  0  0  0  0
  2  4  2  0  0  0  0
  3  2  1  0  0  0  0
  4  6  1  0  0  0  0
  4  5  1  0  0  0  0
  6 21  1  0  0  0  0
  7 10  1  0  0  0  0
  7  6  2  0  0  0  0
  8  7  1  0  0  0  0
  9  8  1  0  0  0  0
 10 11  1  0  0  0  0
 11 12  2  0  0  0  0
 11 20  1  0  0  0  0
 12 14  1  0  0  0  0
 13 12  1  0  0  0  0
 14 15  1  0  0  0  0
 14 16  2  0  0  0  0
 16 17  1  0  0  0  0
 18 19  1  0  0  0  0
 18 16  1  0  0  0  0
 20 18  2  0  0  0  0
 21 20  1  0  0  0  0
 21 22  1  0  0  0  0
 23 28  1  0  0  0  0
 24 25  1  0  0  0  0
 24 23  2  0  0  0  0
 25 26  2  0  0  0  0
 26 27  1  0  0  0  0
 27  1  1  0  0  0  0
 28 27  2  0  0  0  0
 29 23  1  0  0  0  0
 30 24  1  0  0  0  0
 31 32  1  0  0  0  0
 31 25  1  0  0  0  0
 33 31  1  0  0  0  0
 34 31  1  0  0  0  0
M  END
>  <minimizedAffinity>
-6.02651596

$$$$

 OpenBabel03262520203D

 34 37  0  0  0  0  0  0  0  0999 V2000
   38.0910   27.4240   31.9780 C   0  0  0  0  0  0  0  0  0  0  0  0
   37.0550   27.8520   32.8040 C   0  0  0  0  0  0  0  0  0  0  0  0
   36.3620   28.6110   32.5010 H   0  0  0  0  0  0  0  0  0  0  0  0
   36.9580   27.2430   34.0540 C   0  0  0  0  0  0  0  0  0  0  0  0
   36.1350   27.6050   34.6720 H   0  0  0  0  0  0  0  0  0  0  0  0
   37.8040   26.2610   34.5260 C   0  0  0  0  0  0  0  0  0  0  0  0
   38.7930   25.8940   33.6620 C   0  0  0  0  0  0  0  0  0  0  0  0
   38.9310   26.4540   32.4330 C   0  0  0  0  0  0  0  0  0  0  0  0
   39.7290   26.1420   31.7680 H   0  0  0  0  0  0  0  0  0  0  0  0
   39.9510   24.6330   34.1500 S   0  0  0  0  0  0  0  0  0  0  0  0
   39.4700   24.1360   35.7940 C   0  0  0  0  0  0  0  0  0  0  0  0
   40.1820   23.1800   36.4250 C   0  0  0  0  0  0  0  0  0  0  0  0
   41.0380   22.7210   35.9310 H   0  0  0  0  0  0  0  0  0  0  0  0
   39.8800   22.7360   37.6930 C   0  0  0  0  0  0  0  0  0  0  0  0
   40.4870   21.9690   38.1440 H   0  0  0  0  0  0  0  0  0  0  0  0
   38.7950   23.3220   38.3080 C   0  0  0  0  0  0  0  0  0  0  0  0
   38.5230   23.0090   39.2950 H   0  0  0  0  0  0  0  0  0  0  0  0
   38.0880   24.2940   37.6410 C   0  0  0  0  0  0  0  0  0  0  0  0
   37.2360   24.7130   38.1990 H   0  0  0  0  0  0  0  0  0  0  0  0
   38.3840   24.7440   36.3730 C   0  0  0  0  0  0  0  0  0  0  0  0
   37.5710   25.7520   35.8040 N   0  0  0  0  0  0  0  0  0  0  0  0
   36.7770   26.1170   36.3700 H   0  0  0  0  0  0  0  0  0  0  0  0
   39.0510   27.8460   28.4800 C   0  0  0  0  0  0  0  0  0  0  0  0
   38.5540   29.1320   28.1510 C   0  0  0  0  0  0  0  0  0  0  0  0
   37.8820   29.8420   29.1700 C   0  0  0  0  0  0  0  0  0  0  0  0
   37.7550   29.2480   30.3980 N   0  0  0  0  0  0  0  0  0  0  0  0
   38.2470   28.0190   30.6610 C   0  0  0  0  0  0  0  0  0  0  0  0
   38.8900   27.3330   29.6980 N   0  0  0  0  0  0  0  0  0  0  0  0
   39.5770   27.2450   27.7490 H   0  0  0  0  0  0  0  0  0  0  0  0
   38.6980   29.5270   27.1530 H   0  0  0  0  0  0  0  0  0  0  0  0
   37.3460   31.1870   28.8710 C   0  0  0  0  0  0  0  0  0  0  0  0
   36.2120   31.3260   29.6320 F   0  0  0  0  0  0  0  0  0  0  0  0
   38.2270   32.1960   29.1940 F   0  0  0  0  0  0  0  0  0  0  0  0
   36.9810   31.3140   27.5290 F   0  0  0  0  0  0  0  0  0  0  0  0
  1  8  2  0  0  0  0
  1  2  1  0  0  0  0
  2  4  2  0  0  0  0
  3  2  1  0  0  0  0
  4  6  1  0  0  0  0
  4  5  1  0  0  0  0
  6 21  1  0  0  0  0
  7 10  1  0  0  0  0
  7  6  2  0  0  0  0
  8  7  1  0  0  0  0
  9  8  1  0  0  0  0
 10 11  1  0  0  0  0
 11 20  2  0  0  0  0
 11 12  1  0  0  0  0
 12 14  2  0  0  0  0
 13 12  1  0  0  0  0
 14 15  1  0  0  0  0
 14 16  1  0  0  0  0
 16 17  1  0  0  0  0
 18 19  1  0  0  0  0
 18 16  2  0  0  0  0
 20 18  1  0  0  0  0
 21 22  1  0  0  0  0
 21 20  1  0  0  0  0
 23 28  1  0  0  0  0
 24 23  2  0  0  0  0
 24 25  1  0  0  0  0
 25 26  2  0  0  0  0
 26 27  1  0  0  0  0
 27  1  1  0  0  0  0
 28 27  2  0  0  0  0
 29 23  1  0  0  0  0
 30 24  1  0  0  0  0
 31 25  1  0  0  0  0
 31 33  1  0  0  0  0
 31 32  1  0  0  0  0
 34 31  1  0  0  0  0
M  END
>  <minimizedAffinity>
-5.84485817

$$$$

 OpenBabel03262520203D

 34 37  0  0  0  0  0  0  0  0999 V2000
   38.6840   24.8850   33.5720 C   0  0  0  0  0  0  0  0  0  0  0  0
   37.3650   24.8780   33.1270 C   0  0  0  0  0  0  0  0  0  0  0  0
   36.6130   24.2690   33.5870 H   0  0  0  0  0  0  0  0  0  0  0  0
   37.0640   25.7050   32.0450 C   0  0  0  0  0  0  0  0  0  0  0  0
   36.0210   25.6700   31.7260 H   0  0  0  0  0  0  0  0  0  0  0  0
   37.9670   26.5180   31.3930 C   0  0  0  0  0  0  0  0  0  0  0  0
   39.2380   26.4730   31.8860 C   0  0  0  0  0  0  0  0  0  0  0  0
   39.5840   25.6860   32.9360 C   0  0  0  0  0  0  0  0  0  0  0  0
   40.6040   25.6710   33.3050 H   0  0  0  0  0  0  0  0  0  0  0  0
   40.4990   27.4790   31.1320 S   0  0  0  0  0  0  0  0  0  0  0  0
   39.6950   28.3630   29.8090 C   0  0  0  0  0  0  0  0  0  0  0  0
   40.4190   29.2120   29.0520 C   0  0  0  0  0  0  0  0  0  0  0  0
   41.4810   29.3530   29.2530 H   0  0  0  0  0  0  0  0  0  0  0  0
   39.8780   29.9350   28.0120 C   0  0  0  0  0  0  0  0  0  0  0  0
   40.5090   30.5990   27.4440 H   0  0  0  0  0  0  0  0  0  0  0  0
   38.5360   29.7510   27.7670 C   0  0  0  0  0  0  0  0  0  0  0  0
   38.0720   30.2920   26.9670 H   0  0  0  0  0  0  0  0  0  0  0  0
   37.8220   28.8780   28.5540 C   0  0  0  0  0  0  0  0  0  0  0  0
   36.7560   28.7860   28.2950 H   0  0  0  0  0  0  0  0  0  0  0  0
   38.3550   28.1510   29.5960 C   0  0  0  0  0  0  0  0  0  0  0  0
   37.5040   27.2870   30.3250 N   0  0  0  0  0  0  0  0  0  0  0  0
   36.5040   27.2340   30.0440 H   0  0  0  0  0  0  0  0  0  0  0  0
   40.2860   22.2340   35.5060 C   0  0  0  0  0  0  0  0  0  0  0  0
   39.7980   22.4390   36.8200 C   0  0  0  0  0  0  0  0  0  0  0  0
   38.9040   23.5150   37.0140 C   0  0  0  0  0  0  0  0  0  0  0  0
   38.5700   24.2830   35.9290 N   0  0  0  0  0  0  0  0  0  0  0  0
   39.0640   24.0460   34.6960 C   0  0  0  0  0  0  0  0  0  0  0  0
   39.9160   23.0230   34.4990 N   0  0  0  0  0  0  0  0  0  0  0  0
   40.9740   21.4280   35.2830 H   0  0  0  0  0  0  0  0  0  0  0  0
   40.1140   21.7830   37.6210 H   0  0  0  0  0  0  0  0  0  0  0  0
   38.3700   23.7660   38.3690 C   0  0  0  0  0  0  0  0  0  0  0  0
   39.4060   23.5350   39.2380 F   0  0  0  0  0  0  0  0  0  0  0  0
   37.9250   25.0580   38.5370 F   0  0  0  0  0  0  0  0  0  0  0  0
   37.3360   22.8840   38.6910 F   0  0  0  0  0  0  0  0  0  0  0  0
  1 27  1  0  0  0  0
  2  1  1  0  0  0  0
  2  3  1  0  0  0  0
  4  2  2  0  0  0  0
  5  4  1  0  0  0  0
  6  7  2  0  0  0  0
  6  4  1  0  0  0  0
  7  8  1  0  0  0  0
  8  9  1  0  0  0  0
  8  1  2  0  0  0  0
 10  7  1  0  0  0  0
 11 10  1  0  0  0  0
 12 13  1  0  0  0  0
 12 11  2  0  0  0  0
 14 12  1  0  0  0  0
 15 14  1  0  0  0  0
 16 14  2  0  0  0  0
 16 18  1  0  0  0  0
 17 16  1  0  0  0  0
 18 20  2  0  0  0  0
 19 18  1  0  0  0  0
 20 11  1  0  0  0  0
 20 21  1  0  0  0  0
 21  6  1  0  0  0  0
 22 21  1  0  0  0  0
 23 24  1  0  0  0  0
 24 25  2  0  0  0  0
 24 30  1  0  0  0  0
 25 31  1  0  0  0  0
 26 25  1  0  0  0  0
 27 26  2  0  0  0  0
 28 27  1  0  0  0  0
 28 23  2  0  0  0  0
 29 23  1  0  0  0  0
 31 33  1  0  0  0  0
 31 34  1  0  0  0  0
 31 32  1  0  0  0  0
M  END
>  <minimizedAffinity>
-5.78696632

$$$$
