
 OpenBabel03272500353D

 34 37  0  0  0  0  0  0  0  0999 V2000
   35.8170   30.3740   46.7290 C   0  0  0  0  0  0  0  0  0  0  0  0
   36.3450   30.4390   45.4540 C   0  0  0  0  0  0  0  0  0  0  0  0
   37.3720   30.6930   45.3220 H   0  0  0  0  0  0  0  0  0  0  0  0
   35.4940   30.1660   44.4020 C   0  0  0  0  0  0  0  0  0  0  0  0
   35.9700   30.2340   43.4290 H   0  0  0  0  0  0  0  0  0  0  0  0
   34.1600   29.8320   44.5010 C   0  0  0  0  0  0  0  0  0  0  0  0
   33.7050   29.7860   45.7950 C   0  0  0  0  0  0  0  0  0  0  0  0
   34.4860   30.0430   46.8780 C   0  0  0  0  0  0  0  0  0  0  0  0
   34.0950   29.9980   47.8880 H   0  0  0  0  0  0  0  0  0  0  0  0
   32.0000   29.3690   46.1090 S   0  0  0  0  0  0  0  0  0  0  0  0
   31.2650   29.0950   44.5120 C   0  0  0  0  0  0  0  0  0  0  0  0
   29.9650   28.7580   44.3930 C   0  0  0  0  0  0  0  0  0  0  0  0
   29.3720   28.6570   45.3160 H   0  0  0  0  0  0  0  0  0  0  0  0
   29.3080   28.5260   43.2020 C   0  0  0  0  0  0  0  0  0  0  0  0
   28.2740   28.2600   43.1520 H   0  0  0  0  0  0  0  0  0  0  0  0
   30.0900   28.6640   42.0690 C   0  0  0  0  0  0  0  0  0  0  0  0
   29.6370   28.4960   41.0960 H   0  0  0  0  0  0  0  0  0  0  0  0
   31.4220   29.0100   42.1870 C   0  0  0  0  0  0  0  0  0  0  0  0
   31.9700   29.0980   41.2360 H   0  0  0  0  0  0  0  0  0  0  0  0
   32.0450   29.2340   43.3920 C   0  0  0  0  0  0  0  0  0  0  0  0
   33.3990   29.5750   43.3420 N   0  0  0  0  0  0  0  0  0  0  0  0
   33.9070   29.6550   42.4370 H   0  0  0  0  0  0  0  0  0  0  0  0
   37.2950   30.2010   50.0670 C   0  0  0  0  0  0  0  0  0  0  0  0
   38.2910   31.1900   50.0220 C   0  0  0  0  0  0  0  0  0  0  0  0
   38.4530   31.9210   48.8330 C   0  0  0  0  0  0  0  0  0  0  0  0
   37.6220   31.6120   47.8000 N   0  0  0  0  0  0  0  0  0  0  0  0
   36.6740   30.6540   47.8760 C   0  0  0  0  0  0  0  0  0  0  0  0
   36.5210   29.9560   49.0120 N   0  0  0  0  0  0  0  0  0  0  0  0
   38.9400   31.4140   50.8670 H   0  0  0  0  0  0  0  0  0  0  0  0
   39.1940   32.6820   48.7540 H   0  0  0  0  0  0  0  0  0  0  0  0
   37.1330   29.4250   51.3450 C   0  0  0  0  0  0  0  0  0  0  0  0
   35.7800   29.1650   51.5580 F   0  0  0  0  0  0  0  0  0  0  0  0
   37.9090   28.3130   51.2590 F   0  0  0  0  0  0  0  0  0  0  0  0
   37.5440   30.2560   52.3900 F   0  0  0  0  0  0  0  0  0  0  0  0
  1  8  1  0  0  0  0
  1 27  1  0  0  0  0
  2  1  2  0  0  0  0
  3  2  1  0  0  0  0
  4  6  2  0  0  0  0
  4  2  1  0  0  0  0
  5  4  1  0  0  0  0
  6  7  1  0  0  0  0
  7 10  1  0  0  0  0
  7  8  2  0  0  0  0
  8  9  1  0  0  0  0
 11 10  1  0  0  0  0
 12 11  1  0  0  0  0
 12 13  1  0  0  0  0
 14 12  2  0  0  0  0
 15 14  1  0  0  0  0
 16 18  2  0  0  0  0
 16 14  1  0  0  0  0
 17 16  1  0  0  0  0
 18 20  1  0  0  0  0
 19 18  1  0  0  0  0
 20 11  2  0  0  0  0
 21 20  1  0  0  0  0
 21  6  1  0  0  0  0
 22 21  1  0  0  0  0
 23 31  1  0  0  0  0
 24 23  1  0  0  0  0
 24 29  1  0  0  0  0
 25 24  2  0  0  0  0
 26 27  2  0  0  0  0
 26 25  1  0  0  0  0
 27 28  1  0  0  0  0
 28 23  2  0  0  0  0
 30 25  1  0  0  0  0
 31 32  1  0  0  0  0
 31 34  1  0  0  0  0
 33 31  1  0  0  0  0
M  END
>  <minimizedAffinity>
-5.78723764

>  <minimizedRMSD>
2.1262207

$$$$
