
 OpenBabel03272506413D

 19 20  0  0  0  0  0  0  0  0999 V2000
   34.1280   28.9090   49.1760 S   0  0  0  0  0  0  0  0  0  0  0  0
   37.8550   29.5840   50.3270 C   0  0  0  0  0  0  0  0  0  0  0  0
   37.9830   30.9760   50.3520 C   0  0  0  0  0  0  0  0  0  0  0  0
   36.8620   31.7550   49.9960 C   0  0  0  0  0  0  0  0  0  0  0  0
   35.7150   31.1110   49.6450 N   0  0  0  0  0  0  0  0  0  0  0  0
   35.6310   29.7590   49.6330 C   0  0  0  0  0  0  0  0  0  0  0  0
   36.6870   28.9900   49.9700 N   0  0  0  0  0  0  0  0  0  0  0  0
   38.7420   29.0550   50.6100 H   0  0  0  0  0  0  0  0  0  0  0  0
   38.8970   31.4800   50.6320 H   0  0  0  0  0  0  0  0  0  0  0  0
   36.9040   32.8220   49.9970 H   0  0  0  0  0  0  0  0  0  0  0  0
   33.1430   26.2000   47.7610 Cl  0  0  0  0  0  0  0  0  0  0  0  0
   33.7380   27.4620   46.7330 C   0  0  0  0  0  0  0  0  0  0  0  0
   34.1400   28.5890   47.4180 C   0  0  0  0  0  0  0  0  0  0  0  0
   34.6450   29.6890   46.7150 C   0  0  0  0  0  0  0  0  0  0  0  0
   34.9940   30.6310   47.1200 H   0  0  0  0  0  0  0  0  0  0  0  0
   34.7430   29.6540   45.3200 C   0  0  0  0  0  0  0  0  0  0  0  0
   35.1250   30.4750   44.7280 H   0  0  0  0  0  0  0  0  0  0  0  0
   34.3370   28.5210   44.6470 C   0  0  0  0  0  3  0  0  0  0  0  0
   33.8440   27.4470   45.3590 C   0  0  0  0  0  3  0  0  0  0  0  0
  1  6  1  0  0  0  0
  2  3  1  0  0  0  0
  2  8  1  0  0  0  0
  3  9  1  0  0  0  0
  4 10  1  0  0  0  0
  4  3  2  0  0  0  0
  5  4  1  0  0  0  0
  6  5  2  0  0  0  0
  6  7  1  0  0  0  0
  7  2  2  0  0  0  0
 12 13  1  0  0  0  0
 12 11  1  0  0  0  0
 13  1  1  0  0  0  0
 14 15  1  0  0  0  0
 14 13  2  0  0  0  0
 16 14  1  0  0  0  0
 17 16  1  0  0  0  0
 18 16  2  0  0  0  0
 18 19  1  0  0  0  0
 19 12  2  0  0  0  0
M  END
>  <minimizedAffinity>
-3.91457391

>  <minimizedRMSD>
3.61475563

$$$$
