
 OpenBabel03262522023D

 39 42  0  0  1  0  0  0  0  0999 V2000
   34.4190   29.2170   48.8800 C   0  0  2  0  0  0  0  0  0  0  0  0
   35.1270   28.4510   49.9490 C   0  0  0  0  0  0  0  0  0  0  0  0
   36.3230   29.1690   50.3460 N   0  0  0  0  0  0  0  0  0  0  0  0
   37.3440   29.8460   51.0880 C   0  0  0  0  0  0  0  0  0  0  0  0
   37.6580   30.0010   52.2860 O   0  0  0  0  0  0  0  0  0  0  0  0
   37.9980   30.3750   49.8950 C   0  0  1  0  0  0  0  0  0  0  0  0
   37.1060   29.4130   49.1620 C   0  0  2  0  0  0  0  0  0  0  0  0
   35.8020   30.1920   48.1530 S   0  0  0  0  0  0  0  0  0  0  0  0
   34.4620   28.3610   50.8250 H   0  0  0  0  0  0  0  0  0  0  0  0
   35.3750   27.4220   49.6070 H   0  0  0  0  0  0  0  0  0  0  0  0
   39.0850   30.1220   49.7330 H   0  0  0  0  0  0  0  0  0  0  0  0
   37.5790   28.5400   48.7150 H   0  0  0  0  0  0  0  0  0  0  0  0
   33.2870   30.0730   49.3120 C   0  0  0  0  0  0  0  0  0  0  0  0
   33.7750   30.9150   49.9220 H   0  0  0  0  0  0  0  0  0  0  0  0
   32.8050   30.6060   48.4930 H   0  0  0  0  0  0  0  0  0  0  0  0
   32.6550   29.5700   50.0420 H   0  0  0  0  0  0  0  0  0  0  0  0
   34.0350   28.2400   47.7580 C   0  0  0  0  0  0  0  0  0  0  0  0
   34.8920   28.1950   47.0280 H   0  0  0  0  0  0  0  0  0  0  0  0
   34.0000   27.2340   48.2370 H   0  0  0  0  0  0  0  0  0  0  0  0
   31.4150   26.6820   48.5630 Cl  0  0  0  0  0  0  0  0  0  0  0  0
   31.6010   27.9640   47.3810 C   0  0  0  0  0  0  0  0  0  0  0  0
   32.7960   28.5620   47.0630 C   0  0  0  0  0  0  0  0  0  0  0  0
   32.7860   29.5270   46.0750 C   0  0  0  0  0  0  0  0  0  0  0  0
   33.7270   30.0060   45.8100 H   0  0  0  0  0  0  0  0  0  0  0  0
   31.6140   29.9020   45.4060 C   0  0  0  0  0  0  0  0  0  0  0  0
   31.7080   30.6660   44.6490 H   0  0  0  0  0  0  0  0  0  0  0  0
   30.4430   29.2750   45.7620 C   0  0  0  0  0  3  0  0  0  0  0  0
   30.4300   28.3130   46.7410 C   0  0  0  0  0  3  0  0  0  0  0  0
   37.8010   31.8090   49.6290 C   0  0  0  0  0  0  0  0  0  0  0  0
   36.8420   32.3230   50.2710 O   0  0  0  0  0  0  0  0  0  0  0  0
   38.6270   32.5650   48.7240 C   0  0  0  0  0  0  0  0  0  0  0  0
   39.1420   33.7700   49.1750 C   0  0  0  0  0  0  0  0  0  0  0  0
   39.9510   34.5200   48.2930 C   0  0  0  0  0  0  0  0  0  0  0  0
   40.1760   34.0080   47.0440 N   0  0  0  0  0  0  0  0  0  0  0  0
   39.6620   32.8450   46.6490 C   0  0  0  0  0  0  0  0  0  0  0  0
   38.8880   32.1180   47.4830 N   0  0  0  0  0  0  0  0  0  0  0  0
   38.9450   34.1400   50.1610 H   0  0  0  0  0  0  0  0  0  0  0  0
   40.3590   35.4650   48.6340 H   0  0  0  0  0  0  0  0  0  0  0  0
   39.8730   32.4760   45.6380 H   0  0  0  0  0  0  0  0  0  0  0  0
  1 17  1  6  0  0  0
  1 13  1  0  0  0  0
  1  2  1  0  0  0  0
  2  3  1  0  0  0  0
  2  9  1  0  0  0  0
  3  4  1  0  0  0  0
  4  5  2  0  0  0  0
  6 11  1  6  0  0  0
  6  4  1  0  0  0  0
  7 12  1  6  0  0  0
  7  6  1  0  0  0  0
  7  3  1  0  0  0  0
  8  1  1  0  0  0  0
  8  7  1  0  0  0  0
 10  2  1  0  0  0  0
 13 14  1  0  0  0  0
 13 16  1  0  0  0  0
 15 13  1  0  0  0  0
 17 19  1  0  0  0  0
 18 17  1  0  0  0  0
 21 20  1  0  0  0  0
 22 21  1  0  0  0  0
 22 17  1  0  0  0  0
 23 22  2  0  0  0  0
 24 23  1  0  0  0  0
 25 27  2  0  0  0  0
 25 23  1  0  0  0  0
 26 25  1  0  0  0  0
 27 28  1  0  0  0  0
 28 21  2  0  0  0  0
 29  6  1  0  0  0  0
 29 30  2  0  0  0  0
 31 32  1  0  0  0  0
 31 29  1  0  0  0  0
 32 37  1  0  0  0  0
 33 38  1  0  0  0  0
 33 32  2  0  0  0  0
 34 33  1  0  0  0  0
 35 34  2  0  0  0  0
 35 36  1  0  0  0  0
 36 31  2  0  0  0  0
 39 35  1  0  0  0  0
M  END
>  <minimizedAffinity>
-5.26028347

>  <minimizedRMSD>
1.02276289

$$$$
