
 OpenBabel03272506413D

 19 20  0  0  0  0  0  0  0  0999 V2000
   32.8600   28.6020   47.1660 S   0  0  0  0  0  0  0  0  0  0  0  0
   35.1290   29.1100   50.3710 C   0  0  0  0  0  0  0  0  0  0  0  0
   36.0360   30.1150   50.0200 C   0  0  0  0  0  0  0  0  0  0  0  0
   35.9490   30.6700   48.7260 C   0  0  0  0  0  0  0  0  0  0  0  0
   34.9870   30.1990   47.8860 N   0  0  0  0  0  0  0  0  0  0  0  0
   34.1250   29.2230   48.2640 C   0  0  0  0  0  0  0  0  0  0  0  0
   34.1870   28.6750   49.4950 N   0  0  0  0  0  0  0  0  0  0  0  0
   35.2510   28.7350   51.3660 H   0  0  0  0  0  0  0  0  0  0  0  0
   36.7970   30.4840   50.6930 H   0  0  0  0  0  0  0  0  0  0  0  0
   36.6160   31.4400   48.4060 H   0  0  0  0  0  0  0  0  0  0  0  0
   30.7420   26.6990   48.6520 Cl  0  0  0  0  0  0  0  0  0  0  0  0
   32.0290   25.9300   47.7840 C   0  0  0  0  0  0  0  0  0  0  0  0
   32.8930   26.8160   47.1750 C   0  0  0  0  0  0  0  0  0  0  0  0
   33.9820   26.3330   46.4380 C   0  0  0  0  0  0  0  0  0  0  0  0
   34.7330   26.9100   45.9130 H   0  0  0  0  0  0  0  0  0  0  0  0
   34.1990   24.9580   46.3150 C   0  0  0  0  0  0  0  0  0  0  0  0
   35.0240   24.5330   45.7580 H   0  0  0  0  0  0  0  0  0  0  0  0
   33.3270   24.0820   46.9280 C   0  0  0  0  0  3  0  0  0  0  0  0
   32.2620   24.5780   47.6490 C   0  0  0  0  0  3  0  0  0  0  0  0
  1 13  1  0  0  0  0
  1  6  1  0  0  0  0
  2  8  1  0  0  0  0
  3  2  1  0  0  0  0
  3  9  1  0  0  0  0
  4  3  2  0  0  0  0
  5  6  2  0  0  0  0
  5  4  1  0  0  0  0
  6  7  1  0  0  0  0
  7  2  2  0  0  0  0
 10  4  1  0  0  0  0
 12 11  1  0  0  0  0
 13 12  2  0  0  0  0
 14 13  1  0  0  0  0
 15 14  1  0  0  0  0
 16 14  2  0  0  0  0
 16 18  1  0  0  0  0
 17 16  1  0  0  0  0
 18 19  2  0  0  0  0
 19 12  1  0  0  0  0
M  END
>  <minimizedAffinity>
-3.43853068

>  <minimizedRMSD>
3.03332663

$$$$
