
 OpenBabel03262522023D

 39 42  0  0  1  0  0  0  0  0999 V2000
   34.4150   29.2170   48.8810 C   0  0  2  0  0  0  0  0  0  0  0  0
   35.1240   28.4510   49.9500 C   0  0  0  0  0  0  0  0  0  0  0  0
   36.3200   29.1690   50.3460 N   0  0  0  0  0  0  0  0  0  0  0  0
   37.3420   29.8460   51.0870 C   0  0  0  0  0  0  0  0  0  0  0  0
   37.6570   30.0010   52.2850 O   0  0  0  0  0  0  0  0  0  0  0  0
   37.9960   30.3740   49.8940 C   0  0  1  0  0  0  0  0  0  0  0  0
   37.1040   29.4130   49.1610 C   0  0  2  0  0  0  0  0  0  0  0  0
   35.7990   30.1920   48.1530 S   0  0  0  0  0  0  0  0  0  0  0  0
   34.4600   28.3610   50.8260 H   0  0  0  0  0  0  0  0  0  0  0  0
   35.3720   27.4220   49.6080 H   0  0  0  0  0  0  0  0  0  0  0  0
   39.0830   30.1210   49.7310 H   0  0  0  0  0  0  0  0  0  0  0  0
   37.5760   28.5390   48.7140 H   0  0  0  0  0  0  0  0  0  0  0  0
   33.2840   30.0740   49.3140 C   0  0  0  0  0  0  0  0  0  0  0  0
   33.7730   30.9160   49.9230 H   0  0  0  0  0  0  0  0  0  0  0  0
   32.8020   30.6070   48.4950 H   0  0  0  0  0  0  0  0  0  0  0  0
   32.6530   29.5710   50.0440 H   0  0  0  0  0  0  0  0  0  0  0  0
   34.0310   28.2410   47.7590 C   0  0  0  0  0  0  0  0  0  0  0  0
   34.8880   28.1950   47.0290 H   0  0  0  0  0  0  0  0  0  0  0  0
   33.9960   27.2350   48.2390 H   0  0  0  0  0  0  0  0  0  0  0  0
   31.4120   26.6780   48.5620 Cl  0  0  0  0  0  0  0  0  0  0  0  0
   31.5970   27.9630   47.3820 C   0  0  0  0  0  0  0  0  0  0  0  0
   32.7920   28.5630   47.0650 C   0  0  0  0  0  0  0  0  0  0  0  0
   32.7810   29.5290   46.0790 C   0  0  0  0  0  0  0  0  0  0  0  0
   33.7220   30.0100   45.8150 H   0  0  0  0  0  0  0  0  0  0  0  0
   31.6090   29.9040   45.4100 C   0  0  0  0  0  0  0  0  0  0  0  0
   31.7020   30.6700   44.6540 H   0  0  0  0  0  0  0  0  0  0  0  0
   30.4380   29.2750   45.7650 C   0  0  0  0  0  3  0  0  0  0  0  0
   30.4260   28.3120   46.7430 C   0  0  0  0  0  3  0  0  0  0  0  0
   37.8000   31.8080   49.6280 C   0  0  0  0  0  0  0  0  0  0  0  0
   36.8400   32.3220   50.2700 O   0  0  0  0  0  0  0  0  0  0  0  0
   38.6260   32.5640   48.7230 C   0  0  0  0  0  0  0  0  0  0  0  0
   39.1410   33.7690   49.1740 C   0  0  0  0  0  0  0  0  0  0  0  0
   39.9510   34.5180   48.2920 C   0  0  0  0  0  0  0  0  0  0  0  0
   40.1760   34.0070   47.0440 N   0  0  0  0  0  0  0  0  0  0  0  0
   39.6610   32.8440   46.6480 C   0  0  0  0  0  0  0  0  0  0  0  0
   38.8860   32.1170   47.4810 N   0  0  0  0  0  0  0  0  0  0  0  0
   38.9450   34.1390   50.1600 H   0  0  0  0  0  0  0  0  0  0  0  0
   40.3590   35.4630   48.6330 H   0  0  0  0  0  0  0  0  0  0  0  0
   39.8710   32.4750   45.6360 H   0  0  0  0  0  0  0  0  0  0  0  0
  1 17  1  6  0  0  0
  1 13  1  0  0  0  0
  1  2  1  0  0  0  0
  2  3  1  0  0  0  0
  2  9  1  0  0  0  0
  3  4  1  0  0  0  0
  4  5  2  0  0  0  0
  6 11  1  6  0  0  0
  6  4  1  0  0  0  0
  7 12  1  6  0  0  0
  7  6  1  0  0  0  0
  7  3  1  0  0  0  0
  8  1  1  0  0  0  0
  8  7  1  0  0  0  0
 10  2  1  0  0  0  0
 13 14  1  0  0  0  0
 13 16  1  0  0  0  0
 15 13  1  0  0  0  0
 17 19  1  0  0  0  0
 18 17  1  0  0  0  0
 21 20  1  0  0  0  0
 22 21  1  0  0  0  0
 22 17  1  0  0  0  0
 23 22  2  0  0  0  0
 24 23  1  0  0  0  0
 25 27  2  0  0  0  0
 25 23  1  0  0  0  0
 26 25  1  0  0  0  0
 27 28  1  0  0  0  0
 28 21  2  0  0  0  0
 29  6  1  0  0  0  0
 29 30  2  0  0  0  0
 31 32  1  0  0  0  0
 31 29  1  0  0  0  0
 32 37  1  0  0  0  0
 33 38  1  0  0  0  0
 33 32  2  0  0  0  0
 34 33  1  0  0  0  0
 35 34  2  0  0  0  0
 35 36  1  0  0  0  0
 36 31  2  0  0  0  0
 39 35  1  0  0  0  0
M  END
>  <minimizedAffinity>
-5.2581687

>  <minimizedRMSD>
1.09584188

$$$$
