
 OpenBabel03262522023D

 39 42  0  0  1  0  0  0  0  0999 V2000
   34.4270   29.2000   48.8630 C   0  0  2  0  0  0  0  0  0  0  0  0
   35.1320   28.4400   49.9390 C   0  0  0  0  0  0  0  0  0  0  0  0
   36.3220   29.1650   50.3410 N   0  0  0  0  0  0  0  0  0  0  0  0
   37.3360   29.8490   51.0860 C   0  0  0  0  0  0  0  0  0  0  0  0
   37.6430   30.0090   52.2860 O   0  0  0  0  0  0  0  0  0  0  0  0
   37.9960   30.3760   49.8960 C   0  0  1  0  0  0  0  0  0  0  0  0
   37.1120   29.4080   49.1600 C   0  0  2  0  0  0  0  0  0  0  0  0
   35.8110   30.1780   48.1410 S   0  0  0  0  0  0  0  0  0  0  0  0
   34.4630   28.3510   50.8120 H   0  0  0  0  0  0  0  0  0  0  0  0
   35.3870   27.4110   49.6030 H   0  0  0  0  0  0  0  0  0  0  0  0
   39.0850   30.1270   49.7400 H   0  0  0  0  0  0  0  0  0  0  0  0
   37.5910   28.5340   48.7200 H   0  0  0  0  0  0  0  0  0  0  0  0
   33.2890   30.0530   49.2860 C   0  0  0  0  0  0  0  0  0  0  0  0
   33.7700   30.8990   49.8950 H   0  0  0  0  0  0  0  0  0  0  0  0
   32.8100   30.5810   48.4620 H   0  0  0  0  0  0  0  0  0  0  0  0
   32.6550   29.5490   50.0140 H   0  0  0  0  0  0  0  0  0  0  0  0
   34.0530   28.2170   47.7430 C   0  0  0  0  0  0  0  0  0  0  0  0
   34.9170   28.1700   47.0210 H   0  0  0  0  0  0  0  0  0  0  0  0
   34.0160   27.2140   48.2270 H   0  0  0  0  0  0  0  0  0  0  0  0
   31.4170   26.7020   48.5740 Cl  0  0  0  0  0  0  0  0  0  0  0  0
   31.6180   27.9550   47.3630 C   0  0  0  0  0  0  0  0  0  0  0  0
   32.8210   28.5350   47.0360 C   0  0  0  0  0  0  0  0  0  0  0  0
   32.8230   29.4760   46.0260 C   0  0  0  0  0  0  0  0  0  0  0  0
   33.7690   29.9410   45.7550 H   0  0  0  0  0  0  0  0  0  0  0  0
   31.6570   29.8460   45.3440 C   0  0  0  0  0  0  0  0  0  0  0  0
   31.7610   30.5920   44.5690 H   0  0  0  0  0  0  0  0  0  0  0  0
   30.4790   29.2390   45.7090 C   0  0  0  0  0  3  0  0  0  0  0  0
   30.4530   28.2990   46.7100 C   0  0  0  0  0  3  0  0  0  0  0  0
   37.7950   31.8080   49.6230 C   0  0  0  0  0  0  0  0  0  0  0  0
   36.8290   32.3200   50.2570 O   0  0  0  0  0  0  0  0  0  0  0  0
   38.6230   32.5640   48.7200 C   0  0  0  0  0  0  0  0  0  0  0  0
   39.1390   33.7680   49.1740 C   0  0  0  0  0  0  0  0  0  0  0  0
   39.9500   34.5170   48.2930 C   0  0  0  0  0  0  0  0  0  0  0  0
   40.1770   34.0070   47.0450 N   0  0  0  0  0  0  0  0  0  0  0  0
   39.6620   32.8450   46.6470 C   0  0  0  0  0  0  0  0  0  0  0  0
   38.8850   32.1180   47.4780 N   0  0  0  0  0  0  0  0  0  0  0  0
   38.9420   34.1370   50.1600 H   0  0  0  0  0  0  0  0  0  0  0  0
   40.3600   35.4610   48.6370 H   0  0  0  0  0  0  0  0  0  0  0  0
   39.8730   32.4780   45.6350 H   0  0  0  0  0  0  0  0  0  0  0  0
  1 17  1  6  0  0  0
  1 13  1  0  0  0  0
  1  2  1  0  0  0  0
  2  3  1  0  0  0  0
  2  9  1  0  0  0  0
  3  4  1  0  0  0  0
  4  5  2  0  0  0  0
  6 11  1  6  0  0  0
  6  4  1  0  0  0  0
  7 12  1  6  0  0  0
  7  6  1  0  0  0  0
  7  3  1  0  0  0  0
  8  1  1  0  0  0  0
  8  7  1  0  0  0  0
 10  2  1  0  0  0  0
 13 14  1  0  0  0  0
 13 16  1  0  0  0  0
 15 13  1  0  0  0  0
 17 19  1  0  0  0  0
 18 17  1  0  0  0  0
 21 20  1  0  0  0  0
 22 21  1  0  0  0  0
 22 17  1  0  0  0  0
 23 22  2  0  0  0  0
 24 23  1  0  0  0  0
 25 27  2  0  0  0  0
 25 23  1  0  0  0  0
 26 25  1  0  0  0  0
 27 28  1  0  0  0  0
 28 21  2  0  0  0  0
 29  6  1  0  0  0  0
 29 30  2  0  0  0  0
 31 32  1  0  0  0  0
 31 29  1  0  0  0  0
 32 37  1  0  0  0  0
 33 38  1  0  0  0  0
 33 32  2  0  0  0  0
 34 33  1  0  0  0  0
 35 34  2  0  0  0  0
 35 36  1  0  0  0  0
 36 31  2  0  0  0  0
 39 35  1  0  0  0  0
M  END
>  <minimizedAffinity>
-5.2533989

>  <minimizedRMSD>
1.16135859

$$$$
