
 OpenBabel03272504193D

 27 28  0  0  0  0  0  0  0  0999 V2000
   39.6990   33.0590   46.2330 O   0  0  0  0  0  0  0  0  0  0  0  0
   38.5450   32.1540   45.8610 P   0  0  2  0  0  0  0  0  0  0  0  0
   37.5830   33.0100   44.7300 O   0  0  0  0  0  0  0  0  0  0  0  0
   38.1350   33.5030   44.0900 H   0  0  0  0  0  0  0  0  0  0  0  0
   37.6220   31.7930   47.2200 O   0  0  0  0  0  0  0  0  0  0  0  0
   38.4250   31.1270   48.1100 C   0  0  0  0  0  0  0  0  0  0  0  0
   39.0300   30.2950   47.6460 H   0  0  0  0  0  0  0  0  0  0  0  0
   39.2130   31.8200   48.5180 H   0  0  0  0  0  0  0  0  0  0  0  0
   37.6820   30.5430   49.2530 C   0  0  0  0  0  0  0  0  0  0  0  0
   36.5570   29.7900   48.9580 C   0  0  0  0  0  0  0  0  0  0  0  0
   35.8300   29.2210   50.0150 C   0  0  0  0  0  0  0  0  0  0  0  0
   36.2830   29.4510   51.2740 N   0  0  0  0  0  0  0  0  0  0  0  0
   37.3780   30.1860   51.5410 C   0  0  0  0  0  0  0  0  0  0  0  0
   38.0660   30.7240   50.5260 N   0  0  0  0  0  0  0  0  0  0  0  0
   36.1610   29.5830   47.9690 H   0  0  0  0  0  0  0  0  0  0  0  0
   34.9550   28.6280   49.8830 H   0  0  0  0  0  0  0  0  0  0  0  0
   37.7420   30.3700   52.5390 H   0  0  0  0  0  0  0  0  0  0  0  0
   39.1640   30.7700   45.1300 O   0  0  0  0  0  0  0  0  0  0  0  0
   40.7320   29.8940   42.7940 Cl  0  0  0  0  0  0  0  0  0  0  0  0
   39.0450   29.5980   43.1190 C   0  0  0  0  0  0  0  0  0  0  0  0
   38.3690   30.0460   44.2510 C   0  0  0  0  0  0  0  0  0  0  0  0
   37.0160   29.7610   44.4290 C   0  0  0  0  0  0  0  0  0  0  0  0
   36.5590   30.1420   45.3320 H   0  0  0  0  0  0  0  0  0  0  0  0
   36.3890   29.0250   43.4460 C   0  0  0  0  0  0  0  0  0  0  0  0
   35.3360   28.8470   43.6610 H   0  0  0  0  0  0  0  0  0  0  0  0
   37.0470   28.5760   42.3210 C   0  0  0  0  0  0  0  0  0  0  0  0
   38.3860   28.8620   42.1500 C   0  0  0  0  0  0  0  0  0  0  0  0
  2  1  2  1  0  0  0
  2  5  1  0  0  0  0
  3  2  1  0  0  0  0
  4  3  1  0  0  0  0
  5  6  1  0  0  0  0
  6  8  1  0  0  0  0
  6  9  1  0  0  0  0
  7  6  1  0  0  0  0
  9 14  1  0  0  0  0
 10  9  2  0  0  0  0
 10 11  1  0  0  0  0
 11 12  2  0  0  0  0
 12 13  1  0  0  0  0
 13 17  1  0  0  0  0
 14 13  2  0  0  0  0
 15 10  1  0  0  0  0
 16 11  1  0  0  0  0
 18  2  1  0  0  0  0
 19 20  1  0  0  0  0
 20 21  1  0  0  0  0
 21 22  2  0  0  0  0
 21 18  1  0  0  0  0
 22 23  1  0  0  0  0
 24 25  1  0  0  0  0
 24 22  1  0  0  0  0
 26 24  2  0  0  0  0
 27 26  1  0  0  0  0
 27 20  2  0  0  0  0
M  END
>  <minimizedAffinity>
-4.73088551

>  <minimizedRMSD>
6.98940325

$$$$
