
 OpenBabel03262522203D

 19 20  0  0  0  0  0  0  0  0999 V2000
   38.3390   25.1100   33.4540 O   0  0  0  0  0  0  0  0  0  0  0  0
   36.7340   26.4120   32.3650 C   0  0  0  0  0  0  0  0  0  0  0  0
   37.2630   25.1140   32.5950 C   0  0  0  0  0  0  0  0  0  0  0  0
   36.6510   24.0490   31.9490 C   0  0  0  0  0  0  0  0  0  0  0  0
   35.6010   24.3010   31.1470 N   0  0  0  0  0  0  0  0  0  0  0  0
   35.1210   25.5320   30.9440 C   0  0  0  0  0  0  0  0  0  0  0  0
   35.6710   26.6230   31.5460 N   0  0  0  0  0  0  0  0  0  0  0  0
   37.1030   27.3360   32.7960 H   0  0  0  0  0  0  0  0  0  0  0  0
   37.1040   23.0980   32.1710 H   0  0  0  0  0  0  0  0  0  0  0  0
   34.2630   25.6550   30.2770 H   0  0  0  0  0  0  0  0  0  0  0  0
   38.1800   27.1810   35.6550 Cl  0  0  0  0  0  0  0  0  0  0  0  0
   38.1360   25.4360   35.8250 C   0  0  0  0  0  0  0  0  0  0  0  0
   38.2160   24.5880   34.7480 C   0  0  0  0  0  0  0  0  0  0  0  0
   38.1800   23.2110   34.8970 C   0  0  0  0  0  0  0  0  0  0  0  0
   38.2480   22.6010   34.0080 H   0  0  0  0  0  0  0  0  0  0  0  0
   38.0590   22.6820   36.1750 C   0  0  0  0  0  0  0  0  0  0  0  0
   38.0290   21.6000   36.3080 H   0  0  0  0  0  0  0  0  0  0  0  0
   37.9750   23.4970   37.2890 C   0  0  0  0  0  3  0  0  0  0  0  0
   38.0160   24.8720   37.0800 C   0  0  0  0  0  3  0  0  0  0  0  0
  1 13  1  0  0  0  0
  2  3  1  0  0  0  0
  2  8  1  0  0  0  0
  3  1  1  0  0  0  0
  4  9  1  0  0  0  0
  4  3  2  0  0  0  0
  5  4  1  0  0  0  0
  6  5  2  0  0  0  0
  6  7  1  0  0  0  0
  7  2  2  0  0  0  0
 10  6  1  0  0  0  0
 11 12  1  0  0  0  0
 12 19  1  0  0  0  0
 13 14  1  0  0  0  0
 13 12  2  0  0  0  0
 14 16  2  0  0  0  0
 15 14  1  0  0  0  0
 16 17  1  0  0  0  0
 16 18  1  0  0  0  0
 19 18  2  0  0  0  0
M  END
>  <minimizedAffinity>
-4.14341593

$$$$

 OpenBabel03262522203D

 19 20  0  0  0  0  0  0  0  0999 V2000
   39.0000   24.7230   34.6270 O   0  0  0  0  0  0  0  0  0  0  0  0
   37.3960   25.3390   33.0450 C   0  0  0  0  0  0  0  0  0  0  0  0
   38.0920   24.2830   33.6900 C   0  0  0  0  0  0  0  0  0  0  0  0
   37.7810   22.9840   33.3100 C   0  0  0  0  0  0  0  0  0  0  0  0
   36.8470   22.7990   32.3600 N   0  0  0  0  0  0  0  0  0  0  0  0
   36.2050   23.8100   31.7660 C   0  0  0  0  0  0  0  0  0  0  0  0
   36.4590   25.1080   32.0890 N   0  0  0  0  0  0  0  0  0  0  0  0
   37.5290   26.3990   33.2340 H   0  0  0  0  0  0  0  0  0  0  0  0
   38.3470   22.2380   33.8410 H   0  0  0  0  0  0  0  0  0  0  0  0
   35.4590   23.5770   31.0010 H   0  0  0  0  0  0  0  0  0  0  0  0
   41.0750   22.6210   35.2880 Cl  0  0  0  0  0  0  0  0  0  0  0  0
   39.8510   23.2860   36.3540 C   0  0  0  0  0  0  0  0  0  0  0  0
   38.9560   24.2430   35.9430 C   0  0  0  0  0  0  0  0  0  0  0  0
   37.9950   24.7610   36.7960 C   0  0  0  0  0  0  0  0  0  0  0  0
   37.3210   25.5120   36.4080 H   0  0  0  0  0  0  0  0  0  0  0  0
   37.9420   24.2930   38.1020 C   0  0  0  0  0  0  0  0  0  0  0  0
   37.1910   24.6900   38.7850 H   0  0  0  0  0  0  0  0  0  0  0  0
   38.8230   23.3300   38.5610 C   0  0  0  0  0  3  0  0  0  0  0  0
   39.7670   22.8470   37.6600 C   0  0  0  0  0  3  0  0  0  0  0  0
  1 13  1  0  0  0  0
  2  8  1  0  0  0  0
  2  3  1  0  0  0  0
  3  1  1  0  0  0  0
  4  3  2  0  0  0  0
  4  9  1  0  0  0  0
  5  4  1  0  0  0  0
  6  7  1  0  0  0  0
  6  5  2  0  0  0  0
  7  2  2  0  0  0  0
 10  6  1  0  0  0  0
 11 12  1  0  0  0  0
 12 19  1  0  0  0  0
 13 12  2  0  0  0  0
 13 14  1  0  0  0  0
 14 16  2  0  0  0  0
 15 14  1  0  0  0  0
 16 18  1  0  0  0  0
 16 17  1  0  0  0  0
 19 18  2  0  0  0  0
M  END
>  <minimizedAffinity>
-4.12897968

$$$$

 OpenBabel03262522203D

 19 20  0  0  0  0  0  0  0  0999 V2000
   38.3530   24.5960   33.2520 O   0  0  0  0  0  0  0  0  0  0  0  0
   38.0610   25.0730   35.5190 C   0  0  0  0  0  0  0  0  0  0  0  0
   38.2040   24.0770   34.5180 C   0  0  0  0  0  0  0  0  0  0  0  0
   38.1780   22.7500   34.9260 C   0  0  0  0  0  0  0  0  0  0  0  0
   38.0190   22.4830   36.2350 N   0  0  0  0  0  0  0  0  0  0  0  0
   37.8850   23.4390   37.1600 C   0  0  0  0  0  0  0  0  0  0  0  0
   37.9020   24.7600   36.8320 N   0  0  0  0  0  0  0  0  0  0  0  0
   38.0610   26.1450   35.3560 H   0  0  0  0  0  0  0  0  0  0  0  0
   38.2920   22.0520   34.1150 H   0  0  0  0  0  0  0  0  0  0  0  0
   37.7590   23.1400   38.2050 H   0  0  0  0  0  0  0  0  0  0  0  0
   37.7030   27.5270   32.8760 Cl  0  0  0  0  0  0  0  0  0  0  0  0
   36.8440   26.1490   32.2120 C   0  0  0  0  0  0  0  0  0  0  0  0
   37.2330   24.8540   32.4500 C   0  0  0  0  0  0  0  0  0  0  0  0
   36.5470   23.7740   31.9190 C   0  0  0  0  0  0  0  0  0  0  0  0
   36.9060   22.7800   32.1460 H   0  0  0  0  0  0  0  0  0  0  0  0
   35.4350   24.0170   31.1230 C   0  0  0  0  0  0  0  0  0  0  0  0
   34.8840   23.1780   30.6980 H   0  0  0  0  0  0  0  0  0  0  0  0
   35.0070   25.3050   30.8550 C   0  0  0  0  0  3  0  0  0  0  0  0
   35.7350   26.3500   31.4150 C   0  0  0  0  0  3  0  0  0  0  0  0
  1  3  1  0  0  0  0
  2  7  1  0  0  0  0
  3  4  1  0  0  0  0
  3  2  2  0  0  0  0
  4  5  2  0  0  0  0
  5  6  1  0  0  0  0
  6 10  1  0  0  0  0
  7  6  2  0  0  0  0
  8  2  1  0  0  0  0
  9  4  1  0  0  0  0
 12 13  1  0  0  0  0
 12 11  1  0  0  0  0
 13  1  1  0  0  0  0
 14 15  1  0  0  0  0
 14 13  2  0  0  0  0
 16 14  1  0  0  0  0
 17 16  1  0  0  0  0
 18 16  2  0  0  0  0
 18 19  1  0  0  0  0
 19 12  2  0  0  0  0
M  END
>  <minimizedAffinity>
-4.04923439

$$$$

 OpenBabel03262522203D

 19 20  0  0  0  0  0  0  0  0999 V2000
   38.6790   23.0140   36.2290 O   0  0  0  0  0  0  0  0  0  0  0  0
   36.7660   21.6780   36.3340 C   0  0  0  0  0  0  0  0  0  0  0  0
   37.7560   22.2820   35.5150 C   0  0  0  0  0  0  0  0  0  0  0  0
   37.6750   22.0660   34.1460 C   0  0  0  0  0  0  0  0  0  0  0  0
   36.6710   21.3050   33.6740 N   0  0  0  0  0  0  0  0  0  0  0  0
   35.7490   20.7470   34.4640 C   0  0  0  0  0  0  0  0  0  0  0  0
   35.7680   20.9150   35.8160 N   0  0  0  0  0  0  0  0  0  0  0  0
   36.6970   21.7540   37.4140 H   0  0  0  0  0  0  0  0  0  0  0  0
   38.4570   22.5540   33.5910 H   0  0  0  0  0  0  0  0  0  0  0  0
   34.9640   20.1410   34.0030 H   0  0  0  0  0  0  0  0  0  0  0  0
   41.1620   23.4550   34.5590 Cl  0  0  0  0  0  0  0  0  0  0  0  0
   40.0400   24.6690   35.1440 C   0  0  0  0  0  0  0  0  0  0  0  0
   38.9380   24.3500   35.8990 C   0  0  0  0  0  0  0  0  0  0  0  0
   38.0580   25.3180   36.3540 C   0  0  0  0  0  0  0  0  0  0  0  0
   37.2110   25.0000   36.9450 H   0  0  0  0  0  0  0  0  0  0  0  0
   38.3050   26.6470   36.0340 C   0  0  0  0  0  0  0  0  0  0  0  0
   37.6230   27.4210   36.3850 H   0  0  0  0  0  0  0  0  0  0  0  0
   39.4020   27.0150   35.2750 C   0  0  0  0  0  3  0  0  0  0  0  0
   40.2510   26.0000   34.8450 C   0  0  0  0  0  3  0  0  0  0  0  0
  2  8  1  0  0  0  0
  3  1  1  0  0  0  0
  3  2  2  0  0  0  0
  4  3  1  0  0  0  0
  5  4  2  0  0  0  0
  5  6  1  0  0  0  0
  6  7  2  0  0  0  0
  7  2  1  0  0  0  0
  9  4  1  0  0  0  0
 10  6  1  0  0  0  0
 11 12  1  0  0  0  0
 12 13  1  0  0  0  0
 13  1  1  0  0  0  0
 13 14  2  0  0  0  0
 14 15  1  0  0  0  0
 16 14  1  0  0  0  0
 16 17  1  0  0  0  0
 18 16  2  0  0  0  0
 19 12  2  0  0  0  0
 19 18  1  0  0  0  0
M  END
>  <minimizedAffinity>
-4.04268646

$$$$

 OpenBabel03262522203D

 19 20  0  0  0  0  0  0  0  0999 V2000
   38.1570   21.8910   34.4320 O   0  0  0  0  0  0  0  0  0  0  0  0
   37.9990   23.1980   36.3610 C   0  0  0  0  0  0  0  0  0  0  0  0
   38.1630   23.1660   34.9510 C   0  0  0  0  0  0  0  0  0  0  0  0
   38.3040   24.3810   34.2940 C   0  0  0  0  0  0  0  0  0  0  0  0
   38.2790   25.5120   35.0220 N   0  0  0  0  0  0  0  0  0  0  0  0
   38.1240   25.5170   36.3500 C   0  0  0  0  0  0  0  0  0  0  0  0
   37.9800   24.3630   37.0590 N   0  0  0  0  0  0  0  0  0  0  0  0
   37.8780   22.3360   37.0080 H   0  0  0  0  0  0  0  0  0  0  0  0
   38.4230   24.2790   33.2290 H   0  0  0  0  0  0  0  0  0  0  0  0
   38.1140   26.4790   36.8710 H   0  0  0  0  0  0  0  0  0  0  0  0
   35.5670   20.7050   35.4520 Cl  0  0  0  0  0  0  0  0  0  0  0  0
   36.0300   20.9820   33.7830 C   0  0  0  0  0  0  0  0  0  0  0  0
   37.2400   21.5310   33.4350 C   0  0  0  0  0  0  0  0  0  0  0  0
   37.5930   21.7450   32.1140 C   0  0  0  0  0  0  0  0  0  0  0  0
   38.5610   22.1800   31.9080 H   0  0  0  0  0  0  0  0  0  0  0  0
   36.6920   21.3920   31.1170 C   0  0  0  0  0  0  0  0  0  0  0  0
   36.9550   21.5540   30.0720 H   0  0  0  0  0  0  0  0  0  0  0  0
   35.4620   20.8370   31.4210 C   0  0  0  0  0  3  0  0  0  0  0  0
   35.1610   20.6450   32.7650 C   0  0  0  0  0  3  0  0  0  0  0  0
  1  3  1  0  0  0  0
  2  8  1  0  0  0  0
  2  7  1  0  0  0  0
  3  2  2  0  0  0  0
  4  3  1  0  0  0  0
  4  5  2  0  0  0  0
  5  6  1  0  0  0  0
  6 10  1  0  0  0  0
  6  7  2  0  0  0  0
  9  4  1  0  0  0  0
 12 11  1  0  0  0  0
 13 12  1  0  0  0  0
 13  1  1  0  0  0  0
 14 13  2  0  0  0  0
 15 14  1  0  0  0  0
 16 18  2  0  0  0  0
 16 14  1  0  0  0  0
 17 16  1  0  0  0  0
 18 19  1  0  0  0  0
 19 12  2  0  0  0  0
M  END
>  <minimizedAffinity>
-4.0258255

$$$$

 OpenBabel03262522203D

 19 20  0  0  0  0  0  0  0  0999 V2000
   38.4340   23.7750   34.5240 O   0  0  0  0  0  0  0  0  0  0  0  0
   37.3820   25.3550   33.1620 C   0  0  0  0  0  0  0  0  0  0  0  0
   38.5390   25.0010   33.9050 C   0  0  0  0  0  0  0  0  0  0  0  0
   39.5950   25.9020   33.9150 C   0  0  0  0  0  0  0  0  0  0  0  0
   39.4660   27.0510   33.2270 N   0  0  0  0  0  0  0  0  0  0  0  0
   38.3660   27.3630   32.5340 C   0  0  0  0  0  0  0  0  0  0  0  0
   37.2920   26.5260   32.4810 N   0  0  0  0  0  0  0  0  0  0  0  0
   36.4820   24.7570   33.0600 H   0  0  0  0  0  0  0  0  0  0  0  0
   40.4360   25.5670   34.4970 H   0  0  0  0  0  0  0  0  0  0  0  0
   38.3380   28.3170   32.0010 H   0  0  0  0  0  0  0  0  0  0  0  0
   40.8340   22.1340   35.3610 Cl  0  0  0  0  0  0  0  0  0  0  0  0
   39.6720   22.9340   36.4030 C   0  0  0  0  0  0  0  0  0  0  0  0
   38.6140   23.6570   35.9080 C   0  0  0  0  0  0  0  0  0  0  0  0
   37.7040   24.2850   36.7420 C   0  0  0  0  0  0  0  0  0  0  0  0
   36.8940   24.8380   36.2880 H   0  0  0  0  0  0  0  0  0  0  0  0
   37.8720   24.1750   38.1160 C   0  0  0  0  0  0  0  0  0  0  0  0
   37.1630   24.6630   38.7850 H   0  0  0  0  0  0  0  0  0  0  0  0
   38.9220   23.4570   38.6590 C   0  0  0  0  0  3  0  0  0  0  0  0
   39.8060   22.8480   37.7740 C   0  0  0  0  0  3  0  0  0  0  0  0
  1 13  1  0  0  0  0
  2  3  1  0  0  0  0
  3  4  2  0  0  0  0
  3  1  1  0  0  0  0
  4  9  1  0  0  0  0
  5  4  1  0  0  0  0
  6  5  2  0  0  0  0
  7  6  1  0  0  0  0
  7  2  2  0  0  0  0
  8  2  1  0  0  0  0
 10  6  1  0  0  0  0
 11 12  1  0  0  0  0
 12 19  1  0  0  0  0
 13 12  2  0  0  0  0
 13 14  1  0  0  0  0
 14 16  2  0  0  0  0
 15 14  1  0  0  0  0
 16 18  1  0  0  0  0
 16 17  1  0  0  0  0
 19 18  2  0  0  0  0
M  END
>  <minimizedAffinity>
-3.95274758

$$$$

 OpenBabel03262522203D

 19 20  0  0  0  0  0  0  0  0999 V2000
   39.0600   23.2720   34.4500 O   0  0  0  0  0  0  0  0  0  0  0  0
   37.5190   23.8100   32.7790 C   0  0  0  0  0  0  0  0  0  0  0  0
   37.9940   22.8350   33.6950 C   0  0  0  0  0  0  0  0  0  0  0  0
   37.3490   21.6060   33.7160 C   0  0  0  0  0  0  0  0  0  0  0  0
   36.3180   21.4070   32.8740 N   0  0  0  0  0  0  0  0  0  0  0  0
   35.8890   22.3410   32.0190 C   0  0  0  0  0  0  0  0  0  0  0  0
   36.4750   23.5680   31.9450 N   0  0  0  0  0  0  0  0  0  0  0  0
   37.9190   24.8100   32.6470 H   0  0  0  0  0  0  0  0  0  0  0  0
   37.7620   20.9200   34.4340 H   0  0  0  0  0  0  0  0  0  0  0  0
   35.0440   22.1020   31.3660 H   0  0  0  0  0  0  0  0  0  0  0  0
   41.1390   21.7580   36.0430 Cl  0  0  0  0  0  0  0  0  0  0  0  0
   39.8350   22.7530   36.6630 C   0  0  0  0  0  0  0  0  0  0  0  0
   38.9450   23.3980   35.8410 C   0  0  0  0  0  0  0  0  0  0  0  0
   37.9190   24.1810   36.3440 C   0  0  0  0  0  0  0  0  0  0  0  0
   37.2530   24.6610   35.6410 H   0  0  0  0  0  0  0  0  0  0  0  0
   37.7950   24.3130   37.7200 C   0  0  0  0  0  0  0  0  0  0  0  0
   36.9930   24.9260   38.1320 H   0  0  0  0  0  0  0  0  0  0  0  0
   38.6690   23.6820   38.5880 C   0  0  0  0  0  3  0  0  0  0  0  0
   39.6790   22.9090   38.0260 C   0  0  0  0  0  3  0  0  0  0  0  0
  1 13  1  0  0  0  0
  2  3  1  0  0  0  0
  3  4  2  0  0  0  0
  3  1  1  0  0  0  0
  4  9  1  0  0  0  0
  5  4  1  0  0  0  0
  6  5  2  0  0  0  0
  7  6  1  0  0  0  0
  7  2  2  0  0  0  0
  8  2  1  0  0  0  0
 10  6  1  0  0  0  0
 11 12  1  0  0  0  0
 12 19  1  0  0  0  0
 13 14  1  0  0  0  0
 13 12  2  0  0  0  0
 14 16  2  0  0  0  0
 15 14  1  0  0  0  0
 16 17  1  0  0  0  0
 16 18  1  0  0  0  0
 19 18  2  0  0  0  0
M  END
>  <minimizedAffinity>
-3.94019866

$$$$

 OpenBabel03262522203D

 19 20  0  0  0  0  0  0  0  0999 V2000
   39.3080   24.2070   34.5740 O   0  0  0  0  0  0  0  0  0  0  0  0
   39.8880   23.1420   36.5700 C   0  0  0  0  0  0  0  0  0  0  0  0
   38.9950   24.0200   35.9020 C   0  0  0  0  0  0  0  0  0  0  0  0
   37.9530   24.5620   36.6430 C   0  0  0  0  0  0  0  0  0  0  0  0
   37.8480   24.2280   37.9420 N   0  0  0  0  0  0  0  0  0  0  0  0
   38.7020   23.3990   38.5510 C   0  0  0  0  0  0  0  0  0  0  0  0
   39.7460   22.8310   37.8850 N   0  0  0  0  0  0  0  0  0  0  0  0
   40.7430   22.6440   36.1270 H   0  0  0  0  0  0  0  0  0  0  0  0
   37.3190   25.2160   36.0710 H   0  0  0  0  0  0  0  0  0  0  0  0
   38.5490   23.1780   39.6110 H   0  0  0  0  0  0  0  0  0  0  0  0
   40.2430   27.0830   34.6790 Cl  0  0  0  0  0  0  0  0  0  0  0  0
   38.9030   26.4290   33.7560 C   0  0  0  0  0  0  0  0  0  0  0  0
   38.5680   25.0970   33.7850 C   0  0  0  0  0  0  0  0  0  0  0  0
   37.5080   24.5930   33.0500 C   0  0  0  0  0  0  0  0  0  0  0  0
   37.2980   23.5350   33.1190 H   0  0  0  0  0  0  0  0  0  0  0  0
   36.7670   25.4650   32.2650 C   0  0  0  0  0  0  0  0  0  0  0  0
   35.9290   25.0840   31.6810 H   0  0  0  0  0  0  0  0  0  0  0  0
   37.0670   26.8150   32.2040 C   0  0  0  0  0  3  0  0  0  0  0  0
   38.1430   27.2640   32.9620 C   0  0  0  0  0  3  0  0  0  0  0  0
  1  3  1  0  0  0  0
  2  7  1  0  0  0  0
  3  2  2  0  0  0  0
  3  4  1  0  0  0  0
  4  5  2  0  0  0  0
  5  6  1  0  0  0  0
  6 10  1  0  0  0  0
  7  6  2  0  0  0  0
  8  2  1  0  0  0  0
  9  4  1  0  0  0  0
 12 13  1  0  0  0  0
 12 11  1  0  0  0  0
 13  1  1  0  0  0  0
 14 15  1  0  0  0  0
 14 13  2  0  0  0  0
 16 14  1  0  0  0  0
 17 16  1  0  0  0  0
 18 16  2  0  0  0  0
 18 19  1  0  0  0  0
 19 12  2  0  0  0  0
M  END
>  <minimizedAffinity>
-3.92323899

$$$$

 OpenBabel03262522203D

 19 20  0  0  0  0  0  0  0  0999 V2000
   36.2310   27.3330   32.5330 O   0  0  0  0  0  0  0  0  0  0  0  0
   34.5950   29.0000   32.5920 C   0  0  0  0  0  0  0  0  0  0  0  0
   35.8200   28.5490   32.0330 C   0  0  0  0  0  0  0  0  0  0  0  0
   36.4290   29.3600   31.0840 C   0  0  0  0  0  0  0  0  0  0  0  0
   35.8310   30.5180   30.7510 N   0  0  0  0  0  0  0  0  0  0  0  0
   34.6780   30.9230   31.2920 C   0  0  0  0  0  0  0  0  0  0  0  0
   34.0250   30.1780   32.2270 N   0  0  0  0  0  0  0  0  0  0  0  0
   34.0050   28.4790   33.3390 H   0  0  0  0  0  0  0  0  0  0  0  0
   37.3500   28.9540   30.7060 H   0  0  0  0  0  0  0  0  0  0  0  0
   34.2560   31.8790   30.9680 H   0  0  0  0  0  0  0  0  0  0  0  0
   38.9140   26.7340   31.2690 Cl  0  0  0  0  0  0  0  0  0  0  0  0
   38.5670   26.9900   32.9690 C   0  0  0  0  0  0  0  0  0  0  0  0
   37.3020   27.2580   33.4320 C   0  0  0  0  0  0  0  0  0  0  0  0
   37.0420   27.4590   34.7770 C   0  0  0  0  0  0  0  0  0  0  0  0
   36.0240   27.6650   35.0740 H   0  0  0  0  0  0  0  0  0  0  0  0
   38.0960   27.3860   35.6780 C   0  0  0  0  0  0  0  0  0  0  0  0
   37.9080   27.5410   36.7400 H   0  0  0  0  0  0  0  0  0  0  0  0
   39.3870   27.1190   35.2580 C   0  0  0  0  0  3  0  0  0  0  0  0
   39.5890   26.9260   33.8960 C   0  0  0  0  0  3  0  0  0  0  0  0
  1 13  1  0  0  0  0
  2  8  1  0  0  0  0
  3  1  1  0  0  0  0
  3  2  2  0  0  0  0
  4  3  1  0  0  0  0
  5  4  2  0  0  0  0
  5  6  1  0  0  0  0
  6  7  2  0  0  0  0
  7  2  1  0  0  0  0
  9  4  1  0  0  0  0
 10  6  1  0  0  0  0
 11 12  1  0  0  0  0
 12 13  2  0  0  0  0
 12 19  1  0  0  0  0
 13 14  1  0  0  0  0
 14 15  1  0  0  0  0
 14 16  2  0  0  0  0
 16 17  1  0  0  0  0
 18 16  1  0  0  0  0
 19 18  2  0  0  0  0
M  END
>  <minimizedAffinity>
-3.89155722

$$$$
