
 OpenBabel03262522023D

 39 42  0  0  1  0  0  0  0  0999 V2000
   34.4250   29.2030   48.8700 C   0  0  2  0  0  0  0  0  0  0  0  0
   35.1310   28.4430   49.9440 C   0  0  0  0  0  0  0  0  0  0  0  0
   36.3230   29.1660   50.3430 N   0  0  0  0  0  0  0  0  0  0  0  0
   37.3390   29.8490   51.0870 C   0  0  0  0  0  0  0  0  0  0  0  0
   37.6480   30.0090   52.2860 O   0  0  0  0  0  0  0  0  0  0  0  0
   37.9960   30.3760   49.8960 C   0  0  1  0  0  0  0  0  0  0  0  0
   37.1110   29.4090   49.1620 C   0  0  2  0  0  0  0  0  0  0  0  0
   35.8080   30.1800   48.1450 S   0  0  0  0  0  0  0  0  0  0  0  0
   34.4630   28.3530   50.8170 H   0  0  0  0  0  0  0  0  0  0  0  0
   35.3850   27.4140   49.6070 H   0  0  0  0  0  0  0  0  0  0  0  0
   39.0850   30.1260   49.7380 H   0  0  0  0  0  0  0  0  0  0  0  0
   37.5880   28.5360   48.7200 H   0  0  0  0  0  0  0  0  0  0  0  0
   33.2880   30.0570   49.2940 C   0  0  0  0  0  0  0  0  0  0  0  0
   33.7710   30.9020   49.9030 H   0  0  0  0  0  0  0  0  0  0  0  0
   32.8080   30.5850   48.4710 H   0  0  0  0  0  0  0  0  0  0  0  0
   32.6560   29.5530   50.0230 H   0  0  0  0  0  0  0  0  0  0  0  0
   34.0490   28.2210   47.7490 C   0  0  0  0  0  0  0  0  0  0  0  0
   34.9120   28.1720   47.0260 H   0  0  0  0  0  0  0  0  0  0  0  0
   34.0100   27.2170   48.2330 H   0  0  0  0  0  0  0  0  0  0  0  0
   31.4140   26.6970   48.5720 Cl  0  0  0  0  0  0  0  0  0  0  0  0
   31.6140   27.9580   47.3670 C   0  0  0  0  0  0  0  0  0  0  0  0
   32.8160   28.5410   47.0440 C   0  0  0  0  0  0  0  0  0  0  0  0
   32.8170   29.4880   46.0390 C   0  0  0  0  0  0  0  0  0  0  0  0
   33.7630   29.9550   45.7710 H   0  0  0  0  0  0  0  0  0  0  0  0
   31.6510   29.8610   45.3600 C   0  0  0  0  0  0  0  0  0  0  0  0
   31.7530   30.6100   44.5890 H   0  0  0  0  0  0  0  0  0  0  0  0
   30.4730   29.2490   45.7210 C   0  0  0  0  0  3  0  0  0  0  0  0
   30.4480   28.3050   46.7170 C   0  0  0  0  0  3  0  0  0  0  0  0
   37.7960   31.8090   49.6240 C   0  0  0  0  0  0  0  0  0  0  0  0
   36.8310   32.3210   50.2590 O   0  0  0  0  0  0  0  0  0  0  0  0
   38.6240   32.5640   48.7210 C   0  0  0  0  0  0  0  0  0  0  0  0
   39.1400   33.7680   49.1740 C   0  0  0  0  0  0  0  0  0  0  0  0
   39.9510   34.5180   48.2940 C   0  0  0  0  0  0  0  0  0  0  0  0
   40.1770   34.0080   47.0450 N   0  0  0  0  0  0  0  0  0  0  0  0
   39.6610   32.8460   46.6470 C   0  0  0  0  0  0  0  0  0  0  0  0
   38.8840   32.1190   47.4790 N   0  0  0  0  0  0  0  0  0  0  0  0
   38.9440   34.1370   50.1610 H   0  0  0  0  0  0  0  0  0  0  0  0
   40.3610   35.4610   48.6370 H   0  0  0  0  0  0  0  0  0  0  0  0
   39.8710   32.4790   45.6350 H   0  0  0  0  0  0  0  0  0  0  0  0
  1 17  1  6  0  0  0
  1 13  1  0  0  0  0
  1  2  1  0  0  0  0
  2  3  1  0  0  0  0
  2  9  1  0  0  0  0
  3  4  1  0  0  0  0
  4  5  2  0  0  0  0
  6 11  1  6  0  0  0
  6  4  1  0  0  0  0
  7 12  1  6  0  0  0
  7  6  1  0  0  0  0
  7  3  1  0  0  0  0
  8  1  1  0  0  0  0
  8  7  1  0  0  0  0
 10  2  1  0  0  0  0
 13 14  1  0  0  0  0
 13 16  1  0  0  0  0
 15 13  1  0  0  0  0
 17 19  1  0  0  0  0
 18 17  1  0  0  0  0
 21 20  1  0  0  0  0
 22 21  1  0  0  0  0
 22 17  1  0  0  0  0
 23 22  2  0  0  0  0
 24 23  1  0  0  0  0
 25 27  2  0  0  0  0
 25 23  1  0  0  0  0
 26 25  1  0  0  0  0
 27 28  1  0  0  0  0
 28 21  2  0  0  0  0
 29  6  1  0  0  0  0
 29 30  2  0  0  0  0
 31 32  1  0  0  0  0
 31 29  1  0  0  0  0
 32 37  1  0  0  0  0
 33 38  1  0  0  0  0
 33 32  2  0  0  0  0
 34 33  1  0  0  0  0
 35 34  2  0  0  0  0
 35 36  1  0  0  0  0
 36 31  2  0  0  0  0
 39 35  1  0  0  0  0
M  END
>  <minimizedAffinity>
-5.25944185

>  <minimizedRMSD>
0.965065002

$$$$
