
 OpenBabel03262522203D

 19 20  0  0  0  0  0  0  0  0999 V2000
   36.4750   29.0280   49.0310 O   0  0  0  0  0  0  0  0  0  0  0  0
   34.4140   27.9290   49.0150 C   0  0  0  0  0  0  0  0  0  0  0  0
   35.2160   28.9680   48.4750 C   0  0  0  0  0  0  0  0  0  0  0  0
   34.6520   29.7670   47.4890 C   0  0  0  0  0  0  0  0  0  0  0  0
   33.3890   29.5140   47.1030 N   0  0  0  0  0  0  0  0  0  0  0  0
   32.6520   28.5290   47.6260 C   0  0  0  0  0  0  0  0  0  0  0  0
   33.1410   27.7080   48.5970 N   0  0  0  0  0  0  0  0  0  0  0  0
   34.7130   27.2270   49.7870 H   0  0  0  0  0  0  0  0  0  0  0  0
   35.3180   30.5310   47.1280 H   0  0  0  0  0  0  0  0  0  0  0  0
   31.6310   28.3890   47.2590 H   0  0  0  0  0  0  0  0  0  0  0  0
   37.2720   30.2550   51.6790 Cl  0  0  0  0  0  0  0  0  0  0  0  0
   37.6610   30.8380   50.0720 C   0  0  0  0  0  0  0  0  0  0  0  0
   37.2430   30.1950   48.9330 C   0  0  0  0  0  0  0  0  0  0  0  0
   37.5580   30.6650   47.6690 C   0  0  0  0  0  0  0  0  0  0  0  0
   37.1970   30.1110   46.8140 H   0  0  0  0  0  0  0  0  0  0  0  0
   38.3190   31.8220   47.5590 C   0  0  0  0  0  0  0  0  0  0  0  0
   38.5750   32.2050   46.5710 H   0  0  0  0  0  0  0  0  0  0  0  0
   38.7630   32.5030   48.6780 C   0  0  0  0  0  0  0  0  0  0  0  0
   38.4170   31.9840   49.9210 C   0  0  0  0  0  0  0  0  0  0  0  0
  2  8  1  0  0  0  0
  3  2  2  0  0  0  0
  3  1  1  0  0  0  0
  4  3  1  0  0  0  0
  5  4  2  0  0  0  0
  5  6  1  0  0  0  0
  6  7  2  0  0  0  0
  7  2  1  0  0  0  0
  9  4  1  0  0  0  0
 10  6  1  0  0  0  0
 12 11  1  0  0  0  0
 13  1  1  0  0  0  0
 13 12  2  0  0  0  0
 14 13  1  0  0  0  0
 15 14  1  0  0  0  0
 16 14  2  0  0  0  0
 16 18  1  0  0  0  0
 17 16  1  0  0  0  0
 18 19  2  0  0  0  0
 19 12  1  0  0  0  0
M  END
>  <minimizedAffinity>
-4.88405609

>  <minimizedRMSD>
3.37534046

$$$$
