
 OpenBabel03272502313D

 27 28  0  0  1  0  0  0  0  0999 V2000
   38.2620   30.8550   47.3310 C   0  0  2  0  0  0  0  0  0  0  0  0
   38.8640   30.0170   47.9000 H   0  0  0  0  0  0  0  0  0  0  0  0
   40.2650   32.4190   45.4720 Cl  0  0  0  0  0  0  0  0  0  0  0  0
   39.7730   32.9810   47.0340 C   0  0  0  0  0  0  0  0  0  0  0  0
   38.8980   32.1040   47.6310 C   0  0  0  0  0  0  0  0  0  0  0  0
   38.4490   32.4940   48.9030 C   0  0  0  0  0  0  0  0  0  0  0  0
   37.7590   31.9890   49.5990 H   0  0  0  0  0  0  0  0  0  0  0  0
   38.8350   33.6720   49.5480 C   0  0  0  0  0  0  0  0  0  0  0  0
   38.5410   34.0470   50.5150 H   0  0  0  0  0  0  0  0  0  0  0  0
   39.7290   34.5100   48.8670 C   0  0  0  0  0  3  0  0  0  0  0  0
   40.1850   34.1580   47.6250 C   0  0  0  0  0  3  0  0  0  0  0  0
   37.1580   30.6280   45.2170 C   0  0  0  0  0  3  0  0  0  0  0  0
   38.2580   30.4570   45.9120 C   0  0  0  0  0  3  0  0  0  0  0  0
   37.7920   28.8870   42.0020 C   0  0  0  0  0  0  0  0  0  0  0  0
   37.8810   29.2900   43.3270 C   0  0  0  0  0  0  0  0  0  0  0  0
   37.0310   30.2550   43.8380 C   0  0  0  0  0  0  0  0  0  0  0  0
   36.1000   30.8090   43.0110 N   0  0  0  0  0  0  0  0  0  0  0  0
   36.0400   30.3950   41.7310 C   0  0  0  0  0  0  0  0  0  0  0  0
   36.8560   29.4600   41.2200 N   0  0  0  0  0  0  0  0  0  0  0  0
   38.4300   28.1430   41.5600 H   0  0  0  0  0  0  0  0  0  0  0  0
   38.6660   28.7660   43.8600 H   0  0  0  0  0  0  0  0  0  0  0  0
   35.2550   30.9110   41.1780 H   0  0  0  0  0  0  0  0  0  0  0  0
   36.5580   30.6320   47.9570 S   0  0  0  0  0  0  0  0  0  0  0  0
   36.5620   29.7040   49.4850 C   0  0  0  0  0  0  0  0  0  0  0  0
   37.8480   29.3360   49.8790 F   0  0  0  0  0  0  0  0  0  0  0  0
   35.8610   30.3240   50.4940 F   0  0  0  0  0  0  0  0  0  0  0  0
   35.8710   28.4910   49.2210 F   0  0  0  0  0  0  0  0  0  0  0  0
  1  5  1  0  0  0  0
  1  2  1  1  0  0  0
  1 23  1  0  0  0  0
  3  4  1  0  0  0  0
  4 11  2  0  0  0  0
  4  5  1  0  0  0  0
  5  6  2  0  0  0  0
  6  8  1  0  0  0  0
  6  7  1  0  0  0  0
  8  9  1  0  0  0  0
 10  8  2  0  0  0  0
 11 10  1  0  0  0  0
 12 13  2  0  0  0  0
 13  1  1  0  0  0  0
 14 15  1  0  0  0  0
 15 16  2  0  0  0  0
 15 21  1  0  0  0  0
 16 12  1  0  0  0  0
 17 16  1  0  0  0  0
 18 17  2  0  0  0  0
 19 18  1  0  0  0  0
 19 14  2  0  0  0  0
 20 14  1  0  0  0  0
 22 18  1  0  0  0  0
 23 24  1  0  0  0  0
 24 25  1  0  0  0  0
 24 26  1  0  0  0  0
 27 24  1  0  0  0  0
M  END
>  <minimizedAffinity>
-5.28418875

>  <minimizedRMSD>
4.12224865

$$$$
