
 OpenBabel03272501193D

 30 32  0  0  0  0  0  0  0  0999 V2000
   37.9630   25.4830   34.1240 C   0  0  0  0  0  0  0  0  0  0  0  0
   37.8780   26.8320   33.8060 C   0  0  0  0  0  0  0  0  0  0  0  0
   38.0490   27.6990   34.8770 C   0  0  0  0  0  0  0  0  0  0  0  0
   38.2860   27.2150   36.1680 C   0  0  0  0  0  0  0  0  0  0  0  0
   38.3570   25.8580   36.4090 C   0  0  0  0  0  0  0  0  0  0  0  0
   38.1930   24.9810   35.3680 C   0  0  0  0  0  0  0  0  0  0  0  0
   37.9970   28.7710   34.7110 H   0  0  0  0  0  0  0  0  0  0  0  0
   38.4080   27.9520   36.9520 H   0  0  0  0  0  0  0  0  0  0  0  0
   38.5420   25.5420   37.4220 H   0  0  0  0  0  0  0  0  0  0  0  0
   38.6840   27.5240   31.5920 C   0  0  0  0  0  0  0  0  0  0  0  0
   37.6340   27.3080   32.4820 C   0  0  0  0  0  0  0  0  0  0  0  0
   36.3340   27.5790   32.0140 C   0  0  0  0  0  0  0  0  0  0  0  0
   36.1820   28.0320   30.7370 N   0  0  0  0  0  0  0  0  0  0  0  0
   37.2390   28.2240   29.9190 C   0  0  0  0  0  0  0  0  0  0  0  0
   38.4950   27.9710   30.3440 N   0  0  0  0  0  0  0  0  0  0  0  0
   39.7110   27.3350   31.8920 H   0  0  0  0  0  0  0  0  0  0  0  0
   35.4810   27.4280   32.6650 H   0  0  0  0  0  0  0  0  0  0  0  0
   37.0120   28.5870   28.9220 H   0  0  0  0  0  0  0  0  0  0  0  0
   37.8040   24.5270   33.1040 O   0  0  0  0  0  0  0  0  0  0  0  0
   38.6480   24.2730   32.6080 H   0  0  0  0  0  0  0  0  0  0  0  0
   38.2670   23.6100   35.6250 O   0  0  0  0  0  0  0  0  0  0  0  0
   38.7530   23.1960   38.5820 Cl  0  0  0  0  0  0  0  0  0  0  0  0
   39.8170   22.6390   37.3130 C   0  0  0  0  0  0  0  0  0  0  0  0
   39.4000   22.9390   36.0140 C   0  0  0  0  0  0  0  0  0  0  0  0
   40.2240   22.5110   34.9890 C   0  0  0  0  0  0  0  0  0  0  0  0
   39.9970   22.6890   33.9440 H   0  0  0  0  0  0  0  0  0  0  0  0
   41.3970   21.8260   35.1780 C   0  0  0  0  0  0  0  0  0  0  0  0
   42.0370   21.4930   34.3750 H   0  0  0  0  0  0  0  0  0  0  0  0
   41.7960   21.5370   36.4740 C   0  0  0  0  0  3  0  0  0  0  0  0
   40.9960   21.9510   37.5220 C   0  0  0  0  0  3  0  0  0  0  0  0
  1  6  1  0  0  0  0
  2  1  2  0  0  0  0
  2  3  1  0  0  0  0
  3  4  2  0  0  0  0
  4  5  1  0  0  0  0
  4  8  1  0  0  0  0
  5  9  1  0  0  0  0
  6 21  1  0  0  0  0
  6  5  2  0  0  0  0
  7  3  1  0  0  0  0
 10 16  1  0  0  0  0
 10 11  1  0  0  0  0
 11  2  1  0  0  0  0
 12 11  2  0  0  0  0
 12 17  1  0  0  0  0
 13 12  1  0  0  0  0
 14 15  1  0  0  0  0
 14 13  2  0  0  0  0
 15 10  2  0  0  0  0
 18 14  1  0  0  0  0
 19  1  1  0  0  0  0
 20 19  1  0  0  0  0
 21 24  1  0  0  0  0
 23 30  1  0  0  0  0
 23 22  1  0  0  0  0
 24 23  2  0  0  0  0
 25 27  2  0  0  0  0
 25 24  1  0  0  0  0
 26 25  1  0  0  0  0
 27 29  1  0  0  0  0
 28 27  1  0  0  0  0
 29 30  2  0  0  0  0
M  END
>  <minimizedAffinity>
-5.44029665

$$$$

 OpenBabel03272501193D

 30 32  0  0  0  0  0  0  0  0999 V2000
   37.7540   22.9670   33.2200 C   0  0  0  0  0  0  0  0  0  0  0  0
   36.7520   22.7010   32.2960 C   0  0  0  0  0  0  0  0  0  0  0  0
   36.1460   23.8250   31.7490 C   0  0  0  0  0  0  0  0  0  0  0  0
   36.5400   25.1130   32.1230 C   0  0  0  0  0  0  0  0  0  0  0  0
   37.5460   25.3000   33.0500 C   0  0  0  0  0  0  0  0  0  0  0  0
   38.1610   24.2070   33.6050 C   0  0  0  0  0  0  0  0  0  0  0  0
   35.3530   23.7020   31.0180 H   0  0  0  0  0  0  0  0  0  0  0  0
   36.0220   25.9400   31.6540 H   0  0  0  0  0  0  0  0  0  0  0  0
   37.8080   26.3140   33.3010 H   0  0  0  0  0  0  0  0  0  0  0  0
   36.9670   20.7250   30.8540 C   0  0  0  0  0  0  0  0  0  0  0  0
   36.3620   21.3780   31.9260 C   0  0  0  0  0  0  0  0  0  0  0  0
   35.3580   20.6750   32.6180 C   0  0  0  0  0  0  0  0  0  0  0  0
   35.0410   19.4150   32.2040 N   0  0  0  0  0  0  0  0  0  0  0  0
   35.6620   18.8320   31.1560 C   0  0  0  0  0  0  0  0  0  0  0  0
   36.6280   19.4860   30.4770 N   0  0  0  0  0  0  0  0  0  0  0  0
   37.7490   21.2130   30.2790 H   0  0  0  0  0  0  0  0  0  0  0  0
   34.8550   21.1360   33.4600 H   0  0  0  0  0  0  0  0  0  0  0  0
   35.3370   17.8280   30.9070 H   0  0  0  0  0  0  0  0  0  0  0  0
   38.4280   21.8920   33.8280 O   0  0  0  0  0  0  0  0  0  0  0  0
   39.2360   21.5440   33.3290 H   0  0  0  0  0  0  0  0  0  0  0  0
   39.1770   24.4100   34.5410 O   0  0  0  0  0  0  0  0  0  0  0  0
   41.3130   22.5400   35.5850 Cl  0  0  0  0  0  0  0  0  0  0  0  0
   40.0010   23.1820   36.5430 C   0  0  0  0  0  0  0  0  0  0  0  0
   39.1250   24.0290   35.8590 C   0  0  0  0  0  0  0  0  0  0  0  0
   38.0760   24.5510   36.5930 C   0  0  0  0  0  0  0  0  0  0  0  0
   37.3380   25.2200   36.1630 H   0  0  0  0  0  0  0  0  0  0  0  0
   37.8580   24.2870   37.9210 C   0  0  0  0  0  0  0  0  0  0  0  0
   37.0370   24.6980   38.4900 H   0  0  0  0  0  0  0  0  0  0  0  0
   38.7350   23.4440   38.5840 C   0  0  0  0  0  3  0  0  0  0  0  0
   39.7950   22.9040   37.8800 C   0  0  0  0  0  3  0  0  0  0  0  0
  1  6  1  0  0  0  0
  1 19  1  0  0  0  0
  2  1  2  0  0  0  0
  3  4  2  0  0  0  0
  3  2  1  0  0  0  0
  4  5  1  0  0  0  0
  5  9  1  0  0  0  0
  5  6  2  0  0  0  0
  6 21  1  0  0  0  0
  7  3  1  0  0  0  0
  8  4  1  0  0  0  0
 10 11  1  0  0  0  0
 11  2  1  0  0  0  0
 11 12  2  0  0  0  0
 12 17  1  0  0  0  0
 13 12  1  0  0  0  0
 14 13  2  0  0  0  0
 15 10  2  0  0  0  0
 15 14  1  0  0  0  0
 16 10  1  0  0  0  0
 18 14  1  0  0  0  0
 20 19  1  0  0  0  0
 21 24  1  0  0  0  0
 22 23  1  0  0  0  0
 23 30  1  0  0  0  0
 24 23  2  0  0  0  0
 24 25  1  0  0  0  0
 25 27  2  0  0  0  0
 26 25  1  0  0  0  0
 27 28  1  0  0  0  0
 27 29  1  0  0  0  0
 30 29  2  0  0  0  0
M  END
>  <minimizedAffinity>
-5.37735891

$$$$

 OpenBabel03272501193D

 30 32  0  0  0  0  0  0  0  0999 V2000
   36.2510   28.8510   33.4820 C   0  0  0  0  0  0  0  0  0  0  0  0
   35.6000   30.0770   33.5120 C   0  0  0  0  0  0  0  0  0  0  0  0
   35.6030   30.7720   32.3100 C   0  0  0  0  0  0  0  0  0  0  0  0
   36.2250   30.2460   31.1730 C   0  0  0  0  0  0  0  0  0  0  0  0
   36.8540   29.0180   31.2190 C   0  0  0  0  0  0  0  0  0  0  0  0
   36.8650   28.3120   32.3940 C   0  0  0  0  0  0  0  0  0  0  0  0
   35.1150   31.7400   32.2510 H   0  0  0  0  0  0  0  0  0  0  0  0
   36.1870   30.8460   30.2720 H   0  0  0  0  0  0  0  0  0  0  0  0
   37.3160   28.6620   30.3130 H   0  0  0  0  0  0  0  0  0  0  0  0
   35.6900   31.3600   35.6040 C   0  0  0  0  0  0  0  0  0  0  0  0
   34.9720   30.5990   34.6830 C   0  0  0  0  0  0  0  0  0  0  0  0
   33.6110   30.3730   34.9640 C   0  0  0  0  0  0  0  0  0  0  0  0
   33.0840   30.9040   36.1040 N   0  0  0  0  0  0  0  0  0  0  0  0
   33.8300   31.6350   36.9610 C   0  0  0  0  0  0  0  0  0  0  0  0
   35.1370   31.8650   36.7140 N   0  0  0  0  0  0  0  0  0  0  0  0
   36.7440   31.5700   35.4460 H   0  0  0  0  0  0  0  0  0  0  0  0
   33.0060   29.7880   34.2820 H   0  0  0  0  0  0  0  0  0  0  0  0
   33.3160   32.0130   37.8390 H   0  0  0  0  0  0  0  0  0  0  0  0
   36.3000   28.0720   34.6530 O   0  0  0  0  0  0  0  0  0  0  0  0
   35.5190   27.4450   34.7950 H   0  0  0  0  0  0  0  0  0  0  0  0
   37.5040   27.0710   32.4270 O   0  0  0  0  0  0  0  0  0  0  0  0
   38.8150   24.5200   33.3870 Cl  0  0  0  0  0  0  0  0  0  0  0  0
   37.3520   24.5860   32.4350 C   0  0  0  0  0  0  0  0  0  0  0  0
   36.9200   25.8720   32.0990 C   0  0  0  0  0  0  0  0  0  0  0  0
   35.7650   25.9550   31.3450 C   0  0  0  0  0  0  0  0  0  0  0  0
   35.3400   26.9010   31.0280 H   0  0  0  0  0  0  0  0  0  0  0  0
   35.0410   24.8690   30.9210 C   0  0  0  0  0  0  0  0  0  0  0  0
   34.1380   24.9390   30.3330 H   0  0  0  0  0  0  0  0  0  0  0  0
   35.4830   23.6010   31.2630 C   0  0  0  0  0  3  0  0  0  0  0  0
   36.6360   23.4820   32.0170 C   0  0  0  0  0  3  0  0  0  0  0  0
  1  2  1  0  0  0  0
  1 19  1  0  0  0  0
  2 11  1  0  0  0  0
  3  2  2  0  0  0  0
  4  5  2  0  0  0  0
  4  3  1  0  0  0  0
  5  6  1  0  0  0  0
  6 21  1  0  0  0  0
  6  1  2  0  0  0  0
  7  3  1  0  0  0  0
  8  4  1  0  0  0  0
  9  5  1  0  0  0  0
 10 15  1  0  0  0  0
 11 12  1  0  0  0  0
 11 10  2  0  0  0  0
 12 13  2  0  0  0  0
 13 14  1  0  0  0  0
 14 18  1  0  0  0  0
 15 14  2  0  0  0  0
 16 10  1  0  0  0  0
 17 12  1  0  0  0  0
 19 20  1  0  0  0  0
 23 22  1  0  0  0  0
 24 21  1  0  0  0  0
 24 23  1  0  0  0  0
 25 24  2  0  0  0  0
 26 25  1  0  0  0  0
 27 29  2  0  0  0  0
 27 25  1  0  0  0  0
 28 27  1  0  0  0  0
 29 30  1  0  0  0  0
 30 23  2  0  0  0  0
M  END
>  <minimizedAffinity>
-5.36500168

$$$$

 OpenBabel03272501193D

 30 32  0  0  0  0  0  0  0  0999 V2000
   36.9410   23.9130   31.8920 C   0  0  0  0  0  0  0  0  0  0  0  0
   35.8570   23.1000   31.5910 C   0  0  0  0  0  0  0  0  0  0  0  0
   34.7670   23.7580   31.0360 C   0  0  0  0  0  0  0  0  0  0  0  0
   34.7930   25.1380   30.8120 C   0  0  0  0  0  0  0  0  0  0  0  0
   35.9090   25.8830   31.1380 C   0  0  0  0  0  0  0  0  0  0  0  0
   36.9990   25.2570   31.6860 C   0  0  0  0  0  0  0  0  0  0  0  0
   33.8780   23.1920   30.7720 H   0  0  0  0  0  0  0  0  0  0  0  0
   33.9060   25.5810   30.3760 H   0  0  0  0  0  0  0  0  0  0  0  0
   35.8730   26.9420   30.9420 H   0  0  0  0  0  0  0  0  0  0  0  0
   36.1870   20.7920   30.8210 C   0  0  0  0  0  0  0  0  0  0  0  0
   35.8470   21.6920   31.8290 C   0  0  0  0  0  0  0  0  0  0  0  0
   35.4970   21.1480   33.0790 C   0  0  0  0  0  0  0  0  0  0  0  0
   35.5100   19.7930   33.2280 N   0  0  0  0  0  0  0  0  0  0  0  0
   35.8490   18.9690   32.2130 C   0  0  0  0  0  0  0  0  0  0  0  0
   36.1880   19.4660   31.0040 N   0  0  0  0  0  0  0  0  0  0  0  0
   36.4660   21.1480   29.8330 H   0  0  0  0  0  0  0  0  0  0  0  0
   35.2240   21.8030   33.8980 H   0  0  0  0  0  0  0  0  0  0  0  0
   35.8280   17.9060   32.4330 H   0  0  0  0  0  0  0  0  0  0  0  0
   38.0940   23.3370   32.4580 O   0  0  0  0  0  0  0  0  0  0  0  0
   38.7760   22.9870   31.7980 H   0  0  0  0  0  0  0  0  0  0  0  0
   38.1200   26.0220   32.0110 O   0  0  0  0  0  0  0  0  0  0  0  0
   40.9150   25.4040   32.9920 Cl  0  0  0  0  0  0  0  0  0  0  0  0
   39.6940   26.2330   33.9280 C   0  0  0  0  0  0  0  0  0  0  0  0
   38.4700   26.4140   33.2790 C   0  0  0  0  0  0  0  0  0  0  0  0
   37.4850   27.0670   33.9970 C   0  0  0  0  0  0  0  0  0  0  0  0
   36.4980   27.2610   33.5920 H   0  0  0  0  0  0  0  0  0  0  0  0
   37.6440   27.5330   35.2770 C   0  0  0  0  0  0  0  0  0  0  0  0
   36.8720   28.0430   35.8340 H   0  0  0  0  0  0  0  0  0  0  0  0
   38.8650   27.3450   35.9060 C   0  0  0  0  0  3  0  0  0  0  0  0
   39.8720   26.6950   35.2170 C   0  0  0  0  0  3  0  0  0  0  0  0
  1 19  1  0  0  0  0
  2 11  1  0  0  0  0
  2  1  2  0  0  0  0
  3  2  1  0  0  0  0
  4  3  2  0  0  0  0
  4  5  1  0  0  0  0
  5  6  2  0  0  0  0
  6  1  1  0  0  0  0
  6 21  1  0  0  0  0
  7  3  1  0  0  0  0
  8  4  1  0  0  0  0
  9  5  1  0  0  0  0
 10 15  2  0  0  0  0
 10 11  1  0  0  0  0
 11 12  2  0  0  0  0
 12 13  1  0  0  0  0
 12 17  1  0  0  0  0
 14 18  1  0  0  0  0
 14 13  2  0  0  0  0
 15 14  1  0  0  0  0
 16 10  1  0  0  0  0
 20 19  1  0  0  0  0
 21 24  1  0  0  0  0
 22 23  1  0  0  0  0
 23 30  1  0  0  0  0
 24 23  2  0  0  0  0
 24 25  1  0  0  0  0
 25 27  2  0  0  0  0
 26 25  1  0  0  0  0
 27 28  1  0  0  0  0
 27 29  1  0  0  0  0
 30 29  2  0  0  0  0
M  END
>  <minimizedAffinity>
-5.27182007

$$$$

 OpenBabel03272501193D

 30 32  0  0  0  0  0  0  0  0999 V2000
   37.9210   26.0690   33.1510 C   0  0  0  0  0  0  0  0  0  0  0  0
   36.9070   26.2580   32.2220 C   0  0  0  0  0  0  0  0  0  0  0  0
   36.3100   25.0930   31.7600 C   0  0  0  0  0  0  0  0  0  0  0  0
   36.7260   23.8380   32.2160 C   0  0  0  0  0  0  0  0  0  0  0  0
   37.7430   23.7270   33.1430 C   0  0  0  0  0  0  0  0  0  0  0  0
   38.3480   24.8640   33.6160 C   0  0  0  0  0  0  0  0  0  0  0  0
   35.5080   25.1550   31.0310 H   0  0  0  0  0  0  0  0  0  0  0  0
   36.2140   22.9740   31.8100 H   0  0  0  0  0  0  0  0  0  0  0  0
   38.0220   22.7360   33.4590 H   0  0  0  0  0  0  0  0  0  0  0  0
   37.0340   28.1020   30.6060 C   0  0  0  0  0  0  0  0  0  0  0  0
   36.4970   27.5480   31.7660 C   0  0  0  0  0  0  0  0  0  0  0  0
   35.5400   28.3150   32.4570 C   0  0  0  0  0  0  0  0  0  0  0  0
   35.2010   29.5380   31.9590 N   0  0  0  0  0  0  0  0  0  0  0  0
   35.7560   30.0250   30.8270 C   0  0  0  0  0  0  0  0  0  0  0  0
   36.6760   29.3080   30.1470 N   0  0  0  0  0  0  0  0  0  0  0  0
   37.7770   27.5610   30.0270 H   0  0  0  0  0  0  0  0  0  0  0  0
   35.0900   27.9320   33.3650 H   0  0  0  0  0  0  0  0  0  0  0  0
   35.4190   31.0080   30.5150 H   0  0  0  0  0  0  0  0  0  0  0  0
   38.5850   27.1920   33.6790 O   0  0  0  0  0  0  0  0  0  0  0  0
   38.1620   27.6030   34.5010 H   0  0  0  0  0  0  0  0  0  0  0  0
   39.3760   24.7380   34.5530 O   0  0  0  0  0  0  0  0  0  0  0  0
   41.2700   22.5550   35.4460 Cl  0  0  0  0  0  0  0  0  0  0  0  0
   39.9910   23.2240   36.4310 C   0  0  0  0  0  0  0  0  0  0  0  0
   39.2330   24.2260   35.8180 C   0  0  0  0  0  0  0  0  0  0  0  0
   38.2130   24.7740   36.5750 C   0  0  0  0  0  0  0  0  0  0  0  0
   37.5640   25.5570   36.2000 H   0  0  0  0  0  0  0  0  0  0  0  0
   37.9160   24.3940   37.8590 C   0  0  0  0  0  0  0  0  0  0  0  0
   37.1190   24.8260   38.4450 H   0  0  0  0  0  0  0  0  0  0  0  0
   38.6780   23.3990   38.4510 C   0  0  0  0  0  3  0  0  0  0  0  0
   39.7060   22.8300   37.7220 C   0  0  0  0  0  3  0  0  0  0  0  0
  1  6  1  0  0  0  0
  1 19  1  0  0  0  0
  2  1  2  0  0  0  0
  3  4  2  0  0  0  0
  3  2  1  0  0  0  0
  4  5  1  0  0  0  0
  5  9  1  0  0  0  0
  5  6  2  0  0  0  0
  6 21  1  0  0  0  0
  7  3  1  0  0  0  0
  8  4  1  0  0  0  0
 10 11  1  0  0  0  0
 11  2  1  0  0  0  0
 11 12  2  0  0  0  0
 12 17  1  0  0  0  0
 13 12  1  0  0  0  0
 14 13  2  0  0  0  0
 15 10  2  0  0  0  0
 15 14  1  0  0  0  0
 16 10  1  0  0  0  0
 18 14  1  0  0  0  0
 19 20  1  0  0  0  0
 21 24  1  0  0  0  0
 22 23  1  0  0  0  0
 23 30  1  0  0  0  0
 24 23  2  0  0  0  0
 24 25  1  0  0  0  0
 25 27  2  0  0  0  0
 26 25  1  0  0  0  0
 27 28  1  0  0  0  0
 27 29  1  0  0  0  0
 30 29  2  0  0  0  0
M  END
>  <minimizedAffinity>
-5.26864672

$$$$

 OpenBabel03272501193D

 30 32  0  0  0  0  0  0  0  0999 V2000
   37.6100   26.6500   32.0530 C   0  0  0  0  0  0  0  0  0  0  0  0
   36.6680   27.1180   31.1470 C   0  0  0  0  0  0  0  0  0  0  0  0
   35.6690   26.2110   30.8200 C   0  0  0  0  0  0  0  0  0  0  0  0
   35.6450   24.9290   31.3800 C   0  0  0  0  0  0  0  0  0  0  0  0
   36.6180   24.5340   32.2750 C   0  0  0  0  0  0  0  0  0  0  0  0
   37.6150   25.4110   32.6150 C   0  0  0  0  0  0  0  0  0  0  0  0
   34.8930   26.5000   30.1180 H   0  0  0  0  0  0  0  0  0  0  0  0
   34.8350   24.2770   31.0760 H   0  0  0  0  0  0  0  0  0  0  0  0
   36.5490   23.5360   32.6740 H   0  0  0  0  0  0  0  0  0  0  0  0
   36.0780   29.5010   31.2160 C   0  0  0  0  0  0  0  0  0  0  0  0
   36.7090   28.4300   30.5850 C   0  0  0  0  0  0  0  0  0  0  0  0
   37.3810   28.7050   29.3790 C   0  0  0  0  0  0  0  0  0  0  0  0
   37.3740   29.9840   28.9050 N   0  0  0  0  0  0  0  0  0  0  0  0
   36.7450   30.9830   29.5610 C   0  0  0  0  0  0  0  0  0  0  0  0
   36.0930   30.7440   30.7200 N   0  0  0  0  0  0  0  0  0  0  0  0
   35.5420   29.3550   32.1490 H   0  0  0  0  0  0  0  0  0  0  0  0
   37.8880   27.9090   28.8470 H   0  0  0  0  0  0  0  0  0  0  0  0
   36.7990   31.9640   29.1010 H   0  0  0  0  0  0  0  0  0  0  0  0
   38.6620   27.4980   32.4470 O   0  0  0  0  0  0  0  0  0  0  0  0
   38.4680   28.0960   33.2400 H   0  0  0  0  0  0  0  0  0  0  0  0
   38.5930   24.9990   33.5220 O   0  0  0  0  0  0  0  0  0  0  0  0
   38.3820   27.0050   35.7760 Cl  0  0  0  0  0  0  0  0  0  0  0  0
   38.2150   25.2760   35.9660 C   0  0  0  0  0  0  0  0  0  0  0  0
   38.3490   24.5340   34.7900 C   0  0  0  0  0  0  0  0  0  0  0  0
   38.2230   23.1620   34.9110 C   0  0  0  0  0  0  0  0  0  0  0  0
   38.3080   22.4900   34.0650 H   0  0  0  0  0  0  0  0  0  0  0  0
   37.9780   22.5120   36.0940 C   0  0  0  0  0  0  0  0  0  0  0  0
   37.8800   21.4400   36.1830 H   0  0  0  0  0  0  0  0  0  0  0  0
   37.8480   23.2630   37.2510 C   0  0  0  0  0  3  0  0  0  0  0  0
   37.9690   24.6380   37.1660 C   0  0  0  0  0  3  0  0  0  0  0  0
  1 19  1  0  0  0  0
  1  6  1  0  0  0  0
  2  1  2  0  0  0  0
  3  2  1  0  0  0  0
  3  4  2  0  0  0  0
  4  5  1  0  0  0  0
  5  6  2  0  0  0  0
  5  9  1  0  0  0  0
  6 21  1  0  0  0  0
  7  3  1  0  0  0  0
  8  4  1  0  0  0  0
 10 16  1  0  0  0  0
 11  2  1  0  0  0  0
 11 10  2  0  0  0  0
 12 11  1  0  0  0  0
 13 12  2  0  0  0  0
 13 14  1  0  0  0  0
 14 15  2  0  0  0  0
 15 10  1  0  0  0  0
 17 12  1  0  0  0  0
 18 14  1  0  0  0  0
 19 20  1  0  0  0  0
 21 24  1  0  0  0  0
 22 23  1  0  0  0  0
 23 30  1  0  0  0  0
 24 25  1  0  0  0  0
 24 23  2  0  0  0  0
 25 27  2  0  0  0  0
 26 25  1  0  0  0  0
 27 28  1  0  0  0  0
 27 29  1  0  0  0  0
 30 29  2  0  0  0  0
M  END
>  <minimizedAffinity>
-5.19299173

$$$$

 OpenBabel03272501193D

 30 32  0  0  0  0  0  0  0  0999 V2000
   36.1200   28.8980   33.6760 C   0  0  0  0  0  0  0  0  0  0  0  0
   35.3710   30.0660   33.6760 C   0  0  0  0  0  0  0  0  0  0  0  0
   35.2790   30.7040   32.4460 C   0  0  0  0  0  0  0  0  0  0  0  0
   35.9070   30.1800   31.3120 C   0  0  0  0  0  0  0  0  0  0  0  0
   36.6380   29.0110   31.3880 C   0  0  0  0  0  0  0  0  0  0  0  0
   36.7430   28.3620   32.5920 C   0  0  0  0  0  0  0  0  0  0  0  0
   34.7100   31.6250   32.3620 H   0  0  0  0  0  0  0  0  0  0  0  0
   35.7910   30.7330   30.3880 H   0  0  0  0  0  0  0  0  0  0  0  0
   37.1000   28.6540   30.4830 H   0  0  0  0  0  0  0  0  0  0  0  0
   35.4330   31.4020   35.7350 C   0  0  0  0  0  0  0  0  0  0  0  0
   34.7370   30.5870   34.8450 C   0  0  0  0  0  0  0  0  0  0  0  0
   33.3920   30.3070   35.1530 C   0  0  0  0  0  0  0  0  0  0  0  0
   32.8590   30.8410   36.2890 N   0  0  0  0  0  0  0  0  0  0  0  0
   33.5830   31.6260   37.1150 C   0  0  0  0  0  0  0  0  0  0  0  0
   34.8750   31.9090   36.8410 N   0  0  0  0  0  0  0  0  0  0  0  0
   36.4740   31.6560   35.5550 H   0  0  0  0  0  0  0  0  0  0  0  0
   32.8040   29.6780   34.4950 H   0  0  0  0  0  0  0  0  0  0  0  0
   33.0660   32.0010   37.9930 H   0  0  0  0  0  0  0  0  0  0  0  0
   36.2700   28.1790   34.8770 O   0  0  0  0  0  0  0  0  0  0  0  0
   35.5490   27.4980   35.0720 H   0  0  0  0  0  0  0  0  0  0  0  0
   37.4840   27.1800   32.6550 O   0  0  0  0  0  0  0  0  0  0  0  0
   39.3960   27.3380   30.3160 Cl  0  0  0  0  0  0  0  0  0  0  0  0
   39.8810   27.1570   31.9850 C   0  0  0  0  0  0  0  0  0  0  0  0
   38.8320   27.1050   32.9060 C   0  0  0  0  0  0  0  0  0  0  0  0
   39.1870   26.9610   34.2350 C   0  0  0  0  0  0  0  0  0  0  0  0
   38.4550   26.9100   35.0330 H   0  0  0  0  0  0  0  0  0  0  0  0
   40.4800   26.8690   34.6820 C   0  0  0  0  0  0  0  0  0  0  0  0
   40.7520   26.7570   35.7210 H   0  0  0  0  0  0  0  0  0  0  0  0
   41.5090   26.9210   33.7540 C   0  0  0  0  0  3  0  0  0  0  0  0
   41.1890   27.0650   32.4170 C   0  0  0  0  0  3  0  0  0  0  0  0
  1 19  1  0  0  0  0
  2  1  1  0  0  0  0
  2 11  1  0  0  0  0
  3  2  2  0  0  0  0
  4  5  2  0  0  0  0
  4  3  1  0  0  0  0
  5  6  1  0  0  0  0
  6 21  1  0  0  0  0
  6  1  2  0  0  0  0
  7  3  1  0  0  0  0
  8  4  1  0  0  0  0
  9  5  1  0  0  0  0
 10 15  1  0  0  0  0
 11 12  1  0  0  0  0
 11 10  2  0  0  0  0
 12 13  2  0  0  0  0
 13 14  1  0  0  0  0
 14 18  1  0  0  0  0
 15 14  2  0  0  0  0
 16 10  1  0  0  0  0
 17 12  1  0  0  0  0
 19 20  1  0  0  0  0
 21 24  1  0  0  0  0
 22 23  1  0  0  0  0
 23 30  2  0  0  0  0
 23 24  1  0  0  0  0
 24 25  2  0  0  0  0
 25 27  1  0  0  0  0
 25 26  1  0  0  0  0
 27 28  1  0  0  0  0
 29 27  2  0  0  0  0
 30 29  1  0  0  0  0
M  END
>  <minimizedAffinity>
-5.11210012

$$$$

 OpenBabel03272501193D

 30 32  0  0  0  0  0  0  0  0999 V2000
   37.9740   25.6130   34.0420 C   0  0  0  0  0  0  0  0  0  0  0  0
   37.7500   26.9790   33.9360 C   0  0  0  0  0  0  0  0  0  0  0  0
   37.9460   27.6970   35.1080 C   0  0  0  0  0  0  0  0  0  0  0  0
   38.3390   27.0610   36.2890 C   0  0  0  0  0  0  0  0  0  0  0  0
   38.5430   25.6960   36.3180 C   0  0  0  0  0  0  0  0  0  0  0  0
   38.3570   24.9630   35.1740 C   0  0  0  0  0  0  0  0  0  0  0  0
   37.7900   28.7720   35.1080 H   0  0  0  0  0  0  0  0  0  0  0  0
   38.4710   27.6870   37.1630 H   0  0  0  0  0  0  0  0  0  0  0  0
   38.8460   25.2590   37.2550 H   0  0  0  0  0  0  0  0  0  0  0  0
   36.0660   28.1430   32.5800 C   0  0  0  0  0  0  0  0  0  0  0  0
   37.3470   27.6120   32.7210 C   0  0  0  0  0  0  0  0  0  0  0  0
   38.2120   27.7300   31.6180 C   0  0  0  0  0  0  0  0  0  0  0  0
   37.7530   28.3470   30.4910 N   0  0  0  0  0  0  0  0  0  0  0  0
   36.5000   28.8440   30.4120 C   0  0  0  0  0  0  0  0  0  0  0  0
   35.6510   28.7430   31.4570 N   0  0  0  0  0  0  0  0  0  0  0  0
   35.3500   28.0850   33.3940 H   0  0  0  0  0  0  0  0  0  0  0  0
   39.2200   27.3340   31.6730 H   0  0  0  0  0  0  0  0  0  0  0  0
   36.2320   29.3170   29.4730 H   0  0  0  0  0  0  0  0  0  0  0  0
   37.8020   24.8000   32.9060 O   0  0  0  0  0  0  0  0  0  0  0  0
   38.6150   24.7000   32.3130 H   0  0  0  0  0  0  0  0  0  0  0  0
   38.5670   23.5840   35.2180 O   0  0  0  0  0  0  0  0  0  0  0  0
   40.8230   23.2680   33.2270 Cl  0  0  0  0  0  0  0  0  0  0  0  0
   40.8800   22.7260   34.8870 C   0  0  0  0  0  0  0  0  0  0  0  0
   39.7240   22.9730   35.6330 C   0  0  0  0  0  0  0  0  0  0  0  0
   39.7410   22.5530   36.9500 C   0  0  0  0  0  0  0  0  0  0  0  0
   38.9000   22.6940   37.6190 H   0  0  0  0  0  0  0  0  0  0  0  0
   40.8050   21.9250   37.5460 C   0  0  0  0  0  0  0  0  0  0  0  0
   40.8140   21.6000   38.5750 H   0  0  0  0  0  0  0  0  0  0  0  0
   41.9440   21.6880   36.7920 C   0  0  0  0  0  3  0  0  0  0  0  0
   41.9600   22.0940   35.4700 C   0  0  0  0  0  3  0  0  0  0  0  0
  1  6  1  0  0  0  0
  2  1  2  0  0  0  0
  2  3  1  0  0  0  0
  3  4  2  0  0  0  0
  4  5  1  0  0  0  0
  4  8  1  0  0  0  0
  5  9  1  0  0  0  0
  6 21  1  0  0  0  0
  6  5  2  0  0  0  0
  7  3  1  0  0  0  0
 10 11  1  0  0  0  0
 10 16  1  0  0  0  0
 11  2  1  0  0  0  0
 12 17  1  0  0  0  0
 12 11  2  0  0  0  0
 13 12  1  0  0  0  0
 14 13  2  0  0  0  0
 14 15  1  0  0  0  0
 15 10  2  0  0  0  0
 18 14  1  0  0  0  0
 19  1  1  0  0  0  0
 20 19  1  0  0  0  0
 21 24  1  0  0  0  0
 22 23  1  0  0  0  0
 23 30  2  0  0  0  0
 23 24  1  0  0  0  0
 24 25  2  0  0  0  0
 25 27  1  0  0  0  0
 25 26  1  0  0  0  0
 27 28  1  0  0  0  0
 29 27  2  0  0  0  0
 30 29  1  0  0  0  0
M  END
>  <minimizedAffinity>
-5.10915518

$$$$

 OpenBabel03272501193D

 30 32  0  0  0  0  0  0  0  0999 V2000
   36.5550   26.2940   31.2410 C   0  0  0  0  0  0  0  0  0  0  0  0
   36.7380   27.4470   31.9930 C   0  0  0  0  0  0  0  0  0  0  0  0
   37.7200   27.3590   32.9700 C   0  0  0  0  0  0  0  0  0  0  0  0
   38.4510   26.1820   33.1580 C   0  0  0  0  0  0  0  0  0  0  0  0
   38.2120   25.0730   32.3710 C   0  0  0  0  0  0  0  0  0  0  0  0
   37.2480   25.1340   31.3980 C   0  0  0  0  0  0  0  0  0  0  0  0
   37.9250   28.2190   33.6010 H   0  0  0  0  0  0  0  0  0  0  0  0
   39.2000   26.1890   33.9400 H   0  0  0  0  0  0  0  0  0  0  0  0
   38.8050   24.1930   32.5590 H   0  0  0  0  0  0  0  0  0  0  0  0
   34.8150   28.8820   32.5100 C   0  0  0  0  0  0  0  0  0  0  0  0
   35.9820   28.6410   31.7880 C   0  0  0  0  0  0  0  0  0  0  0  0
   36.3720   29.6220   30.8580 C   0  0  0  0  0  0  0  0  0  0  0  0
   35.5960   30.7350   30.7190 N   0  0  0  0  0  0  0  0  0  0  0  0
   34.4730   30.9150   31.4480 C   0  0  0  0  0  0  0  0  0  0  0  0
   34.0780   29.9880   32.3470 N   0  0  0  0  0  0  0  0  0  0  0  0
   34.4590   28.1640   33.2440 H   0  0  0  0  0  0  0  0  0  0  0  0
   37.2720   29.4850   30.2700 H   0  0  0  0  0  0  0  0  0  0  0  0
   33.9260   31.8340   31.2630 H   0  0  0  0  0  0  0  0  0  0  0  0
   35.5810   26.2860   30.2240 O   0  0  0  0  0  0  0  0  0  0  0  0
   35.8950   26.6050   29.3170 H   0  0  0  0  0  0  0  0  0  0  0  0
   37.0170   24.0050   30.6090 O   0  0  0  0  0  0  0  0  0  0  0  0
   39.0670   21.8370   30.1150 Cl  0  0  0  0  0  0  0  0  0  0  0  0
   37.5640   21.6050   30.9750 C   0  0  0  0  0  0  0  0  0  0  0  0
   36.7630   22.7450   31.0880 C   0  0  0  0  0  0  0  0  0  0  0  0
   35.5660   22.5900   31.7640 C   0  0  0  0  0  0  0  0  0  0  0  0
   34.8690   23.4060   31.9100 H   0  0  0  0  0  0  0  0  0  0  0  0
   35.1390   21.4080   32.3140 C   0  0  0  0  0  0  0  0  0  0  0  0
   34.2030   21.2930   32.8410 H   0  0  0  0  0  0  0  0  0  0  0  0
   35.9450   20.2880   32.1930 C   0  0  0  0  0  3  0  0  0  0  0  0
   37.1490   20.4080   31.5230 C   0  0  0  0  0  3  0  0  0  0  0  0
  1  6  2  0  0  0  0
  1  2  1  0  0  0  0
  2  3  2  0  0  0  0
  3  4  1  0  0  0  0
  3  7  1  0  0  0  0
  4  8  1  0  0  0  0
  5  9  1  0  0  0  0
  5  4  2  0  0  0  0
  6  5  1  0  0  0  0
 10 16  1  0  0  0  0
 11  2  1  0  0  0  0
 11 10  2  0  0  0  0
 12 11  1  0  0  0  0
 13 12  2  0  0  0  0
 13 14  1  0  0  0  0
 14 15  2  0  0  0  0
 15 10  1  0  0  0  0
 17 12  1  0  0  0  0
 18 14  1  0  0  0  0
 19  1  1  0  0  0  0
 20 19  1  0  0  0  0
 21 24  1  0  0  0  0
 21  6  1  0  0  0  0
 22 23  1  0  0  0  0
 23 24  2  0  0  0  0
 23 30  1  0  0  0  0
 24 25  1  0  0  0  0
 25 26  1  0  0  0  0
 25 27  2  0  0  0  0
 27 28  1  0  0  0  0
 29 27  1  0  0  0  0
 30 29  2  0  0  0  0
M  END
>  <minimizedAffinity>
-5.07628012

$$$$
