
 OpenBabel03272504193D

 27 28  0  0  0  0  0  0  0  0999 V2000
   37.1030   29.2150   47.5930 O   0  0  0  0  0  0  0  0  0  0  0  0
   36.9190   30.2020   48.7250 P   0  0  2  0  0  0  0  0  0  0  0  0
   38.3000   30.0700   49.7320 O   0  0  0  0  0  0  0  0  0  0  0  0
   39.1190   29.9700   49.2060 H   0  0  0  0  0  0  0  0  0  0  0  0
   35.5410   29.8240   49.6140 O   0  0  0  0  0  0  0  0  0  0  0  0
   35.3960   28.4610   49.6090 C   0  0  0  0  0  0  0  0  0  0  0  0
   36.2300   27.9160   49.0790 H   0  0  0  0  0  0  0  0  0  0  0  0
   35.4530   28.0590   50.6580 H   0  0  0  0  0  0  0  0  0  0  0  0
   34.1210   28.0050   49.0040 C   0  0  0  0  0  0  0  0  0  0  0  0
   34.2060   27.1300   47.9330 C   0  0  0  0  0  0  0  0  0  0  0  0
   33.0190   26.6770   47.3370 C   0  0  0  0  0  0  0  0  0  0  0  0
   31.8510   27.1340   47.8560 N   0  0  0  0  0  0  0  0  0  0  0  0
   31.7890   27.9850   48.8960 C   0  0  0  0  0  0  0  0  0  0  0  0
   32.9260   28.4100   49.4590 N   0  0  0  0  0  0  0  0  0  0  0  0
   35.1170   26.7410   47.4890 H   0  0  0  0  0  0  0  0  0  0  0  0
   32.9880   26.0040   46.5120 H   0  0  0  0  0  0  0  0  0  0  0  0
   30.8630   28.3500   49.3110 H   0  0  0  0  0  0  0  0  0  0  0  0
   36.8490   31.7530   48.0770 O   0  0  0  0  0  0  0  0  0  0  0  0
   37.0610   33.4880   50.4490 Cl  0  0  0  0  0  0  0  0  0  0  0  0
   38.1710   33.3710   49.1100 C   0  0  0  0  0  0  0  0  0  0  0  0
   38.0030   32.5230   48.0170 C   0  0  0  0  0  0  0  0  0  0  0  0
   38.9450   32.4960   46.9890 C   0  0  0  0  0  0  0  0  0  0  0  0
   38.7460   31.8120   46.1750 H   0  0  0  0  0  0  0  0  0  0  0  0
   40.0330   33.3350   47.1040 C   0  0  0  0  0  0  0  0  0  0  0  0
   40.7170   33.2520   46.2600 H   0  0  0  0  0  0  0  0  0  0  0  0
   40.2100   34.1780   48.1790 C   0  0  0  0  0  3  0  0  0  0  0  0
   39.2740   34.2010   49.1940 C   0  0  0  0  0  3  0  0  0  0  0  0
  2  1  2  6  0  0  0
  2  5  1  0  0  0  0
  2  3  1  0  0  0  0
  4  3  1  0  0  0  0
  6  5  1  0  0  0  0
  6  8  1  0  0  0  0
  7  6  1  0  0  0  0
  9 14  1  0  0  0  0
  9  6  1  0  0  0  0
 10  9  2  0  0  0  0
 11 12  2  0  0  0  0
 11 10  1  0  0  0  0
 12 13  1  0  0  0  0
 13 17  1  0  0  0  0
 13 14  2  0  0  0  0
 15 10  1  0  0  0  0
 16 11  1  0  0  0  0
 18  2  1  0  0  0  0
 20 27  1  0  0  0  0
 20 19  1  0  0  0  0
 21 18  1  0  0  0  0
 21 20  2  0  0  0  0
 22 24  2  0  0  0  0
 22 21  1  0  0  0  0
 23 22  1  0  0  0  0
 24 26  1  0  0  0  0
 25 24  1  0  0  0  0
 26 27  2  0  0  0  0
M  END
>  <minimizedAffinity>
-3.15675497

>  <minimizedRMSD>
3.14359832

$$$$
