
 OpenBabel03272502313D

 27 28  0  0  1  0  0  0  0  0999 V2000
   36.8220   30.5530   48.1620 C   0  0  2  0  0  0  0  0  0  0  0  0
   37.3850   29.5270   48.3010 H   0  0  0  0  0  0  0  0  0  0  0  0
   39.0410   30.8080   45.9420 Cl  0  0  0  0  0  0  0  0  0  0  0  0
   38.8700   31.9230   47.2560 C   0  0  0  0  0  0  0  0  0  0  0  0
   37.8260   31.5740   48.0800 C   0  0  0  0  0  0  0  0  0  0  0  0
   37.6210   32.4340   49.1700 C   0  0  0  0  0  0  0  0  0  0  0  0
   36.8730   32.3930   49.9770 H   0  0  0  0  0  0  0  0  0  0  0  0
   38.3950   33.5680   49.4340 C   0  0  0  0  0  0  0  0  0  0  0  0
   38.3080   34.2800   50.2390 H   0  0  0  0  0  0  0  0  0  0  0  0
   39.4390   33.8520   48.5420 C   0  0  0  0  0  3  0  0  0  0  0  0
   39.6640   33.0310   47.4700 C   0  0  0  0  0  3  0  0  0  0  0  0
   34.6900   30.1530   47.1460 C   0  0  0  0  0  3  0  0  0  0  0  0
   35.9700   30.3880   46.9710 C   0  0  0  0  0  3  0  0  0  0  0  0
   33.4230   29.6460   43.6960 C   0  0  0  0  0  0  0  0  0  0  0  0
   34.2690   29.8510   44.7770 C   0  0  0  0  0  0  0  0  0  0  0  0
   33.7710   29.9520   46.0640 C   0  0  0  0  0  0  0  0  0  0  0  0
   32.4250   29.8460   46.2540 N   0  0  0  0  0  0  0  0  0  0  0  0
   31.6330   29.6460   45.1840 C   0  0  0  0  0  0  0  0  0  0  0  0
   32.0990   29.5460   43.9300 N   0  0  0  0  0  0  0  0  0  0  0  0
   33.7610   29.5630   42.6790 H   0  0  0  0  0  0  0  0  0  0  0  0
   35.3070   29.9160   44.4730 H   0  0  0  0  0  0  0  0  0  0  0  0
   30.5830   29.5770   45.4700 H   0  0  0  0  0  0  0  0  0  0  0  0
   35.7130   30.6110   49.6140 S   0  0  0  0  0  0  0  0  0  0  0  0
   35.7140   29.0440   50.4740 C   0  0  0  0  0  0  0  0  0  0  0  0
   35.3590   29.1740   51.8160 F   0  0  0  0  0  0  0  0  0  0  0  0
   34.9800   28.0750   49.8300 F   0  0  0  0  0  0  0  0  0  0  0  0
   37.0580   28.5810   50.4670 F   0  0  0  0  0  0  0  0  0  0  0  0
  1  2  1  1  0  0  0
  1 23  1  0  0  0  0
  3  4  1  0  0  0  0
  4 11  2  0  0  0  0
  4  5  1  0  0  0  0
  5  1  1  0  0  0  0
  5  6  2  0  0  0  0
  6  8  1  0  0  0  0
  6  7  1  0  0  0  0
  8  9  1  0  0  0  0
 10  8  2  0  0  0  0
 11 10  1  0  0  0  0
 13 12  2  0  0  0  0
 13  1  1  0  0  0  0
 14 19  2  0  0  0  0
 14 15  1  0  0  0  0
 15 16  2  0  0  0  0
 16 17  1  0  0  0  0
 16 12  1  0  0  0  0
 18 22  1  0  0  0  0
 18 17  2  0  0  0  0
 19 18  1  0  0  0  0
 20 14  1  0  0  0  0
 21 15  1  0  0  0  0
 23 24  1  0  0  0  0
 24 25  1  0  0  0  0
 26 24  1  0  0  0  0
 27 24  1  0  0  0  0
M  END
>  <minimizedAffinity>
-5.49516678

>  <minimizedRMSD>
5.0773735

$$$$
