
 OpenBabel03272509413D

 35 37  0  0  1  0  0  0  0  0999 V2000
   35.5780   29.2350   32.7210 C   0  0  0  0  0  0  0  0  0  0  0  0
   35.5570   29.7510   31.4200 C   0  0  0  0  0  0  0  0  0  0  0  0
   36.5020   29.3970   30.4650 C   0  0  0  0  0  0  0  0  0  0  0  0
   37.5130   28.4980   30.8050 C   0  0  0  0  0  0  0  0  0  0  0  0
   37.5210   28.0040   32.0770 C   0  0  0  0  0  0  0  0  0  0  0  0
   36.5710   28.3700   33.0070 C   0  0  0  0  0  0  0  0  0  0  0  0
   34.7600   30.4530   31.1660 H   0  0  0  0  0  0  0  0  0  0  0  0
   36.3830   29.8630   29.4860 H   0  0  0  0  0  0  0  0  0  0  0  0
   38.2330   28.2420   30.0400 H   0  0  0  0  0  0  0  0  0  0  0  0
   38.3380   27.3140   32.2530 H   0  0  0  0  0  0  0  0  0  0  0  0
   34.5470   29.6660   33.6440 C   0  0  2  0  0  3  0  0  0  0  0  0
   33.3870   29.1420   33.4280 O   0  0  0  0  0  1  0  0  0  0  0  0
   33.7260   31.5160   36.6480 C   0  0  0  0  0  0  0  0  0  0  0  0
   34.8450   32.2970   36.8890 C   0  0  0  0  0  0  0  0  0  0  0  0
   35.9120   32.1900   36.0000 C   0  0  0  0  0  0  0  0  0  0  0  0
   35.8280   31.3400   34.9410 N   0  0  0  0  0  0  0  0  0  0  0  0
   34.7390   30.6080   34.7420 C   0  0  0  0  0  0  0  0  0  0  0  0
   33.6980   30.7070   35.6050 N   0  0  0  0  0  0  0  0  0  0  0  0
   32.9340   31.6470   37.3750 H   0  0  0  0  0  0  0  0  0  0  0  0
   35.0020   32.9980   37.7000 H   0  0  0  0  0  0  0  0  0  0  0  0
   36.8370   32.7550   36.0940 H   0  0  0  0  0  0  0  0  0  0  0  0
   36.7200   27.7620   34.3090 C   0  0  0  0  0  3  0  0  0  0  0  0
   37.8290   27.3110   34.8560 C   0  0  0  0  0  3  0  0  0  0  0  0
   38.1300   26.6890   36.1540 C   0  0  0  0  0  0  0  0  0  0  0  0
   37.3400   26.9710   36.8850 H   0  0  0  0  0  0  0  0  0  0  0  0
   39.1280   27.0010   36.4980 H   0  0  0  0  0  0  0  0  0  0  0  0
   37.9010   25.0700   38.6830 Cl  0  0  0  0  0  0  0  0  0  0  0  0
   38.0210   24.3330   37.0810 C   0  0  0  0  0  0  0  0  0  0  0  0
   38.1200   25.2130   36.0260 C   0  0  0  0  0  0  0  0  0  0  0  0
   38.2160   24.6290   34.7580 C   0  0  0  0  0  0  0  0  0  0  0  0
   38.3000   25.2280   33.8400 H   0  0  0  0  0  0  0  0  0  0  0  0
   38.2080   23.2560   34.6290 C   0  0  0  0  0  0  0  0  0  0  0  0
   38.2850   22.8380   33.6250 H   0  0  0  0  0  0  0  0  0  0  0  0
   38.1070   22.4290   35.7170 C   0  0  0  0  0  3  0  0  0  0  0  0
   38.0080   22.9580   37.0000 C   0  0  0  0  0  3  0  0  0  0  0  0
  1  6  1  0  0  0  0
  1 11  1  0  0  0  0
  2  1  2  0  0  0  0
  3  4  2  0  0  0  0
  3  2  1  0  0  0  0
  4  5  1  0  0  0  0
  5 10  1  0  0  0  0
  5  6  2  0  0  0  0
  6 22  1  0  0  0  0
  7  2  1  0  0  0  0
  8  3  1  0  0  0  0
  9  4  1  0  0  0  0
 11 12  1  6  0  0  0
 11 17  1  0  0  0  0
 13 14  1  0  0  0  0
 13 19  1  0  0  0  0
 14 20  1  0  0  0  0
 15 21  1  0  0  0  0
 15 14  2  0  0  0  0
 16 15  1  0  0  0  0
 17 16  2  0  0  0  0
 17 18  1  0  0  0  0
 18 13  2  0  0  0  0
 22 23  2  0  0  0  0
 23 24  1  0  0  0  0
 24 26  1  0  0  0  0
 24 25  1  0  0  0  0
 28 27  1  0  0  0  0
 29 24  1  0  0  0  0
 29 28  2  0  0  0  0
 30 29  1  0  0  0  0
 31 30  1  0  0  0  0
 32 30  2  0  0  0  0
 32 34  1  0  0  0  0
 33 32  1  0  0  0  0
 34 35  2  0  0  0  0
 35 28  1  0  0  0  0
M  END
>  <minimizedAffinity>
-6.13908434

$$$$

 OpenBabel03272509413D

 35 37  0  0  1  0  0  0  0  0999 V2000
   36.7170   28.2470   32.3640 C   0  0  0  0  0  0  0  0  0  0  0  0
   36.2300   29.1710   31.4330 C   0  0  0  0  0  0  0  0  0  0  0  0
   35.3980   30.2230   31.7960 C   0  0  0  0  0  0  0  0  0  0  0  0
   35.0290   30.3720   33.1340 C   0  0  0  0  0  0  0  0  0  0  0  0
   35.5120   29.4630   34.0300 C   0  0  0  0  0  0  0  0  0  0  0  0
   36.3370   28.4280   33.6440 C   0  0  0  0  0  0  0  0  0  0  0  0
   36.5260   29.0450   30.3890 H   0  0  0  0  0  0  0  0  0  0  0  0
   35.0820   30.8790   30.9850 H   0  0  0  0  0  0  0  0  0  0  0  0
   34.3810   31.2010   33.3850 H   0  0  0  0  0  0  0  0  0  0  0  0
   35.1760   29.6540   35.0430 H   0  0  0  0  0  0  0  0  0  0  0  0
   37.5790   27.1850   31.8850 C   0  0  2  0  0  3  0  0  0  0  0  0
   38.8150   27.5290   31.7330 O   0  0  0  0  0  1  0  0  0  0  0  0
   37.8700   23.7620   30.7360 C   0  0  0  0  0  0  0  0  0  0  0  0
   36.6070   23.2250   30.9290 C   0  0  0  0  0  0  0  0  0  0  0  0
   35.6270   24.0540   31.4660 C   0  0  0  0  0  0  0  0  0  0  0  0
   35.9280   25.3430   31.7800 N   0  0  0  0  0  0  0  0  0  0  0  0
   37.1500   25.8240   31.5810 C   0  0  0  0  0  0  0  0  0  0  0  0
   38.1090   25.0200   31.0590 N   0  0  0  0  0  0  0  0  0  0  0  0
   38.5840   23.0650   30.3160 H   0  0  0  0  0  0  0  0  0  0  0  0
   36.2750   22.2170   30.7110 H   0  0  0  0  0  0  0  0  0  0  0  0
   34.6040   23.7370   31.6590 H   0  0  0  0  0  0  0  0  0  0  0  0
   36.7590   27.5500   34.7110 C   0  0  0  0  0  3  0  0  0  0  0  0
   37.9410   27.5090   35.2890 C   0  0  0  0  0  3  0  0  0  0  0  0
   38.5020   26.6920   36.3750 C   0  0  0  0  0  0  0  0  0  0  0  0
   37.9490   26.9070   37.3170 H   0  0  0  0  0  0  0  0  0  0  0  0
   39.5790   26.8990   36.4830 H   0  0  0  0  0  0  0  0  0  0  0  0
   37.8470   24.8490   38.6650 Cl  0  0  0  0  0  0  0  0  0  0  0  0
   38.0300   24.2830   37.0010 C   0  0  0  0  0  0  0  0  0  0  0  0
   38.3310   25.2520   36.0710 C   0  0  0  0  0  0  0  0  0  0  0  0
   38.4770   24.8030   34.7530 C   0  0  0  0  0  0  0  0  0  0  0  0
   38.7160   25.4840   33.9240 H   0  0  0  0  0  0  0  0  0  0  0  0
   38.3190   23.4650   34.4600 C   0  0  0  0  0  0  0  0  0  0  0  0
   38.4410   23.1530   33.4220 H   0  0  0  0  0  0  0  0  0  0  0  0
   38.0200   22.5440   35.4290 C   0  0  0  0  0  3  0  0  0  0  0  0
   37.8630   22.9370   36.7540 C   0  0  0  0  0  3  0  0  0  0  0  0
  1  6  1  0  0  0  0
  2  3  1  0  0  0  0
  2  1  2  0  0  0  0
  3  4  2  0  0  0  0
  4  9  1  0  0  0  0
  4  5  1  0  0  0  0
  5 10  1  0  0  0  0
  6  5  2  0  0  0  0
  6 22  1  0  0  0  0
  7  2  1  0  0  0  0
  8  3  1  0  0  0  0
 11 12  1  6  0  0  0
 11  1  1  0  0  0  0
 13 14  2  0  0  0  0
 13 18  1  0  0  0  0
 14 15  1  0  0  0  0
 15 21  1  0  0  0  0
 15 16  2  0  0  0  0
 17 16  1  0  0  0  0
 17 11  1  0  0  0  0
 18 17  2  0  0  0  0
 19 13  1  0  0  0  0
 20 14  1  0  0  0  0
 22 23  2  0  0  0  0
 23 24  1  0  0  0  0
 24 26  1  0  0  0  0
 24 25  1  0  0  0  0
 28 27  1  0  0  0  0
 29 24  1  0  0  0  0
 29 28  2  0  0  0  0
 30 29  1  0  0  0  0
 31 30  1  0  0  0  0
 32 30  2  0  0  0  0
 32 34  1  0  0  0  0
 33 32  1  0  0  0  0
 34 35  2  0  0  0  0
 35 28  1  0  0  0  0
M  END
>  <minimizedAffinity>
-6.05958509

$$$$

 OpenBabel03272509413D

 35 37  0  0  1  0  0  0  0  0999 V2000
   38.8540   26.9630   33.6230 C   0  0  0  0  0  0  0  0  0  0  0  0
   40.1380   26.7810   33.0980 C   0  0  0  0  0  0  0  0  0  0  0  0
   40.4530   27.0900   31.7810 C   0  0  0  0  0  0  0  0  0  0  0  0
   39.4620   27.6000   30.9420 C   0  0  0  0  0  0  0  0  0  0  0  0
   38.2140   27.7730   31.4680 C   0  0  0  0  0  0  0  0  0  0  0  0
   37.9260   27.4580   32.7790 C   0  0  0  0  0  0  0  0  0  0  0  0
   40.9060   26.3810   33.7640 H   0  0  0  0  0  0  0  0  0  0  0  0
   41.4870   26.9060   31.4850 H   0  0  0  0  0  0  0  0  0  0  0  0
   39.7380   27.8320   29.9230 H   0  0  0  0  0  0  0  0  0  0  0  0
   37.5080   28.1730   30.7490 H   0  0  0  0  0  0  0  0  0  0  0  0
   38.6260   26.6110   35.0090 C   0  0  2  0  0  3  0  0  0  0  0  0
   38.7170   27.6010   35.8330 O   0  0  0  0  0  1  0  0  0  0  0  0
   38.0790   23.0330   34.8480 C   0  0  0  0  0  0  0  0  0  0  0  0
   37.7760   22.6710   36.1500 C   0  0  0  0  0  0  0  0  0  0  0  0
   37.7570   23.6770   37.1130 C   0  0  0  0  0  0  0  0  0  0  0  0
   38.0300   24.9610   36.7570 N   0  0  0  0  0  0  0  0  0  0  0  0
   38.3160   25.2710   35.4980 C   0  0  0  0  0  0  0  0  0  0  0  0
   38.3370   24.2950   34.5560 N   0  0  0  0  0  0  0  0  0  0  0  0
   38.0770   22.2060   34.1500 H   0  0  0  0  0  0  0  0  0  0  0  0
   37.5470   21.6820   36.5270 H   0  0  0  0  0  0  0  0  0  0  0  0
   37.5330   23.5050   38.1640 H   0  0  0  0  0  0  0  0  0  0  0  0
   36.5590   27.6950   33.1810 C   0  0  0  0  0  3  0  0  0  0  0  0
   35.9310   28.8510   33.2310 C   0  0  0  0  0  3  0  0  0  0  0  0
   34.5620   29.2370   33.6030 C   0  0  0  0  0  0  0  0  0  0  0  0
   34.0090   28.3340   33.9470 H   0  0  0  0  0  0  0  0  0  0  0  0
   34.0610   29.7150   32.7470 H   0  0  0  0  0  0  0  0  0  0  0  0
   31.9940   29.7160   35.1010 Cl  0  0  0  0  0  0  0  0  0  0  0  0
   33.5080   30.5310   35.5090 C   0  0  0  0  0  0  0  0  0  0  0  0
   34.5920   30.2030   34.7260 C   0  0  0  0  0  0  0  0  0  0  0  0
   35.7900   30.8490   35.0500 C   0  0  0  0  0  0  0  0  0  0  0  0
   36.7230   30.6680   34.4970 H   0  0  0  0  0  0  0  0  0  0  0  0
   35.8270   31.7490   36.0940 C   0  0  0  0  0  0  0  0  0  0  0  0
   36.7790   32.2340   36.3150 H   0  0  0  0  0  0  0  0  0  0  0  0
   34.7140   32.0380   36.8390 C   0  0  0  0  0  3  0  0  0  0  0  0
   33.4980   31.4230   36.5600 C   0  0  0  0  0  3  0  0  0  0  0  0
  1 11  1  0  0  0  0
  2  1  1  0  0  0  0
  2  7  1  0  0  0  0
  3  2  2  0  0  0  0
  4  5  2  0  0  0  0
  4  3  1  0  0  0  0
  5  6  1  0  0  0  0
  6 22  1  0  0  0  0
  6  1  2  0  0  0  0
  8  3  1  0  0  0  0
  9  4  1  0  0  0  0
 10  5  1  0  0  0  0
 11 17  1  0  0  0  0
 11 12  1  1  0  0  0
 13 14  1  0  0  0  0
 14 20  1  0  0  0  0
 14 15  2  0  0  0  0
 15 21  1  0  0  0  0
 16 15  1  0  0  0  0
 17 16  2  0  0  0  0
 18 13  2  0  0  0  0
 18 17  1  0  0  0  0
 19 13  1  0  0  0  0
 22 23  2  0  0  0  0
 23 24  1  0  0  0  0
 24 25  1  0  0  0  0
 24 29  1  0  0  0  0
 26 24  1  0  0  0  0
 27 28  1  0  0  0  0
 28 35  1  0  0  0  0
 29 30  1  0  0  0  0
 29 28  2  0  0  0  0
 30 32  2  0  0  0  0
 31 30  1  0  0  0  0
 32 33  1  0  0  0  0
 32 34  1  0  0  0  0
 35 34  2  0  0  0  0
M  END
>  <minimizedAffinity>
-6.02591991

$$$$

 OpenBabel03272509413D

 35 37  0  0  1  0  0  0  0  0999 V2000
   35.7700   29.3810   32.7280 C   0  0  0  0  0  0  0  0  0  0  0  0
   35.7540   29.8260   31.4010 C   0  0  0  0  0  0  0  0  0  0  0  0
   36.6020   29.3040   30.4320 C   0  0  0  0  0  0  0  0  0  0  0  0
   37.5060   28.3010   30.7830 C   0  0  0  0  0  0  0  0  0  0  0  0
   37.5100   27.8770   32.0800 C   0  0  0  0  0  0  0  0  0  0  0  0
   36.6580   28.4100   33.0240 C   0  0  0  0  0  0  0  0  0  0  0  0
   35.0420   30.6110   31.1380 H   0  0  0  0  0  0  0  0  0  0  0  0
   36.4980   29.7290   29.4330 H   0  0  0  0  0  0  0  0  0  0  0  0
   38.1520   27.9150   30.0060 H   0  0  0  0  0  0  0  0  0  0  0  0
   38.2410   27.0970   32.2640 H   0  0  0  0  0  0  0  0  0  0  0  0
   34.8460   29.9880   33.6640 C   0  0  1  0  0  3  0  0  0  0  0  0
   35.3120   31.0260   34.2750 O   0  0  0  0  0  1  0  0  0  0  0  0
   31.9370   29.1310   35.6450 C   0  0  0  0  0  0  0  0  0  0  0  0
   31.0080   28.6850   34.7190 C   0  0  0  0  0  0  0  0  0  0  0  0
   31.3840   28.6760   33.3790 C   0  0  0  0  0  0  0  0  0  0  0  0
   32.6280   29.0950   33.0210 N   0  0  0  0  0  0  0  0  0  0  0  0
   33.4920   29.5160   33.9370 C   0  0  0  0  0  0  0  0  0  0  0  0
   33.1310   29.5280   35.2440 N   0  0  0  0  0  0  0  0  0  0  0  0
   31.5820   29.1130   36.6680 H   0  0  0  0  0  0  0  0  0  0  0  0
   30.0000   28.3350   34.9070 H   0  0  0  0  0  0  0  0  0  0  0  0
   30.7350   28.3470   32.5700 H   0  0  0  0  0  0  0  0  0  0  0  0
   36.7890   27.8570   34.3520 C   0  0  0  0  0  3  0  0  0  0  0  0
   37.8300   27.2280   34.8540 C   0  0  0  0  0  3  0  0  0  0  0  0
   38.1060   26.6300   36.1690 C   0  0  0  0  0  0  0  0  0  0  0  0
   37.2900   26.9060   36.8740 H   0  0  0  0  0  0  0  0  0  0  0  0
   39.0880   26.9690   36.5370 H   0  0  0  0  0  0  0  0  0  0  0  0
   37.9270   25.0440   38.7220 Cl  0  0  0  0  0  0  0  0  0  0  0  0
   38.0570   24.2870   37.1310 C   0  0  0  0  0  0  0  0  0  0  0  0
   38.1310   25.1530   36.0630 C   0  0  0  0  0  0  0  0  0  0  0  0
   38.2350   24.5530   34.8030 C   0  0  0  0  0  0  0  0  0  0  0  0
   38.3010   25.1400   33.8760 H   0  0  0  0  0  0  0  0  0  0  0  0
   38.2580   23.1780   34.6940 C   0  0  0  0  0  0  0  0  0  0  0  0
   38.3410   22.7470   33.6950 H   0  0  0  0  0  0  0  0  0  0  0  0
   38.1820   22.3650   35.7950 C   0  0  0  0  0  3  0  0  0  0  0  0
   38.0760   22.9100   37.0700 C   0  0  0  0  0  3  0  0  0  0  0  0
  1  6  1  0  0  0  0
  1 11  1  0  0  0  0
  2  1  2  0  0  0  0
  3  4  2  0  0  0  0
  3  2  1  0  0  0  0
  4  5  1  0  0  0  0
  5 10  1  0  0  0  0
  5  6  2  0  0  0  0
  6 22  1  0  0  0  0
  7  2  1  0  0  0  0
  8  3  1  0  0  0  0
  9  4  1  0  0  0  0
 11 17  1  0  0  0  0
 11 12  1  6  0  0  0
 13 19  1  0  0  0  0
 14 20  1  0  0  0  0
 14 13  2  0  0  0  0
 15 14  1  0  0  0  0
 16 15  2  0  0  0  0
 16 17  1  0  0  0  0
 17 18  2  0  0  0  0
 18 13  1  0  0  0  0
 21 15  1  0  0  0  0
 22 23  2  0  0  0  0
 23 24  1  0  0  0  0
 24 26  1  0  0  0  0
 24 25  1  0  0  0  0
 28 27  1  0  0  0  0
 29 24  1  0  0  0  0
 29 28  2  0  0  0  0
 30 29  1  0  0  0  0
 31 30  1  0  0  0  0
 32 30  2  0  0  0  0
 32 34  1  0  0  0  0
 33 32  1  0  0  0  0
 34 35  2  0  0  0  0
 35 28  1  0  0  0  0
M  END
>  <minimizedAffinity>
-5.93768549

$$$$

 OpenBabel03272509413D

 35 37  0  0  1  0  0  0  0  0999 V2000
   37.4330   22.0030   33.4960 C   0  0  0  0  0  0  0  0  0  0  0  0
   36.5970   20.8860   33.6170 C   0  0  0  0  0  0  0  0  0  0  0  0
   35.4400   20.7380   32.8630 C   0  0  0  0  0  0  0  0  0  0  0  0
   35.0880   21.7320   31.9490 C   0  0  0  0  0  0  0  0  0  0  0  0
   35.9120   22.8150   31.8410 C   0  0  0  0  0  0  0  0  0  0  0  0
   37.0560   22.9380   32.6020 C   0  0  0  0  0  0  0  0  0  0  0  0
   36.8840   20.1140   34.3350 H   0  0  0  0  0  0  0  0  0  0  0  0
   34.8700   19.8260   33.0430 H   0  0  0  0  0  0  0  0  0  0  0  0
   34.1820   21.5880   31.3760 H   0  0  0  0  0  0  0  0  0  0  0  0
   35.5640   23.5360   31.1100 H   0  0  0  0  0  0  0  0  0  0  0  0
   38.6170   22.0630   34.3270 C   0  0  1  0  0  3  0  0  0  0  0  0
   39.6960   21.6530   33.7490 O   0  0  0  0  0  1  0  0  0  0  0  0
   39.9810   22.6320   37.6350 C   0  0  0  0  0  0  0  0  0  0  0  0
   38.9820   23.3180   38.3070 C   0  0  0  0  0  0  0  0  0  0  0  0
   37.8080   23.5950   37.6120 C   0  0  0  0  0  0  0  0  0  0  0  0
   37.6750   23.1930   36.3190 N   0  0  0  0  0  0  0  0  0  0  0  0
   38.6540   22.5370   35.7070 C   0  0  0  0  0  0  0  0  0  0  0  0
   39.8000   22.2650   36.3790 N   0  0  0  0  0  0  0  0  0  0  0  0
   40.8660   22.4490   38.2310 H   0  0  0  0  0  0  0  0  0  0  0  0
   38.9970   23.6770   39.3290 H   0  0  0  0  0  0  0  0  0  0  0  0
   36.9620   24.1280   38.0410 H   0  0  0  0  0  0  0  0  0  0  0  0
   37.8180   24.1440   32.3730 C   0  0  0  0  0  3  0  0  0  0  0  0
   37.3650   25.3800   32.3420 C   0  0  0  0  0  3  0  0  0  0  0  0
   38.0120   26.6840   32.1350 C   0  0  0  0  0  0  0  0  0  0  0  0
   38.2130   26.8220   31.0490 H   0  0  0  0  0  0  0  0  0  0  0  0
   38.9390   26.7420   32.7280 H   0  0  0  0  0  0  0  0  0  0  0  0
   36.9640   28.5540   30.0200 Cl  0  0  0  0  0  0  0  0  0  0  0  0
   36.5460   28.7100   31.7300 C   0  0  0  0  0  0  0  0  0  0  0  0
   37.1100   27.7760   32.5690 C   0  0  0  0  0  0  0  0  0  0  0  0
   36.7800   27.9010   33.9230 C   0  0  0  0  0  0  0  0  0  0  0  0
   37.1680   27.2130   34.6890 H   0  0  0  0  0  0  0  0  0  0  0  0
   35.9410   28.9140   34.3370 C   0  0  0  0  0  0  0  0  0  0  0  0
   35.7070   28.9790   35.4010 H   0  0  0  0  0  0  0  0  0  0  0  0
   35.4090   29.8170   33.4550 C   0  0  0  0  0  3  0  0  0  0  0  0
   35.7040   29.7370   32.0980 C   0  0  0  0  0  3  0  0  0  0  0  0
  1  2  1  0  0  0  0
  1 11  1  0  0  0  0
  2  7  1  0  0  0  0
  3  8  1  0  0  0  0
  3  2  2  0  0  0  0
  4  3  1  0  0  0  0
  5  4  2  0  0  0  0
  5  6  1  0  0  0  0
  6  1  2  0  0  0  0
  9  4  1  0  0  0  0
 10  5  1  0  0  0  0
 11 12  1  6  0  0  0
 11 17  1  0  0  0  0
 13 19  1  0  0  0  0
 13 14  1  0  0  0  0
 14 20  1  0  0  0  0
 15 21  1  0  0  0  0
 15 14  2  0  0  0  0
 16 15  1  0  0  0  0
 17 16  2  0  0  0  0
 17 18  1  0  0  0  0
 18 13  2  0  0  0  0
 22  6  1  0  0  0  0
 23 22  2  0  0  0  0
 24 23  1  0  0  0  0
 24 29  1  0  0  0  0
 24 26  1  0  0  0  0
 25 24  1  0  0  0  0
 27 28  1  0  0  0  0
 28 35  2  0  0  0  0
 28 29  1  0  0  0  0
 29 30  2  0  0  0  0
 30 32  1  0  0  0  0
 30 31  1  0  0  0  0
 32 33  1  0  0  0  0
 34 32  2  0  0  0  0
 35 34  1  0  0  0  0
M  END
>  <minimizedAffinity>
-5.90271711

$$$$

 OpenBabel03272509413D

 35 37  0  0  1  0  0  0  0  0999 V2000
   36.5160   21.9910   31.9350 C   0  0  0  0  0  0  0  0  0  0  0  0
   35.5010   21.2620   31.3040 C   0  0  0  0  0  0  0  0  0  0  0  0
   34.8280   20.2240   31.9360 C   0  0  0  0  0  0  0  0  0  0  0  0
   35.1680   19.8880   33.2470 C   0  0  0  0  0  0  0  0  0  0  0  0
   36.1590   20.6070   33.8490 C   0  0  0  0  0  0  0  0  0  0  0  0
   36.8120   21.6340   33.2000 C   0  0  0  0  0  0  0  0  0  0  0  0
   35.2430   21.5350   30.2780 H   0  0  0  0  0  0  0  0  0  0  0  0
   34.0570   19.7300   31.3450 H   0  0  0  0  0  0  0  0  0  0  0  0
   34.6270   19.0760   33.7120 H   0  0  0  0  0  0  0  0  0  0  0  0
   36.3580   20.2800   34.8640 H   0  0  0  0  0  0  0  0  0  0  0  0
   37.1560   23.0560   31.1900 C   0  0  2  0  0  3  0  0  0  0  0  0
   38.0520   22.6550   30.3500 O   0  0  0  0  0  1  0  0  0  0  0  0
   37.7480   26.5310   32.0260 C   0  0  0  0  0  0  0  0  0  0  0  0
   36.5660   27.1720   31.6910 C   0  0  0  0  0  0  0  0  0  0  0  0
   35.5370   26.3970   31.1650 C   0  0  0  0  0  0  0  0  0  0  0  0
   35.7140   25.0590   30.9970 N   0  0  0  0  0  0  0  0  0  0  0  0
   36.8600   24.4780   31.3300 C   0  0  0  0  0  0  0  0  0  0  0  0
   37.8670   25.2280   31.8430 N   0  0  0  0  0  0  0  0  0  0  0  0
   38.5060   27.1900   32.4300 H   0  0  0  0  0  0  0  0  0  0  0  0
   36.3340   28.2260   31.7870 H   0  0  0  0  0  0  0  0  0  0  0  0
   34.5690   26.7970   30.8680 H   0  0  0  0  0  0  0  0  0  0  0  0
   37.8380   22.2950   33.9730 C   0  0  0  0  0  3  0  0  0  0  0  0
   37.9420   22.3430   35.2840 C   0  0  0  0  0  3  0  0  0  0  0  0
   38.9200   22.9570   36.1940 C   0  0  0  0  0  0  0  0  0  0  0  0
   39.9110   22.4720   36.0450 H   0  0  0  0  0  0  0  0  0  0  0  0
   38.5770   22.8610   37.2360 H   0  0  0  0  0  0  0  0  0  0  0  0
   41.2880   23.7830   34.5260 Cl  0  0  0  0  0  0  0  0  0  0  0  0
   40.0950   24.9360   35.1340 C   0  0  0  0  0  0  0  0  0  0  0  0
   39.0720   24.3970   35.8830 C   0  0  0  0  0  0  0  0  0  0  0  0
   38.1290   25.3110   36.3650 C   0  0  0  0  0  0  0  0  0  0  0  0
   37.2670   25.0000   36.9740 H   0  0  0  0  0  0  0  0  0  0  0  0
   38.2610   26.6540   36.0800 C   0  0  0  0  0  0  0  0  0  0  0  0
   37.5060   27.3350   36.4740 H   0  0  0  0  0  0  0  0  0  0  0  0
   39.3020   27.1330   35.3290 C   0  0  0  0  0  3  0  0  0  0  0  0
   40.2670   26.2680   34.8250 C   0  0  0  0  0  3  0  0  0  0  0  0
  1  6  1  0  0  0  0
  2  1  2  0  0  0  0
  2  3  1  0  0  0  0
  3  4  2  0  0  0  0
  4  9  1  0  0  0  0
  4  5  1  0  0  0  0
  5 10  1  0  0  0  0
  6  5  2  0  0  0  0
  6 22  1  0  0  0  0
  7  2  1  0  0  0  0
  8  3  1  0  0  0  0
 11 12  1  1  0  0  0
 11 17  1  0  0  0  0
 11  1  1  0  0  0  0
 13 19  1  0  0  0  0
 14 20  1  0  0  0  0
 14 13  2  0  0  0  0
 15 14  1  0  0  0  0
 16 15  2  0  0  0  0
 16 17  1  0  0  0  0
 17 18  2  0  0  0  0
 18 13  1  0  0  0  0
 21 15  1  0  0  0  0
 22 23  2  0  0  0  0
 23 24  1  0  0  0  0
 24 26  1  0  0  0  0
 25 24  1  0  0  0  0
 27 28  1  0  0  0  0
 28 29  1  0  0  0  0
 29 24  1  0  0  0  0
 29 30  2  0  0  0  0
 30 31  1  0  0  0  0
 32 30  1  0  0  0  0
 32 33  1  0  0  0  0
 34 32  2  0  0  0  0
 35 28  2  0  0  0  0
 35 34  1  0  0  0  0
M  END
>  <minimizedAffinity>
-5.90179634

$$$$

 OpenBabel03272509413D

 35 37  0  0  1  0  0  0  0  0999 V2000
   36.1350   28.9820   32.1740 C   0  0  0  0  0  0  0  0  0  0  0  0
   36.1350   29.3030   30.8120 C   0  0  0  0  0  0  0  0  0  0  0  0
   36.9780   28.6780   29.9020 C   0  0  0  0  0  0  0  0  0  0  0  0
   37.8600   27.6940   30.3500 C   0  0  0  0  0  0  0  0  0  0  0  0
   37.8480   27.3910   31.6810 C   0  0  0  0  0  0  0  0  0  0  0  0
   37.0020   28.0260   32.5650 C   0  0  0  0  0  0  0  0  0  0  0  0
   35.4400   30.0740   30.4730 H   0  0  0  0  0  0  0  0  0  0  0  0
   36.8880   29.0110   28.8670 H   0  0  0  0  0  0  0  0  0  0  0  0
   38.5020   27.2250   29.6180 H   0  0  0  0  0  0  0  0  0  0  0  0
   38.5630   26.6190   31.9410 H   0  0  0  0  0  0  0  0  0  0  0  0
   35.2180   29.6910   33.0430 C   0  0  1  0  0  3  0  0  0  0  0  0
   34.0200   29.2070   33.0620 O   0  0  0  0  0  1  0  0  0  0  0  0
   35.8500   31.6060   36.0530 C   0  0  0  0  0  0  0  0  0  0  0  0
   36.1610   32.8760   35.5940 C   0  0  0  0  0  0  0  0  0  0  0  0
   36.1540   33.0860   34.2180 C   0  0  0  0  0  0  0  0  0  0  0  0
   35.8490   32.0610   33.3780 N   0  0  0  0  0  0  0  0  0  0  0  0
   35.5560   30.8570   33.8530 C   0  0  0  0  0  0  0  0  0  0  0  0
   35.5610   30.6460   35.1930 N   0  0  0  0  0  0  0  0  0  0  0  0
   35.8730   31.5090   37.1310 H   0  0  0  0  0  0  0  0  0  0  0  0
   36.4160   33.7490   36.1830 H   0  0  0  0  0  0  0  0  0  0  0  0
   36.3830   34.0420   33.7510 H   0  0  0  0  0  0  0  0  0  0  0  0
   37.1140   27.5950   33.9400 C   0  0  0  0  0  3  0  0  0  0  0  0
   38.2110   27.2510   34.5800 C   0  0  0  0  0  3  0  0  0  0  0  0
   38.4760   26.8100   35.9570 C   0  0  0  0  0  0  0  0  0  0  0  0
   37.5990   27.0610   36.5960 H   0  0  0  0  0  0  0  0  0  0  0  0
   39.3970   27.2830   36.3340 H   0  0  0  0  0  0  0  0  0  0  0  0
   41.0280   25.6860   34.8230 Cl  0  0  0  0  0  0  0  0  0  0  0  0
   39.7620   24.6710   35.5220 C   0  0  0  0  0  0  0  0  0  0  0  0
   38.6560   25.3400   35.9970 C   0  0  0  0  0  0  0  0  0  0  0  0
   37.6530   24.5360   36.5490 C   0  0  0  0  0  0  0  0  0  0  0  0
   36.7240   24.9560   36.9610 H   0  0  0  0  0  0  0  0  0  0  0  0
   37.8120   23.1670   36.5910 C   0  0  0  0  0  0  0  0  0  0  0  0
   37.0080   22.5740   37.0290 H   0  0  0  0  0  0  0  0  0  0  0  0
   38.9360   22.5560   36.1020 C   0  0  0  0  0  3  0  0  0  0  0  0
   39.9640   23.3080   35.5420 C   0  0  0  0  0  3  0  0  0  0  0  0
  1  6  1  0  0  0  0
  1 11  1  0  0  0  0
  2  1  2  0  0  0  0
  3  4  2  0  0  0  0
  3  2  1  0  0  0  0
  4  5  1  0  0  0  0
  5 10  1  0  0  0  0
  5  6  2  0  0  0  0
  6 22  1  0  0  0  0
  7  2  1  0  0  0  0
  8  3  1  0  0  0  0
  9  4  1  0  0  0  0
 11 12  1  1  0  0  0
 11 17  1  0  0  0  0
 13 19  1  0  0  0  0
 14 13  1  0  0  0  0
 14 20  1  0  0  0  0
 15 14  2  0  0  0  0
 16 17  2  0  0  0  0
 16 15  1  0  0  0  0
 17 18  1  0  0  0  0
 18 13  2  0  0  0  0
 21 15  1  0  0  0  0
 22 23  2  0  0  0  0
 23 24  1  0  0  0  0
 24 29  1  0  0  0  0
 24 26  1  0  0  0  0
 24 25  1  0  0  0  0
 27 28  1  0  0  0  0
 28 35  2  0  0  0  0
 28 29  1  0  0  0  0
 29 30  2  0  0  0  0
 30 32  1  0  0  0  0
 30 31  1  0  0  0  0
 32 33  1  0  0  0  0
 34 32  2  0  0  0  0
 35 34  1  0  0  0  0
M  END
>  <minimizedAffinity>
-5.78494596

$$$$

 OpenBabel03272509413D

 35 37  0  0  1  0  0  0  0  0999 V2000
   37.6140   22.2180   33.3800 C   0  0  0  0  0  0  0  0  0  0  0  0
   36.9360   20.9980   33.2890 C   0  0  0  0  0  0  0  0  0  0  0  0
   35.8290   20.8220   32.4680 C   0  0  0  0  0  0  0  0  0  0  0  0
   35.3680   21.8950   31.7040 C   0  0  0  0  0  0  0  0  0  0  0  0
   36.0390   23.0790   31.8030 C   0  0  0  0  0  0  0  0  0  0  0  0
   37.1360   23.2270   32.6250 C   0  0  0  0  0  0  0  0  0  0  0  0
   37.3070   20.1650   33.8910 H   0  0  0  0  0  0  0  0  0  0  0  0
   35.3840   19.8270   32.4790 H   0  0  0  0  0  0  0  0  0  0  0  0
   34.5040   21.7270   31.0750 H   0  0  0  0  0  0  0  0  0  0  0  0
   35.6140   23.8550   31.1770 H   0  0  0  0  0  0  0  0  0  0  0  0
   38.7590   22.3000   34.2640 C   0  0  2  0  0  3  0  0  0  0  0  0
   39.8800   21.9670   33.7170 O   0  0  0  0  0  1  0  0  0  0  0  0
   39.9060   22.6820   37.6790 C   0  0  0  0  0  0  0  0  0  0  0  0
   38.8860   23.3760   38.3100 C   0  0  0  0  0  0  0  0  0  0  0  0
   37.7730   23.7230   37.5490 C   0  0  0  0  0  0  0  0  0  0  0  0
   37.7170   23.3790   36.2340 N   0  0  0  0  0  0  0  0  0  0  0  0
   38.7150   22.7140   35.6630 C   0  0  0  0  0  0  0  0  0  0  0  0
   39.8010   22.3740   36.3990 N   0  0  0  0  0  0  0  0  0  0  0  0
   40.7410   22.4430   38.3260 H   0  0  0  0  0  0  0  0  0  0  0  0
   38.8410   23.6910   39.3460 H   0  0  0  0  0  0  0  0  0  0  0  0
   36.9170   24.2670   37.9430 H   0  0  0  0  0  0  0  0  0  0  0  0
   37.7330   24.5430   32.6210 C   0  0  0  0  0  3  0  0  0  0  0  0
   37.1590   25.6800   32.9560 C   0  0  0  0  0  3  0  0  0  0  0  0
   37.6360   27.0690   33.0110 C   0  0  0  0  0  0  0  0  0  0  0  0
   37.2850   27.5380   33.9580 H   0  0  0  0  0  0  0  0  0  0  0  0
   37.2790   27.6250   32.1290 H   0  0  0  0  0  0  0  0  0  0  0  0
   39.0310   26.8690   35.6730 Cl  0  0  0  0  0  0  0  0  0  0  0  0
   39.9020   27.0190   34.1430 C   0  0  0  0  0  0  0  0  0  0  0  0
   39.1170   27.1010   33.0150 C   0  0  0  0  0  0  0  0  0  0  0  0
   39.8080   27.2210   31.8040 C   0  0  0  0  0  0  0  0  0  0  0  0
   39.2900   27.2940   30.8360 H   0  0  0  0  0  0  0  0  0  0  0  0
   41.1870   27.2510   31.7970 C   0  0  0  0  0  0  0  0  0  0  0  0
   41.6900   27.3460   30.8330 H   0  0  0  0  0  0  0  0  0  0  0  0
   41.9170   27.1650   32.9530 C   0  0  0  0  0  3  0  0  0  0  0  0
   41.2800   27.0440   34.1840 C   0  0  0  0  0  3  0  0  0  0  0  0
  1 11  1  0  0  0  0
  2  1  1  0  0  0  0
  2  7  1  0  0  0  0
  3  8  1  0  0  0  0
  3  2  2  0  0  0  0
  4  5  2  0  0  0  0
  4  3  1  0  0  0  0
  5  6  1  0  0  0  0
  6  1  2  0  0  0  0
  9  4  1  0  0  0  0
 10  5  1  0  0  0  0
 11 12  1  1  0  0  0
 11 17  1  0  0  0  0
 13 14  1  0  0  0  0
 13 19  1  0  0  0  0
 14 20  1  0  0  0  0
 15 21  1  0  0  0  0
 15 14  2  0  0  0  0
 16 15  1  0  0  0  0
 17 16  2  0  0  0  0
 17 18  1  0  0  0  0
 18 13  2  0  0  0  0
 22  6  1  0  0  0  0
 22 23  2  0  0  0  0
 23 24  1  0  0  0  0
 24 29  1  0  0  0  0
 24 25  1  0  0  0  0
 26 24  1  0  0  0  0
 28 35  1  0  0  0  0
 28 27  1  0  0  0  0
 29 28  2  0  0  0  0
 30 29  1  0  0  0  0
 31 30  1  0  0  0  0
 32 30  2  0  0  0  0
 32 34  1  0  0  0  0
 33 32  1  0  0  0  0
 34 35  2  0  0  0  0
M  END
>  <minimizedAffinity>
-5.78181839

$$$$

 OpenBabel03272509413D

 35 37  0  0  1  0  0  0  0  0999 V2000
   38.0290   26.9640   33.0920 C   0  0  0  0  0  0  0  0  0  0  0  0
   39.3360   26.4960   33.2680 C   0  0  0  0  0  0  0  0  0  0  0  0
   39.9870   26.5510   34.4950 C   0  0  0  0  0  0  0  0  0  0  0  0
   39.3230   27.0910   35.5970 C   0  0  0  0  0  0  0  0  0  0  0  0
   38.0490   27.5440   35.4100 C   0  0  0  0  0  0  0  0  0  0  0  0
   37.4250   27.4780   34.1820 C   0  0  0  0  0  0  0  0  0  0  0  0
   39.8460   26.0740   32.3990 H   0  0  0  0  0  0  0  0  0  0  0  0
   41.0030   26.1550   34.5100 H   0  0  0  0  0  0  0  0  0  0  0  0
   39.8550   27.1190   36.5380 H   0  0  0  0  0  0  0  0  0  0  0  0
   37.6100   27.9450   36.3160 H   0  0  0  0  0  0  0  0  0  0  0  0
   37.4390   26.8620   31.7730 C   0  0  1  0  0  3  0  0  0  0  0  0
   36.8090   25.7560   31.5560 O   0  0  0  0  0  1  0  0  0  0  0  0
   38.5610   28.4550   28.7190 C   0  0  0  0  0  0  0  0  0  0  0  0
   37.8420   29.6380   28.6630 C   0  0  0  0  0  0  0  0  0  0  0  0
   36.9480   29.9020   29.6980 C   0  0  0  0  0  0  0  0  0  0  0  0
   36.8070   29.0100   30.7150 N   0  0  0  0  0  0  0  0  0  0  0  0
   37.5140   27.8850   30.7350 C   0  0  0  0  0  0  0  0  0  0  0  0
   38.3850   27.6240   29.7300 N   0  0  0  0  0  0  0  0  0  0  0  0
   39.2370   28.3120   27.8860 H   0  0  0  0  0  0  0  0  0  0  0  0
   37.8860   30.4050   27.8990 H   0  0  0  0  0  0  0  0  0  0  0  0
   36.3340   30.7980   29.7540 H   0  0  0  0  0  0  0  0  0  0  0  0
   36.0790   28.0020   34.1490 C   0  0  0  0  0  3  0  0  0  0  0  0
   35.7160   29.2670   34.1210 C   0  0  0  0  0  3  0  0  0  0  0  0
   34.4090   29.9380   34.0750 C   0  0  0  0  0  0  0  0  0  0  0  0
   33.6030   29.1710   34.1260 H   0  0  0  0  0  0  0  0  0  0  0  0
   34.3300   30.5450   33.1600 H   0  0  0  0  0  0  0  0  0  0  0  0
   31.8580   29.7320   35.6630 Cl  0  0  0  0  0  0  0  0  0  0  0  0
   33.1530   30.8630   36.0720 C   0  0  0  0  0  0  0  0  0  0  0  0
   34.2540   30.8330   35.2450 C   0  0  0  0  0  0  0  0  0  0  0  0
   35.2780   31.7300   35.5690 C   0  0  0  0  0  0  0  0  0  0  0  0
   36.2070   31.7980   34.9830 H   0  0  0  0  0  0  0  0  0  0  0  0
   35.1430   32.5670   36.6560 C   0  0  0  0  0  0  0  0  0  0  0  0
   35.9630   33.2520   36.8770 H   0  0  0  0  0  0  0  0  0  0  0  0
   34.0220   32.5520   37.4440 C   0  0  0  0  0  3  0  0  0  0  0  0
   32.9750   31.6800   37.1670 C   0  0  0  0  0  3  0  0  0  0  0  0
  1  2  2  0  0  0  0
  1  6  1  0  0  0  0
  2  3  1  0  0  0  0
  3  8  1  0  0  0  0
  3  4  2  0  0  0  0
  4  9  1  0  0  0  0
  5  4  1  0  0  0  0
  5 10  1  0  0  0  0
  6  5  2  0  0  0  0
  7  2  1  0  0  0  0
 11 12  1  1  0  0  0
 11  1  1  0  0  0  0
 13 18  1  0  0  0  0
 14 13  2  0  0  0  0
 14 15  1  0  0  0  0
 15 21  1  0  0  0  0
 15 16  2  0  0  0  0
 16 17  1  0  0  0  0
 17 11  1  0  0  0  0
 18 17  2  0  0  0  0
 19 13  1  0  0  0  0
 20 14  1  0  0  0  0
 22  6  1  0  0  0  0
 23 22  2  0  0  0  0
 24 23  1  0  0  0  0
 24 25  1  0  0  0  0
 24 29  1  0  0  0  0
 26 24  1  0  0  0  0
 27 28  1  0  0  0  0
 28 35  1  0  0  0  0
 29 30  1  0  0  0  0
 29 28  2  0  0  0  0
 30 32  2  0  0  0  0
 31 30  1  0  0  0  0
 32 33  1  0  0  0  0
 32 34  1  0  0  0  0
 35 34  2  0  0  0  0
M  END
>  <minimizedAffinity>
-5.77104759

$$$$
