
 OpenBabel03272509403D

 35 37  0  0  1  0  0  0  0  0999 V2000
   37.0200   30.9460   49.0830 C   0  0  0  0  0  0  0  0  0  0  0  0
   36.7420   31.8630   50.1030 C   0  0  0  0  0  0  0  0  0  0  0  0
   37.3400   33.1150   50.1600 C   0  0  0  0  0  0  0  0  0  0  0  0
   38.2520   33.4830   49.1700 C   0  0  0  0  0  0  0  0  0  0  0  0
   38.5130   32.5790   48.1820 C   0  0  0  0  0  0  0  0  0  0  0  0
   37.9060   31.3410   48.1470 C   0  0  0  0  0  0  0  0  0  0  0  0
   36.0260   31.5640   50.8720 H   0  0  0  0  0  0  0  0  0  0  0  0
   37.0450   33.7440   51.0010 H   0  0  0  0  0  0  0  0  0  0  0  0
   38.7000   34.4640   49.2410 H   0  0  0  0  0  0  0  0  0  0  0  0
   39.2310   32.9460   47.4570 H   0  0  0  0  0  0  0  0  0  0  0  0
   36.3440   29.6650   49.1130 C   0  0  2  0  0  3  0  0  0  0  0  0
   36.8860   28.7940   49.8970 O   0  0  0  0  0  1  0  0  0  0  0  0
   33.5980   30.1590   46.8010 C   0  0  0  0  0  0  0  0  0  0  0  0
   32.9240   28.9480   46.8040 C   0  0  0  0  0  0  0  0  0  0  0  0
   33.4190   27.9330   47.6180 C   0  0  0  0  0  0  0  0  0  0  0  0
   34.5280   28.1520   48.3740 N   0  0  0  0  0  0  0  0  0  0  0  0
   35.1490   29.3260   48.3460 C   0  0  0  0  0  0  0  0  0  0  0  0
   34.6710   30.3180   47.5550 N   0  0  0  0  0  0  0  0  0  0  0  0
   33.1620   30.9040   46.1490 H   0  0  0  0  0  0  0  0  0  0  0  0
   32.0380   28.6820   46.2390 H   0  0  0  0  0  0  0  0  0  0  0  0
   32.9680   26.9460   47.6960 H   0  0  0  0  0  0  0  0  0  0  0  0
   38.2910   30.4990   47.0390 C   0  0  0  0  0  3  0  0  0  0  0  0
   38.9920   30.8450   45.9800 C   0  0  0  0  0  3  0  0  0  0  0  0
   39.4620   30.1070   44.7980 C   0  0  0  0  0  0  0  0  0  0  0  0
   39.1490   29.0420   44.8850 H   0  0  0  0  0  0  0  0  0  0  0  0
   40.5560   30.2000   44.7080 H   0  0  0  0  0  0  0  0  0  0  0  0
   39.2100   28.2820   42.4150 Cl  0  0  0  0  0  0  0  0  0  0  0  0
   38.6550   29.9590   42.4010 C   0  0  0  0  0  0  0  0  0  0  0  0
   38.8430   30.6610   43.5720 C   0  0  0  0  0  0  0  0  0  0  0  0
   38.4040   31.9890   43.5590 C   0  0  0  0  0  0  0  0  0  0  0  0
   38.5000   32.6480   44.4340 H   0  0  0  0  0  0  0  0  0  0  0  0
   37.8260   32.5130   42.4210 C   0  0  0  0  0  0  0  0  0  0  0  0
   37.4960   33.5520   42.4510 H   0  0  0  0  0  0  0  0  0  0  0  0
   37.6640   31.7660   41.2840 C   0  0  0  0  0  3  0  0  0  0  0  0
   38.0840   30.4410   41.2430 C   0  0  0  0  0  3  0  0  0  0  0  0
  1 11  1  0  0  0  0
  1  2  1  0  0  0  0
  2  3  2  0  0  0  0
  2  7  1  0  0  0  0
  3  8  1  0  0  0  0
  4  9  1  0  0  0  0
  4  3  1  0  0  0  0
  5  4  2  0  0  0  0
  6  5  1  0  0  0  0
  6  1  2  0  0  0  0
 10  5  1  0  0  0  0
 11 12  1  6  0  0  0
 13 14  2  0  0  0  0
 13 18  1  0  0  0  0
 14 15  1  0  0  0  0
 15 21  1  0  0  0  0
 15 16  2  0  0  0  0
 17 16  1  0  0  0  0
 17 11  1  0  0  0  0
 18 17  2  0  0  0  0
 19 13  1  0  0  0  0
 20 14  1  0  0  0  0
 22  6  1  0  0  0  0
 23 22  2  0  0  0  0
 24 25  1  0  0  0  0
 24 23  1  0  0  0  0
 26 24  1  0  0  0  0
 28 27  1  0  0  0  0
 28 29  1  0  0  0  0
 29 24  1  0  0  0  0
 30 29  2  0  0  0  0
 30 31  1  0  0  0  0
 32 33  1  0  0  0  0
 32 30  1  0  0  0  0
 34 32  2  0  0  0  0
 35 34  1  0  0  0  0
 35 28  2  0  0  0  0
M  END
>  <minimizedAffinity>
-5.82596636

>  <minimizedRMSD>
0.421052516

$$$$
