
 OpenBabel03272509393D

 35 37  0  0  1  0  0  0  0  0999 V2000
   37.0520   30.9570   49.0620 C   0  0  0  0  0  0  0  0  0  0  0  0
   36.7970   31.8940   50.0700 C   0  0  0  0  0  0  0  0  0  0  0  0
   37.4110   33.1400   50.1000 C   0  0  0  0  0  0  0  0  0  0  0  0
   38.3150   33.4810   49.0940 C   0  0  0  0  0  0  0  0  0  0  0  0
   38.5540   32.5580   48.1170 C   0  0  0  0  0  0  0  0  0  0  0  0
   37.9320   31.3270   48.1090 C   0  0  0  0  0  0  0  0  0  0  0  0
   36.0870   31.6160   50.8520 H   0  0  0  0  0  0  0  0  0  0  0  0
   37.1320   33.7850   50.9340 H   0  0  0  0  0  0  0  0  0  0  0  0
   38.7750   34.4580   49.1440 H   0  0  0  0  0  0  0  0  0  0  0  0
   39.2670   32.9050   47.3780 H   0  0  0  0  0  0  0  0  0  0  0  0
   36.3620   29.6850   49.1190 C   0  0  1  0  0  3  0  0  0  0  0  0
   36.8900   28.8280   49.9280 O   0  0  0  0  0  1  0  0  0  0  0  0
   33.6120   30.1640   46.8090 C   0  0  0  0  0  0  0  0  0  0  0  0
   32.9410   28.9520   46.8170 C   0  0  0  0  0  0  0  0  0  0  0  0
   33.4400   27.9410   47.6340 C   0  0  0  0  0  0  0  0  0  0  0  0
   34.5490   28.1650   48.3880 N   0  0  0  0  0  0  0  0  0  0  0  0
   35.1670   29.3400   48.3560 C   0  0  0  0  0  0  0  0  0  0  0  0
   34.6860   30.3280   47.5610 N   0  0  0  0  0  0  0  0  0  0  0  0
   33.1740   30.9050   46.1540 H   0  0  0  0  0  0  0  0  0  0  0  0
   32.0550   28.6810   46.2540 H   0  0  0  0  0  0  0  0  0  0  0  0
   32.9920   26.9530   47.7160 H   0  0  0  0  0  0  0  0  0  0  0  0
   38.2940   30.4630   47.0100 C   0  0  0  0  0  3  0  0  0  0  0  0
   38.9840   30.7850   45.9360 C   0  0  0  0  0  3  0  0  0  0  0  0
   39.4310   30.0230   44.7610 C   0  0  0  0  0  0  0  0  0  0  0  0
   38.9500   29.0190   44.7730 H   0  0  0  0  0  0  0  0  0  0  0  0
   40.5300   29.9440   44.7600 H   0  0  0  0  0  0  0  0  0  0  0  0
   36.8170   29.1880   43.5180 Cl  0  0  0  0  0  0  0  0  0  0  0  0
   37.8470   30.4460   42.8290 C   0  0  0  0  0  0  0  0  0  0  0  0
   39.0110   30.7100   43.5180 C   0  0  0  0  0  0  0  0  0  0  0  0
   39.8270   31.7060   42.9700 C   0  0  0  0  0  0  0  0  0  0  0  0
   40.7800   32.0040   43.4310 H   0  0  0  0  0  0  0  0  0  0  0  0
   39.4430   32.3510   41.8130 C   0  0  0  0  0  0  0  0  0  0  0  0
   40.1060   33.1220   41.4160 H   0  0  0  0  0  0  0  0  0  0  0  0
   38.2730   32.0460   41.1690 C   0  0  0  0  0  3  0  0  0  0  0  0
   37.4250   31.0640   41.6710 C   0  0  0  0  0  3  0  0  0  0  0  0
  1 11  1  0  0  0  0
  1  2  1  0  0  0  0
  2  3  2  0  0  0  0
  2  7  1  0  0  0  0
  3  8  1  0  0  0  0
  4  9  1  0  0  0  0
  4  3  1  0  0  0  0
  5  4  2  0  0  0  0
  6  5  1  0  0  0  0
  6  1  2  0  0  0  0
 10  5  1  0  0  0  0
 11 12  1  1  0  0  0
 13 14  2  0  0  0  0
 13 18  1  0  0  0  0
 14 15  1  0  0  0  0
 15 21  1  0  0  0  0
 15 16  2  0  0  0  0
 17 16  1  0  0  0  0
 17 11  1  0  0  0  0
 18 17  2  0  0  0  0
 19 13  1  0  0  0  0
 20 14  1  0  0  0  0
 22  6  1  0  0  0  0
 23 22  2  0  0  0  0
 24 25  1  0  0  0  0
 24 23  1  0  0  0  0
 26 24  1  0  0  0  0
 28 27  1  0  0  0  0
 28 29  1  0  0  0  0
 29 24  1  0  0  0  0
 30 31  1  0  0  0  0
 30 29  2  0  0  0  0
 32 30  1  0  0  0  0
 33 32  1  0  0  0  0
 34 35  1  0  0  0  0
 34 32  2  0  0  0  0
 35 28  2  0  0  0  0
M  END
>  <minimizedAffinity>
-5.98170185

>  <minimizedRMSD>
0.807166636

$$$$
