
 OpenBabel03272509573D

 46 49  0  0  0  0  0  0  0  0999 V2000
   34.5450   28.2910   48.4020 C   0  0  0  0  0  0  0  0  0  0  0  0
   34.4280   29.0670   47.6330 H   0  0  0  0  0  0  0  0  0  0  0  0
   35.5520   27.8320   48.2800 H   0  0  0  0  0  0  0  0  0  0  0  0
   33.5500   27.1700   48.3170 C   0  0  0  0  0  0  0  0  0  0  0  0
   33.8930   26.3650   47.6240 H   0  0  0  0  0  0  0  0  0  0  0  0
   33.4220   26.7170   49.3010 H   0  0  0  0  0  0  0  0  0  0  0  0
   32.2210   27.6230   47.8020 C   0  0  0  0  0  0  0  0  0  0  0  0
   31.1490   27.6010   48.7050 C   0  0  0  0  0  0  0  0  0  0  0  0
   29.8900   28.0030   48.3130 C   0  0  0  0  0  0  0  0  0  0  0  0
   29.6900   28.4150   47.0700 N   0  0  0  0  0  0  0  0  0  0  0  0
   30.7500   28.4280   46.2070 C   0  0  0  0  0  0  0  0  0  0  0  0
   31.9820   28.0460   46.5520 N   0  0  0  0  0  0  0  0  0  0  0  0
   31.2900   27.2690   49.7260 H   0  0  0  0  0  0  0  0  0  0  0  0
   29.0680   27.9750   49.0440 H   0  0  0  0  0  0  0  0  0  0  0  0
   30.4670   28.9000   44.8230 C   0  0  0  0  0  0  0  0  0  0  0  0
   31.2280   28.4090   44.1820 H   0  0  0  0  0  0  0  0  0  0  0  0
   29.4960   28.4540   44.5090 H   0  0  0  0  0  0  0  0  0  0  0  0
   27.7830   30.2850   44.3780 Cl  0  0  0  0  0  0  0  0  0  0  0  0
   29.3230   31.0700   44.4890 C   0  0  0  0  0  0  0  0  0  0  0  0
   30.4930   30.3700   44.6900 C   0  0  0  0  0  0  0  0  0  0  0  0
   31.7470   30.9860   44.7810 C   0  0  0  0  0  0  0  0  0  0  0  0
   32.6350   30.3900   44.9400 H   0  0  0  0  0  0  0  0  0  0  0  0
   31.8170   32.3780   44.6630 C   0  0  0  0  0  0  0  0  0  0  0  0
   32.8150   32.7880   44.7440 H   0  0  0  0  0  0  0  0  0  0  0  0
   30.6580   33.1260   44.4590 C   0  0  0  0  0  3  0  0  0  0  0  0
   29.4770   32.4220   44.3840 C   0  0  0  0  0  3  0  0  0  0  0  0
   34.5430   28.8790   49.6990 O   0  0  0  0  0  0  0  0  0  0  0  0
   37.3170   30.0380   51.7140 C   0  0  0  0  0  0  0  0  0  0  0  0
   38.0780   30.6850   50.7180 C   0  0  0  0  0  0  0  0  0  0  0  0
   37.6000   30.6860   49.4230 C   0  0  0  0  0  0  0  0  0  0  0  0
   36.4040   30.0430   49.2290 N   0  0  0  0  0  0  0  0  0  0  0  0
   35.6890   29.4340   50.1690 C   0  0  0  0  0  0  0  0  0  0  0  0
   36.1670   29.4400   51.4340 N   0  0  0  0  0  0  0  0  0  0  0  0
   37.7410   30.0690   52.7080 H   0  0  0  0  0  0  0  0  0  0  0  0
   39.0140   31.1930   50.8470 H   0  0  0  0  0  0  0  0  0  0  0  0
   38.8360   33.2920   49.2480 F   0  0  0  0  0  0  0  0  0  0  0  0
   38.8260   32.5040   48.1830 C   0  0  0  0  0  0  0  0  0  0  0  0
   38.2490   31.2990   48.2830 C   0  0  0  0  0  0  0  0  0  0  0  0
   38.2920   30.5460   47.1070 C   0  0  0  0  0  0  0  0  0  0  0  0
   38.8730   31.0020   45.9540 C   0  0  0  0  0  0  0  0  0  0  0  0
   39.4530   32.2510   45.9060 C   0  0  0  0  0  0  0  0  0  0  0  0
   39.4210   33.0010   47.0470 C   0  0  0  0  0  0  0  0  0  0  0  0
   37.8690   29.5410   47.0080 H   0  0  0  0  0  0  0  0  0  0  0  0
   38.9120   30.4260   45.0340 H   0  0  0  0  0  0  0  0  0  0  0  0
   39.9190   32.6310   45.0040 H   0  0  0  0  0  0  0  0  0  0  0  0
   39.8730   33.9850   47.0260 H   0  0  0  0  0  0  0  0  0  0  0  0
  1 27  1  0  0  0  0
  2  1  1  0  0  0  0
  3  1  1  0  0  0  0
  4  1  1  0  0  0  0
  4  6  1  0  0  0  0
  5  4  1  0  0  0  0
  7  4  1  0  0  0  0
  7  8  1  0  0  0  0
  8 13  1  0  0  0  0
  9  8  2  0  0  0  0
  9 14  1  0  0  0  0
 10  9  1  0  0  0  0
 11 12  1  0  0  0  0
 11 10  2  0  0  0  0
 12  7  2  0  0  0  0
 15 11  1  0  0  0  0
 16 15  1  0  0  0  0
 17 15  1  0  0  0  0
 18 19  1  0  0  0  0
 19 20  1  0  0  0  0
 20 21  2  0  0  0  0
 20 15  1  0  0  0  0
 21 22  1  0  0  0  0
 23 24  1  0  0  0  0
 23 21  1  0  0  0  0
 25 23  2  0  0  0  0
 26 25  1  0  0  0  0
 26 19  2  0  0  0  0
 27 32  1  0  0  0  0
 28 34  1  0  0  0  0
 29 35  1  0  0  0  0
 29 28  2  0  0  0  0
 30 29  1  0  0  0  0
 31 30  2  0  0  0  0
 31 32  1  0  0  0  0
 32 33  2  0  0  0  0
 33 28  1  0  0  0  0
 37 38  1  0  0  0  0
 37 36  1  0  0  0  0
 38 30  1  0  0  0  0
 39 38  2  0  0  0  0
 40 39  1  0  0  0  0
 41 40  2  0  0  0  0
 41 42  1  0  0  0  0
 42 37  2  0  0  0  0
 43 39  1  0  0  0  0
 44 40  1  0  0  0  0
 45 41  1  0  0  0  0
 46 42  1  0  0  0  0
M  END
>  <minimizedAffinity>
-6.39300156

>  <minimizedRMSD>
1.17288947

$$$$
