
 OpenBabel03272509573D

 46 49  0  0  0  0  0  0  0  0999 V2000
   34.3970   28.5450   48.2840 C   0  0  0  0  0  0  0  0  0  0  0  0
   34.1030   29.3560   47.6030 H   0  0  0  0  0  0  0  0  0  0  0  0
   35.4410   28.2460   48.0370 H   0  0  0  0  0  0  0  0  0  0  0  0
   33.5590   27.3040   48.1760 C   0  0  0  0  0  0  0  0  0  0  0  0
   33.9540   26.6050   47.4000 H   0  0  0  0  0  0  0  0  0  0  0  0
   33.5710   26.7690   49.1280 H   0  0  0  0  0  0  0  0  0  0  0  0
   32.1450   27.5990   47.7900 C   0  0  0  0  0  0  0  0  0  0  0  0
   31.1930   27.6030   48.8180 C   0  0  0  0  0  0  0  0  0  0  0  0
   29.8670   27.8670   48.5490 C   0  0  0  0  0  0  0  0  0  0  0  0
   29.4880   28.1200   47.3050 N   0  0  0  0  0  0  0  0  0  0  0  0
   30.4340   28.1110   46.3180 C   0  0  0  0  0  0  0  0  0  0  0  0
   31.7260   27.8590   46.5420 N   0  0  0  0  0  0  0  0  0  0  0  0
   31.4810   27.4000   49.8410 H   0  0  0  0  0  0  0  0  0  0  0  0
   29.1420   27.8630   49.3760 H   0  0  0  0  0  0  0  0  0  0  0  0
   29.9510   28.4010   44.9400 C   0  0  0  0  0  0  0  0  0  0  0  0
   30.6070   27.8110   44.2660 H   0  0  0  0  0  0  0  0  0  0  0  0
   28.9420   27.9420   44.8340 H   0  0  0  0  0  0  0  0  0  0  0  0
   32.4880   29.4840   43.6350 Cl  0  0  0  0  0  0  0  0  0  0  0  0
   31.0720   30.4050   44.0140 C   0  0  0  0  0  0  0  0  0  0  0  0
   29.9630   29.8390   44.6070 C   0  0  0  0  0  0  0  0  0  0  0  0
   28.8100   30.5660   44.9220 C   0  0  0  0  0  0  0  0  0  0  0  0
   27.9660   30.0750   45.3870 H   0  0  0  0  0  0  0  0  0  0  0  0
   28.7790   31.9330   44.6230 C   0  0  0  0  0  0  0  0  0  0  0  0
   27.8580   32.4330   44.8930 H   0  0  0  0  0  0  0  0  0  0  0  0
   29.8790   32.5460   44.0240 C   0  0  0  0  0  3  0  0  0  0  0  0
   30.9620   31.7400   43.7550 C   0  0  0  0  0  3  0  0  0  0  0  0
   34.4380   29.0180   49.6260 O   0  0  0  0  0  0  0  0  0  0  0  0
   37.2590   29.9910   51.6740 C   0  0  0  0  0  0  0  0  0  0  0  0
   38.0460   30.6400   50.6990 C   0  0  0  0  0  0  0  0  0  0  0  0
   37.5670   30.7050   49.4060 C   0  0  0  0  0  0  0  0  0  0  0  0
   36.3460   30.1190   49.1930 N   0  0  0  0  0  0  0  0  0  0  0  0
   35.6060   29.5090   50.1130 C   0  0  0  0  0  0  0  0  0  0  0  0
   36.0850   29.4520   51.3760 N   0  0  0  0  0  0  0  0  0  0  0  0
   37.6850   29.9710   52.6680 H   0  0  0  0  0  0  0  0  0  0  0  0
   39.0030   31.1040   50.8440 H   0  0  0  0  0  0  0  0  0  0  0  0
   38.8080   33.3110   49.2830 F   0  0  0  0  0  0  0  0  0  0  0  0
   38.8220   32.5340   48.2100 C   0  0  0  0  0  0  0  0  0  0  0  0
   38.2410   31.3280   48.2860 C   0  0  0  0  0  0  0  0  0  0  0  0
   38.3090   30.5870   47.1030 C   0  0  0  0  0  0  0  0  0  0  0  0
   38.9140   31.0530   45.9680 C   0  0  0  0  0  0  0  0  0  0  0  0
   39.4960   32.3030   45.9450 C   0  0  0  0  0  0  0  0  0  0  0  0
   39.4410   33.0420   47.0920 C   0  0  0  0  0  0  0  0  0  0  0  0
   37.8880   29.5830   46.9860 H   0  0  0  0  0  0  0  0  0  0  0  0
   38.9730   30.4870   45.0440 H   0  0  0  0  0  0  0  0  0  0  0  0
   39.9820   32.6910   45.0570 H   0  0  0  0  0  0  0  0  0  0  0  0
   39.8930   34.0250   47.0910 H   0  0  0  0  0  0  0  0  0  0  0  0
  1 27  1  0  0  0  0
  2  1  1  0  0  0  0
  3  1  1  0  0  0  0
  4  1  1  0  0  0  0
  4  6  1  0  0  0  0
  5  4  1  0  0  0  0
  7  4  1  0  0  0  0
  7  8  1  0  0  0  0
  8 13  1  0  0  0  0
  9  8  2  0  0  0  0
  9 14  1  0  0  0  0
 10  9  1  0  0  0  0
 11 12  1  0  0  0  0
 11 10  2  0  0  0  0
 12  7  2  0  0  0  0
 15 11  1  0  0  0  0
 16 15  1  0  0  0  0
 17 15  1  0  0  0  0
 18 19  1  0  0  0  0
 19 20  1  0  0  0  0
 20 21  2  0  0  0  0
 20 15  1  0  0  0  0
 21 22  1  0  0  0  0
 23 24  1  0  0  0  0
 23 21  1  0  0  0  0
 25 23  2  0  0  0  0
 26 19  2  0  0  0  0
 26 25  1  0  0  0  0
 27 32  1  0  0  0  0
 28 34  1  0  0  0  0
 29 35  1  0  0  0  0
 29 28  2  0  0  0  0
 30 29  1  0  0  0  0
 31 30  2  0  0  0  0
 31 32  1  0  0  0  0
 32 33  2  0  0  0  0
 33 28  1  0  0  0  0
 37 38  1  0  0  0  0
 37 36  1  0  0  0  0
 38 30  1  0  0  0  0
 39 38  2  0  0  0  0
 40 39  1  0  0  0  0
 41 40  2  0  0  0  0
 41 42  1  0  0  0  0
 42 37  2  0  0  0  0
 43 39  1  0  0  0  0
 44 40  1  0  0  0  0
 45 41  1  0  0  0  0
 46 42  1  0  0  0  0
M  END
>  <minimizedAffinity>
-6.26010752

>  <minimizedRMSD>
1.28774428

$$$$
