
 OpenBabel03272509403D

 35 37  0  0  1  0  0  0  0  0999 V2000
   37.0520   30.9570   49.0620 C   0  0  0  0  0  0  0  0  0  0  0  0
   36.7970   31.8930   50.0700 C   0  0  0  0  0  0  0  0  0  0  0  0
   37.4100   33.1400   50.1000 C   0  0  0  0  0  0  0  0  0  0  0  0
   38.3150   33.4800   49.0940 C   0  0  0  0  0  0  0  0  0  0  0  0
   38.5540   32.5580   48.1170 C   0  0  0  0  0  0  0  0  0  0  0  0
   37.9320   31.3270   48.1100 C   0  0  0  0  0  0  0  0  0  0  0  0
   36.0860   31.6160   50.8520 H   0  0  0  0  0  0  0  0  0  0  0  0
   37.1320   33.7840   50.9340 H   0  0  0  0  0  0  0  0  0  0  0  0
   38.7750   34.4580   49.1440 H   0  0  0  0  0  0  0  0  0  0  0  0
   39.2670   32.9050   47.3780 H   0  0  0  0  0  0  0  0  0  0  0  0
   36.3620   29.6850   49.1190 C   0  0  1  0  0  3  0  0  0  0  0  0
   36.8900   28.8280   49.9280 O   0  0  0  0  0  1  0  0  0  0  0  0
   33.6120   30.1630   46.8090 C   0  0  0  0  0  0  0  0  0  0  0  0
   32.9410   28.9510   46.8160 C   0  0  0  0  0  0  0  0  0  0  0  0
   33.4400   27.9400   47.6340 C   0  0  0  0  0  0  0  0  0  0  0  0
   34.5490   28.1650   48.3880 N   0  0  0  0  0  0  0  0  0  0  0  0
   35.1670   29.3400   48.3560 C   0  0  0  0  0  0  0  0  0  0  0  0
   34.6860   30.3280   47.5610 N   0  0  0  0  0  0  0  0  0  0  0  0
   33.1740   30.9050   46.1540 H   0  0  0  0  0  0  0  0  0  0  0  0
   32.0560   28.6810   46.2540 H   0  0  0  0  0  0  0  0  0  0  0  0
   32.9920   26.9520   47.7160 H   0  0  0  0  0  0  0  0  0  0  0  0
   38.2940   30.4630   47.0100 C   0  0  0  0  0  3  0  0  0  0  0  0
   38.9830   30.7850   45.9360 C   0  0  0  0  0  3  0  0  0  0  0  0
   39.4300   30.0230   44.7610 C   0  0  0  0  0  0  0  0  0  0  0  0
   38.9490   29.0190   44.7730 H   0  0  0  0  0  0  0  0  0  0  0  0
   40.5290   29.9430   44.7600 H   0  0  0  0  0  0  0  0  0  0  0  0
   36.8190   29.1850   43.5150 Cl  0  0  0  0  0  0  0  0  0  0  0  0
   37.8480   30.4450   42.8270 C   0  0  0  0  0  0  0  0  0  0  0  0
   39.0100   30.7100   43.5170 C   0  0  0  0  0  0  0  0  0  0  0  0
   39.8260   31.7080   42.9710 C   0  0  0  0  0  0  0  0  0  0  0  0
   40.7780   32.0070   43.4330 H   0  0  0  0  0  0  0  0  0  0  0  0
   39.4430   32.3530   41.8130 C   0  0  0  0  0  0  0  0  0  0  0  0
   40.1050   33.1250   41.4190 H   0  0  0  0  0  0  0  0  0  0  0  0
   38.2740   32.0470   41.1700 C   0  0  0  0  0  3  0  0  0  0  0  0
   37.4260   31.0640   41.6700 C   0  0  0  0  0  3  0  0  0  0  0  0
  1 11  1  0  0  0  0
  1  2  1  0  0  0  0
  2  3  2  0  0  0  0
  2  7  1  0  0  0  0
  3  8  1  0  0  0  0
  4  9  1  0  0  0  0
  4  3  1  0  0  0  0
  5  4  2  0  0  0  0
  6  5  1  0  0  0  0
  6  1  2  0  0  0  0
 10  5  1  0  0  0  0
 11 12  1  1  0  0  0
 13 14  2  0  0  0  0
 13 18  1  0  0  0  0
 14 15  1  0  0  0  0
 15 21  1  0  0  0  0
 15 16  2  0  0  0  0
 17 16  1  0  0  0  0
 17 11  1  0  0  0  0
 18 17  2  0  0  0  0
 19 13  1  0  0  0  0
 20 14  1  0  0  0  0
 22  6  1  0  0  0  0
 23 22  2  0  0  0  0
 24 25  1  0  0  0  0
 24 23  1  0  0  0  0
 26 24  1  0  0  0  0
 28 27  1  0  0  0  0
 28 29  1  0  0  0  0
 29 24  1  0  0  0  0
 30 31  1  0  0  0  0
 30 29  2  0  0  0  0
 32 30  1  0  0  0  0
 33 32  1  0  0  0  0
 34 35  1  0  0  0  0
 34 32  2  0  0  0  0
 35 28  2  0  0  0  0
M  END
>  <minimizedAffinity>
-5.98166418

>  <minimizedRMSD>
1.02435684

$$$$
