
 OpenBabel03262522193D

 24 25  0  0  0  0  0  0  0  0999 V2000
   40.8810   26.6720   34.8030 O   0  0  0  0  0  0  0  0  0  0  0  0
   39.3410   26.6560   34.7970 P   0  0  1  0  0  0  0  0  0  0  0  0
   38.8600   27.7500   36.0170 O   0  0  0  0  0  0  0  0  0  0  0  0
   39.5160   27.7970   36.7520 H   0  0  0  0  0  0  0  0  0  0  0  0
   38.8580   27.3250   33.3240 O   0  0  0  0  0  0  0  0  0  0  0  0
   36.6730   27.7790   32.4950 C   0  0  0  0  0  0  0  0  0  0  0  0
   37.8100   26.9600   32.5380 C   0  0  0  0  0  0  0  0  0  0  0  0
   37.7830   25.8100   31.7570 C   0  0  0  0  0  0  0  0  0  0  0  0
   36.6750   25.5340   31.0000 N   0  0  0  0  0  0  0  0  0  0  0  0
   35.6110   26.3520   30.9940 C   0  0  0  0  0  0  0  0  0  0  0  0
   35.6020   27.4830   31.7430 N   0  0  0  0  0  0  0  0  0  0  0  0
   36.6380   28.6910   33.0850 H   0  0  0  0  0  0  0  0  0  0  0  0
   38.6670   25.1850   31.7980 H   0  0  0  0  0  0  0  0  0  0  0  0
   34.8450   25.9620   30.3370 H   0  0  0  0  0  0  0  0  0  0  0  0
   38.8680   25.1020   35.0730 O   0  0  0  0  0  0  0  0  0  0  0  0
   41.0630   23.0060   35.3580 Cl  0  0  0  0  0  0  0  0  0  0  0  0
   39.8930   23.3880   36.5870 C   0  0  0  0  0  0  0  0  0  0  0  0
   39.0080   24.3670   36.2240 C   0  0  0  0  0  0  0  0  0  0  0  0
   38.0330   24.7330   37.1560 C   0  0  0  0  0  0  0  0  0  0  0  0
   37.2560   25.4870   37.0320 H   0  0  0  0  0  0  0  0  0  0  0  0
   37.9560   24.1370   38.4070 C   0  0  0  0  0  0  0  0  0  0  0  0
   37.2290   24.3790   39.1610 H   0  0  0  0  0  0  0  0  0  0  0  0
   38.8620   23.1520   38.7500 C   0  0  0  0  0  3  0  0  0  0  0  0
   39.8150   22.7970   37.8310 C   0  0  0  0  0  3  0  0  0  0  0  0
  2  1  2  6  0  0  0
  2 15  1  0  0  0  0
  2  3  1  0  0  0  0
  3  4  1  0  0  0  0
  5  2  1  0  0  0  0
  6  7  1  0  0  0  0
  6 12  1  0  0  0  0
  7  5  1  0  0  0  0
  8 13  1  0  0  0  0
  8  7  2  0  0  0  0
  9  8  1  0  0  0  0
 10  9  2  0  0  0  0
 10 11  1  0  0  0  0
 11  6  2  0  0  0  0
 14 10  1  0  0  0  0
 15 18  1  0  0  0  0
 16 17  1  0  0  0  0
 17 24  1  0  0  0  0
 18 17  2  0  0  0  0
 18 19  1  0  0  0  0
 19 21  2  0  0  0  0
 20 19  1  0  0  0  0
 21 23  1  0  0  0  0
 21 22  1  0  0  0  0
 24 23  2  0  0  0  0
M  END
>  <minimizedAffinity>
-4.9809227

$$$$

 OpenBabel03262522193D

 24 25  0  0  0  0  0  0  0  0999 V2000
   36.7960   27.7710   34.9240 O   0  0  0  0  0  0  0  0  0  0  0  0
   37.9020   26.7010   34.8760 P   0  0  1  0  0  0  0  0  0  0  0  0
   39.2970   27.4440   35.5230 O   0  0  0  0  0  0  0  0  0  0  0  0
   39.3120   28.4160   35.3530 H   0  0  0  0  0  0  0  0  0  0  0  0
   37.4480   25.4900   35.9600 O   0  0  0  0  0  0  0  0  0  0  0  0
   39.3220   24.0220   35.9070 C   0  0  0  0  0  0  0  0  0  0  0  0
   38.2440   24.5910   36.6000 C   0  0  0  0  0  0  0  0  0  0  0  0
   38.0620   24.1870   37.9180 C   0  0  0  0  0  0  0  0  0  0  0  0
   38.9220   23.2740   38.4680 N   0  0  0  0  0  0  0  0  0  0  0  0
   39.9410   22.7580   37.7610 C   0  0  0  0  0  0  0  0  0  0  0  0
   40.1490   23.1290   36.4730 N   0  0  0  0  0  0  0  0  0  0  0  0
   39.5120   24.3000   34.8740 H   0  0  0  0  0  0  0  0  0  0  0  0
   37.2260   24.6330   38.4420 H   0  0  0  0  0  0  0  0  0  0  0  0
   40.5000   22.0600   38.3700 H   0  0  0  0  0  0  0  0  0  0  0  0
   38.0660   26.2370   33.3030 O   0  0  0  0  0  0  0  0  0  0  0  0
   35.9500   27.6380   31.6140 Cl  0  0  0  0  0  0  0  0  0  0  0  0
   36.1590   25.9140   31.7090 C   0  0  0  0  0  0  0  0  0  0  0  0
   37.1780   25.5240   32.5350 C   0  0  0  0  0  0  0  0  0  0  0  0
   37.4130   24.1530   32.6670 C   0  0  0  0  0  0  0  0  0  0  0  0
   38.1770   23.6730   33.2780 H   0  0  0  0  0  0  0  0  0  0  0  0
   36.6490   23.2110   31.9910 C   0  0  0  0  0  0  0  0  0  0  0  0
   36.7850   22.1470   32.0560 H   0  0  0  0  0  0  0  0  0  0  0  0
   35.6260   23.6300   31.1630 C   0  0  0  0  0  3  0  0  0  0  0  0
   35.4010   24.9760   31.0380 C   0  0  0  0  0  3  0  0  0  0  0  0
  2  1  2  1  0  0  0
  2  3  1  0  0  0  0
  2  5  1  0  0  0  0
  4  3  1  0  0  0  0
  5  7  1  0  0  0  0
  6 11  2  0  0  0  0
  6  7  1  0  0  0  0
  7  8  2  0  0  0  0
  8 13  1  0  0  0  0
  8  9  1  0  0  0  0
 10 14  1  0  0  0  0
 10  9  2  0  0  0  0
 11 10  1  0  0  0  0
 12  6  1  0  0  0  0
 15  2  1  0  0  0  0
 16 17  1  0  0  0  0
 17 18  1  0  0  0  0
 18 19  2  0  0  0  0
 18 15  1  0  0  0  0
 19 20  1  0  0  0  0
 21 22  1  0  0  0  0
 21 19  1  0  0  0  0
 23 21  2  0  0  0  0
 24 23  1  0  0  0  0
 24 17  2  0  0  0  0
M  END
>  <minimizedAffinity>
-4.9130764

$$$$

 OpenBabel03262522193D

 24 25  0  0  0  0  0  0  0  0999 V2000
   40.1580   26.6370   35.2660 O   0  0  0  0  0  0  0  0  0  0  0  0
   38.6250   26.6180   35.1220 P   0  0  1  0  0  0  0  0  0  0  0  0
   38.0560   27.9480   36.0290 O   0  0  0  0  0  0  0  0  0  0  0  0
   38.6450   28.1550   36.7940 H   0  0  0  0  0  0  0  0  0  0  0  0
   38.2900   26.9520   33.5020 O   0  0  0  0  0  0  0  0  0  0  0  0
   36.3520   27.1960   32.1400 C   0  0  0  0  0  0  0  0  0  0  0  0
   37.3460   26.3840   32.7040 C   0  0  0  0  0  0  0  0  0  0  0  0
   37.2940   25.0280   32.4000 C   0  0  0  0  0  0  0  0  0  0  0  0
   36.2990   24.5570   31.5850 N   0  0  0  0  0  0  0  0  0  0  0  0
   35.3700   25.3780   31.0690 C   0  0  0  0  0  0  0  0  0  0  0  0
   35.3890   26.7060   31.3440 N   0  0  0  0  0  0  0  0  0  0  0  0
   36.3430   28.2640   32.3430 H   0  0  0  0  0  0  0  0  0  0  0  0
   38.0670   24.4100   32.8420 H   0  0  0  0  0  0  0  0  0  0  0  0
   34.6780   24.8170   30.4550 H   0  0  0  0  0  0  0  0  0  0  0  0
   38.1000   25.1590   35.6820 O   0  0  0  0  0  0  0  0  0  0  0  0
   37.9840   24.6090   38.6780 Cl  0  0  0  0  0  0  0  0  0  0  0  0
   38.9600   23.7210   37.5450 C   0  0  0  0  0  0  0  0  0  0  0  0
   38.8420   24.1550   36.2520 C   0  0  0  0  0  0  0  0  0  0  0  0
   39.5950   23.4930   35.2790 C   0  0  0  0  0  0  0  0  0  0  0  0
   39.6210   23.7080   34.2100 H   0  0  0  0  0  0  0  0  0  0  0  0
   40.4340   22.4340   35.5970 C   0  0  0  0  0  0  0  0  0  0  0  0
   41.0340   21.8910   34.8890 H   0  0  0  0  0  0  0  0  0  0  0  0
   40.5360   22.0140   36.9080 C   0  0  0  0  0  3  0  0  0  0  0  0
   39.7950   22.6670   37.8590 C   0  0  0  0  0  3  0  0  0  0  0  0
  2  1  2  1  0  0  0
  2 15  1  0  0  0  0
  2  3  1  0  0  0  0
  3  4  1  0  0  0  0
  5  2  1  0  0  0  0
  6 12  1  0  0  0  0
  6  7  1  0  0  0  0
  7  5  1  0  0  0  0
  8  7  2  0  0  0  0
  8 13  1  0  0  0  0
  9  8  1  0  0  0  0
 10 11  1  0  0  0  0
 10  9  2  0  0  0  0
 11  6  2  0  0  0  0
 14 10  1  0  0  0  0
 15 18  1  0  0  0  0
 17 24  1  0  0  0  0
 17 16  1  0  0  0  0
 18 17  2  0  0  0  0
 19 21  2  0  0  0  0
 19 18  1  0  0  0  0
 20 19  1  0  0  0  0
 21 23  1  0  0  0  0
 22 21  1  0  0  0  0
 23 24  2  0  0  0  0
M  END
>  <minimizedAffinity>
-4.827178

$$$$

 OpenBabel03262522193D

 24 25  0  0  0  0  0  0  0  0999 V2000
   38.7740   27.1430   33.8830 O   0  0  0  0  0  0  0  0  0  0  0  0
   37.8820   26.8230   35.0960 P   0  0  1  0  0  0  0  0  0  0  0  0
   38.6020   27.6180   36.4260 O   0  0  0  0  0  0  0  0  0  0  0  0
   39.5810   27.6910   36.3270 H   0  0  0  0  0  0  0  0  0  0  0  0
   36.4000   27.5830   34.8180 O   0  0  0  0  0  0  0  0  0  0  0  0
   35.8280   29.8750   34.5270 C   0  0  0  0  0  0  0  0  0  0  0  0
   36.1310   28.6200   33.9810 C   0  0  0  0  0  0  0  0  0  0  0  0
   36.1340   28.5250   32.5930 C   0  0  0  0  0  0  0  0  0  0  0  0
   35.8480   29.6320   31.8410 N   0  0  0  0  0  0  0  0  0  0  0  0
   35.5640   30.8140   32.4130 C   0  0  0  0  0  0  0  0  0  0  0  0
   35.5520   30.9440   33.7630 N   0  0  0  0  0  0  0  0  0  0  0  0
   35.8110   30.0090   35.6050 H   0  0  0  0  0  0  0  0  0  0  0  0
   36.3690   27.5500   32.1830 H   0  0  0  0  0  0  0  0  0  0  0  0
   35.3680   31.5580   31.6530 H   0  0  0  0  0  0  0  0  0  0  0  0
   37.8340   25.1830   35.2500 O   0  0  0  0  0  0  0  0  0  0  0  0
   40.4270   24.0780   34.0880 Cl  0  0  0  0  0  0  0  0  0  0  0  0
   39.8540   23.7700   35.7010 C   0  0  0  0  0  0  0  0  0  0  0  0
   38.6630   24.3780   35.9910 C   0  0  0  0  0  0  0  0  0  0  0  0
   38.1320   24.1810   37.2690 C   0  0  0  0  0  0  0  0  0  0  0  0
   37.2010   24.5870   37.6640 H   0  0  0  0  0  0  0  0  0  0  0  0
   38.7800   23.4010   38.2180 C   0  0  0  0  0  0  0  0  0  0  0  0
   38.4180   23.2170   39.2130 H   0  0  0  0  0  0  0  0  0  0  0  0
   39.9810   22.7990   37.9010 C   0  0  0  0  0  3  0  0  0  0  0  0
   40.4960   22.9960   36.6460 C   0  0  0  0  0  3  0  0  0  0  0  0
  2  1  2  6  0  0  0
  2 15  1  0  0  0  0
  2  3  1  0  0  0  0
  4  3  1  0  0  0  0
  5  2  1  0  0  0  0
  6 12  1  0  0  0  0
  7  6  1  0  0  0  0
  7  5  1  0  0  0  0
  8  7  2  0  0  0  0
  9 10  2  0  0  0  0
  9  8  1  0  0  0  0
 10 11  1  0  0  0  0
 11  6  2  0  0  0  0
 13  8  1  0  0  0  0
 14 10  1  0  0  0  0
 15 18  1  0  0  0  0
 16 17  1  0  0  0  0
 17 18  2  0  0  0  0
 17 24  1  0  0  0  0
 18 19  1  0  0  0  0
 19 20  1  0  0  0  0
 19 21  2  0  0  0  0
 21 22  1  0  0  0  0
 23 21  1  0  0  0  0
 24 23  2  0  0  0  0
M  END
>  <minimizedAffinity>
-4.76121712

$$$$

 OpenBabel03262522193D

 24 25  0  0  0  0  0  0  0  0999 V2000
   39.7720   21.9510   33.1870 O   0  0  0  0  0  0  0  0  0  0  0  0
   38.5250   22.8310   33.3880 P   0  0  1  0  0  0  0  0  0  0  0  0
   37.4190   22.3540   32.1770 O   0  0  0  0  0  0  0  0  0  0  0  0
   37.8760   22.0330   31.3630 H   0  0  0  0  0  0  0  0  0  0  0  0
   37.8510   22.3810   34.8680 O   0  0  0  0  0  0  0  0  0  0  0  0
   37.4090   23.2720   37.0310 C   0  0  0  0  0  0  0  0  0  0  0  0
   38.2930   22.6790   36.1200 C   0  0  0  0  0  0  0  0  0  0  0  0
   39.5860   22.4330   36.5700 C   0  0  0  0  0  0  0  0  0  0  0  0
   39.9300   22.7730   37.8510 N   0  0  0  0  0  0  0  0  0  0  0  0
   39.0440   23.3400   38.6870 C   0  0  0  0  0  0  0  0  0  0  0  0
   37.7750   23.5940   38.2820 N   0  0  0  0  0  0  0  0  0  0  0  0
   36.3860   23.4870   36.7350 H   0  0  0  0  0  0  0  0  0  0  0  0
   40.2600   21.9740   35.8560 H   0  0  0  0  0  0  0  0  0  0  0  0
   39.5070   23.5290   39.6460 H   0  0  0  0  0  0  0  0  0  0  0  0
   39.0090   24.4010   33.2640 O   0  0  0  0  0  0  0  0  0  0  0  0
   36.4510   25.6640   32.1910 Cl  0  0  0  0  0  0  0  0  0  0  0  0
   37.3370   26.2430   33.5720 C   0  0  0  0  0  0  0  0  0  0  0  0
   38.4550   25.5070   33.8600 C   0  0  0  0  0  0  0  0  0  0  0  0
   39.2250   25.9060   34.9560 C   0  0  0  0  0  0  0  0  0  0  0  0
   40.1380   25.4380   35.3220 H   0  0  0  0  0  0  0  0  0  0  0  0
   38.8790   27.0030   35.7320 C   0  0  0  0  0  0  0  0  0  0  0  0
   39.4330   27.3530   36.5840 H   0  0  0  0  0  0  0  0  0  0  0  0
   37.7460   27.7290   35.4220 C   0  0  0  0  0  3  0  0  0  0  0  0
   36.9950   27.3330   34.3450 C   0  0  0  0  0  3  0  0  0  0  0  0
  2  1  2  6  0  0  0
  2  5  1  0  0  0  0
  3  2  1  0  0  0  0
  4  3  1  0  0  0  0
  5  7  1  0  0  0  0
  6 11  1  0  0  0  0
  7  8  1  0  0  0  0
  7  6  2  0  0  0  0
  8  9  2  0  0  0  0
  9 10  1  0  0  0  0
 10 14  1  0  0  0  0
 11 10  2  0  0  0  0
 12  6  1  0  0  0  0
 13  8  1  0  0  0  0
 15  2  1  0  0  0  0
 15 18  1  0  0  0  0
 16 17  1  0  0  0  0
 17 18  2  0  0  0  0
 17 24  1  0  0  0  0
 18 19  1  0  0  0  0
 19 20  1  0  0  0  0
 19 21  2  0  0  0  0
 21 22  1  0  0  0  0
 23 21  1  0  0  0  0
 24 23  2  0  0  0  0
M  END
>  <minimizedAffinity>
-4.6151042

$$$$

 OpenBabel03262522193D

 24 25  0  0  0  0  0  0  0  0999 V2000
   33.9930   29.6350   34.4050 O   0  0  0  0  0  0  0  0  0  0  0  0
   35.5230   29.6820   34.2450 P   0  0  1  0  0  0  0  0  0  0  0  0
   35.8150   30.5870   32.8270 O   0  0  0  0  0  0  0  0  0  0  0  0
   35.0860   30.4910   32.1690 H   0  0  0  0  0  0  0  0  0  0  0  0
   36.1140   30.5940   35.5360 O   0  0  0  0  0  0  0  0  0  0  0  0
   34.7950   32.0350   36.8970 C   0  0  0  0  0  0  0  0  0  0  0  0
   35.7680   31.8570   35.9030 C   0  0  0  0  0  0  0  0  0  0  0  0
   36.3190   33.0090   35.3510 C   0  0  0  0  0  0  0  0  0  0  0  0
   35.8980   34.2350   35.7920 N   0  0  0  0  0  0  0  0  0  0  0  0
   34.9630   34.3520   36.7490 C   0  0  0  0  0  0  0  0  0  0  0  0
   34.4040   33.2510   37.3090 N   0  0  0  0  0  0  0  0  0  0  0  0
   34.3310   31.1710   37.3630 H   0  0  0  0  0  0  0  0  0  0  0  0
   37.0690   32.8580   34.5840 H   0  0  0  0  0  0  0  0  0  0  0  0
   34.7710   35.3970   36.9550 H   0  0  0  0  0  0  0  0  0  0  0  0
   36.0540   28.1240   34.1600 O   0  0  0  0  0  0  0  0  0  0  0  0
   37.5580   27.5790   31.5640 Cl  0  0  0  0  0  0  0  0  0  0  0  0
   38.2200   27.3580   33.1570 C   0  0  0  0  0  0  0  0  0  0  0  0
   37.3500   27.6700   34.1670 C   0  0  0  0  0  0  0  0  0  0  0  0
   37.8050   27.5190   35.4800 C   0  0  0  0  0  0  0  0  0  0  0  0
   37.2480   27.7200   36.3950 H   0  0  0  0  0  0  0  0  0  0  0  0
   39.0870   27.0710   35.7630 C   0  0  0  0  0  0  0  0  0  0  0  0
   39.4880   26.9370   36.7520 H   0  0  0  0  0  0  0  0  0  0  0  0
   39.9470   26.7630   34.7270 C   0  0  0  0  0  3  0  0  0  0  0  0
   39.4950   26.9130   33.4420 C   0  0  0  0  0  3  0  0  0  0  0  0
  2  1  2  1  0  0  0
  2  5  1  0  0  0  0
  3  2  1  0  0  0  0
  4  3  1  0  0  0  0
  5  7  1  0  0  0  0
  6 11  1  0  0  0  0
  6 12  1  0  0  0  0
  7  6  2  0  0  0  0
  8  9  2  0  0  0  0
  8  7  1  0  0  0  0
  9 10  1  0  0  0  0
 10 14  1  0  0  0  0
 10 11  2  0  0  0  0
 13  8  1  0  0  0  0
 15 18  1  0  0  0  0
 15  2  1  0  0  0  0
 16 17  1  0  0  0  0
 17 24  2  0  0  0  0
 17 18  1  0  0  0  0
 18 19  2  0  0  0  0
 19 21  1  0  0  0  0
 19 20  1  0  0  0  0
 21 22  1  0  0  0  0
 23 21  2  0  0  0  0
 24 23  1  0  0  0  0
M  END
>  <minimizedAffinity>
-4.5897789

$$$$

 OpenBabel03262522193D

 24 25  0  0  0  0  0  0  0  0999 V2000
   36.5300   27.7320   34.9270 O   0  0  0  0  0  0  0  0  0  0  0  0
   37.8220   26.8980   35.0060 P   0  0  1  0  0  0  0  0  0  0  0  0
   38.8680   27.7570   36.0480 O   0  0  0  0  0  0  0  0  0  0  0  0
   38.7120   28.7300   36.0090 H   0  0  0  0  0  0  0  0  0  0  0  0
   37.4210   25.4600   35.7940 O   0  0  0  0  0  0  0  0  0  0  0  0
   38.0040   24.1940   37.7240 C   0  0  0  0  0  0  0  0  0  0  0  0
   38.2540   24.5700   36.3970 C   0  0  0  0  0  0  0  0  0  0  0  0
   39.3580   23.9920   35.7790 C   0  0  0  0  0  0  0  0  0  0  0  0
   40.1340   23.1050   36.4760 N   0  0  0  0  0  0  0  0  0  0  0  0
   39.8520   22.7780   37.7480 C   0  0  0  0  0  0  0  0  0  0  0  0
   38.7830   23.3210   38.3820 N   0  0  0  0  0  0  0  0  0  0  0  0
   37.1550   24.6130   38.2570 H   0  0  0  0  0  0  0  0  0  0  0  0
   39.5400   24.2910   34.7530 H   0  0  0  0  0  0  0  0  0  0  0  0
   40.5780   22.0680   38.1190 H   0  0  0  0  0  0  0  0  0  0  0  0
   38.3980   26.7410   33.4690 O   0  0  0  0  0  0  0  0  0  0  0  0
   40.6350   24.9820   32.3770 Cl  0  0  0  0  0  0  0  0  0  0  0  0
   38.9570   24.8320   31.9440 C   0  0  0  0  0  0  0  0  0  0  0  0
   38.1410   25.7370   32.5680 C   0  0  0  0  0  0  0  0  0  0  0  0
   36.7760   25.6840   32.2750 C   0  0  0  0  0  0  0  0  0  0  0  0
   35.9920   26.3250   32.6790 H   0  0  0  0  0  0  0  0  0  0  0  0
   36.2530   24.7540   31.3870 C   0  0  0  0  0  0  0  0  0  0  0  0
   35.2140   24.6690   31.1260 H   0  0  0  0  0  0  0  0  0  0  0  0
   37.0970   23.8510   30.7710 C   0  0  0  0  0  3  0  0  0  0  0  0
   38.4350   23.9080   31.0620 C   0  0  0  0  0  3  0  0  0  0  0  0
  2  1  2  6  0  0  0
  2  5  1  0  0  0  0
  2  3  1  0  0  0  0
  4  3  1  0  0  0  0
  5  7  1  0  0  0  0
  6 12  1  0  0  0  0
  6 11  1  0  0  0  0
  7  6  2  0  0  0  0
  8  7  1  0  0  0  0
  8  9  2  0  0  0  0
  9 10  1  0  0  0  0
 10 14  1  0  0  0  0
 10 11  2  0  0  0  0
 13  8  1  0  0  0  0
 15  2  1  0  0  0  0
 17 16  1  0  0  0  0
 17 18  1  0  0  0  0
 18 15  1  0  0  0  0
 19 18  2  0  0  0  0
 19 20  1  0  0  0  0
 21 19  1  0  0  0  0
 22 21  1  0  0  0  0
 23 24  1  0  0  0  0
 23 21  2  0  0  0  0
 24 17  2  0  0  0  0
M  END
>  <minimizedAffinity>
-4.57985687

$$$$

 OpenBabel03262522193D

 24 25  0  0  0  0  0  0  0  0999 V2000
   35.0970   24.6040   30.9140 O   0  0  0  0  0  0  0  0  0  0  0  0
   36.5050   24.7020   31.5310 P   0  0  1  0  0  0  0  0  0  0  0  0
   37.5670   24.9860   30.2240 O   0  0  0  0  0  0  0  0  0  0  0  0
   37.2400   24.5790   29.3860 H   0  0  0  0  0  0  0  0  0  0  0  0
   36.5170   26.0970   32.4810 O   0  0  0  0  0  0  0  0  0  0  0  0
   36.9550   27.3260   34.4730 C   0  0  0  0  0  0  0  0  0  0  0  0
   37.3740   26.4230   33.4850 C   0  0  0  0  0  0  0  0  0  0  0  0
   38.6630   25.9150   33.6080 C   0  0  0  0  0  0  0  0  0  0  0  0
   39.4470   26.3100   34.6590 N   0  0  0  0  0  0  0  0  0  0  0  0
   38.9980   27.1780   35.5790 C   0  0  0  0  0  0  0  0  0  0  0  0
   37.7460   27.6940   35.4930 N   0  0  0  0  0  0  0  0  0  0  0  0
   35.9580   27.7550   34.4290 H   0  0  0  0  0  0  0  0  0  0  0  0
   38.9760   25.2190   32.8380 H   0  0  0  0  0  0  0  0  0  0  0  0
   39.7620   27.3600   36.3230 H   0  0  0  0  0  0  0  0  0  0  0  0
   36.7910   23.2860   32.3240 O   0  0  0  0  0  0  0  0  0  0  0  0
   38.6990   21.8050   30.4650 Cl  0  0  0  0  0  0  0  0  0  0  0  0
   37.2090   21.1520   31.0790 C   0  0  0  0  0  0  0  0  0  0  0  0
   36.5240   22.0090   31.8980 C   0  0  0  0  0  0  0  0  0  0  0  0
   35.3140   21.5600   32.4350 C   0  0  0  0  0  0  0  0  0  0  0  0
   34.6470   22.1090   33.0990 H   0  0  0  0  0  0  0  0  0  0  0  0
   34.8150   20.2950   32.1570 C   0  0  0  0  0  0  0  0  0  0  0  0
   33.8930   19.9000   32.5420 H   0  0  0  0  0  0  0  0  0  0  0  0
   35.5250   19.4480   31.3280 C   0  0  0  0  0  3  0  0  0  0  0  0
   36.7100   19.8950   30.8050 C   0  0  0  0  0  3  0  0  0  0  0  0
  2  1  2  6  0  0  0
  2 15  1  0  0  0  0
  2  5  1  0  0  0  0
  3  2  1  0  0  0  0
  4  3  1  0  0  0  0
  5  7  1  0  0  0  0
  6 11  1  0  0  0  0
  7  8  1  0  0  0  0
  7  6  2  0  0  0  0
  8  9  2  0  0  0  0
  9 10  1  0  0  0  0
 10 14  1  0  0  0  0
 11 10  2  0  0  0  0
 12  6  1  0  0  0  0
 13  8  1  0  0  0  0
 16 17  1  0  0  0  0
 17 18  1  0  0  0  0
 18 15  1  0  0  0  0
 18 19  2  0  0  0  0
 19 20  1  0  0  0  0
 21 19  1  0  0  0  0
 21 22  1  0  0  0  0
 23 21  2  0  0  0  0
 24 17  2  0  0  0  0
 24 23  1  0  0  0  0
M  END
>  <minimizedAffinity>
-4.57083368

$$$$

 OpenBabel03262522193D

 24 25  0  0  0  0  0  0  0  0999 V2000
   39.6380   26.0350   34.1520 O   0  0  0  0  0  0  0  0  0  0  0  0
   39.5020   24.6350   33.5250 P   0  0  1  0  0  0  0  0  0  0  0  0
   41.0690   23.9580   33.5540 O   0  0  0  0  0  0  0  0  0  0  0  0
   41.7720   24.6470   33.4830 H   0  0  0  0  0  0  0  0  0  0  0  0
   38.5560   23.7230   34.5840 O   0  0  0  0  0  0  0  0  0  0  0  0
   37.7390   24.2460   36.7590 C   0  0  0  0  0  0  0  0  0  0  0  0
   38.6770   23.6090   35.9340 C   0  0  0  0  0  0  0  0  0  0  0  0
   39.6840   22.8900   36.5700 C   0  0  0  0  0  0  0  0  0  0  0  0
   39.7150   22.8390   37.9380 N   0  0  0  0  0  0  0  0  0  0  0  0
   38.7920   23.4680   38.6830 C   0  0  0  0  0  0  0  0  0  0  0  0
   37.7950   24.1770   38.0980 N   0  0  0  0  0  0  0  0  0  0  0  0
   36.9300   24.8210   36.3170 H   0  0  0  0  0  0  0  0  0  0  0  0
   40.4030   22.4030   35.9220 H   0  0  0  0  0  0  0  0  0  0  0  0
   38.9900   23.3060   39.7350 H   0  0  0  0  0  0  0  0  0  0  0  0
   38.8930   24.8370   32.0070 O   0  0  0  0  0  0  0  0  0  0  0  0
   37.9900   27.7280   31.6580 Cl  0  0  0  0  0  0  0  0  0  0  0  0
   36.9690   26.3380   31.4320 C   0  0  0  0  0  0  0  0  0  0  0  0
   37.6040   25.1440   31.6460 C   0  0  0  0  0  0  0  0  0  0  0  0
   36.8530   23.9760   31.4850 C   0  0  0  0  0  0  0  0  0  0  0  0
   37.1980   22.9500   31.6160 H   0  0  0  0  0  0  0  0  0  0  0  0
   35.5140   24.0110   31.1210 C   0  0  0  0  0  0  0  0  0  0  0  0
   34.8910   23.1460   30.9840 H   0  0  0  0  0  0  0  0  0  0  0  0
   34.8960   25.2280   30.9100 C   0  0  0  0  0  3  0  0  0  0  0  0
   35.6380   26.3700   31.0700 C   0  0  0  0  0  3  0  0  0  0  0  0
  2  3  1  0  0  0  0
  2  1  2  1  0  0  0
  2  5  1  0  0  0  0
  4  3  1  0  0  0  0
  5  7  1  0  0  0  0
  6 11  1  0  0  0  0
  7  8  1  0  0  0  0
  7  6  2  0  0  0  0
  8  9  2  0  0  0  0
  9 10  1  0  0  0  0
 10 14  1  0  0  0  0
 11 10  2  0  0  0  0
 12  6  1  0  0  0  0
 13  8  1  0  0  0  0
 15  2  1  0  0  0  0
 17 18  1  0  0  0  0
 17 16  1  0  0  0  0
 18 15  1  0  0  0  0
 19 20  1  0  0  0  0
 19 18  2  0  0  0  0
 21 19  1  0  0  0  0
 22 21  1  0  0  0  0
 23 24  1  0  0  0  0
 23 21  2  0  0  0  0
 24 17  2  0  0  0  0
M  END
>  <minimizedAffinity>
-4.45461559

$$$$
