
 OpenBabel03272501053D

 30 32  0  0  1  0  0  0  0  0999 V2000
   38.9390   32.3910   47.7850 C   0  0  2  0  0  0  0  0  0  0  0  0
   37.9870   32.7600   48.9590 C   0  0  2  0  0  0  0  0  0  0  0  0
   38.9130   33.5330   49.8020 C   0  0  0  0  0  0  0  0  0  0  0  0
   39.7300   34.2660   48.9600 O   0  0  0  0  0  0  0  0  0  0  0  0
   39.6310   33.7620   47.7010 C   0  0  0  0  0  0  0  0  0  0  0  0
   39.6140   31.6320   48.1650 H   0  0  0  0  0  0  0  0  0  0  0  0
   37.2240   33.4510   48.4960 H   0  0  0  0  0  0  0  0  0  0  0  0
   39.5940   32.8420   50.3570 H   0  0  0  0  0  0  0  0  0  0  0  0
   38.3820   34.1440   50.5560 H   0  0  0  0  0  0  0  0  0  0  0  0
   38.9440   34.4010   47.0870 H   0  0  0  0  0  0  0  0  0  0  0  0
   40.5930   33.6740   47.1520 H   0  0  0  0  0  0  0  0  0  0  0  0
   37.3590   29.7060   51.0910 C   0  0  0  0  0  0  0  0  0  0  0  0
   38.0240   30.8460   50.5650 C   0  0  0  0  0  0  0  0  0  0  0  0
   37.3710   31.5950   49.5540 C   0  0  0  0  0  0  0  0  0  0  0  0
   36.1250   31.1740   49.1390 N   0  0  0  0  0  0  0  0  0  0  0  0
   35.5370   30.0930   49.6630 C   0  0  0  0  0  0  0  0  0  0  0  0
   36.1340   29.3560   50.6300 N   0  0  0  0  0  0  0  0  0  0  0  0
   37.8250   29.1110   51.8620 H   0  0  0  0  0  0  0  0  0  0  0  0
   39.0020   31.1330   50.9250 H   0  0  0  0  0  0  0  0  0  0  0  0
   34.5490   29.8730   49.2410 H   0  0  0  0  0  0  0  0  0  0  0  0
   38.2480   32.1250   46.6450 O   0  0  0  0  0  0  0  0  0  0  0  0
   40.9560   31.2510   45.3820 Cl  0  0  0  0  0  0  0  0  0  0  0  0
   39.3720   30.6880   44.9010 C   0  0  0  0  0  0  0  0  0  0  0  0
   38.3500   31.2450   45.6350 C   0  0  0  0  0  0  0  0  0  0  0  0
   37.0690   30.8050   45.2650 C   0  0  0  0  0  0  0  0  0  0  0  0
   36.1030   31.1020   45.6980 H   0  0  0  0  0  0  0  0  0  0  0  0
   36.8520   29.8910   44.2490 C   0  0  0  0  0  0  0  0  0  0  0  0
   35.9150   29.5120   43.9120 H   0  0  0  0  0  0  0  0  0  0  0  0
   37.9330   29.3840   43.5650 C   0  0  0  0  0  0  0  0  0  0  0  0
   39.2140   29.7780   43.8840 C   0  0  0  0  0  0  0  0  0  0  0  0
  1  6  1  1  0  0  0
  1  2  1  0  0  0  0
  2  7  1  6  0  0  0
  2 14  1  0  0  0  0
  2  3  1  0  0  0  0
  3  8  1  0  0  0  0
  3  9  1  0  0  0  0
  4  3  1  0  0  0  0
  5  1  1  0  0  0  0
  5  4  1  0  0  0  0
 10  5  1  0  0  0  0
 11  5  1  0  0  0  0
 12 18  1  0  0  0  0
 13 19  1  0  0  0  0
 13 12  2  0  0  0  0
 14 13  1  0  0  0  0
 15 14  2  0  0  0  0
 15 16  1  0  0  0  0
 16 17  2  0  0  0  0
 17 12  1  0  0  0  0
 20 16  1  0  0  0  0
 21  1  1  0  0  0  0
 23 22  1  0  0  0  0
 23 24  1  0  0  0  0
 24 21  1  0  0  0  0
 25 24  2  0  0  0  0
 25 26  1  0  0  0  0
 27 25  1  0  0  0  0
 28 27  1  0  0  0  0
 29 30  1  0  0  0  0
 29 27  2  0  0  0  0
 30 23  2  0  0  0  0
M  END
>  <minimizedAffinity>
-5.59128952

>  <minimizedRMSD>
2.83931732

$$$$
