
 OpenBabel03272506433D

 32 34  0  0  1  0  0  0  0  0999 V2000
   32.1770   28.5310   47.3950 C   0  0  2  0  0  0  0  0  0  0  0  0
   33.4120   28.3670   48.2510 C   0  0  1  0  0  0  0  0  0  0  0  0
   33.8160   27.0590   48.1500 O   0  0  0  0  0  0  0  0  0  0  0  0
   33.0850   26.4230   47.1730 C   0  0  0  0  0  0  0  0  0  0  0  0
   32.5030   27.5370   46.2870 C   0  0  1  0  0  0  0  0  0  0  0  0
   31.2440   28.2470   47.9250 H   0  0  0  0  0  0  0  0  0  0  0  0
   33.2810   28.7520   49.2730 H   0  0  0  0  0  0  0  0  0  0  0  0
   33.6880   25.7160   46.5670 H   0  0  0  0  0  0  0  0  0  0  0  0
   32.2050   25.9380   47.6480 H   0  0  0  0  0  0  0  0  0  0  0  0
   33.2990   27.9870   45.6960 H   0  0  0  0  0  0  0  0  0  0  0  0
   32.0880   29.8330   46.8960 O   0  0  0  0  0  0  0  0  0  0  0  0
   32.7660   29.9360   46.1590 H   0  0  0  0  0  0  0  0  0  0  0  0
   34.7210   29.4030   47.4970 S   0  0  0  0  0  0  0  0  0  0  0  0
   37.1380   29.2980   50.6350 C   0  0  0  0  0  0  0  0  0  0  0  0
   37.6370   30.5890   50.7600 C   0  0  0  0  0  0  0  0  0  0  0  0
   37.2080   31.5380   49.8320 C   0  0  0  0  0  0  0  0  0  0  0  0
   36.3330   31.1530   48.8630 N   0  0  0  0  0  0  0  0  0  0  0  0
   35.8720   29.8880   48.7780 C   0  0  0  0  0  0  0  0  0  0  0  0
   36.2690   28.9470   49.6600 N   0  0  0  0  0  0  0  0  0  0  0  0
   37.4600   28.5320   51.3520 H   0  0  0  0  0  0  0  0  0  0  0  0
   38.3250   30.8800   51.5250 H   0  0  0  0  0  0  0  0  0  0  0  0
   37.5470   32.5600   49.8590 H   0  0  0  0  0  0  0  0  0  0  0  0
   31.3790   27.0890   45.6380 O   0  0  0  0  0  0  0  0  0  0  0  0
   29.8660   29.1270   44.2170 Cl  0  0  0  0  0  0  0  0  0  0  0  0
   29.3400   28.0980   45.5500 C   0  0  0  0  0  0  0  0  0  0  0  0
   30.1280   27.1340   46.1880 C   0  0  0  0  0  0  0  0  0  0  0  0
   29.5610   26.4160   47.2120 C   0  0  0  0  0  0  0  0  0  0  0  0
   30.2430   25.6990   47.6400 H   0  0  0  0  0  0  0  0  0  0  0  0
   28.2600   26.6530   47.5840 C   0  0  0  0  0  0  0  0  0  0  0  0
   27.9260   26.0220   48.4070 H   0  0  0  0  0  0  0  0  0  0  0  0
   27.4620   27.5930   46.9780 C   0  0  0  0  0  0  0  0  0  0  0  0
   28.0170   28.3320   45.9370 C   0  0  0  0  0  0  0  0  0  0  0  0
  1  6  1  1  0  0  0
  1  2  1  0  0  0  0
  2  7  1  1  0  0  0
  3  2  1  0  0  0  0
  4  9  1  0  0  0  0
  4  3  1  0  0  0  0
  5 10  1  6  0  0  0
  5  4  1  0  0  0  0
  5  1  1  0  0  0  0
  8  4  1  0  0  0  0
 11  1  1  0  0  0  0
 12 11  1  0  0  0  0
 13  2  1  0  0  0  0
 13 18  1  0  0  0  0
 14 15  1  0  0  0  0
 14 20  1  0  0  0  0
 15 21  1  0  0  0  0
 16 22  1  0  0  0  0
 16 15  2  0  0  0  0
 17 16  1  0  0  0  0
 18 17  2  0  0  0  0
 18 19  1  0  0  0  0
 19 14  2  0  0  0  0
 23 26  1  0  0  0  0
 23  5  1  0  0  0  0
 24 25  1  0  0  0  0
 25 32  2  0  0  0  0
 25 26  1  0  0  0  0
 26 27  2  0  0  0  0
 27 29  1  0  0  0  0
 27 28  1  0  0  0  0
 29 30  1  0  0  0  0
 31 29  2  0  0  0  0
 32 31  1  0  0  0  0
M  END
>  <minimizedAffinity>
-4.50383997

>  <minimizedRMSD>
2.90886259

$$$$
