
 OpenBabel03272509393D

 35 37  0  0  1  0  0  0  0  0999 V2000
   37.0700   30.9550   49.0700 C   0  0  0  0  0  0  0  0  0  0  0  0
   36.8240   31.9210   50.0530 C   0  0  0  0  0  0  0  0  0  0  0  0
   37.4510   33.1600   50.0510 C   0  0  0  0  0  0  0  0  0  0  0  0
   38.3600   33.4640   49.0370 C   0  0  0  0  0  0  0  0  0  0  0  0
   38.5900   32.5130   48.0860 C   0  0  0  0  0  0  0  0  0  0  0  0
   37.9550   31.2900   48.1100 C   0  0  0  0  0  0  0  0  0  0  0  0
   36.1090   31.6720   50.8410 H   0  0  0  0  0  0  0  0  0  0  0  0
   37.1790   33.8300   50.8670 H   0  0  0  0  0  0  0  0  0  0  0  0
   38.8320   34.4370   49.0620 H   0  0  0  0  0  0  0  0  0  0  0  0
   39.3080   32.8320   47.3390 H   0  0  0  0  0  0  0  0  0  0  0  0
   36.3650   29.6930   49.1610 C   0  0  1  0  0  3  0  0  0  0  0  0
   36.8740   28.8570   50.0040 O   0  0  0  0  0  1  0  0  0  0  0  0
   33.6030   30.1490   46.8610 C   0  0  0  0  0  0  0  0  0  0  0  0
   32.9570   28.9240   46.8520 C   0  0  0  0  0  0  0  0  0  0  0  0
   33.4770   27.9120   47.6540 C   0  0  0  0  0  0  0  0  0  0  0  0
   34.5830   28.1470   48.4100 N   0  0  0  0  0  0  0  0  0  0  0  0
   35.1760   29.3350   48.3940 C   0  0  0  0  0  0  0  0  0  0  0  0
   34.6740   30.3240   47.6140 N   0  0  0  0  0  0  0  0  0  0  0  0
   33.1490   30.8920   46.2180 H   0  0  0  0  0  0  0  0  0  0  0  0
   32.0760   28.6440   46.2860 H   0  0  0  0  0  0  0  0  0  0  0  0
   33.0490   26.9140   47.7220 H   0  0  0  0  0  0  0  0  0  0  0  0
   38.3090   30.3920   47.0350 C   0  0  0  0  0  3  0  0  0  0  0  0
   38.7340   30.7170   45.8330 C   0  0  0  0  0  3  0  0  0  0  0  0
   39.1370   29.9270   44.6600 C   0  0  0  0  0  0  0  0  0  0  0  0
   38.9090   28.8540   44.8480 H   0  0  0  0  0  0  0  0  0  0  0  0
   40.2070   30.0830   44.4510 H   0  0  0  0  0  0  0  0  0  0  0  0
   40.6530   30.3980   42.1000 Cl  0  0  0  0  0  0  0  0  0  0  0  0
   38.9030   30.6040   42.2290 C   0  0  0  0  0  0  0  0  0  0  0  0
   38.3620   30.3500   43.4700 C   0  0  0  0  0  0  0  0  0  0  0  0
   36.9760   30.5140   43.5700 C   0  0  0  0  0  0  0  0  0  0  0  0
   36.4310   30.3410   44.5090 H   0  0  0  0  0  0  0  0  0  0  0  0
   36.2460   30.9070   42.4680 C   0  0  0  0  0  0  0  0  0  0  0  0
   35.1680   31.0240   42.5870 H   0  0  0  0  0  0  0  0  0  0  0  0
   36.8410   31.1460   41.2570 C   0  0  0  0  0  3  0  0  0  0  0  0
   38.2160   30.9980   41.1020 C   0  0  0  0  0  3  0  0  0  0  0  0
  1 11  1  0  0  0  0
  1  2  1  0  0  0  0
  2  7  1  0  0  0  0
  3  2  2  0  0  0  0
  3  8  1  0  0  0  0
  4  9  1  0  0  0  0
  4  3  1  0  0  0  0
  5  6  1  0  0  0  0
  5  4  2  0  0  0  0
  6  1  2  0  0  0  0
 10  5  1  0  0  0  0
 11 12  1  1  0  0  0
 13 18  1  0  0  0  0
 14 13  2  0  0  0  0
 14 15  1  0  0  0  0
 15 21  1  0  0  0  0
 15 16  2  0  0  0  0
 17 16  1  0  0  0  0
 17 11  1  0  0  0  0
 18 17  2  0  0  0  0
 19 13  1  0  0  0  0
 20 14  1  0  0  0  0
 22  6  1  0  0  0  0
 23 22  2  0  0  0  0
 24 25  1  0  0  0  0
 24 23  1  0  0  0  0
 26 24  1  0  0  0  0
 27 28  1  0  0  0  0
 28 29  1  0  0  0  0
 29 30  2  0  0  0  0
 29 24  1  0  0  0  0
 30 31  1  0  0  0  0
 32 33  1  0  0  0  0
 32 30  1  0  0  0  0
 34 32  2  0  0  0  0
 35 34  1  0  0  0  0
 35 28  2  0  0  0  0
M  END
>  <minimizedAffinity>
-5.83701038

>  <minimizedRMSD>
0.0828568712

$$$$
