
 OpenBabel03272507383D

 23 24  0  0  0  0  0  0  0  0999 V2000
   39.6370   23.6650   35.5360 C   0  0  0  0  0  0  0  0  0  0  0  0
   39.5700   22.9530   36.7410 C   0  0  0  0  0  0  0  0  0  0  0  0
   40.7290   22.5630   37.3760 C   0  0  0  0  0  0  0  0  0  0  0  0
   41.9120   22.8930   36.7900 N   0  0  0  0  0  0  0  0  0  0  0  0
   41.9680   23.5830   35.6180 C   0  0  0  0  0  0  0  0  0  0  0  0
   40.8410   23.9500   35.0230 N   0  0  0  0  0  0  0  0  0  0  0  0
   40.7600   22.0120   38.3110 H   0  0  0  0  0  0  0  0  0  0  0  0
   42.9290   23.8380   35.1630 H   0  0  0  0  0  0  0  0  0  0  0  0
   37.8150   23.4350   38.3700 C   0  0  0  0  0  0  0  0  0  0  0  0
   38.1000   24.5800   38.8570 O   0  0  0  0  0  0  0  0  0  0  0  0
   38.3960   22.5830   37.3990 N   0  0  0  0  0  0  0  0  0  0  0  0
   36.9010   23.1940   38.9200 H   0  0  0  0  0  0  0  0  0  0  0  0
   37.8630   21.7060   37.2600 H   0  0  0  0  0  0  0  0  0  0  0  0
   38.3900   23.9660   35.0530 O   0  0  0  0  0  0  0  0  0  0  0  0
   37.1270   24.4060   32.3580 Cl  0  0  0  0  0  0  0  0  0  0  0  0
   37.3750   25.6730   33.5400 C   0  0  0  0  0  0  0  0  0  0  0  0
   37.9710   25.2380   34.7020 C   0  0  0  0  0  0  0  0  0  0  0  0
   38.2270   26.1500   35.7330 C   0  0  0  0  0  0  0  0  0  0  0  0
   38.6820   25.9710   36.6960 H   0  0  0  0  0  0  0  0  0  0  0  0
   37.8750   27.4930   35.5700 C   0  0  0  0  0  0  0  0  0  0  0  0
   38.0330   28.2620   36.3070 H   0  0  0  0  0  0  0  0  0  0  0  0
   37.2710   27.9070   34.3790 C   0  0  0  0  0  3  0  0  0  0  0  0
   37.0270   26.9880   33.3720 C   0  0  0  0  0  3  0  0  0  0  0  0
  1  2  1  0  0  0  0
  2  3  2  0  0  0  0
  2 11  1  0  0  0  0
  3  7  1  0  0  0  0
  4  3  1  0  0  0  0
  5  4  2  0  0  0  0
  6  1  2  0  0  0  0
  6  5  1  0  0  0  0
  8  5  1  0  0  0  0
  9 10  2  0  0  0  0
  9 12  1  0  0  0  0
 11  9  1  0  0  0  0
 13 11  1  0  0  0  0
 14  1  1  0  0  0  0
 15 16  1  0  0  0  0
 16 17  1  0  0  0  0
 17 14  1  0  0  0  0
 17 18  2  0  0  0  0
 18 19  1  0  0  0  0
 20 18  1  0  0  0  0
 20 21  1  0  0  0  0
 22 20  2  0  0  0  0
 23 16  2  0  0  0  0
 23 22  1  0  0  0  0
M  END
>  <minimizedAffinity>
-4.84351492

$$$$

 OpenBabel03272507383D

 23 24  0  0  0  0  0  0  0  0999 V2000
   38.1410   23.3710   34.6680 C   0  0  0  0  0  0  0  0  0  0  0  0
   38.4960   23.4260   36.0220 C   0  0  0  0  0  0  0  0  0  0  0  0
   38.4820   24.6320   36.6900 C   0  0  0  0  0  0  0  0  0  0  0  0
   38.1160   25.7390   35.9870 N   0  0  0  0  0  0  0  0  0  0  0  0
   37.7750   25.6770   34.6710 C   0  0  0  0  0  0  0  0  0  0  0  0
   37.7940   24.5060   34.0460 N   0  0  0  0  0  0  0  0  0  0  0  0
   38.7420   24.7560   37.7360 H   0  0  0  0  0  0  0  0  0  0  0  0
   37.4850   26.5780   34.1240 H   0  0  0  0  0  0  0  0  0  0  0  0
   40.2390   22.1290   37.1360 C   0  0  0  0  0  0  0  0  0  0  0  0
   41.3330   22.7400   36.8920 O   0  0  0  0  0  0  0  0  0  0  0  0
   38.8780   22.3360   36.8040 N   0  0  0  0  0  0  0  0  0  0  0  0
   40.5970   21.2900   37.7400 H   0  0  0  0  0  0  0  0  0  0  0  0
   38.2520   21.6100   37.1970 H   0  0  0  0  0  0  0  0  0  0  0  0
   38.2130   22.0950   34.1740 O   0  0  0  0  0  0  0  0  0  0  0  0
   35.8090   20.8540   35.4900 Cl  0  0  0  0  0  0  0  0  0  0  0  0
   36.0710   20.8800   33.7610 C   0  0  0  0  0  0  0  0  0  0  0  0
   37.2410   21.5020   33.3860 C   0  0  0  0  0  0  0  0  0  0  0  0
   37.5740   21.5940   32.0290 C   0  0  0  0  0  0  0  0  0  0  0  0
   38.4450   22.0450   31.5770 H   0  0  0  0  0  0  0  0  0  0  0  0
   36.7140   21.0520   31.0700 C   0  0  0  0  0  0  0  0  0  0  0  0
   36.8890   21.0760   30.0080 H   0  0  0  0  0  0  0  0  0  0  0  0
   35.5330   20.4260   31.4780 C   0  0  0  0  0  3  0  0  0  0  0  0
   35.2230   20.3460   32.8250 C   0  0  0  0  0  3  0  0  0  0  0  0
  1  2  1  0  0  0  0
  2  3  2  0  0  0  0
  2 11  1  0  0  0  0
  3  7  1  0  0  0  0
  4  3  1  0  0  0  0
  5  4  2  0  0  0  0
  6  1  2  0  0  0  0
  6  5  1  0  0  0  0
  8  5  1  0  0  0  0
  9 12  1  0  0  0  0
 10  9  2  0  0  0  0
 11  9  1  0  0  0  0
 11 13  1  0  0  0  0
 14  1  1  0  0  0  0
 16 15  1  0  0  0  0
 17 16  1  0  0  0  0
 17 14  1  0  0  0  0
 18 17  2  0  0  0  0
 19 18  1  0  0  0  0
 20 22  2  0  0  0  0
 20 18  1  0  0  0  0
 21 20  1  0  0  0  0
 22 23  1  0  0  0  0
 23 16  2  0  0  0  0
M  END
>  <minimizedAffinity>
-4.60278797

$$$$

 OpenBabel03272507383D

 23 24  0  0  0  0  0  0  0  0999 V2000
   39.0130   22.2750   35.1070 C   0  0  0  0  0  0  0  0  0  0  0  0
   39.1140   22.4010   36.4990 C   0  0  0  0  0  0  0  0  0  0  0  0
   40.3320   22.2250   37.1200 C   0  0  0  0  0  0  0  0  0  0  0  0
   41.4050   21.9310   36.3350 N   0  0  0  0  0  0  0  0  0  0  0  0
   41.2970   21.8090   34.9840 C   0  0  0  0  0  0  0  0  0  0  0  0
   40.1160   21.9830   34.4050 N   0  0  0  0  0  0  0  0  0  0  0  0
   40.4910   22.3060   38.1900 H   0  0  0  0  0  0  0  0  0  0  0  0
   42.1710   21.5720   34.3710 H   0  0  0  0  0  0  0  0  0  0  0  0
   37.7230   24.0470   37.6470 C   0  0  0  0  0  0  0  0  0  0  0  0
   38.1650   25.1880   37.2810 O   0  0  0  0  0  0  0  0  0  0  0  0
   38.0610   22.7010   37.3640 N   0  0  0  0  0  0  0  0  0  0  0  0
   36.9130   24.3410   38.3200 H   0  0  0  0  0  0  0  0  0  0  0  0
   37.4570   22.0200   37.8590 H   0  0  0  0  0  0  0  0  0  0  0  0
   37.7310   22.4830   34.6700 O   0  0  0  0  0  0  0  0  0  0  0  0
   35.5690   20.8190   35.9380 Cl  0  0  0  0  0  0  0  0  0  0  0  0
   35.9950   20.7390   34.2430 C   0  0  0  0  0  0  0  0  0  0  0  0
   37.0160   21.5920   33.8870 C   0  0  0  0  0  0  0  0  0  0  0  0
   37.4560   21.6290   32.5590 C   0  0  0  0  0  0  0  0  0  0  0  0
   38.2360   22.2360   32.1220 H   0  0  0  0  0  0  0  0  0  0  0  0
   36.8550   20.7980   31.6090 C   0  0  0  0  0  0  0  0  0  0  0  0
   37.1280   20.7600   30.5680 H   0  0  0  0  0  0  0  0  0  0  0  0
   35.8220   19.9420   31.9980 C   0  0  0  0  0  3  0  0  0  0  0  0
   35.4010   19.9210   33.3170 C   0  0  0  0  0  3  0  0  0  0  0  0
  1  2  1  0  0  0  0
  2  3  2  0  0  0  0
  2 11  1  0  0  0  0
  3  7  1  0  0  0  0
  4  3  1  0  0  0  0
  5  4  2  0  0  0  0
  6  5  1  0  0  0  0
  6  1  2  0  0  0  0
  8  5  1  0  0  0  0
  9 12  1  0  0  0  0
 10  9  2  0  0  0  0
 11  9  1  0  0  0  0
 11 13  1  0  0  0  0
 14  1  1  0  0  0  0
 16 15  1  0  0  0  0
 17 16  1  0  0  0  0
 17 14  1  0  0  0  0
 18 17  2  0  0  0  0
 19 18  1  0  0  0  0
 20 22  2  0  0  0  0
 20 18  1  0  0  0  0
 21 20  1  0  0  0  0
 22 23  1  0  0  0  0
 23 16  2  0  0  0  0
M  END
>  <minimizedAffinity>
-4.51052427

$$$$

 OpenBabel03272507383D

 23 24  0  0  0  0  0  0  0  0999 V2000
   38.1210   23.9250   33.6320 C   0  0  0  0  0  0  0  0  0  0  0  0
   37.6880   25.0260   32.8800 C   0  0  0  0  0  0  0  0  0  0  0  0
   36.7020   24.8670   31.9310 C   0  0  0  0  0  0  0  0  0  0  0  0
   36.1810   23.6200   31.7640 N   0  0  0  0  0  0  0  0  0  0  0  0
   36.6080   22.5560   32.4970 C   0  0  0  0  0  0  0  0  0  0  0  0
   37.5590   22.7300   33.4060 N   0  0  0  0  0  0  0  0  0  0  0  0
   36.3130   25.6680   31.3110 H   0  0  0  0  0  0  0  0  0  0  0  0
   36.1780   21.5630   32.3470 H   0  0  0  0  0  0  0  0  0  0  0  0
   37.5920   27.2320   33.9220 C   0  0  0  0  0  0  0  0  0  0  0  0
   36.6430   27.1710   34.7730 O   0  0  0  0  0  0  0  0  0  0  0  0
   38.1730   26.3280   32.9990 N   0  0  0  0  0  0  0  0  0  0  0  0
   37.9270   28.2650   34.0530 H   0  0  0  0  0  0  0  0  0  0  0  0
   38.9540   26.7460   32.4620 H   0  0  0  0  0  0  0  0  0  0  0  0
   39.1040   24.2720   34.5230 O   0  0  0  0  0  0  0  0  0  0  0  0
   41.2130   22.3520   35.4800 Cl  0  0  0  0  0  0  0  0  0  0  0  0
   39.9810   23.0430   36.5120 C   0  0  0  0  0  0  0  0  0  0  0  0
   39.1220   23.8970   35.8550 C   0  0  0  0  0  0  0  0  0  0  0  0
   38.0880   24.5200   36.5640 C   0  0  0  0  0  0  0  0  0  0  0  0
   37.3390   25.2080   36.2000 H   0  0  0  0  0  0  0  0  0  0  0  0
   37.9380   24.2680   37.9310 C   0  0  0  0  0  0  0  0  0  0  0  0
   37.1740   24.7010   38.5530 H   0  0  0  0  0  0  0  0  0  0  0  0
   38.8240   23.3970   38.5720 C   0  0  0  0  0  3  0  0  0  0  0  0
   39.8400   22.7910   37.8520 C   0  0  0  0  0  3  0  0  0  0  0  0
  1 14  1  0  0  0  0
  2 11  1  0  0  0  0
  2  1  2  0  0  0  0
  3  2  1  0  0  0  0
  4  3  2  0  0  0  0
  4  5  1  0  0  0  0
  5  6  2  0  0  0  0
  6  1  1  0  0  0  0
  7  3  1  0  0  0  0
  8  5  1  0  0  0  0
  9 12  1  0  0  0  0
  9 10  2  0  0  0  0
 11  9  1  0  0  0  0
 13 11  1  0  0  0  0
 14 17  1  0  0  0  0
 15 16  1  0  0  0  0
 16 23  1  0  0  0  0
 17 16  2  0  0  0  0
 17 18  1  0  0  0  0
 18 20  2  0  0  0  0
 19 18  1  0  0  0  0
 20 21  1  0  0  0  0
 20 22  1  0  0  0  0
 23 22  2  0  0  0  0
M  END
>  <minimizedAffinity>
-4.42028904

$$$$

 OpenBabel03272507383D

 23 24  0  0  0  0  0  0  0  0999 V2000
   38.7320   22.2100   34.4690 C   0  0  0  0  0  0  0  0  0  0  0  0
   38.8900   22.2680   35.8600 C   0  0  0  0  0  0  0  0  0  0  0  0
   40.1360   22.0880   36.4200 C   0  0  0  0  0  0  0  0  0  0  0  0
   41.1800   21.8580   35.5770 N   0  0  0  0  0  0  0  0  0  0  0  0
   41.0180   21.8030   34.2270 C   0  0  0  0  0  0  0  0  0  0  0  0
   39.8090   21.9780   33.7070 N   0  0  0  0  0  0  0  0  0  0  0  0
   40.3400   22.1190   37.4860 H   0  0  0  0  0  0  0  0  0  0  0  0
   41.8690   21.6160   33.5670 H   0  0  0  0  0  0  0  0  0  0  0  0
   37.6150   23.8100   37.2600 C   0  0  0  0  0  0  0  0  0  0  0  0
   38.1180   24.9640   37.0490 O   0  0  0  0  0  0  0  0  0  0  0  0
   37.8690   22.5000   36.7820 N   0  0  0  0  0  0  0  0  0  0  0  0
   36.8330   24.0500   37.9860 H   0  0  0  0  0  0  0  0  0  0  0  0
   37.2330   21.7910   37.1890 H   0  0  0  0  0  0  0  0  0  0  0  0
   37.4280   22.4100   34.0960 O   0  0  0  0  0  0  0  0  0  0  0  0
   37.5290   23.0380   31.1560 Cl  0  0  0  0  0  0  0  0  0  0  0  0
   36.6350   21.6970   31.8380 C   0  0  0  0  0  0  0  0  0  0  0  0
   36.7340   21.6050   33.2090 C   0  0  0  0  0  0  0  0  0  0  0  0
   36.0670   20.5760   33.8840 C   0  0  0  0  0  0  0  0  0  0  0  0
   36.0440   20.3680   34.9440 H   0  0  0  0  0  0  0  0  0  0  0  0
   35.3070   19.6540   33.1590 C   0  0  0  0  0  0  0  0  0  0  0  0
   34.7620   18.8330   33.5940 H   0  0  0  0  0  0  0  0  0  0  0  0
   35.2230   19.7710   31.7700 C   0  0  0  0  0  3  0  0  0  0  0  0
   35.8910   20.7970   31.1210 C   0  0  0  0  0  3  0  0  0  0  0  0
  1  2  1  0  0  0  0
  2  3  2  0  0  0  0
  2 11  1  0  0  0  0
  3  7  1  0  0  0  0
  4  3  1  0  0  0  0
  5  4  2  0  0  0  0
  6  5  1  0  0  0  0
  6  1  2  0  0  0  0
  8  5  1  0  0  0  0
  9 12  1  0  0  0  0
 10  9  2  0  0  0  0
 11 13  1  0  0  0  0
 11  9  1  0  0  0  0
 14  1  1  0  0  0  0
 15 16  1  0  0  0  0
 16 17  1  0  0  0  0
 17 18  2  0  0  0  0
 17 14  1  0  0  0  0
 18 19  1  0  0  0  0
 20 21  1  0  0  0  0
 20 18  1  0  0  0  0
 22 20  2  0  0  0  0
 23 22  1  0  0  0  0
 23 16  2  0  0  0  0
M  END
>  <minimizedAffinity>
-4.41634941

$$$$

 OpenBabel03272507383D

 23 24  0  0  0  0  0  0  0  0999 V2000
   37.7420   25.5980   34.4340 C   0  0  0  0  0  0  0  0  0  0  0  0
   37.1950   25.6640   33.1450 C   0  0  0  0  0  0  0  0  0  0  0  0
   36.6540   26.8450   32.6850 C   0  0  0  0  0  0  0  0  0  0  0  0
   36.6770   27.9180   33.5230 N   0  0  0  0  0  0  0  0  0  0  0  0
   37.2080   27.8460   34.7730 C   0  0  0  0  0  0  0  0  0  0  0  0
   37.7240   26.6990   35.1970 N   0  0  0  0  0  0  0  0  0  0  0  0
   36.2140   26.9750   31.7020 H   0  0  0  0  0  0  0  0  0  0  0  0
   37.2160   28.7190   35.4300 H   0  0  0  0  0  0  0  0  0  0  0  0
   38.0700   24.5250   31.1700 C   0  0  0  0  0  0  0  0  0  0  0  0
   39.0600   25.2280   30.7760 O   0  0  0  0  0  0  0  0  0  0  0  0
   37.1390   24.6080   32.2350 N   0  0  0  0  0  0  0  0  0  0  0  0
   38.0710   23.7250   30.4250 H   0  0  0  0  0  0  0  0  0  0  0  0
   36.4590   23.8270   32.2380 H   0  0  0  0  0  0  0  0  0  0  0  0
   38.2300   24.3490   34.7170 O   0  0  0  0  0  0  0  0  0  0  0  0
   40.8610   22.9320   35.0650 Cl  0  0  0  0  0  0  0  0  0  0  0  0
   39.7470   23.2610   36.3740 C   0  0  0  0  0  0  0  0  0  0  0  0
   38.6050   23.9210   35.9790 C   0  0  0  0  0  0  0  0  0  0  0  0
   37.6290   24.2470   36.9280 C   0  0  0  0  0  0  0  0  0  0  0  0
   36.6880   24.7580   36.7810 H   0  0  0  0  0  0  0  0  0  0  0  0
   37.8250   23.8970   38.2670 C   0  0  0  0  0  0  0  0  0  0  0  0
   37.1300   24.1060   39.0620 H   0  0  0  0  0  0  0  0  0  0  0  0
   38.9920   23.2270   38.6410 C   0  0  0  0  0  3  0  0  0  0  0  0
   39.9460   22.9150   37.6860 C   0  0  0  0  0  3  0  0  0  0  0  0
  1 14  1  0  0  0  0
  1  6  1  0  0  0  0
  2  1  2  0  0  0  0
  3  2  1  0  0  0  0
  3  4  2  0  0  0  0
  4  5  1  0  0  0  0
  5  6  2  0  0  0  0
  5  8  1  0  0  0  0
  7  3  1  0  0  0  0
  9 11  1  0  0  0  0
 10  9  2  0  0  0  0
 11 13  1  0  0  0  0
 11  2  1  0  0  0  0
 12  9  1  0  0  0  0
 14 17  1  0  0  0  0
 15 16  1  0  0  0  0
 16 23  1  0  0  0  0
 17 16  2  0  0  0  0
 17 18  1  0  0  0  0
 18 20  2  0  0  0  0
 19 18  1  0  0  0  0
 20 22  1  0  0  0  0
 20 21  1  0  0  0  0
 23 22  2  0  0  0  0
M  END
>  <minimizedAffinity>
-4.38730288

$$$$

 OpenBabel03272507383D

 23 24  0  0  0  0  0  0  0  0999 V2000
   38.8090   25.2670   33.9310 C   0  0  0  0  0  0  0  0  0  0  0  0
   37.9970   25.6880   32.8680 C   0  0  0  0  0  0  0  0  0  0  0  0
   38.4000   26.7330   32.0660 C   0  0  0  0  0  0  0  0  0  0  0  0
   39.5950   27.3210   32.3470 N   0  0  0  0  0  0  0  0  0  0  0  0
   40.3770   26.9070   33.3810 C   0  0  0  0  0  0  0  0  0  0  0  0
   39.9710   25.8980   34.1430 N   0  0  0  0  0  0  0  0  0  0  0  0
   37.8300   27.1160   31.2260 H   0  0  0  0  0  0  0  0  0  0  0  0
   41.3330   27.3930   33.5910 H   0  0  0  0  0  0  0  0  0  0  0  0
   36.6560   24.2600   31.4110 C   0  0  0  0  0  0  0  0  0  0  0  0
   37.4690   23.7840   30.5490 O   0  0  0  0  0  0  0  0  0  0  0  0
   36.7650   25.1330   32.5210 N   0  0  0  0  0  0  0  0  0  0  0  0
   35.7170   23.8010   31.0890 H   0  0  0  0  0  0  0  0  0  0  0  0
   35.8610   25.2900   33.0020 H   0  0  0  0  0  0  0  0  0  0  0  0
   38.2470   24.2210   34.6150 O   0  0  0  0  0  0  0  0  0  0  0  0
   40.5570   22.3490   35.0720 Cl  0  0  0  0  0  0  0  0  0  0  0  0
   39.5850   23.0310   36.3560 C   0  0  0  0  0  0  0  0  0  0  0  0
   38.5810   23.8620   35.9100 C   0  0  0  0  0  0  0  0  0  0  0  0
   37.7280   24.4760   36.8350 C   0  0  0  0  0  0  0  0  0  0  0  0
   36.9020   25.1470   36.6490 H   0  0  0  0  0  0  0  0  0  0  0  0
   37.9040   24.2380   38.2010 C   0  0  0  0  0  0  0  0  0  0  0  0
   37.2970   24.6660   38.9800 H   0  0  0  0  0  0  0  0  0  0  0  0
   38.9300   23.3900   38.6260 C   0  0  0  0  0  3  0  0  0  0  0  0
   39.7630   22.7930   37.6950 C   0  0  0  0  0  3  0  0  0  0  0  0
  1  6  1  0  0  0  0
  1 14  1  0  0  0  0
  2  1  2  0  0  0  0
  3  4  2  0  0  0  0
  3  2  1  0  0  0  0
  4  5  1  0  0  0  0
  5  8  1  0  0  0  0
  5  6  2  0  0  0  0
  7  3  1  0  0  0  0
  9 11  1  0  0  0  0
 10  9  2  0  0  0  0
 11  2  1  0  0  0  0
 11 13  1  0  0  0  0
 12  9  1  0  0  0  0
 14 17  1  0  0  0  0
 15 16  1  0  0  0  0
 16 23  1  0  0  0  0
 17 16  2  0  0  0  0
 17 18  1  0  0  0  0
 18 20  2  0  0  0  0
 19 18  1  0  0  0  0
 20 22  1  0  0  0  0
 20 21  1  0  0  0  0
 23 22  2  0  0  0  0
M  END
>  <minimizedAffinity>
-4.34456253

$$$$

 OpenBabel03272507383D

 23 24  0  0  0  0  0  0  0  0999 V2000
   37.4850   22.3380   33.8710 C   0  0  0  0  0  0  0  0  0  0  0  0
   37.1720   22.8110   32.5890 C   0  0  0  0  0  0  0  0  0  0  0  0
   36.1310   22.2490   31.8820 C   0  0  0  0  0  0  0  0  0  0  0  0
   35.4400   21.2360   32.4740 N   0  0  0  0  0  0  0  0  0  0  0  0
   35.7510   20.7820   33.7180 C   0  0  0  0  0  0  0  0  0  0  0  0
   36.7570   21.3370   34.3830 N   0  0  0  0  0  0  0  0  0  0  0  0
   35.8270   22.5600   30.8880 H   0  0  0  0  0  0  0  0  0  0  0  0
   35.1840   19.9670   34.1760 H   0  0  0  0  0  0  0  0  0  0  0  0
   37.1820   25.0780   31.6800 C   0  0  0  0  0  0  0  0  0  0  0  0
   36.0290   25.5590   31.9380 O   0  0  0  0  0  0  0  0  0  0  0  0
   37.8340   23.8430   31.9230 N   0  0  0  0  0  0  0  0  0  0  0  0
   37.6490   25.9180   31.1580 H   0  0  0  0  0  0  0  0  0  0  0  0
   38.8030   23.8190   31.5580 H   0  0  0  0  0  0  0  0  0  0  0  0
   38.5450   23.0140   34.4170 O   0  0  0  0  0  0  0  0  0  0  0  0
   41.0770   21.7840   35.4780 Cl  0  0  0  0  0  0  0  0  0  0  0  0
   39.8950   22.5990   36.4770 C   0  0  0  0  0  0  0  0  0  0  0  0
   38.8140   23.0840   35.7730 C   0  0  0  0  0  0  0  0  0  0  0  0
   37.7930   23.7590   36.4520 C   0  0  0  0  0  0  0  0  0  0  0  0
   36.8890   24.1950   36.0510 H   0  0  0  0  0  0  0  0  0  0  0  0
   37.8810   23.9340   37.8360 C   0  0  0  0  0  0  0  0  0  0  0  0
   37.1450   24.4390   38.4370 H   0  0  0  0  0  0  0  0  0  0  0  0
   38.9880   23.4320   38.5240 C   0  0  0  0  0  3  0  0  0  0  0  0
   39.9880   22.7670   37.8340 C   0  0  0  0  0  3  0  0  0  0  0  0
  1  6  1  0  0  0  0
  1 14  1  0  0  0  0
  2  1  2  0  0  0  0
  3  4  2  0  0  0  0
  3  2  1  0  0  0  0
  4  5  1  0  0  0  0
  5  8  1  0  0  0  0
  5  6  2  0  0  0  0
  7  3  1  0  0  0  0
  9 11  1  0  0  0  0
  9 10  2  0  0  0  0
 11  2  1  0  0  0  0
 12  9  1  0  0  0  0
 13 11  1  0  0  0  0
 14 17  1  0  0  0  0
 15 16  1  0  0  0  0
 16 23  1  0  0  0  0
 17 18  1  0  0  0  0
 17 16  2  0  0  0  0
 18 20  2  0  0  0  0
 19 18  1  0  0  0  0
 20 21  1  0  0  0  0
 20 22  1  0  0  0  0
 23 22  2  0  0  0  0
M  END
>  <minimizedAffinity>
-4.32973623

$$$$

 OpenBabel03272507383D

 23 24  0  0  0  0  0  0  0  0999 V2000
   37.5040   25.8040   32.9850 C   0  0  0  0  0  0  0  0  0  0  0  0
   37.0900   25.0680   31.8670 C   0  0  0  0  0  0  0  0  0  0  0  0
   36.1420   25.5870   31.0120 C   0  0  0  0  0  0  0  0  0  0  0  0
   35.6390   26.8200   31.3010 N   0  0  0  0  0  0  0  0  0  0  0  0
   36.0450   27.5270   32.3900 C   0  0  0  0  0  0  0  0  0  0  0  0
   36.9600   27.0090   33.2000 N   0  0  0  0  0  0  0  0  0  0  0  0
   35.7710   25.0810   30.1270 H   0  0  0  0  0  0  0  0  0  0  0  0
   35.6290   28.5150   32.6040 H   0  0  0  0  0  0  0  0  0  0  0  0
   36.7320   22.6630   31.6390 C   0  0  0  0  0  0  0  0  0  0  0  0
   35.5360   22.4530   32.0320 O   0  0  0  0  0  0  0  0  0  0  0  0
   37.5610   23.8040   31.5090 N   0  0  0  0  0  0  0  0  0  0  0  0
   37.0500   21.6490   31.3800 H   0  0  0  0  0  0  0  0  0  0  0  0
   38.5020   23.5800   31.1380 H   0  0  0  0  0  0  0  0  0  0  0  0
   38.4480   25.1310   33.7160 O   0  0  0  0  0  0  0  0  0  0  0  0
   38.6030   27.0310   36.0440 Cl  0  0  0  0  0  0  0  0  0  0  0  0
   38.2720   25.3200   36.2000 C   0  0  0  0  0  0  0  0  0  0  0  0
   38.2500   24.6470   34.9980 C   0  0  0  0  0  0  0  0  0  0  0  0
   37.9950   23.2710   34.9790 C   0  0  0  0  0  0  0  0  0  0  0  0
   37.9440   22.6050   34.1290 H   0  0  0  0  0  0  0  0  0  0  0  0
   37.7680   22.5940   36.1800 C   0  0  0  0  0  0  0  0  0  0  0  0
   37.5650   21.5400   36.2600 H   0  0  0  0  0  0  0  0  0  0  0  0
   37.7970   23.3010   37.3850 C   0  0  0  0  0  3  0  0  0  0  0  0
   38.0500   24.6620   37.3820 C   0  0  0  0  0  3  0  0  0  0  0  0
  1  6  1  0  0  0  0
  1 14  1  0  0  0  0
  2  1  2  0  0  0  0
  3  4  2  0  0  0  0
  3  2  1  0  0  0  0
  4  5  1  0  0  0  0
  5  8  1  0  0  0  0
  5  6  2  0  0  0  0
  7  3  1  0  0  0  0
  9 10  2  0  0  0  0
 11  9  1  0  0  0  0
 11  2  1  0  0  0  0
 12  9  1  0  0  0  0
 13 11  1  0  0  0  0
 14 17  1  0  0  0  0
 15 16  1  0  0  0  0
 16 23  1  0  0  0  0
 17 16  2  0  0  0  0
 18 17  1  0  0  0  0
 18 20  2  0  0  0  0
 19 18  1  0  0  0  0
 20 21  1  0  0  0  0
 20 22  1  0  0  0  0
 23 22  2  0  0  0  0
M  END
>  <minimizedAffinity>
-4.28207922

$$$$
