
 OpenBabel03262521303D

 31 33  0  0  1  0  0  0  0  0999 V2000
   38.7050   31.6890   46.6890 C   0  0  1  0  0  0  0  0  0  0  0  0
   37.9040   30.4640   47.0200 C   0  0  2  0  0  0  0  0  0  0  0  0
   36.9570   30.2880   46.0330 O   0  0  0  0  0  0  0  0  0  0  0  0
   37.4240   30.9410   44.9020 C   0  0  0  0  0  0  0  0  0  0  0  0
   37.9510   32.2440   45.5040 C   0  0  2  0  0  0  0  0  0  0  0  0
   39.7110   31.3710   46.3070 H   0  0  0  0  0  0  0  0  0  0  0  0
   38.5710   29.5760   47.0140 H   0  0  0  0  0  0  0  0  0  0  0  0
   38.1900   30.3970   44.3530 H   0  0  0  0  0  0  0  0  0  0  0  0
   36.5280   31.2340   44.2990 H   0  0  0  0  0  0  0  0  0  0  0  0
   37.0900   32.7920   45.8870 H   0  0  0  0  0  0  0  0  0  0  0  0
   37.3750   30.3020   50.7550 C   0  0  0  0  0  0  0  0  0  0  0  0
   38.0500   30.2770   49.5210 C   0  0  0  0  0  0  0  0  0  0  0  0
   37.2790   30.4830   48.3610 C   0  0  0  0  0  0  0  0  0  0  0  0
   35.9380   30.6920   48.4780 N   0  0  0  0  0  0  0  0  0  0  0  0
   35.3300   30.7080   49.6840 C   0  0  0  0  0  0  0  0  0  0  0  0
   36.0420   30.5140   50.8070 N   0  0  0  0  0  0  0  0  0  0  0  0
   37.9780   30.1430   51.6400 H   0  0  0  0  0  0  0  0  0  0  0  0
   39.1130   30.1110   49.4430 H   0  0  0  0  0  0  0  0  0  0  0  0
   34.2610   30.8810   49.6710 H   0  0  0  0  0  0  0  0  0  0  0  0
   38.8800   32.5650   47.7070 O   0  0  0  0  0  0  0  0  0  0  0  0
   39.8110   32.7450   47.9690 H   0  0  0  0  0  0  0  0  0  0  0  0
   38.7290   32.9310   44.6320 O   0  0  0  0  0  0  0  0  0  0  0  0
   40.9840   31.1330   44.2910 Cl  0  0  0  0  0  0  0  0  0  0  0  0
   39.8940   31.7610   43.0730 C   0  0  0  0  0  0  0  0  0  0  0  0
   38.8200   32.6280   43.2950 C   0  0  0  0  0  0  0  0  0  0  0  0
   38.0750   33.0140   42.2130 C   0  0  0  0  0  0  0  0  0  0  0  0
   37.2790   33.6720   42.4700 H   0  0  0  0  0  0  0  0  0  0  0  0
   38.3710   32.5660   40.9510 C   0  0  0  0  0  0  0  0  0  0  0  0
   37.7180   32.9330   40.1680 H   0  0  0  0  0  0  0  0  0  0  0  0
   39.4210   31.7150   40.7160 C   0  0  0  0  0  0  0  0  0  0  0  0
   40.1920   31.3070   41.7860 C   0  0  0  0  0  0  0  0  0  0  0  0
  1  6  1  6  0  0  0
  1  2  1  0  0  0  0
  1 20  1  0  0  0  0
  2  7  1  6  0  0  0
  2 13  1  0  0  0  0
  3  2  1  0  0  0  0
  4  5  1  0  0  0  0
  4  3  1  0  0  0  0
  5 10  1  1  0  0  0
  5  1  1  0  0  0  0
  8  4  1  0  0  0  0
  9  4  1  0  0  0  0
 11 16  1  0  0  0  0
 11 17  1  0  0  0  0
 12 11  2  0  0  0  0
 13 14  2  0  0  0  0
 13 12  1  0  0  0  0
 14 15  1  0  0  0  0
 15 16  2  0  0  0  0
 18 12  1  0  0  0  0
 19 15  1  0  0  0  0
 20 21  1  0  0  0  0
 22  5  1  0  0  0  0
 24 25  1  0  0  0  0
 24 23  1  0  0  0  0
 25 22  1  0  0  0  0
 26 27  1  0  0  0  0
 26 25  2  0  0  0  0
 28 26  1  0  0  0  0
 29 28  1  0  0  0  0
 30 28  2  0  0  0  0
 30 31  1  0  0  0  0
 31 24  2  0  0  0  0
M  END
>  <minimizedAffinity>
-4.87878704

>  <minimizedRMSD>
4.10551929

$$$$
