
 OpenBabel03262522173D

 45 48  0  0  1  0  0  0  0  0999 V2000
   38.3670   22.7450   31.1590 C   0  0  0  0  0  0  0  0  0  0  0  0
   39.1380   22.3240   30.4590 H   0  0  0  0  0  0  0  0  0  0  0  0
   38.8630   23.1480   32.0480 H   0  0  0  0  0  0  0  0  0  0  0  0
   37.4240   26.1550   30.9870 C   0  0  1  0  0  0  0  0  0  0  0  0
   38.4820   25.1650   30.5670 C   0  0  0  0  0  0  0  0  0  0  0  0
   37.6870   23.8920   30.4520 C   0  0  2  0  0  0  0  0  0  0  0  0
   36.4310   24.1340   30.9440 O   0  0  0  0  0  0  0  0  0  0  0  0
   36.4910   25.2430   31.7710 C   0  0  0  0  0  0  0  0  0  0  0  0
   36.8670   26.5920   30.1340 H   0  0  0  0  0  0  0  0  0  0  0  0
   39.2860   25.1140   31.3260 H   0  0  0  0  0  0  0  0  0  0  0  0
   38.8180   25.4600   29.5600 H   0  0  0  0  0  0  0  0  0  0  0  0
   37.5940   23.5760   29.3780 H   0  0  0  0  0  0  0  0  0  0  0  0
   36.9770   25.0200   32.7420 H   0  0  0  0  0  0  0  0  0  0  0  0
   35.5040   25.6830   31.9320 H   0  0  0  0  0  0  0  0  0  0  0  0
   37.9370   27.1600   31.7790 O   0  0  0  0  0  0  0  0  0  0  0  0
   35.8320   28.4230   33.3780 Cl  0  0  0  0  0  0  0  0  0  0  0  0
   37.3440   27.7290   33.9800 C   0  0  0  0  0  0  0  0  0  0  0  0
   38.2500   27.1630   33.1010 C   0  0  0  0  0  0  0  0  0  0  0  0
   39.3910   26.6550   33.6810 C   0  0  0  0  0  0  0  0  0  0  0  0
   40.1180   26.2050   33.0150 H   0  0  0  0  0  0  0  0  0  0  0  0
   39.6810   26.6720   35.0210 C   0  0  0  0  0  0  0  0  0  0  0  0
   40.6140   26.2470   35.4110 H   0  0  0  0  0  0  0  0  0  0  0  0
   38.7630   27.2430   35.8830 C   0  0  0  0  0  3  0  0  0  0  0  0
   37.5970   27.7690   35.3490 C   0  0  0  0  0  3  0  0  0  0  0  0
   37.1000   21.4960   31.5160 S   0  0  0  0  0  0  0  0  0  0  0  0
   37.7010   22.2450   35.3680 C   0  0  0  0  0  0  0  0  0  0  0  0
   36.6810   21.5320   36.0210 C   0  0  0  0  0  0  0  0  0  0  0  0
   35.7670   20.7930   35.3000 C   0  0  0  0  0  0  0  0  0  0  0  0
   35.9160   20.7990   33.9360 C   0  0  0  0  0  0  0  0  0  0  0  0
   36.9120   21.4970   33.3290 C   0  0  0  0  0  0  0  0  0  0  0  0
   37.8190   22.2290   34.0300 N   0  0  0  0  0  0  0  0  0  0  0  0
   36.5950   21.5510   37.1020 H   0  0  0  0  0  0  0  0  0  0  0  0
   34.9720   20.2340   35.7640 H   0  0  0  0  0  0  0  0  0  0  0  0
   35.2220   20.2320   33.3340 H   0  0  0  0  0  0  0  0  0  0  0  0
   38.6160   22.9930   36.1910 C   0  0  0  0  0  0  0  0  0  0  0  0
   38.2180   23.9310   36.8920 O   0  0  0  0  0  0  0  0  0  0  0  0
   40.8980   23.2800   35.2980 C   0  0  0  0  0  0  0  0  0  0  0  0
   40.0560   22.6880   36.2440 C   0  0  0  0  0  0  0  0  0  0  0  0
   40.6040   21.8270   37.2100 C   0  0  0  0  0  0  0  0  0  0  0  0
   41.9560   21.5990   37.1840 N   0  0  0  0  0  0  0  0  0  0  0  0
   42.7410   22.1810   36.2630 C   0  0  0  0  0  0  0  0  0  0  0  0
   42.2240   23.0060   35.3380 N   0  0  0  0  0  0  0  0  0  0  0  0
   40.4950   23.9440   34.5480 H   0  0  0  0  0  0  0  0  0  0  0  0
   39.9430   21.3760   37.9360 H   0  0  0  0  0  0  0  0  0  0  0  0
   43.8120   22.0210   36.2170 H   0  0  0  0  0  0  0  0  0  0  0  0
  1 25  1  0  0  0  0
  1  3  1  0  0  0  0
  2  1  1  0  0  0  0
  4  9  1  6  0  0  0
  4  8  1  0  0  0  0
  4 15  1  0  0  0  0
  5  4  1  0  0  0  0
  5 10  1  0  0  0  0
  6 12  1  6  0  0  0
  6  5  1  0  0  0  0
  6  7  1  0  0  0  0
  6  1  1  0  0  0  0
  7  8  1  0  0  0  0
  8 14  1  0  0  0  0
  8 13  1  0  0  0  0
 11  5  1  0  0  0  0
 15 18  1  0  0  0  0
 16 17  1  0  0  0  0
 17 24  1  0  0  0  0
 18 19  1  0  0  0  0
 18 17  2  0  0  0  0
 19 21  2  0  0  0  0
 20 19  1  0  0  0  0
 21 22  1  0  0  0  0
 21 23  1  0  0  0  0
 24 23  2  0  0  0  0
 25 30  1  0  0  0  0
 26 27  1  0  0  0  0
 26 35  1  0  0  0  0
 27 32  1  0  0  0  0
 28 33  1  0  0  0  0
 28 27  2  0  0  0  0
 29 28  1  0  0  0  0
 30 29  2  0  0  0  0
 30 31  1  0  0  0  0
 31 26  2  0  0  0  0
 34 29  1  0  0  0  0
 35 38  1  0  0  0  0
 35 36  2  0  0  0  0
 37 42  2  0  0  0  0
 37 38  1  0  0  0  0
 38 39  2  0  0  0  0
 39 44  1  0  0  0  0
 40 39  1  0  0  0  0
 41 40  2  0  0  0  0
 42 41  1  0  0  0  0
 43 37  1  0  0  0  0
 45 41  1  0  0  0  0
M  END
>  <minimizedAffinity>
-6.00056124

$$$$

 OpenBabel03262522173D

 45 48  0  0  1  0  0  0  0  0999 V2000
   36.8020   27.5760   30.6550 C   0  0  0  0  0  0  0  0  0  0  0  0
   36.3780   27.9960   29.7030 H   0  0  0  0  0  0  0  0  0  0  0  0
   37.7590   27.0880   30.4460 H   0  0  0  0  0  0  0  0  0  0  0  0
   35.6830   30.0100   32.9730 C   0  0  1  0  0  0  0  0  0  0  0  0
   36.2690   28.6240   32.8550 C   0  0  0  0  0  0  0  0  0  0  0  0
   37.0700   28.7340   31.5850 C   0  0  2  0  0  0  0  0  0  0  0  0
   36.7790   29.9420   31.0070 O   0  0  0  0  0  0  0  0  0  0  0  0
   35.5640   30.3840   31.5030 C   0  0  0  0  0  0  0  0  0  0  0  0
   36.3590   30.7310   33.4740 H   0  0  0  0  0  0  0  0  0  0  0  0
   35.4630   27.8680   32.8010 H   0  0  0  0  0  0  0  0  0  0  0  0
   36.9650   28.4950   33.6980 H   0  0  0  0  0  0  0  0  0  0  0  0
   38.1710   28.7000   31.8050 H   0  0  0  0  0  0  0  0  0  0  0  0
   34.7070   29.8210   31.0810 H   0  0  0  0  0  0  0  0  0  0  0  0
   35.4280   31.4570   31.3480 H   0  0  0  0  0  0  0  0  0  0  0  0
   34.4540   30.0040   33.5980 O   0  0  0  0  0  0  0  0  0  0  0  0
   31.8020   29.0440   34.3880 Cl  0  0  0  0  0  0  0  0  0  0  0  0
   32.8410   30.1480   35.3010 C   0  0  0  0  0  0  0  0  0  0  0  0
   34.0770   30.5160   34.7990 C   0  0  0  0  0  0  0  0  0  0  0  0
   34.7990   31.3780   35.5940 C   0  0  0  0  0  0  0  0  0  0  0  0
   35.7720   31.6830   35.2250 H   0  0  0  0  0  0  0  0  0  0  0  0
   34.3920   31.8800   36.8040 C   0  0  0  0  0  0  0  0  0  0  0  0
   35.0240   32.5640   37.3810 H   0  0  0  0  0  0  0  0  0  0  0  0
   33.1540   31.5000   37.2870 C   0  0  0  0  0  3  0  0  0  0  0  0
   32.3870   30.6330   36.5240 C   0  0  0  0  0  3  0  0  0  0  0  0
   35.5810   26.5020   31.4610 S   0  0  0  0  0  0  0  0  0  0  0  0
   38.1810   24.3180   33.5170 C   0  0  0  0  0  0  0  0  0  0  0  0
   37.9600   23.0060   33.0690 C   0  0  0  0  0  0  0  0  0  0  0  0
   37.0000   22.7400   32.1140 C   0  0  0  0  0  0  0  0  0  0  0  0
   36.2930   23.8180   31.6440 C   0  0  0  0  0  0  0  0  0  0  0  0
   36.5270   25.0790   32.0950 C   0  0  0  0  0  0  0  0  0  0  0  0
   37.4710   25.3520   33.0360 N   0  0  0  0  0  0  0  0  0  0  0  0
   38.5400   22.1780   33.4650 H   0  0  0  0  0  0  0  0  0  0  0  0
   36.8020   21.7480   31.7460 H   0  0  0  0  0  0  0  0  0  0  0  0
   35.5320   23.6550   30.8950 H   0  0  0  0  0  0  0  0  0  0  0  0
   39.2010   24.5130   34.5160 C   0  0  0  0  0  0  0  0  0  0  0  0
   40.2920   25.0120   34.2200 O   0  0  0  0  0  0  0  0  0  0  0  0
   39.8690   23.1940   36.4910 C   0  0  0  0  0  0  0  0  0  0  0  0
   39.0030   24.1340   35.9260 C   0  0  0  0  0  0  0  0  0  0  0  0
   37.9780   24.6850   36.7130 C   0  0  0  0  0  0  0  0  0  0  0  0
   37.8670   24.2740   38.0170 N   0  0  0  0  0  0  0  0  0  0  0  0
   38.7130   23.3690   38.5330 C   0  0  0  0  0  0  0  0  0  0  0  0
   39.6970   22.8380   37.7880 N   0  0  0  0  0  0  0  0  0  0  0  0
   40.6630   22.7590   35.9030 H   0  0  0  0  0  0  0  0  0  0  0  0
   37.3150   25.4110   36.2650 H   0  0  0  0  0  0  0  0  0  0  0  0
   38.6520   23.0250   39.5590 H   0  0  0  0  0  0  0  0  0  0  0  0
  1 25  1  0  0  0  0
  1  6  1  0  0  0  0
  2  1  1  0  0  0  0
  3  1  1  0  0  0  0
  4  9  1  1  0  0  0
  4 15  1  0  0  0  0
  5  4  1  0  0  0  0
  5 11  1  0  0  0  0
  6 12  1  1  0  0  0
  6  5  1  0  0  0  0
  7  8  1  0  0  0  0
  7  6  1  0  0  0  0
  8  4  1  0  0  0  0
 10  5  1  0  0  0  0
 13  8  1  0  0  0  0
 14  8  1  0  0  0  0
 15 18  1  0  0  0  0
 16 17  1  0  0  0  0
 17 24  1  0  0  0  0
 18 17  2  0  0  0  0
 18 19  1  0  0  0  0
 19 21  2  0  0  0  0
 20 19  1  0  0  0  0
 21 23  1  0  0  0  0
 21 22  1  0  0  0  0
 24 23  2  0  0  0  0
 25 30  1  0  0  0  0
 26 35  1  0  0  0  0
 27 32  1  0  0  0  0
 27 26  1  0  0  0  0
 28 27  2  0  0  0  0
 29 30  2  0  0  0  0
 29 28  1  0  0  0  0
 30 31  1  0  0  0  0
 31 26  2  0  0  0  0
 33 28  1  0  0  0  0
 34 29  1  0  0  0  0
 35 38  1  0  0  0  0
 36 35  2  0  0  0  0
 37 42  1  0  0  0  0
 38 37  2  0  0  0  0
 38 39  1  0  0  0  0
 39 40  2  0  0  0  0
 40 41  1  0  0  0  0
 41 45  1  0  0  0  0
 42 41  2  0  0  0  0
 43 37  1  0  0  0  0
 44 39  1  0  0  0  0
M  END
>  <minimizedAffinity>
-5.99770832

$$$$

 OpenBabel03262522173D

 45 48  0  0  1  0  0  0  0  0999 V2000
   37.6760   29.2060   30.4110 C   0  0  0  0  0  0  0  0  0  0  0  0
   37.7910   29.6470   29.3840 H   0  0  0  0  0  0  0  0  0  0  0  0
   38.2110   29.8270   31.1370 H   0  0  0  0  0  0  0  0  0  0  0  0
   35.0470   30.0490   32.6310 C   0  0  1  0  0  0  0  0  0  0  0  0
   35.8390   30.5400   31.4440 C   0  0  0  0  0  0  0  0  0  0  0  0
   36.2090   29.2490   30.7640 C   0  0  2  0  0  0  0  0  0  0  0  0
   35.8420   28.2180   31.5890 O   0  0  0  0  0  0  0  0  0  0  0  0
   35.7260   28.7100   32.8780 C   0  0  0  0  0  0  0  0  0  0  0  0
   33.9770   29.8740   32.4040 H   0  0  0  0  0  0  0  0  0  0  0  0
   36.7150   31.1270   31.7800 H   0  0  0  0  0  0  0  0  0  0  0  0
   35.1390   31.0900   30.7950 H   0  0  0  0  0  0  0  0  0  0  0  0
   35.6580   29.1400   29.7910 H   0  0  0  0  0  0  0  0  0  0  0  0
   36.7110   28.9120   33.3430 H   0  0  0  0  0  0  0  0  0  0  0  0
   35.1350   28.0460   33.5140 H   0  0  0  0  0  0  0  0  0  0  0  0
   35.1660   30.8880   33.7190 O   0  0  0  0  0  0  0  0  0  0  0  0
   36.4280   32.6050   35.7290 Cl  0  0  0  0  0  0  0  0  0  0  0  0
   34.8730   31.7730   35.8760 C   0  0  0  0  0  0  0  0  0  0  0  0
   34.4010   30.9890   34.8370 C   0  0  0  0  0  0  0  0  0  0  0  0
   33.1820   30.3910   35.0620 C   0  0  0  0  0  0  0  0  0  0  0  0
   32.7880   29.7720   34.2650 H   0  0  0  0  0  0  0  0  0  0  0  0
   32.4310   30.5110   36.2040 C   0  0  0  0  0  0  0  0  0  0  0  0
   31.4660   30.0030   36.3100 H   0  0  0  0  0  0  0  0  0  0  0  0
   32.9200   31.2980   37.2300 C   0  0  0  0  0  3  0  0  0  0  0  0
   34.1450   31.9230   37.0530 C   0  0  0  0  0  3  0  0  0  0  0  0
   38.1840   27.4650   30.4040 S   0  0  0  0  0  0  0  0  0  0  0  0
   39.3670   26.7240   34.1200 C   0  0  0  0  0  0  0  0  0  0  0  0
   40.7550   26.9400   34.0900 C   0  0  0  0  0  0  0  0  0  0  0  0
   41.3830   27.3220   32.9230 C   0  0  0  0  0  0  0  0  0  0  0  0
   40.5800   27.4740   31.8200 C   0  0  0  0  0  0  0  0  0  0  0  0
   39.2390   27.2590   31.8760 C   0  0  0  0  0  0  0  0  0  0  0  0
   38.6100   26.8820   33.0230 N   0  0  0  0  0  0  0  0  0  0  0  0
   41.3570   26.8100   34.9840 H   0  0  0  0  0  0  0  0  0  0  0  0
   42.4430   27.4970   32.8600 H   0  0  0  0  0  0  0  0  0  0  0  0
   41.0300   27.7720   30.8850 H   0  0  0  0  0  0  0  0  0  0  0  0
   38.7870   26.3270   35.3780 C   0  0  0  0  0  0  0  0  0  0  0  0
   38.6100   27.1500   36.2840 O   0  0  0  0  0  0  0  0  0  0  0  0
   37.9460   24.6120   36.9390 C   0  0  0  0  0  0  0  0  0  0  0  0
   38.3780   24.9380   35.6510 C   0  0  0  0  0  0  0  0  0  0  0  0
   38.4090   23.9400   34.6620 C   0  0  0  0  0  0  0  0  0  0  0  0
   38.0110   22.6740   35.0050 N   0  0  0  0  0  0  0  0  0  0  0  0
   37.6000   22.3890   36.2500 C   0  0  0  0  0  0  0  0  0  0  0  0
   37.5670   23.3370   37.2010 N   0  0  0  0  0  0  0  0  0  0  0  0
   37.9150   25.3650   37.7120 H   0  0  0  0  0  0  0  0  0  0  0  0
   38.7460   24.2050   33.6700 H   0  0  0  0  0  0  0  0  0  0  0  0
   37.2790   21.3980   36.5520 H   0  0  0  0  0  0  0  0  0  0  0  0
  1  6  1  0  0  0  0
  1  3  1  0  0  0  0
  2  1  1  0  0  0  0
  4  9  1  6  0  0  0
  4  8  1  0  0  0  0
  4 15  1  0  0  0  0
  5 10  1  0  0  0  0
  5  4  1  0  0  0  0
  6 12  1  6  0  0  0
  6  5  1  0  0  0  0
  6  7  1  0  0  0  0
  7  8  1  0  0  0  0
  8 13  1  0  0  0  0
  8 14  1  0  0  0  0
 11  5  1  0  0  0  0
 15 18  1  0  0  0  0
 16 17  1  0  0  0  0
 17 24  1  0  0  0  0
 18 19  1  0  0  0  0
 18 17  2  0  0  0  0
 19 21  2  0  0  0  0
 20 19  1  0  0  0  0
 21 22  1  0  0  0  0
 21 23  1  0  0  0  0
 24 23  2  0  0  0  0
 25  1  1  0  0  0  0
 25 30  1  0  0  0  0
 26 35  1  0  0  0  0
 27 26  1  0  0  0  0
 27 32  1  0  0  0  0
 28 27  2  0  0  0  0
 29 30  2  0  0  0  0
 29 28  1  0  0  0  0
 30 31  1  0  0  0  0
 31 26  2  0  0  0  0
 33 28  1  0  0  0  0
 34 29  1  0  0  0  0
 35 38  1  0  0  0  0
 35 36  2  0  0  0  0
 37 42  1  0  0  0  0
 37 43  1  0  0  0  0
 38 37  2  0  0  0  0
 39 40  2  0  0  0  0
 39 38  1  0  0  0  0
 40 41  1  0  0  0  0
 41 45  1  0  0  0  0
 41 42  2  0  0  0  0
 44 39  1  0  0  0  0
M  END
>  <minimizedAffinity>
-5.91301584

$$$$

 OpenBabel03262522173D

 45 48  0  0  1  0  0  0  0  0999 V2000
   37.5030   28.1870   31.6890 C   0  0  0  0  0  0  0  0  0  0  0  0
   38.1390   28.2830   30.7680 H   0  0  0  0  0  0  0  0  0  0  0  0
   37.9400   28.7800   32.4990 H   0  0  0  0  0  0  0  0  0  0  0  0
   34.7960   30.3340   32.4690 C   0  0  1  0  0  0  0  0  0  0  0  0
   36.0880   30.2410   31.6960 C   0  0  0  0  0  0  0  0  0  0  0  0
   36.1490   28.7720   31.3710 C   0  0  2  0  0  0  0  0  0  0  0  0
   35.1380   28.1480   32.0550 O   0  0  0  0  0  0  0  0  0  0  0  0
   34.7620   28.9560   33.1140 C   0  0  0  0  0  0  0  0  0  0  0  0
   33.9040   30.4510   31.8230 H   0  0  0  0  0  0  0  0  0  0  0  0
   36.9350   30.5890   32.3170 H   0  0  0  0  0  0  0  0  0  0  0  0
   35.9440   30.8020   30.7590 H   0  0  0  0  0  0  0  0  0  0  0  0
   35.9930   28.6020   30.2710 H   0  0  0  0  0  0  0  0  0  0  0  0
   35.5060   28.9500   33.9350 H   0  0  0  0  0  0  0  0  0  0  0  0
   33.7730   28.6910   33.4950 H   0  0  0  0  0  0  0  0  0  0  0  0
   34.8270   31.3370   33.4150 O   0  0  0  0  0  0  0  0  0  0  0  0
   36.2770   31.1780   35.9550 Cl  0  0  0  0  0  0  0  0  0  0  0  0
   34.5570   31.5300   35.7410 C   0  0  0  0  0  0  0  0  0  0  0  0
   34.0060   31.5730   34.4720 C   0  0  0  0  0  0  0  0  0  0  0  0
   32.6590   31.8560   34.4270 C   0  0  0  0  0  0  0  0  0  0  0  0
   32.2020   31.8950   33.4450 H   0  0  0  0  0  0  0  0  0  0  0  0
   31.8550   32.0890   35.5130 C   0  0  0  0  0  0  0  0  0  0  0  0
   30.7870   32.3090   35.3980 H   0  0  0  0  0  0  0  0  0  0  0  0
   32.4240   32.0420   36.7720 C   0  0  0  0  0  3  0  0  0  0  0  0
   33.7780   31.7600   36.8720 C   0  0  0  0  0  3  0  0  0  0  0  0
   37.2570   26.4360   32.0980 S   0  0  0  0  0  0  0  0  0  0  0  0
   38.1010   24.8790   35.6500 C   0  0  0  0  0  0  0  0  0  0  0  0
   38.3300   25.9950   36.4710 C   0  0  0  0  0  0  0  0  0  0  0  0
   38.2340   27.2740   35.9620 C   0  0  0  0  0  0  0  0  0  0  0  0
   37.9070   27.3790   34.6340 C   0  0  0  0  0  0  0  0  0  0  0  0
   37.6910   26.2820   33.8610 C   0  0  0  0  0  0  0  0  0  0  0  0
   37.7830   25.0170   34.3530 N   0  0  0  0  0  0  0  0  0  0  0  0
   38.5860   25.8720   37.5180 H   0  0  0  0  0  0  0  0  0  0  0  0
   38.4020   28.1540   36.5590 H   0  0  0  0  0  0  0  0  0  0  0  0
   37.8210   28.3620   34.1950 H   0  0  0  0  0  0  0  0  0  0  0  0
   38.2220   23.5770   36.2560 C   0  0  0  0  0  0  0  0  0  0  0  0
   37.2380   23.0130   36.7480 O   0  0  0  0  0  0  0  0  0  0  0  0
   40.1310   22.5020   35.1230 C   0  0  0  0  0  0  0  0  0  0  0  0
   39.5050   22.8560   36.3210 C   0  0  0  0  0  0  0  0  0  0  0  0
   40.1130   22.5180   37.5420 C   0  0  0  0  0  0  0  0  0  0  0  0
   41.3080   21.8450   37.5080 N   0  0  0  0  0  0  0  0  0  0  0  0
   41.8860   21.5170   36.3430 C   0  0  0  0  0  0  0  0  0  0  0  0
   41.3120   21.8380   35.1710 N   0  0  0  0  0  0  0  0  0  0  0  0
   39.6800   22.7530   34.1750 H   0  0  0  0  0  0  0  0  0  0  0  0
   39.6180   22.7970   38.4610 H   0  0  0  0  0  0  0  0  0  0  0  0
   42.8300   20.9870   36.2830 H   0  0  0  0  0  0  0  0  0  0  0  0
  1 25  1  0  0  0  0
  1  3  1  0  0  0  0
  2  1  1  0  0  0  0
  4  9  1  6  0  0  0
  4  8  1  0  0  0  0
  4 15  1  0  0  0  0
  5 10  1  0  0  0  0
  5  4  1  0  0  0  0
  6 12  1  6  0  0  0
  6  1  1  0  0  0  0
  6  5  1  0  0  0  0
  6  7  1  0  0  0  0
  7  8  1  0  0  0  0
  8 14  1  0  0  0  0
  8 13  1  0  0  0  0
 11  5  1  0  0  0  0
 15 18  1  0  0  0  0
 17 16  1  0  0  0  0
 17 24  1  0  0  0  0
 18 17  2  0  0  0  0
 19 18  1  0  0  0  0
 19 21  2  0  0  0  0
 20 19  1  0  0  0  0
 21 23  1  0  0  0  0
 22 21  1  0  0  0  0
 23 24  2  0  0  0  0
 25 30  1  0  0  0  0
 26 35  1  0  0  0  0
 26 27  1  0  0  0  0
 27 32  1  0  0  0  0
 28 27  2  0  0  0  0
 28 33  1  0  0  0  0
 29 28  1  0  0  0  0
 30 31  1  0  0  0  0
 30 29  2  0  0  0  0
 31 26  2  0  0  0  0
 34 29  1  0  0  0  0
 35 38  1  0  0  0  0
 35 36  2  0  0  0  0
 37 42  2  0  0  0  0
 37 38  1  0  0  0  0
 38 39  2  0  0  0  0
 39 44  1  0  0  0  0
 40 39  1  0  0  0  0
 41 40  2  0  0  0  0
 42 41  1  0  0  0  0
 43 37  1  0  0  0  0
 45 41  1  0  0  0  0
M  END
>  <minimizedAffinity>
-5.8519783

$$$$

 OpenBabel03262522173D

 45 48  0  0  1  0  0  0  0  0999 V2000
   42.8750   25.7730   34.3800 C   0  0  0  0  0  0  0  0  0  0  0  0
   42.3710   26.0880   35.3330 H   0  0  0  0  0  0  0  0  0  0  0  0
   43.8520   26.2630   34.3040 H   0  0  0  0  0  0  0  0  0  0  0  0
   41.8400   22.5170   35.3150 C   0  0  1  0  0  0  0  0  0  0  0  0
   41.8570   23.5060   34.1750 C   0  0  0  0  0  0  0  0  0  0  0  0
   43.1130   24.2850   34.4610 C   0  0  2  0  0  0  0  0  0  0  0  0
   43.5790   23.8990   35.6910 O   0  0  0  0  0  0  0  0  0  0  0  0
   42.5300   23.3350   36.3980 C   0  0  0  0  0  0  0  0  0  0  0  0
   42.4390   21.6060   35.1170 H   0  0  0  0  0  0  0  0  0  0  0  0
   40.9420   24.1270   34.1900 H   0  0  0  0  0  0  0  0  0  0  0  0
   42.0070   22.9270   33.2500 H   0  0  0  0  0  0  0  0  0  0  0  0
   43.9040   24.0600   33.6940 H   0  0  0  0  0  0  0  0  0  0  0  0
   41.8080   24.0940   36.7580 H   0  0  0  0  0  0  0  0  0  0  0  0
   42.8850   22.7230   37.2300 H   0  0  0  0  0  0  0  0  0  0  0  0
   40.5580   22.1670   35.6820 O   0  0  0  0  0  0  0  0  0  0  0  0
   38.3530   23.4240   34.2200 Cl  0  0  0  0  0  0  0  0  0  0  0  0
   38.5920   23.4200   35.9730 C   0  0  0  0  0  0  0  0  0  0  0  0
   39.6880   22.7820   36.5260 C   0  0  0  0  0  0  0  0  0  0  0  0
   39.7710   22.8430   37.8980 C   0  0  0  0  0  0  0  0  0  0  0  0
   40.6200   22.3510   38.3580 H   0  0  0  0  0  0  0  0  0  0  0  0
   38.8760   23.4720   38.7260 C   0  0  0  0  0  0  0  0  0  0  0  0
   39.0100   23.4780   39.8140 H   0  0  0  0  0  0  0  0  0  0  0  0
   37.7880   24.1040   38.1540 C   0  0  0  0  0  3  0  0  0  0  0  0
   37.6580   24.0710   36.7750 C   0  0  0  0  0  3  0  0  0  0  0  0
   41.7800   26.0740   32.9650 S   0  0  0  0  0  0  0  0  0  0  0  0
   37.9250   26.9410   33.3390 C   0  0  0  0  0  0  0  0  0  0  0  0
   37.7740   27.2660   34.6970 C   0  0  0  0  0  0  0  0  0  0  0  0
   38.8550   27.2310   35.5530 C   0  0  0  0  0  0  0  0  0  0  0  0
   40.0580   26.8660   35.0020 C   0  0  0  0  0  0  0  0  0  0  0  0
   40.1770   26.5560   33.6840 C   0  0  0  0  0  0  0  0  0  0  0  0
   39.1170   26.5880   32.8310 N   0  0  0  0  0  0  0  0  0  0  0  0
   36.8060   27.5500   35.0970 H   0  0  0  0  0  0  0  0  0  0  0  0
   38.7800   27.4730   36.6000 H   0  0  0  0  0  0  0  0  0  0  0  0
   40.9300   26.8260   35.6370 H   0  0  0  0  0  0  0  0  0  0  0  0
   36.7470   27.0010   32.5110 C   0  0  0  0  0  0  0  0  0  0  0  0
   36.1750   25.9680   32.1450 O   0  0  0  0  0  0  0  0  0  0  0  0
   36.7500   28.9240   30.9660 C   0  0  0  0  0  0  0  0  0  0  0  0
   36.1680   28.2780   32.0590 C   0  0  0  0  0  0  0  0  0  0  0  0
   35.0560   28.8610   32.6910 C   0  0  0  0  0  0  0  0  0  0  0  0
   34.5830   30.0530   32.2040 N   0  0  0  0  0  0  0  0  0  0  0  0
   35.1620   30.6510   31.1520 C   0  0  0  0  0  0  0  0  0  0  0  0
   36.2250   30.1000   30.5420 N   0  0  0  0  0  0  0  0  0  0  0  0
   37.6050   28.4930   30.4670 H   0  0  0  0  0  0  0  0  0  0  0  0
   34.6150   28.3510   33.5350 H   0  0  0  0  0  0  0  0  0  0  0  0
   34.8120   31.5920   30.7440 H   0  0  0  0  0  0  0  0  0  0  0  0
  1  6  1  0  0  0  0
  1  2  1  0  0  0  0
  3  1  1  0  0  0  0
  4  9  1  6  0  0  0
  4 15  1  0  0  0  0
  4  8  1  0  0  0  0
  5 10  1  0  0  0  0
  5  6  1  0  0  0  0
  5  4  1  0  0  0  0
  6 12  1  6  0  0  0
  6  7  1  0  0  0  0
  7  8  1  0  0  0  0
  8 13  1  0  0  0  0
  8 14  1  0  0  0  0
 11  5  1  0  0  0  0
 15 18  1  0  0  0  0
 16 17  1  0  0  0  0
 17 18  2  0  0  0  0
 17 24  1  0  0  0  0
 18 19  1  0  0  0  0
 19 20  1  0  0  0  0
 19 21  2  0  0  0  0
 21 22  1  0  0  0  0
 23 21  1  0  0  0  0
 24 23  2  0  0  0  0
 25 30  1  0  0  0  0
 25  1  1  0  0  0  0
 26 27  1  0  0  0  0
 27 32  1  0  0  0  0
 27 28  2  0  0  0  0
 28 33  1  0  0  0  0
 29 28  1  0  0  0  0
 29 34  1  0  0  0  0
 30 29  2  0  0  0  0
 31 26  2  0  0  0  0
 31 30  1  0  0  0  0
 35 26  1  0  0  0  0
 36 35  2  0  0  0  0
 37 38  1  0  0  0  0
 38 35  1  0  0  0  0
 38 39  2  0  0  0  0
 39 44  1  0  0  0  0
 40 39  1  0  0  0  0
 41 40  2  0  0  0  0
 42 37  2  0  0  0  0
 42 41  1  0  0  0  0
 43 37  1  0  0  0  0
 45 41  1  0  0  0  0
M  END
>  <minimizedAffinity>
-5.83290529

$$$$

 OpenBabel03262522173D

 45 48  0  0  1  0  0  0  0  0999 V2000
   37.7730   25.3590   36.3970 C   0  0  0  0  0  0  0  0  0  0  0  0
   36.9040   25.0510   35.7550 H   0  0  0  0  0  0  0  0  0  0  0  0
   37.4710   25.3500   37.4490 H   0  0  0  0  0  0  0  0  0  0  0  0
   39.0320   22.4190   34.8750 C   0  0  1  0  0  0  0  0  0  0  0  0
   39.0140   23.9250   34.7780 C   0  0  0  0  0  0  0  0  0  0  0  0
   38.8580   24.3250   36.2210 C   0  0  2  0  0  0  0  0  0  0  0  0
   38.6180   23.1900   36.9500 O   0  0  0  0  0  0  0  0  0  0  0  0
   38.1430   22.2120   36.0920 C   0  0  0  0  0  0  0  0  0  0  0  0
   40.0370   22.0030   35.0890 H   0  0  0  0  0  0  0  0  0  0  0  0
   38.1790   24.2600   34.1360 H   0  0  0  0  0  0  0  0  0  0  0  0
   40.0130   24.2370   34.4340 H   0  0  0  0  0  0  0  0  0  0  0  0
   39.8000   24.8030   36.6050 H   0  0  0  0  0  0  0  0  0  0  0  0
   37.0960   22.3970   35.7800 H   0  0  0  0  0  0  0  0  0  0  0  0
   38.2400   21.2120   36.5240 H   0  0  0  0  0  0  0  0  0  0  0  0
   38.5040   21.8190   33.7510 O   0  0  0  0  0  0  0  0  0  0  0  0
   35.8600   20.5880   34.0190 Cl  0  0  0  0  0  0  0  0  0  0  0  0
   36.3420   21.8080   32.8320 C   0  0  0  0  0  0  0  0  0  0  0  0
   37.6350   22.3020   32.8250 C   0  0  0  0  0  0  0  0  0  0  0  0
   37.8960   23.2470   31.8590 C   0  0  0  0  0  0  0  0  0  0  0  0
   38.9020   23.6500   31.8310 H   0  0  0  0  0  0  0  0  0  0  0  0
   36.9970   23.7150   30.9350 C   0  0  0  0  0  0  0  0  0  0  0  0
   37.2800   24.4710   30.1930 H   0  0  0  0  0  0  0  0  0  0  0  0
   35.7110   23.2090   30.9580 C   0  0  0  0  0  3  0  0  0  0  0  0
   35.3960   22.2550   31.9130 C   0  0  0  0  0  3  0  0  0  0  0  0
   38.4370   26.9490   35.8280 S   0  0  0  0  0  0  0  0  0  0  0  0
   35.8700   29.0680   33.6660 C   0  0  0  0  0  0  0  0  0  0  0  0
   35.6970   28.3120   32.4950 C   0  0  0  0  0  0  0  0  0  0  0  0
   36.3660   27.1170   32.3240 C   0  0  0  0  0  0  0  0  0  0  0  0
   37.1910   26.7280   33.3500 C   0  0  0  0  0  0  0  0  0  0  0  0
   37.3390   27.4780   34.4730 C   0  0  0  0  0  0  0  0  0  0  0  0
   36.6840   28.6580   34.6510 N   0  0  0  0  0  0  0  0  0  0  0  0
   35.0360   28.6530   31.7050 H   0  0  0  0  0  0  0  0  0  0  0  0
   36.2600   26.5100   31.4410 H   0  0  0  0  0  0  0  0  0  0  0  0
   37.7330   25.7990   33.2570 H   0  0  0  0  0  0  0  0  0  0  0  0
   35.1360   30.3040   33.7680 C   0  0  0  0  0  0  0  0  0  0  0  0
   35.0490   31.0730   32.8040 O   0  0  0  0  0  0  0  0  0  0  0  0
   35.1310   31.5710   35.8850 C   0  0  0  0  0  0  0  0  0  0  0  0
   34.4580   30.7150   35.0100 C   0  0  0  0  0  0  0  0  0  0  0  0
   33.1630   30.2770   35.3360 C   0  0  0  0  0  0  0  0  0  0  0  0
   32.6080   30.7090   36.5140 N   0  0  0  0  0  0  0  0  0  0  0  0
   33.2790   31.5310   37.3360 C   0  0  0  0  0  0  0  0  0  0  0  0
   34.5160   31.9550   37.0300 N   0  0  0  0  0  0  0  0  0  0  0  0
   36.1260   31.9190   35.6520 H   0  0  0  0  0  0  0  0  0  0  0  0
   32.6520   29.6150   34.6510 H   0  0  0  0  0  0  0  0  0  0  0  0
   32.8680   31.8900   38.2720 H   0  0  0  0  0  0  0  0  0  0  0  0
  1  3  1  0  0  0  0
  2  1  1  0  0  0  0
  4  9  1  1  0  0  0
  4  8  1  0  0  0  0
  5  4  1  0  0  0  0
  5  6  1  0  0  0  0
  6  1  1  0  0  0  0
  6 12  1  1  0  0  0
  6  7  1  0  0  0  0
  8 14  1  0  0  0  0
  8  7  1  0  0  0  0
 10  5  1  0  0  0  0
 11  5  1  0  0  0  0
 13  8  1  0  0  0  0
 15  4  1  0  0  0  0
 17 16  1  0  0  0  0
 18 17  1  0  0  0  0
 18 15  1  0  0  0  0
 19 18  2  0  0  0  0
 20 19  1  0  0  0  0
 21 23  2  0  0  0  0
 21 19  1  0  0  0  0
 22 21  1  0  0  0  0
 23 24  1  0  0  0  0
 24 17  2  0  0  0  0
 25  1  1  0  0  0  0
 26 35  1  0  0  0  0
 26 31  1  0  0  0  0
 27 26  2  0  0  0  0
 28 27  1  0  0  0  0
 28 29  2  0  0  0  0
 29 30  1  0  0  0  0
 30 31  2  0  0  0  0
 30 25  1  0  0  0  0
 32 27  1  0  0  0  0
 33 28  1  0  0  0  0
 34 29  1  0  0  0  0
 35 38  1  0  0  0  0
 36 35  2  0  0  0  0
 37 42  1  0  0  0  0
 38 39  1  0  0  0  0
 38 37  2  0  0  0  0
 39 40  2  0  0  0  0
 40 41  1  0  0  0  0
 41 45  1  0  0  0  0
 42 41  2  0  0  0  0
 43 37  1  0  0  0  0
 44 39  1  0  0  0  0
M  END
>  <minimizedAffinity>
-5.79733467

$$$$

 OpenBabel03262522173D

 45 48  0  0  1  0  0  0  0  0999 V2000
   36.7380   26.9330   31.4290 C   0  0  0  0  0  0  0  0  0  0  0  0
   36.4440   26.2490   32.2710 H   0  0  0  0  0  0  0  0  0  0  0  0
   35.9240   26.9830   30.6990 H   0  0  0  0  0  0  0  0  0  0  0  0
   35.5530   29.6840   33.3190 C   0  0  1  0  0  0  0  0  0  0  0  0
   36.3630   28.4130   33.4000 C   0  0  0  0  0  0  0  0  0  0  0  0
   36.9230   28.3140   32.0070 C   0  0  2  0  0  0  0  0  0  0  0  0
   36.3250   29.2820   31.2420 O   0  0  0  0  0  0  0  0  0  0  0  0
   35.1400   29.6530   31.8550 C   0  0  0  0  0  0  0  0  0  0  0  0
   36.1490   30.5990   33.5050 H   0  0  0  0  0  0  0  0  0  0  0  0
   35.7150   27.5600   33.6750 H   0  0  0  0  0  0  0  0  0  0  0  0
   37.1920   28.6040   34.0990 H   0  0  0  0  0  0  0  0  0  0  0  0
   38.0320   28.4970   32.0100 H   0  0  0  0  0  0  0  0  0  0  0  0
   34.3500   28.8840   31.7440 H   0  0  0  0  0  0  0  0  0  0  0  0
   34.7830   30.6210   31.4940 H   0  0  0  0  0  0  0  0  0  0  0  0
   34.4580   29.6580   34.1570 O   0  0  0  0  0  0  0  0  0  0  0  0
   31.7290   29.1520   35.0940 Cl  0  0  0  0  0  0  0  0  0  0  0  0
   32.8740   30.3270   35.7580 C   0  0  0  0  0  0  0  0  0  0  0  0
   34.1380   30.4570   35.2080 C   0  0  0  0  0  0  0  0  0  0  0  0
   34.9420   31.4010   35.8050 C   0  0  0  0  0  0  0  0  0  0  0  0
   35.9380   31.5230   35.3940 H   0  0  0  0  0  0  0  0  0  0  0  0
   34.5900   32.1950   36.8660 C   0  0  0  0  0  0  0  0  0  0  0  0
   35.2880   32.9270   37.2890 H   0  0  0  0  0  0  0  0  0  0  0  0
   33.3240   32.0500   37.4010 C   0  0  0  0  0  3  0  0  0  0  0  0
   32.4740   31.1120   36.8360 C   0  0  0  0  0  3  0  0  0  0  0  0
   38.3320   26.4150   30.7320 S   0  0  0  0  0  0  0  0  0  0  0  0
   40.1530   24.9110   33.9230 C   0  0  0  0  0  0  0  0  0  0  0  0
   41.0830   25.8980   34.2870 C   0  0  0  0  0  0  0  0  0  0  0  0
   41.1880   27.0680   33.5620 C   0  0  0  0  0  0  0  0  0  0  0  0
   40.3420   27.1990   32.4900 C   0  0  0  0  0  0  0  0  0  0  0  0
   39.4500   26.2280   32.1590 C   0  0  0  0  0  0  0  0  0  0  0  0
   39.3390   25.0710   32.8670 N   0  0  0  0  0  0  0  0  0  0  0  0
   41.7360   25.7590   35.1420 H   0  0  0  0  0  0  0  0  0  0  0  0
   41.8880   27.8470   33.8100 H   0  0  0  0  0  0  0  0  0  0  0  0
   40.3900   28.0990   31.8960 H   0  0  0  0  0  0  0  0  0  0  0  0
   40.1050   23.7170   34.7290 C   0  0  0  0  0  0  0  0  0  0  0  0
   40.5970   22.6580   34.3240 O   0  0  0  0  0  0  0  0  0  0  0  0
   40.0900   22.9470   37.0730 C   0  0  0  0  0  0  0  0  0  0  0  0
   39.4790   23.6940   36.0620 C   0  0  0  0  0  0  0  0  0  0  0  0
   38.2950   24.3960   36.3460 C   0  0  0  0  0  0  0  0  0  0  0  0
   37.7810   24.3180   37.6150 N   0  0  0  0  0  0  0  0  0  0  0  0
   38.3890   23.5920   38.5660 C   0  0  0  0  0  0  0  0  0  0  0  0
   39.5220   22.9190   38.3030 N   0  0  0  0  0  0  0  0  0  0  0  0
   41.0000   22.4010   36.8740 H   0  0  0  0  0  0  0  0  0  0  0  0
   37.8320   24.9700   35.5550 H   0  0  0  0  0  0  0  0  0  0  0  0
   38.0090   23.5110   39.5780 H   0  0  0  0  0  0  0  0  0  0  0  0
  1  6  1  0  0  0  0
  1  2  1  0  0  0  0
  3  1  1  0  0  0  0
  4  5  1  0  0  0  0
  4  9  1  1  0  0  0
  4 15  1  0  0  0  0
  5 10  1  0  0  0  0
  5 11  1  0  0  0  0
  6 12  1  1  0  0  0
  6  5  1  0  0  0  0
  7  8  1  0  0  0  0
  7  6  1  0  0  0  0
  8  4  1  0  0  0  0
 13  8  1  0  0  0  0
 14  8  1  0  0  0  0
 15 18  1  0  0  0  0
 16 17  1  0  0  0  0
 17 24  1  0  0  0  0
 18 17  2  0  0  0  0
 18 19  1  0  0  0  0
 19 21  2  0  0  0  0
 20 19  1  0  0  0  0
 21 22  1  0  0  0  0
 21 23  1  0  0  0  0
 24 23  2  0  0  0  0
 25  1  1  0  0  0  0
 25 30  1  0  0  0  0
 26 27  1  0  0  0  0
 26 35  1  0  0  0  0
 27 32  1  0  0  0  0
 28 33  1  0  0  0  0
 28 27  2  0  0  0  0
 29 28  1  0  0  0  0
 30 29  2  0  0  0  0
 30 31  1  0  0  0  0
 31 26  2  0  0  0  0
 34 29  1  0  0  0  0
 35 38  1  0  0  0  0
 36 35  2  0  0  0  0
 37 42  1  0  0  0  0
 38 39  1  0  0  0  0
 38 37  2  0  0  0  0
 39 40  2  0  0  0  0
 40 41  1  0  0  0  0
 41 45  1  0  0  0  0
 42 41  2  0  0  0  0
 43 37  1  0  0  0  0
 44 39  1  0  0  0  0
M  END
>  <minimizedAffinity>
-5.78669167

$$$$

 OpenBabel03262522173D

 45 48  0  0  1  0  0  0  0  0999 V2000
   37.8600   25.4760   36.0770 C   0  0  0  0  0  0  0  0  0  0  0  0
   37.0780   25.2560   35.3010 H   0  0  0  0  0  0  0  0  0  0  0  0
   37.4430   25.3040   37.0750 H   0  0  0  0  0  0  0  0  0  0  0  0
   39.0810   22.3360   34.9840 C   0  0  1  0  0  0  0  0  0  0  0  0
   38.8690   23.7700   34.5640 C   0  0  0  0  0  0  0  0  0  0  0  0
   38.9910   24.4980   35.8760 C   0  0  2  0  0  0  0  0  0  0  0  0
   39.0500   23.5600   36.8740 O   0  0  0  0  0  0  0  0  0  0  0  0
   38.5130   22.3770   36.3950 C   0  0  0  0  0  0  0  0  0  0  0  0
   40.1490   22.0450   35.0340 H   0  0  0  0  0  0  0  0  0  0  0  0
   37.8790   23.8900   34.0850 H   0  0  0  0  0  0  0  0  0  0  0  0
   39.7240   24.0490   33.9280 H   0  0  0  0  0  0  0  0  0  0  0  0
   39.9330   25.1090   35.9060 H   0  0  0  0  0  0  0  0  0  0  0  0
   37.4080   22.4180   36.3120 H   0  0  0  0  0  0  0  0  0  0  0  0
   38.8170   21.5190   36.9990 H   0  0  0  0  0  0  0  0  0  0  0  0
   38.3900   21.4520   34.1820 O   0  0  0  0  0  0  0  0  0  0  0  0
   35.6720   20.6720   34.9470 Cl  0  0  0  0  0  0  0  0  0  0  0  0
   36.1760   21.3640   33.3990 C   0  0  0  0  0  0  0  0  0  0  0  0
   37.5040   21.6850   33.1780 C   0  0  0  0  0  0  0  0  0  0  0  0
   37.7810   22.2170   31.9390 C   0  0  0  0  0  0  0  0  0  0  0  0
   38.8140   22.4770   31.7390 H   0  0  0  0  0  0  0  0  0  0  0  0
   36.8640   22.4400   30.9430 C   0  0  0  0  0  0  0  0  0  0  0  0
   37.1610   22.8690   29.9780 H   0  0  0  0  0  0  0  0  0  0  0  0
   35.5430   22.1130   31.1830 C   0  0  0  0  0  3  0  0  0  0  0  0
   35.2120   21.5740   32.4160 C   0  0  0  0  0  3  0  0  0  0  0  0
   38.5320   27.1440   35.8290 S   0  0  0  0  0  0  0  0  0  0  0  0
   38.3000   27.5010   31.8820 C   0  0  0  0  0  0  0  0  0  0  0  0
   39.6260   27.3540   31.4440 C   0  0  0  0  0  0  0  0  0  0  0  0
   40.6460   27.1380   32.3470 C   0  0  0  0  0  0  0  0  0  0  0  0
   40.2870   27.0790   33.6700 C   0  0  0  0  0  0  0  0  0  0  0  0
   38.9950   27.2250   34.0680 C   0  0  0  0  0  0  0  0  0  0  0  0
   37.9820   27.4380   33.1850 N   0  0  0  0  0  0  0  0  0  0  0  0
   39.8710   27.4070   30.3880 H   0  0  0  0  0  0  0  0  0  0  0  0
   41.6740   27.0200   32.0500 H   0  0  0  0  0  0  0  0  0  0  0  0
   41.0550   26.9120   34.4110 H   0  0  0  0  0  0  0  0  0  0  0  0
   37.2910   27.7240   30.8770 C   0  0  0  0  0  0  0  0  0  0  0  0
   36.3690   26.9170   30.7130 O   0  0  0  0  0  0  0  0  0  0  0  0
   36.8070   30.1140   30.5050 C   0  0  0  0  0  0  0  0  0  0  0  0
   37.3030   28.9090   30.0010 C   0  0  0  0  0  0  0  0  0  0  0  0
   37.7950   28.8630   28.6860 C   0  0  0  0  0  0  0  0  0  0  0  0
   37.7670   30.0150   27.9420 N   0  0  0  0  0  0  0  0  0  0  0  0
   37.2840   31.1580   28.4510 C   0  0  0  0  0  0  0  0  0  0  0  0
   36.8130   31.2100   29.7080 N   0  0  0  0  0  0  0  0  0  0  0  0
   36.4250   30.1690   31.5130 H   0  0  0  0  0  0  0  0  0  0  0  0
   38.1760   27.9250   28.3080 H   0  0  0  0  0  0  0  0  0  0  0  0
   37.2490   32.0850   27.8880 H   0  0  0  0  0  0  0  0  0  0  0  0
  1  3  1  0  0  0  0
  2  1  1  0  0  0  0
  4  9  1  1  0  0  0
  4  8  1  0  0  0  0
  5  4  1  0  0  0  0
  5  6  1  0  0  0  0
  6 12  1  6  0  0  0
  6  1  1  0  0  0  0
  6  7  1  0  0  0  0
  8  7  1  0  0  0  0
  8 14  1  0  0  0  0
 10  5  1  0  0  0  0
 11  5  1  0  0  0  0
 13  8  1  0  0  0  0
 15  4  1  0  0  0  0
 17 16  1  0  0  0  0
 18 17  1  0  0  0  0
 18 15  1  0  0  0  0
 19 18  2  0  0  0  0
 20 19  1  0  0  0  0
 21 23  2  0  0  0  0
 21 19  1  0  0  0  0
 22 21  1  0  0  0  0
 23 24  1  0  0  0  0
 24 17  2  0  0  0  0
 25  1  1  0  0  0  0
 26 31  1  0  0  0  0
 27 26  2  0  0  0  0
 27 28  1  0  0  0  0
 28 29  2  0  0  0  0
 29 30  1  0  0  0  0
 29 34  1  0  0  0  0
 30 25  1  0  0  0  0
 31 30  2  0  0  0  0
 32 27  1  0  0  0  0
 33 28  1  0  0  0  0
 35 26  1  0  0  0  0
 36 35  2  0  0  0  0
 37 43  1  0  0  0  0
 38 37  1  0  0  0  0
 38 35  1  0  0  0  0
 39 38  2  0  0  0  0
 40 41  2  0  0  0  0
 40 39  1  0  0  0  0
 41 42  1  0  0  0  0
 42 37  2  0  0  0  0
 44 39  1  0  0  0  0
 45 41  1  0  0  0  0
M  END
>  <minimizedAffinity>
-5.69015646

$$$$

 OpenBabel03262522173D

 45 48  0  0  1  0  0  0  0  0999 V2000
   42.0300   23.0840   36.7650 C   0  0  0  0  0  0  0  0  0  0  0  0
   41.8500   24.1100   37.1870 H   0  0  0  0  0  0  0  0  0  0  0  0
   42.9100   22.6420   37.2440 H   0  0  0  0  0  0  0  0  0  0  0  0
   38.6360   22.1720   36.3230 C   0  0  1  0  0  0  0  0  0  0  0  0
   40.0460   21.8510   35.8930 C   0  0  0  0  0  0  0  0  0  0  0  0
   40.8370   22.2300   37.1160 C   0  0  2  0  0  0  0  0  0  0  0  0
   39.9870   22.8580   37.9890 O   0  0  0  0  0  0  0  0  0  0  0  0
   38.8980   23.3290   37.2760 C   0  0  0  0  0  0  0  0  0  0  0  0
   38.1470   21.3500   36.8810 H   0  0  0  0  0  0  0  0  0  0  0  0
   40.3190   22.4360   34.9940 H   0  0  0  0  0  0  0  0  0  0  0  0
   40.1020   20.7580   35.7640 H   0  0  0  0  0  0  0  0  0  0  0  0
   41.2540   21.3160   37.6200 H   0  0  0  0  0  0  0  0  0  0  0  0
   39.1470   24.2200   36.6650 H   0  0  0  0  0  0  0  0  0  0  0  0
   38.0470   23.5420   37.9290 H   0  0  0  0  0  0  0  0  0  0  0  0
   37.8430   22.5570   35.2620 O   0  0  0  0  0  0  0  0  0  0  0  0
   35.5580   20.9720   36.1800 Cl  0  0  0  0  0  0  0  0  0  0  0  0
   36.2200   21.0200   34.5400 C   0  0  0  0  0  0  0  0  0  0  0  0
   37.3110   21.8210   34.2520 C   0  0  0  0  0  0  0  0  0  0  0  0
   37.7400   21.7780   32.9440 C   0  0  0  0  0  0  0  0  0  0  0  0
   38.5940   22.3970   32.6910 H   0  0  0  0  0  0  0  0  0  0  0  0
   37.1820   21.0230   31.9440 C   0  0  0  0  0  0  0  0  0  0  0  0
   37.5810   21.0420   30.9230 H   0  0  0  0  0  0  0  0  0  0  0  0
   36.0930   20.2300   32.2530 C   0  0  0  0  0  3  0  0  0  0  0  0
   35.6220   20.2370   33.5560 C   0  0  0  0  0  3  0  0  0  0  0  0
   42.1300   23.1630   34.9550 S   0  0  0  0  0  0  0  0  0  0  0  0
   40.0440   26.4890   34.3740 C   0  0  0  0  0  0  0  0  0  0  0  0
   40.9870   27.4070   33.8820 C   0  0  0  0  0  0  0  0  0  0  0  0
   42.3050   27.0370   33.7100 C   0  0  0  0  0  0  0  0  0  0  0  0
   42.6240   25.7450   34.0430 C   0  0  0  0  0  0  0  0  0  0  0  0
   41.6920   24.8770   34.5170 C   0  0  0  0  0  0  0  0  0  0  0  0
   40.3900   25.2310   34.6900 N   0  0  0  0  0  0  0  0  0  0  0  0
   40.6960   28.4210   33.6290 H   0  0  0  0  0  0  0  0  0  0  0  0
   43.0560   27.7120   33.3360 H   0  0  0  0  0  0  0  0  0  0  0  0
   43.6450   25.4140   33.9230 H   0  0  0  0  0  0  0  0  0  0  0  0
   38.6880   26.9530   34.5260 C   0  0  0  0  0  0  0  0  0  0  0  0
   38.3200   27.5100   35.5670 O   0  0  0  0  0  0  0  0  0  0  0  0
   37.3460   25.4980   33.0540 C   0  0  0  0  0  0  0  0  0  0  0  0
   37.6780   26.7910   33.4650 C   0  0  0  0  0  0  0  0  0  0  0  0
   37.0440   27.8900   32.8610 C   0  0  0  0  0  0  0  0  0  0  0  0
   36.1170   27.6460   31.8810 N   0  0  0  0  0  0  0  0  0  0  0  0
   35.8170   26.3930   31.5050 C   0  0  0  0  0  0  0  0  0  0  0  0
   36.4180   25.3370   32.0790 N   0  0  0  0  0  0  0  0  0  0  0  0
   37.8210   24.6410   33.5060 H   0  0  0  0  0  0  0  0  0  0  0  0
   37.3100   28.8850   33.1880 H   0  0  0  0  0  0  0  0  0  0  0  0
   35.0890   26.1680   30.7340 H   0  0  0  0  0  0  0  0  0  0  0  0
  1  6  1  0  0  0  0
  1  2  1  0  0  0  0
  1  3  1  0  0  0  0
  4  9  1  1  0  0  0
  4  8  1  0  0  0  0
  5  4  1  0  0  0  0
  5  6  1  0  0  0  0
  6 12  1  1  0  0  0
  6  7  1  0  0  0  0
  8 14  1  0  0  0  0
  8  7  1  0  0  0  0
 10  5  1  0  0  0  0
 11  5  1  0  0  0  0
 13  8  1  0  0  0  0
 15  4  1  0  0  0  0
 17 16  1  0  0  0  0
 18 17  1  0  0  0  0
 18 15  1  0  0  0  0
 19 18  2  0  0  0  0
 20 19  1  0  0  0  0
 21 23  2  0  0  0  0
 21 19  1  0  0  0  0
 22 21  1  0  0  0  0
 23 24  1  0  0  0  0
 24 17  2  0  0  0  0
 25  1  1  0  0  0  0
 26 35  1  0  0  0  0
 26 31  1  0  0  0  0
 27 26  2  0  0  0  0
 28 27  1  0  0  0  0
 28 29  2  0  0  0  0
 29 30  1  0  0  0  0
 30 31  2  0  0  0  0
 30 25  1  0  0  0  0
 32 27  1  0  0  0  0
 33 28  1  0  0  0  0
 34 29  1  0  0  0  0
 35 36  2  0  0  0  0
 37 38  1  0  0  0  0
 37 43  1  0  0  0  0
 38 35  1  0  0  0  0
 39 44  1  0  0  0  0
 39 38  2  0  0  0  0
 40 39  1  0  0  0  0
 41 40  2  0  0  0  0
 41 42  1  0  0  0  0
 42 37  2  0  0  0  0
 45 41  1  0  0  0  0
M  END
>  <minimizedAffinity>
-5.68667936

$$$$
