
 OpenBabel03272506383D

 37 39  0  0  1  0  0  0  0  0999 V2000
   34.5010   28.9490   50.0720 O   0  0  0  0  0  0  0  0  0  0  0  0
   34.3460   29.1970   48.8700 C   0  0  0  0  0  0  0  0  0  0  0  0
   35.1420   30.1980   48.1950 C   0  0  2  0  0  0  0  0  0  0  0  0
   34.6910   30.0050   46.7130 C   0  0  0  0  0  0  0  0  0  0  0  0
   33.3110   29.4120   46.8620 C   0  0  0  0  0  0  0  0  0  0  0  0
   33.3960   28.5420   48.0400 N   0  0  0  0  0  0  0  0  0  0  0  0
   34.8690   31.2160   48.5030 H   0  0  0  0  0  0  0  0  0  0  0  0
   34.6040   31.0320   46.3110 H   0  0  0  0  0  0  0  0  0  0  0  0
   35.3890   29.3630   46.1860 H   0  0  0  0  0  0  0  0  0  0  0  0
   32.5080   30.1420   46.9420 H   0  0  0  0  0  0  0  0  0  0  0  0
   33.1330   28.7640   45.9840 H   0  0  0  0  0  0  0  0  0  0  0  0
   32.6430   27.3230   48.2000 C   0  0  0  0  0  0  0  0  0  0  0  0
   33.0560   26.7710   49.0420 H   0  0  0  0  0  0  0  0  0  0  0  0
   32.8550   26.7210   47.2790 H   0  0  0  0  0  0  0  0  0  0  0  0
   30.6610   27.1960   45.7350 Cl  0  0  0  0  0  0  0  0  0  0  0  0
   30.1840   27.5590   47.3630 C   0  0  0  0  0  0  0  0  0  0  0  0
   31.1920   27.5500   48.2930 C   0  0  0  0  0  0  0  0  0  0  0  0
   30.7690   27.8290   49.5890 C   0  0  0  0  0  0  0  0  0  0  0  0
   31.4440   27.8640   50.4580 H   0  0  0  0  0  0  0  0  0  0  0  0
   29.4670   28.0970   49.9500 C   0  0  0  0  0  0  0  0  0  0  0  0
   29.1480   28.3120   50.9610 H   0  0  0  0  0  0  0  0  0  0  0  0
   28.4750   28.1010   49.0040 C   0  0  0  0  0  0  0  0  0  0  0  0
   28.8760   27.8260   47.7150 C   0  0  0  0  0  0  0  0  0  0  0  0
   36.5460   29.9510   48.2080 O   0  0  0  0  0  0  0  0  0  0  0  0
   37.3940   31.0550   48.2800 C   0  0  0  0  0  0  0  0  0  0  0  0
   37.5680   31.6310   49.5250 C   0  0  0  0  0  0  0  0  0  0  0  0
   38.4090   32.7310   49.6210 C   0  0  0  0  0  0  0  0  0  0  0  0
   39.0190   33.1940   48.5000 N   0  0  0  0  0  0  0  0  0  0  0  0
   38.8390   32.6220   47.2950 C   0  0  0  0  0  0  0  0  0  0  0  0
   38.0330   31.5670   47.2060 N   0  0  0  0  0  0  0  0  0  0  0  0
   40.3420   32.1690   45.5190 C   0  0  0  0  0  0  0  0  0  0  0  0
   40.5640   30.9720   45.8780 O   0  0  0  0  0  0  0  0  0  0  0  0
   39.4900   33.1320   46.1370 N   0  0  0  0  0  0  0  0  0  0  0  0
   37.0920   31.2800   50.4330 H   0  0  0  0  0  0  0  0  0  0  0  0
   38.5470   33.1880   50.6020 H   0  0  0  0  0  0  0  0  0  0  0  0
   40.8930   32.4580   44.6160 H   0  0  0  0  0  0  0  0  0  0  0  0
   39.3580   34.1020   45.7820 H   0  0  0  0  0  0  0  0  0  0  0  0
  2  1  2  0  0  0  0
  3 24  1  0  0  0  0
  3  7  1  1  0  0  0
  3  2  1  0  0  0  0
  4  5  1  0  0  0  0
  4  3  1  0  0  0  0
  5 10  1  0  0  0  0
  5  6  1  0  0  0  0
  6 12  1  0  0  0  0
  6  2  1  0  0  0  0
  8  4  1  0  0  0  0
  9  4  1  0  0  0  0
 11  5  1  0  0  0  0
 12 17  1  0  0  0  0
 12 13  1  0  0  0  0
 14 12  1  0  0  0  0
 15 16  1  0  0  0  0
 16 23  2  0  0  0  0
 16 17  1  0  0  0  0
 17 18  2  0  0  0  0
 18 20  1  0  0  0  0
 18 19  1  0  0  0  0
 20 21  1  0  0  0  0
 22 20  2  0  0  0  0
 23 22  1  0  0  0  0
 24 25  1  0  0  0  0
 25 26  1  0  0  0  0
 26 27  2  0  0  0  0
 26 34  1  0  0  0  0
 27 35  1  0  0  0  0
 28 27  1  0  0  0  0
 29 28  2  0  0  0  0
 30 29  1  0  0  0  0
 30 25  2  0  0  0  0
 31 32  2  0  0  0  0
 31 33  1  0  0  0  0
 33 29  1  0  0  0  0
 36 31  1  0  0  0  0
 37 33  1  0  0  0  0
M  END
>  <minimizedAffinity>
-6.2950573

>  <minimizedRMSD>
3.6037221

$$$$
