
 OpenBabel03272501433D

 34 37  0  0  0  0  0  0  0  0999 V2000
   35.0300   29.2990   49.4140 C   0  0  0  0  0  0  0  0  0  0  0  0
   35.4310   30.0070   48.2420 C   0  0  0  0  0  0  0  0  0  0  0  0
   34.8290   29.6740   47.0380 C   0  0  0  0  0  0  0  0  0  0  0  0
   33.8910   28.6950   47.0350 N   0  0  0  0  0  0  0  0  0  0  0  0
   33.5210   28.0290   48.1650 C   0  0  0  0  0  0  0  0  0  0  0  0
   34.0970   28.3420   49.3460 N   0  0  0  0  0  0  0  0  0  0  0  0
   35.3680   29.3930   50.4360 H   0  0  0  0  0  0  0  0  0  0  0  0
   35.1610   30.2280   46.1940 H   0  0  0  0  0  0  0  0  0  0  0  0
   36.5100   31.5840   49.7550 C   0  0  0  0  0  0  0  0  0  0  0  0
   36.4410   31.0140   48.4850 C   0  0  0  0  0  0  0  0  0  0  0  0
   37.3540   31.4550   47.5370 C   0  0  0  0  0  0  0  0  0  0  0  0
   38.2860   32.4390   47.9030 C   0  0  0  0  0  0  0  0  0  0  0  0
   39.2660   33.0510   47.2230 N   0  0  0  0  0  0  0  0  0  0  0  0
   39.8890   33.9300   48.0200 C   0  0  0  0  0  0  0  0  0  0  0  0
   39.3030   33.8870   49.2320 N   0  0  0  0  0  0  0  0  0  0  0  0
   38.3190   32.9750   49.1680 C   0  0  0  0  0  0  0  0  0  0  0  0
   37.4210   32.5420   50.1030 C   0  0  0  0  0  0  0  0  0  0  0  0
   35.8470   31.3360   50.6030 H   0  0  0  0  0  0  0  0  0  0  0  0
   37.3180   31.0320   46.5590 H   0  0  0  0  0  0  0  0  0  0  0  0
   39.5240   32.8810   46.2150 H   0  0  0  0  0  0  0  0  0  0  0  0
   40.7140   34.5900   47.8120 H   0  0  0  0  0  0  0  0  0  0  0  0
   37.4870   32.9940   51.0900 H   0  0  0  0  0  0  0  0  0  0  0  0
   32.4730   26.9670   48.0480 C   0  0  0  0  0  0  0  0  0  0  0  0
   32.6890   26.2330   48.8290 H   0  0  0  0  0  0  0  0  0  0  0  0
   32.5500   26.5190   47.0380 H   0  0  0  0  0  0  0  0  0  0  0  0
   30.9280   27.8810   45.5630 Cl  0  0  0  0  0  0  0  0  0  0  0  0
   30.3360   27.9960   47.2050 C   0  0  0  0  0  0  0  0  0  0  0  0
   31.1260   27.5510   48.2380 C   0  0  0  0  0  0  0  0  0  0  0  0
   30.6260   27.6580   49.5340 C   0  0  0  0  0  0  0  0  0  0  0  0
   31.2260   27.3170   50.3590 H   0  0  0  0  0  0  0  0  0  0  0  0
   29.3890   28.1800   49.8600 C   0  0  0  0  0  0  0  0  0  0  0  0
   29.0580   28.2360   50.8880 H   0  0  0  0  0  0  0  0  0  0  0  0
   28.6160   28.6220   48.7800 C   0  0  0  0  0  0  0  0  0  0  0  0
   29.0840   28.5300   47.4830 C   0  0  0  0  0  0  0  0  0  0  0  0
  1  7  1  0  0  0  0
  2 10  1  0  0  0  0
  2  1  2  0  0  0  0
  3  2  1  0  0  0  0
  4  3  2  0  0  0  0
  4  5  1  0  0  0  0
  5  6  2  0  0  0  0
  6  1  1  0  0  0  0
  8  3  1  0  0  0  0
  9 17  1  0  0  0  0
  9 18  1  0  0  0  0
 10  9  2  0  0  0  0
 11 12  2  0  0  0  0
 11 10  1  0  0  0  0
 12 16  1  0  0  0  0
 13 12  1  0  0  0  0
 13 14  1  0  0  0  0
 14 15  2  0  0  0  0
 16 15  1  0  0  0  0
 16 17  2  0  0  0  0
 17 22  1  0  0  0  0
 19 11  1  0  0  0  0
 20 13  1  0  0  0  0
 21 14  1  0  0  0  0
 23  5  1  0  0  0  0
 23 28  1  0  0  0  0
 23 24  1  0  0  0  0
 25 23  1  0  0  0  0
 26 27  1  0  0  0  0
 27 34  2  0  0  0  0
 27 28  1  0  0  0  0
 28 29  2  0  0  0  0
 29 31  1  0  0  0  0
 29 30  1  0  0  0  0
 31 32  1  0  0  0  0
 33 31  2  0  0  0  0
 34 33  1  0  0  0  0
M  END
>  <minimizedAffinity>
-6.56996393

>  <minimizedRMSD>
1.86349785

$$$$
