
 OpenBabel03272506383D

 37 39  0  0  1  0  0  0  0  0999 V2000
   34.7500   27.8250   49.4030 O   0  0  0  0  0  0  0  0  0  0  0  0
   34.5490   28.6100   48.4690 C   0  0  0  0  0  0  0  0  0  0  0  0
   35.2790   29.8530   48.3540 C   0  0  2  0  0  0  0  0  0  0  0  0
   34.7930   30.3700   46.9630 C   0  0  0  0  0  0  0  0  0  0  0  0
   33.4470   29.7060   46.8150 C   0  0  0  0  0  0  0  0  0  0  0  0
   33.6050   28.3840   47.4300 N   0  0  0  0  0  0  0  0  0  0  0  0
   34.9690   30.5810   49.1150 H   0  0  0  0  0  0  0  0  0  0  0  0
   34.6490   31.4580   47.1050 H   0  0  0  0  0  0  0  0  0  0  0  0
   35.5040   30.0980   46.1900 H   0  0  0  0  0  0  0  0  0  0  0  0
   32.6150   30.2640   47.2400 H   0  0  0  0  0  0  0  0  0  0  0  0
   33.2720   29.5500   45.7350 H   0  0  0  0  0  0  0  0  0  0  0  0
   32.9120   27.1990   46.9880 C   0  0  0  0  0  0  0  0  0  0  0  0
   31.9590   27.4980   46.5570 H   0  0  0  0  0  0  0  0  0  0  0  0
   32.6830   26.6230   47.9210 H   0  0  0  0  0  0  0  0  0  0  0  0
   33.9220   24.2930   47.7310 Cl  0  0  0  0  0  0  0  0  0  0  0  0
   34.2700   25.1020   46.2350 C   0  0  0  0  0  0  0  0  0  0  0  0
   33.7260   26.3540   46.0990 C   0  0  0  0  0  0  0  0  0  0  0  0
   34.0110   26.9650   44.8810 C   0  0  0  0  0  0  0  0  0  0  0  0
   33.6560   27.9700   44.6030 H   0  0  0  0  0  0  0  0  0  0  0  0
   34.7670   26.4010   43.8770 C   0  0  0  0  0  0  0  0  0  0  0  0
   34.9820   26.8830   42.9340 H   0  0  0  0  0  0  0  0  0  0  0  0
   35.3010   25.1480   44.0350 C   0  0  0  0  0  3  0  0  0  0  0  0
   35.0280   24.5280   45.2350 C   0  0  0  0  0  3  0  0  0  0  0  0
   36.6920   29.7050   48.2410 O   0  0  0  0  0  0  0  0  0  0  0  0
   37.4690   30.8600   48.3120 C   0  0  0  0  0  0  0  0  0  0  0  0
   37.6150   31.4420   49.5580 C   0  0  0  0  0  0  0  0  0  0  0  0
   38.3850   32.5930   49.6530 C   0  0  0  0  0  0  0  0  0  0  0  0
   38.9560   33.0970   48.5290 N   0  0  0  0  0  0  0  0  0  0  0  0
   38.8050   32.5190   47.3230 C   0  0  0  0  0  0  0  0  0  0  0  0
   38.0670   31.4160   47.2360 N   0  0  0  0  0  0  0  0  0  0  0  0
   40.3210   32.1700   45.5350 C   0  0  0  0  0  0  0  0  0  0  0  0
   40.6210   30.9880   45.8890 O   0  0  0  0  0  0  0  0  0  0  0  0
   39.4140   33.0740   46.1640 N   0  0  0  0  0  0  0  0  0  0  0  0
   37.1680   31.0580   50.4680 H   0  0  0  0  0  0  0  0  0  0  0  0
   38.5000   33.0530   50.6350 H   0  0  0  0  0  0  0  0  0  0  0  0
   40.8460   32.4960   44.6300 H   0  0  0  0  0  0  0  0  0  0  0  0
   39.2170   34.0350   45.8130 H   0  0  0  0  0  0  0  0  0  0  0  0
  2  1  2  0  0  0  0
  3  2  1  0  0  0  0
  3  7  1  1  0  0  0
  4  8  1  0  0  0  0
  4  3  1  0  0  0  0
  5  4  1  0  0  0  0
  5 10  1  0  0  0  0
  5  6  1  0  0  0  0
  6  2  1  0  0  0  0
  9  4  1  0  0  0  0
 11  5  1  0  0  0  0
 12  6  1  0  0  0  0
 12 14  1  0  0  0  0
 13 12  1  0  0  0  0
 16 15  1  0  0  0  0
 17 16  1  0  0  0  0
 17 12  1  0  0  0  0
 18 17  2  0  0  0  0
 19 18  1  0  0  0  0
 20 22  2  0  0  0  0
 20 18  1  0  0  0  0
 21 20  1  0  0  0  0
 22 23  1  0  0  0  0
 23 16  2  0  0  0  0
 24 25  1  0  0  0  0
 24  3  1  0  0  0  0
 25 26  1  0  0  0  0
 26 27  2  0  0  0  0
 26 34  1  0  0  0  0
 27 35  1  0  0  0  0
 28 27  1  0  0  0  0
 29 28  2  0  0  0  0
 30 29  1  0  0  0  0
 30 25  2  0  0  0  0
 31 32  2  0  0  0  0
 31 33  1  0  0  0  0
 33 29  1  0  0  0  0
 36 31  1  0  0  0  0
 37 33  1  0  0  0  0
M  END
>  <minimizedAffinity>
-5.59144497

>  <minimizedRMSD>
1.16194057

$$$$
