
 OpenBabel03272509463D

 25 26  0  0  0  0  0  0  0  0999 V2000
   34.8320   29.1040   48.4140 C   0  0  0  0  0  0  0  0  0  0  0  0
   34.6420   30.1680   48.1940 H   0  0  0  0  0  0  0  0  0  0  0  0
   34.9030   28.6170   47.4020 H   0  0  0  0  0  0  0  0  0  0  0  0
   33.6770   28.4340   49.0990 C   0  0  0  0  0  0  0  0  0  0  0  0
   32.8690   29.2040   49.2750 H   0  0  0  0  0  0  0  0  0  0  0  0
   33.9470   28.0370   50.0990 H   0  0  0  0  0  0  0  0  0  0  0  0
   30.6600   27.8410   49.4290 Cl  0  0  0  0  0  0  0  0  0  0  0  0
   31.7290   26.9590   48.3590 C   0  0  0  0  0  0  0  0  0  0  0  0
   33.0520   27.3430   48.3350 C   0  0  0  0  0  0  0  0  0  0  0  0
   33.8320   26.5820   47.4640 C   0  0  0  0  0  0  0  0  0  0  0  0
   34.9000   26.8430   47.4040 H   0  0  0  0  0  0  0  0  0  0  0  0
   33.4070   25.5370   46.6730 C   0  0  0  0  0  0  0  0  0  0  0  0
   34.0950   25.0170   46.0380 H   0  0  0  0  0  0  0  0  0  0  0  0
   32.0510   25.2370   46.7800 C   0  0  0  0  0  3  0  0  0  0  0  0
   31.1930   25.9320   47.6130 C   0  0  0  0  0  3  0  0  0  0  0  0
   36.0390   28.9290   49.1090 O   0  0  0  0  0  0  0  0  0  0  0  0
   38.4670   31.4080   50.1310 C   0  0  0  0  0  0  0  0  0  0  0  0
   38.5710   32.1370   48.9370 C   0  0  0  0  0  0  0  0  0  0  0  0
   37.8100   31.7490   47.8430 C   0  0  0  0  0  0  0  0  0  0  0  0
   36.9970   30.6600   48.0140 N   0  0  0  0  0  0  0  0  0  0  0  0
   36.9190   29.9800   49.1770 C   0  0  0  0  0  0  0  0  0  0  0  0
   37.6650   30.3690   50.2280 N   0  0  0  0  0  0  0  0  0  0  0  0
   39.0830   31.7580   50.9460 H   0  0  0  0  0  0  0  0  0  0  0  0
   39.2210   32.9960   48.8200 H   0  0  0  0  0  0  0  0  0  0  0  0
   37.8430   32.2660   46.8920 H   0  0  0  0  0  0  0  0  0  0  0  0
  1  4  1  0  0  0  0
  1 16  1  0  0  0  0
  2  1  1  0  0  0  0
  3  1  1  0  0  0  0
  4  5  1  0  0  0  0
  4  6  1  0  0  0  0
  8  7  1  0  0  0  0
  9  8  1  0  0  0  0
  9  4  1  0  0  0  0
 10  9  2  0  0  0  0
 11 10  1  0  0  0  0
 12 14  2  0  0  0  0
 12 10  1  0  0  0  0
 13 12  1  0  0  0  0
 14 15  1  0  0  0  0
 15  8  2  0  0  0  0
 16 21  1  0  0  0  0
 17 22  1  0  0  0  0
 17 23  1  0  0  0  0
 18 17  2  0  0  0  0
 19 20  2  0  0  0  0
 19 18  1  0  0  0  0
 20 21  1  0  0  0  0
 21 22  2  0  0  0  0
 24 18  1  0  0  0  0
 25 19  1  0  0  0  0
M  END
>  <minimizedAffinity>
-4.32337999

>  <minimizedRMSD>
2.63306761

$$$$
