
 OpenBabel03272506383D

 37 39  0  0  1  0  0  0  0  0999 V2000
   34.7470   27.8270   49.4060 O   0  0  0  0  0  0  0  0  0  0  0  0
   34.5470   28.6110   48.4700 C   0  0  0  0  0  0  0  0  0  0  0  0
   35.2780   29.8540   48.3550 C   0  0  2  0  0  0  0  0  0  0  0  0
   34.7940   30.3700   46.9630 C   0  0  0  0  0  0  0  0  0  0  0  0
   33.4470   29.7050   46.8140 C   0  0  0  0  0  0  0  0  0  0  0  0
   33.6050   28.3840   47.4310 N   0  0  0  0  0  0  0  0  0  0  0  0
   34.9680   30.5840   49.1140 H   0  0  0  0  0  0  0  0  0  0  0  0
   34.6500   31.4580   47.1030 H   0  0  0  0  0  0  0  0  0  0  0  0
   35.5050   30.0960   46.1910 H   0  0  0  0  0  0  0  0  0  0  0  0
   32.6150   30.2640   47.2380 H   0  0  0  0  0  0  0  0  0  0  0  0
   33.2730   29.5480   45.7340 H   0  0  0  0  0  0  0  0  0  0  0  0
   32.9120   27.1990   46.9890 C   0  0  0  0  0  0  0  0  0  0  0  0
   31.9580   27.4970   46.5590 H   0  0  0  0  0  0  0  0  0  0  0  0
   32.6840   26.6230   47.9230 H   0  0  0  0  0  0  0  0  0  0  0  0
   33.9220   24.2930   47.7310 Cl  0  0  0  0  0  0  0  0  0  0  0  0
   34.2690   25.1020   46.2370 C   0  0  0  0  0  0  0  0  0  0  0  0
   33.7250   26.3550   46.1000 C   0  0  0  0  0  0  0  0  0  0  0  0
   34.0100   26.9660   44.8820 C   0  0  0  0  0  0  0  0  0  0  0  0
   33.6540   27.9700   44.6050 H   0  0  0  0  0  0  0  0  0  0  0  0
   34.7650   26.4010   43.8780 C   0  0  0  0  0  0  0  0  0  0  0  0
   34.9800   26.8850   42.9350 H   0  0  0  0  0  0  0  0  0  0  0  0
   35.3000   25.1490   44.0350 C   0  0  0  0  0  3  0  0  0  0  0  0
   35.0270   24.5290   45.2360 C   0  0  0  0  0  3  0  0  0  0  0  0
   36.6910   29.7060   48.2430 O   0  0  0  0  0  0  0  0  0  0  0  0
   37.4680   30.8600   48.3140 C   0  0  0  0  0  0  0  0  0  0  0  0
   37.6150   31.4420   49.5590 C   0  0  0  0  0  0  0  0  0  0  0  0
   38.3850   32.5930   49.6540 C   0  0  0  0  0  0  0  0  0  0  0  0
   38.9560   33.0970   48.5300 N   0  0  0  0  0  0  0  0  0  0  0  0
   38.8040   32.5190   47.3240 C   0  0  0  0  0  0  0  0  0  0  0  0
   38.0660   31.4160   47.2370 N   0  0  0  0  0  0  0  0  0  0  0  0
   40.3190   32.1690   45.5350 C   0  0  0  0  0  0  0  0  0  0  0  0
   40.6200   30.9870   45.8890 O   0  0  0  0  0  0  0  0  0  0  0  0
   39.4130   33.0730   46.1640 N   0  0  0  0  0  0  0  0  0  0  0  0
   37.1690   31.0590   50.4700 H   0  0  0  0  0  0  0  0  0  0  0  0
   38.5010   33.0540   50.6360 H   0  0  0  0  0  0  0  0  0  0  0  0
   40.8440   32.4950   44.6300 H   0  0  0  0  0  0  0  0  0  0  0  0
   39.2160   34.0340   45.8140 H   0  0  0  0  0  0  0  0  0  0  0  0
  2  1  2  0  0  0  0
  3  2  1  0  0  0  0
  3  7  1  1  0  0  0
  4  8  1  0  0  0  0
  4  3  1  0  0  0  0
  5  4  1  0  0  0  0
  5 10  1  0  0  0  0
  5  6  1  0  0  0  0
  6  2  1  0  0  0  0
  9  4  1  0  0  0  0
 11  5  1  0  0  0  0
 12  6  1  0  0  0  0
 12 14  1  0  0  0  0
 13 12  1  0  0  0  0
 16 15  1  0  0  0  0
 17 16  1  0  0  0  0
 17 12  1  0  0  0  0
 18 17  2  0  0  0  0
 19 18  1  0  0  0  0
 20 22  2  0  0  0  0
 20 18  1  0  0  0  0
 21 20  1  0  0  0  0
 22 23  1  0  0  0  0
 23 16  2  0  0  0  0
 24 25  1  0  0  0  0
 24  3  1  0  0  0  0
 25 26  1  0  0  0  0
 26 27  2  0  0  0  0
 26 34  1  0  0  0  0
 27 35  1  0  0  0  0
 28 27  1  0  0  0  0
 29 28  2  0  0  0  0
 30 29  1  0  0  0  0
 30 25  2  0  0  0  0
 31 32  2  0  0  0  0
 31 33  1  0  0  0  0
 33 29  1  0  0  0  0
 36 31  1  0  0  0  0
 37 33  1  0  0  0  0
M  END
>  <minimizedAffinity>
-5.59059048

>  <minimizedRMSD>
1.23629987

$$$$
