
 OpenBabel03272504103D

 33 35  0  0  0  0  0  0  0  0999 V2000
   38.4490   26.1190   35.9900 C   0  0  0  0  0  0  0  0  0  0  0  0
   38.7110   24.9870   35.2220 C   0  0  0  0  0  0  0  0  0  0  0  0
   38.1880   24.8840   33.9080 C   0  0  0  0  0  0  0  0  0  0  0  0
   37.4460   25.9120   33.4550 N   0  0  0  0  0  0  0  0  0  0  0  0
   37.2020   27.0260   34.2420 C   0  0  0  0  0  0  0  0  0  0  0  0
   37.7060   27.1160   35.5000 N   0  0  0  0  0  0  0  0  0  0  0  0
   36.4100   28.0750   33.6900 N   0  0  0  0  0  0  0  0  0  0  0  0
   38.8520   26.1940   36.9890 H   0  0  0  0  0  0  0  0  0  0  0  0
   36.8830   29.0200   33.6470 H   0  0  0  0  0  0  0  0  0  0  0  0
   35.4330   27.9900   33.3360 H   0  0  0  0  0  0  0  0  0  0  0  0
   37.5730   23.0450   37.2630 Cl  0  0  0  0  0  0  0  0  0  0  0  0
   39.2230   22.9810   36.7630 C   0  0  0  0  0  0  0  0  0  0  0  0
   39.5490   23.9230   35.8370 C   0  0  0  0  0  0  0  0  0  0  0  0
   40.8780   23.9530   35.3520 C   0  0  0  0  0  0  0  0  0  0  0  0
   41.8260   23.0900   35.7720 C   0  0  0  0  0  0  0  0  0  0  0  0
   41.4720   22.1320   36.7210 C   0  0  0  0  0  0  0  0  0  0  0  0
   42.6220   20.9740   37.3150 Cl  0  0  0  0  0  0  0  0  0  0  0  0
   40.1860   22.1000   37.1910 C   0  0  0  0  0  0  0  0  0  0  0  0
   41.2490   24.6450   34.6080 H   0  0  0  0  0  0  0  0  0  0  0  0
   42.8530   23.0630   35.4420 H   0  0  0  0  0  0  0  0  0  0  0  0
   39.8340   21.3740   37.9390 H   0  0  0  0  0  0  0  0  0  0  0  0
   38.4860   23.6960   33.1330 C   0  0  0  0  0  0  0  0  0  0  0  0
   38.8430   24.0250   32.1210 H   0  0  0  0  0  0  0  0  0  0  0  0
   39.3720   23.1690   33.5930 H   0  0  0  0  0  0  0  0  0  0  0  0
   36.8970   24.0050   30.6730 Cl  0  0  0  0  0  0  0  0  0  0  0  0
   36.5430   22.7750   31.8960 C   0  0  0  0  0  0  0  0  0  0  0  0
   37.3610   22.7370   33.0010 C   0  0  0  0  0  0  0  0  0  0  0  0
   37.1140   21.7950   33.9760 C   0  0  0  0  0  0  0  0  0  0  0  0
   37.7030   21.7000   34.8620 H   0  0  0  0  0  0  0  0  0  0  0  0
   36.0620   20.9030   33.8520 C   0  0  0  0  0  0  0  0  0  0  0  0
   35.8390   20.1390   34.6170 H   0  0  0  0  0  0  0  0  0  0  0  0
   35.2640   20.9780   32.7240 C   0  0  0  0  0  3  0  0  0  0  0  0
   35.4680   21.9120   31.7040 C   0  0  0  0  0  3  0  0  0  0  0  0
  1  8  1  0  0  0  0
  2 13  1  0  0  0  0
  2  1  2  0  0  0  0
  3  2  1  0  0  0  0
  4  3  2  0  0  0  0
  4  5  1  0  0  0  0
  5  6  2  0  0  0  0
  6  1  1  0  0  0  0
  7  5  1  0  0  0  0
  9  7  1  0  0  0  0
 10  7  1  0  0  0  0
 12 18  1  0  0  0  0
 12 11  1  0  0  0  0
 13 12  2  0  0  0  0
 14 15  2  0  0  0  0
 14 13  1  0  0  0  0
 15 16  1  0  0  0  0
 16 18  2  0  0  0  0
 16 17  1  0  0  0  0
 18 21  1  0  0  0  0
 19 14  1  0  0  0  0
 20 15  1  0  0  0  0
 22 24  1  0  0  0  0
 22  3  1  0  0  0  0
 23 22  1  0  0  0  0
 25 26  1  0  0  0  0
 26 27  1  0  0  0  0
 27 22  1  0  0  0  0
 27 28  2  0  0  0  0
 28 29  1  0  0  0  0
 30 28  1  0  0  0  0
 30 31  1  0  0  0  0
 32 30  2  0  0  0  0
 33 26  2  0  0  0  0
 33 32  1  0  0  0  0
M  END
>  <minimizedAffinity>
-5.95399523

$$$$

 OpenBabel03272504103D

 33 35  0  0  0  0  0  0  0  0999 V2000
   38.1830   25.5210   36.4210 C   0  0  0  0  0  0  0  0  0  0  0  0
   38.3620   24.8910   35.1920 C   0  0  0  0  0  0  0  0  0  0  0  0
   38.5090   23.4820   35.1320 C   0  0  0  0  0  0  0  0  0  0  0  0
   38.4670   22.8050   36.2950 N   0  0  0  0  0  0  0  0  0  0  0  0
   38.2870   23.4590   37.5030 C   0  0  0  0  0  0  0  0  0  0  0  0
   38.1470   24.8100   37.5520 N   0  0  0  0  0  0  0  0  0  0  0  0
   38.2490   22.6730   38.6910 N   0  0  0  0  0  0  0  0  0  0  0  0
   38.0680   26.5940   36.4620 H   0  0  0  0  0  0  0  0  0  0  0  0
   37.3620   22.7590   39.2600 H   0  0  0  0  0  0  0  0  0  0  0  0
   39.0020   22.0380   39.0350 H   0  0  0  0  0  0  0  0  0  0  0  0
   40.9750   25.8110   33.9440 Cl  0  0  0  0  0  0  0  0  0  0  0  0
   39.4420   26.2660   33.2940 C   0  0  0  0  0  0  0  0  0  0  0  0
   38.3850   25.7530   33.9800 C   0  0  0  0  0  0  0  0  0  0  0  0
   37.0810   26.0570   33.5250 C   0  0  0  0  0  0  0  0  0  0  0  0
   36.8490   26.8330   32.4460 C   0  0  0  0  0  0  0  0  0  0  0  0
   37.9450   27.3490   31.7560 C   0  0  0  0  0  0  0  0  0  0  0  0
   37.7450   28.3510   30.3510 Cl  0  0  0  0  0  0  0  0  0  0  0  0
   39.2090   27.0550   32.1940 C   0  0  0  0  0  0  0  0  0  0  0  0
   36.1680   25.6970   33.9790 H   0  0  0  0  0  0  0  0  0  0  0  0
   35.8800   27.1020   32.0520 H   0  0  0  0  0  0  0  0  0  0  0  0
   40.1210   27.4240   31.7020 H   0  0  0  0  0  0  0  0  0  0  0  0
   38.6860   22.8580   33.8360 C   0  0  0  0  0  0  0  0  0  0  0  0
   39.0990   23.6300   33.1350 H   0  0  0  0  0  0  0  0  0  0  0  0
   39.4960   22.0750   33.9120 H   0  0  0  0  0  0  0  0  0  0  0  0
   38.0840   23.6630   31.0690 Cl  0  0  0  0  0  0  0  0  0  0  0  0
   37.0710   22.5340   31.9820 C   0  0  0  0  0  0  0  0  0  0  0  0
   37.4620   22.2410   33.2670 C   0  0  0  0  0  0  0  0  0  0  0  0
   36.6970   21.3690   34.0100 C   0  0  0  0  0  0  0  0  0  0  0  0
   36.9330   21.0900   35.0140 H   0  0  0  0  0  0  0  0  0  0  0  0
   35.5530   20.7960   33.4780 C   0  0  0  0  0  0  0  0  0  0  0  0
   34.9190   20.0960   34.0490 H   0  0  0  0  0  0  0  0  0  0  0  0
   35.1960   21.1200   32.1800 C   0  0  0  0  0  3  0  0  0  0  0  0
   35.9350   21.9980   31.3820 C   0  0  0  0  0  3  0  0  0  0  0  0
  1  8  1  0  0  0  0
  1  6  1  0  0  0  0
  2  1  2  0  0  0  0
  3  2  1  0  0  0  0
  3  4  2  0  0  0  0
  4  5  1  0  0  0  0
  5  6  2  0  0  0  0
  5  7  1  0  0  0  0
  7 10  1  0  0  0  0
  7  9  1  0  0  0  0
 12 11  1  0  0  0  0
 12 13  1  0  0  0  0
 13  2  1  0  0  0  0
 14 19  1  0  0  0  0
 14 13  2  0  0  0  0
 15 14  1  0  0  0  0
 16 18  1  0  0  0  0
 16 15  2  0  0  0  0
 17 16  1  0  0  0  0
 18 12  2  0  0  0  0
 20 15  1  0  0  0  0
 21 18  1  0  0  0  0
 22 24  1  0  0  0  0
 22  3  1  0  0  0  0
 23 22  1  0  0  0  0
 25 26  1  0  0  0  0
 26 27  1  0  0  0  0
 27 22  1  0  0  0  0
 27 28  2  0  0  0  0
 28 29  1  0  0  0  0
 30 28  1  0  0  0  0
 30 31  1  0  0  0  0
 32 30  2  0  0  0  0
 33 26  2  0  0  0  0
 33 32  1  0  0  0  0
M  END
>  <minimizedAffinity>
-5.82775021

$$$$

 OpenBabel03272504103D

 33 35  0  0  0  0  0  0  0  0999 V2000
   38.6210   26.3460   35.9280 C   0  0  0  0  0  0  0  0  0  0  0  0
   38.8750   25.2370   35.1240 C   0  0  0  0  0  0  0  0  0  0  0  0
   38.2190   25.1020   33.8740 C   0  0  0  0  0  0  0  0  0  0  0  0
   37.3620   26.0760   33.5160 N   0  0  0  0  0  0  0  0  0  0  0  0
   37.1290   27.1670   34.3370 C   0  0  0  0  0  0  0  0  0  0  0  0
   37.7610   27.2890   35.5340 N   0  0  0  0  0  0  0  0  0  0  0  0
   36.2090   28.1600   33.8870 N   0  0  0  0  0  0  0  0  0  0  0  0
   39.1240   26.4460   36.8780 H   0  0  0  0  0  0  0  0  0  0  0  0
   36.6070   29.1360   33.8030 H   0  0  0  0  0  0  0  0  0  0  0  0
   35.2070   28.0060   33.6410 H   0  0  0  0  0  0  0  0  0  0  0  0
   41.7610   25.1950   34.1720 Cl  0  0  0  0  0  0  0  0  0  0  0  0
   41.1610   24.0550   35.3200 C   0  0  0  0  0  0  0  0  0  0  0  0
   39.8490   24.2340   35.6320 C   0  0  0  0  0  0  0  0  0  0  0  0
   39.2580   23.3570   36.5720 C   0  0  0  0  0  0  0  0  0  0  0  0
   39.9430   22.3570   37.1640 C   0  0  0  0  0  0  0  0  0  0  0  0
   41.2860   22.1890   36.8310 C   0  0  0  0  0  0  0  0  0  0  0  0
   42.2510   20.9340   37.5480 Cl  0  0  0  0  0  0  0  0  0  0  0  0
   41.8600   23.0380   35.9220 C   0  0  0  0  0  0  0  0  0  0  0  0
   38.2310   23.4100   36.9070 H   0  0  0  0  0  0  0  0  0  0  0  0
   39.5490   21.6560   37.8850 H   0  0  0  0  0  0  0  0  0  0  0  0
   42.9130   22.9680   35.6110 H   0  0  0  0  0  0  0  0  0  0  0  0
   38.5130   23.9400   33.0580 C   0  0  0  0  0  0  0  0  0  0  0  0
   38.7770   24.3000   32.0290 H   0  0  0  0  0  0  0  0  0  0  0  0
   39.4550   23.4500   33.4420 H   0  0  0  0  0  0  0  0  0  0  0  0
   36.7840   24.1550   30.6850 Cl  0  0  0  0  0  0  0  0  0  0  0  0
   36.5510   22.9220   31.9340 C   0  0  0  0  0  0  0  0  0  0  0  0
   37.4270   22.9310   32.9930 C   0  0  0  0  0  0  0  0  0  0  0  0
   37.2750   21.9890   33.9870 C   0  0  0  0  0  0  0  0  0  0  0  0
   37.9140   21.9280   34.8410 H   0  0  0  0  0  0  0  0  0  0  0  0
   36.2590   21.0490   33.9260 C   0  0  0  0  0  0  0  0  0  0  0  0
   36.1120   20.2840   34.7080 H   0  0  0  0  0  0  0  0  0  0  0  0
   35.4000   21.0770   32.8420 C   0  0  0  0  0  3  0  0  0  0  0  0
   35.5080   22.0100   31.8060 C   0  0  0  0  0  3  0  0  0  0  0  0
  1  8  1  0  0  0  0
  2 13  1  0  0  0  0
  2  1  2  0  0  0  0
  3  2  1  0  0  0  0
  4  3  2  0  0  0  0
  4  5  1  0  0  0  0
  5  6  2  0  0  0  0
  6  1  1  0  0  0  0
  7  5  1  0  0  0  0
  9  7  1  0  0  0  0
 10  7  1  0  0  0  0
 11 12  1  0  0  0  0
 12 13  2  0  0  0  0
 12 18  1  0  0  0  0
 13 14  1  0  0  0  0
 14 19  1  0  0  0  0
 14 15  2  0  0  0  0
 15 20  1  0  0  0  0
 16 15  1  0  0  0  0
 16 17  1  0  0  0  0
 18 16  2  0  0  0  0
 21 18  1  0  0  0  0
 22 24  1  0  0  0  0
 22  3  1  0  0  0  0
 23 22  1  0  0  0  0
 25 26  1  0  0  0  0
 26 27  1  0  0  0  0
 27 22  1  0  0  0  0
 27 28  2  0  0  0  0
 28 29  1  0  0  0  0
 30 28  1  0  0  0  0
 30 31  1  0  0  0  0
 32 30  2  0  0  0  0
 33 26  2  0  0  0  0
 33 32  1  0  0  0  0
M  END
>  <minimizedAffinity>
-5.73749161

$$$$

 OpenBabel03272504103D

 33 35  0  0  0  0  0  0  0  0999 V2000
   35.8690   22.6980   31.8300 C   0  0  0  0  0  0  0  0  0  0  0  0
   36.9700   23.3300   32.4020 C   0  0  0  0  0  0  0  0  0  0  0  0
   37.5940   22.7690   33.5460 C   0  0  0  0  0  0  0  0  0  0  0  0
   37.0790   21.6260   34.0340 N   0  0  0  0  0  0  0  0  0  0  0  0
   35.9820   21.0200   33.4430 C   0  0  0  0  0  0  0  0  0  0  0  0
   35.3890   21.5630   32.3480 N   0  0  0  0  0  0  0  0  0  0  0  0
   35.4960   19.8080   34.0160 N   0  0  0  0  0  0  0  0  0  0  0  0
   35.3980   23.1270   30.9570 H   0  0  0  0  0  0  0  0  0  0  0  0
   35.4840   18.9750   33.3640 H   0  0  0  0  0  0  0  0  0  0  0  0
   35.1630   19.6790   34.9960 H   0  0  0  0  0  0  0  0  0  0  0  0
   39.1370   23.3120   30.2720 Cl  0  0  0  0  0  0  0  0  0  0  0  0
   38.3990   24.7760   30.8130 C   0  0  0  0  0  0  0  0  0  0  0  0
   37.4450   24.5860   31.7640 C   0  0  0  0  0  0  0  0  0  0  0  0
   36.7700   25.7220   32.2710 C   0  0  0  0  0  0  0  0  0  0  0  0
   37.0380   26.9750   31.8500 C   0  0  0  0  0  0  0  0  0  0  0  0
   38.0190   27.1490   30.8750 C   0  0  0  0  0  0  0  0  0  0  0  0
   38.4270   28.7240   30.2660 Cl  0  0  0  0  0  0  0  0  0  0  0  0
   38.6720   26.0510   30.3820 C   0  0  0  0  0  0  0  0  0  0  0  0
   35.9870   25.6940   33.0160 H   0  0  0  0  0  0  0  0  0  0  0  0
   36.5610   27.8790   32.1980 H   0  0  0  0  0  0  0  0  0  0  0  0
   39.4560   26.1090   29.6120 H   0  0  0  0  0  0  0  0  0  0  0  0
   38.7430   23.4480   34.1120 C   0  0  0  0  0  0  0  0  0  0  0  0
   39.6670   22.9760   33.6850 H   0  0  0  0  0  0  0  0  0  0  0  0
   38.7630   24.5120   33.7370 H   0  0  0  0  0  0  0  0  0  0  0  0
   40.9740   21.9040   35.2560 Cl  0  0  0  0  0  0  0  0  0  0  0  0
   39.7940   22.7680   36.2530 C   0  0  0  0  0  0  0  0  0  0  0  0
   38.7990   23.4510   35.5950 C   0  0  0  0  0  0  0  0  0  0  0  0
   37.8610   24.1330   36.3380 C   0  0  0  0  0  0  0  0  0  0  0  0
   37.0580   24.6880   35.9040 H   0  0  0  0  0  0  0  0  0  0  0  0
   37.9130   24.1330   37.7230 C   0  0  0  0  0  0  0  0  0  0  0  0
   37.1750   24.6690   38.3440 H   0  0  0  0  0  0  0  0  0  0  0  0
   38.9320   23.4320   38.3430 C   0  0  0  0  0  3  0  0  0  0  0  0
   39.9100   22.7230   37.6390 C   0  0  0  0  0  3  0  0  0  0  0  0
  1  6  2  0  0  0  0
  1  2  1  0  0  0  0
  2  3  2  0  0  0  0
  3  4  1  0  0  0  0
  3 22  1  0  0  0  0
  5  7  1  0  0  0  0
  5  4  2  0  0  0  0
  6  5  1  0  0  0  0
  7 10  1  0  0  0  0
  8  1  1  0  0  0  0
  9  7  1  0  0  0  0
 11 12  1  0  0  0  0
 12 13  1  0  0  0  0
 13 14  2  0  0  0  0
 13  2  1  0  0  0  0
 14 19  1  0  0  0  0
 15 20  1  0  0  0  0
 15 14  1  0  0  0  0
 16 15  2  0  0  0  0
 17 16  1  0  0  0  0
 18 12  2  0  0  0  0
 18 16  1  0  0  0  0
 21 18  1  0  0  0  0
 22 27  1  0  0  0  0
 23 22  1  0  0  0  0
 24 22  1  0  0  0  0
 25 26  1  0  0  0  0
 26 33  1  0  0  0  0
 27 26  2  0  0  0  0
 27 28  1  0  0  0  0
 28 30  2  0  0  0  0
 29 28  1  0  0  0  0
 30 32  1  0  0  0  0
 30 31  1  0  0  0  0
 33 32  2  0  0  0  0
M  END
>  <minimizedAffinity>
-5.64142466

$$$$

 OpenBabel03272504103D

 33 35  0  0  0  0  0  0  0  0999 V2000
   36.1610   21.0180   33.3980 C   0  0  0  0  0  0  0  0  0  0  0  0
   37.2760   21.8480   33.4820 C   0  0  0  0  0  0  0  0  0  0  0  0
   37.7440   22.2810   34.7480 C   0  0  0  0  0  0  0  0  0  0  0  0
   37.0710   21.8570   35.8350 N   0  0  0  0  0  0  0  0  0  0  0  0
   35.9650   21.0310   35.7200 C   0  0  0  0  0  0  0  0  0  0  0  0
   35.5230   20.6210   34.5030 N   0  0  0  0  0  0  0  0  0  0  0  0
   35.3090   20.6210   36.9170 N   0  0  0  0  0  0  0  0  0  0  0  0
   35.8090   20.6880   32.4310 H   0  0  0  0  0  0  0  0  0  0  0  0
   35.2580   19.5750   37.0670 H   0  0  0  0  0  0  0  0  0  0  0  0
   34.8880   21.2480   37.6360 H   0  0  0  0  0  0  0  0  0  0  0  0
   39.7500   20.4130   32.4570 Cl  0  0  0  0  0  0  0  0  0  0  0  0
   39.0370   21.7310   31.6000 C   0  0  0  0  0  0  0  0  0  0  0  0
   37.9320   22.2420   32.2070 C   0  0  0  0  0  0  0  0  0  0  0  0
   37.2640   23.3210   31.5820 C   0  0  0  0  0  0  0  0  0  0  0  0
   37.6810   23.8590   30.4170 C   0  0  0  0  0  0  0  0  0  0  0  0
   38.8160   23.3220   29.8110 C   0  0  0  0  0  0  0  0  0  0  0  0
   39.4230   23.9430   28.3060 Cl  0  0  0  0  0  0  0  0  0  0  0  0
   39.4630   22.2760   30.4130 C   0  0  0  0  0  0  0  0  0  0  0  0
   36.3710   23.7990   31.9620 H   0  0  0  0  0  0  0  0  0  0  0  0
   37.2170   24.6820   29.8940 H   0  0  0  0  0  0  0  0  0  0  0  0
   40.3630   21.8000   29.9950 H   0  0  0  0  0  0  0  0  0  0  0  0
   38.9110   23.1390   34.8010 C   0  0  0  0  0  0  0  0  0  0  0  0
   39.5750   22.7670   35.6250 H   0  0  0  0  0  0  0  0  0  0  0  0
   39.5150   22.9960   33.8580 H   0  0  0  0  0  0  0  0  0  0  0  0
   38.6910   24.0030   37.6070 Cl  0  0  0  0  0  0  0  0  0  0  0  0
   38.4930   25.1130   36.2420 C   0  0  0  0  0  0  0  0  0  0  0  0
   38.6190   24.5830   34.9800 C   0  0  0  0  0  0  0  0  0  0  0  0
   38.4680   25.4160   33.8930 C   0  0  0  0  0  0  0  0  0  0  0  0
   38.5520   25.0820   32.8820 H   0  0  0  0  0  0  0  0  0  0  0  0
   38.1930   26.7630   34.0620 C   0  0  0  0  0  0  0  0  0  0  0  0
   38.0650   27.4540   33.2110 H   0  0  0  0  0  0  0  0  0  0  0  0
   38.0740   27.2540   35.3510 C   0  0  0  0  0  3  0  0  0  0  0  0
   38.2180   26.4550   36.4890 C   0  0  0  0  0  3  0  0  0  0  0  0
  1  2  2  0  0  0  0
  1  6  1  0  0  0  0
  2  3  1  0  0  0  0
  3 22  1  0  0  0  0
  3  4  2  0  0  0  0
  5  4  1  0  0  0  0
  5  7  1  0  0  0  0
  6  5  2  0  0  0  0
  7  9  1  0  0  0  0
  7 10  1  0  0  0  0
  8  1  1  0  0  0  0
 12 13  1  0  0  0  0
 12 11  1  0  0  0  0
 13  2  1  0  0  0  0
 14 19  1  0  0  0  0
 14 13  2  0  0  0  0
 15 14  1  0  0  0  0
 16 18  1  0  0  0  0
 16 15  2  0  0  0  0
 17 16  1  0  0  0  0
 18 12  2  0  0  0  0
 20 15  1  0  0  0  0
 21 18  1  0  0  0  0
 22 27  1  0  0  0  0
 22 23  1  0  0  0  0
 24 22  1  0  0  0  0
 26 33  1  0  0  0  0
 26 25  1  0  0  0  0
 27 26  2  0  0  0  0
 28 30  2  0  0  0  0
 28 27  1  0  0  0  0
 29 28  1  0  0  0  0
 30 32  1  0  0  0  0
 31 30  1  0  0  0  0
 32 33  2  0  0  0  0
M  END
>  <minimizedAffinity>
-5.63548422

$$$$

 OpenBabel03272504103D

 33 35  0  0  0  0  0  0  0  0999 V2000
   37.4250   25.5190   33.2610 C   0  0  0  0  0  0  0  0  0  0  0  0
   37.9090   24.2250   33.0840 C   0  0  0  0  0  0  0  0  0  0  0  0
   37.5160   23.4700   31.9490 C   0  0  0  0  0  0  0  0  0  0  0  0
   36.6750   24.0560   31.0770 N   0  0  0  0  0  0  0  0  0  0  0  0
   36.2110   25.3450   31.2790 C   0  0  0  0  0  0  0  0  0  0  0  0
   36.5910   26.0620   32.3690 N   0  0  0  0  0  0  0  0  0  0  0  0
   35.3260   25.8990   30.3080 N   0  0  0  0  0  0  0  0  0  0  0  0
   37.7290   26.0910   34.1250 H   0  0  0  0  0  0  0  0  0  0  0  0
   35.6610   26.7920   29.8510 H   0  0  0  0  0  0  0  0  0  0  0  0
   34.4040   25.5070   30.0190 H   0  0  0  0  0  0  0  0  0  0  0  0
   40.9240   24.3330   32.7250 Cl  0  0  0  0  0  0  0  0  0  0  0  0
   40.1950   23.6470   34.1310 C   0  0  0  0  0  0  0  0  0  0  0  0
   38.8360   23.6950   34.1190 C   0  0  0  0  0  0  0  0  0  0  0  0
   38.1380   23.1660   35.2300 C   0  0  0  0  0  0  0  0  0  0  0  0
   38.7660   22.6190   36.2910 C   0  0  0  0  0  0  0  0  0  0  0  0
   40.1600   22.5790   36.2850 C   0  0  0  0  0  0  0  0  0  0  0  0
   41.0560   21.9020   37.6100 Cl  0  0  0  0  0  0  0  0  0  0  0  0
   40.8370   23.0920   35.2110 C   0  0  0  0  0  0  0  0  0  0  0  0
   37.0620   23.1600   35.3380 H   0  0  0  0  0  0  0  0  0  0  0  0
   38.2910   22.1990   37.1650 H   0  0  0  0  0  0  0  0  0  0  0  0
   41.9350   23.0960   35.1350 H   0  0  0  0  0  0  0  0  0  0  0  0
   38.0440   22.1290   31.7910 C   0  0  0  0  0  0  0  0  0  0  0  0
   38.4820   22.0500   30.7620 H   0  0  0  0  0  0  0  0  0  0  0  0
   38.9210   21.9950   32.4890 H   0  0  0  0  0  0  0  0  0  0  0  0
   37.9370   20.1040   29.6570 Cl  0  0  0  0  0  0  0  0  0  0  0  0
   36.9170   20.0300   31.1010 C   0  0  0  0  0  0  0  0  0  0  0  0
   37.0630   21.0400   32.0230 C   0  0  0  0  0  0  0  0  0  0  0  0
   36.2840   21.0180   33.1590 C   0  0  0  0  0  0  0  0  0  0  0  0
   36.3370   21.7640   33.9220 H   0  0  0  0  0  0  0  0  0  0  0  0
   35.3660   20.0020   33.3730 C   0  0  0  0  0  0  0  0  0  0  0  0
   34.7270   19.9590   34.2710 H   0  0  0  0  0  0  0  0  0  0  0  0
   35.2520   19.0070   32.4180 C   0  0  0  0  0  3  0  0  0  0  0  0
   36.0170   18.9780   31.2480 C   0  0  0  0  0  3  0  0  0  0  0  0
  1  8  1  0  0  0  0
  2  1  1  0  0  0  0
  2 13  1  0  0  0  0
  3  2  2  0  0  0  0
  4  5  2  0  0  0  0
  4  3  1  0  0  0  0
  5  6  1  0  0  0  0
  6  1  2  0  0  0  0
  7  5  1  0  0  0  0
  9  7  1  0  0  0  0
 10  7  1  0  0  0  0
 11 12  1  0  0  0  0
 12 18  1  0  0  0  0
 13 12  2  0  0  0  0
 13 14  1  0  0  0  0
 14 19  1  0  0  0  0
 14 15  2  0  0  0  0
 15 20  1  0  0  0  0
 16 15  1  0  0  0  0
 16 17  1  0  0  0  0
 18 16  2  0  0  0  0
 21 18  1  0  0  0  0
 22  3  1  0  0  0  0
 22 27  1  0  0  0  0
 22 24  1  0  0  0  0
 23 22  1  0  0  0  0
 25 26  1  0  0  0  0
 26 33  2  0  0  0  0
 26 27  1  0  0  0  0
 27 28  2  0  0  0  0
 28 30  1  0  0  0  0
 28 29  1  0  0  0  0
 30 31  1  0  0  0  0
 32 30  2  0  0  0  0
 33 32  1  0  0  0  0
M  END
>  <minimizedAffinity>
-5.58596659

$$$$

 OpenBabel03272504103D

 33 35  0  0  0  0  0  0  0  0999 V2000
   36.3950   23.2850   31.7220 C   0  0  0  0  0  0  0  0  0  0  0  0
   37.4930   23.7730   32.4260 C   0  0  0  0  0  0  0  0  0  0  0  0
   37.9730   23.0760   33.5640 C   0  0  0  0  0  0  0  0  0  0  0  0
   37.3290   21.9480   33.9160 N   0  0  0  0  0  0  0  0  0  0  0  0
   36.2390   21.4860   33.1960 C   0  0  0  0  0  0  0  0  0  0  0  0
   35.7850   22.1600   32.1070 N   0  0  0  0  0  0  0  0  0  0  0  0
   35.6120   20.2810   33.6290 N   0  0  0  0  0  0  0  0  0  0  0  0
   36.0340   23.8170   30.8550 H   0  0  0  0  0  0  0  0  0  0  0  0
   35.5860   19.5050   32.9120 H   0  0  0  0  0  0  0  0  0  0  0  0
   35.1900   20.1080   34.5670 H   0  0  0  0  0  0  0  0  0  0  0  0
   36.9370   26.4550   33.7410 Cl  0  0  0  0  0  0  0  0  0  0  0  0
   37.9840   26.3060   32.3780 C   0  0  0  0  0  0  0  0  0  0  0  0
   38.1190   25.0280   31.9310 C   0  0  0  0  0  0  0  0  0  0  0  0
   38.9640   24.7930   30.8210 C   0  0  0  0  0  0  0  0  0  0  0  0
   39.6340   25.7810   30.1930 C   0  0  0  0  0  0  0  0  0  0  0  0
   39.4820   27.0840   30.6660 C   0  0  0  0  0  0  0  0  0  0  0  0
   40.3110   28.4210   29.9280 Cl  0  0  0  0  0  0  0  0  0  0  0  0
   38.6660   27.3140   31.7410 C   0  0  0  0  0  0  0  0  0  0  0  0
   39.1580   23.8210   30.3870 H   0  0  0  0  0  0  0  0  0  0  0  0
   40.2890   25.6660   29.3430 H   0  0  0  0  0  0  0  0  0  0  0  0
   38.4980   28.3130   32.1700 H   0  0  0  0  0  0  0  0  0  0  0  0
   39.1230   23.6080   34.2690 C   0  0  0  0  0  0  0  0  0  0  0  0
   40.0290   23.0410   33.9280 H   0  0  0  0  0  0  0  0  0  0  0  0
   39.3030   24.6690   33.9310 H   0  0  0  0  0  0  0  0  0  0  0  0
   41.1440   21.9360   35.6060 Cl  0  0  0  0  0  0  0  0  0  0  0  0
   39.9030   22.8340   36.4930 C   0  0  0  0  0  0  0  0  0  0  0  0
   39.0170   23.5770   35.7490 C   0  0  0  0  0  0  0  0  0  0  0  0
   38.0350   24.2870   36.4050 C   0  0  0  0  0  0  0  0  0  0  0  0
   37.3100   24.8880   35.9010 H   0  0  0  0  0  0  0  0  0  0  0  0
   37.9360   24.2550   37.7860 C   0  0  0  0  0  0  0  0  0  0  0  0
   37.1600   24.8120   38.3380 H   0  0  0  0  0  0  0  0  0  0  0  0
   38.8490   23.4930   38.4940 C   0  0  0  0  0  3  0  0  0  0  0  0
   39.8650   22.7540   37.8820 C   0  0  0  0  0  3  0  0  0  0  0  0
  1  6  2  0  0  0  0
  1  2  1  0  0  0  0
  2  3  2  0  0  0  0
  3  4  1  0  0  0  0
  3 22  1  0  0  0  0
  5  7  1  0  0  0  0
  5  4  2  0  0  0  0
  6  5  1  0  0  0  0
  7 10  1  0  0  0  0
  8  1  1  0  0  0  0
  9  7  1  0  0  0  0
 12 11  1  0  0  0  0
 13 12  1  0  0  0  0
 13  2  1  0  0  0  0
 14 13  2  0  0  0  0
 15 16  2  0  0  0  0
 15 14  1  0  0  0  0
 16 18  1  0  0  0  0
 17 16  1  0  0  0  0
 18 21  1  0  0  0  0
 18 12  2  0  0  0  0
 19 14  1  0  0  0  0
 20 15  1  0  0  0  0
 22 27  1  0  0  0  0
 23 22  1  0  0  0  0
 24 22  1  0  0  0  0
 25 26  1  0  0  0  0
 26 33  1  0  0  0  0
 27 28  1  0  0  0  0
 27 26  2  0  0  0  0
 28 30  2  0  0  0  0
 29 28  1  0  0  0  0
 30 31  1  0  0  0  0
 30 32  1  0  0  0  0
 33 32  2  0  0  0  0
M  END
>  <minimizedAffinity>
-5.48832989

$$$$

 OpenBabel03272504103D

 33 35  0  0  0  0  0  0  0  0999 V2000
   36.1080   20.9930   33.5040 C   0  0  0  0  0  0  0  0  0  0  0  0
   37.2300   21.8140   33.5750 C   0  0  0  0  0  0  0  0  0  0  0  0
   37.7210   22.2390   34.8360 C   0  0  0  0  0  0  0  0  0  0  0  0
   37.0610   21.8160   35.9300 N   0  0  0  0  0  0  0  0  0  0  0  0
   35.9480   20.9990   35.8300 C   0  0  0  0  0  0  0  0  0  0  0  0
   35.4840   20.5970   34.6180 N   0  0  0  0  0  0  0  0  0  0  0  0
   35.3060   20.5900   37.0350 N   0  0  0  0  0  0  0  0  0  0  0  0
   35.7400   20.6690   32.5420 H   0  0  0  0  0  0  0  0  0  0  0  0
   35.2490   19.5440   37.1820 H   0  0  0  0  0  0  0  0  0  0  0  0
   34.9010   21.2180   37.7620 H   0  0  0  0  0  0  0  0  0  0  0  0
   39.2270   20.0030   32.1720 Cl  0  0  0  0  0  0  0  0  0  0  0  0
   38.7820   21.5420   31.5310 C   0  0  0  0  0  0  0  0  0  0  0  0
   37.8710   22.2070   32.2910 C   0  0  0  0  0  0  0  0  0  0  0  0
   37.4310   23.4770   31.8500 C   0  0  0  0  0  0  0  0  0  0  0  0
   37.8800   24.0500   30.7140 C   0  0  0  0  0  0  0  0  0  0  0  0
   38.8140   23.3520   29.9490 C   0  0  0  0  0  0  0  0  0  0  0  0
   39.4430   24.0050   28.4670 Cl  0  0  0  0  0  0  0  0  0  0  0  0
   39.2400   22.1220   30.3730 C   0  0  0  0  0  0  0  0  0  0  0  0
   36.7020   24.0910   32.3620 H   0  0  0  0  0  0  0  0  0  0  0  0
   37.5850   25.0130   30.3270 H   0  0  0  0  0  0  0  0  0  0  0  0
   39.9740   21.5140   29.8230 H   0  0  0  0  0  0  0  0  0  0  0  0
   38.8960   23.0880   34.8730 C   0  0  0  0  0  0  0  0  0  0  0  0
   39.0530   23.5050   33.8440 H   0  0  0  0  0  0  0  0  0  0  0  0
   38.6790   23.9880   35.5190 H   0  0  0  0  0  0  0  0  0  0  0  0
   39.2750   23.1910   37.7910 Cl  0  0  0  0  0  0  0  0  0  0  0  0
   40.4240   22.4000   36.7010 C   0  0  0  0  0  0  0  0  0  0  0  0
   40.1310   22.4230   35.3580 C   0  0  0  0  0  0  0  0  0  0  0  0
   41.0040   21.8210   34.4790 C   0  0  0  0  0  0  0  0  0  0  0  0
   40.8480   21.7950   33.4220 H   0  0  0  0  0  0  0  0  0  0  0  0
   42.1580   21.2040   34.9330 C   0  0  0  0  0  0  0  0  0  0  0  0
   42.8770   20.7150   34.2530 H   0  0  0  0  0  0  0  0  0  0  0  0
   42.4140   21.2050   36.2930 C   0  0  0  0  0  3  0  0  0  0  0  0
   41.5640   21.8000   37.2300 C   0  0  0  0  0  3  0  0  0  0  0  0
  1  2  2  0  0  0  0
  1  6  1  0  0  0  0
  2  3  1  0  0  0  0
  3 22  1  0  0  0  0
  3  4  2  0  0  0  0
  5  4  1  0  0  0  0
  5  7  1  0  0  0  0
  6  5  2  0  0  0  0
  7  9  1  0  0  0  0
  7 10  1  0  0  0  0
  8  1  1  0  0  0  0
 12 11  1  0  0  0  0
 12 13  1  0  0  0  0
 13  2  1  0  0  0  0
 14 13  2  0  0  0  0
 14 19  1  0  0  0  0
 15 14  1  0  0  0  0
 16 18  1  0  0  0  0
 16 15  2  0  0  0  0
 17 16  1  0  0  0  0
 18 12  2  0  0  0  0
 20 15  1  0  0  0  0
 21 18  1  0  0  0  0
 22 27  1  0  0  0  0
 22 24  1  0  0  0  0
 23 22  1  0  0  0  0
 26 33  1  0  0  0  0
 26 25  1  0  0  0  0
 27 26  2  0  0  0  0
 28 30  2  0  0  0  0
 28 27  1  0  0  0  0
 29 28  1  0  0  0  0
 30 32  1  0  0  0  0
 31 30  1  0  0  0  0
 32 33  2  0  0  0  0
M  END
>  <minimizedAffinity>
-5.45390368

$$$$

 OpenBabel03272504103D

 33 35  0  0  0  0  0  0  0  0999 V2000
   36.4280   21.1690   33.8380 C   0  0  0  0  0  0  0  0  0  0  0  0
   37.6180   21.8350   34.1210 C   0  0  0  0  0  0  0  0  0  0  0  0
   37.9480   22.1570   35.4620 C   0  0  0  0  0  0  0  0  0  0  0  0
   37.0740   21.7950   36.4190 N   0  0  0  0  0  0  0  0  0  0  0  0
   35.8970   21.1340   36.1070 C   0  0  0  0  0  0  0  0  0  0  0  0
   35.5880   20.8290   34.8200 N   0  0  0  0  0  0  0  0  0  0  0  0
   35.0240   20.7800   37.1770 N   0  0  0  0  0  0  0  0  0  0  0  0
   36.1810   20.9230   32.8160 H   0  0  0  0  0  0  0  0  0  0  0  0
   34.8140   19.7470   37.2630 H   0  0  0  0  0  0  0  0  0  0  0  0
   34.5890   21.4360   37.8610 H   0  0  0  0  0  0  0  0  0  0  0  0
   37.2880   24.4290   32.5740 Cl  0  0  0  0  0  0  0  0  0  0  0  0
   38.4980   23.2690   32.1650 C   0  0  0  0  0  0  0  0  0  0  0  0
   38.5000   22.1750   32.9740 C   0  0  0  0  0  0  0  0  0  0  0  0
   39.4610   21.1650   32.7300 C   0  0  0  0  0  0  0  0  0  0  0  0
   40.3650   21.2450   31.7330 C   0  0  0  0  0  0  0  0  0  0  0  0
   40.3470   22.3750   30.9150 C   0  0  0  0  0  0  0  0  0  0  0  0
   41.4780   22.5710   29.6110 Cl  0  0  0  0  0  0  0  0  0  0  0  0
   39.4190   23.3540   31.1490 C   0  0  0  0  0  0  0  0  0  0  0  0
   39.5670   20.2600   33.3120 H   0  0  0  0  0  0  0  0  0  0  0  0
   41.1190   20.5100   31.4960 H   0  0  0  0  0  0  0  0  0  0  0  0
   39.3440   24.2720   30.5480 H   0  0  0  0  0  0  0  0  0  0  0  0
   39.1990   22.8430   35.7230 C   0  0  0  0  0  0  0  0  0  0  0  0
   39.5600   22.5270   36.7370 H   0  0  0  0  0  0  0  0  0  0  0  0
   39.9830   22.4620   35.0060 H   0  0  0  0  0  0  0  0  0  0  0  0
   41.3980   24.0800   34.2050 Cl  0  0  0  0  0  0  0  0  0  0  0  0
   40.0980   25.0220   34.9510 C   0  0  0  0  0  0  0  0  0  0  0  0
   39.1310   24.3230   35.6340 C   0  0  0  0  0  0  0  0  0  0  0  0
   38.1050   25.0220   36.2310 C   0  0  0  0  0  0  0  0  0  0  0  0
   37.3160   24.5540   36.7780 H   0  0  0  0  0  0  0  0  0  0  0  0
   38.0440   26.4040   36.1490 C   0  0  0  0  0  0  0  0  0  0  0  0
   37.2360   26.9910   36.6180 H   0  0  0  0  0  0  0  0  0  0  0  0
   39.0390   27.0660   35.4520 C   0  0  0  0  0  3  0  0  0  0  0  0
   40.1020   26.4080   34.8270 C   0  0  0  0  0  3  0  0  0  0  0  0
  1  2  2  0  0  0  0
  1  6  1  0  0  0  0
  2  3  1  0  0  0  0
  3 22  1  0  0  0  0
  3  4  2  0  0  0  0
  5  4  1  0  0  0  0
  5  7  1  0  0  0  0
  6  5  2  0  0  0  0
  7  9  1  0  0  0  0
  7 10  1  0  0  0  0
  8  1  1  0  0  0  0
 12 11  1  0  0  0  0
 12 13  1  0  0  0  0
 13  2  1  0  0  0  0
 14 13  2  0  0  0  0
 14 19  1  0  0  0  0
 15 14  1  0  0  0  0
 16 18  1  0  0  0  0
 16 15  2  0  0  0  0
 17 16  1  0  0  0  0
 18 12  2  0  0  0  0
 20 15  1  0  0  0  0
 21 18  1  0  0  0  0
 22 23  1  0  0  0  0
 24 22  1  0  0  0  0
 25 26  1  0  0  0  0
 26 27  1  0  0  0  0
 27 22  1  0  0  0  0
 27 28  2  0  0  0  0
 28 29  1  0  0  0  0
 30 28  1  0  0  0  0
 30 31  1  0  0  0  0
 32 30  2  0  0  0  0
 33 26  2  0  0  0  0
 33 32  1  0  0  0  0
M  END
>  <minimizedAffinity>
-5.43145132

$$$$
