
 OpenBabel03272507563D

 23 24  0  0  0  0  0  0  0  0999 V2000
   38.8300   25.8930   32.6310 C   0  0  0  0  0  0  0  0  0  0  0  0
   39.1610   25.6620   33.9930 C   0  0  0  0  0  0  0  0  0  0  0  0
   38.6450   24.5380   34.6040 C   0  0  0  0  0  0  0  0  0  0  0  0
   37.8410   23.6940   33.8670 N   0  0  0  0  0  0  0  0  0  0  0  0
   37.5440   23.9460   32.5700 C   0  0  0  0  0  0  0  0  0  0  0  0
   38.0360   25.0370   31.9490 N   0  0  0  0  0  0  0  0  0  0  0  0
   36.7000   22.9440   32.0250 N   0  0  0  0  0  0  0  0  0  0  0  0
   39.2010   26.7520   32.0830 H   0  0  0  0  0  0  0  0  0  0  0  0
   35.7090   23.2600   32.2940 H   0  0  0  0  0  0  0  0  0  0  0  0
   36.9140   22.0980   31.4830 H   0  0  0  0  0  0  0  0  0  0  0  0
   40.9350   22.7510   35.1330 Cl  0  0  0  0  0  0  0  0  0  0  0  0
   39.8400   23.2290   36.4350 C   0  0  0  0  0  0  0  0  0  0  0  0
   38.8880   24.1320   35.9470 C   0  0  0  0  0  0  0  0  0  0  0  0
   37.9470   24.6260   36.8730 C   0  0  0  0  0  0  0  0  0  0  0  0
   37.1430   25.3320   36.7140 H   0  0  0  0  0  0  0  0  0  0  0  0
   37.9660   24.2330   38.1940 C   0  0  0  0  0  0  0  0  0  0  0  0
   37.2950   24.5500   38.9570 H   0  0  0  0  0  0  0  0  0  0  0  0
   38.9310   23.3330   38.6200 C   0  0  0  0  0  3  0  0  0  0  0  0
   39.8590   22.8370   37.7530 C   0  0  0  0  0  3  0  0  0  0  0  0
   40.0460   26.6250   34.6950 C   0  0  0  0  0  0  0  0  0  0  0  0
   41.1770   26.0130   35.1770 F   0  0  0  0  0  0  0  0  0  0  0  0
   40.4230   27.5940   33.7950 F   0  0  0  0  0  0  0  0  0  0  0  0
   39.4170   27.2540   35.7580 F   0  0  0  0  0  0  0  0  0  0  0  0
  1  2  1  0  0  0  0
  2  3  2  0  0  0  0
  2 20  1  0  0  0  0
  3 13  1  0  0  0  0
  4  3  1  0  0  0  0
  5  4  2  0  0  0  0
  6  5  1  0  0  0  0
  6  1  2  0  0  0  0
  7  9  1  0  0  0  0
  7  5  1  0  0  0  0
  8  1  1  0  0  0  0
 10  7  1  0  0  0  0
 11 12  1  0  0  0  0
 12 19  1  0  0  0  0
 13 12  2  0  0  0  0
 13 14  1  0  0  0  0
 14 16  2  0  0  0  0
 15 14  1  0  0  0  0
 16 18  1  0  0  0  0
 16 17  1  0  0  0  0
 19 18  2  0  0  0  0
 20 21  1  0  0  0  0
 20 23  1  0  0  0  0
 22 20  1  0  0  0  0
M  END
>  <minimizedAffinity>
-5.27828169

$$$$

 OpenBabel03272507563D

 23 24  0  0  0  0  0  0  0  0999 V2000
   37.2050   26.5430   33.6990 C   0  0  0  0  0  0  0  0  0  0  0  0
   38.0870   25.9910   34.6660 C   0  0  0  0  0  0  0  0  0  0  0  0
   38.4470   24.6660   34.5330 C   0  0  0  0  0  0  0  0  0  0  0  0
   37.9400   23.9460   33.4720 N   0  0  0  0  0  0  0  0  0  0  0  0
   37.0990   24.5040   32.5690 C   0  0  0  0  0  0  0  0  0  0  0  0
   36.7320   25.7970   32.6750 N   0  0  0  0  0  0  0  0  0  0  0  0
   36.7080   23.5700   31.5750 N   0  0  0  0  0  0  0  0  0  0  0  0
   36.8800   27.5780   33.7350 H   0  0  0  0  0  0  0  0  0  0  0  0
   35.8710   23.0570   32.0110 H   0  0  0  0  0  0  0  0  0  0  0  0
   37.0820   23.3810   30.6370 H   0  0  0  0  0  0  0  0  0  0  0  0
   37.3250   23.2990   36.8960 Cl  0  0  0  0  0  0  0  0  0  0  0  0
   39.0670   23.3110   36.6010 C   0  0  0  0  0  0  0  0  0  0  0  0
   39.3370   23.9540   35.3870 C   0  0  0  0  0  0  0  0  0  0  0  0
   40.6890   24.0310   34.9950 C   0  0  0  0  0  0  0  0  0  0  0  0
   41.1150   24.4690   34.1020 H   0  0  0  0  0  0  0  0  0  0  0  0
   41.6930   23.5000   35.7760 C   0  0  0  0  0  0  0  0  0  0  0  0
   42.7350   23.5160   35.5610 H   0  0  0  0  0  0  0  0  0  0  0  0
   41.3650   22.8770   36.9700 C   0  0  0  0  0  3  0  0  0  0  0  0
   40.0690   22.7810   37.3790 C   0  0  0  0  0  3  0  0  0  0  0  0
   38.5870   26.8560   35.7640 C   0  0  0  0  0  0  0  0  0  0  0  0
   39.9440   27.0520   35.6730 F   0  0  0  0  0  0  0  0  0  0  0  0
   37.9620   28.0760   35.6670 F   0  0  0  0  0  0  0  0  0  0  0  0
   38.3160   26.3370   37.0200 F   0  0  0  0  0  0  0  0  0  0  0  0
  1  8  1  0  0  0  0
  1  2  1  0  0  0  0
  2 20  1  0  0  0  0
  3  2  2  0  0  0  0
  3 13  1  0  0  0  0
  4  3  1  0  0  0  0
  5  6  1  0  0  0  0
  5  4  2  0  0  0  0
  6  1  2  0  0  0  0
  7  9  1  0  0  0  0
  7  5  1  0  0  0  0
 10  7  1  0  0  0  0
 12 11  1  0  0  0  0
 12 19  1  0  0  0  0
 13 12  2  0  0  0  0
 14 13  1  0  0  0  0
 14 16  2  0  0  0  0
 15 14  1  0  0  0  0
 16 18  1  0  0  0  0
 17 16  1  0  0  0  0
 18 19  2  0  0  0  0
 20 23  1  0  0  0  0
 21 20  1  0  0  0  0
 22 20  1  0  0  0  0
M  END
>  <minimizedAffinity>
-5.22308207

$$$$

 OpenBabel03272507563D

 23 24  0  0  0  0  0  0  0  0999 V2000
   37.2160   26.5380   33.6300 C   0  0  0  0  0  0  0  0  0  0  0  0
   38.0890   26.0760   34.6510 C   0  0  0  0  0  0  0  0  0  0  0  0
   38.4690   24.7500   34.6270 C   0  0  0  0  0  0  0  0  0  0  0  0
   37.9910   23.9420   33.6170 N   0  0  0  0  0  0  0  0  0  0  0  0
   37.1580   24.4170   32.6590 C   0  0  0  0  0  0  0  0  0  0  0  0
   36.7720   25.7090   32.6590 N   0  0  0  0  0  0  0  0  0  0  0  0
   36.7980   23.4030   31.7330 N   0  0  0  0  0  0  0  0  0  0  0  0
   36.8760   27.5680   33.5800 H   0  0  0  0  0  0  0  0  0  0  0  0
   35.9600   22.9130   32.1940 H   0  0  0  0  0  0  0  0  0  0  0  0
   37.1920   23.1480   30.8200 H   0  0  0  0  0  0  0  0  0  0  0  0
   41.3530   24.7140   33.9960 Cl  0  0  0  0  0  0  0  0  0  0  0  0
   40.7300   23.8930   35.4310 C   0  0  0  0  0  0  0  0  0  0  0  0
   39.3530   24.1190   35.5480 C   0  0  0  0  0  0  0  0  0  0  0  0
   38.7060   23.5430   36.6590 C   0  0  0  0  0  0  0  0  0  0  0  0
   37.6630   23.6000   36.9440 H   0  0  0  0  0  0  0  0  0  0  0  0
   39.3990   22.7910   37.5830 C   0  0  0  0  0  0  0  0  0  0  0  0
   38.9920   22.3180   38.4450 H   0  0  0  0  0  0  0  0  0  0  0  0
   40.7620   22.5980   37.4140 C   0  0  0  0  0  3  0  0  0  0  0  0
   41.4210   23.1430   36.3530 C   0  0  0  0  0  3  0  0  0  0  0  0
   38.5570   27.0290   35.6870 C   0  0  0  0  0  0  0  0  0  0  0  0
   39.9140   27.2290   35.6120 F   0  0  0  0  0  0  0  0  0  0  0  0
   37.9260   28.2330   35.4780 F   0  0  0  0  0  0  0  0  0  0  0  0
   38.2590   26.6110   36.9740 F   0  0  0  0  0  0  0  0  0  0  0  0
  1  2  1  0  0  0  0
  2 20  1  0  0  0  0
  3  2  2  0  0  0  0
  3 13  1  0  0  0  0
  4  3  1  0  0  0  0
  5  6  1  0  0  0  0
  5  4  2  0  0  0  0
  6  1  2  0  0  0  0
  7  9  1  0  0  0  0
  7  5  1  0  0  0  0
  8  1  1  0  0  0  0
 10  7  1  0  0  0  0
 11 12  1  0  0  0  0
 12 13  2  0  0  0  0
 12 19  1  0  0  0  0
 13 14  1  0  0  0  0
 14 15  1  0  0  0  0
 14 16  2  0  0  0  0
 16 17  1  0  0  0  0
 18 16  1  0  0  0  0
 19 18  2  0  0  0  0
 20 23  1  0  0  0  0
 21 20  1  0  0  0  0
 22 20  1  0  0  0  0
M  END
>  <minimizedAffinity>
-5.19301367

$$$$

 OpenBabel03272507563D

 23 24  0  0  0  0  0  0  0  0999 V2000
   41.1540   23.0710   36.5000 C   0  0  0  0  0  0  0  0  0  0  0  0
   40.5090   24.0160   35.6570 C   0  0  0  0  0  0  0  0  0  0  0  0
   39.2340   24.4190   35.9930 C   0  0  0  0  0  0  0  0  0  0  0  0
   38.6500   23.8940   37.1270 N   0  0  0  0  0  0  0  0  0  0  0  0
   39.2950   22.9930   37.9080 C   0  0  0  0  0  0  0  0  0  0  0  0
   40.5420   22.5830   37.6020 N   0  0  0  0  0  0  0  0  0  0  0  0
   38.4950   22.5950   39.0110 N   0  0  0  0  0  0  0  0  0  0  0  0
   42.1590   22.7100   36.3030 H   0  0  0  0  0  0  0  0  0  0  0  0
   37.8900   21.7970   38.6210 H   0  0  0  0  0  0  0  0  0  0  0  0
   38.4580   22.9340   39.9790 H   0  0  0  0  0  0  0  0  0  0  0  0
   37.7660   23.5170   33.5960 Cl  0  0  0  0  0  0  0  0  0  0  0  0
   37.7430   25.2150   34.0850 C   0  0  0  0  0  0  0  0  0  0  0  0
   38.4470   25.3720   35.2860 C   0  0  0  0  0  0  0  0  0  0  0  0
   38.5060   26.6740   35.8230 C   0  0  0  0  0  0  0  0  0  0  0  0
   38.9810   27.0130   36.7330 H   0  0  0  0  0  0  0  0  0  0  0  0
   37.9000   27.7390   35.1910 C   0  0  0  0  0  0  0  0  0  0  0  0
   37.8970   28.7500   35.5210 H   0  0  0  0  0  0  0  0  0  0  0  0
   37.2180   27.5230   34.0020 C   0  0  0  0  0  3  0  0  0  0  0  0
   37.1390   26.2770   33.4560 C   0  0  0  0  0  3  0  0  0  0  0  0
   41.2290   24.5310   34.4660 C   0  0  0  0  0  0  0  0  0  0  0  0
   41.3230   25.9010   34.4860 F   0  0  0  0  0  0  0  0  0  0  0  0
   42.5000   24.0060   34.4740 F   0  0  0  0  0  0  0  0  0  0  0  0
   40.6250   24.1640   33.2740 F   0  0  0  0  0  0  0  0  0  0  0  0
  1  6  1  0  0  0  0
  2  3  1  0  0  0  0
  2  1  2  0  0  0  0
  3  4  2  0  0  0  0
  4  5  1  0  0  0  0
  5  7  1  0  0  0  0
  6  5  2  0  0  0  0
  7 10  1  0  0  0  0
  8  1  1  0  0  0  0
  9  7  1  0  0  0  0
 11 12  1  0  0  0  0
 12 13  1  0  0  0  0
 13 14  2  0  0  0  0
 13  3  1  0  0  0  0
 14 15  1  0  0  0  0
 16 17  1  0  0  0  0
 16 14  1  0  0  0  0
 18 16  2  0  0  0  0
 19 18  1  0  0  0  0
 19 12  2  0  0  0  0
 20 22  1  0  0  0  0
 20 21  1  0  0  0  0
 20  2  1  0  0  0  0
 23 20  1  0  0  0  0
M  END
>  <minimizedAffinity>
-5.00507784

$$$$

 OpenBabel03272507563D

 23 24  0  0  0  0  0  0  0  0999 V2000
   37.0200   21.9360   36.4110 C   0  0  0  0  0  0  0  0  0  0  0  0
   37.9290   23.0260   36.4790 C   0  0  0  0  0  0  0  0  0  0  0  0
   38.4510   23.5090   35.2970 C   0  0  0  0  0  0  0  0  0  0  0  0
   38.0660   22.9160   34.1130 N   0  0  0  0  0  0  0  0  0  0  0  0
   37.1980   21.8770   34.0860 C   0  0  0  0  0  0  0  0  0  0  0  0
   36.6720   21.3870   35.2260 N   0  0  0  0  0  0  0  0  0  0  0  0
   36.9570   21.4340   32.7590 N   0  0  0  0  0  0  0  0  0  0  0  0
   36.5650   21.5060   37.2980 H   0  0  0  0  0  0  0  0  0  0  0  0
   37.7590   20.7470   32.5620 H   0  0  0  0  0  0  0  0  0  0  0  0
   36.2110   21.6640   32.0920 H   0  0  0  0  0  0  0  0  0  0  0  0
   37.3180   26.2200   35.0120 Cl  0  0  0  0  0  0  0  0  0  0  0  0
   39.0630   25.9560   34.9310 C   0  0  0  0  0  0  0  0  0  0  0  0
   39.3500   24.6050   35.1690 C   0  0  0  0  0  0  0  0  0  0  0  0
   40.7090   24.2320   35.1570 C   0  0  0  0  0  0  0  0  0  0  0  0
   41.1480   23.2580   35.3250 H   0  0  0  0  0  0  0  0  0  0  0  0
   41.7050   25.1560   34.9200 C   0  0  0  0  0  0  0  0  0  0  0  0
   42.7500   24.9630   34.8890 H   0  0  0  0  0  0  0  0  0  0  0  0
   41.3600   26.4790   34.6880 C   0  0  0  0  0  3  0  0  0  0  0  0
   40.0570   26.8760   34.6950 C   0  0  0  0  0  3  0  0  0  0  0  0
   38.2690   23.6020   37.8040 C   0  0  0  0  0  0  0  0  0  0  0  0
   38.0550   24.9580   37.8360 F   0  0  0  0  0  0  0  0  0  0  0  0
   37.4630   23.0100   38.7480 F   0  0  0  0  0  0  0  0  0  0  0  0
   39.5870   23.3710   38.1660 F   0  0  0  0  0  0  0  0  0  0  0  0
  1  2  1  0  0  0  0
  1  8  1  0  0  0  0
  2 20  1  0  0  0  0
  3  2  2  0  0  0  0
  4  3  1  0  0  0  0
  5  4  2  0  0  0  0
  5  6  1  0  0  0  0
  6  1  2  0  0  0  0
  7  5  1  0  0  0  0
  9  7  1  0  0  0  0
 10  7  1  0  0  0  0
 12 11  1  0  0  0  0
 12 13  1  0  0  0  0
 13  3  1  0  0  0  0
 14 13  2  0  0  0  0
 14 15  1  0  0  0  0
 16 14  1  0  0  0  0
 17 16  1  0  0  0  0
 18 19  1  0  0  0  0
 18 16  2  0  0  0  0
 19 12  2  0  0  0  0
 20 21  1  0  0  0  0
 20 23  1  0  0  0  0
 20 22  1  0  0  0  0
M  END
>  <minimizedAffinity>
-4.93670654

$$$$

 OpenBabel03272507563D

 23 24  0  0  0  0  0  0  0  0999 V2000
   40.4480   23.6450   35.8150 C   0  0  0  0  0  0  0  0  0  0  0  0
   39.9070   24.7590   35.1190 C   0  0  0  0  0  0  0  0  0  0  0  0
   38.5550   24.7610   34.8490 C   0  0  0  0  0  0  0  0  0  0  0  0
   37.7950   23.6890   35.2680 N   0  0  0  0  0  0  0  0  0  0  0  0
   38.3440   22.6410   35.9280 C   0  0  0  0  0  0  0  0  0  0  0  0
   39.6640   22.6150   36.2050 N   0  0  0  0  0  0  0  0  0  0  0  0
   37.3700   21.6610   36.2510 N   0  0  0  0  0  0  0  0  0  0  0  0
   41.5010   23.5740   36.0670 H   0  0  0  0  0  0  0  0  0  0  0  0
   37.3090   21.0500   35.3690 H   0  0  0  0  0  0  0  0  0  0  0  0
   36.8220   21.5050   37.1050 H   0  0  0  0  0  0  0  0  0  0  0  0
   38.3570   24.6700   31.9050 Cl  0  0  0  0  0  0  0  0  0  0  0  0
   37.6830   26.0260   32.8150 C   0  0  0  0  0  0  0  0  0  0  0  0
   37.8370   25.7980   34.1890 C   0  0  0  0  0  0  0  0  0  0  0  0
   37.3310   26.7850   35.0580 C   0  0  0  0  0  0  0  0  0  0  0  0
   37.3330   26.8050   36.1400 H   0  0  0  0  0  0  0  0  0  0  0  0
   36.7150   27.9200   34.5740 C   0  0  0  0  0  0  0  0  0  0  0  0
   36.3100   28.7140   35.1540 H   0  0  0  0  0  0  0  0  0  0  0  0
   36.5940   28.0930   33.2040 C   0  0  0  0  0  3  0  0  0  0  0  0
   37.0690   27.1580   32.3340 C   0  0  0  0  0  3  0  0  0  0  0  0
   40.8090   25.8700   34.7230 C   0  0  0  0  0  0  0  0  0  0  0  0
   40.4110   27.0640   35.2730 F   0  0  0  0  0  0  0  0  0  0  0  0
   42.0730   25.5790   35.1790 F   0  0  0  0  0  0  0  0  0  0  0  0
   40.8810   26.0370   33.3490 F   0  0  0  0  0  0  0  0  0  0  0  0
  1  8  1  0  0  0  0
  1  6  1  0  0  0  0
  2  1  2  0  0  0  0
  3  2  1  0  0  0  0
  3  4  2  0  0  0  0
  4  5  1  0  0  0  0
  5  6  2  0  0  0  0
  5  7  1  0  0  0  0
  7 10  1  0  0  0  0
  9  7  1  0  0  0  0
 11 12  1  0  0  0  0
 12 13  1  0  0  0  0
 13  3  1  0  0  0  0
 13 14  2  0  0  0  0
 14 15  1  0  0  0  0
 16 14  1  0  0  0  0
 16 17  1  0  0  0  0
 18 16  2  0  0  0  0
 19 12  2  0  0  0  0
 19 18  1  0  0  0  0
 20  2  1  0  0  0  0
 20 22  1  0  0  0  0
 20 21  1  0  0  0  0
 23 20  1  0  0  0  0
M  END
>  <minimizedAffinity>
-4.77147961

$$$$

 OpenBabel03272507563D

 23 24  0  0  0  0  0  0  0  0999 V2000
   30.6630   28.7900   33.9840 C   0  0  0  0  0  0  0  0  0  0  0  0
   31.5400   29.8730   34.2580 C   0  0  0  0  0  0  0  0  0  0  0  0
   32.2880   29.8230   35.4160 C   0  0  0  0  0  0  0  0  0  0  0  0
   32.1550   28.7290   36.2440 N   0  0  0  0  0  0  0  0  0  0  0  0
   31.3070   27.7130   35.9510 C   0  0  0  0  0  0  0  0  0  0  0  0
   30.5650   27.7370   34.8260 N   0  0  0  0  0  0  0  0  0  0  0  0
   31.3380   26.7050   36.9500 N   0  0  0  0  0  0  0  0  0  0  0  0
   30.0450   28.7560   33.0920 H   0  0  0  0  0  0  0  0  0  0  0  0
   30.6420   27.0500   37.6920 H   0  0  0  0  0  0  0  0  0  0  0  0
   31.8670   25.8270   37.0100 H   0  0  0  0  0  0  0  0  0  0  0  0
   35.0610   29.6100   34.4240 Cl  0  0  0  0  0  0  0  0  0  0  0  0
   34.6100   30.8610   35.5870 C   0  0  0  0  0  0  0  0  0  0  0  0
   33.2340   30.8000   35.8400 C   0  0  0  0  0  0  0  0  0  0  0  0
   32.7100   31.7510   36.7390 C   0  0  0  0  0  0  0  0  0  0  0  0
   31.6870   31.8880   37.0630 H   0  0  0  0  0  0  0  0  0  0  0  0
   33.5170   32.6920   37.3390 C   0  0  0  0  0  0  0  0  0  0  0  0
   33.2090   33.4410   38.0300 H   0  0  0  0  0  0  0  0  0  0  0  0
   34.8740   32.7030   37.0520 C   0  0  0  0  0  3  0  0  0  0  0  0
   35.4150   31.8010   36.1860 C   0  0  0  0  0  3  0  0  0  0  0  0
   31.6190   31.0000   33.2950 C   0  0  0  0  0  0  0  0  0  0  0  0
   32.8830   31.1290   32.7740 F   0  0  0  0  0  0  0  0  0  0  0  0
   30.7460   30.7450   32.2650 F   0  0  0  0  0  0  0  0  0  0  0  0
   31.2670   32.2150   33.8610 F   0  0  0  0  0  0  0  0  0  0  0  0
  1  2  2  0  0  0  0
  1  6  1  0  0  0  0
  2  3  1  0  0  0  0
  3 13  1  0  0  0  0
  3  4  2  0  0  0  0
  5  4  1  0  0  0  0
  5  7  1  0  0  0  0
  6  5  2  0  0  0  0
  7 10  1  0  0  0  0
  7  9  1  0  0  0  0
  8  1  1  0  0  0  0
 11 12  1  0  0  0  0
 12 13  2  0  0  0  0
 12 19  1  0  0  0  0
 13 14  1  0  0  0  0
 14 15  1  0  0  0  0
 14 16  2  0  0  0  0
 16 17  1  0  0  0  0
 18 16  1  0  0  0  0
 19 18  2  0  0  0  0
 20 23  1  0  0  0  0
 20  2  1  0  0  0  0
 21 20  1  0  0  0  0
 22 20  1  0  0  0  0
M  END
>  <minimizedAffinity>
-4.71598768

$$$$

 OpenBabel03272507563D

 23 24  0  0  0  0  0  0  0  0999 V2000
   40.1300   22.7500   37.5130 C   0  0  0  0  0  0  0  0  0  0  0  0
   39.1610   23.3420   36.6600 C   0  0  0  0  0  0  0  0  0  0  0  0
   39.5970   23.9090   35.4800 C   0  0  0  0  0  0  0  0  0  0  0  0
   40.9430   23.8700   35.1850 N   0  0  0  0  0  0  0  0  0  0  0  0
   41.8400   23.2980   36.0230 C   0  0  0  0  0  0  0  0  0  0  0  0
   41.4410   22.7360   37.1820 N   0  0  0  0  0  0  0  0  0  0  0  0
   43.1610   23.3830   35.5100 N   0  0  0  0  0  0  0  0  0  0  0  0
   39.8640   22.2810   38.4550 H   0  0  0  0  0  0  0  0  0  0  0  0
   43.5050   24.3500   35.8300 H   0  0  0  0  0  0  0  0  0  0  0  0
   43.7210   22.7170   34.9650 H   0  0  0  0  0  0  0  0  0  0  0  0
   39.1160   26.8160   35.6680 Cl  0  0  0  0  0  0  0  0  0  0  0  0
   38.3250   25.8470   34.4200 C   0  0  0  0  0  0  0  0  0  0  0  0
   38.7710   24.5210   34.4940 C   0  0  0  0  0  0  0  0  0  0  0  0
   38.2450   23.6190   33.5490 C   0  0  0  0  0  0  0  0  0  0  0  0
   38.4590   22.5660   33.4210 H   0  0  0  0  0  0  0  0  0  0  0  0
   37.3330   24.0260   32.5990 C   0  0  0  0  0  0  0  0  0  0  0  0
   36.8830   23.4150   31.8530 H   0  0  0  0  0  0  0  0  0  0  0  0
   36.9250   25.3510   32.5750 C   0  0  0  0  0  3  0  0  0  0  0  0
   37.4150   26.2520   33.4730 C   0  0  0  0  0  3  0  0  0  0  0  0
   37.7330   23.3210   37.0640 C   0  0  0  0  0  0  0  0  0  0  0  0
   37.0130   22.4140   36.3250 F   0  0  0  0  0  0  0  0  0  0  0  0
   37.6680   22.9540   38.3880 F   0  0  0  0  0  0  0  0  0  0  0  0
   37.1210   24.5570   36.9350 F   0  0  0  0  0  0  0  0  0  0  0  0
  1  8  1  0  0  0  0
  2 20  1  0  0  0  0
  2  1  2  0  0  0  0
  3  2  1  0  0  0  0
  4  3  2  0  0  0  0
  4  5  1  0  0  0  0
  5  6  2  0  0  0  0
  6  1  1  0  0  0  0
  7  9  1  0  0  0  0
  7  5  1  0  0  0  0
 10  7  1  0  0  0  0
 12 13  1  0  0  0  0
 12 11  1  0  0  0  0
 13  3  1  0  0  0  0
 14 13  2  0  0  0  0
 15 14  1  0  0  0  0
 16 14  1  0  0  0  0
 17 16  1  0  0  0  0
 18 16  2  0  0  0  0
 18 19  1  0  0  0  0
 19 12  2  0  0  0  0
 20 22  1  0  0  0  0
 21 20  1  0  0  0  0
 23 20  1  0  0  0  0
M  END
>  <minimizedAffinity>
-4.67806053

$$$$

 OpenBabel03272507563D

 23 24  0  0  0  0  0  0  0  0999 V2000
   35.3430   26.2360   31.1460 C   0  0  0  0  0  0  0  0  0  0  0  0
   36.4770   26.7430   31.8360 C   0  0  0  0  0  0  0  0  0  0  0  0
   37.3600   25.8360   32.3850 C   0  0  0  0  0  0  0  0  0  0  0  0
   37.1040   24.4900   32.2350 N   0  0  0  0  0  0  0  0  0  0  0  0
   36.0120   24.0410   31.5720 C   0  0  0  0  0  0  0  0  0  0  0  0
   35.1330   24.9060   31.0260 N   0  0  0  0  0  0  0  0  0  0  0  0
   35.9600   22.6230   31.5530 N   0  0  0  0  0  0  0  0  0  0  0  0
   34.6070   26.8870   30.6850 H   0  0  0  0  0  0  0  0  0  0  0  0
   35.4810   22.3650   32.4800 H   0  0  0  0  0  0  0  0  0  0  0  0
   36.2740   21.9430   30.8510 H   0  0  0  0  0  0  0  0  0  0  0  0
   37.2090   26.2370   35.3060 Cl  0  0  0  0  0  0  0  0  0  0  0  0
   38.7280   26.4820   34.4360 C   0  0  0  0  0  0  0  0  0  0  0  0
   38.5580   26.1580   33.0840 C   0  0  0  0  0  0  0  0  0  0  0  0
   39.6900   26.2820   32.2530 C   0  0  0  0  0  0  0  0  0  0  0  0
   39.7820   26.0760   31.1950 H   0  0  0  0  0  0  0  0  0  0  0  0
   40.9030   26.7060   32.7520 C   0  0  0  0  0  0  0  0  0  0  0  0
   41.8030   26.8320   32.2000 H   0  0  0  0  0  0  0  0  0  0  0  0
   41.0110   27.0150   34.0990 C   0  0  0  0  0  3  0  0  0  0  0  0
   39.9380   26.9040   34.9330 C   0  0  0  0  0  3  0  0  0  0  0  0
   36.6680   28.2120   31.9300 C   0  0  0  0  0  0  0  0  0  0  0  0
   37.8360   28.6080   31.3260 F   0  0  0  0  0  0  0  0  0  0  0  0
   35.6160   28.8220   31.2890 F   0  0  0  0  0  0  0  0  0  0  0  0
   36.6910   28.6660   33.2390 F   0  0  0  0  0  0  0  0  0  0  0  0
  1  2  1  0  0  0  0
  2 20  1  0  0  0  0
  2  3  2  0  0  0  0
  3 13  1  0  0  0  0
  4  3  1  0  0  0  0
  5  4  2  0  0  0  0
  6  1  2  0  0  0  0
  6  5  1  0  0  0  0
  7  5  1  0  0  0  0
  7  9  1  0  0  0  0
  8  1  1  0  0  0  0
 10  7  1  0  0  0  0
 12 19  1  0  0  0  0
 12 11  1  0  0  0  0
 13 12  2  0  0  0  0
 14 16  2  0  0  0  0
 14 13  1  0  0  0  0
 15 14  1  0  0  0  0
 16 18  1  0  0  0  0
 17 16  1  0  0  0  0
 18 19  2  0  0  0  0
 20 23  1  0  0  0  0
 21 20  1  0  0  0  0
 22 20  1  0  0  0  0
M  END
>  <minimizedAffinity>
-4.66487122

$$$$
