
 OpenBabel03272509463D

 25 26  0  0  0  0  0  0  0  0999 V2000
   34.7550   30.3290   45.1280 C   0  0  0  0  0  0  0  0  0  0  0  0
   33.8360   30.9330   45.2130 H   0  0  0  0  0  0  0  0  0  0  0  0
   35.5420   30.9440   45.6450 H   0  0  0  0  0  0  0  0  0  0  0  0
   35.2290   30.1820   43.7120 C   0  0  0  0  0  0  0  0  0  0  0  0
   35.1010   31.1730   43.1870 H   0  0  0  0  0  0  0  0  0  0  0  0
   34.6290   29.4480   43.1360 H   0  0  0  0  0  0  0  0  0  0  0  0
   37.4360   32.2580   44.3280 Cl  0  0  0  0  0  0  0  0  0  0  0  0
   37.7440   30.6130   43.8120 C   0  0  0  0  0  0  0  0  0  0  0  0
   36.6460   29.8150   43.5690 C   0  0  0  0  0  0  0  0  0  0  0  0
   36.9830   28.5260   43.1540 C   0  0  0  0  0  0  0  0  0  0  0  0
   36.1450   27.8420   42.9440 H   0  0  0  0  0  0  0  0  0  0  0  0
   38.2520   28.0190   42.9770 C   0  0  0  0  0  0  0  0  0  0  0  0
   38.3970   27.0090   42.6530 H   0  0  0  0  0  0  0  0  0  0  0  0
   39.2820   28.9160   43.2520 C   0  0  0  0  0  3  0  0  0  0  0  0
   39.0540   30.2140   43.6700 C   0  0  0  0  0  3  0  0  0  0  0  0
   34.6180   29.0920   45.7770 O   0  0  0  0  0  0  0  0  0  0  0  0
   34.2710   28.1710   49.2580 C   0  0  0  0  0  0  0  0  0  0  0  0
   34.6040   29.3950   49.8560 C   0  0  0  0  0  0  0  0  0  0  0  0
   34.9300   30.4740   49.0460 C   0  0  0  0  0  0  0  0  0  0  0  0
   34.9030   30.2580   47.6930 N   0  0  0  0  0  0  0  0  0  0  0  0
   34.5770   29.0670   47.1490 C   0  0  0  0  0  0  0  0  0  0  0  0
   34.2640   28.0310   47.9490 N   0  0  0  0  0  0  0  0  0  0  0  0
   34.0260   27.3710   49.9400 H   0  0  0  0  0  0  0  0  0  0  0  0
   34.6210   29.5480   50.9290 H   0  0  0  0  0  0  0  0  0  0  0  0
   35.1970   31.4460   49.4410 H   0  0  0  0  0  0  0  0  0  0  0  0
  1  2  1  0  0  0  0
  1  3  1  0  0  0  0
  1 16  1  0  0  0  0
  4  1  1  0  0  0  0
  5  4  1  0  0  0  0
  6  4  1  0  0  0  0
  8  7  1  0  0  0  0
  9  4  1  0  0  0  0
  9  8  2  0  0  0  0
 10  9  1  0  0  0  0
 11 10  1  0  0  0  0
 12 10  2  0  0  0  0
 12 14  1  0  0  0  0
 13 12  1  0  0  0  0
 14 15  2  0  0  0  0
 15  8  1  0  0  0  0
 16 21  1  0  0  0  0
 17 18  1  0  0  0  0
 17 23  1  0  0  0  0
 18 24  1  0  0  0  0
 19 25  1  0  0  0  0
 19 18  2  0  0  0  0
 20 19  1  0  0  0  0
 21 20  2  0  0  0  0
 21 22  1  0  0  0  0
 22 17  2  0  0  0  0
M  END
>  <minimizedAffinity>
-3.17850733

>  <minimizedRMSD>
7.05661345

$$$$
