
 OpenBabel03272507553D

 23 24  0  0  0  0  0  0  0  0999 V2000
   35.1620   29.0620   50.1380 C   0  0  0  0  0  0  0  0  0  0  0  0
   36.3700   29.7560   49.8610 C   0  0  0  0  0  0  0  0  0  0  0  0
   36.4360   30.5070   48.7050 C   0  0  0  0  0  0  0  0  0  0  0  0
   35.3310   30.5510   47.8810 N   0  0  0  0  0  0  0  0  0  0  0  0
   34.1940   29.8750   48.1760 C   0  0  0  0  0  0  0  0  0  0  0  0
   34.1040   29.1350   49.2990 N   0  0  0  0  0  0  0  0  0  0  0  0
   33.2010   30.0690   47.1820 N   0  0  0  0  0  0  0  0  0  0  0  0
   35.0340   28.4550   51.0280 H   0  0  0  0  0  0  0  0  0  0  0  0
   33.4270   29.3280   46.4360 H   0  0  0  0  0  0  0  0  0  0  0  0
   32.4170   30.7300   47.1260 H   0  0  0  0  0  0  0  0  0  0  0  0
   36.9330   33.0870   50.0500 Cl  0  0  0  0  0  0  0  0  0  0  0  0
   37.9340   32.5680   48.6900 C   0  0  0  0  0  0  0  0  0  0  0  0
   37.5480   31.2860   48.2790 C   0  0  0  0  0  0  0  0  0  0  0  0
   38.2680   30.7180   47.2080 C   0  0  0  0  0  0  0  0  0  0  0  0
   38.1450   29.7480   46.7450 H   0  0  0  0  0  0  0  0  0  0  0  0
   39.2990   31.3970   46.5960 C   0  0  0  0  0  0  0  0  0  0  0  0
   39.8900   31.0490   45.7830 H   0  0  0  0  0  0  0  0  0  0  0  0
   39.6350   32.6660   47.0450 C   0  0  0  0  0  0  0  0  0  0  0  0
   38.9630   33.2450   48.0790 C   0  0  0  0  0  0  0  0  0  0  0  0
   37.4980   29.6530   50.8190 C   0  0  0  0  0  0  0  0  0  0  0  0
   38.6000   30.3450   50.3780 F   0  0  0  0  0  0  0  0  0  0  0  0
   37.0940   30.1940   52.0170 F   0  0  0  0  0  0  0  0  0  0  0  0
   37.8850   28.3430   51.0540 F   0  0  0  0  0  0  0  0  0  0  0  0
  1  8  1  0  0  0  0
  2  1  1  0  0  0  0
  2 20  1  0  0  0  0
  3  2  2  0  0  0  0
  4  5  2  0  0  0  0
  4  3  1  0  0  0  0
  5  6  1  0  0  0  0
  6  1  2  0  0  0  0
  7  5  1  0  0  0  0
  9  7  1  0  0  0  0
 10  7  1  0  0  0  0
 12 11  1  0  0  0  0
 13 12  1  0  0  0  0
 13  3  1  0  0  0  0
 14 13  2  0  0  0  0
 15 14  1  0  0  0  0
 16 18  2  0  0  0  0
 16 14  1  0  0  0  0
 17 16  1  0  0  0  0
 18 19  1  0  0  0  0
 19 12  2  0  0  0  0
 20 23  1  0  0  0  0
 20 22  1  0  0  0  0
 21 20  1  0  0  0  0
M  END
>  <minimizedAffinity>
-6.55062437

>  <minimizedRMSD>
1.62580061

$$$$
