
 OpenBabel03272510303D

 28 30  0  0  0  0  0  0  0  0999 V2000
   37.4470   31.3770   49.3030 C   0  0  0  0  0  0  0  0  0  0  0  0
   37.8450   32.6980   49.5290 C   0  0  0  0  0  0  0  0  0  0  0  0
   38.6540   33.2560   48.5640 C   0  0  0  0  0  0  0  0  0  0  0  0
   39.0110   32.5230   47.4810 N   0  0  0  0  0  0  0  0  0  0  0  0
   38.6150   31.2440   47.2780 C   0  0  0  0  0  0  0  0  0  0  0  0
   37.8090   30.6620   48.2230 N   0  0  0  0  0  0  0  0  0  0  0  0
   37.5020   33.1870   50.4240 H   0  0  0  0  0  0  0  0  0  0  0  0
   38.9860   34.2780   48.7020 H   0  0  0  0  0  0  0  0  0  0  0  0
   36.5360   30.7430   50.3230 C   0  0  0  0  0  0  0  0  0  0  0  0
   36.4500   29.3170   50.5060 C   0  0  0  0  0  0  0  0  0  0  0  0
   37.3120   30.0970   51.4780 C   0  0  0  0  0  0  0  0  0  0  0  0
   35.6940   31.3950   50.7120 H   0  0  0  0  0  0  0  0  0  0  0  0
   37.0170   28.6790   49.7670 H   0  0  0  0  0  0  0  0  0  0  0  0
   35.5290   28.8340   50.8410 H   0  0  0  0  0  0  0  0  0  0  0  0
   36.8810   30.1500   52.5040 H   0  0  0  0  0  0  0  0  0  0  0  0
   38.4030   29.9710   51.3760 H   0  0  0  0  0  0  0  0  0  0  0  0
   38.9660   30.4250   46.1210 C   0  0  0  0  0  0  0  0  0  0  0  0
   38.7420   29.3530   46.3610 H   0  0  0  0  0  0  0  0  0  0  0  0
   40.0610   30.4980   45.9630 H   0  0  0  0  0  0  0  0  0  0  0  0
   40.7230   30.9450   43.6880 Cl  0  0  0  0  0  0  0  0  0  0  0  0
   38.9800   31.1070   43.6820 C   0  0  0  0  0  0  0  0  0  0  0  0
   38.3190   30.8370   44.8620 C   0  0  0  0  0  0  0  0  0  0  0  0
   36.9320   30.9900   44.7740 C   0  0  0  0  0  0  0  0  0  0  0  0
   36.3720   30.7860   45.6900 H   0  0  0  0  0  0  0  0  0  0  0  0
   36.2170   31.3690   43.6540 C   0  0  0  0  0  0  0  0  0  0  0  0
   35.1420   31.4460   43.7370 H   0  0  0  0  0  0  0  0  0  0  0  0
   36.9570   31.6230   42.5070 C   0  0  0  0  0  3  0  0  0  0  0  0
   38.3440   31.4900   42.5190 C   0  0  0  0  0  3  0  0  0  0  0  0
  1  2  1  0  0  0  0
  1  9  1  0  0  0  0
  2  7  1  0  0  0  0
  3  8  1  0  0  0  0
  3  2  2  0  0  0  0
  4  3  1  0  0  0  0
  5  4  2  0  0  0  0
  5  6  1  0  0  0  0
  6  1  2  0  0  0  0
  9 10  1  0  0  0  0
  9 12  1  0  0  0  0
  9 11  1  0  0  0  0
 10 14  1  0  0  0  0
 10 11  1  0  0  0  0
 11 15  1  0  0  0  0
 13 10  1  0  0  0  0
 16 11  1  0  0  0  0
 17 18  1  0  0  0  0
 17  5  1  0  0  0  0
 19 17  1  0  0  0  0
 21 20  1  0  0  0  0
 21 22  1  0  0  0  0
 22 17  1  0  0  0  0
 23 22  2  0  0  0  0
 23 24  1  0  0  0  0
 25 26  1  0  0  0  0
 25 23  1  0  0  0  0
 27 28  1  0  0  0  0
 27 25  2  0  0  0  0
 28 21  2  0  0  0  0
M  END
>  <minimizedAffinity>
-5.26738024

>  <minimizedRMSD>
0.344328493

$$$$
