
 OpenBabel03272505283D

 31 33  0  0  0  0  0  0  0  0999 V2000
   37.9440   24.8610   32.4560 N   0  0  0  0  0  0  0  0  0  0  0  0
   38.3540   24.7160   33.7450 C   0  0  0  0  0  0  0  0  0  0  0  0
   38.0640   23.5880   34.4980 C   0  0  0  0  0  0  0  0  0  0  0  0
   37.3160   22.5790   33.8680 C   0  0  0  0  0  0  0  0  0  0  0  0
   37.0290   21.5410   34.5030 O   0  0  0  0  0  0  0  0  0  0  0  0
   36.9030   22.7210   32.5720 N   0  0  0  0  0  0  0  0  0  0  0  0
   37.2480   23.8580   31.9550 C   0  0  0  0  0  0  0  0  0  0  0  0
   36.8500   23.9510   30.7740 O   0  0  0  0  0  0  0  0  0  0  0  0
   38.9340   25.4940   34.2400 H   0  0  0  0  0  0  0  0  0  0  0  0
   37.7900   28.2750   31.0090 C   0  0  0  0  0  0  0  0  0  0  0  0
   37.4670   27.1340   31.7660 C   0  0  0  0  0  0  0  0  0  0  0  0
   38.2440   26.0040   31.7090 C   0  0  0  0  0  0  0  0  0  0  0  0
   39.3420   26.0170   30.8960 N   0  0  0  0  0  0  0  0  0  0  0  0
   39.6710   27.1140   30.1550 C   0  0  0  0  0  0  0  0  0  0  0  0
   38.8990   28.2360   30.2120 N   0  0  0  0  0  0  0  0  0  0  0  0
   37.2200   29.1930   31.0110 H   0  0  0  0  0  0  0  0  0  0  0  0
   36.5860   27.2970   32.3250 H   0  0  0  0  0  0  0  0  0  0  0  0
   40.5570   27.0390   29.5360 H   0  0  0  0  0  0  0  0  0  0  0  0
   40.6560   22.0990   34.9720 Cl  0  0  0  0  0  0  0  0  0  0  0  0
   39.6730   22.7960   36.2690 C   0  0  0  0  0  0  0  0  0  0  0  0
   38.5110   23.4490   35.8810 C   0  0  0  0  0  0  0  0  0  0  0  0
   37.6920   24.0190   36.8460 C   0  0  0  0  0  0  0  0  0  0  0  0
   36.7710   24.5410   36.6030 H   0  0  0  0  0  0  0  0  0  0  0  0
   38.0180   23.9480   38.2040 C   0  0  0  0  0  0  0  0  0  0  0  0
   37.3680   24.4000   38.9580 H   0  0  0  0  0  0  0  0  0  0  0  0
   39.1870   23.2890   38.5640 C   0  0  0  0  0  3  0  0  0  0  0  0
   40.0050   22.7220   37.6200 C   0  0  0  0  0  3  0  0  0  0  0  0
   36.1360   21.6780   31.9350 C   0  0  0  0  0  0  0  0  0  0  0  0
   35.5670   22.1450   30.7900 F   0  0  0  0  0  0  0  0  0  0  0  0
   35.1140   21.1910   32.7330 F   0  0  0  0  0  0  0  0  0  0  0  0
   37.0020   20.6420   31.5850 F   0  0  0  0  0  0  0  0  0  0  0  0
  1  2  1  0  0  0  0
  2  9  1  0  0  0  0
  2  3  2  0  0  0  0
  3 21  1  0  0  0  0
  4  3  1  0  0  0  0
  4  5  2  0  0  0  0
  6  4  1  0  0  0  0
  7  1  1  0  0  0  0
  7  6  1  0  0  0  0
  8  7  2  0  0  0  0
 10 16  1  0  0  0  0
 10 11  1  0  0  0  0
 11 17  1  0  0  0  0
 12 11  2  0  0  0  0
 12  1  1  0  0  0  0
 13 12  1  0  0  0  0
 14 15  1  0  0  0  0
 14 13  2  0  0  0  0
 15 10  2  0  0  0  0
 18 14  1  0  0  0  0
 19 20  1  0  0  0  0
 20 27  1  0  0  0  0
 21 20  2  0  0  0  0
 21 22  1  0  0  0  0
 22 24  2  0  0  0  0
 23 22  1  0  0  0  0
 24 26  1  0  0  0  0
 24 25  1  0  0  0  0
 27 26  2  0  0  0  0
 28  6  1  0  0  0  0
 28 30  1  0  0  0  0
 29 28  1  0  0  0  0
 31 28  1  0  0  0  0
M  END
>  <minimizedAffinity>
-5.87688828

$$$$

 OpenBabel03272505283D

 31 33  0  0  0  0  0  0  0  0999 V2000
   38.0550   23.5760   34.2730 N   0  0  0  0  0  0  0  0  0  0  0  0
   38.0540   24.8240   33.7330 C   0  0  0  0  0  0  0  0  0  0  0  0
   37.4010   25.1240   32.5470 C   0  0  0  0  0  0  0  0  0  0  0  0
   36.7240   24.0700   31.9110 C   0  0  0  0  0  0  0  0  0  0  0  0
   36.1170   24.2890   30.8390 O   0  0  0  0  0  0  0  0  0  0  0  0
   36.7220   22.8140   32.4500 N   0  0  0  0  0  0  0  0  0  0  0  0
   37.3910   22.6550   33.5990 C   0  0  0  0  0  0  0  0  0  0  0  0
   37.3680   21.4930   34.0590 O   0  0  0  0  0  0  0  0  0  0  0  0
   38.5760   25.6470   34.2210 H   0  0  0  0  0  0  0  0  0  0  0  0
   38.8510   23.2730   37.8850 C   0  0  0  0  0  0  0  0  0  0  0  0
   38.1670   23.5750   36.6930 C   0  0  0  0  0  0  0  0  0  0  0  0
   38.7180   23.2880   35.4690 C   0  0  0  0  0  0  0  0  0  0  0  0
   39.9500   22.6980   35.4390 N   0  0  0  0  0  0  0  0  0  0  0  0
   40.6280   22.3970   36.5840 C   0  0  0  0  0  0  0  0  0  0  0  0
   40.0810   22.6830   37.7990 N   0  0  0  0  0  0  0  0  0  0  0  0
   38.4720   23.4730   38.8770 H   0  0  0  0  0  0  0  0  0  0  0  0
   37.2400   24.0350   36.9040 H   0  0  0  0  0  0  0  0  0  0  0  0
   41.5990   21.9310   36.4690 H   0  0  0  0  0  0  0  0  0  0  0  0
   39.5060   25.7350   30.4600 Cl  0  0  0  0  0  0  0  0  0  0  0  0
   38.3070   26.9120   31.0180 C   0  0  0  0  0  0  0  0  0  0  0  0
   37.4100   26.4710   31.9810 C   0  0  0  0  0  0  0  0  0  0  0  0
   36.4420   27.3410   32.4650 C   0  0  0  0  0  0  0  0  0  0  0  0
   35.7150   27.0520   33.2180 H   0  0  0  0  0  0  0  0  0  0  0  0
   36.3550   28.6560   31.9980 C   0  0  0  0  0  0  0  0  0  0  0  0
   35.5900   29.3350   32.3830 H   0  0  0  0  0  0  0  0  0  0  0  0
   37.2660   29.0700   31.0330 C   0  0  0  0  0  3  0  0  0  0  0  0
   38.2250   28.2200   30.5470 C   0  0  0  0  0  3  0  0  0  0  0  0
   36.0230   21.7390   31.7880 C   0  0  0  0  0  0  0  0  0  0  0  0
   35.2980   22.2230   30.7430 F   0  0  0  0  0  0  0  0  0  0  0  0
   35.1450   21.0670   32.6230 F   0  0  0  0  0  0  0  0  0  0  0  0
   36.9660   20.8480   31.2720 F   0  0  0  0  0  0  0  0  0  0  0  0
  1 12  1  0  0  0  0
  2  9  1  0  0  0  0
  2  1  1  0  0  0  0
  3  2  2  0  0  0  0
  4  6  1  0  0  0  0
  4  3  1  0  0  0  0
  5  4  2  0  0  0  0
  6  7  1  0  0  0  0
  7  8  2  0  0  0  0
  7  1  1  0  0  0  0
 10 16  1  0  0  0  0
 11 17  1  0  0  0  0
 11 10  2  0  0  0  0
 12 11  1  0  0  0  0
 13 12  2  0  0  0  0
 13 14  1  0  0  0  0
 14 15  2  0  0  0  0
 15 10  1  0  0  0  0
 18 14  1  0  0  0  0
 19 20  1  0  0  0  0
 20 21  1  0  0  0  0
 21 22  2  0  0  0  0
 21  3  1  0  0  0  0
 22 23  1  0  0  0  0
 24 25  1  0  0  0  0
 24 22  1  0  0  0  0
 26 24  2  0  0  0  0
 27 20  2  0  0  0  0
 27 26  1  0  0  0  0
 28  6  1  0  0  0  0
 28 30  1  0  0  0  0
 29 28  1  0  0  0  0
 31 28  1  0  0  0  0
M  END
>  <minimizedAffinity>
-5.85818481

$$$$

 OpenBabel03272505283D

 31 33  0  0  0  0  0  0  0  0999 V2000
   37.4430   25.1900   32.5070 N   0  0  0  0  0  0  0  0  0  0  0  0
   38.1130   24.8870   33.6510 C   0  0  0  0  0  0  0  0  0  0  0  0
   38.1300   23.6100   34.1900 C   0  0  0  0  0  0  0  0  0  0  0  0
   37.4170   22.6180   33.4950 C   0  0  0  0  0  0  0  0  0  0  0  0
   37.4020   21.4480   33.9390 O   0  0  0  0  0  0  0  0  0  0  0  0
   36.7430   22.9190   32.3440 N   0  0  0  0  0  0  0  0  0  0  0  0
   36.8040   24.1900   31.9290 C   0  0  0  0  0  0  0  0  0  0  0  0
   36.1740   24.4250   30.8760 O   0  0  0  0  0  0  0  0  0  0  0  0
   38.6680   25.6510   34.1950 H   0  0  0  0  0  0  0  0  0  0  0  0
   38.3660   28.2190   30.5710 C   0  0  0  0  0  0  0  0  0  0  0  0
   38.3970   26.9150   31.0970 C   0  0  0  0  0  0  0  0  0  0  0  0
   37.4340   26.4830   31.9750 C   0  0  0  0  0  0  0  0  0  0  0  0
   36.4430   27.3560   32.3250 N   0  0  0  0  0  0  0  0  0  0  0  0
   36.3960   28.6240   31.8260 C   0  0  0  0  0  0  0  0  0  0  0  0
   37.3520   29.0530   30.9540 N   0  0  0  0  0  0  0  0  0  0  0  0
   39.0920   28.6180   29.8770 H   0  0  0  0  0  0  0  0  0  0  0  0
   39.2330   26.3860   30.7280 H   0  0  0  0  0  0  0  0  0  0  0  0
   35.5770   29.2510   32.1560 H   0  0  0  0  0  0  0  0  0  0  0  0
   40.9420   22.5240   33.9080 Cl  0  0  0  0  0  0  0  0  0  0  0  0
   40.1470   22.7980   35.4660 C   0  0  0  0  0  0  0  0  0  0  0  0
   38.8540   23.3020   35.4200 C   0  0  0  0  0  0  0  0  0  0  0  0
   38.1700   23.5400   36.6050 C   0  0  0  0  0  0  0  0  0  0  0  0
   37.1580   23.9330   36.6310 H   0  0  0  0  0  0  0  0  0  0  0  0
   38.7610   23.2830   37.8450 C   0  0  0  0  0  0  0  0  0  0  0  0
   38.2170   23.4730   38.7730 H   0  0  0  0  0  0  0  0  0  0  0  0
   40.0570   22.7790   37.8610 C   0  0  0  0  0  3  0  0  0  0  0  0
   40.7430   22.5400   36.6990 C   0  0  0  0  0  3  0  0  0  0  0  0
   36.0140   21.8920   31.6390 C   0  0  0  0  0  0  0  0  0  0  0  0
   35.1970   22.4520   30.7060 F   0  0  0  0  0  0  0  0  0  0  0  0
   35.2200   21.1210   32.4720 F   0  0  0  0  0  0  0  0  0  0  0  0
   36.9300   21.0800   30.9680 F   0  0  0  0  0  0  0  0  0  0  0  0
  1  2  1  0  0  0  0
  2  3  2  0  0  0  0
  2  9  1  0  0  0  0
  3 21  1  0  0  0  0
  4  5  2  0  0  0  0
  4  3  1  0  0  0  0
  6  4  1  0  0  0  0
  7  6  1  0  0  0  0
  7  1  1  0  0  0  0
  8  7  2  0  0  0  0
 10 15  2  0  0  0  0
 10 11  1  0  0  0  0
 11 12  2  0  0  0  0
 12 13  1  0  0  0  0
 12  1  1  0  0  0  0
 14 18  1  0  0  0  0
 14 13  2  0  0  0  0
 15 14  1  0  0  0  0
 16 10  1  0  0  0  0
 17 11  1  0  0  0  0
 19 20  1  0  0  0  0
 20 27  1  0  0  0  0
 21 20  2  0  0  0  0
 21 22  1  0  0  0  0
 22 23  1  0  0  0  0
 22 24  2  0  0  0  0
 24 26  1  0  0  0  0
 24 25  1  0  0  0  0
 27 26  2  0  0  0  0
 28  6  1  0  0  0  0
 28 30  1  0  0  0  0
 29 28  1  0  0  0  0
 31 28  1  0  0  0  0
M  END
>  <minimizedAffinity>
-5.80364037

$$$$

 OpenBabel03272505283D

 31 33  0  0  0  0  0  0  0  0999 V2000
   38.0620   23.6930   34.6060 N   0  0  0  0  0  0  0  0  0  0  0  0
   37.9560   22.6620   33.7250 C   0  0  0  0  0  0  0  0  0  0  0  0
   37.5750   22.8450   32.4050 C   0  0  0  0  0  0  0  0  0  0  0  0
   37.2970   24.1620   32.0010 C   0  0  0  0  0  0  0  0  0  0  0  0
   36.9510   24.3810   30.8190 O   0  0  0  0  0  0  0  0  0  0  0  0
   37.4030   25.2010   32.8840 N   0  0  0  0  0  0  0  0  0  0  0  0
   37.7800   24.8920   34.1300 C   0  0  0  0  0  0  0  0  0  0  0  0
   37.8620   25.8670   34.9060 O   0  0  0  0  0  0  0  0  0  0  0  0
   38.1700   21.6380   34.0310 H   0  0  0  0  0  0  0  0  0  0  0  0
   40.0980   22.9520   37.6200 C   0  0  0  0  0  0  0  0  0  0  0  0
   39.7300   23.1430   36.2750 C   0  0  0  0  0  0  0  0  0  0  0  0
   38.4480   23.4930   35.9350 C   0  0  0  0  0  0  0  0  0  0  0  0
   37.5350   23.6520   36.9390 N   0  0  0  0  0  0  0  0  0  0  0  0
   37.8720   23.4710   38.2490 C   0  0  0  0  0  0  0  0  0  0  0  0
   39.1460   23.1230   38.5860 N   0  0  0  0  0  0  0  0  0  0  0  0
   41.0890   22.6760   37.9510 H   0  0  0  0  0  0  0  0  0  0  0  0
   40.5540   22.9690   35.6370 H   0  0  0  0  0  0  0  0  0  0  0  0
   37.0880   23.6160   38.9810 H   0  0  0  0  0  0  0  0  0  0  0  0
   34.9350   21.3660   32.3170 Cl  0  0  0  0  0  0  0  0  0  0  0  0
   36.3290   20.9470   31.3100 C   0  0  0  0  0  0  0  0  0  0  0  0
   37.4660   21.7270   31.4720 C   0  0  0  0  0  0  0  0  0  0  0  0
   38.5970   21.4540   30.7140 C   0  0  0  0  0  0  0  0  0  0  0  0
   39.5140   22.0290   30.7990 H   0  0  0  0  0  0  0  0  0  0  0  0
   38.6110   20.4070   29.7890 C   0  0  0  0  0  0  0  0  0  0  0  0
   39.5050   20.1980   29.1950 H   0  0  0  0  0  0  0  0  0  0  0  0
   37.4590   19.6420   29.6460 C   0  0  0  0  0  3  0  0  0  0  0  0
   36.3350   19.9020   30.3880 C   0  0  0  0  0  3  0  0  0  0  0  0
   37.1160   26.5490   32.4570 C   0  0  0  0  0  0  0  0  0  0  0  0
   36.6670   27.2890   33.5070 F   0  0  0  0  0  0  0  0  0  0  0  0
   36.1490   26.6110   31.4670 F   0  0  0  0  0  0  0  0  0  0  0  0
   38.3000   27.1330   32.0040 F   0  0  0  0  0  0  0  0  0  0  0  0
  1 12  1  0  0  0  0
  2  9  1  0  0  0  0
  2  1  1  0  0  0  0
  3  2  2  0  0  0  0
  4  3  1  0  0  0  0
  4  6  1  0  0  0  0
  5  4  2  0  0  0  0
  6  7  1  0  0  0  0
  7  1  1  0  0  0  0
  7  8  2  0  0  0  0
 10 16  1  0  0  0  0
 10 15  1  0  0  0  0
 11 10  2  0  0  0  0
 12 11  1  0  0  0  0
 12 13  2  0  0  0  0
 13 14  1  0  0  0  0
 14 15  2  0  0  0  0
 14 18  1  0  0  0  0
 17 11  1  0  0  0  0
 20 21  1  0  0  0  0
 20 19  1  0  0  0  0
 21  3  1  0  0  0  0
 22 23  1  0  0  0  0
 22 21  2  0  0  0  0
 24 22  1  0  0  0  0
 25 24  1  0  0  0  0
 26 24  2  0  0  0  0
 26 27  1  0  0  0  0
 27 20  2  0  0  0  0
 28  6  1  0  0  0  0
 28 29  1  0  0  0  0
 30 28  1  0  0  0  0
 31 28  1  0  0  0  0
M  END
>  <minimizedAffinity>
-5.75359392

$$$$

 OpenBabel03272505283D

 31 33  0  0  0  0  0  0  0  0999 V2000
   37.4550   22.8010   32.5640 N   0  0  0  0  0  0  0  0  0  0  0  0
   37.7990   22.6680   33.8740 C   0  0  0  0  0  0  0  0  0  0  0  0
   38.1820   23.7450   34.6580 C   0  0  0  0  0  0  0  0  0  0  0  0
   38.2020   25.0060   34.0390 C   0  0  0  0  0  0  0  0  0  0  0  0
   38.5390   26.0110   34.7040 O   0  0  0  0  0  0  0  0  0  0  0  0
   37.8560   25.1440   32.7240 N   0  0  0  0  0  0  0  0  0  0  0  0
   37.5050   24.0270   32.0760 C   0  0  0  0  0  0  0  0  0  0  0  0
   37.1990   24.1940   30.8760 O   0  0  0  0  0  0  0  0  0  0  0  0
   37.7870   21.6930   34.3600 H   0  0  0  0  0  0  0  0  0  0  0  0
   35.4610   20.0340   31.1020 C   0  0  0  0  0  0  0  0  0  0  0  0
   35.8290   21.1330   31.9000 C   0  0  0  0  0  0  0  0  0  0  0  0
   37.0710   21.7060   31.7850 C   0  0  0  0  0  0  0  0  0  0  0  0
   37.9420   21.1800   30.8740 N   0  0  0  0  0  0  0  0  0  0  0  0
   37.6040   20.1150   30.0920 C   0  0  0  0  0  0  0  0  0  0  0  0
   36.3700   19.5460   30.2060 N   0  0  0  0  0  0  0  0  0  0  0  0
   34.5010   19.5390   31.1440 H   0  0  0  0  0  0  0  0  0  0  0  0
   35.0410   21.3980   32.5510 H   0  0  0  0  0  0  0  0  0  0  0  0
   38.3540   19.7600   29.3960 H   0  0  0  0  0  0  0  0  0  0  0  0
   40.9240   22.6060   35.2520 Cl  0  0  0  0  0  0  0  0  0  0  0  0
   39.7640   23.0760   36.5040 C   0  0  0  0  0  0  0  0  0  0  0  0
   38.5490   23.5830   36.0620 C   0  0  0  0  0  0  0  0  0  0  0  0
   37.5920   23.9720   36.9900 C   0  0  0  0  0  0  0  0  0  0  0  0
   36.6250   24.3740   36.7040 H   0  0  0  0  0  0  0  0  0  0  0  0
   37.8310   23.8630   38.3630 C   0  0  0  0  0  0  0  0  0  0  0  0
   37.0720   24.1720   39.0870 H   0  0  0  0  0  0  0  0  0  0  0  0
   39.0550   23.3530   38.7770 C   0  0  0  0  0  3  0  0  0  0  0  0
   40.0090   22.9660   37.8710 C   0  0  0  0  0  3  0  0  0  0  0  0
   37.8790   26.4450   32.0990 C   0  0  0  0  0  0  0  0  0  0  0  0
   37.3500   27.3780   32.9350 F   0  0  0  0  0  0  0  0  0  0  0  0
   37.1560   26.4930   30.9180 F   0  0  0  0  0  0  0  0  0  0  0  0
   39.2080   26.7980   31.8580 F   0  0  0  0  0  0  0  0  0  0  0  0
  1  2  1  0  0  0  0
  2  9  1  0  0  0  0
  2  3  2  0  0  0  0
  3 21  1  0  0  0  0
  4  3  1  0  0  0  0
  4  5  2  0  0  0  0
  6  4  1  0  0  0  0
  7  1  1  0  0  0  0
  7  6  1  0  0  0  0
  8  7  2  0  0  0  0
 10 16  1  0  0  0  0
 10 11  1  0  0  0  0
 11 17  1  0  0  0  0
 12 11  2  0  0  0  0
 12  1  1  0  0  0  0
 13 12  1  0  0  0  0
 14 15  1  0  0  0  0
 14 13  2  0  0  0  0
 15 10  2  0  0  0  0
 18 14  1  0  0  0  0
 19 20  1  0  0  0  0
 20 27  1  0  0  0  0
 21 20  2  0  0  0  0
 21 22  1  0  0  0  0
 22 24  2  0  0  0  0
 23 22  1  0  0  0  0
 24 26  1  0  0  0  0
 24 25  1  0  0  0  0
 27 26  2  0  0  0  0
 28  6  1  0  0  0  0
 28 29  1  0  0  0  0
 30 28  1  0  0  0  0
 31 28  1  0  0  0  0
M  END
>  <minimizedAffinity>
-5.70894051

$$$$

 OpenBabel03272505283D

 31 33  0  0  0  0  0  0  0  0999 V2000
   38.1090   23.8050   34.7380 N   0  0  0  0  0  0  0  0  0  0  0  0
   37.8480   22.7610   33.9050 C   0  0  0  0  0  0  0  0  0  0  0  0
   37.5280   22.9350   32.5680 C   0  0  0  0  0  0  0  0  0  0  0  0
   37.4830   24.2560   32.0920 C   0  0  0  0  0  0  0  0  0  0  0  0
   37.2000   24.4670   30.8920 O   0  0  0  0  0  0  0  0  0  0  0  0
   37.7440   25.3090   32.9250 N   0  0  0  0  0  0  0  0  0  0  0  0
   38.0400   25.0070   34.1960 C   0  0  0  0  0  0  0  0  0  0  0  0
   38.2700   25.9950   34.9250 O   0  0  0  0  0  0  0  0  0  0  0  0
   37.8820   21.7340   34.2670 H   0  0  0  0  0  0  0  0  0  0  0  0
   37.9070   23.7540   38.4430 C   0  0  0  0  0  0  0  0  0  0  0  0
   37.5650   23.9590   37.0930 C   0  0  0  0  0  0  0  0  0  0  0  0
   38.4300   23.6150   36.0850 C   0  0  0  0  0  0  0  0  0  0  0  0
   39.6340   23.0680   36.4270 N   0  0  0  0  0  0  0  0  0  0  0  0
   39.9840   22.8630   37.7290 C   0  0  0  0  0  0  0  0  0  0  0  0
   39.1240   23.2030   38.7310 N   0  0  0  0  0  0  0  0  0  0  0  0
   37.2710   24.0030   39.2810 H   0  0  0  0  0  0  0  0  0  0  0  0
   36.6080   24.3970   37.0160 H   0  0  0  0  0  0  0  0  0  0  0  0
   40.9570   22.4250   37.9120 H   0  0  0  0  0  0  0  0  0  0  0  0
   39.7890   21.9640   30.8040 Cl  0  0  0  0  0  0  0  0  0  0  0  0
   38.1740   21.2380   30.8190 C   0  0  0  0  0  0  0  0  0  0  0  0
   37.2510   21.8030   31.6880 C   0  0  0  0  0  0  0  0  0  0  0  0
   35.9650   21.2830   31.7520 C   0  0  0  0  0  0  0  0  0  0  0  0
   35.2000   21.6840   32.4110 H   0  0  0  0  0  0  0  0  0  0  0  0
   35.5830   20.1990   30.9560 C   0  0  0  0  0  0  0  0  0  0  0  0
   34.5690   19.7960   31.0120 H   0  0  0  0  0  0  0  0  0  0  0  0
   36.5280   19.6540   30.0950 C   0  0  0  0  0  3  0  0  0  0  0  0
   37.8010   20.1570   30.0240 C   0  0  0  0  0  3  0  0  0  0  0  0
   37.6950   26.6620   32.4260 C   0  0  0  0  0  0  0  0  0  0  0  0
   38.5670   26.8140   31.3930 F   0  0  0  0  0  0  0  0  0  0  0  0
   38.0230   27.6060   33.3840 F   0  0  0  0  0  0  0  0  0  0  0  0
   36.4110   26.9070   31.9350 F   0  0  0  0  0  0  0  0  0  0  0  0
  1 12  1  0  0  0  0
  2  9  1  0  0  0  0
  2  1  1  0  0  0  0
  3  2  2  0  0  0  0
  4  3  1  0  0  0  0
  4  6  1  0  0  0  0
  5  4  2  0  0  0  0
  6  7  1  0  0  0  0
  7  1  1  0  0  0  0
  7  8  2  0  0  0  0
 10 15  1  0  0  0  0
 10 16  1  0  0  0  0
 11 10  2  0  0  0  0
 12 13  2  0  0  0  0
 12 11  1  0  0  0  0
 13 14  1  0  0  0  0
 14 18  1  0  0  0  0
 14 15  2  0  0  0  0
 17 11  1  0  0  0  0
 19 20  1  0  0  0  0
 20 21  1  0  0  0  0
 21 22  2  0  0  0  0
 21  3  1  0  0  0  0
 22 23  1  0  0  0  0
 24 25  1  0  0  0  0
 24 22  1  0  0  0  0
 26 24  2  0  0  0  0
 27 26  1  0  0  0  0
 27 20  2  0  0  0  0
 28  6  1  0  0  0  0
 28 30  1  0  0  0  0
 29 28  1  0  0  0  0
 31 28  1  0  0  0  0
M  END
>  <minimizedAffinity>
-5.65222025

$$$$

 OpenBabel03272505283D

 31 33  0  0  0  0  0  0  0  0999 V2000
   37.0800   27.8680   33.6120 N   0  0  0  0  0  0  0  0  0  0  0  0
   36.1860   28.4450   34.4590 C   0  0  0  0  0  0  0  0  0  0  0  0
   35.3700   29.4990   34.0770 C   0  0  0  0  0  0  0  0  0  0  0  0
   35.5010   29.9580   32.7560 C   0  0  0  0  0  0  0  0  0  0  0  0
   34.7870   30.9060   32.3610 O   0  0  0  0  0  0  0  0  0  0  0  0
   36.3990   29.3810   31.9010 N   0  0  0  0  0  0  0  0  0  0  0  0
   37.1290   28.3710   32.3920 C   0  0  0  0  0  0  0  0  0  0  0  0
   37.9380   27.8720   31.5820 O   0  0  0  0  0  0  0  0  0  0  0  0
   36.0780   28.0950   35.4850 H   0  0  0  0  0  0  0  0  0  0  0  0
   39.9090   25.9280   35.0280 C   0  0  0  0  0  0  0  0  0  0  0  0
   39.1040   27.0110   34.6300 C   0  0  0  0  0  0  0  0  0  0  0  0
   37.8970   26.8060   34.0100 C   0  0  0  0  0  0  0  0  0  0  0  0
   37.4970   25.5190   33.7890 N   0  0  0  0  0  0  0  0  0  0  0  0
   38.2630   24.4560   34.1660 C   0  0  0  0  0  0  0  0  0  0  0  0
   39.4620   24.6590   34.7820 N   0  0  0  0  0  0  0  0  0  0  0  0
   40.8670   26.0230   35.5190 H   0  0  0  0  0  0  0  0  0  0  0  0
   39.5720   27.9280   34.8690 H   0  0  0  0  0  0  0  0  0  0  0  0
   37.8710   23.4690   33.9520 H   0  0  0  0  0  0  0  0  0  0  0  0
   36.3390   31.8440   35.7280 Cl  0  0  0  0  0  0  0  0  0  0  0  0
   34.6990   31.1860   35.8260 C   0  0  0  0  0  0  0  0  0  0  0  0
   34.4150   30.1080   35.0000 C   0  0  0  0  0  0  0  0  0  0  0  0
   33.1470   29.5410   35.0250 C   0  0  0  0  0  0  0  0  0  0  0  0
   32.8680   28.6960   34.4020 H   0  0  0  0  0  0  0  0  0  0  0  0
   32.1500   30.0380   35.8690 C   0  0  0  0  0  0  0  0  0  0  0  0
   31.1550   29.5870   35.8830 H   0  0  0  0  0  0  0  0  0  0  0  0
   32.4620   31.1190   36.6860 C   0  0  0  0  0  3  0  0  0  0  0  0
   33.7090   31.6880   36.6690 C   0  0  0  0  0  3  0  0  0  0  0  0
   36.5250   29.8600   30.5460 C   0  0  0  0  0  0  0  0  0  0  0  0
   35.4810   30.6750   30.2360 F   0  0  0  0  0  0  0  0  0  0  0  0
   36.5440   28.8400   29.6090 F   0  0  0  0  0  0  0  0  0  0  0  0
   37.6950   30.6160   30.4510 F   0  0  0  0  0  0  0  0  0  0  0  0
  1 12  1  0  0  0  0
  1  2  1  0  0  0  0
  2  9  1  0  0  0  0
  3  2  2  0  0  0  0
  3 21  1  0  0  0  0
  4  3  1  0  0  0  0
  5  4  2  0  0  0  0
  6  7  1  0  0  0  0
  6  4  1  0  0  0  0
  7  1  1  0  0  0  0
  8  7  2  0  0  0  0
 10 16  1  0  0  0  0
 11 17  1  0  0  0  0
 11 10  2  0  0  0  0
 12 11  1  0  0  0  0
 13 12  2  0  0  0  0
 13 14  1  0  0  0  0
 14 15  2  0  0  0  0
 15 10  1  0  0  0  0
 18 14  1  0  0  0  0
 19 20  1  0  0  0  0
 20 27  1  0  0  0  0
 21 22  1  0  0  0  0
 21 20  2  0  0  0  0
 22 24  2  0  0  0  0
 23 22  1  0  0  0  0
 24 25  1  0  0  0  0
 24 26  1  0  0  0  0
 27 26  2  0  0  0  0
 28  6  1  0  0  0  0
 29 28  1  0  0  0  0
 30 28  1  0  0  0  0
 31 28  1  0  0  0  0
M  END
>  <minimizedAffinity>
-5.62830114

$$$$

 OpenBabel03272505283D

 31 33  0  0  0  0  0  0  0  0999 V2000
   38.1670   23.5430   34.5860 N   0  0  0  0  0  0  0  0  0  0  0  0
   38.5500   24.6020   33.8220 C   0  0  0  0  0  0  0  0  0  0  0  0
   38.2370   24.7030   32.4760 C   0  0  0  0  0  0  0  0  0  0  0  0
   37.4930   23.6500   31.9160 C   0  0  0  0  0  0  0  0  0  0  0  0
   37.1840   23.6940   30.7050 O   0  0  0  0  0  0  0  0  0  0  0  0
   37.1070   22.5840   32.6800 N   0  0  0  0  0  0  0  0  0  0  0  0
   37.4730   22.6060   33.9670 C   0  0  0  0  0  0  0  0  0  0  0  0
   37.1030   21.6150   34.6310 O   0  0  0  0  0  0  0  0  0  0  0  0
   39.1270   25.4220   34.2490 H   0  0  0  0  0  0  0  0  0  0  0  0
   38.0270   23.8830   38.2790 C   0  0  0  0  0  0  0  0  0  0  0  0
   37.6850   23.9880   36.9180 C   0  0  0  0  0  0  0  0  0  0  0  0
   38.4910   23.4550   35.9430 C   0  0  0  0  0  0  0  0  0  0  0  0
   39.6360   22.8190   36.3300 N   0  0  0  0  0  0  0  0  0  0  0  0
   39.9850   22.7080   37.6440 C   0  0  0  0  0  0  0  0  0  0  0  0
   39.1840   23.2370   38.6120 N   0  0  0  0  0  0  0  0  0  0  0  0
   37.4360   24.2800   39.0920 H   0  0  0  0  0  0  0  0  0  0  0  0
   36.7780   24.5160   36.8030 H   0  0  0  0  0  0  0  0  0  0  0  0
   40.9100   22.1890   37.8630 H   0  0  0  0  0  0  0  0  0  0  0  0
   36.3210   27.0390   32.2830 Cl  0  0  0  0  0  0  0  0  0  0  0  0
   37.8970   26.9940   31.4790 C   0  0  0  0  0  0  0  0  0  0  0  0
   38.6560   25.8470   31.6700 C   0  0  0  0  0  0  0  0  0  0  0  0
   39.9040   25.7440   31.0690 C   0  0  0  0  0  0  0  0  0  0  0  0
   40.5410   24.8710   31.1820 H   0  0  0  0  0  0  0  0  0  0  0  0
   40.4100   26.7760   30.2740 C   0  0  0  0  0  0  0  0  0  0  0  0
   41.3930   26.6870   29.8050 H   0  0  0  0  0  0  0  0  0  0  0  0
   39.6290   27.9130   30.1000 C   0  0  0  0  0  3  0  0  0  0  0  0
   38.3970   28.0270   30.6890 C   0  0  0  0  0  3  0  0  0  0  0  0
   36.3430   21.5090   32.0950 C   0  0  0  0  0  0  0  0  0  0  0  0
   36.7810   20.3100   32.5660 F   0  0  0  0  0  0  0  0  0  0  0  0
   36.4360   21.4670   30.7130 F   0  0  0  0  0  0  0  0  0  0  0  0
   35.0090   21.6530   32.4780 F   0  0  0  0  0  0  0  0  0  0  0  0
  1 12  1  0  0  0  0
  2  9  1  0  0  0  0
  2  1  1  0  0  0  0
  3  2  2  0  0  0  0
  4  3  1  0  0  0  0
  4  6  1  0  0  0  0
  5  4  2  0  0  0  0
  6  7  1  0  0  0  0
  7  1  1  0  0  0  0
  7  8  2  0  0  0  0
 10 15  1  0  0  0  0
 10 16  1  0  0  0  0
 11 10  2  0  0  0  0
 12 13  2  0  0  0  0
 12 11  1  0  0  0  0
 13 14  1  0  0  0  0
 14 18  1  0  0  0  0
 14 15  2  0  0  0  0
 17 11  1  0  0  0  0
 20 21  1  0  0  0  0
 20 19  1  0  0  0  0
 21  3  1  0  0  0  0
 22 23  1  0  0  0  0
 22 21  2  0  0  0  0
 24 22  1  0  0  0  0
 25 24  1  0  0  0  0
 26 24  2  0  0  0  0
 26 27  1  0  0  0  0
 27 20  2  0  0  0  0
 28 31  1  0  0  0  0
 28 29  1  0  0  0  0
 28  6  1  0  0  0  0
 30 28  1  0  0  0  0
M  END
>  <minimizedAffinity>
-5.61610937

$$$$

 OpenBabel03272505283D

 31 33  0  0  0  0  0  0  0  0999 V2000
   36.0810   28.1010   31.9230 N   0  0  0  0  0  0  0  0  0  0  0  0
   35.5770   28.7280   33.0200 C   0  0  0  0  0  0  0  0  0  0  0  0
   35.4790   30.1080   33.1120 C   0  0  0  0  0  0  0  0  0  0  0  0
   35.9280   30.8520   32.0080 C   0  0  0  0  0  0  0  0  0  0  0  0
   35.8610   32.1000   32.0410 O   0  0  0  0  0  0  0  0  0  0  0  0
   36.4350   30.2260   30.9030 N   0  0  0  0  0  0  0  0  0  0  0  0
   36.4760   28.8880   30.9390 C   0  0  0  0  0  0  0  0  0  0  0  0
   36.9480   28.3540   29.9130 O   0  0  0  0  0  0  0  0  0  0  0  0
   35.2270   28.1580   33.8800 H   0  0  0  0  0  0  0  0  0  0  0  0
   37.2560   24.6090   32.3680 C   0  0  0  0  0  0  0  0  0  0  0  0
   37.1840   26.0120   32.4570 C   0  0  0  0  0  0  0  0  0  0  0  0
   36.1740   26.7090   31.8430 C   0  0  0  0  0  0  0  0  0  0  0  0
   35.2370   26.0030   31.1430 N   0  0  0  0  0  0  0  0  0  0  0  0
   35.2900   24.6440   31.0450 C   0  0  0  0  0  0  0  0  0  0  0  0
   36.2930   23.9520   31.6540 N   0  0  0  0  0  0  0  0  0  0  0  0
   38.0250   24.0050   32.8270 H   0  0  0  0  0  0  0  0  0  0  0  0
   37.9910   26.3890   33.0250 H   0  0  0  0  0  0  0  0  0  0  0  0
   34.5080   24.1630   30.4700 H   0  0  0  0  0  0  0  0  0  0  0  0
   32.4920   30.5920   33.1810 Cl  0  0  0  0  0  0  0  0  0  0  0  0
   33.5920   31.0600   34.4870 C   0  0  0  0  0  0  0  0  0  0  0  0
   34.9350   30.7640   34.2980 C   0  0  0  0  0  0  0  0  0  0  0  0
   35.8550   31.1030   35.2820 C   0  0  0  0  0  0  0  0  0  0  0  0
   36.9180   30.8980   35.1890 H   0  0  0  0  0  0  0  0  0  0  0  0
   35.4520   31.7360   36.4610 C   0  0  0  0  0  0  0  0  0  0  0  0
   36.1820   31.9990   37.2310 H   0  0  0  0  0  0  0  0  0  0  0  0
   34.1010   32.0190   36.6240 C   0  0  0  0  0  3  0  0  0  0  0  0
   33.1830   31.6890   35.6600 C   0  0  0  0  0  3  0  0  0  0  0  0
   36.8930   31.0000   29.7750 C   0  0  0  0  0  0  0  0  0  0  0  0
   35.9930   31.9770   29.4780 F   0  0  0  0  0  0  0  0  0  0  0  0
   37.0680   30.2400   28.6300 F   0  0  0  0  0  0  0  0  0  0  0  0
   38.0940   31.6220   30.1220 F   0  0  0  0  0  0  0  0  0  0  0  0
  1  2  1  0  0  0  0
  2  3  2  0  0  0  0
  2  9  1  0  0  0  0
  3 21  1  0  0  0  0
  4  5  2  0  0  0  0
  4  3  1  0  0  0  0
  6  7  1  0  0  0  0
  6  4  1  0  0  0  0
  7  1  1  0  0  0  0
  8  7  2  0  0  0  0
 10 11  1  0  0  0  0
 10 16  1  0  0  0  0
 11 17  1  0  0  0  0
 12  1  1  0  0  0  0
 12 11  2  0  0  0  0
 13 12  1  0  0  0  0
 14 13  2  0  0  0  0
 14 15  1  0  0  0  0
 15 10  2  0  0  0  0
 18 14  1  0  0  0  0
 19 20  1  0  0  0  0
 20 27  1  0  0  0  0
 21 20  2  0  0  0  0
 21 22  1  0  0  0  0
 22 24  2  0  0  0  0
 23 22  1  0  0  0  0
 24 26  1  0  0  0  0
 24 25  1  0  0  0  0
 27 26  2  0  0  0  0
 28 31  1  0  0  0  0
 28  6  1  0  0  0  0
 29 28  1  0  0  0  0
 30 28  1  0  0  0  0
M  END
>  <minimizedAffinity>
-5.5928421

$$$$
