
 OpenBabel03272510293D

 28 30  0  0  0  0  0  0  0  0999 V2000
   37.4490   31.3800   49.3130 C   0  0  0  0  0  0  0  0  0  0  0  0
   37.8290   32.7070   49.5370 C   0  0  0  0  0  0  0  0  0  0  0  0
   38.6390   33.2710   48.5780 C   0  0  0  0  0  0  0  0  0  0  0  0
   39.0150   32.5380   47.5000 N   0  0  0  0  0  0  0  0  0  0  0  0
   38.6360   31.2530   47.2990 C   0  0  0  0  0  0  0  0  0  0  0  0
   37.8290   30.6650   48.2390 N   0  0  0  0  0  0  0  0  0  0  0  0
   37.4730   33.1950   50.4280 H   0  0  0  0  0  0  0  0  0  0  0  0
   38.9580   34.2970   48.7140 H   0  0  0  0  0  0  0  0  0  0  0  0
   36.5370   30.7390   50.3290 C   0  0  0  0  0  0  0  0  0  0  0  0
   36.4550   29.3110   50.5050 C   0  0  0  0  0  0  0  0  0  0  0  0
   37.3120   30.0900   51.4830 C   0  0  0  0  0  0  0  0  0  0  0  0
   35.6920   31.3860   50.7180 H   0  0  0  0  0  0  0  0  0  0  0  0
   37.0260   28.6790   49.7650 H   0  0  0  0  0  0  0  0  0  0  0  0
   35.5350   28.8240   50.8350 H   0  0  0  0  0  0  0  0  0  0  0  0
   36.8780   30.1370   52.5070 H   0  0  0  0  0  0  0  0  0  0  0  0
   38.4030   29.9680   51.3830 H   0  0  0  0  0  0  0  0  0  0  0  0
   39.0070   30.4340   46.1480 C   0  0  0  0  0  0  0  0  0  0  0  0
   38.8420   29.3570   46.4100 H   0  0  0  0  0  0  0  0  0  0  0  0
   40.0930   30.5600   45.9680 H   0  0  0  0  0  0  0  0  0  0  0  0
   40.6880   30.9600   43.6640 Cl  0  0  0  0  0  0  0  0  0  0  0  0
   38.9400   31.0570   43.6950 C   0  0  0  0  0  0  0  0  0  0  0  0
   38.3160   30.7920   44.8960 C   0  0  0  0  0  0  0  0  0  0  0  0
   36.9230   30.8920   44.8380 C   0  0  0  0  0  0  0  0  0  0  0  0
   36.3910   30.6880   45.7710 H   0  0  0  0  0  0  0  0  0  0  0  0
   36.1690   31.2180   43.7250 C   0  0  0  0  0  0  0  0  0  0  0  0
   35.0940   31.2560   43.8330 H   0  0  0  0  0  0  0  0  0  0  0  0
   36.8720   31.4700   42.5560 C   0  0  0  0  0  3  0  0  0  0  0  0
   38.2640   31.3890   42.5390 C   0  0  0  0  0  3  0  0  0  0  0  0
  1  2  1  0  0  0  0
  1  9  1  0  0  0  0
  2  7  1  0  0  0  0
  3  8  1  0  0  0  0
  3  2  2  0  0  0  0
  4  3  1  0  0  0  0
  5  4  2  0  0  0  0
  5  6  1  0  0  0  0
  6  1  2  0  0  0  0
  9 10  1  0  0  0  0
  9 12  1  0  0  0  0
  9 11  1  0  0  0  0
 10 14  1  0  0  0  0
 10 11  1  0  0  0  0
 11 15  1  0  0  0  0
 13 10  1  0  0  0  0
 16 11  1  0  0  0  0
 17 18  1  0  0  0  0
 17  5  1  0  0  0  0
 19 17  1  0  0  0  0
 20 21  1  0  0  0  0
 21 22  1  0  0  0  0
 22 17  1  0  0  0  0
 23 22  2  0  0  0  0
 23 24  1  0  0  0  0
 25 26  1  0  0  0  0
 25 23  1  0  0  0  0
 27 25  2  0  0  0  0
 28 27  1  0  0  0  0
 28 21  2  0  0  0  0
M  END
>  <minimizedAffinity>
-5.27928591

>  <minimizedRMSD>
0.317417979

$$$$
