
 OpenBabel03272501553D

 24 25  0  0  0  0  0  0  0  0999 V2000
   38.8010   22.1350   34.2960 C   0  0  0  0  0  0  0  0  0  0  0  0
   39.6280   22.7160   33.7950 H   0  0  0  0  0  0  0  0  0  0  0  0
   39.0070   21.0630   34.1560 H   0  0  0  0  0  0  0  0  0  0  0  0
   40.0660   22.6310   37.7400 C   0  0  0  0  0  0  0  0  0  0  0  0
   39.0340   23.3200   38.3690 C   0  0  0  0  0  0  0  0  0  0  0  0
   37.9070   23.6080   37.5850 C   0  0  0  0  0  0  0  0  0  0  0  0
   37.8710   23.2120   36.2820 N   0  0  0  0  0  0  0  0  0  0  0  0
   38.9080   22.5440   35.7320 C   0  0  0  0  0  0  0  0  0  0  0  0
   39.9970   22.2560   36.4570 N   0  0  0  0  0  0  0  0  0  0  0  0
   40.9310   22.4240   38.3870 H   0  0  0  0  0  0  0  0  0  0  0  0
   39.0360   23.6470   39.4070 H   0  0  0  0  0  0  0  0  0  0  0  0
   37.0520   24.1390   37.9780 H   0  0  0  0  0  0  0  0  0  0  0  0
   37.4800   22.5650   33.7480 C   0  0  0  0  0  0  0  0  0  0  0  0
   37.6070   23.4190   33.0490 H   0  0  0  0  0  0  0  0  0  0  0  0
   36.8740   22.9350   34.5990 H   0  0  0  0  0  0  0  0  0  0  0  0
   35.6100   20.7440   35.3670 Cl  0  0  0  0  0  0  0  0  0  0  0  0
   35.8650   20.5680   33.6470 C   0  0  0  0  0  0  0  0  0  0  0  0
   36.7380   21.4650   33.0710 C   0  0  0  0  0  0  0  0  0  0  0  0
   36.9210   21.2970   31.6940 C   0  0  0  0  0  0  0  0  0  0  0  0
   37.6090   21.9920   31.1890 H   0  0  0  0  0  0  0  0  0  0  0  0
   36.3180   20.3440   30.9140 C   0  0  0  0  0  0  0  0  0  0  0  0
   36.5410   20.3140   29.8490 H   0  0  0  0  0  0  0  0  0  0  0  0
   35.4630   19.4750   31.5130 C   0  0  0  0  0  3  0  0  0  0  0  0
   35.2490   19.5990   32.8680 C   0  0  0  0  0  3  0  0  0  0  0  0
  1  8  1  0  0  0  0
  2  1  1  0  0  0  0
  3  1  1  0  0  0  0
  4  5  1  0  0  0  0
  4 10  1  0  0  0  0
  5 11  1  0  0  0  0
  6 12  1  0  0  0  0
  6  5  2  0  0  0  0
  7  6  1  0  0  0  0
  8  7  2  0  0  0  0
  8  9  1  0  0  0  0
  9  4  2  0  0  0  0
 13  1  1  0  0  0  0
 13 15  1  0  0  0  0
 14 13  1  0  0  0  0
 17 16  1  0  0  0  0
 18 17  1  0  0  0  0
 18 13  1  0  0  0  0
 19 18  2  0  0  0  0
 20 19  1  0  0  0  0
 21 23  2  0  0  0  0
 21 19  1  0  0  0  0
 22 21  1  0  0  0  0
 23 24  1  0  0  0  0
 24 17  2  0  0  0  0
M  END
>  <minimizedAffinity>
-4.52159166

$$$$

 OpenBabel03272501553D

 24 25  0  0  0  0  0  0  0  0999 V2000
   38.9220   22.2300   34.3330 C   0  0  0  0  0  0  0  0  0  0  0  0
   39.9360   22.5600   33.9640 H   0  0  0  0  0  0  0  0  0  0  0  0
   38.8480   21.1420   34.1930 H   0  0  0  0  0  0  0  0  0  0  0  0
   39.9950   22.7260   37.8410 C   0  0  0  0  0  0  0  0  0  0  0  0
   38.8940   23.3330   38.4360 C   0  0  0  0  0  0  0  0  0  0  0  0
   37.7860   23.5650   37.6060 C   0  0  0  0  0  0  0  0  0  0  0  0
   37.8350   23.1990   36.2950 N   0  0  0  0  0  0  0  0  0  0  0  0
   38.9370   22.6110   35.7800 C   0  0  0  0  0  0  0  0  0  0  0  0
   40.0100   22.3780   36.5480 N   0  0  0  0  0  0  0  0  0  0  0  0
   40.8430   22.5600   38.5230 H   0  0  0  0  0  0  0  0  0  0  0  0
   38.8280   23.6340   39.4790 H   0  0  0  0  0  0  0  0  0  0  0  0
   36.8820   24.0310   37.9700 H   0  0  0  0  0  0  0  0  0  0  0  0
   37.8550   22.9960   33.6230 C   0  0  0  0  0  0  0  0  0  0  0  0
   38.3010   23.6940   32.8820 H   0  0  0  0  0  0  0  0  0  0  0  0
   37.3370   23.6200   34.3780 H   0  0  0  0  0  0  0  0  0  0  0  0
   36.9390   23.6260   30.7600 Cl  0  0  0  0  0  0  0  0  0  0  0  0
   36.3430   22.2640   31.6780 C   0  0  0  0  0  0  0  0  0  0  0  0
   36.8530   22.1230   32.9500 C   0  0  0  0  0  0  0  0  0  0  0  0
   36.3550   21.0240   33.6580 C   0  0  0  0  0  0  0  0  0  0  0  0
   36.7350   20.8690   34.6800 H   0  0  0  0  0  0  0  0  0  0  0  0
   35.4350   20.1190   33.1950 C   0  0  0  0  0  0  0  0  0  0  0  0
   35.1250   19.3010   33.8430 H   0  0  0  0  0  0  0  0  0  0  0  0
   34.9520   20.2870   31.9360 C   0  0  0  0  0  3  0  0  0  0  0  0
   35.4120   21.3550   31.1970 C   0  0  0  0  0  3  0  0  0  0  0  0
  1  8  1  0  0  0  0
  2  1  1  0  0  0  0
  3  1  1  0  0  0  0
  4  5  1  0  0  0  0
  4 10  1  0  0  0  0
  5 11  1  0  0  0  0
  6 12  1  0  0  0  0
  6  5  2  0  0  0  0
  7  6  1  0  0  0  0
  8  7  2  0  0  0  0
  8  9  1  0  0  0  0
  9  4  2  0  0  0  0
 13  1  1  0  0  0  0
 13 15  1  0  0  0  0
 14 13  1  0  0  0  0
 16 17  1  0  0  0  0
 17 18  1  0  0  0  0
 18 13  1  0  0  0  0
 18 19  2  0  0  0  0
 19 20  1  0  0  0  0
 21 19  1  0  0  0  0
 21 22  1  0  0  0  0
 23 21  2  0  0  0  0
 24 17  2  0  0  0  0
 24 23  1  0  0  0  0
M  END
>  <minimizedAffinity>
-4.52016401

$$$$

 OpenBabel03272501553D

 24 25  0  0  0  0  0  0  0  0999 V2000
   38.2150   25.1730   33.9080 C   0  0  0  0  0  0  0  0  0  0  0  0
   39.1660   25.4750   33.3830 H   0  0  0  0  0  0  0  0  0  0  0  0
   38.0480   25.8750   34.7380 H   0  0  0  0  0  0  0  0  0  0  0  0
   35.7790   26.5950   31.5100 C   0  0  0  0  0  0  0  0  0  0  0  0
   35.2490   25.4740   30.8810 C   0  0  0  0  0  0  0  0  0  0  0  0
   35.7480   24.2300   31.2980 C   0  0  0  0  0  0  0  0  0  0  0  0
   36.7000   24.1750   32.2710 N   0  0  0  0  0  0  0  0  0  0  0  0
   37.1720   25.3050   32.8430 C   0  0  0  0  0  0  0  0  0  0  0  0
   36.7150   26.5060   32.4640 N   0  0  0  0  0  0  0  0  0  0  0  0
   35.3640   27.5510   31.1560 H   0  0  0  0  0  0  0  0  0  0  0  0
   34.4890   25.4880   30.1030 H   0  0  0  0  0  0  0  0  0  0  0  0
   35.4020   23.2990   30.8730 H   0  0  0  0  0  0  0  0  0  0  0  0
   38.3110   23.7480   34.3430 C   0  0  0  0  0  0  0  0  0  0  0  0
   39.0810   23.2090   33.7500 H   0  0  0  0  0  0  0  0  0  0  0  0
   37.3390   23.2660   34.1170 H   0  0  0  0  0  0  0  0  0  0  0  0
   40.7160   22.0780   35.2700 Cl  0  0  0  0  0  0  0  0  0  0  0  0
   39.6300   22.8880   36.3740 C   0  0  0  0  0  0  0  0  0  0  0  0
   38.5980   23.5940   35.7970 C   0  0  0  0  0  0  0  0  0  0  0  0
   37.7460   24.2290   36.7070 C   0  0  0  0  0  0  0  0  0  0  0  0
   36.9070   24.8080   36.2930 H   0  0  0  0  0  0  0  0  0  0  0  0
   37.8630   24.1980   38.0730 C   0  0  0  0  0  0  0  0  0  0  0  0
   37.1360   24.7350   38.6790 H   0  0  0  0  0  0  0  0  0  0  0  0
   38.8920   23.4910   38.6110 C   0  0  0  0  0  3  0  0  0  0  0  0
   39.7590   22.8470   37.7550 C   0  0  0  0  0  3  0  0  0  0  0  0
  1 13  1  0  0  0  0
  1  3  1  0  0  0  0
  2  1  1  0  0  0  0
  4  9  1  0  0  0  0
  5  6  1  0  0  0  0
  5  4  2  0  0  0  0
  6  7  2  0  0  0  0
  7  8  1  0  0  0  0
  8  1  1  0  0  0  0
  9  8  2  0  0  0  0
 10  4  1  0  0  0  0
 11  5  1  0  0  0  0
 12  6  1  0  0  0  0
 13 18  1  0  0  0  0
 14 13  1  0  0  0  0
 15 13  1  0  0  0  0
 16 17  1  0  0  0  0
 17 24  1  0  0  0  0
 18 17  2  0  0  0  0
 18 19  1  0  0  0  0
 19 21  2  0  0  0  0
 20 19  1  0  0  0  0
 21 23  1  0  0  0  0
 21 22  1  0  0  0  0
 24 23  2  0  0  0  0
M  END
>  <minimizedAffinity>
-4.52012157

$$$$

 OpenBabel03272501553D

 24 25  0  0  0  0  0  0  0  0999 V2000
   38.8170   24.7440   34.6440 C   0  0  0  0  0  0  0  0  0  0  0  0
   39.6040   24.1280   34.1210 H   0  0  0  0  0  0  0  0  0  0  0  0
   37.8510   24.5450   34.1560 H   0  0  0  0  0  0  0  0  0  0  0  0
   39.7490   22.8610   37.6930 C   0  0  0  0  0  0  0  0  0  0  0  0
   38.8550   23.3290   38.6500 C   0  0  0  0  0  0  0  0  0  0  0  0
   37.9350   24.2990   38.2230 C   0  0  0  0  0  0  0  0  0  0  0  0
   37.9560   24.7290   36.9310 N   0  0  0  0  0  0  0  0  0  0  0  0
   38.8520   24.2310   36.0500 C   0  0  0  0  0  0  0  0  0  0  0  0
   39.7420   23.3050   36.4290 N   0  0  0  0  0  0  0  0  0  0  0  0
   40.4530   22.1020   38.0640 H   0  0  0  0  0  0  0  0  0  0  0  0
   38.8150   23.0030   39.6870 H   0  0  0  0  0  0  0  0  0  0  0  0
   37.2000   24.7270   38.8890 H   0  0  0  0  0  0  0  0  0  0  0  0
   39.2090   26.1840   34.6250 C   0  0  0  0  0  0  0  0  0  0  0  0
   40.1940   26.3150   34.1260 H   0  0  0  0  0  0  0  0  0  0  0  0
   39.3380   26.5060   35.6770 H   0  0  0  0  0  0  0  0  0  0  0  0
   39.3360   26.7020   31.6000 Cl  0  0  0  0  0  0  0  0  0  0  0  0
   38.1090   27.3900   32.6380 C   0  0  0  0  0  0  0  0  0  0  0  0
   38.1950   27.0610   33.9740 C   0  0  0  0  0  0  0  0  0  0  0  0
   37.2010   27.6280   34.7780 C   0  0  0  0  0  0  0  0  0  0  0  0
   37.2270   27.3930   35.8530 H   0  0  0  0  0  0  0  0  0  0  0  0
   36.1930   28.4520   34.3480 C   0  0  0  0  0  0  0  0  0  0  0  0
   35.4740   28.8320   35.0720 H   0  0  0  0  0  0  0  0  0  0  0  0
   36.1370   28.7570   33.0250 C   0  0  0  0  0  3  0  0  0  0  0  0
   37.0950   28.2230   32.1910 C   0  0  0  0  0  3  0  0  0  0  0  0
  1  8  1  0  0  0  0
  2  1  1  0  0  0  0
  3  1  1  0  0  0  0
  4 10  1  0  0  0  0
  4  5  1  0  0  0  0
  5 11  1  0  0  0  0
  6  5  2  0  0  0  0
  6 12  1  0  0  0  0
  7  6  1  0  0  0  0
  8  9  1  0  0  0  0
  8  7  2  0  0  0  0
  9  4  2  0  0  0  0
 13  1  1  0  0  0  0
 13 15  1  0  0  0  0
 14 13  1  0  0  0  0
 16 17  1  0  0  0  0
 17 18  1  0  0  0  0
 18 13  1  0  0  0  0
 18 19  2  0  0  0  0
 19 20  1  0  0  0  0
 21 19  1  0  0  0  0
 21 22  1  0  0  0  0
 23 21  2  0  0  0  0
 24 17  2  0  0  0  0
 24 23  1  0  0  0  0
M  END
>  <minimizedAffinity>
-4.46400023

$$$$

 OpenBabel03272501553D

 24 25  0  0  0  0  0  0  0  0999 V2000
   35.7470   30.0550   34.0110 C   0  0  0  0  0  0  0  0  0  0  0  0
   35.1740   30.3620   33.0890 H   0  0  0  0  0  0  0  0  0  0  0  0
   36.7690   30.4530   33.9230 H   0  0  0  0  0  0  0  0  0  0  0  0
   34.8810   32.1130   36.9640 C   0  0  0  0  0  0  0  0  0  0  0  0
   33.5290   31.8510   37.1570 C   0  0  0  0  0  0  0  0  0  0  0  0
   32.9300   30.9590   36.2550 C   0  0  0  0  0  0  0  0  0  0  0  0
   33.6750   30.4050   35.2570 N   0  0  0  0  0  0  0  0  0  0  0  0
   34.9870   30.7020   35.1260 C   0  0  0  0  0  0  0  0  0  0  0  0
   35.5840   31.5510   35.9730 N   0  0  0  0  0  0  0  0  0  0  0  0
   35.3130   32.8160   37.6910 H   0  0  0  0  0  0  0  0  0  0  0  0
   32.9110   32.2780   37.9440 H   0  0  0  0  0  0  0  0  0  0  0  0
   31.8860   30.6890   36.3180 H   0  0  0  0  0  0  0  0  0  0  0  0
   35.6970   28.5700   34.1640 C   0  0  0  0  0  0  0  0  0  0  0  0
   35.0970   28.1130   33.3470 H   0  0  0  0  0  0  0  0  0  0  0  0
   35.1650   28.3530   35.1110 H   0  0  0  0  0  0  0  0  0  0  0  0
   37.0850   27.7040   31.5650 Cl  0  0  0  0  0  0  0  0  0  0  0  0
   37.8000   27.4990   33.1460 C   0  0  0  0  0  0  0  0  0  0  0  0
   37.0450   27.9380   34.2120 C   0  0  0  0  0  0  0  0  0  0  0  0
   37.6440   27.7580   35.4630 C   0  0  0  0  0  0  0  0  0  0  0  0
   37.0790   28.0960   36.3450 H   0  0  0  0  0  0  0  0  0  0  0  0
   38.8760   27.2000   35.6920 C   0  0  0  0  0  0  0  0  0  0  0  0
   39.2360   27.1150   36.7150 H   0  0  0  0  0  0  0  0  0  0  0  0
   39.5940   26.7760   34.6190 C   0  0  0  0  0  3  0  0  0  0  0  0
   39.0470   26.9310   33.3640 C   0  0  0  0  0  3  0  0  0  0  0  0
  1 13  1  0  0  0  0
  1  8  1  0  0  0  0
  2  1  1  0  0  0  0
  3  1  1  0  0  0  0
  4  5  1  0  0  0  0
  4 10  1  0  0  0  0
  5 11  1  0  0  0  0
  6 12  1  0  0  0  0
  6  5  2  0  0  0  0
  7  6  1  0  0  0  0
  8  7  2  0  0  0  0
  8  9  1  0  0  0  0
  9  4  2  0  0  0  0
 13 18  1  0  0  0  0
 13 15  1  0  0  0  0
 14 13  1  0  0  0  0
 16 17  1  0  0  0  0
 17 24  2  0  0  0  0
 17 18  1  0  0  0  0
 18 19  2  0  0  0  0
 19 21  1  0  0  0  0
 19 20  1  0  0  0  0
 21 22  1  0  0  0  0
 23 21  2  0  0  0  0
 24 23  1  0  0  0  0
M  END
>  <minimizedAffinity>
-4.45602417

$$$$

 OpenBabel03272501553D

 24 25  0  0  0  0  0  0  0  0999 V2000
   38.1490   26.3260   35.9010 C   0  0  0  0  0  0  0  0  0  0  0  0
   39.2400   26.4440   35.6360 H   0  0  0  0  0  0  0  0  0  0  0  0
   37.9460   26.9480   36.7850 H   0  0  0  0  0  0  0  0  0  0  0  0
   36.2110   28.4550   33.5750 C   0  0  0  0  0  0  0  0  0  0  0  0
   36.1450   27.6920   32.4140 C   0  0  0  0  0  0  0  0  0  0  0  0
   36.7790   26.4410   32.4530 C   0  0  0  0  0  0  0  0  0  0  0  0
   37.4130   26.0390   33.5890 N   0  0  0  0  0  0  0  0  0  0  0  0
   37.4390   26.8300   34.6840 C   0  0  0  0  0  0  0  0  0  0  0  0
   36.8420   28.0300   34.6760 N   0  0  0  0  0  0  0  0  0  0  0  0
   35.7020   29.4290   33.5050 H   0  0  0  0  0  0  0  0  0  0  0  0
   35.6450   27.9870   31.4940 H   0  0  0  0  0  0  0  0  0  0  0  0
   36.7850   25.7720   31.6040 H   0  0  0  0  0  0  0  0  0  0  0  0
   37.8340   24.8810   36.1040 C   0  0  0  0  0  0  0  0  0  0  0  0
   37.3060   24.4670   35.2180 H   0  0  0  0  0  0  0  0  0  0  0  0
   37.1300   24.8120   36.9570 H   0  0  0  0  0  0  0  0  0  0  0  0
   37.9310   23.1760   38.6570 Cl  0  0  0  0  0  0  0  0  0  0  0  0
   39.2360   23.2360   37.4960 C   0  0  0  0  0  0  0  0  0  0  0  0
   39.0360   24.0530   36.4040 C   0  0  0  0  0  0  0  0  0  0  0  0
   40.0990   24.0800   35.4950 C   0  0  0  0  0  0  0  0  0  0  0  0
   39.9840   24.7170   34.6050 H   0  0  0  0  0  0  0  0  0  0  0  0
   41.2730   23.3810   35.6100 C   0  0  0  0  0  0  0  0  0  0  0  0
   42.0280   23.4840   34.8330 H   0  0  0  0  0  0  0  0  0  0  0  0
   41.4390   22.5850   36.7000 C   0  0  0  0  0  3  0  0  0  0  0  0
   40.4200   22.5250   37.6250 C   0  0  0  0  0  3  0  0  0  0  0  0
  1 13  1  0  0  0  0
  1  3  1  0  0  0  0
  2  1  1  0  0  0  0
  4  9  1  0  0  0  0
  5  6  1  0  0  0  0
  5  4  2  0  0  0  0
  6  7  2  0  0  0  0
  7  8  1  0  0  0  0
  8  1  1  0  0  0  0
  9  8  2  0  0  0  0
 10  4  1  0  0  0  0
 11  5  1  0  0  0  0
 12  6  1  0  0  0  0
 13 18  1  0  0  0  0
 13 15  1  0  0  0  0
 14 13  1  0  0  0  0
 17 24  1  0  0  0  0
 17 16  1  0  0  0  0
 18 17  2  0  0  0  0
 19 21  2  0  0  0  0
 19 18  1  0  0  0  0
 20 19  1  0  0  0  0
 21 23  1  0  0  0  0
 22 21  1  0  0  0  0
 23 24  2  0  0  0  0
M  END
>  <minimizedAffinity>
-4.39868069

$$$$

 OpenBabel03272501553D

 24 25  0  0  0  0  0  0  0  0999 V2000
   38.1990   23.7620   34.5340 C   0  0  0  0  0  0  0  0  0  0  0  0
   38.7010   22.8490   34.1020 H   0  0  0  0  0  0  0  0  0  0  0  0
   37.1290   23.7110   34.2840 H   0  0  0  0  0  0  0  0  0  0  0  0
   37.8210   24.0070   38.2090 C   0  0  0  0  0  0  0  0  0  0  0  0
   38.9470   23.3510   38.6960 C   0  0  0  0  0  0  0  0  0  0  0  0
   39.8280   22.8270   37.7370 C   0  0  0  0  0  0  0  0  0  0  0  0
   39.5520   22.9780   36.4110 N   0  0  0  0  0  0  0  0  0  0  0  0
   38.4390   23.6280   36.0050 C   0  0  0  0  0  0  0  0  0  0  0  0
   37.5800   24.1380   36.8980 N   0  0  0  0  0  0  0  0  0  0  0  0
   37.1560   24.4030   38.9900 H   0  0  0  0  0  0  0  0  0  0  0  0
   39.1920   23.2160   39.7470 H   0  0  0  0  0  0  0  0  0  0  0  0
   40.7300   22.3000   38.0110 H   0  0  0  0  0  0  0  0  0  0  0  0
   38.8720   24.9940   34.0250 C   0  0  0  0  0  0  0  0  0  0  0  0
   39.4840   24.7630   33.1260 H   0  0  0  0  0  0  0  0  0  0  0  0
   39.5740   25.3360   34.8110 H   0  0  0  0  0  0  0  0  0  0  0  0
   38.5120   27.3150   36.0040 Cl  0  0  0  0  0  0  0  0  0  0  0  0
   37.6470   27.2060   34.4890 C   0  0  0  0  0  0  0  0  0  0  0  0
   37.9210   26.0980   33.7160 C   0  0  0  0  0  0  0  0  0  0  0  0
   37.2120   26.0400   32.5110 C   0  0  0  0  0  0  0  0  0  0  0  0
   37.3990   25.1740   31.8580 H   0  0  0  0  0  0  0  0  0  0  0  0
   36.3050   26.9670   32.0670 C   0  0  0  0  0  0  0  0  0  0  0  0
   35.8160   26.8110   31.1070 H   0  0  0  0  0  0  0  0  0  0  0  0
   36.0570   28.0470   32.8530 C   0  0  0  0  0  3  0  0  0  0  0  0
   36.7310   28.1500   34.0510 C   0  0  0  0  0  3  0  0  0  0  0  0
  1  8  1  0  0  0  0
  2  1  1  0  0  0  0
  3  1  1  0  0  0  0
  4  5  1  0  0  0  0
  4 10  1  0  0  0  0
  5 11  1  0  0  0  0
  6 12  1  0  0  0  0
  6  5  2  0  0  0  0
  7  6  1  0  0  0  0
  8  7  2  0  0  0  0
  8  9  1  0  0  0  0
  9  4  2  0  0  0  0
 13  1  1  0  0  0  0
 13 15  1  0  0  0  0
 14 13  1  0  0  0  0
 17 16  1  0  0  0  0
 18 13  1  0  0  0  0
 18 17  2  0  0  0  0
 19 18  1  0  0  0  0
 20 19  1  0  0  0  0
 21 19  2  0  0  0  0
 21 23  1  0  0  0  0
 22 21  1  0  0  0  0
 23 24  2  0  0  0  0
 24 17  1  0  0  0  0
M  END
>  <minimizedAffinity>
-4.3443675

$$$$

 OpenBabel03272501553D

 24 25  0  0  0  0  0  0  0  0999 V2000
   38.5740   26.7720   35.8650 C   0  0  0  0  0  0  0  0  0  0  0  0
   39.3650   26.7560   36.6700 H   0  0  0  0  0  0  0  0  0  0  0  0
   37.9130   27.6300   36.0560 H   0  0  0  0  0  0  0  0  0  0  0  0
   41.3840   27.1540   33.4850 C   0  0  0  0  0  0  0  0  0  0  0  0
   40.7530   27.2600   32.2500 C   0  0  0  0  0  0  0  0  0  0  0  0
   39.3510   27.1960   32.2590 C   0  0  0  0  0  0  0  0  0  0  0  0
   38.6890   27.0370   33.4390 N   0  0  0  0  0  0  0  0  0  0  0  0
   39.3640   26.9410   34.6050 C   0  0  0  0  0  0  0  0  0  0  0  0
   40.7020   26.9990   34.6270 N   0  0  0  0  0  0  0  0  0  0  0  0
   42.4820   27.2090   33.4370 H   0  0  0  0  0  0  0  0  0  0  0  0
   41.2560   27.3880   31.2940 H   0  0  0  0  0  0  0  0  0  0  0  0
   38.7660   27.2680   31.3540 H   0  0  0  0  0  0  0  0  0  0  0  0
   37.8580   25.4630   35.8370 C   0  0  0  0  0  0  0  0  0  0  0  0
   37.4680   25.2520   34.8180 H   0  0  0  0  0  0  0  0  0  0  0  0
   36.9770   25.5530   36.5040 H   0  0  0  0  0  0  0  0  0  0  0  0
   37.9240   24.7090   38.8140 Cl  0  0  0  0  0  0  0  0  0  0  0  0
   38.8360   23.8570   37.5900 C   0  0  0  0  0  0  0  0  0  0  0  0
   38.6980   24.3230   36.3000 C   0  0  0  0  0  0  0  0  0  0  0  0
   39.4410   23.6200   35.3450 C   0  0  0  0  0  0  0  0  0  0  0  0
   39.3610   23.9550   34.3000 H   0  0  0  0  0  0  0  0  0  0  0  0
   40.2600   22.5490   35.5930 C   0  0  0  0  0  0  0  0  0  0  0  0
   40.7870   22.0830   34.7630 H   0  0  0  0  0  0  0  0  0  0  0  0
   40.3740   22.1150   36.8760 C   0  0  0  0  0  3  0  0  0  0  0  0
   39.6610   22.7740   37.8540 C   0  0  0  0  0  3  0  0  0  0  0  0
  1  3  1  0  0  0  0
  1  2  1  0  0  0  0
  4  9  1  0  0  0  0
  5  6  1  0  0  0  0
  5  4  2  0  0  0  0
  6  7  2  0  0  0  0
  7  8  1  0  0  0  0
  8  9  2  0  0  0  0
  8  1  1  0  0  0  0
 10  4  1  0  0  0  0
 11  5  1  0  0  0  0
 12  6  1  0  0  0  0
 13  1  1  0  0  0  0
 13 18  1  0  0  0  0
 13 15  1  0  0  0  0
 14 13  1  0  0  0  0
 17 24  1  0  0  0  0
 17 16  1  0  0  0  0
 18 17  2  0  0  0  0
 19 21  2  0  0  0  0
 19 18  1  0  0  0  0
 20 19  1  0  0  0  0
 21 23  1  0  0  0  0
 22 21  1  0  0  0  0
 23 24  2  0  0  0  0
M  END
>  <minimizedAffinity>
-4.31952477

$$$$

 OpenBabel03272501553D

 24 25  0  0  0  0  0  0  0  0999 V2000
   38.0090   25.7830   34.9430 C   0  0  0  0  0  0  0  0  0  0  0  0
   36.8950   25.6570   35.0690 H   0  0  0  0  0  0  0  0  0  0  0  0
   38.2700   26.8080   35.2470 H   0  0  0  0  0  0  0  0  0  0  0  0
   38.5180   23.5370   37.8420 C   0  0  0  0  0  0  0  0  0  0  0  0
   39.6980   22.8690   37.5320 C   0  0  0  0  0  0  0  0  0  0  0  0
   40.3050   23.2070   36.3130 C   0  0  0  0  0  0  0  0  0  0  0  0
   39.7310   24.1450   35.5090 N   0  0  0  0  0  0  0  0  0  0  0  0
   38.5830   24.7590   35.8710 C   0  0  0  0  0  0  0  0  0  0  0  0
   37.9810   24.4560   37.0290 N   0  0  0  0  0  0  0  0  0  0  0  0
   38.0730   23.2460   38.8050 H   0  0  0  0  0  0  0  0  0  0  0  0
   40.1780   22.1170   38.1550 H   0  0  0  0  0  0  0  0  0  0  0  0
   41.2230   22.7460   35.9800 H   0  0  0  0  0  0  0  0  0  0  0  0
   38.3950   25.4610   33.5370 C   0  0  0  0  0  0  0  0  0  0  0  0
   38.9630   24.5060   33.4970 H   0  0  0  0  0  0  0  0  0  0  0  0
   39.0850   26.2570   33.1930 H   0  0  0  0  0  0  0  0  0  0  0  0
   37.1500   28.0470   32.4450 Cl  0  0  0  0  0  0  0  0  0  0  0  0
   36.5650   26.4530   32.0300 C   0  0  0  0  0  0  0  0  0  0  0  0
   37.2330   25.3950   32.6080 C   0  0  0  0  0  0  0  0  0  0  0  0
   36.7400   24.1340   32.2570 C   0  0  0  0  0  0  0  0  0  0  0  0
   37.2440   23.2570   32.6930 H   0  0  0  0  0  0  0  0  0  0  0  0
   35.6860   23.8880   31.4160 C   0  0  0  0  0  0  0  0  0  0  0  0
   35.3950   22.8580   31.2180 H   0  0  0  0  0  0  0  0  0  0  0  0
   35.0480   24.9540   30.8630 C   0  0  0  0  0  3  0  0  0  0  0  0
   35.4960   26.2180   31.1780 C   0  0  0  0  0  3  0  0  0  0  0  0
  1  2  1  0  0  0  0
  1  3  1  0  0  0  0
  1  8  1  0  0  0  0
  4 10  1  0  0  0  0
  5  4  1  0  0  0  0
  5 11  1  0  0  0  0
  6  5  2  0  0  0  0
  7  8  2  0  0  0  0
  7  6  1  0  0  0  0
  8  9  1  0  0  0  0
  9  4  2  0  0  0  0
 12  6  1  0  0  0  0
 13  1  1  0  0  0  0
 14 13  1  0  0  0  0
 15 13  1  0  0  0  0
 17 16  1  0  0  0  0
 17 18  1  0  0  0  0
 18 13  1  0  0  0  0
 19 18  2  0  0  0  0
 19 20  1  0  0  0  0
 21 19  1  0  0  0  0
 22 21  1  0  0  0  0
 23 24  1  0  0  0  0
 23 21  2  0  0  0  0
 24 17  2  0  0  0  0
M  END
>  <minimizedAffinity>
-4.26730013

$$$$
