
 OpenBabel03272510293D

 28 30  0  0  0  0  0  0  0  0999 V2000
   37.1830   31.3160   49.2060 C   0  0  0  0  0  0  0  0  0  0  0  0
   37.3630   32.5780   49.7820 C   0  0  0  0  0  0  0  0  0  0  0  0
   38.3100   33.3810   49.1870 C   0  0  0  0  0  0  0  0  0  0  0  0
   38.9980   32.9250   48.1110 N   0  0  0  0  0  0  0  0  0  0  0  0
   38.8100   31.7000   47.5660 C   0  0  0  0  0  0  0  0  0  0  0  0
   37.8730   30.8780   48.1380 N   0  0  0  0  0  0  0  0  0  0  0  0
   36.7630   32.8380   50.6360 H   0  0  0  0  0  0  0  0  0  0  0  0
   38.4820   34.3660   49.6030 H   0  0  0  0  0  0  0  0  0  0  0  0
   36.1330   30.4210   49.8130 C   0  0  0  0  0  0  0  0  0  0  0  0
   36.1290   28.9930   49.6240 C   0  0  0  0  0  0  0  0  0  0  0  0
   36.6980   29.5260   50.9230 C   0  0  0  0  0  0  0  0  0  0  0  0
   35.1760   30.9300   50.1460 H   0  0  0  0  0  0  0  0  0  0  0  0
   36.8900   28.5780   48.9010 H   0  0  0  0  0  0  0  0  0  0  0  0
   35.2010   28.4160   49.6160 H   0  0  0  0  0  0  0  0  0  0  0  0
   36.0560   29.3070   51.8070 H   0  0  0  0  0  0  0  0  0  0  0  0
   37.7920   29.4600   51.0430 H   0  0  0  0  0  0  0  0  0  0  0  0
   39.5190   31.1750   46.4020 C   0  0  0  0  0  0  0  0  0  0  0  0
   39.7290   30.0870   46.5720 H   0  0  0  0  0  0  0  0  0  0  0  0
   40.5010   31.6860   46.3340 H   0  0  0  0  0  0  0  0  0  0  0  0
   40.0990   33.7360   44.8600 Cl  0  0  0  0  0  0  0  0  0  0  0  0
   38.9880   32.4990   44.3090 C   0  0  0  0  0  0  0  0  0  0  0  0
   38.8280   31.3930   45.1180 C   0  0  0  0  0  0  0  0  0  0  0  0
   37.9260   30.4530   44.6100 C   0  0  0  0  0  0  0  0  0  0  0  0
   37.7720   29.5610   45.2220 H   0  0  0  0  0  0  0  0  0  0  0  0
   37.2240   30.5480   43.4230 C   0  0  0  0  0  0  0  0  0  0  0  0
   36.5580   29.7390   43.1590 H   0  0  0  0  0  0  0  0  0  0  0  0
   37.4410   31.6930   42.6680 C   0  0  0  0  0  3  0  0  0  0  0  0
   38.3270   32.6730   43.1110 C   0  0  0  0  0  3  0  0  0  0  0  0
  1  2  1  0  0  0  0
  1  9  1  0  0  0  0
  2  7  1  0  0  0  0
  3  8  1  0  0  0  0
  3  2  2  0  0  0  0
  4  3  1  0  0  0  0
  5  4  2  0  0  0  0
  5  6  1  0  0  0  0
  6  1  2  0  0  0  0
  9 12  1  0  0  0  0
  9 11  1  0  0  0  0
 10  9  1  0  0  0  0
 10 11  1  0  0  0  0
 11 16  1  0  0  0  0
 11 15  1  0  0  0  0
 13 10  1  0  0  0  0
 14 10  1  0  0  0  0
 17 18  1  0  0  0  0
 17  5  1  0  0  0  0
 19 17  1  0  0  0  0
 21 20  1  0  0  0  0
 21 22  1  0  0  0  0
 22 17  1  0  0  0  0
 23 22  2  0  0  0  0
 23 24  1  0  0  0  0
 25 23  1  0  0  0  0
 26 25  1  0  0  0  0
 27 28  1  0  0  0  0
 27 25  2  0  0  0  0
 28 21  2  0  0  0  0
M  END
>  <minimizedAffinity>
-5.6383152

>  <minimizedRMSD>
0.841857255

$$$$
