
 OpenBabel03272500373D

 36 38  0  0  1  0  0  0  0  0999 V2000
   36.8870   31.2930   49.0050 C   0  0  0  0  0  0  0  0  0  0  0  0
   37.2080   32.4410   49.7330 C   0  0  0  0  0  0  0  0  0  0  0  0
   38.1230   33.3300   49.1770 C   0  0  0  0  0  0  0  0  0  0  0  0
   38.6490   33.0240   47.9540 N   0  0  0  0  0  0  0  0  0  0  0  0
   38.3080   31.8960   47.2820 C   0  0  0  0  0  0  0  0  0  0  0  0
   37.4320   31.0470   47.8180 N   0  0  0  0  0  0  0  0  0  0  0  0
   38.9180   31.6730   46.0110 N   0  0  0  0  0  0  0  0  0  0  0  0
   40.1490   30.9450   45.9390 C   0  0  0  0  0  0  0  0  0  0  0  0
   41.0290   31.7720   44.9770 C   0  0  0  0  0  0  0  0  0  0  0  0
   40.3930   31.5760   43.6290 C   0  0  0  0  0  0  0  0  0  0  0  0
   39.0650   32.2640   43.6070 C   0  0  0  0  0  0  0  0  0  0  0  0
   38.2730   32.1910   44.8510 C   0  0  1  0  0  0  0  0  0  0  0  0
   36.7780   32.6690   50.7070 H   0  0  0  0  0  0  0  0  0  0  0  0
   38.4360   34.2390   49.6540 H   0  0  0  0  0  0  0  0  0  0  0  0
   40.6530   30.9870   46.9250 H   0  0  0  0  0  0  0  0  0  0  0  0
   40.0880   29.9340   45.5390 H   0  0  0  0  0  0  0  0  0  0  0  0
   41.0970   32.8210   45.2780 H   0  0  0  0  0  0  0  0  0  0  0  0
   42.0330   31.2760   45.0040 H   0  0  0  0  0  0  0  0  0  0  0  0
   40.3800   30.5060   43.3850 H   0  0  0  0  0  0  0  0  0  0  0  0
   41.0740   32.0500   42.8900 H   0  0  0  0  0  0  0  0  0  0  0  0
   38.4830   31.8280   42.7480 H   0  0  0  0  0  0  0  0  0  0  0  0
   39.2600   33.3260   43.3000 H   0  0  0  0  0  0  0  0  0  0  0  0
   37.9530   33.2380   45.1350 H   0  0  0  0  0  0  0  0  0  0  0  0
   36.5310   33.1420   42.5510 Cl  0  0  0  0  0  0  0  0  0  0  0  0
   36.1180   31.8000   43.6250 C   0  0  0  0  0  0  0  0  0  0  0  0
   36.9930   31.4560   44.6410 C   0  0  0  0  0  0  0  0  0  0  0  0
   36.6200   30.4020   45.4500 C   0  0  0  0  0  0  0  0  0  0  0  0
   37.2520   30.0720   46.2680 H   0  0  0  0  0  0  0  0  0  0  0  0
   35.4410   29.7080   45.2740 C   0  0  0  0  0  0  0  0  0  0  0  0
   35.1700   28.8740   45.9310 H   0  0  0  0  0  0  0  0  0  0  0  0
   34.5740   30.0500   44.2650 C   0  0  0  0  0  0  0  0  0  0  0  0
   34.9570   31.1170   43.4520 C   0  0  0  0  0  0  0  0  0  0  0  0
   35.9010   30.3220   49.5910 C   0  0  0  0  0  0  0  0  0  0  0  0
   34.6320   30.9060   49.6350 F   0  0  0  0  0  0  0  0  0  0  0  0
   35.9530   29.1640   48.8860 F   0  0  0  0  0  0  0  0  0  0  0  0
   36.2820   30.1210   50.9290 F   0  0  0  0  0  0  0  0  0  0  0  0
  1 33  1  0  0  0  0
  1  2  1  0  0  0  0
  2 13  1  0  0  0  0
  3 14  1  0  0  0  0
  3  2  2  0  0  0  0
  4  3  1  0  0  0  0
  5  6  1  0  0  0  0
  5  4  2  0  0  0  0
  6  1  2  0  0  0  0
  7  5  1  0  0  0  0
  8  7  1  0  0  0  0
  8 15  1  0  0  0  0
  9 18  1  0  0  0  0
  9 17  1  0  0  0  0
  9  8  1  0  0  0  0
 10  9  1  0  0  0  0
 11 10  1  0  0  0  0
 11 12  1  0  0  0  0
 12 23  1  1  0  0  0
 12  7  1  0  0  0  0
 16  8  1  0  0  0  0
 19 10  1  0  0  0  0
 20 10  1  0  0  0  0
 21 11  1  0  0  0  0
 22 11  1  0  0  0  0
 24 25  1  0  0  0  0
 25 26  1  0  0  0  0
 26 12  1  0  0  0  0
 26 27  2  0  0  0  0
 27 28  1  0  0  0  0
 29 27  1  0  0  0  0
 29 30  1  0  0  0  0
 31 29  2  0  0  0  0
 32 25  2  0  0  0  0
 32 31  1  0  0  0  0
 33 34  1  0  0  0  0
 33 36  1  0  0  0  0
 35 33  1  0  0  0  0
M  END
>  <minimizedAffinity>
-6.44846392

>  <minimizedRMSD>
0.540840566

$$$$
