
 OpenBabel03272510293D

 28 30  0  0  0  0  0  0  0  0999 V2000
   37.5370   31.5020   49.3940 C   0  0  0  0  0  0  0  0  0  0  0  0
   37.8870   32.8050   49.7610 C   0  0  0  0  0  0  0  0  0  0  0  0
   38.7240   33.4700   48.8930 C   0  0  0  0  0  0  0  0  0  0  0  0
   39.1530   32.8490   47.7660 N   0  0  0  0  0  0  0  0  0  0  0  0
   38.8030   31.5860   47.4260 C   0  0  0  0  0  0  0  0  0  0  0  0
   37.9700   30.9000   48.2730 N   0  0  0  0  0  0  0  0  0  0  0  0
   37.4880   33.2000   50.6790 H   0  0  0  0  0  0  0  0  0  0  0  0
   39.0210   34.4820   49.1410 H   0  0  0  0  0  0  0  0  0  0  0  0
   36.5960   30.7540   50.3050 C   0  0  0  0  0  0  0  0  0  0  0  0
   36.5490   29.3150   50.3580 C   0  0  0  0  0  0  0  0  0  0  0  0
   37.3340   30.0300   51.4390 C   0  0  0  0  0  0  0  0  0  0  0  0
   35.7150   31.3440   50.7040 H   0  0  0  0  0  0  0  0  0  0  0  0
   37.1730   28.7620   49.5970 H   0  0  0  0  0  0  0  0  0  0  0  0
   35.6290   28.7780   50.6000 H   0  0  0  0  0  0  0  0  0  0  0  0
   36.8500   29.9790   52.4410 H   0  0  0  0  0  0  0  0  0  0  0  0
   38.4320   29.9450   51.3850 H   0  0  0  0  0  0  0  0  0  0  0  0
   39.2320   30.8870   46.2180 C   0  0  0  0  0  0  0  0  0  0  0  0
   38.8320   29.8400   46.2510 H   0  0  0  0  0  0  0  0  0  0  0  0
   40.3380   30.8110   46.2350 H   0  0  0  0  0  0  0  0  0  0  0  0
   36.4180   30.4820   45.1280 Cl  0  0  0  0  0  0  0  0  0  0  0  0
   37.6310   31.4740   44.3460 C   0  0  0  0  0  0  0  0  0  0  0  0
   38.8630   31.5610   44.9600 C   0  0  0  0  0  0  0  0  0  0  0  0
   39.7740   32.3700   44.2740 C   0  0  0  0  0  0  0  0  0  0  0  0
   40.7640   32.4640   44.7300 H   0  0  0  0  0  0  0  0  0  0  0  0
   39.5420   33.0490   43.0930 C   0  0  0  0  0  0  0  0  0  0  0  0
   40.3470   33.6390   42.6780 H   0  0  0  0  0  0  0  0  0  0  0  0
   38.2770   32.9090   42.5400 C   0  0  0  0  0  3  0  0  0  0  0  0
   37.3160   32.1180   43.1680 C   0  0  0  0  0  3  0  0  0  0  0  0
  1  2  1  0  0  0  0
  1  9  1  0  0  0  0
  2  7  1  0  0  0  0
  3  8  1  0  0  0  0
  3  2  2  0  0  0  0
  4  3  1  0  0  0  0
  5  4  2  0  0  0  0
  5  6  1  0  0  0  0
  6  1  2  0  0  0  0
  9 10  1  0  0  0  0
  9 12  1  0  0  0  0
  9 11  1  0  0  0  0
 10 14  1  0  0  0  0
 10 11  1  0  0  0  0
 11 15  1  0  0  0  0
 13 10  1  0  0  0  0
 16 11  1  0  0  0  0
 17 19  1  0  0  0  0
 17 18  1  0  0  0  0
 17  5  1  0  0  0  0
 21 22  1  0  0  0  0
 21 20  1  0  0  0  0
 22 17  1  0  0  0  0
 23 24  1  0  0  0  0
 23 22  2  0  0  0  0
 25 23  1  0  0  0  0
 26 25  1  0  0  0  0
 27 25  2  0  0  0  0
 27 28  1  0  0  0  0
 28 21  2  0  0  0  0
M  END
>  <minimizedAffinity>
-5.51709318

>  <minimizedRMSD>
1.29812598

$$$$
