
 OpenBabel03272510053D

 37 39  0  0  0  0  0  0  0  0999 V2000
   39.0100   26.5860   33.8070 C   0  0  0  0  0  0  0  0  0  0  0  0
   38.8490   26.1940   32.5130 C   0  0  0  0  0  0  0  0  0  0  0  0
   39.8850   26.3800   31.6050 C   0  0  0  0  0  0  0  0  0  0  0  0
   41.0880   26.9540   31.9530 C   0  0  0  0  0  0  0  0  0  0  0  0
   41.2840   27.3630   33.2460 C   0  0  0  0  0  0  0  0  0  0  0  0
   40.2440   27.1660   34.1220 C   0  0  0  0  0  0  0  0  0  0  0  0
   39.7180   26.0490   30.5650 H   0  0  0  0  0  0  0  0  0  0  0  0
   41.8080   27.0440   31.1830 H   0  0  0  0  0  0  0  0  0  0  0  0
   42.2340   27.8050   33.4790 H   0  0  0  0  0  0  0  0  0  0  0  0
   40.5210   27.5380   35.1200 H   0  0  0  0  0  0  0  0  0  0  0  0
   35.5130   25.9100   30.9980 C   0  0  0  0  0  0  0  0  0  0  0  0
   36.7220   26.4250   31.4430 C   0  0  0  0  0  0  0  0  0  0  0  0
   37.6250   25.6260   32.0540 C   0  0  0  0  0  0  0  0  0  0  0  0
   37.2890   24.3140   32.1990 N   0  0  0  0  0  0  0  0  0  0  0  0
   36.1340   23.8050   31.7710 C   0  0  0  0  0  0  0  0  0  0  0  0
   35.2510   24.6090   31.1750 N   0  0  0  0  0  0  0  0  0  0  0  0
   34.6960   26.3970   30.5030 H   0  0  0  0  0  0  0  0  0  0  0  0
   36.6900   27.4470   31.1490 H   0  0  0  0  0  0  0  0  0  0  0  0
   35.9340   22.3390   31.9320 C   0  0  0  0  0  0  0  0  0  0  0  0
   36.3190   21.6360   30.8080 F   0  0  0  0  0  0  0  0  0  0  0  0
   36.8660   21.8570   32.9310 F   0  0  0  0  0  0  0  0  0  0  0  0
   34.7680   21.9370   32.3780 F   0  0  0  0  0  0  0  0  0  0  0  0
   37.8290   26.3680   35.0340 S   0  0  0  0  0  0  0  0  0  0  0  0
   36.8090   27.4510   34.9930 O   0  0  0  0  0  0  0  0  0  0  0  0
   38.6150   26.9210   36.1990 O   0  0  0  0  0  0  0  0  0  0  0  0
   37.5330   25.0020   35.9880 C   0  0  0  0  0  0  0  0  0  0  0  0
   36.5360   24.5510   35.7980 H   0  0  0  0  0  0  0  0  0  0  0  0
   37.3310   25.4260   37.0460 H   0  0  0  0  0  0  0  0  0  0  0  0
   38.3310   24.2600   38.9070 Cl  0  0  0  0  0  0  0  0  0  0  0  0
   39.0230   23.5720   37.4540 C   0  0  0  0  0  0  0  0  0  0  0  0
   38.5740   24.0360   36.2260 C   0  0  0  0  0  0  0  0  0  0  0  0
   39.2590   23.3970   35.1810 C   0  0  0  0  0  0  0  0  0  0  0  0
   38.9980   23.6750   34.1520 H   0  0  0  0  0  0  0  0  0  0  0  0
   40.2250   22.4530   35.3170 C   0  0  0  0  0  0  0  0  0  0  0  0
   40.7090   22.0040   34.4610 H   0  0  0  0  0  0  0  0  0  0  0  0
   40.5910   22.0670   36.5730 C   0  0  0  0  0  3  0  0  0  0  0  0
   39.9880   22.6290   37.6630 C   0  0  0  0  0  3  0  0  0  0  0  0
  1  6  1  0  0  0  0
  1 23  1  0  0  0  0
  2  1  2  0  0  0  0
  3  4  2  0  0  0  0
  3  2  1  0  0  0  0
  4  5  1  0  0  0  0
  5  9  1  0  0  0  0
  5  6  2  0  0  0  0
  6 10  1  0  0  0  0
  7  3  1  0  0  0  0
  8  4  1  0  0  0  0
 11 16  2  0  0  0  0
 11 12  1  0  0  0  0
 12 13  2  0  0  0  0
 13 14  1  0  0  0  0
 13  2  1  0  0  0  0
 15 19  1  0  0  0  0
 15 14  2  0  0  0  0
 16 15  1  0  0  0  0
 17 11  1  0  0  0  0
 18 12  1  0  0  0  0
 19 22  1  0  0  0  0
 19 21  1  0  0  0  0
 20 19  1  0  0  0  0
 23 26  1  0  0  0  0
 23 25  2  0  0  0  0
 24 23  2  0  0  0  0
 26 31  1  0  0  0  0
 26 28  1  0  0  0  0
 27 26  1  0  0  0  0
 30 37  1  0  0  0  0
 30 29  1  0  0  0  0
 31 30  2  0  0  0  0
 32 34  2  0  0  0  0
 32 31  1  0  0  0  0
 33 32  1  0  0  0  0
 34 36  1  0  0  0  0
 35 34  1  0  0  0  0
 36 37  2  0  0  0  0
M  END
>  <minimizedAffinity>
-6.26031351

$$$$

 OpenBabel03272510053D

 37 39  0  0  0  0  0  0  0  0999 V2000
   39.4420   26.4710   32.5160 C   0  0  0  0  0  0  0  0  0  0  0  0
   38.7910   26.3010   31.3310 C   0  0  0  0  0  0  0  0  0  0  0  0
   39.3770   26.7560   30.1550 C   0  0  0  0  0  0  0  0  0  0  0  0
   40.6030   27.3830   30.1260 C   0  0  0  0  0  0  0  0  0  0  0  0
   41.2850   27.5740   31.2990 C   0  0  0  0  0  0  0  0  0  0  0  0
   40.6830   27.1140   32.4460 C   0  0  0  0  0  0  0  0  0  0  0  0
   38.8200   26.5990   29.2140 H   0  0  0  0  0  0  0  0  0  0  0  0
   40.9550   27.6850   29.1750 H   0  0  0  0  0  0  0  0  0  0  0  0
   42.2360   28.0660   31.2370 H   0  0  0  0  0  0  0  0  0  0  0  0
   41.3220   27.3300   33.3150 H   0  0  0  0  0  0  0  0  0  0  0  0
   35.1450   25.9350   31.0660 C   0  0  0  0  0  0  0  0  0  0  0  0
   36.4170   26.4880   31.1140 C   0  0  0  0  0  0  0  0  0  0  0  0
   37.5030   25.6980   31.2700 C   0  0  0  0  0  0  0  0  0  0  0  0
   37.2800   24.3580   31.3700 N   0  0  0  0  0  0  0  0  0  0  0  0
   36.0640   23.8140   31.3200 C   0  0  0  0  0  0  0  0  0  0  0  0
   35.0030   24.6080   31.1710 N   0  0  0  0  0  0  0  0  0  0  0  0
   34.1900   26.4100   30.9510 H   0  0  0  0  0  0  0  0  0  0  0  0
   36.2510   27.5290   30.9700 H   0  0  0  0  0  0  0  0  0  0  0  0
   35.9800   22.3280   31.3690 C   0  0  0  0  0  0  0  0  0  0  0  0
   37.2260   21.7390   31.4430 F   0  0  0  0  0  0  0  0  0  0  0  0
   35.3830   21.9450   32.6320 F   0  0  0  0  0  0  0  0  0  0  0  0
   35.2190   21.7400   30.4770 F   0  0  0  0  0  0  0  0  0  0  0  0
   38.8510   25.9140   34.0280 S   0  0  0  0  0  0  0  0  0  0  0  0
   38.2390   27.0250   34.8060 O   0  0  0  0  0  0  0  0  0  0  0  0
   40.1600   25.8830   34.7800 O   0  0  0  0  0  0  0  0  0  0  0  0
   38.6090   24.3220   34.5480 C   0  0  0  0  0  0  0  0  0  0  0  0
   39.0610   23.5720   33.8650 H   0  0  0  0  0  0  0  0  0  0  0  0
   37.4930   24.1100   34.3220 H   0  0  0  0  0  0  0  0  0  0  0  0
   40.8370   22.3630   35.5000 Cl  0  0  0  0  0  0  0  0  0  0  0  0
   39.6700   23.1590   36.5320 C   0  0  0  0  0  0  0  0  0  0  0  0
   38.7210   23.9820   35.9430 C   0  0  0  0  0  0  0  0  0  0  0  0
   37.8560   24.5070   36.9150 C   0  0  0  0  0  0  0  0  0  0  0  0
   37.0540   25.1770   36.5810 H   0  0  0  0  0  0  0  0  0  0  0  0
   37.9120   24.2660   38.2500 C   0  0  0  0  0  0  0  0  0  0  0  0
   37.2090   24.7090   38.9400 H   0  0  0  0  0  0  0  0  0  0  0  0
   38.8880   23.4410   38.7260 C   0  0  0  0  0  3  0  0  0  0  0  0
   39.7840   22.8740   37.8620 C   0  0  0  0  0  3  0  0  0  0  0  0
  1 23  1  0  0  0  0
  2  1  2  0  0  0  0
  3  2  1  0  0  0  0
  4  3  2  0  0  0  0
  4  5  1  0  0  0  0
  5  6  2  0  0  0  0
  6  1  1  0  0  0  0
  6 10  1  0  0  0  0
  7  3  1  0  0  0  0
  8  4  1  0  0  0  0
  9  5  1  0  0  0  0
 11 12  2  0  0  0  0
 11 16  1  0  0  0  0
 12 13  1  0  0  0  0
 13  2  1  0  0  0  0
 13 14  2  0  0  0  0
 15 19  1  0  0  0  0
 15 14  1  0  0  0  0
 16 15  2  0  0  0  0
 17 11  1  0  0  0  0
 18 12  1  0  0  0  0
 19 20  1  0  0  0  0
 19 21  1  0  0  0  0
 22 19  1  0  0  0  0
 23 26  1  0  0  0  0
 23 25  2  0  0  0  0
 23 24  2  0  0  0  0
 26 31  1  0  0  0  0
 27 26  1  0  0  0  0
 28 26  1  0  0  0  0
 29 30  1  0  0  0  0
 30 37  1  0  0  0  0
 31 30  2  0  0  0  0
 31 32  1  0  0  0  0
 32 34  2  0  0  0  0
 33 32  1  0  0  0  0
 34 36  1  0  0  0  0
 34 35  1  0  0  0  0
 37 36  2  0  0  0  0
M  END
>  <minimizedAffinity>
-6.13451481

$$$$

 OpenBabel03272510053D

 37 39  0  0  0  0  0  0  0  0999 V2000
   37.0220   27.2080   33.9440 C   0  0  0  0  0  0  0  0  0  0  0  0
   36.6560   26.9360   32.6610 C   0  0  0  0  0  0  0  0  0  0  0  0
   35.8190   27.8170   31.9840 C   0  0  0  0  0  0  0  0  0  0  0  0
   35.3300   28.9700   32.5580 C   0  0  0  0  0  0  0  0  0  0  0  0
   35.6750   29.2740   33.8490 C   0  0  0  0  0  0  0  0  0  0  0  0
   36.5040   28.3860   34.4930 C   0  0  0  0  0  0  0  0  0  0  0  0
   35.5450   27.5640   30.9450 H   0  0  0  0  0  0  0  0  0  0  0  0
   34.7040   29.5690   31.9500 H   0  0  0  0  0  0  0  0  0  0  0  0
   35.2750   30.1800   34.2610 H   0  0  0  0  0  0  0  0  0  0  0  0
   36.7020   28.7360   35.5160 H   0  0  0  0  0  0  0  0  0  0  0  0
   38.6000   24.6680   30.5210 C   0  0  0  0  0  0  0  0  0  0  0  0
   38.1650   25.8020   31.1930 C   0  0  0  0  0  0  0  0  0  0  0  0
   37.0830   25.7480   32.0010 C   0  0  0  0  0  0  0  0  0  0  0  0
   36.4620   24.5420   32.1200 N   0  0  0  0  0  0  0  0  0  0  0  0
   36.8730   23.4440   31.4850 C   0  0  0  0  0  0  0  0  0  0  0  0
   37.9390   23.5160   30.6870 N   0  0  0  0  0  0  0  0  0  0  0  0
   39.4260   24.5380   29.8500 H   0  0  0  0  0  0  0  0  0  0  0  0
   38.8730   26.5480   30.9220 H   0  0  0  0  0  0  0  0  0  0  0  0
   36.1400   22.1790   31.7670 C   0  0  0  0  0  0  0  0  0  0  0  0
   36.2630   21.2670   30.7390 F   0  0  0  0  0  0  0  0  0  0  0  0
   36.8040   21.5000   32.8610 F   0  0  0  0  0  0  0  0  0  0  0  0
   34.8980   22.2830   32.1760 F   0  0  0  0  0  0  0  0  0  0  0  0
   38.0860   26.2280   34.8700 S   0  0  0  0  0  0  0  0  0  0  0  0
   38.2420   26.7640   36.2500 O   0  0  0  0  0  0  0  0  0  0  0  0
   39.3950   26.7590   34.3360 O   0  0  0  0  0  0  0  0  0  0  0  0
   38.6670   24.6780   34.5250 C   0  0  0  0  0  0  0  0  0  0  0  0
   38.9700   24.5570   33.4630 H   0  0  0  0  0  0  0  0  0  0  0  0
   37.7200   24.0110   34.5090 H   0  0  0  0  0  0  0  0  0  0  0  0
   37.4690   23.4360   37.1200 Cl  0  0  0  0  0  0  0  0  0  0  0  0
   39.1480   23.3590   36.6330 C   0  0  0  0  0  0  0  0  0  0  0  0
   39.5240   23.9920   35.4570 C   0  0  0  0  0  0  0  0  0  0  0  0
   40.9040   23.8510   35.2440 C   0  0  0  0  0  0  0  0  0  0  0  0
   41.3330   24.3080   34.3440 H   0  0  0  0  0  0  0  0  0  0  0  0
   41.7750   23.1930   36.0510 C   0  0  0  0  0  0  0  0  0  0  0  0
   42.8280   23.1260   35.8200 H   0  0  0  0  0  0  0  0  0  0  0  0
   41.2990   22.6030   37.1850 C   0  0  0  0  0  3  0  0  0  0  0  0
   39.9690   22.6820   37.4890 C   0  0  0  0  0  3  0  0  0  0  0  0
  1  6  1  0  0  0  0
  1 23  1  0  0  0  0
  2  1  2  0  0  0  0
  3  4  2  0  0  0  0
  3  2  1  0  0  0  0
  4  5  1  0  0  0  0
  5  9  1  0  0  0  0
  5  6  2  0  0  0  0
  6 10  1  0  0  0  0
  7  3  1  0  0  0  0
  8  4  1  0  0  0  0
 11 16  2  0  0  0  0
 11 12  1  0  0  0  0
 12 13  2  0  0  0  0
 13 14  1  0  0  0  0
 13  2  1  0  0  0  0
 15 19  1  0  0  0  0
 15 14  2  0  0  0  0
 16 15  1  0  0  0  0
 17 11  1  0  0  0  0
 18 12  1  0  0  0  0
 19 22  1  0  0  0  0
 19 21  1  0  0  0  0
 20 19  1  0  0  0  0
 23 24  2  0  0  0  0
 25 23  2  0  0  0  0
 26 23  1  0  0  0  0
 26 31  1  0  0  0  0
 27 26  1  0  0  0  0
 28 26  1  0  0  0  0
 30 29  1  0  0  0  0
 30 37  1  0  0  0  0
 31 30  2  0  0  0  0
 32 31  1  0  0  0  0
 32 34  2  0  0  0  0
 33 32  1  0  0  0  0
 34 36  1  0  0  0  0
 35 34  1  0  0  0  0
 36 37  2  0  0  0  0
M  END
>  <minimizedAffinity>
-6.12329578

$$$$

 OpenBabel03272510053D

 37 39  0  0  0  0  0  0  0  0999 V2000
   34.3860   30.2460   32.0950 C   0  0  0  0  0  0  0  0  0  0  0  0
   35.5570   29.6910   31.6770 C   0  0  0  0  0  0  0  0  0  0  0  0
   36.3780   30.3980   30.8050 C   0  0  0  0  0  0  0  0  0  0  0  0
   36.0600   31.6510   30.3310 C   0  0  0  0  0  0  0  0  0  0  0  0
   34.8870   32.2380   30.7280 C   0  0  0  0  0  0  0  0  0  0  0  0
   34.0950   31.5180   31.5910 C   0  0  0  0  0  0  0  0  0  0  0  0
   37.3200   29.9170   30.4890 H   0  0  0  0  0  0  0  0  0  0  0  0
   36.7590   32.0980   29.6740 H   0  0  0  0  0  0  0  0  0  0  0  0
   34.6730   33.2150   30.3380 H   0  0  0  0  0  0  0  0  0  0  0  0
   33.1870   32.0910   31.8290 H   0  0  0  0  0  0  0  0  0  0  0  0
   37.0930   26.9880   33.6350 C   0  0  0  0  0  0  0  0  0  0  0  0
   36.6800   28.2440   33.2150 C   0  0  0  0  0  0  0  0  0  0  0  0
   35.9500   28.3840   32.0860 C   0  0  0  0  0  0  0  0  0  0  0  0
   35.6460   27.2460   31.4030 N   0  0  0  0  0  0  0  0  0  0  0  0
   36.0310   26.0330   31.7980 C   0  0  0  0  0  0  0  0  0  0  0  0
   36.7560   25.9120   32.9120 N   0  0  0  0  0  0  0  0  0  0  0  0
   37.6720   26.7020   34.4910 H   0  0  0  0  0  0  0  0  0  0  0  0
   37.0400   28.8990   33.9720 H   0  0  0  0  0  0  0  0  0  0  0  0
   35.5630   24.8720   30.9920 C   0  0  0  0  0  0  0  0  0  0  0  0
   36.6080   24.2110   30.3780 F   0  0  0  0  0  0  0  0  0  0  0  0
   35.0500   23.8640   31.8960 F   0  0  0  0  0  0  0  0  0  0  0  0
   34.5680   25.0790   30.1620 F   0  0  0  0  0  0  0  0  0  0  0  0
   33.3100   29.5000   33.2070 S   0  0  0  0  0  0  0  0  0  0  0  0
   32.4390   28.5050   32.5230 O   0  0  0  0  0  0  0  0  0  0  0  0
   32.2770   30.5990   33.2860 O   0  0  0  0  0  0  0  0  0  0  0  0
   33.3490   29.5260   34.8980 C   0  0  0  0  0  0  0  0  0  0  0  0
   33.6700   28.5570   35.3360 H   0  0  0  0  0  0  0  0  0  0  0  0
   32.2360   29.4980   35.2140 H   0  0  0  0  0  0  0  0  0  0  0  0
   31.4890   31.0980   36.8420 Cl  0  0  0  0  0  0  0  0  0  0  0  0
   33.1700   31.4620   36.5200 C   0  0  0  0  0  0  0  0  0  0  0  0
   33.8510   30.6780   35.6010 C   0  0  0  0  0  0  0  0  0  0  0  0
   35.1700   31.1340   35.4500 C   0  0  0  0  0  0  0  0  0  0  0  0
   35.8210   30.5990   34.7470 H   0  0  0  0  0  0  0  0  0  0  0  0
   35.7320   32.1870   36.0980 C   0  0  0  0  0  0  0  0  0  0  0  0
   36.7580   32.4790   35.9290 H   0  0  0  0  0  0  0  0  0  0  0  0
   34.9720   32.8910   36.9840 C   0  0  0  0  0  3  0  0  0  0  0  0
   33.6710   32.5320   37.2050 C   0  0  0  0  0  3  0  0  0  0  0  0
  1 23  1  0  0  0  0
  2 13  1  0  0  0  0
  2  1  1  0  0  0  0
  3  2  2  0  0  0  0
  4  5  2  0  0  0  0
  4  3  1  0  0  0  0
  5  6  1  0  0  0  0
  6 10  1  0  0  0  0
  6  1  2  0  0  0  0
  7  3  1  0  0  0  0
  8  4  1  0  0  0  0
  9  5  1  0  0  0  0
 11 17  1  0  0  0  0
 12 11  1  0  0  0  0
 12 18  1  0  0  0  0
 13 12  2  0  0  0  0
 14 15  2  0  0  0  0
 14 13  1  0  0  0  0
 15 16  1  0  0  0  0
 16 11  2  0  0  0  0
 19 15  1  0  0  0  0
 19 21  1  0  0  0  0
 20 19  1  0  0  0  0
 22 19  1  0  0  0  0
 23 25  2  0  0  0  0
 23 26  1  0  0  0  0
 24 23  2  0  0  0  0
 26 28  1  0  0  0  0
 26 27  1  0  0  0  0
 26 31  1  0  0  0  0
 30 29  1  0  0  0  0
 30 37  1  0  0  0  0
 31 30  2  0  0  0  0
 32 31  1  0  0  0  0
 32 34  2  0  0  0  0
 33 32  1  0  0  0  0
 34 36  1  0  0  0  0
 35 34  1  0  0  0  0
 36 37  2  0  0  0  0
M  END
>  <minimizedAffinity>
-6.11361885

$$$$

 OpenBabel03272510053D

 37 39  0  0  0  0  0  0  0  0999 V2000
   35.9700   21.8870   32.3970 C   0  0  0  0  0  0  0  0  0  0  0  0
   36.6540   21.1710   33.3320 C   0  0  0  0  0  0  0  0  0  0  0  0
   36.3350   19.8330   33.5400 C   0  0  0  0  0  0  0  0  0  0  0  0
   35.3430   19.1850   32.8370 C   0  0  0  0  0  0  0  0  0  0  0  0
   34.6330   19.8760   31.8910 C   0  0  0  0  0  0  0  0  0  0  0  0
   34.9690   21.1960   31.7060 C   0  0  0  0  0  0  0  0  0  0  0  0
   36.9110   19.2840   34.3050 H   0  0  0  0  0  0  0  0  0  0  0  0
   35.1870   18.1660   33.0740 H   0  0  0  0  0  0  0  0  0  0  0  0
   33.8680   19.3380   31.3640 H   0  0  0  0  0  0  0  0  0  0  0  0
   34.3290   21.6380   30.9280 H   0  0  0  0  0  0  0  0  0  0  0  0
   39.9480   22.3910   34.4070 C   0  0  0  0  0  0  0  0  0  0  0  0
   38.9300   21.8300   33.6490 C   0  0  0  0  0  0  0  0  0  0  0  0
   37.6690   21.7690   34.1320 C   0  0  0  0  0  0  0  0  0  0  0  0
   37.4600   22.2830   35.3760 N   0  0  0  0  0  0  0  0  0  0  0  0
   38.4270   22.8300   36.1120 C   0  0  0  0  0  0  0  0  0  0  0  0
   39.6670   22.8780   35.6230 N   0  0  0  0  0  0  0  0  0  0  0  0
   40.9890   22.5160   34.1810 H   0  0  0  0  0  0  0  0  0  0  0  0
   39.4060   21.5660   32.7350 H   0  0  0  0  0  0  0  0  0  0  0  0
   38.0370   23.4170   37.4230 C   0  0  0  0  0  0  0  0  0  0  0  0
   37.2820   24.5640   37.2730 F   0  0  0  0  0  0  0  0  0  0  0  0
   37.1040   22.5170   38.0680 F   0  0  0  0  0  0  0  0  0  0  0  0
   38.9840   23.5750   38.3170 F   0  0  0  0  0  0  0  0  0  0  0  0
   36.2990   23.5280   32.0110 S   0  0  0  0  0  0  0  0  0  0  0  0
   35.1090   24.1840   31.4050 O   0  0  0  0  0  0  0  0  0  0  0  0
   37.0450   23.3050   30.7170 O   0  0  0  0  0  0  0  0  0  0  0  0
   37.6020   24.4900   32.5020 C   0  0  0  0  0  0  0  0  0  0  0  0
   38.4340   24.4970   31.7660 H   0  0  0  0  0  0  0  0  0  0  0  0
   38.1170   23.8750   33.3370 H   0  0  0  0  0  0  0  0  0  0  0  0
   36.7230   26.9470   30.7990 Cl  0  0  0  0  0  0  0  0  0  0  0  0
   36.9510   26.9370   32.5340 C   0  0  0  0  0  0  0  0  0  0  0  0
   37.3750   25.7620   33.1370 C   0  0  0  0  0  0  0  0  0  0  0  0
   37.5310   25.9490   34.5190 C   0  0  0  0  0  0  0  0  0  0  0  0
   37.8650   25.0930   35.1190 H   0  0  0  0  0  0  0  0  0  0  0  0
   37.3050   27.1020   35.2010 C   0  0  0  0  0  0  0  0  0  0  0  0
   37.4480   27.1700   36.2690 H   0  0  0  0  0  0  0  0  0  0  0  0
   36.8880   28.2010   34.5090 C   0  0  0  0  0  3  0  0  0  0  0  0
   36.7060   28.1270   33.1560 C   0  0  0  0  0  3  0  0  0  0  0  0
  1  2  1  0  0  0  0
  2  3  2  0  0  0  0
  2 13  1  0  0  0  0
  3  7  1  0  0  0  0
  4  8  1  0  0  0  0
  4  3  1  0  0  0  0
  5  4  2  0  0  0  0
  6  5  1  0  0  0  0
  6  1  2  0  0  0  0
  9  5  1  0  0  0  0
 10  6  1  0  0  0  0
 11 16  1  0  0  0  0
 12 13  1  0  0  0  0
 12 11  2  0  0  0  0
 13 14  2  0  0  0  0
 14 15  1  0  0  0  0
 15 19  1  0  0  0  0
 16 15  2  0  0  0  0
 17 11  1  0  0  0  0
 18 12  1  0  0  0  0
 19 21  1  0  0  0  0
 19 22  1  0  0  0  0
 20 19  1  0  0  0  0
 23  1  1  0  0  0  0
 23 26  1  0  0  0  0
 24 23  2  0  0  0  0
 25 23  2  0  0  0  0
 26 31  1  0  0  0  0
 26 28  1  0  0  0  0
 27 26  1  0  0  0  0
 29 30  1  0  0  0  0
 30 31  2  0  0  0  0
 30 37  1  0  0  0  0
 31 32  1  0  0  0  0
 32 33  1  0  0  0  0
 32 34  2  0  0  0  0
 34 35  1  0  0  0  0
 36 34  1  0  0  0  0
 37 36  2  0  0  0  0
M  END
>  <minimizedAffinity>
-6.0937953

$$$$

 OpenBabel03272510053D

 37 39  0  0  0  0  0  0  0  0999 V2000
   36.2970   29.6710   31.4440 C   0  0  0  0  0  0  0  0  0  0  0  0
   37.2310   28.7040   31.2260 C   0  0  0  0  0  0  0  0  0  0  0  0
   38.0680   28.7950   30.1190 C   0  0  0  0  0  0  0  0  0  0  0  0
   37.9970   29.8300   29.2130 C   0  0  0  0  0  0  0  0  0  0  0  0
   37.0670   30.8190   29.3990 C   0  0  0  0  0  0  0  0  0  0  0  0
   36.2540   30.7040   30.5010 C   0  0  0  0  0  0  0  0  0  0  0  0
   38.8130   27.9930   29.9760 H   0  0  0  0  0  0  0  0  0  0  0  0
   38.6840   29.8000   28.4090 H   0  0  0  0  0  0  0  0  0  0  0  0
   37.0410   31.6080   28.6720 H   0  0  0  0  0  0  0  0  0  0  0  0
   35.5520   31.5510   30.5370 H   0  0  0  0  0  0  0  0  0  0  0  0
   36.8870   25.2880   32.5330 C   0  0  0  0  0  0  0  0  0  0  0  0
   36.8030   26.4020   31.7100 C   0  0  0  0  0  0  0  0  0  0  0  0
   37.3510   27.5780   32.0900 C   0  0  0  0  0  0  0  0  0  0  0  0
   37.9810   27.6030   33.2970 N   0  0  0  0  0  0  0  0  0  0  0  0
   38.0730   26.5390   34.0950 C   0  0  0  0  0  0  0  0  0  0  0  0
   37.5230   25.3870   33.7080 N   0  0  0  0  0  0  0  0  0  0  0  0
   36.5110   24.2940   32.3890 H   0  0  0  0  0  0  0  0  0  0  0  0
   36.2960   26.0450   30.8460 H   0  0  0  0  0  0  0  0  0  0  0  0
   38.8550   26.6960   35.3520 C   0  0  0  0  0  0  0  0  0  0  0  0
   40.1930   26.9290   35.1060 F   0  0  0  0  0  0  0  0  0  0  0  0
   38.4410   27.9240   35.9980 F   0  0  0  0  0  0  0  0  0  0  0  0
   38.6860   25.7860   36.2820 F   0  0  0  0  0  0  0  0  0  0  0  0
   35.2390   29.7020   32.7970 S   0  0  0  0  0  0  0  0  0  0  0  0
   33.8470   29.3640   32.3940 O   0  0  0  0  0  0  0  0  0  0  0  0
   35.0320   31.1950   32.8810 O   0  0  0  0  0  0  0  0  0  0  0  0
   35.6280   29.7450   34.4430 C   0  0  0  0  0  0  0  0  0  0  0  0
   36.7110   29.5920   34.6340 H   0  0  0  0  0  0  0  0  0  0  0  0
   35.2360   28.7380   34.8590 H   0  0  0  0  0  0  0  0  0  0  0  0
   32.6820   29.3460   35.3780 Cl  0  0  0  0  0  0  0  0  0  0  0  0
   33.7320   30.6640   35.8480 C   0  0  0  0  0  0  0  0  0  0  0  0
   35.0120   30.7100   35.3160 C   0  0  0  0  0  0  0  0  0  0  0  0
   35.6950   31.8460   35.7770 C   0  0  0  0  0  0  0  0  0  0  0  0
   36.7230   32.0040   35.4300 H   0  0  0  0  0  0  0  0  0  0  0  0
   35.2030   32.7850   36.6260 C   0  0  0  0  0  0  0  0  0  0  0  0
   35.7900   33.6360   36.9390 H   0  0  0  0  0  0  0  0  0  0  0  0
   33.9290   32.6430   37.0920 C   0  0  0  0  0  3  0  0  0  0  0  0
   33.1750   31.5710   36.7030 C   0  0  0  0  0  3  0  0  0  0  0  0
  1 23  1  0  0  0  0
  2  1  1  0  0  0  0
  2 13  1  0  0  0  0
  3  2  2  0  0  0  0
  4  5  2  0  0  0  0
  4  3  1  0  0  0  0
  5  6  1  0  0  0  0
  6 10  1  0  0  0  0
  6  1  2  0  0  0  0
  7  3  1  0  0  0  0
  8  4  1  0  0  0  0
  9  5  1  0  0  0  0
 11 16  1  0  0  0  0
 12 13  1  0  0  0  0
 12 11  2  0  0  0  0
 13 14  2  0  0  0  0
 14 15  1  0  0  0  0
 15 19  1  0  0  0  0
 16 15  2  0  0  0  0
 17 11  1  0  0  0  0
 18 12  1  0  0  0  0
 19 21  1  0  0  0  0
 19 22  1  0  0  0  0
 20 19  1  0  0  0  0
 23 25  2  0  0  0  0
 23 26  1  0  0  0  0
 24 23  2  0  0  0  0
 26 27  1  0  0  0  0
 26 28  1  0  0  0  0
 26 31  1  0  0  0  0
 29 30  1  0  0  0  0
 30 37  1  0  0  0  0
 31 32  1  0  0  0  0
 31 30  2  0  0  0  0
 32 34  2  0  0  0  0
 33 32  1  0  0  0  0
 34 35  1  0  0  0  0
 34 36  1  0  0  0  0
 37 36  2  0  0  0  0
M  END
>  <minimizedAffinity>
-6.05350447

$$$$

 OpenBabel03272510053D

 37 39  0  0  0  0  0  0  0  0999 V2000
   39.6420   25.2760   32.9570 C   0  0  0  0  0  0  0  0  0  0  0  0
   40.3840   25.3090   34.0990 C   0  0  0  0  0  0  0  0  0  0  0  0
   41.2910   26.3440   34.2990 C   0  0  0  0  0  0  0  0  0  0  0  0
   41.4850   27.3540   33.3820 C   0  0  0  0  0  0  0  0  0  0  0  0
   40.7580   27.3510   32.2210 C   0  0  0  0  0  0  0  0  0  0  0  0
   39.8680   26.3170   32.0500 C   0  0  0  0  0  0  0  0  0  0  0  0
   41.8740   26.3380   35.2370 H   0  0  0  0  0  0  0  0  0  0  0  0
   42.1980   28.0920   33.6380 H   0  0  0  0  0  0  0  0  0  0  0  0
   40.9360   28.1540   31.5310 H   0  0  0  0  0  0  0  0  0  0  0  0
   39.3540   26.4240   31.0840 H   0  0  0  0  0  0  0  0  0  0  0  0
   40.9770   22.1690   35.9120 C   0  0  0  0  0  0  0  0  0  0  0  0
   41.0650   23.1920   34.9790 C   0  0  0  0  0  0  0  0  0  0  0  0
   40.2780   24.2860   35.0850 C   0  0  0  0  0  0  0  0  0  0  0  0
   39.4180   24.3270   36.1400 N   0  0  0  0  0  0  0  0  0  0  0  0
   39.3280   23.3540   37.0460 C   0  0  0  0  0  0  0  0  0  0  0  0
   40.1080   22.2790   36.9240 N   0  0  0  0  0  0  0  0  0  0  0  0
   41.5170   21.2440   35.9750 H   0  0  0  0  0  0  0  0  0  0  0  0
   41.8400   22.8760   34.3230 H   0  0  0  0  0  0  0  0  0  0  0  0
   38.3960   23.5690   38.1870 C   0  0  0  0  0  0  0  0  0  0  0  0
   39.0520   23.5670   39.4010 F   0  0  0  0  0  0  0  0  0  0  0  0
   37.8870   24.9230   38.1140 F   0  0  0  0  0  0  0  0  0  0  0  0
   37.3110   22.8320   38.2230 F   0  0  0  0  0  0  0  0  0  0  0  0
   38.4560   24.0830   32.6130 S   0  0  0  0  0  0  0  0  0  0  0  0
   37.8220   24.3260   31.2890 O   0  0  0  0  0  0  0  0  0  0  0  0
   37.3290   24.6470   33.4450 O   0  0  0  0  0  0  0  0  0  0  0  0
   38.1840   22.6070   33.3920 C   0  0  0  0  0  0  0  0  0  0  0  0
   38.2570   22.6820   34.4970 H   0  0  0  0  0  0  0  0  0  0  0  0
   39.1470   21.9940   33.1970 H   0  0  0  0  0  0  0  0  0  0  0  0
   36.3460   21.1680   35.4570 Cl  0  0  0  0  0  0  0  0  0  0  0  0
   36.2260   21.0330   33.7170 C   0  0  0  0  0  0  0  0  0  0  0  0
   37.1450   21.7190   32.9360 C   0  0  0  0  0  0  0  0  0  0  0  0
   36.9160   21.4690   31.5750 C   0  0  0  0  0  0  0  0  0  0  0  0
   37.5770   21.9530   30.8450 H   0  0  0  0  0  0  0  0  0  0  0  0
   35.9400   20.6760   31.0600 C   0  0  0  0  0  0  0  0  0  0  0  0
   35.8250   20.5320   29.9960 H   0  0  0  0  0  0  0  0  0  0  0  0
   35.0870   20.0470   31.9180 C   0  0  0  0  0  3  0  0  0  0  0  0
   35.2250   20.2210   33.2670 C   0  0  0  0  0  3  0  0  0  0  0  0
  1  2  1  0  0  0  0
  2  3  2  0  0  0  0
  2 13  1  0  0  0  0
  3  7  1  0  0  0  0
  4  8  1  0  0  0  0
  4  3  1  0  0  0  0
  5  4  2  0  0  0  0
  6  5  1  0  0  0  0
  6  1  2  0  0  0  0
  9  5  1  0  0  0  0
 10  6  1  0  0  0  0
 11 17  1  0  0  0  0
 11 16  1  0  0  0  0
 12 13  1  0  0  0  0
 12 11  2  0  0  0  0
 13 14  2  0  0  0  0
 14 15  1  0  0  0  0
 15 19  1  0  0  0  0
 16 15  2  0  0  0  0
 18 12  1  0  0  0  0
 19 22  1  0  0  0  0
 19 20  1  0  0  0  0
 21 19  1  0  0  0  0
 23  1  1  0  0  0  0
 23 26  1  0  0  0  0
 23 25  2  0  0  0  0
 24 23  2  0  0  0  0
 26 27  1  0  0  0  0
 28 26  1  0  0  0  0
 30 29  1  0  0  0  0
 31 26  1  0  0  0  0
 31 30  2  0  0  0  0
 32 31  1  0  0  0  0
 33 32  1  0  0  0  0
 34 32  2  0  0  0  0
 34 36  1  0  0  0  0
 35 34  1  0  0  0  0
 36 37  2  0  0  0  0
 37 30  1  0  0  0  0
M  END
>  <minimizedAffinity>
-6.03621864

$$$$

 OpenBabel03272510053D

 37 39  0  0  0  0  0  0  0  0999 V2000
   36.8120   22.6640   32.6300 C   0  0  0  0  0  0  0  0  0  0  0  0
   37.0660   21.8580   33.6990 C   0  0  0  0  0  0  0  0  0  0  0  0
   36.3050   20.7110   33.8900 C   0  0  0  0  0  0  0  0  0  0  0  0
   35.2850   20.3420   33.0400 C   0  0  0  0  0  0  0  0  0  0  0  0
   35.0000   21.1310   31.9560 C   0  0  0  0  0  0  0  0  0  0  0  0
   35.7680   22.2580   31.7920 C   0  0  0  0  0  0  0  0  0  0  0  0
   36.5410   20.0820   34.7660 H   0  0  0  0  0  0  0  0  0  0  0  0
   34.7730   19.4470   33.2790 H   0  0  0  0  0  0  0  0  0  0  0  0
   34.1990   20.8110   31.3170 H   0  0  0  0  0  0  0  0  0  0  0  0
   35.4400   22.8050   30.8960 H   0  0  0  0  0  0  0  0  0  0  0  0
   40.3830   22.3010   35.2170 C   0  0  0  0  0  0  0  0  0  0  0  0
   39.3730   22.0120   34.3100 C   0  0  0  0  0  0  0  0  0  0  0  0
   38.0760   22.1810   34.6500 C   0  0  0  0  0  0  0  0  0  0  0  0
   37.8240   22.6470   35.9050 N   0  0  0  0  0  0  0  0  0  0  0  0
   38.7840   22.9330   36.7840 C   0  0  0  0  0  0  0  0  0  0  0  0
   40.0590   22.7550   36.4340 N   0  0  0  0  0  0  0  0  0  0  0  0
   41.4470   22.2220   35.1130 H   0  0  0  0  0  0  0  0  0  0  0  0
   39.8950   21.7150   33.4320 H   0  0  0  0  0  0  0  0  0  0  0  0
   38.3620   23.5030   38.0930 C   0  0  0  0  0  0  0  0  0  0  0  0
   39.4080   23.5740   38.9900 F   0  0  0  0  0  0  0  0  0  0  0  0
   38.0280   24.8990   37.8980 F   0  0  0  0  0  0  0  0  0  0  0  0
   37.2830   23.0020   38.6470 F   0  0  0  0  0  0  0  0  0  0  0  0
   37.7100   24.0790   32.2560 S   0  0  0  0  0  0  0  0  0  0  0  0
   37.2090   25.2500   33.0270 O   0  0  0  0  0  0  0  0  0  0  0  0
   37.0310   24.4330   30.9540 O   0  0  0  0  0  0  0  0  0  0  0  0
   39.1810   24.2120   31.4320 C   0  0  0  0  0  0  0  0  0  0  0  0
   39.4860   23.2640   30.9400 H   0  0  0  0  0  0  0  0  0  0  0  0
   39.9810   24.2370   32.2680 H   0  0  0  0  0  0  0  0  0  0  0  0
   39.4740   24.0240   28.3350 Cl  0  0  0  0  0  0  0  0  0  0  0  0
   39.6160   25.4860   29.2860 C   0  0  0  0  0  0  0  0  0  0  0  0
   39.4870   25.3910   30.6640 C   0  0  0  0  0  0  0  0  0  0  0  0
   39.6600   26.6500   31.2600 C   0  0  0  0  0  0  0  0  0  0  0  0
   39.5830   26.7160   32.3530 H   0  0  0  0  0  0  0  0  0  0  0  0
   39.9150   27.8150   30.6100 C   0  0  0  0  0  0  0  0  0  0  0  0
   40.0360   28.7490   31.1390 H   0  0  0  0  0  0  0  0  0  0  0  0
   40.0220   27.7960   29.2510 C   0  0  0  0  0  3  0  0  0  0  0  0
   39.8730   26.6200   28.5700 C   0  0  0  0  0  3  0  0  0  0  0  0
  1  2  1  0  0  0  0
  2  3  2  0  0  0  0
  2 13  1  0  0  0  0
  3  7  1  0  0  0  0
  4  8  1  0  0  0  0
  4  3  1  0  0  0  0
  5  4  2  0  0  0  0
  6  5  1  0  0  0  0
  6  1  2  0  0  0  0
  9  5  1  0  0  0  0
 10  6  1  0  0  0  0
 11 16  1  0  0  0  0
 12 13  1  0  0  0  0
 12 11  2  0  0  0  0
 13 14  2  0  0  0  0
 14 15  1  0  0  0  0
 15 19  1  0  0  0  0
 16 15  2  0  0  0  0
 17 11  1  0  0  0  0
 18 12  1  0  0  0  0
 19 22  1  0  0  0  0
 19 20  1  0  0  0  0
 21 19  1  0  0  0  0
 23  1  1  0  0  0  0
 23 24  2  0  0  0  0
 25 23  2  0  0  0  0
 26 23  1  0  0  0  0
 26 28  1  0  0  0  0
 27 26  1  0  0  0  0
 29 30  1  0  0  0  0
 30 31  1  0  0  0  0
 31 32  2  0  0  0  0
 31 26  1  0  0  0  0
 32 33  1  0  0  0  0
 34 35  1  0  0  0  0
 34 32  1  0  0  0  0
 36 34  2  0  0  0  0
 37 36  1  0  0  0  0
 37 30  2  0  0  0  0
M  END
>  <minimizedAffinity>
-5.88465118

$$$$

 OpenBabel03272510053D

 37 39  0  0  0  0  0  0  0  0999 V2000
   34.3630   30.2920   32.0750 C   0  0  0  0  0  0  0  0  0  0  0  0
   35.5830   29.8120   31.7050 C   0  0  0  0  0  0  0  0  0  0  0  0
   36.3680   30.5420   30.8190 C   0  0  0  0  0  0  0  0  0  0  0  0
   35.9670   31.7470   30.2840 C   0  0  0  0  0  0  0  0  0  0  0  0
   34.7440   32.2570   30.6320 C   0  0  0  0  0  0  0  0  0  0  0  0
   33.9890   31.5160   31.5090 C   0  0  0  0  0  0  0  0  0  0  0  0
   37.3520   30.1220   30.5430 H   0  0  0  0  0  0  0  0  0  0  0  0
   36.6450   32.2180   29.6230 H   0  0  0  0  0  0  0  0  0  0  0  0
   34.4650   33.1980   30.1950 H   0  0  0  0  0  0  0  0  0  0  0  0
   33.0350   32.0260   31.7040 H   0  0  0  0  0  0  0  0  0  0  0  0
   36.3110   26.2140   31.8570 C   0  0  0  0  0  0  0  0  0  0  0  0
   35.8700   27.4550   31.4200 C   0  0  0  0  0  0  0  0  0  0  0  0
   36.0640   28.5580   32.1780 C   0  0  0  0  0  0  0  0  0  0  0  0
   36.7090   28.3840   33.3650 N   0  0  0  0  0  0  0  0  0  0  0  0
   37.1420   27.1990   33.7940 C   0  0  0  0  0  0  0  0  0  0  0  0
   36.9380   26.1200   33.0370 N   0  0  0  0  0  0  0  0  0  0  0  0
   36.2380   25.2520   31.3890 H   0  0  0  0  0  0  0  0  0  0  0  0
   35.4540   27.2570   30.4620 H   0  0  0  0  0  0  0  0  0  0  0  0
   37.8950   27.1720   35.0780 C   0  0  0  0  0  0  0  0  0  0  0  0
   39.2580   27.2740   34.8830 F   0  0  0  0  0  0  0  0  0  0  0  0
   37.5970   28.3860   35.8090 F   0  0  0  0  0  0  0  0  0  0  0  0
   37.5980   26.2180   35.9290 F   0  0  0  0  0  0  0  0  0  0  0  0
   33.3210   29.5130   33.1960 S   0  0  0  0  0  0  0  0  0  0  0  0
   32.4680   28.5000   32.5170 O   0  0  0  0  0  0  0  0  0  0  0  0
   32.2630   30.5850   33.2950 O   0  0  0  0  0  0  0  0  0  0  0  0
   33.3830   29.5300   34.8860 C   0  0  0  0  0  0  0  0  0  0  0  0
   33.7170   28.5620   35.3150 H   0  0  0  0  0  0  0  0  0  0  0  0
   32.2740   29.4920   35.2170 H   0  0  0  0  0  0  0  0  0  0  0  0
   31.5310   31.0840   36.8520 Cl  0  0  0  0  0  0  0  0  0  0  0  0
   33.2070   31.4600   36.5170 C   0  0  0  0  0  0  0  0  0  0  0  0
   33.8840   30.6830   35.5890 C   0  0  0  0  0  0  0  0  0  0  0  0
   35.1990   31.1460   35.4280 C   0  0  0  0  0  0  0  0  0  0  0  0
   35.8470   30.6170   34.7170 H   0  0  0  0  0  0  0  0  0  0  0  0
   35.7610   32.2000   36.0740 C   0  0  0  0  0  0  0  0  0  0  0  0
   36.7840   32.4990   35.8980 H   0  0  0  0  0  0  0  0  0  0  0  0
   35.0050   32.8970   36.9700 C   0  0  0  0  0  3  0  0  0  0  0  0
   33.7080   32.5300   37.2010 C   0  0  0  0  0  3  0  0  0  0  0  0
  1 23  1  0  0  0  0
  2  1  1  0  0  0  0
  2 13  1  0  0  0  0
  3  2  2  0  0  0  0
  4  5  2  0  0  0  0
  4  3  1  0  0  0  0
  5  6  1  0  0  0  0
  6 10  1  0  0  0  0
  6  1  2  0  0  0  0
  7  3  1  0  0  0  0
  8  4  1  0  0  0  0
  9  5  1  0  0  0  0
 11 16  1  0  0  0  0
 12 11  2  0  0  0  0
 12 13  1  0  0  0  0
 13 14  2  0  0  0  0
 14 15  1  0  0  0  0
 15 19  1  0  0  0  0
 16 15  2  0  0  0  0
 17 11  1  0  0  0  0
 18 12  1  0  0  0  0
 19 21  1  0  0  0  0
 19 22  1  0  0  0  0
 20 19  1  0  0  0  0
 23 25  2  0  0  0  0
 23 26  1  0  0  0  0
 24 23  2  0  0  0  0
 26 28  1  0  0  0  0
 26 27  1  0  0  0  0
 26 31  1  0  0  0  0
 30 29  1  0  0  0  0
 30 37  1  0  0  0  0
 31 30  2  0  0  0  0
 32 31  1  0  0  0  0
 32 34  2  0  0  0  0
 33 32  1  0  0  0  0
 34 36  1  0  0  0  0
 35 34  1  0  0  0  0
 36 37  2  0  0  0  0
M  END
>  <minimizedAffinity>
-5.87568045

$$$$
