
 OpenBabel03272507123D

 40 44  0  0  0  0  0  0  0  0999 V2000
   35.7150   29.1390   49.8560 C   0  0  0  0  0  0  0  0  0  0  0  0
   34.6710   29.6110   50.5840 C   0  0  0  0  0  0  0  0  0  0  0  0
   33.5200   29.0120   50.0680 C   0  0  0  0  0  0  0  0  0  0  0  0
   33.9570   28.1880   49.0230 C   0  0  0  0  0  0  0  0  0  0  0  0
   35.2450   28.3160   48.9610 O   0  0  0  0  0  0  0  0  0  0  0  0
   34.6850   30.3170   51.4140 H   0  0  0  0  0  0  0  0  0  0  0  0
   32.5380   29.2120   50.4650 H   0  0  0  0  0  0  0  0  0  0  0  0
   33.4630   26.4010   47.3710 C   0  0  0  0  0  0  0  0  0  0  0  0
   33.0230   27.3920   48.2400 C   0  0  0  0  0  0  0  0  0  0  0  0
   31.6830   27.6570   48.3970 C   0  0  0  0  0  0  0  0  0  0  0  0
   30.7870   26.9060   47.6640 C   0  0  0  0  0  0  0  0  0  0  0  0
   29.4400   26.9480   47.6270 N   0  0  0  0  0  0  0  0  0  0  0  0
   29.0340   26.0130   46.7640 N   0  0  0  0  0  0  0  0  0  0  0  0
   30.1070   25.3900   46.2630 C   0  0  0  0  0  0  0  0  0  0  0  0
   31.2650   25.9350   46.8170 C   0  0  0  0  0  0  0  0  0  0  0  0
   32.5970   25.6460   46.6370 C   0  0  0  0  0  0  0  0  0  0  0  0
   34.5310   26.2330   47.2850 H   0  0  0  0  0  0  0  0  0  0  0  0
   31.2720   28.4190   49.0580 H   0  0  0  0  0  0  0  0  0  0  0  0
   28.7910   27.5920   48.1700 H   0  0  0  0  0  0  0  0  0  0  0  0
   30.0480   24.5770   45.5290 H   0  0  0  0  0  0  0  0  0  0  0  0
   32.8950   24.8680   45.9530 H   0  0  0  0  0  0  0  0  0  0  0  0
   37.0860   29.5540   50.1190 C   0  0  0  0  0  0  0  0  0  0  0  0
   37.7400   28.9710   51.0130 O   0  0  0  0  0  0  0  0  0  0  0  0
   37.6150   30.6300   49.3170 C   0  0  0  0  0  0  0  0  0  0  0  0
   37.6060   31.9090   49.8760 C   0  0  0  0  0  0  0  0  0  0  0  0
   38.1030   32.9850   49.1500 C   0  0  0  0  0  0  0  0  0  0  0  0
   38.5770   32.6930   47.9000 N   0  0  0  0  0  0  0  0  0  0  0  0
   38.5840   31.4770   47.3730 C   0  0  0  0  0  0  0  0  0  0  0  0
   38.0980   30.4490   48.0930 N   0  0  0  0  0  0  0  0  0  0  0  0
   37.2210   32.0910   50.8690 H   0  0  0  0  0  0  0  0  0  0  0  0
   38.1200   33.9950   49.5370 H   0  0  0  0  0  0  0  0  0  0  0  0
   40.3880   33.6820   46.2780 Cl  0  0  0  0  0  0  0  0  0  0  0  0
   39.9440   32.2230   45.4240 C   0  0  0  0  0  0  0  0  0  0  0  0
   39.1190   31.2990   46.0280 C   0  0  0  0  0  0  0  0  0  0  0  0
   38.7750   30.1510   45.3430 C   0  0  0  0  0  0  0  0  0  0  0  0
   38.1230   29.3980   45.7910 H   0  0  0  0  0  0  0  0  0  0  0  0
   39.2460   29.9190   44.0680 C   0  0  0  0  0  0  0  0  0  0  0  0
   38.9540   29.0150   43.5720 H   0  0  0  0  0  0  0  0  0  0  0  0
   40.0660   30.8300   43.4560 C   0  0  0  0  0  0  0  0  0  0  0  0
   40.4190   31.9950   44.1420 C   0  0  0  0  0  0  0  0  0  0  0  0
  1 22  1  0  0  0  0
  1  2  2  0  0  0  0
  2  6  1  0  0  0  0
  3  7  1  0  0  0  0
  3  2  1  0  0  0  0
  4  3  2  0  0  0  0
  5  4  1  0  0  0  0
  5  1  1  0  0  0  0
  8  9  1  0  0  0  0
  9 10  2  0  0  0  0
  9  4  1  0  0  0  0
 10 18  1  0  0  0  0
 11 10  1  0  0  0  0
 12 11  1  0  0  0  0
 12 19  1  0  0  0  0
 13 12  1  0  0  0  0
 14 13  2  0  0  0  0
 14 15  1  0  0  0  0
 15 11  2  0  0  0  0
 16 15  1  0  0  0  0
 16  8  2  0  0  0  0
 17  8  1  0  0  0  0
 20 14  1  0  0  0  0
 21 16  1  0  0  0  0
 22 23  2  0  0  0  0
 24 25  1  0  0  0  0
 24 22  1  0  0  0  0
 25 30  1  0  0  0  0
 26 31  1  0  0  0  0
 26 25  2  0  0  0  0
 27 26  1  0  0  0  0
 28 27  2  0  0  0  0
 28 29  1  0  0  0  0
 29 24  2  0  0  0  0
 33 34  1  0  0  0  0
 33 32  1  0  0  0  0
 34 28  1  0  0  0  0
 35 36  1  0  0  0  0
 35 34  2  0  0  0  0
 37 35  1  0  0  0  0
 38 37  1  0  0  0  0
 39 37  2  0  0  0  0
 39 40  1  0  0  0  0
 40 33  2  0  0  0  0
M  END
>  <minimizedAffinity>
-7.47871542

>  <minimizedRMSD>
0.478139997

$$$$
