
 OpenBabel03262520143D

 42 44  0  0  0  0  0  0  0  0999 V2000
   37.4420   27.7350   32.5940 C   0  0  0  0  0  0  0  0  0  0  0  0
   37.3040   28.4060   33.4720 H   0  0  0  0  0  0  0  0  0  0  0  0
   38.4450   28.0560   32.1820 H   0  0  0  0  0  0  0  0  0  0  0  0
   38.2870   27.1830   35.5890 Br  0  0  0  0  0  0  0  0  0  0  0  0
   37.9490   25.8810   34.2120 C   0  0  0  0  0  0  0  0  0  0  0  0
   38.0660   24.5290   34.4760 C   0  0  0  0  0  0  0  0  0  0  0  0
   37.8200   23.6480   33.4550 C   0  0  0  0  0  0  0  0  0  0  0  0
   37.4610   24.0790   32.1850 C   0  0  0  0  0  0  0  0  0  0  0  0
   37.3530   25.4480   31.9550 C   0  0  0  0  0  0  0  0  0  0  0  0
   37.5970   26.3310   32.9700 C   0  0  0  0  0  0  0  0  0  0  0  0
   37.9250   22.5910   33.7170 H   0  0  0  0  0  0  0  0  0  0  0  0
   37.3050   23.2760   31.5070 H   0  0  0  0  0  0  0  0  0  0  0  0
   37.0980   25.5960   30.9390 H   0  0  0  0  0  0  0  0  0  0  0  0
   37.8510   23.7350   38.0300 C   0  0  0  0  0  0  0  0  0  0  0  0
   39.1130   23.1620   38.3290 C   0  0  0  0  0  0  0  0  0  0  0  0
   40.0090   23.0650   37.2900 C   0  0  0  0  0  0  0  0  0  0  0  0
   39.6670   23.5110   36.0310 N   0  0  0  0  0  0  0  0  0  0  0  0
   38.4520   24.0480   35.8040 C   0  0  0  0  0  0  0  0  0  0  0  0
   37.5630   24.1530   36.8040 N   0  0  0  0  0  0  0  0  0  0  0  0
   37.1630   23.8020   38.8630 H   0  0  0  0  0  0  0  0  0  0  0  0
   39.3190   22.8300   39.3410 H   0  0  0  0  0  0  0  0  0  0  0  0
   40.9680   22.6400   37.4710 H   0  0  0  0  0  0  0  0  0  0  0  0
   36.4390   28.0420   31.5450 C   0  0  0  0  0  0  0  0  0  0  0  0
   36.3600   27.2690   30.8060 H   0  0  0  0  0  0  0  0  0  0  0  0
   36.9080   28.9140   30.9700 H   0  0  0  0  0  0  0  0  0  0  0  0
   35.2850   28.5970   32.1470 N   0  0  0  0  0  0  0  0  0  0  0  0
   34.6430   29.0920   31.4860 H   0  0  0  0  0  0  0  0  0  0  0  0
   35.4560   29.3340   33.3440 C   0  0  0  0  0  0  0  0  0  0  0  0
   36.2220   28.9030   34.0350 H   0  0  0  0  0  0  0  0  0  0  0  0
   35.7600   30.3860   33.0960 H   0  0  0  0  0  0  0  0  0  0  0  0
   34.1430   29.3840   34.0550 C   0  0  0  0  0  0  0  0  0  0  0  0
   33.8340   28.5460   34.6560 H   0  0  0  0  0  0  0  0  0  0  0  0
   33.3240   29.7860   33.4010 H   0  0  0  0  0  0  0  0  0  0  0  0
   31.8270   30.2510   35.9810 Cl  0  0  0  0  0  0  0  0  0  0  0  0
   33.4140   30.9450   35.9930 C   0  0  0  0  0  0  0  0  0  0  0  0
   34.3290   30.4800   35.1040 C   0  0  0  0  0  0  0  0  0  0  0  0
   35.5730   31.1180   35.2130 C   0  0  0  0  0  0  0  0  0  0  0  0
   36.3820   30.8080   34.5320 H   0  0  0  0  0  0  0  0  0  0  0  0
   35.9110   32.1050   36.0860 C   0  0  0  0  0  0  0  0  0  0  0  0
   36.8940   32.5420   36.1040 H   0  0  0  0  0  0  0  0  0  0  0  0
   34.9110   32.5060   36.9470 C   0  0  0  0  0  3  0  0  0  0  0  0
   33.6580   31.9350   36.9110 C   0  0  0  0  0  3  0  0  0  0  0  0
  1 10  1  0  0  0  0
  1  2  1  0  0  0  0
  3  1  1  0  0  0  0
  5  6  1  0  0  0  0
  5  4  1  0  0  0  0
  6 18  1  0  0  0  0
  7 11  1  0  0  0  0
  7  6  2  0  0  0  0
  8  7  1  0  0  0  0
  9  8  2  0  0  0  0
  9 10  1  0  0  0  0
 10  5  2  0  0  0  0
 12  8  1  0  0  0  0
 13  9  1  0  0  0  0
 14 15  1  0  0  0  0
 14 20  1  0  0  0  0
 15 21  1  0  0  0  0
 16 22  1  0  0  0  0
 16 15  2  0  0  0  0
 17 16  1  0  0  0  0
 18 17  2  0  0  0  0
 18 19  1  0  0  0  0
 19 14  2  0  0  0  0
 23 26  1  0  0  0  0
 23  1  1  0  0  0  0
 24 23  1  0  0  0  0
 25 23  1  0  0  0  0
 26 28  1  0  0  0  0
 27 26  1  0  0  0  0
 28 29  1  0  0  0  0
 28 31  1  0  0  0  0
 30 28  1  0  0  0  0
 31 32  1  0  0  0  0
 31 36  1  0  0  0  0
 33 31  1  0  0  0  0
 34 35  1  0  0  0  0
 35 42  1  0  0  0  0
 36 37  1  0  0  0  0
 36 35  2  0  0  0  0
 37 39  2  0  0  0  0
 38 37  1  0  0  0  0
 39 40  1  0  0  0  0
 39 41  1  0  0  0  0
 42 41  2  0  0  0  0
M  END
>  <minimizedAffinity>
-5.76323366

$$$$

 OpenBabel03262520143D

 42 44  0  0  0  0  0  0  0  0999 V2000
   37.1350   27.5270   32.7920 C   0  0  0  0  0  0  0  0  0  0  0  0
   37.0450   28.1500   33.7100 H   0  0  0  0  0  0  0  0  0  0  0  0
   38.0840   27.9130   32.3130 H   0  0  0  0  0  0  0  0  0  0  0  0
   38.6680   26.9100   35.4850 Br  0  0  0  0  0  0  0  0  0  0  0  0
   38.0190   25.6390   34.1940 C   0  0  0  0  0  0  0  0  0  0  0  0
   38.2010   24.2820   34.3870 C   0  0  0  0  0  0  0  0  0  0  0  0
   37.7230   23.4250   33.4300 C   0  0  0  0  0  0  0  0  0  0  0  0
   37.0720   23.8820   32.2930 C   0  0  0  0  0  0  0  0  0  0  0  0
   36.9060   25.2550   32.1310 C   0  0  0  0  0  0  0  0  0  0  0  0
   37.3800   26.1160   33.0820 C   0  0  0  0  0  0  0  0  0  0  0  0
   37.8920   22.3620   33.6320 H   0  0  0  0  0  0  0  0  0  0  0  0
   36.7630   23.0950   31.6510 H   0  0  0  0  0  0  0  0  0  0  0  0
   36.4170   25.4260   31.2090 H   0  0  0  0  0  0  0  0  0  0  0  0
   40.8600   22.9350   36.4900 C   0  0  0  0  0  0  0  0  0  0  0  0
   40.2550   22.8060   37.7650 C   0  0  0  0  0  0  0  0  0  0  0  0
   38.9370   23.1890   37.8650 C   0  0  0  0  0  0  0  0  0  0  0  0
   38.2660   23.6720   36.7610 N   0  0  0  0  0  0  0  0  0  0  0  0
   38.8920   23.7730   35.5730 C   0  0  0  0  0  0  0  0  0  0  0  0
   40.1770   23.4030   35.4530 N   0  0  0  0  0  0  0  0  0  0  0  0
   41.8960   22.6260   36.4350 H   0  0  0  0  0  0  0  0  0  0  0  0
   40.8390   22.4200   38.5940 H   0  0  0  0  0  0  0  0  0  0  0  0
   38.4450   23.1090   38.8050 H   0  0  0  0  0  0  0  0  0  0  0  0
   36.0320   27.8350   31.8470 C   0  0  0  0  0  0  0  0  0  0  0  0
   35.6310   26.9600   31.3770 H   0  0  0  0  0  0  0  0  0  0  0  0
   36.5580   28.3820   30.9890 H   0  0  0  0  0  0  0  0  0  0  0  0
   35.1830   28.8110   32.4200 N   0  0  0  0  0  0  0  0  0  0  0  0
   34.9190   29.5920   31.7750 H   0  0  0  0  0  0  0  0  0  0  0  0
   35.5140   29.3000   33.7070 C   0  0  0  0  0  0  0  0  0  0  0  0
   34.8500   28.9170   34.5210 H   0  0  0  0  0  0  0  0  0  0  0  0
   36.5720   29.0150   33.9550 H   0  0  0  0  0  0  0  0  0  0  0  0
   35.4280   30.7910   33.6800 C   0  0  0  0  0  0  0  0  0  0  0  0
   34.8030   31.2720   32.9470 H   0  0  0  0  0  0  0  0  0  0  0  0
   36.4360   31.2740   33.7880 H   0  0  0  0  0  0  0  0  0  0  0  0
   36.6240   32.8650   35.7020 Cl  0  0  0  0  0  0  0  0  0  0  0  0
   35.1290   32.0230   35.9410 C   0  0  0  0  0  0  0  0  0  0  0  0
   34.7220   31.1480   34.9870 C   0  0  0  0  0  0  0  0  0  0  0  0
   33.4990   30.5320   35.2930 C   0  0  0  0  0  0  0  0  0  0  0  0
   33.0850   29.8040   34.5770 H   0  0  0  0  0  0  0  0  0  0  0  0
   32.7400   30.7330   36.4040 C   0  0  0  0  0  0  0  0  0  0  0  0
   31.8090   30.2170   36.5630 H   0  0  0  0  0  0  0  0  0  0  0  0
   33.2420   31.6420   37.3130 C   0  0  0  0  0  3  0  0  0  0  0  0
   34.4350   32.2940   37.0930 C   0  0  0  0  0  3  0  0  0  0  0  0
  1 10  1  0  0  0  0
  1  2  1  0  0  0  0
  3  1  1  0  0  0  0
  5  6  1  0  0  0  0
  5  4  1  0  0  0  0
  6 18  1  0  0  0  0
  7 11  1  0  0  0  0
  7  6  2  0  0  0  0
  8  7  1  0  0  0  0
  9  8  2  0  0  0  0
  9 10  1  0  0  0  0
 10  5  2  0  0  0  0
 12  8  1  0  0  0  0
 13  9  1  0  0  0  0
 14 15  1  0  0  0  0
 15 16  2  0  0  0  0
 15 21  1  0  0  0  0
 16 22  1  0  0  0  0
 17 16  1  0  0  0  0
 18 17  2  0  0  0  0
 19 18  1  0  0  0  0
 19 14  2  0  0  0  0
 20 14  1  0  0  0  0
 23 26  1  0  0  0  0
 23  1  1  0  0  0  0
 24 23  1  0  0  0  0
 25 23  1  0  0  0  0
 26 28  1  0  0  0  0
 27 26  1  0  0  0  0
 28 30  1  0  0  0  0
 28 29  1  0  0  0  0
 31 28  1  0  0  0  0
 31 33  1  0  0  0  0
 31 36  1  0  0  0  0
 32 31  1  0  0  0  0
 34 35  1  0  0  0  0
 35 42  1  0  0  0  0
 36 37  1  0  0  0  0
 36 35  2  0  0  0  0
 37 39  2  0  0  0  0
 38 37  1  0  0  0  0
 39 40  1  0  0  0  0
 39 41  1  0  0  0  0
 42 41  2  0  0  0  0
M  END
>  <minimizedAffinity>
-5.68223906

$$$$

 OpenBabel03262520143D

 42 44  0  0  0  0  0  0  0  0999 V2000
   36.9810   27.7440   31.9790 C   0  0  0  0  0  0  0  0  0  0  0  0
   37.4420   28.4760   31.2780 H   0  0  0  0  0  0  0  0  0  0  0  0
   36.9870   26.7820   31.3860 H   0  0  0  0  0  0  0  0  0  0  0  0
   39.9490   26.8120   31.4290 Br  0  0  0  0  0  0  0  0  0  0  0  0
   39.1110   27.0860   33.1390 C   0  0  0  0  0  0  0  0  0  0  0  0
   39.8120   26.8750   34.3110 C   0  0  0  0  0  0  0  0  0  0  0  0
   39.1610   27.0810   35.4990 C   0  0  0  0  0  0  0  0  0  0  0  0
   37.8360   27.4900   35.5480 C   0  0  0  0  0  0  0  0  0  0  0  0
   37.1590   27.6930   34.3490 C   0  0  0  0  0  0  0  0  0  0  0  0
   37.8040   27.4900   33.1590 C   0  0  0  0  0  0  0  0  0  0  0  0
   39.7620   26.9010   36.3960 H   0  0  0  0  0  0  0  0  0  0  0  0
   37.4770   27.6040   36.5420 H   0  0  0  0  0  0  0  0  0  0  0  0
   36.1650   27.9750   34.5700 H   0  0  0  0  0  0  0  0  0  0  0  0
   42.7290   24.7080   34.6380 C   0  0  0  0  0  0  0  0  0  0  0  0
   43.8150   25.5390   34.2650 C   0  0  0  0  0  0  0  0  0  0  0  0
   43.5100   26.8330   33.9090 C   0  0  0  0  0  0  0  0  0  0  0  0
   42.2020   27.2690   33.9240 N   0  0  0  0  0  0  0  0  0  0  0  0
   41.2090   26.4350   34.2870 C   0  0  0  0  0  0  0  0  0  0  0  0
   41.4850   25.1690   34.6390 N   0  0  0  0  0  0  0  0  0  0  0  0
   42.9940   23.6960   34.9140 H   0  0  0  0  0  0  0  0  0  0  0  0
   44.8220   25.1340   34.2730 H   0  0  0  0  0  0  0  0  0  0  0  0
   44.2960   27.4900   33.6220 H   0  0  0  0  0  0  0  0  0  0  0  0
   35.5550   28.0830   32.2160 C   0  0  0  0  0  0  0  0  0  0  0  0
   35.2060   27.7630   33.1770 H   0  0  0  0  0  0  0  0  0  0  0  0
   34.9930   27.4030   31.4870 H   0  0  0  0  0  0  0  0  0  0  0  0
   35.3000   29.3920   31.7440 N   0  0  0  0  0  0  0  0  0  0  0  0
   36.1540   29.9370   31.4860 H   0  0  0  0  0  0  0  0  0  0  0  0
   34.3860   30.1900   32.4740 C   0  0  0  0  0  0  0  0  0  0  0  0
   34.7930   31.1870   32.7750 H   0  0  0  0  0  0  0  0  0  0  0  0
   33.4620   30.3600   31.8580 H   0  0  0  0  0  0  0  0  0  0  0  0
   33.9910   29.4420   33.7070 C   0  0  0  0  0  0  0  0  0  0  0  0
   34.5540   28.5730   34.0020 H   0  0  0  0  0  0  0  0  0  0  0  0
   32.8800   29.2940   33.7730 H   0  0  0  0  0  0  0  0  0  0  0  0
   31.7760   30.3660   35.7220 Cl  0  0  0  0  0  0  0  0  0  0  0  0
   33.4240   30.8930   35.7790 C   0  0  0  0  0  0  0  0  0  0  0  0
   34.2870   30.4180   34.8450 C   0  0  0  0  0  0  0  0  0  0  0  0
   35.5900   30.9150   34.9970 C   0  0  0  0  0  0  0  0  0  0  0  0
   36.3640   30.5860   34.2850 H   0  0  0  0  0  0  0  0  0  0  0  0
   36.0260   31.7830   35.9510 C   0  0  0  0  0  0  0  0  0  0  0  0
   37.0480   32.1160   35.9970 H   0  0  0  0  0  0  0  0  0  0  0  0
   35.0720   32.2070   36.8520 C   0  0  0  0  0  3  0  0  0  0  0  0
   33.7680   31.7700   36.7780 C   0  0  0  0  0  3  0  0  0  0  0  0
  1 23  1  0  0  0  0
  1 10  1  0  0  0  0
  2  1  1  0  0  0  0
  3  1  1  0  0  0  0
  4  5  1  0  0  0  0
  5 10  2  0  0  0  0
  5  6  1  0  0  0  0
  6  7  2  0  0  0  0
  7  8  1  0  0  0  0
  7 11  1  0  0  0  0
  8 12  1  0  0  0  0
  9 13  1  0  0  0  0
  9  8  2  0  0  0  0
 10  9  1  0  0  0  0
 14 19  1  0  0  0  0
 14 20  1  0  0  0  0
 15 21  1  0  0  0  0
 15 14  2  0  0  0  0
 16 17  2  0  0  0  0
 16 15  1  0  0  0  0
 17 18  1  0  0  0  0
 18  6  1  0  0  0  0
 18 19  2  0  0  0  0
 22 16  1  0  0  0  0
 23 24  1  0  0  0  0
 25 23  1  0  0  0  0
 26 23  1  0  0  0  0
 26 28  1  0  0  0  0
 27 26  1  0  0  0  0
 28 29  1  0  0  0  0
 28 31  1  0  0  0  0
 30 28  1  0  0  0  0
 31 33  1  0  0  0  0
 31 32  1  0  0  0  0
 31 36  1  0  0  0  0
 34 35  1  0  0  0  0
 35 42  1  0  0  0  0
 36 37  1  0  0  0  0
 36 35  2  0  0  0  0
 37 39  2  0  0  0  0
 38 37  1  0  0  0  0
 39 40  1  0  0  0  0
 39 41  1  0  0  0  0
 42 41  2  0  0  0  0
M  END
>  <minimizedAffinity>
-5.56073952

$$$$

 OpenBabel03262520143D

 42 44  0  0  0  0  0  0  0  0999 V2000
   37.0050   27.7910   33.2170 C   0  0  0  0  0  0  0  0  0  0  0  0
   36.3830   28.1830   34.0530 H   0  0  0  0  0  0  0  0  0  0  0  0
   37.9850   28.3410   33.3480 H   0  0  0  0  0  0  0  0  0  0  0  0
   38.6080   26.9780   35.8160 Br  0  0  0  0  0  0  0  0  0  0  0  0
   38.0000   25.8160   34.4080 C   0  0  0  0  0  0  0  0  0  0  0  0
   38.2490   24.4570   34.4590 C   0  0  0  0  0  0  0  0  0  0  0  0
   37.7970   23.6790   33.4240 C   0  0  0  0  0  0  0  0  0  0  0  0
   37.1070   24.2180   32.3480 C   0  0  0  0  0  0  0  0  0  0  0  0
   36.8740   25.5910   32.3290 C   0  0  0  0  0  0  0  0  0  0  0  0
   37.3220   26.3720   33.3590 C   0  0  0  0  0  0  0  0  0  0  0  0
   38.0190   22.6110   33.5140 H   0  0  0  0  0  0  0  0  0  0  0  0
   36.8260   23.4860   31.6310 H   0  0  0  0  0  0  0  0  0  0  0  0
   36.3630   25.8300   31.4350 H   0  0  0  0  0  0  0  0  0  0  0  0
   41.0050   23.0430   36.3870 C   0  0  0  0  0  0  0  0  0  0  0  0
   40.4240   22.7460   37.6450 C   0  0  0  0  0  0  0  0  0  0  0  0
   39.0890   23.0430   37.7950 C   0  0  0  0  0  0  0  0  0  0  0  0
   38.3780   23.6020   36.7540 N   0  0  0  0  0  0  0  0  0  0  0  0
   38.9820   23.8630   35.5790 C   0  0  0  0  0  0  0  0  0  0  0  0
   40.2830   23.5810   35.4110 N   0  0  0  0  0  0  0  0  0  0  0  0
   42.0550   22.8010   36.2920 H   0  0  0  0  0  0  0  0  0  0  0  0
   41.0390   22.3070   38.4230 H   0  0  0  0  0  0  0  0  0  0  0  0
   38.6140   22.8350   38.7240 H   0  0  0  0  0  0  0  0  0  0  0  0
   36.4500   28.2280   31.9120 C   0  0  0  0  0  0  0  0  0  0  0  0
   36.3980   27.4330   31.1950 H   0  0  0  0  0  0  0  0  0  0  0  0
   37.2620   28.9150   31.4900 H   0  0  0  0  0  0  0  0  0  0  0  0
   35.3450   29.0830   32.1340 N   0  0  0  0  0  0  0  0  0  0  0  0
   35.3740   29.9810   31.5990 H   0  0  0  0  0  0  0  0  0  0  0  0
   34.9360   29.2980   33.4730 C   0  0  0  0  0  0  0  0  0  0  0  0
   35.2060   28.4640   34.1680 H   0  0  0  0  0  0  0  0  0  0  0  0
   35.4040   30.2420   33.8610 H   0  0  0  0  0  0  0  0  0  0  0  0
   33.4530   29.4740   33.4880 C   0  0  0  0  0  0  0  0  0  0  0  0
   32.8160   28.6060   33.4520 H   0  0  0  0  0  0  0  0  0  0  0  0
   33.1190   30.2980   32.8020 H   0  0  0  0  0  0  0  0  0  0  0  0
   31.1570   28.3230   35.2850 Cl  0  0  0  0  0  0  0  0  0  0  0  0
   32.2000   29.6240   35.7530 C   0  0  0  0  0  0  0  0  0  0  0  0
   33.1570   30.0300   34.8800 C   0  0  0  0  0  0  0  0  0  0  0  0
   33.9370   31.0870   35.3730 C   0  0  0  0  0  0  0  0  0  0  0  0
   34.7420   31.4860   34.7360 H   0  0  0  0  0  0  0  0  0  0  0  0
   33.8130   31.6960   36.5840 C   0  0  0  0  0  0  0  0  0  0  0  0
   34.4560   32.5050   36.8860 H   0  0  0  0  0  0  0  0  0  0  0  0
   32.8100   31.2100   37.3960 C   0  0  0  0  0  3  0  0  0  0  0  0
   31.9970   30.1750   36.9930 C   0  0  0  0  0  3  0  0  0  0  0  0
  1  3  1  0  0  0  0
  1 10  1  0  0  0  0
  1  2  1  0  0  0  0
  5  6  1  0  0  0  0
  5  4  1  0  0  0  0
  6 18  1  0  0  0  0
  7 11  1  0  0  0  0
  7  6  2  0  0  0  0
  8  7  1  0  0  0  0
  9  8  2  0  0  0  0
  9 10  1  0  0  0  0
 10  5  2  0  0  0  0
 12  8  1  0  0  0  0
 13  9  1  0  0  0  0
 14 15  1  0  0  0  0
 15 16  2  0  0  0  0
 15 21  1  0  0  0  0
 16 22  1  0  0  0  0
 17 16  1  0  0  0  0
 18 17  2  0  0  0  0
 19 18  1  0  0  0  0
 19 14  2  0  0  0  0
 20 14  1  0  0  0  0
 23 26  1  0  0  0  0
 23  1  1  0  0  0  0
 24 23  1  0  0  0  0
 25 23  1  0  0  0  0
 26 28  1  0  0  0  0
 27 26  1  0  0  0  0
 28 31  1  0  0  0  0
 28 30  1  0  0  0  0
 28 29  1  0  0  0  0
 31 36  1  0  0  0  0
 32 31  1  0  0  0  0
 33 31  1  0  0  0  0
 34 35  1  0  0  0  0
 35 42  1  0  0  0  0
 36 37  1  0  0  0  0
 36 35  2  0  0  0  0
 37 39  2  0  0  0  0
 38 37  1  0  0  0  0
 39 40  1  0  0  0  0
 39 41  1  0  0  0  0
 42 41  2  0  0  0  0
M  END
>  <minimizedAffinity>
-5.48435879

$$$$

 OpenBabel03262520143D

 42 44  0  0  0  0  0  0  0  0999 V2000
   38.6200   26.6640   32.2980 C   0  0  0  0  0  0  0  0  0  0  0  0
   39.6640   27.0100   32.1230 H   0  0  0  0  0  0  0  0  0  0  0  0
   38.6070   26.4400   33.4060 H   0  0  0  0  0  0  0  0  0  0  0  0
   37.0080   27.5730   34.8590 Br  0  0  0  0  0  0  0  0  0  0  0  0
   36.8340   28.2550   33.0680 C   0  0  0  0  0  0  0  0  0  0  0  0
   35.9250   29.2560   32.7790 C   0  0  0  0  0  0  0  0  0  0  0  0
   35.8410   29.6970   31.4840 C   0  0  0  0  0  0  0  0  0  0  0  0
   36.6350   29.1690   30.4760 C   0  0  0  0  0  0  0  0  0  0  0  0
   37.5390   28.1610   30.8020 C   0  0  0  0  0  0  0  0  0  0  0  0
   37.6290   27.7170   32.0930 C   0  0  0  0  0  0  0  0  0  0  0  0
   35.1070   30.4900   31.3100 H   0  0  0  0  0  0  0  0  0  0  0  0
   36.4500   29.6160   29.5300 H   0  0  0  0  0  0  0  0  0  0  0  0
   38.0390   27.8630   29.9190 H   0  0  0  0  0  0  0  0  0  0  0  0
   34.8410   31.3600   35.5550 C   0  0  0  0  0  0  0  0  0  0  0  0
   33.5120   30.9380   35.8050 C   0  0  0  0  0  0  0  0  0  0  0  0
   33.0220   29.9320   35.0040 C   0  0  0  0  0  0  0  0  0  0  0  0
   33.8110   29.3830   34.0150 N   0  0  0  0  0  0  0  0  0  0  0  0
   35.0690   29.8240   33.8230 C   0  0  0  0  0  0  0  0  0  0  0  0
   35.5670   30.8030   34.5930 N   0  0  0  0  0  0  0  0  0  0  0  0
   35.2050   32.1520   36.1980 H   0  0  0  0  0  0  0  0  0  0  0  0
   32.9440   31.4130   36.5980 H   0  0  0  0  0  0  0  0  0  0  0  0
   32.0280   29.5860   35.1580 H   0  0  0  0  0  0  0  0  0  0  0  0
   38.3800   25.3730   31.6050 C   0  0  0  0  0  0  0  0  0  0  0  0
   38.5810   25.4230   30.5540 H   0  0  0  0  0  0  0  0  0  0  0  0
   37.2430   25.2490   31.6540 H   0  0  0  0  0  0  0  0  0  0  0  0
   38.8850   24.3160   32.3970 N   0  0  0  0  0  0  0  0  0  0  0  0
   38.4000   23.3990   32.2630 H   0  0  0  0  0  0  0  0  0  0  0  0
   39.1210   24.5730   33.7690 C   0  0  0  0  0  0  0  0  0  0  0  0
   39.7570   25.4740   33.9580 H   0  0  0  0  0  0  0  0  0  0  0  0
   38.1410   24.7200   34.2970 H   0  0  0  0  0  0  0  0  0  0  0  0
   39.7940   23.3790   34.3630 C   0  0  0  0  0  0  0  0  0  0  0  0
   40.8690   23.3480   34.4150 H   0  0  0  0  0  0  0  0  0  0  0  0
   39.3410   22.4170   34.0020 H   0  0  0  0  0  0  0  0  0  0  0  0
   41.4340   21.8680   36.5650 Cl  0  0  0  0  0  0  0  0  0  0  0  0
   40.0240   22.8200   36.8840 C   0  0  0  0  0  0  0  0  0  0  0  0
   39.4020   23.4240   35.8390 C   0  0  0  0  0  0  0  0  0  0  0  0
   38.2760   24.1660   36.2240 C   0  0  0  0  0  0  0  0  0  0  0  0
   37.7040   24.6940   35.4440 H   0  0  0  0  0  0  0  0  0  0  0  0
   37.7900   24.3150   37.4860 C   0  0  0  0  0  0  0  0  0  0  0  0
   36.9150   24.9050   37.6960 H   0  0  0  0  0  0  0  0  0  0  0  0
   38.4920   23.6610   38.4770 C   0  0  0  0  0  3  0  0  0  0  0  0
   39.6100   22.9110   38.1890 C   0  0  0  0  0  3  0  0  0  0  0  0
  1  3  1  0  0  0  0
  2  1  1  0  0  0  0
  5  4  1  0  0  0  0
  6  5  1  0  0  0  0
  6 18  1  0  0  0  0
  7  6  2  0  0  0  0
  8  9  2  0  0  0  0
  8  7  1  0  0  0  0
  9 10  1  0  0  0  0
 10  1  1  0  0  0  0
 10  5  2  0  0  0  0
 11  7  1  0  0  0  0
 12  8  1  0  0  0  0
 13  9  1  0  0  0  0
 14 15  1  0  0  0  0
 14 20  1  0  0  0  0
 15 21  1  0  0  0  0
 16 22  1  0  0  0  0
 16 15  2  0  0  0  0
 17 16  1  0  0  0  0
 18 17  2  0  0  0  0
 18 19  1  0  0  0  0
 19 14  2  0  0  0  0
 23 25  1  0  0  0  0
 23  1  1  0  0  0  0
 23 26  1  0  0  0  0
 24 23  1  0  0  0  0
 26 28  1  0  0  0  0
 27 26  1  0  0  0  0
 28 29  1  0  0  0  0
 28 30  1  0  0  0  0
 28 31  1  0  0  0  0
 31 32  1  0  0  0  0
 31 36  1  0  0  0  0
 33 31  1  0  0  0  0
 34 35  1  0  0  0  0
 35 42  1  0  0  0  0
 36 37  1  0  0  0  0
 36 35  2  0  0  0  0
 37 39  2  0  0  0  0
 38 37  1  0  0  0  0
 39 40  1  0  0  0  0
 39 41  1  0  0  0  0
 42 41  2  0  0  0  0
M  END
>  <minimizedAffinity>
-5.31491756

$$$$

 OpenBabel03262520143D

 42 44  0  0  0  0  0  0  0  0999 V2000
   36.7120   23.1780   31.1750 C   0  0  0  0  0  0  0  0  0  0  0  0
   37.6710   23.7090   30.9800 H   0  0  0  0  0  0  0  0  0  0  0  0
   36.6990   22.3730   30.3810 H   0  0  0  0  0  0  0  0  0  0  0  0
   38.8120   24.1630   33.3210 Br  0  0  0  0  0  0  0  0  0  0  0  0
   37.5210   22.7500   33.5150 C   0  0  0  0  0  0  0  0  0  0  0  0
   37.4330   22.0320   34.6930 C   0  0  0  0  0  0  0  0  0  0  0  0
   36.4980   21.0320   34.7710 C   0  0  0  0  0  0  0  0  0  0  0  0
   35.6540   20.7330   33.7120 C   0  0  0  0  0  0  0  0  0  0  0  0
   35.7700   21.4760   32.5400 C   0  0  0  0  0  0  0  0  0  0  0  0
   36.7000   22.4750   32.4560 C   0  0  0  0  0  0  0  0  0  0  0  0
   36.4700   20.4960   35.7250 H   0  0  0  0  0  0  0  0  0  0  0  0
   34.9880   19.9340   33.9300 H   0  0  0  0  0  0  0  0  0  0  0  0
   35.0740   21.1010   31.8370 H   0  0  0  0  0  0  0  0  0  0  0  0
   40.4120   22.0410   36.8000 C   0  0  0  0  0  0  0  0  0  0  0  0
   40.0370   22.8270   37.9180 C   0  0  0  0  0  0  0  0  0  0  0  0
   38.7580   23.3360   37.9140 C   0  0  0  0  0  0  0  0  0  0  0  0
   37.9080   23.0760   36.8610 N   0  0  0  0  0  0  0  0  0  0  0  0
   38.3180   22.3210   35.8230 C   0  0  0  0  0  0  0  0  0  0  0  0
   39.5610   21.8150   35.8070 N   0  0  0  0  0  0  0  0  0  0  0  0
   41.4210   21.6510   36.8240 H   0  0  0  0  0  0  0  0  0  0  0  0
   40.7550   22.9950   38.7140 H   0  0  0  0  0  0  0  0  0  0  0  0
   38.4370   23.9320   38.7350 H   0  0  0  0  0  0  0  0  0  0  0  0
   35.5600   24.0690   30.8890 C   0  0  0  0  0  0  0  0  0  0  0  0
   34.6310   23.5390   30.8220 H   0  0  0  0  0  0  0  0  0  0  0  0
   35.7490   24.4150   29.8140 H   0  0  0  0  0  0  0  0  0  0  0  0
   35.6750   25.2470   31.6630 N   0  0  0  0  0  0  0  0  0  0  0  0
   34.9670   25.3380   32.4280 H   0  0  0  0  0  0  0  0  0  0  0  0
   35.8460   26.4740   30.9770 C   0  0  0  0  0  0  0  0  0  0  0  0
   35.9730   26.3600   29.8710 H   0  0  0  0  0  0  0  0  0  0  0  0
   34.9570   27.1340   31.1620 H   0  0  0  0  0  0  0  0  0  0  0  0
   37.0550   27.1560   31.5300 C   0  0  0  0  0  0  0  0  0  0  0  0
   37.9840   27.1070   30.9890 H   0  0  0  0  0  0  0  0  0  0  0  0
   37.1730   26.9770   32.6320 H   0  0  0  0  0  0  0  0  0  0  0  0
   35.8250   28.7170   33.9540 Cl  0  0  0  0  0  0  0  0  0  0  0  0
   36.1820   29.4310   32.4170 C   0  0  0  0  0  0  0  0  0  0  0  0
   36.7140   28.6440   31.4470 C   0  0  0  0  0  0  0  0  0  0  0  0
   36.9590   29.3350   30.2510 C   0  0  0  0  0  0  0  0  0  0  0  0
   37.3920   28.7800   29.4040 H   0  0  0  0  0  0  0  0  0  0  0  0
   36.7200   30.6520   30.0070 C   0  0  0  0  0  0  0  0  0  0  0  0
   36.9390   31.1070   29.0560 H   0  0  0  0  0  0  0  0  0  0  0  0
   36.1790   31.3650   31.0570 C   0  0  0  0  0  3  0  0  0  0  0  0
   35.9050   30.7670   32.2660 C   0  0  0  0  0  3  0  0  0  0  0  0
  1 10  1  0  0  0  0
  2  1  1  0  0  0  0
  3  1  1  0  0  0  0
  4  5  1  0  0  0  0
  5  6  1  0  0  0  0
  6  7  2  0  0  0  0
  6 18  1  0  0  0  0
  7 11  1  0  0  0  0
  8 12  1  0  0  0  0
  8  7  1  0  0  0  0
  9  8  2  0  0  0  0
 10  9  1  0  0  0  0
 10  5  2  0  0  0  0
 13  9  1  0  0  0  0
 14 20  1  0  0  0  0
 14 15  1  0  0  0  0
 15 21  1  0  0  0  0
 16 15  2  0  0  0  0
 16 22  1  0  0  0  0
 17 16  1  0  0  0  0
 18 17  2  0  0  0  0
 19 18  1  0  0  0  0
 19 14  2  0  0  0  0
 23  1  1  0  0  0  0
 23 26  1  0  0  0  0
 24 23  1  0  0  0  0
 25 23  1  0  0  0  0
 26 27  1  0  0  0  0
 28 30  1  0  0  0  0
 28 31  1  0  0  0  0
 28 26  1  0  0  0  0
 29 28  1  0  0  0  0
 31 33  1  0  0  0  0
 32 31  1  0  0  0  0
 35 34  1  0  0  0  0
 36 31  1  0  0  0  0
 36 35  2  0  0  0  0
 37 36  1  0  0  0  0
 38 37  1  0  0  0  0
 39 37  2  0  0  0  0
 39 41  1  0  0  0  0
 40 39  1  0  0  0  0
 41 42  2  0  0  0  0
 42 35  1  0  0  0  0
M  END
>  <minimizedAffinity>
-5.31286764

$$$$

 OpenBabel03262520143D

 42 44  0  0  0  0  0  0  0  0999 V2000
   37.0630   27.2510   31.9990 C   0  0  0  0  0  0  0  0  0  0  0  0
   37.8800   27.8770   31.5740 H   0  0  0  0  0  0  0  0  0  0  0  0
   36.3800   27.0870   31.1130 H   0  0  0  0  0  0  0  0  0  0  0  0
   35.2940   24.8230   31.0210 Br  0  0  0  0  0  0  0  0  0  0  0  0
   36.8980   24.7460   32.0830 C   0  0  0  0  0  0  0  0  0  0  0  0
   37.4040   23.5320   32.5090 C   0  0  0  0  0  0  0  0  0  0  0  0
   38.5450   23.5400   33.2680 C   0  0  0  0  0  0  0  0  0  0  0  0
   39.1910   24.7200   33.6100 C   0  0  0  0  0  0  0  0  0  0  0  0
   38.6540   25.9240   33.1630 C   0  0  0  0  0  0  0  0  0  0  0  0
   37.5150   25.9230   32.4050 C   0  0  0  0  0  0  0  0  0  0  0  0
   38.9040   22.5530   33.5780 H   0  0  0  0  0  0  0  0  0  0  0  0
   40.0600   24.5570   34.2000 H   0  0  0  0  0  0  0  0  0  0  0  0
   39.2530   26.7130   33.5310 H   0  0  0  0  0  0  0  0  0  0  0  0
   35.2150   20.6270   32.7970 C   0  0  0  0  0  0  0  0  0  0  0  0
   35.4440   19.9080   31.5970 C   0  0  0  0  0  0  0  0  0  0  0  0
   36.3520   20.4480   30.7160 C   0  0  0  0  0  0  0  0  0  0  0  0
   36.9920   21.6320   31.0150 N   0  0  0  0  0  0  0  0  0  0  0  0
   36.7360   22.2730   32.1710 C   0  0  0  0  0  0  0  0  0  0  0  0
   35.8540   21.7640   33.0450 N   0  0  0  0  0  0  0  0  0  0  0  0
   34.4970   20.1840   33.4740 H   0  0  0  0  0  0  0  0  0  0  0  0
   34.9060   18.9820   31.4230 H   0  0  0  0  0  0  0  0  0  0  0  0
   36.5530   19.9390   29.8030 H   0  0  0  0  0  0  0  0  0  0  0  0
   36.2830   28.0280   32.9940 C   0  0  0  0  0  0  0  0  0  0  0  0
   36.8940   28.6820   33.5830 H   0  0  0  0  0  0  0  0  0  0  0  0
   35.9400   27.2350   33.7450 H   0  0  0  0  0  0  0  0  0  0  0  0
   35.0860   28.4880   32.3960 N   0  0  0  0  0  0  0  0  0  0  0  0
   35.1200   28.5630   31.3530 H   0  0  0  0  0  0  0  0  0  0  0  0
   34.4520   29.6150   32.9710 C   0  0  0  0  0  0  0  0  0  0  0  0
   34.0200   30.3230   32.2210 H   0  0  0  0  0  0  0  0  0  0  0  0
   33.6240   29.2740   33.6490 H   0  0  0  0  0  0  0  0  0  0  0  0
   35.4580   30.3480   33.7980 C   0  0  0  0  0  0  0  0  0  0  0  0
   35.8630   31.2780   33.4380 H   0  0  0  0  0  0  0  0  0  0  0  0
   36.2370   29.6600   34.2220 H   0  0  0  0  0  0  0  0  0  0  0  0
   36.5520   32.5320   35.7620 Cl  0  0  0  0  0  0  0  0  0  0  0  0
   35.0310   31.7260   35.9520 C   0  0  0  0  0  0  0  0  0  0  0  0
   34.6730   30.7960   35.0300 C   0  0  0  0  0  0  0  0  0  0  0  0
   33.4230   30.2160   35.2920 C   0  0  0  0  0  0  0  0  0  0  0  0
   33.0450   29.4490   34.5970 H   0  0  0  0  0  0  0  0  0  0  0  0
   32.5950   30.4980   36.3350 C   0  0  0  0  0  0  0  0  0  0  0  0
   31.6470   30.0040   36.4620 H   0  0  0  0  0  0  0  0  0  0  0  0
   33.0510   31.4560   37.2160 C   0  0  0  0  0  3  0  0  0  0  0  0
   34.2660   32.0780   37.0360 C   0  0  0  0  0  3  0  0  0  0  0  0
  1 10  1  0  0  0  0
  1 23  1  0  0  0  0
  2  1  1  0  0  0  0
  3  1  1  0  0  0  0
  4  5  1  0  0  0  0
  5 10  2  0  0  0  0
  5  6  1  0  0  0  0
  6  7  2  0  0  0  0
  7 11  1  0  0  0  0
  7  8  1  0  0  0  0
  8 12  1  0  0  0  0
  9 13  1  0  0  0  0
  9  8  2  0  0  0  0
 10  9  1  0  0  0  0
 14 19  1  0  0  0  0
 14 20  1  0  0  0  0
 15 14  2  0  0  0  0
 16 17  2  0  0  0  0
 16 15  1  0  0  0  0
 17 18  1  0  0  0  0
 18  6  1  0  0  0  0
 18 19  2  0  0  0  0
 21 15  1  0  0  0  0
 22 16  1  0  0  0  0
 23 24  1  0  0  0  0
 23 25  1  0  0  0  0
 26 28  1  0  0  0  0
 26 23  1  0  0  0  0
 27 26  1  0  0  0  0
 28 30  1  0  0  0  0
 28 31  1  0  0  0  0
 29 28  1  0  0  0  0
 31 33  1  0  0  0  0
 31 36  1  0  0  0  0
 32 31  1  0  0  0  0
 34 35  1  0  0  0  0
 35 42  1  0  0  0  0
 36 37  1  0  0  0  0
 36 35  2  0  0  0  0
 37 39  2  0  0  0  0
 38 37  1  0  0  0  0
 39 40  1  0  0  0  0
 39 41  1  0  0  0  0
 42 41  2  0  0  0  0
M  END
>  <minimizedAffinity>
-5.22620916

$$$$

 OpenBabel03262520143D

 42 44  0  0  0  0  0  0  0  0999 V2000
   37.8560   25.6720   35.7330 C   0  0  0  0  0  0  0  0  0  0  0  0
   37.7670   25.5220   34.6330 H   0  0  0  0  0  0  0  0  0  0  0  0
   36.7950   25.5270   36.0980 H   0  0  0  0  0  0  0  0  0  0  0  0
   40.4440   24.7190   34.1910 Br  0  0  0  0  0  0  0  0  0  0  0  0
   39.8010   24.0900   35.8930 C   0  0  0  0  0  0  0  0  0  0  0  0
   40.4870   23.1130   36.5890 C   0  0  0  0  0  0  0  0  0  0  0  0
   39.9790   22.7000   37.7920 C   0  0  0  0  0  0  0  0  0  0  0  0
   38.8100   23.2340   38.3170 C   0  0  0  0  0  0  0  0  0  0  0  0
   38.1450   24.2170   37.5890 C   0  0  0  0  0  0  0  0  0  0  0  0
   38.6480   24.6330   36.3880 C   0  0  0  0  0  0  0  0  0  0  0  0
   40.5600   21.9250   38.3020 H   0  0  0  0  0  0  0  0  0  0  0  0
   38.5490   22.8090   39.2550 H   0  0  0  0  0  0  0  0  0  0  0  0
   37.2710   24.4900   38.1190 H   0  0  0  0  0  0  0  0  0  0  0  0
   44.0440   22.5430   36.0090 C   0  0  0  0  0  0  0  0  0  0  0  0
   44.0720   21.4690   35.0860 C   0  0  0  0  0  0  0  0  0  0  0  0
   42.8550   20.9660   34.6860 C   0  0  0  0  0  0  0  0  0  0  0  0
   41.6840   21.5030   35.1770 N   0  0  0  0  0  0  0  0  0  0  0  0
   41.7180   22.5260   36.0530 C   0  0  0  0  0  0  0  0  0  0  0  0
   42.8940   23.0310   36.4560 N   0  0  0  0  0  0  0  0  0  0  0  0
   45.0130   22.9220   36.3090 H   0  0  0  0  0  0  0  0  0  0  0  0
   45.0280   21.0910   34.7390 H   0  0  0  0  0  0  0  0  0  0  0  0
   42.8310   20.1580   33.9930 H   0  0  0  0  0  0  0  0  0  0  0  0
   38.2150   27.0800   36.0350 C   0  0  0  0  0  0  0  0  0  0  0  0
   39.2610   27.2090   36.2300 H   0  0  0  0  0  0  0  0  0  0  0  0
   37.7290   27.2690   37.0540 H   0  0  0  0  0  0  0  0  0  0  0  0
   37.5250   27.9400   35.1490 N   0  0  0  0  0  0  0  0  0  0  0  0
   36.8220   28.5650   35.6070 H   0  0  0  0  0  0  0  0  0  0  0  0
   37.0130   27.3820   33.9530 C   0  0  0  0  0  0  0  0  0  0  0  0
   37.8020   27.0170   33.2490 H   0  0  0  0  0  0  0  0  0  0  0  0
   36.3380   26.5200   34.2010 H   0  0  0  0  0  0  0  0  0  0  0  0
   36.1980   28.4250   33.2590 C   0  0  0  0  0  0  0  0  0  0  0  0
   36.2140   29.4380   33.6240 H   0  0  0  0  0  0  0  0  0  0  0  0
   35.1650   28.0590   33.0130 H   0  0  0  0  0  0  0  0  0  0  0  0
   35.1480   30.4460   31.1060 Cl  0  0  0  0  0  0  0  0  0  0  0  0
   36.5070   29.3980   30.8760 C   0  0  0  0  0  0  0  0  0  0  0  0
   36.8610   28.5670   31.8900 C   0  0  0  0  0  0  0  0  0  0  0  0
   37.9760   27.7720   31.5850 C   0  0  0  0  0  0  0  0  0  0  0  0
   38.3390   27.0640   32.3470 H   0  0  0  0  0  0  0  0  0  0  0  0
   38.6840   27.7710   30.4230 C   0  0  0  0  0  0  0  0  0  0  0  0
   39.5310   27.1260   30.2690 H   0  0  0  0  0  0  0  0  0  0  0  0
   38.2440   28.6520   29.4560 C   0  0  0  0  0  3  0  0  0  0  0  0
   37.1580   29.4700   29.6700 C   0  0  0  0  0  3  0  0  0  0  0  0
  1 23  1  0  0  0  0
  1  3  1  0  0  0  0
  1 10  1  0  0  0  0
  2  1  1  0  0  0  0
  4  5  1  0  0  0  0
  5 10  2  0  0  0  0
  5  6  1  0  0  0  0
  6  7  2  0  0  0  0
  7 11  1  0  0  0  0
  7  8  1  0  0  0  0
  8 12  1  0  0  0  0
  9 13  1  0  0  0  0
  9  8  2  0  0  0  0
 10  9  1  0  0  0  0
 14 20  1  0  0  0  0
 14 19  1  0  0  0  0
 15 14  2  0  0  0  0
 16 15  1  0  0  0  0
 16 17  2  0  0  0  0
 17 18  1  0  0  0  0
 18 19  2  0  0  0  0
 18  6  1  0  0  0  0
 21 15  1  0  0  0  0
 22 16  1  0  0  0  0
 23 24  1  0  0  0  0
 23 25  1  0  0  0  0
 26 27  1  0  0  0  0
 26 23  1  0  0  0  0
 28 30  1  0  0  0  0
 28 26  1  0  0  0  0
 29 28  1  0  0  0  0
 31 32  1  0  0  0  0
 31 28  1  0  0  0  0
 33 31  1  0  0  0  0
 35 34  1  0  0  0  0
 35 36  1  0  0  0  0
 36 31  1  0  0  0  0
 37 36  2  0  0  0  0
 37 38  1  0  0  0  0
 39 37  1  0  0  0  0
 40 39  1  0  0  0  0
 41 42  1  0  0  0  0
 41 39  2  0  0  0  0
 42 35  2  0  0  0  0
M  END
>  <minimizedAffinity>
-5.2131896

$$$$

 OpenBabel03262520143D

 42 44  0  0  0  0  0  0  0  0999 V2000
   36.5280   29.5280   30.0160 C   0  0  0  0  0  0  0  0  0  0  0  0
   35.6230   28.8890   30.1280 H   0  0  0  0  0  0  0  0  0  0  0  0
   36.4270   29.9320   28.9640 H   0  0  0  0  0  0  0  0  0  0  0  0
   34.8900   29.2270   32.7010 Br  0  0  0  0  0  0  0  0  0  0  0  0
   35.8720   30.7690   32.1000 C   0  0  0  0  0  0  0  0  0  0  0  0
   35.9200   31.9190   32.8660 C   0  0  0  0  0  0  0  0  0  0  0  0
   36.6290   32.9870   32.3840 C   0  0  0  0  0  0  0  0  0  0  0  0
   37.2890   32.9390   31.1640 C   0  0  0  0  0  0  0  0  0  0  0  0
   37.2200   31.7660   30.4180 C   0  0  0  0  0  0  0  0  0  0  0  0
   36.5140   30.6960   30.8940 C   0  0  0  0  0  0  0  0  0  0  0  0
   36.6360   33.8710   33.0290 H   0  0  0  0  0  0  0  0  0  0  0  0
   37.7920   33.8460   30.9320 H   0  0  0  0  0  0  0  0  0  0  0  0
   37.7530   31.9120   29.5160 H   0  0  0  0  0  0  0  0  0  0  0  0
   35.3310   31.7320   36.4620 C   0  0  0  0  0  0  0  0  0  0  0  0
   33.9780   32.1280   36.6070 C   0  0  0  0  0  0  0  0  0  0  0  0
   33.3010   32.4510   35.4530 C   0  0  0  0  0  0  0  0  0  0  0  0
   33.9360   32.3830   34.2310 N   0  0  0  0  0  0  0  0  0  0  0  0
   35.2240   31.9990   34.1530 C   0  0  0  0  0  0  0  0  0  0  0  0
   35.9030   31.6790   35.2650 N   0  0  0  0  0  0  0  0  0  0  0  0
   35.8430   31.4830   37.3820 H   0  0  0  0  0  0  0  0  0  0  0  0
   33.5380   32.1620   37.5980 H   0  0  0  0  0  0  0  0  0  0  0  0
   32.2830   32.7540   35.5180 H   0  0  0  0  0  0  0  0  0  0  0  0
   37.7550   28.6930   30.0300 C   0  0  0  0  0  0  0  0  0  0  0  0
   38.5240   29.0950   30.6590 H   0  0  0  0  0  0  0  0  0  0  0  0
   38.1800   28.8220   28.9740 H   0  0  0  0  0  0  0  0  0  0  0  0
   37.3930   27.3280   30.1000 N   0  0  0  0  0  0  0  0  0  0  0  0
   36.3650   27.1530   30.1790 H   0  0  0  0  0  0  0  0  0  0  0  0
   38.1230   26.4960   30.9830 C   0  0  0  0  0  0  0  0  0  0  0  0
   37.4940   26.0010   31.7630 H   0  0  0  0  0  0  0  0  0  0  0  0
   38.6470   25.6950   30.3950 H   0  0  0  0  0  0  0  0  0  0  0  0
   39.1610   27.3290   31.6620 C   0  0  0  0  0  0  0  0  0  0  0  0
   39.1170   28.4020   31.5780 H   0  0  0  0  0  0  0  0  0  0  0  0
   40.1950   26.9150   31.5180 H   0  0  0  0  0  0  0  0  0  0  0  0
   41.4800   27.2530   33.7680 Cl  0  0  0  0  0  0  0  0  0  0  0  0
   39.8050   27.0610   34.1590 C   0  0  0  0  0  0  0  0  0  0  0  0
   38.8960   27.1140   33.1510 C   0  0  0  0  0  0  0  0  0  0  0  0
   37.5750   26.9470   33.5930 C   0  0  0  0  0  0  0  0  0  0  0  0
   36.7650   26.9750   32.8470 H   0  0  0  0  0  0  0  0  0  0  0  0
   37.1630   26.7500   34.8750 C   0  0  0  0  0  0  0  0  0  0  0  0
   36.1240   26.6300   35.1300 H   0  0  0  0  0  0  0  0  0  0  0  0
   38.1630   26.7120   35.8240 C   0  0  0  0  0  3  0  0  0  0  0  0
   39.4870   26.8660   35.4800 C   0  0  0  0  0  3  0  0  0  0  0  0
  1 23  1  0  0  0  0
  1  2  1  0  0  0  0
  1 10  1  0  0  0  0
  3  1  1  0  0  0  0
  5  4  1  0  0  0  0
  5  6  1  0  0  0  0
  6 18  1  0  0  0  0
  7  6  2  0  0  0  0
  7 11  1  0  0  0  0
  8  7  1  0  0  0  0
  9 10  1  0  0  0  0
  9  8  2  0  0  0  0
 10  5  2  0  0  0  0
 12  8  1  0  0  0  0
 13  9  1  0  0  0  0
 14 15  1  0  0  0  0
 14 20  1  0  0  0  0
 15 21  1  0  0  0  0
 16 22  1  0  0  0  0
 16 15  2  0  0  0  0
 17 16  1  0  0  0  0
 18 17  2  0  0  0  0
 18 19  1  0  0  0  0
 19 14  2  0  0  0  0
 23 26  1  0  0  0  0
 23 24  1  0  0  0  0
 25 23  1  0  0  0  0
 26 27  1  0  0  0  0
 26 28  1  0  0  0  0
 28 31  1  0  0  0  0
 28 29  1  0  0  0  0
 30 28  1  0  0  0  0
 31 36  1  0  0  0  0
 32 31  1  0  0  0  0
 33 31  1  0  0  0  0
 34 35  1  0  0  0  0
 35 42  1  0  0  0  0
 36 37  1  0  0  0  0
 36 35  2  0  0  0  0
 37 39  2  0  0  0  0
 38 37  1  0  0  0  0
 39 40  1  0  0  0  0
 39 41  1  0  0  0  0
 42 41  2  0  0  0  0
M  END
>  <minimizedAffinity>
-5.19767189

$$$$
