
 OpenBabel03272510013D

 21 22  0  0  0  0  0  0  0  0999 V2000
   38.6100   32.8130   49.2320 C   0  0  0  0  0  0  0  0  0  0  0  0
   38.4870   32.4830   47.8610 C   0  0  0  0  0  0  0  0  0  0  0  0
   37.9680   31.2410   47.5330 C   0  0  0  0  0  0  0  0  0  0  0  0
   37.6160   30.4270   48.5630 N   0  0  0  0  0  0  0  0  0  0  0  0
   37.7420   30.7590   49.8490 C   0  0  0  0  0  0  0  0  0  0  0  0
   38.2370   31.9470   50.1740 N   0  0  0  0  0  0  0  0  0  0  0  0
   39.0120   33.7750   49.5290 H   0  0  0  0  0  0  0  0  0  0  0  0
   38.7810   33.1640   47.0940 H   0  0  0  0  0  0  0  0  0  0  0  0
   40.5050   30.9810   45.8780 Cl  0  0  0  0  0  0  0  0  0  0  0  0
   38.8830   30.6420   45.3450 C   0  0  0  0  0  0  0  0  0  0  0  0
   37.7920   30.7870   46.1610 C   0  0  0  0  0  0  0  0  0  0  0  0
   36.5710   30.4820   45.6030 C   0  0  0  0  0  0  0  0  0  0  0  0
   35.6720   30.5750   46.1950 H   0  0  0  0  0  0  0  0  0  0  0  0
   36.4310   30.0530   44.3000 C   0  0  0  0  0  0  0  0  0  0  0  0
   35.4460   29.8250   43.9050 H   0  0  0  0  0  0  0  0  0  0  0  0
   37.5370   29.9120   43.4860 C   0  0  0  0  0  3  0  0  0  0  0  0
   38.7910   30.2130   44.0230 C   0  0  0  0  0  3  0  0  0  0  0  0
   37.3190   29.7660   50.8560 C   0  0  0  0  0  0  0  0  0  0  0  0
   37.6370   30.1540   52.1550 F   0  0  0  0  0  0  0  0  0  0  0  0
   35.9500   29.5690   50.8410 F   0  0  0  0  0  0  0  0  0  0  0  0
   37.8840   28.5160   50.6700 F   0  0  0  0  0  0  0  0  0  0  0  0
  1  7  1  0  0  0  0
  1  6  1  0  0  0  0
  2  1  2  0  0  0  0
  3  2  1  0  0  0  0
  3  4  2  0  0  0  0
  4  5  1  0  0  0  0
  5  6  2  0  0  0  0
  5 18  1  0  0  0  0
  8  2  1  0  0  0  0
 10  9  1  0  0  0  0
 10 11  1  0  0  0  0
 11  3  1  0  0  0  0
 12 11  2  0  0  0  0
 12 13  1  0  0  0  0
 14 12  1  0  0  0  0
 15 14  1  0  0  0  0
 16 17  1  0  0  0  0
 16 14  2  0  0  0  0
 17 10  2  0  0  0  0
 18 19  1  0  0  0  0
 20 18  1  0  0  0  0
 21 18  1  0  0  0  0
M  END
>  <minimizedAffinity>
-5.70959616

>  <minimizedRMSD>
1.87329292

$$$$
