
 OpenBabel03272500133D

 21 22  0  0  0  0  0  0  0  0999 V2000
   37.9950   25.7880   36.7610 C   0  0  0  0  0  0  0  0  0  0  0  0
   38.1870   24.4030   36.9010 C   0  0  0  0  0  0  0  0  0  0  0  0
   38.2750   23.6140   35.7340 C   0  0  0  0  0  0  0  0  0  0  0  0
   38.1680   24.2510   34.5330 N   0  0  0  0  0  0  0  0  0  0  0  0
   37.9840   25.5880   34.4380 C   0  0  0  0  0  0  0  0  0  0  0  0
   37.8980   26.3490   35.5260 N   0  0  0  0  0  0  0  0  0  0  0  0
   37.9240   26.4190   37.6440 H   0  0  0  0  0  0  0  0  0  0  0  0
   38.4200   22.5660   35.8500 H   0  0  0  0  0  0  0  0  0  0  0  0
   40.4460   27.0810   33.5650 Cl  0  0  0  0  0  0  0  0  0  0  0  0
   38.9620   26.9360   32.6140 C   0  0  0  0  0  0  0  0  0  0  0  0
   37.8760   26.2170   33.1160 C   0  0  0  0  0  0  0  0  0  0  0  0
   36.7180   26.1080   32.3660 C   0  0  0  0  0  0  0  0  0  0  0  0
   35.8620   25.5510   32.7430 H   0  0  0  0  0  0  0  0  0  0  0  0
   36.6450   26.7060   31.1350 C   0  0  0  0  0  0  0  0  0  0  0  0
   35.7780   26.6610   30.5000 H   0  0  0  0  0  0  0  0  0  0  0  0
   37.7240   27.4180   30.6400 C   0  0  0  0  0  3  0  0  0  0  0  0
   38.8870   27.5380   31.3730 C   0  0  0  0  0  3  0  0  0  0  0  0
   38.2880   23.8340   38.2800 C   0  0  0  0  0  0  0  0  0  0  0  0
   39.5380   23.2620   38.4840 F   0  0  0  0  0  0  0  0  0  0  0  0
   38.1640   24.8920   39.1710 F   0  0  0  0  0  0  0  0  0  0  0  0
   37.3150   22.9030   38.5400 F   0  0  0  0  0  0  0  0  0  0  0  0
  1  2  1  0  0  0  0
  1  7  1  0  0  0  0
  2 18  1  0  0  0  0
  3  8  1  0  0  0  0
  3  2  2  0  0  0  0
  4  3  1  0  0  0  0
  5  4  2  0  0  0  0
  5  6  1  0  0  0  0
  6  1  2  0  0  0  0
 10 11  1  0  0  0  0
 10  9  1  0  0  0  0
 11  5  1  0  0  0  0
 12 13  1  0  0  0  0
 12 11  2  0  0  0  0
 14 12  1  0  0  0  0
 15 14  1  0  0  0  0
 16 14  2  0  0  0  0
 16 17  1  0  0  0  0
 17 10  2  0  0  0  0
 18 19  1  0  0  0  0
 18 21  1  0  0  0  0
 18 20  1  0  0  0  0
M  END
>  <minimizedAffinity>
-4.95464659

$$$$

 OpenBabel03272500133D

 21 22  0  0  0  0  0  0  0  0999 V2000
   37.4360   27.7640   34.9190 C   0  0  0  0  0  0  0  0  0  0  0  0
   36.9320   27.4300   33.6510 C   0  0  0  0  0  0  0  0  0  0  0  0
   37.0550   26.0960   33.2070 C   0  0  0  0  0  0  0  0  0  0  0  0
   37.6600   25.2060   34.0440 N   0  0  0  0  0  0  0  0  0  0  0  0
   38.1330   25.5650   35.2610 C   0  0  0  0  0  0  0  0  0  0  0  0
   38.0270   26.8180   35.6970 N   0  0  0  0  0  0  0  0  0  0  0  0
   37.3530   28.7840   35.2860 H   0  0  0  0  0  0  0  0  0  0  0  0
   36.6710   25.8530   32.2440 H   0  0  0  0  0  0  0  0  0  0  0  0
   40.7650   24.5440   34.2210 Cl  0  0  0  0  0  0  0  0  0  0  0  0
   40.0030   24.0210   35.7280 C   0  0  0  0  0  0  0  0  0  0  0  0
   38.7760   24.5620   36.1180 C   0  0  0  0  0  0  0  0  0  0  0  0
   38.1860   24.1470   37.2990 C   0  0  0  0  0  0  0  0  0  0  0  0
   37.2300   24.5590   37.6160 H   0  0  0  0  0  0  0  0  0  0  0  0
   38.8090   23.2080   38.0790 C   0  0  0  0  0  0  0  0  0  0  0  0
   38.4070   22.8420   39.0080 H   0  0  0  0  0  0  0  0  0  0  0  0
   40.0250   22.6740   37.6900 C   0  0  0  0  0  3  0  0  0  0  0  0
   40.6290   23.0750   36.5160 C   0  0  0  0  0  3  0  0  0  0  0  0
   36.2910   28.5050   32.8340 C   0  0  0  0  0  0  0  0  0  0  0  0
   35.1160   28.0440   32.2520 F   0  0  0  0  0  0  0  0  0  0  0  0
   35.9500   29.5340   33.7030 F   0  0  0  0  0  0  0  0  0  0  0  0
   37.1200   28.9920   31.8560 F   0  0  0  0  0  0  0  0  0  0  0  0
  1  7  1  0  0  0  0
  1  6  1  0  0  0  0
  2  1  2  0  0  0  0
  3  2  1  0  0  0  0
  3  4  2  0  0  0  0
  4  5  1  0  0  0  0
  5  6  2  0  0  0  0
  5 11  1  0  0  0  0
  8  3  1  0  0  0  0
  9 10  1  0  0  0  0
 10 11  2  0  0  0  0
 10 17  1  0  0  0  0
 11 12  1  0  0  0  0
 12 13  1  0  0  0  0
 12 14  2  0  0  0  0
 14 15  1  0  0  0  0
 16 14  1  0  0  0  0
 17 16  2  0  0  0  0
 18  2  1  0  0  0  0
 18 20  1  0  0  0  0
 19 18  1  0  0  0  0
 21 18  1  0  0  0  0
M  END
>  <minimizedAffinity>
-4.87214661

$$$$

 OpenBabel03272500133D

 21 22  0  0  0  0  0  0  0  0999 V2000
   38.2550   22.7060   36.2690 C   0  0  0  0  0  0  0  0  0  0  0  0
   38.1970   23.8830   37.0350 C   0  0  0  0  0  0  0  0  0  0  0  0
   38.1470   25.1220   36.3610 C   0  0  0  0  0  0  0  0  0  0  0  0
   38.1590   25.1000   34.9980 N   0  0  0  0  0  0  0  0  0  0  0  0
   38.2150   23.9450   34.2940 C   0  0  0  0  0  0  0  0  0  0  0  0
   38.2630   22.7670   34.9110 N   0  0  0  0  0  0  0  0  0  0  0  0
   38.2930   21.7380   36.7630 H   0  0  0  0  0  0  0  0  0  0  0  0
   38.1040   26.0090   36.9500 H   0  0  0  0  0  0  0  0  0  0  0  0
   40.9610   24.0950   33.0740 Cl  0  0  0  0  0  0  0  0  0  0  0  0
   39.4490   24.0560   32.1580 C   0  0  0  0  0  0  0  0  0  0  0  0
   38.2250   23.9850   32.8270 C   0  0  0  0  0  0  0  0  0  0  0  0
   37.0470   23.9550   32.1030 C   0  0  0  0  0  0  0  0  0  0  0  0
   36.0850   23.9000   32.6100 H   0  0  0  0  0  0  0  0  0  0  0  0
   37.0870   23.9940   30.7340 C   0  0  0  0  0  0  0  0  0  0  0  0
   36.2100   23.9730   30.1100 H   0  0  0  0  0  0  0  0  0  0  0  0
   38.3010   24.0640   30.0730 C   0  0  0  0  0  3  0  0  0  0  0  0
   39.4870   24.0950   30.7780 C   0  0  0  0  0  3  0  0  0  0  0  0
   38.1900   23.7640   38.5240 C   0  0  0  0  0  0  0  0  0  0  0  0
   39.4620   23.4630   38.9980 F   0  0  0  0  0  0  0  0  0  0  0  0
   37.8380   25.0060   39.0360 F   0  0  0  0  0  0  0  0  0  0  0  0
   37.3040   22.8190   38.9750 F   0  0  0  0  0  0  0  0  0  0  0  0
  1  7  1  0  0  0  0
  1  2  1  0  0  0  0
  2 18  1  0  0  0  0
  3  8  1  0  0  0  0
  3  2  2  0  0  0  0
  4  3  1  0  0  0  0
  5  6  1  0  0  0  0
  5  4  2  0  0  0  0
  6  1  2  0  0  0  0
 10 11  1  0  0  0  0
 10  9  1  0  0  0  0
 11  5  1  0  0  0  0
 12 13  1  0  0  0  0
 12 11  2  0  0  0  0
 14 12  1  0  0  0  0
 15 14  1  0  0  0  0
 16 14  2  0  0  0  0
 16 17  1  0  0  0  0
 17 10  2  0  0  0  0
 18 21  1  0  0  0  0
 18 19  1  0  0  0  0
 18 20  1  0  0  0  0
M  END
>  <minimizedAffinity>
-4.80178642

$$$$

 OpenBabel03272500133D

 21 22  0  0  0  0  0  0  0  0999 V2000
   35.6310   29.8040   31.7020 C   0  0  0  0  0  0  0  0  0  0  0  0
   36.2860   28.5740   31.8800 C   0  0  0  0  0  0  0  0  0  0  0  0
   36.4180   28.0650   33.1900 C   0  0  0  0  0  0  0  0  0  0  0  0
   35.8970   28.8050   34.2090 N   0  0  0  0  0  0  0  0  0  0  0  0
   35.2720   29.9870   33.9990 C   0  0  0  0  0  0  0  0  0  0  0  0
   35.1370   30.4840   32.7710 N   0  0  0  0  0  0  0  0  0  0  0  0
   35.5140   30.2180   30.7030 H   0  0  0  0  0  0  0  0  0  0  0  0
   36.9170   27.1320   33.3150 H   0  0  0  0  0  0  0  0  0  0  0  0
   32.3940   29.3820   34.6350 Cl  0  0  0  0  0  0  0  0  0  0  0  0
   33.4040   30.5350   35.5180 C   0  0  0  0  0  0  0  0  0  0  0  0
   34.7320   30.7390   35.1370 C   0  0  0  0  0  0  0  0  0  0  0  0
   35.5150   31.6430   35.8330 C   0  0  0  0  0  0  0  0  0  0  0  0
   36.5510   31.8130   35.5480 H   0  0  0  0  0  0  0  0  0  0  0  0
   34.9840   32.3320   36.8920 C   0  0  0  0  0  0  0  0  0  0  0  0
   35.5350   33.0470   37.4760 H   0  0  0  0  0  0  0  0  0  0  0  0
   33.6670   32.1270   37.2670 C   0  0  0  0  0  3  0  0  0  0  0  0
   32.8700   31.2300   36.5860 C   0  0  0  0  0  3  0  0  0  0  0  0
   36.8100   27.8650   30.6730 C   0  0  0  0  0  0  0  0  0  0  0  0
   38.1420   27.5100   30.8520 F   0  0  0  0  0  0  0  0  0  0  0  0
   36.0810   26.6900   30.5360 F   0  0  0  0  0  0  0  0  0  0  0  0
   36.6890   28.6110   29.5290 F   0  0  0  0  0  0  0  0  0  0  0  0
  1  2  2  0  0  0  0
  1  6  1  0  0  0  0
  2  3  1  0  0  0  0
  3  8  1  0  0  0  0
  3  4  2  0  0  0  0
  5  4  1  0  0  0  0
  5 11  1  0  0  0  0
  6  5  2  0  0  0  0
  7  1  1  0  0  0  0
  9 10  1  0  0  0  0
 10 17  1  0  0  0  0
 11 10  2  0  0  0  0
 11 12  1  0  0  0  0
 12 14  2  0  0  0  0
 13 12  1  0  0  0  0
 14 16  1  0  0  0  0
 14 15  1  0  0  0  0
 17 16  2  0  0  0  0
 18 19  1  0  0  0  0
 18  2  1  0  0  0  0
 20 18  1  0  0  0  0
 21 18  1  0  0  0  0
M  END
>  <minimizedAffinity>
-4.6925683

$$$$

 OpenBabel03272500133D

 21 22  0  0  0  0  0  0  0  0999 V2000
   35.6580   25.8470   31.1870 C   0  0  0  0  0  0  0  0  0  0  0  0
   36.5510   26.3910   32.1260 C   0  0  0  0  0  0  0  0  0  0  0  0
   37.3110   25.5080   32.9220 C   0  0  0  0  0  0  0  0  0  0  0  0
   37.1300   24.1700   32.7290 N   0  0  0  0  0  0  0  0  0  0  0  0
   36.2590   23.6830   31.8140 C   0  0  0  0  0  0  0  0  0  0  0  0
   35.5330   24.5000   31.0540 N   0  0  0  0  0  0  0  0  0  0  0  0
   35.0610   26.5050   30.5600 H   0  0  0  0  0  0  0  0  0  0  0  0
   37.9850   25.9290   33.6310 H   0  0  0  0  0  0  0  0  0  0  0  0
   38.4430   22.3750   30.2110 Cl  0  0  0  0  0  0  0  0  0  0  0  0
   37.0660   21.5260   30.9250 C   0  0  0  0  0  0  0  0  0  0  0  0
   36.1070   22.2330   31.6530 C   0  0  0  0  0  0  0  0  0  0  0  0
   35.0320   21.5600   32.2080 C   0  0  0  0  0  0  0  0  0  0  0  0
   34.2770   22.0970   32.7780 H   0  0  0  0  0  0  0  0  0  0  0  0
   34.9150   20.2050   32.0400 C   0  0  0  0  0  0  0  0  0  0  0  0
   34.1080   19.6210   32.4440 H   0  0  0  0  0  0  0  0  0  0  0  0
   35.8680   19.5070   31.3180 C   0  0  0  0  0  3  0  0  0  0  0  0
   36.9470   20.1600   30.7570 C   0  0  0  0  0  3  0  0  0  0  0  0
   36.6520   27.8780   32.2340 C   0  0  0  0  0  0  0  0  0  0  0  0
   37.8240   28.3350   31.6420 F   0  0  0  0  0  0  0  0  0  0  0  0
   35.5880   28.4160   31.5200 F   0  0  0  0  0  0  0  0  0  0  0  0
   36.5980   28.3190   33.5310 F   0  0  0  0  0  0  0  0  0  0  0  0
  1  2  1  0  0  0  0
  2 18  1  0  0  0  0
  2  3  2  0  0  0  0
  3  8  1  0  0  0  0
  4  3  1  0  0  0  0
  5  4  2  0  0  0  0
  6  1  2  0  0  0  0
  6  5  1  0  0  0  0
  7  1  1  0  0  0  0
  9 10  1  0  0  0  0
 10 11  1  0  0  0  0
 11  5  1  0  0  0  0
 11 12  2  0  0  0  0
 12 13  1  0  0  0  0
 14 12  1  0  0  0  0
 14 15  1  0  0  0  0
 16 14  2  0  0  0  0
 17 10  2  0  0  0  0
 17 16  1  0  0  0  0
 18 21  1  0  0  0  0
 19 18  1  0  0  0  0
 20 18  1  0  0  0  0
M  END
>  <minimizedAffinity>
-4.69147348

$$$$

 OpenBabel03272500133D

 21 22  0  0  0  0  0  0  0  0999 V2000
   38.0460   27.2700   34.6550 C   0  0  0  0  0  0  0  0  0  0  0  0
   37.3000   26.8530   33.5400 C   0  0  0  0  0  0  0  0  0  0  0  0
   37.3510   25.4930   33.1650 C   0  0  0  0  0  0  0  0  0  0  0  0
   38.1280   24.6610   33.9160 N   0  0  0  0  0  0  0  0  0  0  0  0
   38.8330   25.1000   34.9860 C   0  0  0  0  0  0  0  0  0  0  0  0
   38.7970   26.3780   35.3540 N   0  0  0  0  0  0  0  0  0  0  0  0
   38.0230   28.3110   34.9660 H   0  0  0  0  0  0  0  0  0  0  0  0
   36.7830   25.1860   32.3190 H   0  0  0  0  0  0  0  0  0  0  0  0
   37.4610   23.9470   37.4030 Cl  0  0  0  0  0  0  0  0  0  0  0  0
   39.1120   23.5620   36.8980 C   0  0  0  0  0  0  0  0  0  0  0  0
   39.6520   24.1560   35.7550 C   0  0  0  0  0  0  0  0  0  0  0  0
   40.9440   23.8500   35.3670 C   0  0  0  0  0  0  0  0  0  0  0  0
   41.3790   24.3050   34.4790 H   0  0  0  0  0  0  0  0  0  0  0  0
   41.6870   22.9660   36.1060 C   0  0  0  0  0  0  0  0  0  0  0  0
   42.6950   22.6830   35.8610 H   0  0  0  0  0  0  0  0  0  0  0  0
   41.1490   22.3780   37.2380 C   0  0  0  0  0  3  0  0  0  0  0  0
   39.8620   22.6710   37.6410 C   0  0  0  0  0  3  0  0  0  0  0  0
   36.4890   27.8710   32.8050 C   0  0  0  0  0  0  0  0  0  0  0  0
   35.5020   27.2550   32.0430 F   0  0  0  0  0  0  0  0  0  0  0  0
   35.8500   28.6540   33.7580 F   0  0  0  0  0  0  0  0  0  0  0  0
   37.2530   28.6710   31.9960 F   0  0  0  0  0  0  0  0  0  0  0  0
  1  7  1  0  0  0  0
  1  6  1  0  0  0  0
  2  1  2  0  0  0  0
  3  2  1  0  0  0  0
  3  4  2  0  0  0  0
  4  5  1  0  0  0  0
  5  6  2  0  0  0  0
  5 11  1  0  0  0  0
  8  3  1  0  0  0  0
 10  9  1  0  0  0  0
 10 17  1  0  0  0  0
 11 10  2  0  0  0  0
 12 11  1  0  0  0  0
 12 14  2  0  0  0  0
 13 12  1  0  0  0  0
 14 16  1  0  0  0  0
 15 14  1  0  0  0  0
 16 17  2  0  0  0  0
 18  2  1  0  0  0  0
 18 20  1  0  0  0  0
 19 18  1  0  0  0  0
 21 18  1  0  0  0  0
M  END
>  <minimizedAffinity>
-4.66872644

$$$$

 OpenBabel03272500133D

 21 22  0  0  0  0  0  0  0  0999 V2000
   37.4690   27.3540   34.1120 C   0  0  0  0  0  0  0  0  0  0  0  0
   37.0390   26.8070   32.8910 C   0  0  0  0  0  0  0  0  0  0  0  0
   37.1520   25.4130   32.7020 C   0  0  0  0  0  0  0  0  0  0  0  0
   37.6740   24.6780   33.7240 N   0  0  0  0  0  0  0  0  0  0  0  0
   38.0770   25.2410   34.8880 C   0  0  0  0  0  0  0  0  0  0  0  0
   37.9790   26.5530   35.0850 N   0  0  0  0  0  0  0  0  0  0  0  0
   37.3930   28.4250   34.2840 H   0  0  0  0  0  0  0  0  0  0  0  0
   36.8240   25.0070   31.7730 H   0  0  0  0  0  0  0  0  0  0  0  0
   40.7840   24.0820   34.2710 Cl  0  0  0  0  0  0  0  0  0  0  0  0
   39.8850   23.8090   35.7690 C   0  0  0  0  0  0  0  0  0  0  0  0
   38.6320   24.3970   35.9520 C   0  0  0  0  0  0  0  0  0  0  0  0
   37.9350   24.1780   37.1270 C   0  0  0  0  0  0  0  0  0  0  0  0
   36.9570   24.6300   37.2850 H   0  0  0  0  0  0  0  0  0  0  0  0
   38.4780   23.3850   38.1040 C   0  0  0  0  0  0  0  0  0  0  0  0
   37.9920   23.1730   39.0400 H   0  0  0  0  0  0  0  0  0  0  0  0
   39.7200   22.8030   37.9200 C   0  0  0  0  0  3  0  0  0  0  0  0
   40.4310   23.0100   36.7550 C   0  0  0  0  0  3  0  0  0  0  0  0
   36.4850   27.7290   31.8530 C   0  0  0  0  0  0  0  0  0  0  0  0
   37.1720   28.9370   31.8530 F   0  0  0  0  0  0  0  0  0  0  0  0
   36.6940   27.1300   30.6170 F   0  0  0  0  0  0  0  0  0  0  0  0
   35.1450   27.9690   32.0220 F   0  0  0  0  0  0  0  0  0  0  0  0
  1  7  1  0  0  0  0
  1  6  1  0  0  0  0
  2  1  2  0  0  0  0
  3  2  1  0  0  0  0
  3  4  2  0  0  0  0
  4  5  1  0  0  0  0
  5  6  2  0  0  0  0
  5 11  1  0  0  0  0
  8  3  1  0  0  0  0
  9 10  1  0  0  0  0
 10 11  2  0  0  0  0
 10 17  1  0  0  0  0
 11 12  1  0  0  0  0
 12 13  1  0  0  0  0
 12 14  2  0  0  0  0
 14 15  1  0  0  0  0
 16 14  1  0  0  0  0
 17 16  2  0  0  0  0
 18 21  1  0  0  0  0
 18  2  1  0  0  0  0
 19 18  1  0  0  0  0
 20 18  1  0  0  0  0
M  END
>  <minimizedAffinity>
-4.64985704

$$$$

 OpenBabel03272500133D

 21 22  0  0  0  0  0  0  0  0999 V2000
   38.5160   24.1680   36.4910 C   0  0  0  0  0  0  0  0  0  0  0  0
   39.7510   23.6110   36.1190 C   0  0  0  0  0  0  0  0  0  0  0  0
   40.2390   23.8610   34.8190 C   0  0  0  0  0  0  0  0  0  0  0  0
   39.4750   24.6350   33.9970 N   0  0  0  0  0  0  0  0  0  0  0  0
   38.2890   25.1570   34.3910 C   0  0  0  0  0  0  0  0  0  0  0  0
   37.8120   24.9320   35.6130 N   0  0  0  0  0  0  0  0  0  0  0  0
   38.1180   23.9920   37.4870 H   0  0  0  0  0  0  0  0  0  0  0  0
   41.1750   23.4340   34.5460 H   0  0  0  0  0  0  0  0  0  0  0  0
   36.8470   23.6020   32.2570 Cl  0  0  0  0  0  0  0  0  0  0  0  0
   36.8020   25.3620   32.4300 C   0  0  0  0  0  0  0  0  0  0  0  0
   37.5110   25.9830   33.4610 C   0  0  0  0  0  0  0  0  0  0  0  0
   37.4710   27.3600   33.5890 C   0  0  0  0  0  0  0  0  0  0  0  0
   38.0180   27.8590   34.3870 H   0  0  0  0  0  0  0  0  0  0  0  0
   36.7360   28.1060   32.7050 C   0  0  0  0  0  0  0  0  0  0  0  0
   36.6600   29.1780   32.7470 H   0  0  0  0  0  0  0  0  0  0  0  0
   36.0340   27.4870   31.6850 C   0  0  0  0  0  3  0  0  0  0  0  0
   36.0610   26.1150   31.5410 C   0  0  0  0  0  3  0  0  0  0  0  0
   40.4870   22.7800   37.1200 C   0  0  0  0  0  0  0  0  0  0  0  0
   41.8340   23.1230   37.1470 F   0  0  0  0  0  0  0  0  0  0  0  0
   39.9570   23.0760   38.3700 F   0  0  0  0  0  0  0  0  0  0  0  0
   40.3660   21.4350   36.8810 F   0  0  0  0  0  0  0  0  0  0  0  0
  1  7  1  0  0  0  0
  2  1  1  0  0  0  0
  2 18  1  0  0  0  0
  3  2  2  0  0  0  0
  4  5  2  0  0  0  0
  4  3  1  0  0  0  0
  5  6  1  0  0  0  0
  6  1  2  0  0  0  0
  8  3  1  0  0  0  0
  9 10  1  0  0  0  0
 10 11  1  0  0  0  0
 11 12  2  0  0  0  0
 11  5  1  0  0  0  0
 12 13  1  0  0  0  0
 14 15  1  0  0  0  0
 14 12  1  0  0  0  0
 16 14  2  0  0  0  0
 17 16  1  0  0  0  0
 17 10  2  0  0  0  0
 18 19  1  0  0  0  0
 18 20  1  0  0  0  0
 21 18  1  0  0  0  0
M  END
>  <minimizedAffinity>
-4.64763403

$$$$

 OpenBabel03272500133D

 21 22  0  0  0  0  0  0  0  0999 V2000
   38.2030   24.4910   35.0350 C   0  0  0  0  0  0  0  0  0  0  0  0
   38.2640   25.1960   36.2490 C   0  0  0  0  0  0  0  0  0  0  0  0
   38.4540   26.5940   36.2060 C   0  0  0  0  0  0  0  0  0  0  0  0
   38.5660   27.1780   34.9800 N   0  0  0  0  0  0  0  0  0  0  0  0
   38.5010   26.4660   33.8310 C   0  0  0  0  0  0  0  0  0  0  0  0
   38.3230   25.1470   33.8500 N   0  0  0  0  0  0  0  0  0  0  0  0
   38.0570   23.4140   35.0390 H   0  0  0  0  0  0  0  0  0  0  0  0
   38.4990   27.1200   37.1310 H   0  0  0  0  0  0  0  0  0  0  0  0
   36.0680   28.0330   33.0090 Cl  0  0  0  0  0  0  0  0  0  0  0  0
   37.5560   27.9070   32.0630 C   0  0  0  0  0  0  0  0  0  0  0  0
   38.6290   27.1510   32.5390 C   0  0  0  0  0  0  0  0  0  0  0  0
   39.7890   27.0570   31.7920 C   0  0  0  0  0  0  0  0  0  0  0  0
   40.6340   26.4710   32.1500 H   0  0  0  0  0  0  0  0  0  0  0  0
   39.8810   27.7070   30.5890 C   0  0  0  0  0  0  0  0  0  0  0  0
   40.7520   27.6770   29.9590 H   0  0  0  0  0  0  0  0  0  0  0  0
   38.8160   28.4570   30.1190 C   0  0  0  0  0  3  0  0  0  0  0  0
   37.6500   28.5620   30.8500 C   0  0  0  0  0  3  0  0  0  0  0  0
   38.1260   24.4310   37.5250 C   0  0  0  0  0  0  0  0  0  0  0  0
   37.0330   23.5740   37.4670 F   0  0  0  0  0  0  0  0  0  0  0  0
   39.2640   23.6450   37.6590 F   0  0  0  0  0  0  0  0  0  0  0  0
   38.0050   25.2470   38.6210 F   0  0  0  0  0  0  0  0  0  0  0  0
  1  7  1  0  0  0  0
  1  2  1  0  0  0  0
  2 18  1  0  0  0  0
  3  2  2  0  0  0  0
  3  8  1  0  0  0  0
  4  3  1  0  0  0  0
  5  6  1  0  0  0  0
  5  4  2  0  0  0  0
  6  1  2  0  0  0  0
 10 11  1  0  0  0  0
 10  9  1  0  0  0  0
 11  5  1  0  0  0  0
 12 13  1  0  0  0  0
 12 11  2  0  0  0  0
 14 12  1  0  0  0  0
 15 14  1  0  0  0  0
 16 14  2  0  0  0  0
 16 17  1  0  0  0  0
 17 10  2  0  0  0  0
 18 20  1  0  0  0  0
 18 21  1  0  0  0  0
 19 18  1  0  0  0  0
M  END
>  <minimizedAffinity>
-4.64479923

$$$$
