
 OpenBabel03272507133D

 40 44  0  0  0  0  0  0  0  0999 V2000
   35.7450   29.1440   49.9040 C   0  0  0  0  0  0  0  0  0  0  0  0
   34.6920   29.6420   50.6020 C   0  0  0  0  0  0  0  0  0  0  0  0
   33.5440   29.0490   50.0720 C   0  0  0  0  0  0  0  0  0  0  0  0
   33.9930   28.2000   49.0510 C   0  0  0  0  0  0  0  0  0  0  0  0
   35.2830   28.3110   49.0140 O   0  0  0  0  0  0  0  0  0  0  0  0
   34.6970   30.3620   51.4190 H   0  0  0  0  0  0  0  0  0  0  0  0
   32.5570   29.2680   50.4440 H   0  0  0  0  0  0  0  0  0  0  0  0
   33.5140   26.4200   47.3870 C   0  0  0  0  0  0  0  0  0  0  0  0
   33.0660   27.4030   48.2610 C   0  0  0  0  0  0  0  0  0  0  0  0
   31.7240   27.6560   48.4190 C   0  0  0  0  0  0  0  0  0  0  0  0
   30.8330   26.9030   47.6800 C   0  0  0  0  0  0  0  0  0  0  0  0
   29.4870   26.9360   47.6430 N   0  0  0  0  0  0  0  0  0  0  0  0
   29.0890   26.0030   46.7740 N   0  0  0  0  0  0  0  0  0  0  0  0
   30.1660   25.3910   46.2700 C   0  0  0  0  0  0  0  0  0  0  0  0
   31.3200   25.9410   46.8280 C   0  0  0  0  0  0  0  0  0  0  0  0
   32.6540   25.6630   46.6470 C   0  0  0  0  0  0  0  0  0  0  0  0
   34.5830   26.2610   47.3010 H   0  0  0  0  0  0  0  0  0  0  0  0
   31.3070   28.4110   49.0850 H   0  0  0  0  0  0  0  0  0  0  0  0
   28.8320   27.5700   48.1890 H   0  0  0  0  0  0  0  0  0  0  0  0
   30.1140   24.5830   45.5300 H   0  0  0  0  0  0  0  0  0  0  0  0
   32.9590   24.8920   45.9580 H   0  0  0  0  0  0  0  0  0  0  0  0
   37.1150   29.5460   50.1900 C   0  0  0  0  0  0  0  0  0  0  0  0
   37.7340   28.9890   51.1240 O   0  0  0  0  0  0  0  0  0  0  0  0
   37.6850   30.5810   49.3610 C   0  0  0  0  0  0  0  0  0  0  0  0
   37.8340   31.8460   49.9300 C   0  0  0  0  0  0  0  0  0  0  0  0
   38.3770   32.8830   49.1790 C   0  0  0  0  0  0  0  0  0  0  0  0
   38.7340   32.5660   47.8960 N   0  0  0  0  0  0  0  0  0  0  0  0
   38.5910   31.3630   47.3610 C   0  0  0  0  0  0  0  0  0  0  0  0
   38.0630   30.3730   48.1050 N   0  0  0  0  0  0  0  0  0  0  0  0
   37.5370   32.0500   50.9490 H   0  0  0  0  0  0  0  0  0  0  0  0
   38.5150   33.8810   49.5720 H   0  0  0  0  0  0  0  0  0  0  0  0
   36.4520   30.5130   45.3520 Cl  0  0  0  0  0  0  0  0  0  0  0  0
   38.1410   30.7720   44.9820 C   0  0  0  0  0  0  0  0  0  0  0  0
   39.0130   31.1560   45.9800 C   0  0  0  0  0  0  0  0  0  0  0  0
   40.3430   31.3560   45.6740 C   0  0  0  0  0  0  0  0  0  0  0  0
   41.0600   31.6600   46.4400 H   0  0  0  0  0  0  0  0  0  0  0  0
   40.8080   31.1790   44.3880 C   0  0  0  0  0  0  0  0  0  0  0  0
   41.8490   31.3450   44.1940 H   0  0  0  0  0  0  0  0  0  0  0  0
   39.9540   30.7970   43.3880 C   0  0  0  0  0  3  0  0  0  0  0  0
   38.6050   30.5920   43.6900 C   0  0  0  0  0  3  0  0  0  0  0  0
  1 22  1  0  0  0  0
  1  2  2  0  0  0  0
  2  6  1  0  0  0  0
  3  7  1  0  0  0  0
  3  2  1  0  0  0  0
  4  3  2  0  0  0  0
  5  4  1  0  0  0  0
  5  1  1  0  0  0  0
  8  9  1  0  0  0  0
  9 10  2  0  0  0  0
  9  4  1  0  0  0  0
 10 18  1  0  0  0  0
 11 10  1  0  0  0  0
 12 11  1  0  0  0  0
 12 19  1  0  0  0  0
 13 12  1  0  0  0  0
 14 13  2  0  0  0  0
 14 15  1  0  0  0  0
 15 11  2  0  0  0  0
 16 15  1  0  0  0  0
 16  8  2  0  0  0  0
 17  8  1  0  0  0  0
 20 14  1  0  0  0  0
 21 16  1  0  0  0  0
 22 23  2  0  0  0  0
 24 25  1  0  0  0  0
 24 22  1  0  0  0  0
 25 30  1  0  0  0  0
 26 31  1  0  0  0  0
 26 25  2  0  0  0  0
 27 26  1  0  0  0  0
 28 27  2  0  0  0  0
 28 29  1  0  0  0  0
 29 24  2  0  0  0  0
 33 32  1  0  0  0  0
 33 34  1  0  0  0  0
 34 28  1  0  0  0  0
 35 34  2  0  0  0  0
 35 36  1  0  0  0  0
 37 35  1  0  0  0  0
 38 37  1  0  0  0  0
 39 40  1  0  0  0  0
 39 37  2  0  0  0  0
 40 33  2  0  0  0  0
M  END
>  <minimizedAffinity>
-7.32081795

>  <minimizedRMSD>
0.355424285

$$$$
