
 OpenBabel03262520123D

 42 44  0  0  0  0  0  0  0  0999 V2000
   35.2680   30.3340   49.4090 C   0  0  0  0  0  0  0  0  0  0  0  0
   36.1030   30.1910   50.1310 H   0  0  0  0  0  0  0  0  0  0  0  0
   34.8740   31.3610   49.6740 H   0  0  0  0  0  0  0  0  0  0  0  0
   38.1720   31.5020   48.9750 Br  0  0  0  0  0  0  0  0  0  0  0  0
   36.9440   30.8970   47.6230 C   0  0  0  0  0  0  0  0  0  0  0  0
   37.2880   30.9430   46.2850 C   0  0  0  0  0  0  0  0  0  0  0  0
   36.3700   30.5050   45.3670 C   0  0  0  0  0  0  0  0  0  0  0  0
   35.1250   30.0240   45.7460 C   0  0  0  0  0  0  0  0  0  0  0  0
   34.8110   29.9920   47.1020 C   0  0  0  0  0  0  0  0  0  0  0  0
   35.7230   30.4280   48.0230 C   0  0  0  0  0  0  0  0  0  0  0  0
   36.6930   30.5610   44.3220 H   0  0  0  0  0  0  0  0  0  0  0  0
   34.5300   29.7240   44.9180 H   0  0  0  0  0  0  0  0  0  0  0  0
   33.8250   29.6240   47.2080 H   0  0  0  0  0  0  0  0  0  0  0  0
   39.8300   33.2580   45.0650 C   0  0  0  0  0  0  0  0  0  0  0  0
   41.0150   32.4810   45.0390 C   0  0  0  0  0  0  0  0  0  0  0  0
   40.9040   31.1720   45.4460 C   0  0  0  0  0  0  0  0  0  0  0  0
   39.6870   30.6690   45.8530 N   0  0  0  0  0  0  0  0  0  0  0  0
   38.5920   31.4540   45.8570 C   0  0  0  0  0  0  0  0  0  0  0  0
   38.6780   32.7340   45.4630 N   0  0  0  0  0  0  0  0  0  0  0  0
   39.9410   34.2850   44.7400 H   0  0  0  0  0  0  0  0  0  0  0  0
   41.9430   32.9380   44.7090 H   0  0  0  0  0  0  0  0  0  0  0  0
   41.7710   30.5540   45.4430 H   0  0  0  0  0  0  0  0  0  0  0  0
   34.1700   29.3760   49.6910 C   0  0  0  0  0  0  0  0  0  0  0  0
   33.2090   29.7470   49.3950 H   0  0  0  0  0  0  0  0  0  0  0  0
   34.1110   29.3650   50.8350 H   0  0  0  0  0  0  0  0  0  0  0  0
   34.5880   28.0690   49.3470 N   0  0  0  0  0  0  0  0  0  0  0  0
   35.5840   27.9970   49.0360 H   0  0  0  0  0  0  0  0  0  0  0  0
   33.7350   27.3020   48.5170 C   0  0  0  0  0  0  0  0  0  0  0  0
   33.9280   27.4350   47.4230 H   0  0  0  0  0  0  0  0  0  0  0  0
   33.8530   26.2130   48.7630 H   0  0  0  0  0  0  0  0  0  0  0  0
   32.3220   27.6950   48.8040 C   0  0  0  0  0  0  0  0  0  0  0  0
   31.9870   28.6870   48.5560 H   0  0  0  0  0  0  0  0  0  0  0  0
   31.9890   27.3560   49.8220 H   0  0  0  0  0  0  0  0  0  0  0  0
   33.4780   25.0960   47.4880 Cl  0  0  0  0  0  0  0  0  0  0  0  0
   31.8730   25.6900   47.2230 C   0  0  0  0  0  0  0  0  0  0  0  0
   31.4940   26.8300   47.8540 C   0  0  0  0  0  0  0  0  0  0  0  0
   30.1750   27.2080   47.5620 C   0  0  0  0  0  0  0  0  0  0  0  0
   29.7760   28.1220   48.0280 H   0  0  0  0  0  0  0  0  0  0  0  0
   29.3030   26.5570   46.7450 C   0  0  0  0  0  0  0  0  0  0  0  0
   28.3030   26.9160   46.5740 H   0  0  0  0  0  0  0  0  0  0  0  0
   29.7850   25.4090   46.1520 C   0  0  0  0  0  0  0  0  0  0  0  0
   31.0670   24.9640   46.3820 C   0  0  0  0  0  0  0  0  0  0  0  0
  1  3  1  0  0  0  0
  1 23  1  0  0  0  0
  1  2  1  0  0  0  0
  5 10  1  0  0  0  0
  5  4  1  0  0  0  0
  6  5  2  0  0  0  0
  7  8  2  0  0  0  0
  7  6  1  0  0  0  0
  8  9  1  0  0  0  0
  9 13  1  0  0  0  0
  9 10  2  0  0  0  0
 10  1  1  0  0  0  0
 11  7  1  0  0  0  0
 12  8  1  0  0  0  0
 14 19  1  0  0  0  0
 15 14  2  0  0  0  0
 15 16  1  0  0  0  0
 16 17  2  0  0  0  0
 17 18  1  0  0  0  0
 18  6  1  0  0  0  0
 19 18  2  0  0  0  0
 20 14  1  0  0  0  0
 21 15  1  0  0  0  0
 22 16  1  0  0  0  0
 23 25  1  0  0  0  0
 24 23  1  0  0  0  0
 26 23  1  0  0  0  0
 27 26  1  0  0  0  0
 28 30  1  0  0  0  0
 28 31  1  0  0  0  0
 28 26  1  0  0  0  0
 29 28  1  0  0  0  0
 31 33  1  0  0  0  0
 32 31  1  0  0  0  0
 35 34  1  0  0  0  0
 35 36  1  0  0  0  0
 36 31  1  0  0  0  0
 37 36  2  0  0  0  0
 37 38  1  0  0  0  0
 39 37  1  0  0  0  0
 40 39  1  0  0  0  0
 41 42  1  0  0  0  0
 41 39  2  0  0  0  0
 42 35  2  0  0  0  0
M  END
>  <minimizedAffinity>
-5.5242033

>  <minimizedRMSD>
0.415909171

$$$$
