
 OpenBabel03272507123D

 40 44  0  0  0  0  0  0  0  0999 V2000
   35.7480   29.1430   49.9050 C   0  0  0  0  0  0  0  0  0  0  0  0
   34.6940   29.6440   50.6000 C   0  0  0  0  0  0  0  0  0  0  0  0
   33.5460   29.0520   50.0700 C   0  0  0  0  0  0  0  0  0  0  0  0
   33.9940   28.2010   49.0510 C   0  0  0  0  0  0  0  0  0  0  0  0
   35.2850   28.3090   49.0160 O   0  0  0  0  0  0  0  0  0  0  0  0
   34.7000   30.3660   51.4170 H   0  0  0  0  0  0  0  0  0  0  0  0
   32.5580   29.2740   50.4400 H   0  0  0  0  0  0  0  0  0  0  0  0
   33.5150   26.4230   47.3850 C   0  0  0  0  0  0  0  0  0  0  0  0
   33.0670   27.4040   48.2610 C   0  0  0  0  0  0  0  0  0  0  0  0
   31.7250   27.6570   48.4210 C   0  0  0  0  0  0  0  0  0  0  0  0
   30.8340   26.9040   47.6830 C   0  0  0  0  0  0  0  0  0  0  0  0
   29.4870   26.9360   47.6470 N   0  0  0  0  0  0  0  0  0  0  0  0
   29.0880   26.0050   46.7770 N   0  0  0  0  0  0  0  0  0  0  0  0
   30.1660   25.3940   46.2710 C   0  0  0  0  0  0  0  0  0  0  0  0
   31.3200   25.9440   46.8280 C   0  0  0  0  0  0  0  0  0  0  0  0
   32.6540   25.6670   46.6450 C   0  0  0  0  0  0  0  0  0  0  0  0
   34.5840   26.2650   47.2970 H   0  0  0  0  0  0  0  0  0  0  0  0
   31.3080   28.4100   49.0890 H   0  0  0  0  0  0  0  0  0  0  0  0
   28.8330   27.5690   48.1950 H   0  0  0  0  0  0  0  0  0  0  0  0
   30.1130   24.5870   45.5300 H   0  0  0  0  0  0  0  0  0  0  0  0
   32.9580   24.8970   45.9550 H   0  0  0  0  0  0  0  0  0  0  0  0
   37.1180   29.5420   50.1920 C   0  0  0  0  0  0  0  0  0  0  0  0
   37.7350   28.9830   51.1270 O   0  0  0  0  0  0  0  0  0  0  0  0
   37.6910   30.5770   49.3640 C   0  0  0  0  0  0  0  0  0  0  0  0
   37.8460   31.8400   49.9360 C   0  0  0  0  0  0  0  0  0  0  0  0
   38.3910   32.8760   49.1860 C   0  0  0  0  0  0  0  0  0  0  0  0
   38.7450   32.5610   47.9020 N   0  0  0  0  0  0  0  0  0  0  0  0
   38.5960   31.3590   47.3640 C   0  0  0  0  0  0  0  0  0  0  0  0
   38.0650   30.3700   48.1080 N   0  0  0  0  0  0  0  0  0  0  0  0
   37.5510   32.0420   50.9560 H   0  0  0  0  0  0  0  0  0  0  0  0
   38.5340   33.8730   49.5800 H   0  0  0  0  0  0  0  0  0  0  0  0
   36.4520   30.5120   45.3600 Cl  0  0  0  0  0  0  0  0  0  0  0  0
   38.1400   30.7700   44.9860 C   0  0  0  0  0  0  0  0  0  0  0  0
   39.0140   31.1530   45.9820 C   0  0  0  0  0  0  0  0  0  0  0  0
   40.3430   31.3530   45.6720 C   0  0  0  0  0  0  0  0  0  0  0  0
   41.0630   31.6570   46.4370 H   0  0  0  0  0  0  0  0  0  0  0  0
   40.8050   31.1770   44.3860 C   0  0  0  0  0  0  0  0  0  0  0  0
   41.8460   31.3430   44.1890 H   0  0  0  0  0  0  0  0  0  0  0  0
   39.9490   30.7970   43.3880 C   0  0  0  0  0  3  0  0  0  0  0  0
   38.6000   30.5920   43.6910 C   0  0  0  0  0  3  0  0  0  0  0  0
  1 22  1  0  0  0  0
  1  2  2  0  0  0  0
  2  6  1  0  0  0  0
  3  7  1  0  0  0  0
  3  2  1  0  0  0  0
  4  3  2  0  0  0  0
  5  4  1  0  0  0  0
  5  1  1  0  0  0  0
  8  9  1  0  0  0  0
  9 10  2  0  0  0  0
  9  4  1  0  0  0  0
 10 18  1  0  0  0  0
 11 10  1  0  0  0  0
 12 11  1  0  0  0  0
 12 19  1  0  0  0  0
 13 12  1  0  0  0  0
 14 13  2  0  0  0  0
 14 15  1  0  0  0  0
 15 11  2  0  0  0  0
 16 15  1  0  0  0  0
 16  8  2  0  0  0  0
 17  8  1  0  0  0  0
 20 14  1  0  0  0  0
 21 16  1  0  0  0  0
 22 23  2  0  0  0  0
 24 25  1  0  0  0  0
 24 22  1  0  0  0  0
 25 30  1  0  0  0  0
 26 31  1  0  0  0  0
 26 25  2  0  0  0  0
 27 26  1  0  0  0  0
 28 27  2  0  0  0  0
 28 29  1  0  0  0  0
 29 24  2  0  0  0  0
 33 32  1  0  0  0  0
 33 34  1  0  0  0  0
 34 28  1  0  0  0  0
 35 34  2  0  0  0  0
 35 36  1  0  0  0  0
 37 35  1  0  0  0  0
 38 37  1  0  0  0  0
 39 40  1  0  0  0  0
 39 37  2  0  0  0  0
 40 33  2  0  0  0  0
M  END
>  <minimizedAffinity>
-7.32696486

>  <minimizedRMSD>
0.341990411

$$$$
