
 OpenBabel03272506243D

 31 33  0  0  0  0  0  0  0  0999 V2000
   37.0800   30.6280   46.8160 C   0  0  0  0  0  0  0  0  0  0  0  0
   36.5090   29.8290   45.8520 C   0  0  0  0  0  0  0  0  0  0  0  0
   36.5170   30.0900   44.5050 C   0  0  0  0  0  0  0  0  0  0  0  0
   37.1600   31.2670   44.0540 C   0  0  0  0  0  0  0  0  0  0  0  0
   37.7350   32.0710   45.0220 C   0  0  0  0  0  0  0  0  0  0  0  0
   37.7130   31.7900   46.3620 C   0  0  0  0  0  0  0  0  0  0  0  0
   35.9950   28.9050   46.1010 H   0  0  0  0  0  0  0  0  0  0  0  0
   36.0700   29.4680   43.7580 H   0  0  0  0  0  0  0  0  0  0  0  0
   37.1970   31.5230   43.0090 H   0  0  0  0  0  0  0  0  0  0  0  0
   38.2480   32.9940   44.7510 H   0  0  0  0  0  0  0  0  0  0  0  0
   40.4790   32.8960   45.8430 Cl  0  0  0  0  0  0  0  0  0  0  0  0
   39.5490   33.1780   47.3200 C   0  0  0  0  0  0  0  0  0  0  0  0
   38.2980   32.6050   47.4200 C   0  0  0  0  0  0  0  0  0  0  0  0
   37.5950   32.8530   48.6070 C   0  0  0  0  0  0  0  0  0  0  0  0
   36.5930   32.4050   48.7050 H   0  0  0  0  0  0  0  0  0  0  0  0
   38.0920   33.6210   49.6390 C   0  0  0  0  0  0  0  0  0  0  0  0
   37.4610   33.7580   50.5340 H   0  0  0  0  0  0  0  0  0  0  0  0
   39.3430   34.1860   49.5210 C   0  0  0  0  0  0  0  0  0  0  0  0
   40.0610   33.9520   48.3470 C   0  0  0  0  0  0  0  0  0  0  0  0
   38.1800   30.1970   48.9490 C   0  0  0  0  0  0  0  0  0  0  0  0
   36.9760   30.1960   48.1880 C   0  0  0  0  0  0  0  0  0  0  0  0
   35.8070   29.7790   48.8250 C   0  0  0  0  0  0  0  0  0  0  0  0
   35.8830   29.4010   50.1250 N   0  0  0  0  0  0  0  0  0  0  0  0
   37.0420   29.4080   50.8380 C   0  0  0  0  0  0  0  0  0  0  0  0
   38.1960   29.8120   50.2340 N   0  0  0  0  0  0  0  0  0  0  0  0
   39.1010   30.5300   48.4430 H   0  0  0  0  0  0  0  0  0  0  0  0
   37.0510   29.0990   51.8710 H   0  0  0  0  0  0  0  0  0  0  0  0
   34.5020   29.7370   48.1560 C   0  0  0  0  0  0  0  0  0  0  0  0
   33.4980   29.3680   49.0780 F   0  0  0  0  0  0  0  0  0  0  0  0
   34.0950   30.8650   47.5180 F   0  0  0  0  0  0  0  0  0  0  0  0
   34.4660   28.6680   47.2410 F   0  0  0  0  0  0  0  0  0  0  0  0
  1 21  1  0  0  0  0
  2  7  1  0  0  0  0
  2  1  2  0  0  0  0
  3  2  1  0  0  0  0
  4  3  2  0  0  0  0
  4  5  1  0  0  0  0
  5  6  2  0  0  0  0
  6  1  1  0  0  0  0
  6 13  1  0  0  0  0
  8  3  1  0  0  0  0
  9  4  1  0  0  0  0
 10  5  1  0  0  0  0
 11 12  1  0  0  0  0
 12 13  2  0  0  0  0
 12 19  1  0  0  0  0
 13 14  1  0  0  0  0
 14 15  1  0  0  0  0
 14 16  2  0  0  0  0
 16 17  1  0  0  0  0
 18 16  1  0  0  0  0
 19 18  2  0  0  0  0
 20 25  1  0  0  0  0
 21 22  1  0  0  0  0
 21 20  2  0  0  0  0
 22 23  2  0  0  0  0
 23 24  1  0  0  0  0
 24 27  1  0  0  0  0
 25 24  2  0  0  0  0
 26 20  1  0  0  0  0
 28 22  1  0  0  0  0
 28 29  1  0  0  0  0
 30 28  1  0  0  0  0
 31 28  1  0  0  0  0
M  END
>  <minimizedAffinity>
-5.06278706

>  <minimizedRMSD>
2.56862378

$$$$
