
 OpenBabel03262522403D

 41 45  0  0  0  0  0  0  0  0999 V2000
   38.8200   31.5570   47.0360 C   0  0  0  0  0  0  0  0  0  0  0  0
   39.4870   32.7610   46.9930 C   0  0  0  0  0  0  0  0  0  0  0  0
   40.3020   33.1420   45.9500 C   0  0  0  0  0  0  0  0  0  0  0  0
   40.4790   32.3040   44.8840 C   0  0  0  0  0  0  0  0  0  0  0  0
   39.8020   31.1050   44.9470 C   0  0  0  0  0  0  0  0  0  0  0  0
   39.0240   30.7610   45.9630 N   0  0  0  0  0  0  0  0  0  0  0  0
   39.3770   33.4550   47.8140 H   0  0  0  0  0  0  0  0  0  0  0  0
   40.8220   34.1020   45.9360 H   0  0  0  0  0  0  0  0  0  0  0  0
   41.0960   32.5470   44.0520 H   0  0  0  0  0  0  0  0  0  0  0  0
   39.1480   29.0580   43.6530 C   0  0  0  0  0  0  0  0  0  0  0  0
   39.9400   30.1610   43.8530 C   0  0  0  0  0  0  0  0  0  0  0  0
   40.9290   30.3070   42.8770 C   0  0  0  0  0  0  0  0  0  0  0  0
   41.1280   29.4630   41.8140 C   0  0  0  0  0  0  0  0  0  0  0  0
   41.9990   29.4340   40.7960 N   0  0  0  0  0  0  0  0  0  0  0  0
   41.7260   28.3550   40.0330 C   0  0  0  0  0  0  0  0  0  0  0  0
   40.6530   27.6600   40.5570 C   0  0  0  0  0  0  0  0  0  0  0  0
   40.2930   28.3790   41.6810 C   0  0  0  0  0  0  0  0  0  0  0  0
   39.2930   28.1720   42.6080 C   0  0  0  0  0  0  0  0  0  0  0  0
   38.3490   28.8680   44.3700 H   0  0  0  0  0  0  0  0  0  0  0  0
   41.6150   31.1430   42.9320 H   0  0  0  0  0  0  0  0  0  0  0  0
   42.7470   30.1370   40.6480 H   0  0  0  0  0  0  0  0  0  0  0  0
   42.3220   28.1410   39.1460 H   0  0  0  0  0  0  0  0  0  0  0  0
   40.2290   26.7570   40.1400 H   0  0  0  0  0  0  0  0  0  0  0  0
   38.6430   27.3170   42.4940 H   0  0  0  0  0  0  0  0  0  0  0  0
   37.3380   30.9780   50.4460 C   0  0  0  0  0  0  0  0  0  0  0  0
   38.2430   31.4250   49.4720 C   0  0  0  0  0  0  0  0  0  0  0  0
   37.9590   31.1450   48.1330 C   0  0  0  0  0  0  0  0  0  0  0  0
   36.8380   30.4680   47.8610 N   0  0  0  0  0  0  0  0  0  0  0  0
   35.9720   30.0410   48.8070 C   0  0  0  0  0  0  0  0  0  0  0  0
   36.2370   30.3050   50.0920 N   0  0  0  0  0  0  0  0  0  0  0  0
   37.6690   31.2560   51.4390 H   0  0  0  0  0  0  0  0  0  0  0  0
   39.1620   31.9810   49.6930 H   0  0  0  0  0  0  0  0  0  0  0  0
   35.3400   30.0390   45.8600 Cl  0  0  0  0  0  0  0  0  0  0  0  0
   34.3920   29.2470   47.1020 C   0  0  0  0  0  0  0  0  0  0  0  0
   34.7640   29.3030   48.4360 C   0  0  0  0  0  0  0  0  0  0  0  0
   34.0210   28.6800   49.4160 C   0  0  0  0  0  0  0  0  0  0  0  0
   34.2930   28.7110   50.4750 H   0  0  0  0  0  0  0  0  0  0  0  0
   32.8940   28.0020   49.0020 C   0  0  0  0  0  0  0  0  0  0  0  0
   32.3160   27.5140   49.7970 H   0  0  0  0  0  0  0  0  0  0  0  0
   32.4470   27.8890   47.7180 C   0  0  0  0  0  0  0  0  0  0  0  0
   33.2390   28.5380   46.7740 C   0  0  0  0  0  0  0  0  0  0  0  0
  1 27  1  0  0  0  0
  2  1  1  0  0  0  0
  2  7  1  0  0  0  0
  3  2  2  0  0  0  0
  4  5  2  0  0  0  0
  4  3  1  0  0  0  0
  5  6  1  0  0  0  0
  6  1  2  0  0  0  0
  8  3  1  0  0  0  0
  9  4  1  0  0  0  0
 10 11  1  0  0  0  0
 10 19  1  0  0  0  0
 11  5  1  0  0  0  0
 12 20  1  0  0  0  0
 12 11  2  0  0  0  0
 13 12  1  0  0  0  0
 14 13  1  0  0  0  0
 15 16  2  0  0  0  0
 15 14  1  0  0  0  0
 16 17  1  0  0  0  0
 17 13  2  0  0  0  0
 17 18  1  0  0  0  0
 18 10  2  0  0  0  0
 21 14  1  0  0  0  0
 22 15  1  0  0  0  0
 23 16  1  0  0  0  0
 24 18  1  0  0  0  0
 25 31  1  0  0  0  0
 26 32  1  0  0  0  0
 26 25  2  0  0  0  0
 27 26  1  0  0  0  0
 28 27  2  0  0  0  0
 28 29  1  0  0  0  0
 29 30  2  0  0  0  0
 30 25  1  0  0  0  0
 33 34  1  0  0  0  0
 34 35  1  0  0  0  0
 35 29  1  0  0  0  0
 35 36  2  0  0  0  0
 36 37  1  0  0  0  0
 38 36  1  0  0  0  0
 38 39  1  0  0  0  0
 40 38  2  0  0  0  0
 41 34  2  0  0  0  0
 41 40  1  0  0  0  0
M  END
>  <minimizedAffinity>
-7.82094908

>  <minimizedRMSD>
1.04982269

$$$$
