
 OpenBabel03272510013D

 21 22  0  0  0  0  0  0  0  0999 V2000
   39.1780   32.5640   47.6300 C   0  0  0  0  0  0  0  0  0  0  0  0
   39.0510   32.5030   46.2220 C   0  0  0  0  0  0  0  0  0  0  0  0
   37.9970   31.7750   45.6920 C   0  0  0  0  0  0  0  0  0  0  0  0
   37.1610   31.1690   46.5750 N   0  0  0  0  0  0  0  0  0  0  0  0
   37.3000   31.2400   47.9000 C   0  0  0  0  0  0  0  0  0  0  0  0
   38.3050   31.9360   48.4180 N   0  0  0  0  0  0  0  0  0  0  0  0
   39.9890   33.1230   48.0820 H   0  0  0  0  0  0  0  0  0  0  0  0
   39.7400   33.0000   45.5760 H   0  0  0  0  0  0  0  0  0  0  0  0
   39.2230   29.3300   44.3660 Cl  0  0  0  0  0  0  0  0  0  0  0  0
   38.2770   30.5650   43.5850 C   0  0  0  0  0  0  0  0  0  0  0  0
   37.7610   31.6380   44.2620 C   0  0  0  0  0  0  0  0  0  0  0  0
   37.0320   32.5360   43.5140 C   0  0  0  0  0  0  0  0  0  0  0  0
   36.5980   33.4030   43.9910 H   0  0  0  0  0  0  0  0  0  0  0  0
   36.8230   32.3840   42.1620 C   0  0  0  0  0  0  0  0  0  0  0  0
   36.2410   33.1200   41.6140 H   0  0  0  0  0  0  0  0  0  0  0  0
   37.3480   31.2990   41.4870 C   0  0  0  0  0  3  0  0  0  0  0  0
   38.0930   30.3700   42.2180 C   0  0  0  0  0  3  0  0  0  0  0  0
   36.3120   30.5230   48.7310 C   0  0  0  0  0  0  0  0  0  0  0  0
   36.1660   31.0900   49.9950 F   0  0  0  0  0  0  0  0  0  0  0  0
   35.0530   30.5360   48.1590 F   0  0  0  0  0  0  0  0  0  0  0  0
   36.6240   29.1900   48.9330 F   0  0  0  0  0  0  0  0  0  0  0  0
  1  7  1  0  0  0  0
  1  6  1  0  0  0  0
  2  1  2  0  0  0  0
  3  2  1  0  0  0  0
  3  4  2  0  0  0  0
  4  5  1  0  0  0  0
  5  6  2  0  0  0  0
  5 18  1  0  0  0  0
  8  2  1  0  0  0  0
 10 11  1  0  0  0  0
 10  9  1  0  0  0  0
 11  3  1  0  0  0  0
 12 13  1  0  0  0  0
 12 11  2  0  0  0  0
 14 12  1  0  0  0  0
 15 14  1  0  0  0  0
 16 14  2  0  0  0  0
 16 17  1  0  0  0  0
 17 10  2  0  0  0  0
 18 21  1  0  0  0  0
 18 19  1  0  0  0  0
 20 18  1  0  0  0  0
M  END
>  <minimizedAffinity>
-4.57223654

>  <minimizedRMSD>
2.50362611

$$$$
