
 OpenBabel03272507123D

 40 44  0  0  0  0  0  0  0  0999 V2000
   35.7460   29.1440   49.9050 C   0  0  0  0  0  0  0  0  0  0  0  0
   34.6930   29.6410   50.6030 C   0  0  0  0  0  0  0  0  0  0  0  0
   33.5460   29.0480   50.0730 C   0  0  0  0  0  0  0  0  0  0  0  0
   33.9940   28.2000   49.0510 C   0  0  0  0  0  0  0  0  0  0  0  0
   35.2840   28.3110   49.0150 O   0  0  0  0  0  0  0  0  0  0  0  0
   34.6980   30.3610   51.4210 H   0  0  0  0  0  0  0  0  0  0  0  0
   32.5580   29.2660   50.4460 H   0  0  0  0  0  0  0  0  0  0  0  0
   33.5150   26.4200   47.3880 C   0  0  0  0  0  0  0  0  0  0  0  0
   33.0670   27.4030   48.2620 C   0  0  0  0  0  0  0  0  0  0  0  0
   31.7250   27.6570   48.4200 C   0  0  0  0  0  0  0  0  0  0  0  0
   30.8340   26.9040   47.6810 C   0  0  0  0  0  0  0  0  0  0  0  0
   29.4870   26.9370   47.6430 N   0  0  0  0  0  0  0  0  0  0  0  0
   29.0890   26.0040   46.7740 N   0  0  0  0  0  0  0  0  0  0  0  0
   30.1670   25.3920   46.2700 C   0  0  0  0  0  0  0  0  0  0  0  0
   31.3200   25.9420   46.8290 C   0  0  0  0  0  0  0  0  0  0  0  0
   32.6540   25.6630   46.6480 C   0  0  0  0  0  0  0  0  0  0  0  0
   34.5840   26.2610   47.3020 H   0  0  0  0  0  0  0  0  0  0  0  0
   31.3070   28.4120   49.0860 H   0  0  0  0  0  0  0  0  0  0  0  0
   28.8330   27.5720   48.1900 H   0  0  0  0  0  0  0  0  0  0  0  0
   30.1140   24.5840   45.5300 H   0  0  0  0  0  0  0  0  0  0  0  0
   32.9590   24.8920   45.9590 H   0  0  0  0  0  0  0  0  0  0  0  0
   37.1160   29.5460   50.1900 C   0  0  0  0  0  0  0  0  0  0  0  0
   37.7350   28.9890   51.1240 O   0  0  0  0  0  0  0  0  0  0  0  0
   37.6860   30.5810   49.3610 C   0  0  0  0  0  0  0  0  0  0  0  0
   37.8350   31.8470   49.9300 C   0  0  0  0  0  0  0  0  0  0  0  0
   38.3770   32.8840   49.1790 C   0  0  0  0  0  0  0  0  0  0  0  0
   38.7340   32.5670   47.8960 N   0  0  0  0  0  0  0  0  0  0  0  0
   38.5910   31.3630   47.3610 C   0  0  0  0  0  0  0  0  0  0  0  0
   38.0630   30.3740   48.1050 N   0  0  0  0  0  0  0  0  0  0  0  0
   37.5370   32.0500   50.9490 H   0  0  0  0  0  0  0  0  0  0  0  0
   38.5140   33.8820   49.5710 H   0  0  0  0  0  0  0  0  0  0  0  0
   36.4530   30.5140   45.3530 Cl  0  0  0  0  0  0  0  0  0  0  0  0
   38.1420   30.7720   44.9820 C   0  0  0  0  0  0  0  0  0  0  0  0
   39.0130   31.1560   45.9800 C   0  0  0  0  0  0  0  0  0  0  0  0
   40.3430   31.3560   45.6730 C   0  0  0  0  0  0  0  0  0  0  0  0
   41.0610   31.6600   46.4390 H   0  0  0  0  0  0  0  0  0  0  0  0
   40.8090   31.1780   44.3880 C   0  0  0  0  0  0  0  0  0  0  0  0
   41.8500   31.3440   44.1940 H   0  0  0  0  0  0  0  0  0  0  0  0
   39.9540   30.7970   43.3880 C   0  0  0  0  0  3  0  0  0  0  0  0
   38.6050   30.5910   43.6890 C   0  0  0  0  0  3  0  0  0  0  0  0
  1 22  1  0  0  0  0
  1  2  2  0  0  0  0
  2  6  1  0  0  0  0
  3  7  1  0  0  0  0
  3  2  1  0  0  0  0
  4  3  2  0  0  0  0
  5  4  1  0  0  0  0
  5  1  1  0  0  0  0
  8  9  1  0  0  0  0
  9 10  2  0  0  0  0
  9  4  1  0  0  0  0
 10 18  1  0  0  0  0
 11 10  1  0  0  0  0
 12 11  1  0  0  0  0
 12 19  1  0  0  0  0
 13 12  1  0  0  0  0
 14 13  2  0  0  0  0
 14 15  1  0  0  0  0
 15 11  2  0  0  0  0
 16 15  1  0  0  0  0
 16  8  2  0  0  0  0
 17  8  1  0  0  0  0
 20 14  1  0  0  0  0
 21 16  1  0  0  0  0
 22 23  2  0  0  0  0
 24 25  1  0  0  0  0
 24 22  1  0  0  0  0
 25 30  1  0  0  0  0
 26 31  1  0  0  0  0
 26 25  2  0  0  0  0
 27 26  1  0  0  0  0
 28 27  2  0  0  0  0
 28 29  1  0  0  0  0
 29 24  2  0  0  0  0
 33 32  1  0  0  0  0
 33 34  1  0  0  0  0
 34 28  1  0  0  0  0
 35 34  2  0  0  0  0
 35 36  1  0  0  0  0
 37 35  1  0  0  0  0
 38 37  1  0  0  0  0
 39 40  1  0  0  0  0
 39 37  2  0  0  0  0
 40 33  2  0  0  0  0
M  END
>  <minimizedAffinity>
-7.32031155

>  <minimizedRMSD>
0.520486116

$$$$
