
 OpenBabel03272507153D

 40 44  0  0  0  0  0  0  0  0999 V2000
   37.2200   27.7740   32.4530 C   0  0  0  0  0  0  0  0  0  0  0  0
   36.5650   28.4040   31.4440 C   0  0  0  0  0  0  0  0  0  0  0  0
   35.6430   29.2650   32.0400 C   0  0  0  0  0  0  0  0  0  0  0  0
   35.8030   29.0940   33.4220 C   0  0  0  0  0  0  0  0  0  0  0  0
   36.7380   28.2120   33.5820 O   0  0  0  0  0  0  0  0  0  0  0  0
   36.7020   28.2890   30.3680 H   0  0  0  0  0  0  0  0  0  0  0  0
   34.9820   29.8930   31.4640 H   0  0  0  0  0  0  0  0  0  0  0  0
   33.6410   29.5900   34.5390 C   0  0  0  0  0  0  0  0  0  0  0  0
   34.9990   29.8390   34.3800 C   0  0  0  0  0  0  0  0  0  0  0  0
   35.6380   30.7990   35.1280 C   0  0  0  0  0  0  0  0  0  0  0  0
   34.8890   31.5090   36.0440 C   0  0  0  0  0  0  0  0  0  0  0  0
   35.2540   32.4860   36.8980 N   0  0  0  0  0  0  0  0  0  0  0  0
   34.1640   32.8470   37.5810 N   0  0  0  0  0  0  0  0  0  0  0  0
   33.1270   32.1110   37.1650 C   0  0  0  0  0  0  0  0  0  0  0  0
   33.5490   31.2300   36.1700 C   0  0  0  0  0  0  0  0  0  0  0  0
   32.8800   30.2780   35.4370 C   0  0  0  0  0  0  0  0  0  0  0  0
   33.1860   28.8210   33.9230 H   0  0  0  0  0  0  0  0  0  0  0  0
   36.6970   31.0440   35.0520 H   0  0  0  0  0  0  0  0  0  0  0  0
   36.2180   32.9120   37.0300 H   0  0  0  0  0  0  0  0  0  0  0  0
   32.1120   32.2120   37.5680 H   0  0  0  0  0  0  0  0  0  0  0  0
   31.8250   30.1170   35.5930 H   0  0  0  0  0  0  0  0  0  0  0  0
   38.2660   26.7930   32.1970 C   0  0  0  0  0  0  0  0  0  0  0  0
   39.2350   27.1090   31.4710 O   0  0  0  0  0  0  0  0  0  0  0  0
   38.1170   25.4950   32.8100 C   0  0  0  0  0  0  0  0  0  0  0  0
   37.6570   24.4550   32.0010 C   0  0  0  0  0  0  0  0  0  0  0  0
   37.4930   23.1830   32.5370 C   0  0  0  0  0  0  0  0  0  0  0  0
   37.8080   23.0490   33.8620 N   0  0  0  0  0  0  0  0  0  0  0  0
   38.2440   24.0400   34.6260 C   0  0  0  0  0  0  0  0  0  0  0  0
   38.3950   25.2650   34.0870 N   0  0  0  0  0  0  0  0  0  0  0  0
   37.4210   24.6090   30.9580 H   0  0  0  0  0  0  0  0  0  0  0  0
   37.1410   22.3430   31.9540 H   0  0  0  0  0  0  0  0  0  0  0  0
   40.7810   22.4520   35.2300 Cl  0  0  0  0  0  0  0  0  0  0  0  0
   39.6590   23.0590   36.4260 C   0  0  0  0  0  0  0  0  0  0  0  0
   38.5450   23.7650   36.0260 C   0  0  0  0  0  0  0  0  0  0  0  0
   37.6670   24.2380   36.9800 C   0  0  0  0  0  0  0  0  0  0  0  0
   36.7750   24.8010   36.6990 H   0  0  0  0  0  0  0  0  0  0  0  0
   37.8910   24.0130   38.3230 C   0  0  0  0  0  0  0  0  0  0  0  0
   37.1850   24.3980   39.0300 H   0  0  0  0  0  0  0  0  0  0  0  0
   38.9940   23.3130   38.7330 C   0  0  0  0  0  3  0  0  0  0  0  0
   39.8880   22.8300   37.7740 C   0  0  0  0  0  3  0  0  0  0  0  0
  1  5  1  0  0  0  0
  2  3  1  0  0  0  0
  2  1  2  0  0  0  0
  3  4  2  0  0  0  0
  4  5  1  0  0  0  0
  4  9  1  0  0  0  0
  6  2  1  0  0  0  0
  7  3  1  0  0  0  0
  8 16  1  0  0  0  0
  9  8  2  0  0  0  0
  9 10  1  0  0  0  0
 10 11  2  0  0  0  0
 11 15  1  0  0  0  0
 11 12  1  0  0  0  0
 12 19  1  0  0  0  0
 12 13  1  0  0  0  0
 14 20  1  0  0  0  0
 14 13  2  0  0  0  0
 15 14  1  0  0  0  0
 16 21  1  0  0  0  0
 16 15  2  0  0  0  0
 17  8  1  0  0  0  0
 18 10  1  0  0  0  0
 22  1  1  0  0  0  0
 22 24  1  0  0  0  0
 23 22  2  0  0  0  0
 24 29  1  0  0  0  0
 25 26  1  0  0  0  0
 25 24  2  0  0  0  0
 26 27  2  0  0  0  0
 27 28  1  0  0  0  0
 28 34  1  0  0  0  0
 29 28  2  0  0  0  0
 30 25  1  0  0  0  0
 31 26  1  0  0  0  0
 32 33  1  0  0  0  0
 33 40  1  0  0  0  0
 34 33  2  0  0  0  0
 34 35  1  0  0  0  0
 35 37  2  0  0  0  0
 36 35  1  0  0  0  0
 37 39  1  0  0  0  0
 37 38  1  0  0  0  0
 40 39  2  0  0  0  0
M  END
>  <minimizedAffinity>
-7.27346277

$$$$

 OpenBabel03272507153D

 40 44  0  0  0  0  0  0  0  0999 V2000
   37.8150   26.5260   33.8170 C   0  0  0  0  0  0  0  0  0  0  0  0
   38.2080   27.3400   34.8310 C   0  0  0  0  0  0  0  0  0  0  0  0
   39.2220   26.6670   35.5150 C   0  0  0  0  0  0  0  0  0  0  0  0
   39.3840   25.4460   34.8490 C   0  0  0  0  0  0  0  0  0  0  0  0
   38.5310   25.4370   33.8730 O   0  0  0  0  0  0  0  0  0  0  0  0
   37.8310   28.3280   35.0930 H   0  0  0  0  0  0  0  0  0  0  0  0
   39.7170   27.0900   36.3740 H   0  0  0  0  0  0  0  0  0  0  0  0
   41.6760   24.4900   34.8150 C   0  0  0  0  0  0  0  0  0  0  0  0
   40.3680   24.4660   35.2840 C   0  0  0  0  0  0  0  0  0  0  0  0
   39.9540   23.5130   36.1850 C   0  0  0  0  0  0  0  0  0  0  0  0
   40.8780   22.5810   36.6100 C   0  0  0  0  0  0  0  0  0  0  0  0
   40.7480   21.5570   37.4770 N   0  0  0  0  0  0  0  0  0  0  0  0
   41.9350   20.9500   37.5600 N   0  0  0  0  0  0  0  0  0  0  0  0
   42.8010   21.5790   36.7570 C   0  0  0  0  0  0  0  0  0  0  0  0
   42.1610   22.6420   36.1210 C   0  0  0  0  0  0  0  0  0  0  0  0
   42.6070   23.5800   35.2200 C   0  0  0  0  0  0  0  0  0  0  0  0
   41.9500   25.2630   34.1050 H   0  0  0  0  0  0  0  0  0  0  0  0
   38.9450   23.4370   36.5900 H   0  0  0  0  0  0  0  0  0  0  0  0
   39.8790   21.2610   38.0130 H   0  0  0  0  0  0  0  0  0  0  0  0
   43.8490   21.2770   36.6410 H   0  0  0  0  0  0  0  0  0  0  0  0
   43.6310   23.5640   34.8820 H   0  0  0  0  0  0  0  0  0  0  0  0
   36.7630   26.9080   32.8860 C   0  0  0  0  0  0  0  0  0  0  0  0
   36.2800   26.0430   32.1210 O   0  0  0  0  0  0  0  0  0  0  0  0
   36.3350   28.2860   32.9040 C   0  0  0  0  0  0  0  0  0  0  0  0
   36.5950   29.0520   31.7670 C   0  0  0  0  0  0  0  0  0  0  0  0
   36.2060   30.3860   31.7270 C   0  0  0  0  0  0  0  0  0  0  0  0
   35.5770   30.8570   32.8490 N   0  0  0  0  0  0  0  0  0  0  0  0
   35.3330   30.1260   33.9260 C   0  0  0  0  0  0  0  0  0  0  0  0
   35.7180   28.8360   33.9430 N   0  0  0  0  0  0  0  0  0  0  0  0
   37.0950   28.6350   30.9040 H   0  0  0  0  0  0  0  0  0  0  0  0
   36.3820   31.0230   30.8710 H   0  0  0  0  0  0  0  0  0  0  0  0
   32.3440   29.5880   34.2350 Cl  0  0  0  0  0  0  0  0  0  0  0  0
   33.3080   30.5820   35.3030 C   0  0  0  0  0  0  0  0  0  0  0  0
   34.6540   30.7490   35.0560 C   0  0  0  0  0  0  0  0  0  0  0  0
   35.4040   31.5360   35.9060 C   0  0  0  0  0  0  0  0  0  0  0  0
   36.4720   31.6890   35.7410 H   0  0  0  0  0  0  0  0  0  0  0  0
   34.8240   32.1550   36.9940 C   0  0  0  0  0  0  0  0  0  0  0  0
   35.4430   32.7570   37.6280 H   0  0  0  0  0  0  0  0  0  0  0  0
   33.4880   31.9980   37.2500 C   0  0  0  0  0  3  0  0  0  0  0  0
   32.7210   31.2030   36.3950 C   0  0  0  0  0  3  0  0  0  0  0  0
  1  5  1  0  0  0  0
  1  2  2  0  0  0  0
  2  6  1  0  0  0  0
  2  3  1  0  0  0  0
  3  7  1  0  0  0  0
  4  9  1  0  0  0  0
  4  3  2  0  0  0  0
  5  4  1  0  0  0  0
  8 16  2  0  0  0  0
  8  9  1  0  0  0  0
  9 10  2  0  0  0  0
 10 18  1  0  0  0  0
 10 11  1  0  0  0  0
 11 12  1  0  0  0  0
 12 13  1  0  0  0  0
 12 19  1  0  0  0  0
 14 13  2  0  0  0  0
 15 11  2  0  0  0  0
 15 14  1  0  0  0  0
 16 15  1  0  0  0  0
 17  8  1  0  0  0  0
 20 14  1  0  0  0  0
 21 16  1  0  0  0  0
 22 24  1  0  0  0  0
 22  1  1  0  0  0  0
 23 22  2  0  0  0  0
 24 29  1  0  0  0  0
 25 24  2  0  0  0  0
 26 25  1  0  0  0  0
 26 27  2  0  0  0  0
 27 28  1  0  0  0  0
 28 29  2  0  0  0  0
 28 34  1  0  0  0  0
 30 25  1  0  0  0  0
 31 26  1  0  0  0  0
 32 33  1  0  0  0  0
 33 40  1  0  0  0  0
 34 33  2  0  0  0  0
 34 35  1  0  0  0  0
 35 37  2  0  0  0  0
 36 35  1  0  0  0  0
 37 39  1  0  0  0  0
 37 38  1  0  0  0  0
 40 39  2  0  0  0  0
M  END
>  <minimizedAffinity>
-7.21309423

$$$$

 OpenBabel03272507153D

 40 44  0  0  0  0  0  0  0  0999 V2000
   35.7740   26.9140   31.3670 C   0  0  0  0  0  0  0  0  0  0  0  0
   36.7240   27.5120   30.6040 C   0  0  0  0  0  0  0  0  0  0  0  0
   36.8800   28.8080   31.1000 C   0  0  0  0  0  0  0  0  0  0  0  0
   35.9820   28.9150   32.1700 C   0  0  0  0  0  0  0  0  0  0  0  0
   35.3760   27.7730   32.2630 O   0  0  0  0  0  0  0  0  0  0  0  0
   37.2790   27.0990   29.7610 H   0  0  0  0  0  0  0  0  0  0  0  0
   37.5780   29.5100   30.6730 H   0  0  0  0  0  0  0  0  0  0  0  0
   35.9480   31.3920   32.3430 C   0  0  0  0  0  0  0  0  0  0  0  0
   35.8610   30.1420   32.9430 C   0  0  0  0  0  0  0  0  0  0  0  0
   35.6520   30.0150   34.2960 C   0  0  0  0  0  0  0  0  0  0  0  0
   35.5300   31.1710   35.0420 C   0  0  0  0  0  0  0  0  0  0  0  0
   35.3190   31.3380   36.3620 N   0  0  0  0  0  0  0  0  0  0  0  0
   35.2720   32.6520   36.5960 N   0  0  0  0  0  0  0  0  0  0  0  0
   35.4500   33.3050   35.4420 C   0  0  0  0  0  0  0  0  0  0  0  0
   35.6220   32.3870   34.4070 C   0  0  0  0  0  0  0  0  0  0  0  0
   35.8310   32.5470   33.0580 C   0  0  0  0  0  0  0  0  0  0  0  0
   36.1140   31.4340   31.2720 H   0  0  0  0  0  0  0  0  0  0  0  0
   35.5750   29.0680   34.8290 H   0  0  0  0  0  0  0  0  0  0  0  0
   35.2060   30.5870   37.1060 H   0  0  0  0  0  0  0  0  0  0  0  0
   35.4550   34.3990   35.3590 H   0  0  0  0  0  0  0  0  0  0  0  0
   35.8920   33.5360   32.6320 H   0  0  0  0  0  0  0  0  0  0  0  0
   35.3520   25.5400   31.1330 C   0  0  0  0  0  0  0  0  0  0  0  0
   34.3630   25.3220   30.3970 O   0  0  0  0  0  0  0  0  0  0  0  0
   36.1140   24.4970   31.7760 C   0  0  0  0  0  0  0  0  0  0  0  0
   37.1790   24.8910   32.5880 C   0  0  0  0  0  0  0  0  0  0  0  0
   37.9490   23.9300   33.2330 C   0  0  0  0  0  0  0  0  0  0  0  0
   37.5870   22.6290   33.0110 N   0  0  0  0  0  0  0  0  0  0  0  0
   36.5750   22.2600   32.2400 C   0  0  0  0  0  0  0  0  0  0  0  0
   35.8420   23.2070   31.6240 N   0  0  0  0  0  0  0  0  0  0  0  0
   37.4280   25.9330   32.7330 H   0  0  0  0  0  0  0  0  0  0  0  0
   38.7850   24.1810   33.8720 H   0  0  0  0  0  0  0  0  0  0  0  0
   35.5180   20.7680   34.6850 Cl  0  0  0  0  0  0  0  0  0  0  0  0
   35.8130   20.0560   33.1160 C   0  0  0  0  0  0  0  0  0  0  0  0
   36.2930   20.8380   32.0870 C   0  0  0  0  0  0  0  0  0  0  0  0
   36.5220   20.2630   30.8530 C   0  0  0  0  0  0  0  0  0  0  0  0
   36.9010   20.8520   30.0150 H   0  0  0  0  0  0  0  0  0  0  0  0
   36.2760   18.9220   30.6390 C   0  0  0  0  0  0  0  0  0  0  0  0
   36.4680   18.5170   29.6660 H   0  0  0  0  0  0  0  0  0  0  0  0
   35.8000   18.1350   31.6530 C   0  0  0  0  0  3  0  0  0  0  0  0
   35.5650   18.7090   32.9060 C   0  0  0  0  0  3  0  0  0  0  0  0
  1  5  1  0  0  0  0
  2  3  1  0  0  0  0
  2  1  2  0  0  0  0
  3  4  2  0  0  0  0
  4  5  1  0  0  0  0
  4  9  1  0  0  0  0
  6  2  1  0  0  0  0
  7  3  1  0  0  0  0
  8  9  2  0  0  0  0
  8 16  1  0  0  0  0
  9 10  1  0  0  0  0
 10 18  1  0  0  0  0
 10 11  2  0  0  0  0
 11 12  1  0  0  0  0
 12 13  1  0  0  0  0
 12 19  1  0  0  0  0
 14 13  2  0  0  0  0
 15 11  1  0  0  0  0
 15 14  1  0  0  0  0
 16 15  2  0  0  0  0
 17  8  1  0  0  0  0
 20 14  1  0  0  0  0
 21 16  1  0  0  0  0
 22  1  1  0  0  0  0
 22 24  1  0  0  0  0
 23 22  2  0  0  0  0
 24 25  1  0  0  0  0
 25 30  1  0  0  0  0
 25 26  2  0  0  0  0
 26 31  1  0  0  0  0
 27 26  1  0  0  0  0
 28 27  2  0  0  0  0
 29 24  2  0  0  0  0
 29 28  1  0  0  0  0
 33 32  1  0  0  0  0
 34 28  1  0  0  0  0
 34 33  2  0  0  0  0
 35 34  1  0  0  0  0
 36 35  1  0  0  0  0
 37 35  2  0  0  0  0
 37 39  1  0  0  0  0
 38 37  1  0  0  0  0
 39 40  2  0  0  0  0
 40 33  1  0  0  0  0
M  END
>  <minimizedAffinity>
-6.98175335

$$$$

 OpenBabel03272507153D

 40 44  0  0  0  0  0  0  0  0999 V2000
   36.9900   27.3730   32.8870 C   0  0  0  0  0  0  0  0  0  0  0  0
   36.5580   28.1370   31.8510 C   0  0  0  0  0  0  0  0  0  0  0  0
   35.8460   29.2020   32.4070 C   0  0  0  0  0  0  0  0  0  0  0  0
   35.8930   29.0070   33.7940 C   0  0  0  0  0  0  0  0  0  0  0  0
   36.5760   27.9230   33.9940 O   0  0  0  0  0  0  0  0  0  0  0  0
   36.7140   27.9850   30.7830 H   0  0  0  0  0  0  0  0  0  0  0  0
   35.3870   29.9680   31.8030 H   0  0  0  0  0  0  0  0  0  0  0  0
   35.9850   30.8570   35.4470 C   0  0  0  0  0  0  0  0  0  0  0  0
   35.2510   29.9320   34.7150 C   0  0  0  0  0  0  0  0  0  0  0  0
   33.8830   29.8580   34.8300 C   0  0  0  0  0  0  0  0  0  0  0  0
   33.2600   30.7340   35.6970 C   0  0  0  0  0  0  0  0  0  0  0  0
   31.9540   30.8830   35.9960 N   0  0  0  0  0  0  0  0  0  0  0  0
   31.8580   31.8710   36.8880 N   0  0  0  0  0  0  0  0  0  0  0  0
   33.0840   32.3400   37.1490 C   0  0  0  0  0  0  0  0  0  0  0  0
   34.0240   31.6330   36.4010 C   0  0  0  0  0  0  0  0  0  0  0  0
   35.3920   31.7320   36.3090 C   0  0  0  0  0  0  0  0  0  0  0  0
   37.0620   30.8720   35.3180 H   0  0  0  0  0  0  0  0  0  0  0  0
   33.2490   29.1570   34.2880 H   0  0  0  0  0  0  0  0  0  0  0  0
   31.1290   30.3340   35.6110 H   0  0  0  0  0  0  0  0  0  0  0  0
   33.2830   33.1580   37.8530 H   0  0  0  0  0  0  0  0  0  0  0  0
   35.9230   32.4640   36.8950 H   0  0  0  0  0  0  0  0  0  0  0  0
   37.7750   26.1660   32.6770 C   0  0  0  0  0  0  0  0  0  0  0  0
   37.3660   25.3030   31.8690 O   0  0  0  0  0  0  0  0  0  0  0  0
   39.0000   26.0370   33.4290 C   0  0  0  0  0  0  0  0  0  0  0  0
   39.9160   27.0860   33.3440 C   0  0  0  0  0  0  0  0  0  0  0  0
   41.1140   27.0180   34.0470 C   0  0  0  0  0  0  0  0  0  0  0  0
   41.3040   25.8860   34.7920 N   0  0  0  0  0  0  0  0  0  0  0  0
   40.4310   24.8920   34.8690 C   0  0  0  0  0  0  0  0  0  0  0  0
   39.2770   24.9780   34.1810 N   0  0  0  0  0  0  0  0  0  0  0  0
   39.7220   27.9620   32.7410 H   0  0  0  0  0  0  0  0  0  0  0  0
   41.8570   27.8030   34.0150 H   0  0  0  0  0  0  0  0  0  0  0  0
   38.4960   24.2040   37.1280 Cl  0  0  0  0  0  0  0  0  0  0  0  0
   39.9610   23.3280   36.7500 C   0  0  0  0  0  0  0  0  0  0  0  0
   40.7550   23.7390   35.7010 C   0  0  0  0  0  0  0  0  0  0  0  0
   41.9090   23.0390   35.4130 C   0  0  0  0  0  0  0  0  0  0  0  0
   42.5610   23.3360   34.5900 H   0  0  0  0  0  0  0  0  0  0  0  0
   42.2750   21.9380   36.1600 C   0  0  0  0  0  0  0  0  0  0  0  0
   43.1790   21.4240   35.9030 H   0  0  0  0  0  0  0  0  0  0  0  0
   41.4950   21.5200   37.2060 C   0  0  0  0  0  3  0  0  0  0  0  0
   40.3250   22.2230   37.5040 C   0  0  0  0  0  3  0  0  0  0  0  0
  1  5  1  0  0  0  0
  2  3  1  0  0  0  0
  2  1  2  0  0  0  0
  3  4  2  0  0  0  0
  4  5  1  0  0  0  0
  4  9  1  0  0  0  0
  6  2  1  0  0  0  0
  7  3  1  0  0  0  0
  8 16  1  0  0  0  0
  9 10  1  0  0  0  0
  9  8  2  0  0  0  0
 10 11  2  0  0  0  0
 11 12  1  0  0  0  0
 11 15  1  0  0  0  0
 12 13  1  0  0  0  0
 13 14  2  0  0  0  0
 14 20  1  0  0  0  0
 15 14  1  0  0  0  0
 16 15  2  0  0  0  0
 16 21  1  0  0  0  0
 17  8  1  0  0  0  0
 18 10  1  0  0  0  0
 19 12  1  0  0  0  0
 22  1  1  0  0  0  0
 22 24  1  0  0  0  0
 23 22  2  0  0  0  0
 24 29  1  0  0  0  0
 25 24  2  0  0  0  0
 25 26  1  0  0  0  0
 26 27  2  0  0  0  0
 27 28  1  0  0  0  0
 28 34  1  0  0  0  0
 29 28  2  0  0  0  0
 30 25  1  0  0  0  0
 31 26  1  0  0  0  0
 33 32  1  0  0  0  0
 33 40  1  0  0  0  0
 34 33  2  0  0  0  0
 35 34  1  0  0  0  0
 35 37  2  0  0  0  0
 36 35  1  0  0  0  0
 37 39  1  0  0  0  0
 38 37  1  0  0  0  0
 39 40  2  0  0  0  0
M  END
>  <minimizedAffinity>
-6.92930841

$$$$

 OpenBabel03272507153D

 40 44  0  0  0  0  0  0  0  0999 V2000
   37.1490   26.8920   32.7370 C   0  0  0  0  0  0  0  0  0  0  0  0
   38.4040   27.3930   32.6050 C   0  0  0  0  0  0  0  0  0  0  0  0
   39.2140   26.6810   33.4920 C   0  0  0  0  0  0  0  0  0  0  0  0
   38.3670   25.7630   34.1260 C   0  0  0  0  0  0  0  0  0  0  0  0
   37.1830   25.9470   33.6340 O   0  0  0  0  0  0  0  0  0  0  0  0
   38.7530   28.1910   31.9500 H   0  0  0  0  0  0  0  0  0  0  0  0
   40.2700   26.8770   33.5940 H   0  0  0  0  0  0  0  0  0  0  0  0
   38.1470   24.5610   36.2880 C   0  0  0  0  0  0  0  0  0  0  0  0
   38.8660   24.8350   35.1310 C   0  0  0  0  0  0  0  0  0  0  0  0
   40.0780   24.2340   34.8870 C   0  0  0  0  0  0  0  0  0  0  0  0
   40.5600   23.3470   35.8290 C   0  0  0  0  0  0  0  0  0  0  0  0
   41.6970   22.6240   35.8430 N   0  0  0  0  0  0  0  0  0  0  0  0
   41.7030   21.9110   36.9720 N   0  0  0  0  0  0  0  0  0  0  0  0
   40.5880   22.1790   37.6600 C   0  0  0  0  0  0  0  0  0  0  0  0
   39.8160   23.1040   36.9590 C   0  0  0  0  0  0  0  0  0  0  0  0
   38.6030   23.6890   37.2320 C   0  0  0  0  0  0  0  0  0  0  0  0
   37.1960   25.0630   36.4310 H   0  0  0  0  0  0  0  0  0  0  0  0
   40.6910   24.4050   34.0020 H   0  0  0  0  0  0  0  0  0  0  0  0
   42.4660   22.6010   35.1100 H   0  0  0  0  0  0  0  0  0  0  0  0
   40.3480   21.7220   38.6290 H   0  0  0  0  0  0  0  0  0  0  0  0
   38.0780   23.4480   38.1430 H   0  0  0  0  0  0  0  0  0  0  0  0
   36.0310   27.4030   31.9550 C   0  0  0  0  0  0  0  0  0  0  0  0
   35.5220   26.6780   31.0710 O   0  0  0  0  0  0  0  0  0  0  0  0
   35.5720   28.7370   32.2560 C   0  0  0  0  0  0  0  0  0  0  0  0
   35.6940   29.6970   31.2500 C   0  0  0  0  0  0  0  0  0  0  0  0
   35.2680   31.0000   31.4820 C   0  0  0  0  0  0  0  0  0  0  0  0
   34.7450   31.2440   32.7240 N   0  0  0  0  0  0  0  0  0  0  0  0
   34.6310   30.3290   33.6740 C   0  0  0  0  0  0  0  0  0  0  0  0
   35.0490   29.0730   33.4290 N   0  0  0  0  0  0  0  0  0  0  0  0
   36.1150   29.4570   30.2840 H   0  0  0  0  0  0  0  0  0  0  0  0
   35.3400   31.7820   30.7380 H   0  0  0  0  0  0  0  0  0  0  0  0
   36.3460   32.0550   35.5180 Cl  0  0  0  0  0  0  0  0  0  0  0  0
   34.7280   31.4960   35.8740 C   0  0  0  0  0  0  0  0  0  0  0  0
   34.0540   30.7190   34.9560 C   0  0  0  0  0  0  0  0  0  0  0  0
   32.7770   30.2830   35.2490 C   0  0  0  0  0  0  0  0  0  0  0  0
   32.2140   29.6660   34.5450 H   0  0  0  0  0  0  0  0  0  0  0  0
   32.1720   30.6150   36.4430 C   0  0  0  0  0  0  0  0  0  0  0  0
   31.1800   30.2560   36.6300 H   0  0  0  0  0  0  0  0  0  0  0  0
   32.8310   31.3860   37.3630 C   0  0  0  0  0  3  0  0  0  0  0  0
   34.1240   31.8310   37.0750 C   0  0  0  0  0  3  0  0  0  0  0  0
  1  5  1  0  0  0  0
  2  1  2  0  0  0  0
  2  3  1  0  0  0  0
  3  7  1  0  0  0  0
  3  4  2  0  0  0  0
  4  9  1  0  0  0  0
  5  4  1  0  0  0  0
  6  2  1  0  0  0  0
  8 17  1  0  0  0  0
  8 16  1  0  0  0  0
  9  8  2  0  0  0  0
 10  9  1  0  0  0  0
 10 11  2  0  0  0  0
 11 12  1  0  0  0  0
 11 15  1  0  0  0  0
 12 13  1  0  0  0  0
 13 14  2  0  0  0  0
 14 20  1  0  0  0  0
 15 16  2  0  0  0  0
 15 14  1  0  0  0  0
 16 21  1  0  0  0  0
 18 10  1  0  0  0  0
 19 12  1  0  0  0  0
 22 24  1  0  0  0  0
 22  1  1  0  0  0  0
 23 22  2  0  0  0  0
 24 29  1  0  0  0  0
 25 26  1  0  0  0  0
 25 24  2  0  0  0  0
 26 27  2  0  0  0  0
 27 28  1  0  0  0  0
 28 34  1  0  0  0  0
 29 28  2  0  0  0  0
 30 25  1  0  0  0  0
 31 26  1  0  0  0  0
 32 33  1  0  0  0  0
 33 40  1  0  0  0  0
 34 35  1  0  0  0  0
 34 33  2  0  0  0  0
 35 37  2  0  0  0  0
 36 35  1  0  0  0  0
 37 38  1  0  0  0  0
 37 39  1  0  0  0  0
 40 39  2  0  0  0  0
M  END
>  <minimizedAffinity>
-6.91125345

$$$$

 OpenBabel03272507153D

 40 44  0  0  0  0  0  0  0  0999 V2000
   36.8150   27.9130   32.8420 C   0  0  0  0  0  0  0  0  0  0  0  0
   36.7100   28.8960   31.9110 C   0  0  0  0  0  0  0  0  0  0  0  0
   36.0700   29.9700   32.5320 C   0  0  0  0  0  0  0  0  0  0  0  0
   35.8180   29.5530   33.8460 C   0  0  0  0  0  0  0  0  0  0  0  0
   36.2810   28.3470   33.9490 O   0  0  0  0  0  0  0  0  0  0  0  0
   37.0460   28.8890   30.8740 H   0  0  0  0  0  0  0  0  0  0  0  0
   35.8560   30.8910   32.0160 H   0  0  0  0  0  0  0  0  0  0  0  0
   35.8740   31.2290   35.6780 C   0  0  0  0  0  0  0  0  0  0  0  0
   35.1540   30.4210   34.8060 C   0  0  0  0  0  0  0  0  0  0  0  0
   33.7780   30.4160   34.8150 C   0  0  0  0  0  0  0  0  0  0  0  0
   33.1350   31.2390   35.7170 C   0  0  0  0  0  0  0  0  0  0  0  0
   31.8190   31.4330   35.9340 N   0  0  0  0  0  0  0  0  0  0  0  0
   31.7040   32.3360   36.9110 N   0  0  0  0  0  0  0  0  0  0  0  0
   32.9280   32.7070   37.3050 C   0  0  0  0  0  0  0  0  0  0  0  0
   33.8870   32.0210   36.5600 C   0  0  0  0  0  0  0  0  0  0  0  0
   35.2610   32.0500   36.5770 C   0  0  0  0  0  0  0  0  0  0  0  0
   36.9570   31.1950   35.6290 H   0  0  0  0  0  0  0  0  0  0  0  0
   33.1540   29.8070   34.1610 H   0  0  0  0  0  0  0  0  0  0  0  0
   31.0000   30.9720   35.4390 H   0  0  0  0  0  0  0  0  0  0  0  0
   33.1120   33.4410   38.0990 H   0  0  0  0  0  0  0  0  0  0  0  0
   35.7810   32.6920   37.2700 H   0  0  0  0  0  0  0  0  0  0  0  0
   37.4390   26.6320   32.5420 C   0  0  0  0  0  0  0  0  0  0  0  0
   38.6580   26.4760   32.7760 O   0  0  0  0  0  0  0  0  0  0  0  0
   36.5960   25.6030   31.9820 C   0  0  0  0  0  0  0  0  0  0  0  0
   35.5280   26.0150   31.1840 C   0  0  0  0  0  0  0  0  0  0  0  0
   34.6820   25.0690   30.6180 C   0  0  0  0  0  0  0  0  0  0  0  0
   34.9750   23.7620   30.9000 N   0  0  0  0  0  0  0  0  0  0  0  0
   35.9900   23.3760   31.6590 C   0  0  0  0  0  0  0  0  0  0  0  0
   36.7980   24.3090   32.1980 N   0  0  0  0  0  0  0  0  0  0  0  0
   35.3350   27.0610   30.9880 H   0  0  0  0  0  0  0  0  0  0  0  0
   33.8410   25.3340   29.9910 H   0  0  0  0  0  0  0  0  0  0  0  0
   38.3850   22.0700   30.2880 Cl  0  0  0  0  0  0  0  0  0  0  0  0
   37.2390   21.2470   31.3200 C   0  0  0  0  0  0  0  0  0  0  0  0
   36.1950   21.9490   31.8820 C   0  0  0  0  0  0  0  0  0  0  0  0
   35.2960   21.2880   32.6950 C   0  0  0  0  0  0  0  0  0  0  0  0
   34.4580   21.8130   33.1570 H   0  0  0  0  0  0  0  0  0  0  0  0
   35.4310   19.9380   32.9480 C   0  0  0  0  0  0  0  0  0  0  0  0
   34.7110   19.4640   33.5840 H   0  0  0  0  0  0  0  0  0  0  0  0
   36.4630   19.2290   32.3940 C   0  0  0  0  0  3  0  0  0  0  0  0
   37.3770   19.8910   31.5710 C   0  0  0  0  0  3  0  0  0  0  0  0
  1  5  1  0  0  0  0
  2  3  1  0  0  0  0
  2  1  2  0  0  0  0
  3  4  2  0  0  0  0
  4  5  1  0  0  0  0
  4  9  1  0  0  0  0
  6  2  1  0  0  0  0
  7  3  1  0  0  0  0
  8 16  1  0  0  0  0
  9 10  1  0  0  0  0
  9  8  2  0  0  0  0
 10 11  2  0  0  0  0
 11 12  1  0  0  0  0
 11 15  1  0  0  0  0
 12 13  1  0  0  0  0
 13 14  2  0  0  0  0
 14 20  1  0  0  0  0
 15 16  2  0  0  0  0
 15 14  1  0  0  0  0
 16 21  1  0  0  0  0
 17  8  1  0  0  0  0
 18 10  1  0  0  0  0
 19 12  1  0  0  0  0
 22 23  2  0  0  0  0
 22  1  1  0  0  0  0
 24 29  1  0  0  0  0
 24 22  1  0  0  0  0
 25 24  2  0  0  0  0
 26 27  2  0  0  0  0
 26 25  1  0  0  0  0
 27 28  1  0  0  0  0
 28 34  1  0  0  0  0
 28 29  2  0  0  0  0
 30 25  1  0  0  0  0
 31 26  1  0  0  0  0
 32 33  1  0  0  0  0
 33 40  2  0  0  0  0
 33 34  1  0  0  0  0
 34 35  2  0  0  0  0
 35 37  1  0  0  0  0
 35 36  1  0  0  0  0
 37 38  1  0  0  0  0
 39 37  2  0  0  0  0
 40 39  1  0  0  0  0
M  END
>  <minimizedAffinity>
-6.83231401

$$$$

 OpenBabel03272507153D

 40 44  0  0  0  0  0  0  0  0999 V2000
   37.2880   27.7480   32.5060 C   0  0  0  0  0  0  0  0  0  0  0  0
   36.5410   28.3210   31.5280 C   0  0  0  0  0  0  0  0  0  0  0  0
   35.6590   29.2000   32.1590 C   0  0  0  0  0  0  0  0  0  0  0  0
   35.9380   29.0990   33.5280 C   0  0  0  0  0  0  0  0  0  0  0  0
   36.8960   28.2350   33.6510 O   0  0  0  0  0  0  0  0  0  0  0  0
   36.5880   28.1550   30.4510 H   0  0  0  0  0  0  0  0  0  0  0  0
   34.9430   29.7920   31.6120 H   0  0  0  0  0  0  0  0  0  0  0  0
   35.8410   30.8280   35.3070 C   0  0  0  0  0  0  0  0  0  0  0  0
   35.2060   29.8810   34.5140 C   0  0  0  0  0  0  0  0  0  0  0  0
   33.8560   29.6490   34.6260 C   0  0  0  0  0  0  0  0  0  0  0  0
   33.1490   30.3880   35.5540 C   0  0  0  0  0  0  0  0  0  0  0  0
   31.8370   30.3700   35.8650 N   0  0  0  0  0  0  0  0  0  0  0  0
   31.6420   31.2780   36.8250 N   0  0  0  0  0  0  0  0  0  0  0  0
   32.8110   31.8600   37.1160 C   0  0  0  0  0  0  0  0  0  0  0  0
   33.8160   31.3150   36.3170 C   0  0  0  0  0  0  0  0  0  0  0  0
   35.1640   31.5700   36.2300 C   0  0  0  0  0  0  0  0  0  0  0  0
   36.9080   30.9720   35.1780 H   0  0  0  0  0  0  0  0  0  0  0  0
   33.2970   28.9220   34.0370 H   0  0  0  0  0  0  0  0  0  0  0  0
   31.0740   29.7610   35.4450 H   0  0  0  0  0  0  0  0  0  0  0  0
   32.9260   32.6430   37.8750 H   0  0  0  0  0  0  0  0  0  0  0  0
   35.6170   32.3150   36.8650 H   0  0  0  0  0  0  0  0  0  0  0  0
   38.3230   26.7680   32.2110 C   0  0  0  0  0  0  0  0  0  0  0  0
   39.3130   27.1120   31.5280 O   0  0  0  0  0  0  0  0  0  0  0  0
   38.1380   25.4350   32.7340 C   0  0  0  0  0  0  0  0  0  0  0  0
   37.2110   24.6170   32.0870 C   0  0  0  0  0  0  0  0  0  0  0  0
   36.9900   23.3240   32.5470 C   0  0  0  0  0  0  0  0  0  0  0  0
   37.7280   22.9450   33.6360 N   0  0  0  0  0  0  0  0  0  0  0  0
   38.6070   23.7250   34.2450 C   0  0  0  0  0  0  0  0  0  0  0  0
   38.8050   24.9740   33.7850 N   0  0  0  0  0  0  0  0  0  0  0  0
   36.6500   24.9620   31.2290 H   0  0  0  0  0  0  0  0  0  0  0  0
   36.2830   22.6490   32.0830 H   0  0  0  0  0  0  0  0  0  0  0  0
   37.5020   24.3800   37.0150 Cl  0  0  0  0  0  0  0  0  0  0  0  0
   38.9320   23.4250   36.6970 C   0  0  0  0  0  0  0  0  0  0  0  0
   39.3300   23.1990   35.3980 C   0  0  0  0  0  0  0  0  0  0  0  0
   40.4610   22.4430   35.1610 C   0  0  0  0  0  0  0  0  0  0  0  0
   40.8060   22.2440   34.1440 H   0  0  0  0  0  0  0  0  0  0  0  0
   41.1920   21.9150   36.2040 C   0  0  0  0  0  0  0  0  0  0  0  0
   42.0630   21.3360   35.9760 H   0  0  0  0  0  0  0  0  0  0  0  0
   40.8070   22.1340   37.5000 C   0  0  0  0  0  3  0  0  0  0  0  0
   39.6630   22.8970   37.7500 C   0  0  0  0  0  3  0  0  0  0  0  0
  1  5  1  0  0  0  0
  2  3  1  0  0  0  0
  2  1  2  0  0  0  0
  3  4  2  0  0  0  0
  4  5  1  0  0  0  0
  4  9  1  0  0  0  0
  6  2  1  0  0  0  0
  7  3  1  0  0  0  0
  8 16  1  0  0  0  0
  9 10  1  0  0  0  0
  9  8  2  0  0  0  0
 10 11  2  0  0  0  0
 11 12  1  0  0  0  0
 11 15  1  0  0  0  0
 12 13  1  0  0  0  0
 13 14  2  0  0  0  0
 14 20  1  0  0  0  0
 15 14  1  0  0  0  0
 16 15  2  0  0  0  0
 16 21  1  0  0  0  0
 17  8  1  0  0  0  0
 18 10  1  0  0  0  0
 19 12  1  0  0  0  0
 22  1  1  0  0  0  0
 22 24  1  0  0  0  0
 23 22  2  0  0  0  0
 24 29  1  0  0  0  0
 25 26  1  0  0  0  0
 25 24  2  0  0  0  0
 26 27  2  0  0  0  0
 27 28  1  0  0  0  0
 28 34  1  0  0  0  0
 29 28  2  0  0  0  0
 30 25  1  0  0  0  0
 31 26  1  0  0  0  0
 33 32  1  0  0  0  0
 33 40  1  0  0  0  0
 34 33  2  0  0  0  0
 35 34  1  0  0  0  0
 35 37  2  0  0  0  0
 36 35  1  0  0  0  0
 37 39  1  0  0  0  0
 38 37  1  0  0  0  0
 39 40  2  0  0  0  0
M  END
>  <minimizedAffinity>
-6.80259943

$$$$

 OpenBabel03272507153D

 40 44  0  0  0  0  0  0  0  0999 V2000
   37.2890   27.6190   33.2110 C   0  0  0  0  0  0  0  0  0  0  0  0
   36.6270   28.0100   32.0920 C   0  0  0  0  0  0  0  0  0  0  0  0
   35.6400   28.9080   32.5020 C   0  0  0  0  0  0  0  0  0  0  0  0
   35.7720   29.0060   33.8940 C   0  0  0  0  0  0  0  0  0  0  0  0
   36.7520   28.2280   34.2310 O   0  0  0  0  0  0  0  0  0  0  0  0
   36.7990   27.7070   31.0590 H   0  0  0  0  0  0  0  0  0  0  0  0
   34.9610   29.3770   31.8090 H   0  0  0  0  0  0  0  0  0  0  0  0
   33.5170   29.7720   34.5970 C   0  0  0  0  0  0  0  0  0  0  0  0
   34.9010   29.8650   34.6830 C   0  0  0  0  0  0  0  0  0  0  0  0
   35.5030   30.7710   35.5240 C   0  0  0  0  0  0  0  0  0  0  0  0
   34.6880   31.5870   36.2820 C   0  0  0  0  0  0  0  0  0  0  0  0
   35.0050   32.5440   37.1780 N   0  0  0  0  0  0  0  0  0  0  0  0
   33.8600   33.0440   37.6490 N   0  0  0  0  0  0  0  0  0  0  0  0
   32.8360   32.4150   37.0610 C   0  0  0  0  0  0  0  0  0  0  0  0
   33.3250   31.4620   36.1670 C   0  0  0  0  0  0  0  0  0  0  0  0
   32.6920   30.5680   35.3360 C   0  0  0  0  0  0  0  0  0  0  0  0
   33.0950   29.0400   33.9180 H   0  0  0  0  0  0  0  0  0  0  0  0
   36.5800   30.8950   35.6380 H   0  0  0  0  0  0  0  0  0  0  0  0
   35.9730   32.8640   37.4770 H   0  0  0  0  0  0  0  0  0  0  0  0
   31.7840   32.6400   37.2720 H   0  0  0  0  0  0  0  0  0  0  0  0
   31.6160   30.5300   35.3000 H   0  0  0  0  0  0  0  0  0  0  0  0
   38.3960   26.6740   33.1600 C   0  0  0  0  0  0  0  0  0  0  0  0
   39.4300   26.9090   33.8230 O   0  0  0  0  0  0  0  0  0  0  0  0
   38.2260   25.5040   32.3320 C   0  0  0  0  0  0  0  0  0  0  0  0
   38.8620   25.5020   31.0900 C   0  0  0  0  0  0  0  0  0  0  0  0
   38.7340   24.4020   30.2490 C   0  0  0  0  0  0  0  0  0  0  0  0
   37.9670   23.3730   30.7260 N   0  0  0  0  0  0  0  0  0  0  0  0
   37.3660   23.3800   31.9070 C   0  0  0  0  0  0  0  0  0  0  0  0
   37.5020   24.4560   32.7050 N   0  0  0  0  0  0  0  0  0  0  0  0
   39.4580   26.3390   30.7560 H   0  0  0  0  0  0  0  0  0  0  0  0
   39.2060   24.3490   29.2780 H   0  0  0  0  0  0  0  0  0  0  0  0
   38.0230   22.0740   34.5870 Cl  0  0  0  0  0  0  0  0  0  0  0  0
   36.7770   21.5420   33.4820 C   0  0  0  0  0  0  0  0  0  0  0  0
   36.5760   22.2180   32.2980 C   0  0  0  0  0  0  0  0  0  0  0  0
   35.5890   21.7880   31.4340 C   0  0  0  0  0  0  0  0  0  0  0  0
   35.4030   22.3000   30.4870 H   0  0  0  0  0  0  0  0  0  0  0  0
   34.8060   20.6950   31.7410 C   0  0  0  0  0  0  0  0  0  0  0  0
   34.0510   20.3950   31.0420 H   0  0  0  0  0  0  0  0  0  0  0  0
   34.9950   20.0150   32.9140 C   0  0  0  0  0  3  0  0  0  0  0  0
   35.9920   20.4430   33.7950 C   0  0  0  0  0  3  0  0  0  0  0  0
  1  5  1  0  0  0  0
  2  3  1  0  0  0  0
  2  1  2  0  0  0  0
  3  4  2  0  0  0  0
  4  5  1  0  0  0  0
  4  9  1  0  0  0  0
  6  2  1  0  0  0  0
  7  3  1  0  0  0  0
  8  9  2  0  0  0  0
  8 16  1  0  0  0  0
  9 10  1  0  0  0  0
 10 18  1  0  0  0  0
 10 11  2  0  0  0  0
 11 12  1  0  0  0  0
 12 19  1  0  0  0  0
 12 13  1  0  0  0  0
 14 20  1  0  0  0  0
 14 13  2  0  0  0  0
 15 11  1  0  0  0  0
 15 14  1  0  0  0  0
 16 15  2  0  0  0  0
 17  8  1  0  0  0  0
 21 16  1  0  0  0  0
 22  1  1  0  0  0  0
 22 23  2  0  0  0  0
 24 29  1  0  0  0  0
 24 22  1  0  0  0  0
 25 24  2  0  0  0  0
 26 27  2  0  0  0  0
 26 25  1  0  0  0  0
 27 28  1  0  0  0  0
 28 34  1  0  0  0  0
 28 29  2  0  0  0  0
 30 25  1  0  0  0  0
 31 26  1  0  0  0  0
 33 40  1  0  0  0  0
 33 32  1  0  0  0  0
 34 33  2  0  0  0  0
 35 37  2  0  0  0  0
 35 34  1  0  0  0  0
 36 35  1  0  0  0  0
 37 39  1  0  0  0  0
 38 37  1  0  0  0  0
 39 40  2  0  0  0  0
M  END
>  <minimizedAffinity>
-6.71082926

$$$$

 OpenBabel03272507153D

 40 44  0  0  0  0  0  0  0  0999 V2000
   37.6590   27.5570   32.0110 C   0  0  0  0  0  0  0  0  0  0  0  0
   37.5000   28.4610   31.0100 C   0  0  0  0  0  0  0  0  0  0  0  0
   36.3770   29.2240   31.3340 C   0  0  0  0  0  0  0  0  0  0  0  0
   35.9110   28.7150   32.5540 C   0  0  0  0  0  0  0  0  0  0  0  0
   36.7090   27.7480   32.8830 O   0  0  0  0  0  0  0  0  0  0  0  0
   38.1060   28.5960   30.1140 H   0  0  0  0  0  0  0  0  0  0  0  0
   36.0200   30.0220   30.7040 H   0  0  0  0  0  0  0  0  0  0  0  0
   34.8310   29.9240   34.4350 C   0  0  0  0  0  0  0  0  0  0  0  0
   34.7380   29.2700   33.2120 C   0  0  0  0  0  0  0  0  0  0  0  0
   33.5290   29.1280   32.5720 C   0  0  0  0  0  0  0  0  0  0  0  0
   32.4090   29.6550   33.1820 C   0  0  0  0  0  0  0  0  0  0  0  0
   31.1220   29.6630   32.7830 N   0  0  0  0  0  0  0  0  0  0  0  0
   30.4170   30.3030   33.7200 N   0  0  0  0  0  0  0  0  0  0  0  0
   31.2450   30.6920   34.6960 C   0  0  0  0  0  0  0  0  0  0  0  0
   32.5460   30.2940   34.3920 C   0  0  0  0  0  0  0  0  0  0  0  0
   33.7380   30.4520   35.0570 C   0  0  0  0  0  0  0  0  0  0  0  0
   35.8080   30.0080   34.8960 H   0  0  0  0  0  0  0  0  0  0  0  0
   33.3870   28.6270   31.6140 H   0  0  0  0  0  0  0  0  0  0  0  0
   30.7100   29.2500   31.8950 H   0  0  0  0  0  0  0  0  0  0  0  0
   30.9160   31.2390   35.5880 H   0  0  0  0  0  0  0  0  0  0  0  0
   33.7660   30.9660   36.0050 H   0  0  0  0  0  0  0  0  0  0  0  0
   38.7440   26.5860   32.0070 C   0  0  0  0  0  0  0  0  0  0  0  0
   39.8250   26.8810   31.4500 O   0  0  0  0  0  0  0  0  0  0  0  0
   38.5000   25.3210   32.6570 C   0  0  0  0  0  0  0  0  0  0  0  0
   38.0220   24.2760   31.8640 C   0  0  0  0  0  0  0  0  0  0  0  0
   37.7690   23.0340   32.4360 C   0  0  0  0  0  0  0  0  0  0  0  0
   38.0170   22.9350   33.7780 N   0  0  0  0  0  0  0  0  0  0  0  0
   38.4700   23.9290   34.5260 C   0  0  0  0  0  0  0  0  0  0  0  0
   38.7090   25.1240   33.9530 N   0  0  0  0  0  0  0  0  0  0  0  0
   37.8410   24.4030   30.8060 H   0  0  0  0  0  0  0  0  0  0  0  0
   37.3990   22.1920   31.8670 H   0  0  0  0  0  0  0  0  0  0  0  0
   40.9790   22.3770   35.3110 Cl  0  0  0  0  0  0  0  0  0  0  0  0
   39.7890   23.0040   36.4270 C   0  0  0  0  0  0  0  0  0  0  0  0
   38.6940   23.6920   35.9470 C   0  0  0  0  0  0  0  0  0  0  0  0
   37.7610   24.1820   36.8390 C   0  0  0  0  0  0  0  0  0  0  0  0
   36.8830   24.7310   36.4940 H   0  0  0  0  0  0  0  0  0  0  0  0
   37.9110   23.9930   38.1970 C   0  0  0  0  0  0  0  0  0  0  0  0
   37.1640   24.3890   38.8540 H   0  0  0  0  0  0  0  0  0  0  0  0
   38.9940   23.3110   38.6860 C   0  0  0  0  0  3  0  0  0  0  0  0
   39.9430   22.8110   37.7910 C   0  0  0  0  0  3  0  0  0  0  0  0
  1  5  1  0  0  0  0
  2  3  1  0  0  0  0
  2  1  2  0  0  0  0
  3  4  2  0  0  0  0
  4  5  1  0  0  0  0
  4  9  1  0  0  0  0
  6  2  1  0  0  0  0
  7  3  1  0  0  0  0
  8 17  1  0  0  0  0
  8 16  1  0  0  0  0
  9  8  2  0  0  0  0
 10 11  2  0  0  0  0
 10  9  1  0  0  0  0
 11 15  1  0  0  0  0
 12 11  1  0  0  0  0
 12 13  1  0  0  0  0
 13 14  2  0  0  0  0
 14 20  1  0  0  0  0
 15 14  1  0  0  0  0
 15 16  2  0  0  0  0
 16 21  1  0  0  0  0
 18 10  1  0  0  0  0
 19 12  1  0  0  0  0
 22  1  1  0  0  0  0
 22 24  1  0  0  0  0
 23 22  2  0  0  0  0
 24 29  1  0  0  0  0
 25 26  1  0  0  0  0
 25 24  2  0  0  0  0
 26 27  2  0  0  0  0
 27 28  1  0  0  0  0
 28 34  1  0  0  0  0
 29 28  2  0  0  0  0
 30 25  1  0  0  0  0
 31 26  1  0  0  0  0
 32 33  1  0  0  0  0
 33 40  1  0  0  0  0
 34 33  2  0  0  0  0
 34 35  1  0  0  0  0
 35 37  2  0  0  0  0
 36 35  1  0  0  0  0
 37 39  1  0  0  0  0
 37 38  1  0  0  0  0
 40 39  2  0  0  0  0
M  END
>  <minimizedAffinity>
-6.56819773

$$$$
