
 OpenBabel03272510013D

 21 22  0  0  0  0  0  0  0  0999 V2000
   38.2000   31.4570   50.3080 C   0  0  0  0  0  0  0  0  0  0  0  0
   38.5410   31.4720   48.9340 C   0  0  0  0  0  0  0  0  0  0  0  0
   37.7480   30.7490   48.0570 C   0  0  0  0  0  0  0  0  0  0  0  0
   36.6950   30.0750   48.5890 N   0  0  0  0  0  0  0  0  0  0  0  0
   36.3920   30.0750   49.8890 C   0  0  0  0  0  0  0  0  0  0  0  0
   37.1450   30.7640   50.7370 N   0  0  0  0  0  0  0  0  0  0  0  0
   38.7950   32.0090   51.0250 H   0  0  0  0  0  0  0  0  0  0  0  0
   39.3820   32.0210   48.5730 H   0  0  0  0  0  0  0  0  0  0  0  0
   35.3080   30.2960   46.3000 Cl  0  0  0  0  0  0  0  0  0  0  0  0
   36.9520   30.4860   45.7590 C   0  0  0  0  0  0  0  0  0  0  0  0
   37.9960   30.6880   46.6240 C   0  0  0  0  0  0  0  0  0  0  0  0
   39.2410   30.8210   46.0530 C   0  0  0  0  0  0  0  0  0  0  0  0
   40.1050   30.9820   46.6820 H   0  0  0  0  0  0  0  0  0  0  0  0
   39.4490   30.7580   44.6920 C   0  0  0  0  0  0  0  0  0  0  0  0
   40.4520   30.8690   44.2890 H   0  0  0  0  0  0  0  0  0  0  0  0
   38.3910   30.5550   43.8280 C   0  0  0  0  0  3  0  0  0  0  0  0
   37.1140   30.4160   44.3770 C   0  0  0  0  0  3  0  0  0  0  0  0
   35.2180   29.2890   50.3170 C   0  0  0  0  0  0  0  0  0  0  0  0
   35.2260   29.0190   51.6830 F   0  0  0  0  0  0  0  0  0  0  0  0
   34.0330   29.9580   50.0660 F   0  0  0  0  0  0  0  0  0  0  0  0
   35.1070   28.0670   49.6760 F   0  0  0  0  0  0  0  0  0  0  0  0
  1  6  1  0  0  0  0
  1  7  1  0  0  0  0
  2  1  2  0  0  0  0
  3  4  2  0  0  0  0
  3  2  1  0  0  0  0
  4  5  1  0  0  0  0
  5 18  1  0  0  0  0
  5  6  2  0  0  0  0
  8  2  1  0  0  0  0
 10  9  1  0  0  0  0
 10 11  1  0  0  0  0
 11  3  1  0  0  0  0
 12 11  2  0  0  0  0
 12 13  1  0  0  0  0
 14 12  1  0  0  0  0
 15 14  1  0  0  0  0
 16 17  1  0  0  0  0
 16 14  2  0  0  0  0
 17 10  2  0  0  0  0
 18 19  1  0  0  0  0
 20 18  1  0  0  0  0
 21 18  1  0  0  0  0
M  END
>  <minimizedAffinity>
-5.51681948

>  <minimizedRMSD>
1.21856785

$$$$
