
 OpenBabel03272504133D

 21 22  0  0  0  0  0  0  0  0999 V2000
   38.7290   23.0390   36.9190 C   0  0  0  0  0  0  0  0  0  0  0  0
   37.7390   22.7100   35.9920 C   0  0  0  0  0  0  0  0  0  0  0  0
   38.0820   22.1570   34.7630 C   0  0  0  0  0  0  0  0  0  0  0  0
   39.4140   21.9660   34.5390 N   0  0  0  0  0  0  0  0  0  0  0  0
   40.3520   22.2860   35.4370 C   0  0  0  0  0  0  0  0  0  0  0  0
   40.0010   22.8180   36.6160 N   0  0  0  0  0  0  0  0  0  0  0  0
   36.7320   22.8990   36.2630 H   0  0  0  0  0  0  0  0  0  0  0  0
   41.4060   22.1000   35.1810 H   0  0  0  0  0  0  0  0  0  0  0  0
   38.0040   24.0100   32.3670 Cl  0  0  0  0  0  0  0  0  0  0  0  0
   36.9720   22.6020   32.6540 C   0  0  0  0  0  0  0  0  0  0  0  0
   37.0800   21.8080   33.7860 C   0  0  0  0  0  0  0  0  0  0  0  0
   36.2170   20.7570   33.8690 C   0  0  0  0  0  0  0  0  0  0  0  0
   36.2670   20.1200   34.7250 H   0  0  0  0  0  0  0  0  0  0  0  0
   35.2890   20.4960   32.8880 C   0  0  0  0  0  0  0  0  0  0  0  0
   34.6150   19.6420   32.9940 H   0  0  0  0  0  0  0  0  0  0  0  0
   35.1670   21.2730   31.7570 C   0  0  0  0  0  3  0  0  0  0  0  0
   36.0440   22.3480   31.6640 C   0  0  0  0  0  3  0  0  0  0  0  0
   38.3220   23.6330   38.2330 C   0  0  0  0  0  0  0  0  0  0  0  0
   38.0250   24.9690   38.0600 F   0  0  0  0  0  0  0  0  0  0  0  0
   37.2970   22.8810   38.7280 F   0  0  0  0  0  0  0  0  0  0  0  0
   39.4310   23.5560   39.0790 F   0  0  0  0  0  0  0  0  0  0  0  0
  1 18  1  0  0  0  0
  2  7  1  0  0  0  0
  2  1  2  0  0  0  0
  3  2  1  0  0  0  0
  4  3  2  0  0  0  0
  4  5  1  0  0  0  0
  5  6  2  0  0  0  0
  6  1  1  0  0  0  0
  8  5  1  0  0  0  0
  9 10  1  0  0  0  0
 10 11  1  0  0  0  0
 11 12  2  0  0  0  0
 11  3  1  0  0  0  0
 12 13  1  0  0  0  0
 14 15  1  0  0  0  0
 14 12  1  0  0  0  0
 16 14  2  0  0  0  0
 17 16  1  0  0  0  0
 17 10  2  0  0  0  0
 18 20  1  0  0  0  0
 18 21  1  0  0  0  0
 19 18  1  0  0  0  0
M  END
>  <minimizedAffinity>
-5.25380421

$$$$

 OpenBabel03272504133D

 21 22  0  0  0  0  0  0  0  0999 V2000
   38.6730   24.1030   36.8550 C   0  0  0  0  0  0  0  0  0  0  0  0
   37.9170   24.9450   36.0380 C   0  0  0  0  0  0  0  0  0  0  0  0
   38.3080   25.1890   34.7260 C   0  0  0  0  0  0  0  0  0  0  0  0
   39.4470   24.5640   34.3110 N   0  0  0  0  0  0  0  0  0  0  0  0
   40.1620   23.7590   35.1050 C   0  0  0  0  0  0  0  0  0  0  0  0
   39.7690   23.5370   36.3670 N   0  0  0  0  0  0  0  0  0  0  0  0
   37.0480   25.3820   36.4580 H   0  0  0  0  0  0  0  0  0  0  0  0
   41.0690   23.2920   34.6950 H   0  0  0  0  0  0  0  0  0  0  0  0
   37.0780   23.7710   32.3480 Cl  0  0  0  0  0  0  0  0  0  0  0  0
   36.9450   25.4910   32.7440 C   0  0  0  0  0  0  0  0  0  0  0  0
   37.5450   26.0540   33.8600 C   0  0  0  0  0  0  0  0  0  0  0  0
   37.3550   27.3920   34.0350 C   0  0  0  0  0  0  0  0  0  0  0  0
   37.8000   27.8650   34.8830 H   0  0  0  0  0  0  0  0  0  0  0  0
   36.6110   28.1440   33.1570 C   0  0  0  0  0  0  0  0  0  0  0  0
   36.4830   29.2150   33.3340 H   0  0  0  0  0  0  0  0  0  0  0  0
   36.0070   27.6010   32.0430 C   0  0  0  0  0  3  0  0  0  0  0  0
   36.1960   26.2370   31.8570 C   0  0  0  0  0  3  0  0  0  0  0  0
   38.2220   23.8640   38.2640 C   0  0  0  0  0  0  0  0  0  0  0  0
   37.8380   25.0610   38.8320 F   0  0  0  0  0  0  0  0  0  0  0  0
   37.2480   22.9100   38.2300 F   0  0  0  0  0  0  0  0  0  0  0  0
   39.3310   23.4000   38.9760 F   0  0  0  0  0  0  0  0  0  0  0  0
  1 18  1  0  0  0  0
  2  7  1  0  0  0  0
  2  1  2  0  0  0  0
  3  2  1  0  0  0  0
  4  3  2  0  0  0  0
  4  5  1  0  0  0  0
  5  6  2  0  0  0  0
  6  1  1  0  0  0  0
  8  5  1  0  0  0  0
  9 10  1  0  0  0  0
 10 11  1  0  0  0  0
 11 12  2  0  0  0  0
 11  3  1  0  0  0  0
 12 13  1  0  0  0  0
 14 15  1  0  0  0  0
 14 12  1  0  0  0  0
 16 14  2  0  0  0  0
 17 16  1  0  0  0  0
 17 10  2  0  0  0  0
 18 19  1  0  0  0  0
 18 21  1  0  0  0  0
 20 18  1  0  0  0  0
M  END
>  <minimizedAffinity>
-5.12036133

$$$$

 OpenBabel03272504133D

 21 22  0  0  0  0  0  0  0  0999 V2000
   38.7410   23.6230   37.0890 C   0  0  0  0  0  0  0  0  0  0  0  0
   38.3020   24.5010   36.0970 C   0  0  0  0  0  0  0  0  0  0  0  0
   38.7200   24.3430   34.7810 C   0  0  0  0  0  0  0  0  0  0  0  0
   39.5640   23.2990   34.5380 N   0  0  0  0  0  0  0  0  0  0  0  0
   39.9770   22.4640   35.4990 C   0  0  0  0  0  0  0  0  0  0  0  0
   39.5630   22.6340   36.7620 N   0  0  0  0  0  0  0  0  0  0  0  0
   37.6470   25.2820   36.3900 H   0  0  0  0  0  0  0  0  0  0  0  0
   40.6580   21.6460   35.2220 H   0  0  0  0  0  0  0  0  0  0  0  0
   40.3850   26.8630   34.5400 Cl  0  0  0  0  0  0  0  0  0  0  0  0
   38.9860   26.4170   33.5530 C   0  0  0  0  0  0  0  0  0  0  0  0
   38.2820   25.2370   33.7360 C   0  0  0  0  0  0  0  0  0  0  0  0
   37.2270   25.0280   32.9000 C   0  0  0  0  0  0  0  0  0  0  0  0
   36.6580   24.1310   33.0070 H   0  0  0  0  0  0  0  0  0  0  0  0
   36.8770   25.9360   31.9280 C   0  0  0  0  0  0  0  0  0  0  0  0
   36.0220   25.7300   31.2770 H   0  0  0  0  0  0  0  0  0  0  0  0
   37.5650   27.1130   31.7310 C   0  0  0  0  0  3  0  0  0  0  0  0
   38.6430   27.3340   32.5800 C   0  0  0  0  0  3  0  0  0  0  0  0
   38.2700   23.8250   38.4960 C   0  0  0  0  0  0  0  0  0  0  0  0
   37.8750   25.1360   38.6640 F   0  0  0  0  0  0  0  0  0  0  0  0
   37.2980   22.9000   38.7440 F   0  0  0  0  0  0  0  0  0  0  0  0
   39.3690   23.6080   39.3320 F   0  0  0  0  0  0  0  0  0  0  0  0
  1 18  1  0  0  0  0
  2  7  1  0  0  0  0
  2  1  2  0  0  0  0
  3  2  1  0  0  0  0
  4  3  2  0  0  0  0
  4  5  1  0  0  0  0
  5  6  2  0  0  0  0
  6  1  1  0  0  0  0
  8  5  1  0  0  0  0
 10 11  1  0  0  0  0
 10  9  1  0  0  0  0
 11  3  1  0  0  0  0
 12 13  1  0  0  0  0
 12 11  2  0  0  0  0
 14 12  1  0  0  0  0
 15 14  1  0  0  0  0
 16 14  2  0  0  0  0
 16 17  1  0  0  0  0
 17 10  2  0  0  0  0
 18 19  1  0  0  0  0
 18 20  1  0  0  0  0
 18 21  1  0  0  0  0
M  END
>  <minimizedAffinity>
-5.05953979

$$$$

 OpenBabel03272504133D

 21 22  0  0  0  0  0  0  0  0999 V2000
   40.0430   22.9840   36.8790 C   0  0  0  0  0  0  0  0  0  0  0  0
   39.6760   23.6710   35.7210 C   0  0  0  0  0  0  0  0  0  0  0  0
   38.4760   24.3700   35.6670 C   0  0  0  0  0  0  0  0  0  0  0  0
   37.7080   24.3370   36.7940 N   0  0  0  0  0  0  0  0  0  0  0  0
   38.0720   23.6740   37.8980 C   0  0  0  0  0  0  0  0  0  0  0  0
   39.2320   23.0050   37.9290 N   0  0  0  0  0  0  0  0  0  0  0  0
   40.3440   23.6340   34.8980 H   0  0  0  0  0  0  0  0  0  0  0  0
   37.3970   23.6950   38.7660 H   0  0  0  0  0  0  0  0  0  0  0  0
   38.7450   27.3780   35.9050 Cl  0  0  0  0  0  0  0  0  0  0  0  0
   38.1620   26.4730   34.5010 C   0  0  0  0  0  0  0  0  0  0  0  0
   38.0730   25.0890   34.4830 C   0  0  0  0  0  0  0  0  0  0  0  0
   37.6070   24.5310   33.3310 C   0  0  0  0  0  0  0  0  0  0  0  0
   37.5220   23.4680   33.2750 H   0  0  0  0  0  0  0  0  0  0  0  0
   37.2430   25.2940   32.2460 C   0  0  0  0  0  0  0  0  0  0  0  0
   36.8730   24.8050   31.3400 H   0  0  0  0  0  0  0  0  0  0  0  0
   37.3260   26.6690   32.2460 C   0  0  0  0  0  3  0  0  0  0  0  0
   37.8010   27.2470   33.4170 C   0  0  0  0  0  3  0  0  0  0  0  0
   41.3430   22.2410   36.9000 C   0  0  0  0  0  0  0  0  0  0  0  0
   41.4360   21.4470   35.7750 F   0  0  0  0  0  0  0  0  0  0  0  0
   42.3420   23.1590   37.0350 F   0  0  0  0  0  0  0  0  0  0  0  0
   41.3120   21.3920   38.0100 F   0  0  0  0  0  0  0  0  0  0  0  0
  1 18  1  0  0  0  0
  1  6  1  0  0  0  0
  2  1  2  0  0  0  0
  3  2  1  0  0  0  0
  3  4  2  0  0  0  0
  4  5  1  0  0  0  0
  5  6  2  0  0  0  0
  5  8  1  0  0  0  0
  7  2  1  0  0  0  0
 10  9  1  0  0  0  0
 11 10  1  0  0  0  0
 11  3  1  0  0  0  0
 12 11  2  0  0  0  0
 13 12  1  0  0  0  0
 14 12  1  0  0  0  0
 15 14  1  0  0  0  0
 16 14  2  0  0  0  0
 16 17  1  0  0  0  0
 17 10  2  0  0  0  0
 18 20  1  0  0  0  0
 18 21  1  0  0  0  0
 19 18  1  0  0  0  0
M  END
>  <minimizedAffinity>
-4.93570089

$$$$

 OpenBabel03272504133D

 21 22  0  0  0  0  0  0  0  0999 V2000
   38.8020   23.3330   37.1480 C   0  0  0  0  0  0  0  0  0  0  0  0
   38.1390   23.6990   35.9760 C   0  0  0  0  0  0  0  0  0  0  0  0
   38.6350   23.3120   34.7370 C   0  0  0  0  0  0  0  0  0  0  0  0
   39.7810   22.5710   34.7510 N   0  0  0  0  0  0  0  0  0  0  0  0
   40.4060   22.2270   35.8820 C   0  0  0  0  0  0  0  0  0  0  0  0
   39.9130   22.6110   37.0670 N   0  0  0  0  0  0  0  0  0  0  0  0
   37.2560   24.2770   36.0750 H   0  0  0  0  0  0  0  0  0  0  0  0
   41.3250   21.6280   35.8090 H   0  0  0  0  0  0  0  0  0  0  0  0
   36.7880   21.1670   33.6570 Cl  0  0  0  0  0  0  0  0  0  0  0  0
   37.1040   22.7540   32.9420 C   0  0  0  0  0  0  0  0  0  0  0  0
   37.9700   23.6770   33.5100 C   0  0  0  0  0  0  0  0  0  0  0  0
   38.1120   24.8580   32.8460 C   0  0  0  0  0  0  0  0  0  0  0  0
   38.7700   25.5960   33.2490 H   0  0  0  0  0  0  0  0  0  0  0  0
   37.4370   25.1230   31.6770 C   0  0  0  0  0  0  0  0  0  0  0  0
   37.5800   26.0840   31.1750 H   0  0  0  0  0  0  0  0  0  0  0  0
   36.5730   24.2190   31.0990 C   0  0  0  0  0  3  0  0  0  0  0  0
   36.4210   23.0120   31.7700 C   0  0  0  0  0  3  0  0  0  0  0  0
   38.2390   23.7690   38.4660 C   0  0  0  0  0  0  0  0  0  0  0  0
   37.8400   25.0870   38.3810 F   0  0  0  0  0  0  0  0  0  0  0  0
   37.2490   22.8930   38.8030 F   0  0  0  0  0  0  0  0  0  0  0  0
   39.2790   23.7050   39.3980 F   0  0  0  0  0  0  0  0  0  0  0  0
  1 18  1  0  0  0  0
  2  7  1  0  0  0  0
  2  1  2  0  0  0  0
  3  4  2  0  0  0  0
  3  2  1  0  0  0  0
  4  5  1  0  0  0  0
  5  6  2  0  0  0  0
  6  1  1  0  0  0  0
  8  5  1  0  0  0  0
 10 11  1  0  0  0  0
 10  9  1  0  0  0  0
 11  3  1  0  0  0  0
 12 13  1  0  0  0  0
 12 11  2  0  0  0  0
 14 12  1  0  0  0  0
 15 14  1  0  0  0  0
 16 14  2  0  0  0  0
 16 17  1  0  0  0  0
 17 10  2  0  0  0  0
 18 20  1  0  0  0  0
 18 21  1  0  0  0  0
 19 18  1  0  0  0  0
M  END
>  <minimizedAffinity>
-4.88583899

$$$$

 OpenBabel03272504133D

 21 22  0  0  0  0  0  0  0  0999 V2000
   36.6310   27.9610   33.2910 C   0  0  0  0  0  0  0  0  0  0  0  0
   36.0530   28.6880   34.3330 C   0  0  0  0  0  0  0  0  0  0  0  0
   35.5370   29.9580   34.1030 C   0  0  0  0  0  0  0  0  0  0  0  0
   35.6340   30.4260   32.8250 N   0  0  0  0  0  0  0  0  0  0  0  0
   36.1910   29.7180   31.8360 C   0  0  0  0  0  0  0  0  0  0  0  0
   36.6830   28.4950   32.0780 N   0  0  0  0  0  0  0  0  0  0  0  0
   36.0270   28.2340   35.2900 H   0  0  0  0  0  0  0  0  0  0  0  0
   36.2310   30.1660   30.8320 H   0  0  0  0  0  0  0  0  0  0  0  0
   32.5600   29.4960   34.4190 Cl  0  0  0  0  0  0  0  0  0  0  0  0
   33.5730   30.5840   35.3790 C   0  0  0  0  0  0  0  0  0  0  0  0
   34.9340   30.7310   35.1620 C   0  0  0  0  0  0  0  0  0  0  0  0
   35.5840   31.6050   35.9800 C   0  0  0  0  0  0  0  0  0  0  0  0
   36.6340   31.7480   35.8470 H   0  0  0  0  0  0  0  0  0  0  0  0
   34.9290   32.3040   36.9680 C   0  0  0  0  0  0  0  0  0  0  0  0
   35.4880   32.9960   37.6030 H   0  0  0  0  0  0  0  0  0  0  0  0
   33.5770   32.1690   37.1980 C   0  0  0  0  0  3  0  0  0  0  0  0
   32.9070   31.2800   36.3670 C   0  0  0  0  0  3  0  0  0  0  0  0
   37.1760   26.5950   33.5760 C   0  0  0  0  0  0  0  0  0  0  0  0
   36.5080   25.6650   32.8060 F   0  0  0  0  0  0  0  0  0  0  0  0
   38.5250   26.6380   33.3750 F   0  0  0  0  0  0  0  0  0  0  0  0
   36.8940   26.3110   34.9140 F   0  0  0  0  0  0  0  0  0  0  0  0
  1 18  1  0  0  0  0
  1  2  1  0  0  0  0
  2  7  1  0  0  0  0
  3  2  2  0  0  0  0
  3 11  1  0  0  0  0
  4  3  1  0  0  0  0
  5  6  1  0  0  0  0
  5  4  2  0  0  0  0
  6  1  2  0  0  0  0
  8  5  1  0  0  0  0
  9 10  1  0  0  0  0
 10 17  1  0  0  0  0
 11 10  2  0  0  0  0
 11 12  1  0  0  0  0
 12 14  2  0  0  0  0
 13 12  1  0  0  0  0
 14 16  1  0  0  0  0
 14 15  1  0  0  0  0
 17 16  2  0  0  0  0
 18 21  1  0  0  0  0
 19 18  1  0  0  0  0
 20 18  1  0  0  0  0
M  END
>  <minimizedAffinity>
-4.87851143

$$$$

 OpenBabel03272504133D

 21 22  0  0  0  0  0  0  0  0999 V2000
   38.9650   23.9690   36.1190 C   0  0  0  0  0  0  0  0  0  0  0  0
   37.9760   24.2040   35.1630 C   0  0  0  0  0  0  0  0  0  0  0  0
   38.3210   24.4380   33.8370 C   0  0  0  0  0  0  0  0  0  0  0  0
   39.6540   24.4200   33.5480 N   0  0  0  0  0  0  0  0  0  0  0  0
   40.5920   24.1930   34.4750 C   0  0  0  0  0  0  0  0  0  0  0  0
   40.2390   23.9700   35.7490 N   0  0  0  0  0  0  0  0  0  0  0  0
   36.9680   24.1970   35.4910 H   0  0  0  0  0  0  0  0  0  0  0  0
   41.6460   24.1950   34.1620 H   0  0  0  0  0  0  0  0  0  0  0  0
   37.6870   27.3720   33.4250 Cl  0  0  0  0  0  0  0  0  0  0  0  0
   36.9650   26.0000   32.5720 C   0  0  0  0  0  0  0  0  0  0  0  0
   37.3190   24.6840   32.8280 C   0  0  0  0  0  0  0  0  0  0  0  0
   36.6780   23.7340   32.0920 C   0  0  0  0  0  0  0  0  0  0  0  0
   36.9210   22.7070   32.2580 H   0  0  0  0  0  0  0  0  0  0  0  0
   35.7320   24.0580   31.1480 C   0  0  0  0  0  0  0  0  0  0  0  0
   35.2410   23.2640   30.5790 H   0  0  0  0  0  0  0  0  0  0  0  0
   35.3680   25.3590   30.8800 C   0  0  0  0  0  3  0  0  0  0  0  0
   36.0170   26.3360   31.6260 C   0  0  0  0  0  3  0  0  0  0  0  0
   38.5570   23.7210   37.5390 C   0  0  0  0  0  0  0  0  0  0  0  0
   39.5870   23.0940   38.2100 F   0  0  0  0  0  0  0  0  0  0  0  0
   38.1720   24.9150   38.0730 F   0  0  0  0  0  0  0  0  0  0  0  0
   37.4770   22.8350   37.5060 F   0  0  0  0  0  0  0  0  0  0  0  0
  1 18  1  0  0  0  0
  2  7  1  0  0  0  0
  2  1  2  0  0  0  0
  3  2  1  0  0  0  0
  4  3  2  0  0  0  0
  4  5  1  0  0  0  0
  5  6  2  0  0  0  0
  6  1  1  0  0  0  0
  8  5  1  0  0  0  0
 10 11  1  0  0  0  0
 10  9  1  0  0  0  0
 11  3  1  0  0  0  0
 12 13  1  0  0  0  0
 12 11  2  0  0  0  0
 14 12  1  0  0  0  0
 15 14  1  0  0  0  0
 16 14  2  0  0  0  0
 16 17  1  0  0  0  0
 17 10  2  0  0  0  0
 18 20  1  0  0  0  0
 18 19  1  0  0  0  0
 21 18  1  0  0  0  0
M  END
>  <minimizedAffinity>
-4.77456665

$$$$

 OpenBabel03272504133D

 21 22  0  0  0  0  0  0  0  0999 V2000
   38.1960   24.0440   36.9320 C   0  0  0  0  0  0  0  0  0  0  0  0
   38.0930   22.9530   36.0690 C   0  0  0  0  0  0  0  0  0  0  0  0
   38.0310   23.1460   34.6940 C   0  0  0  0  0  0  0  0  0  0  0  0
   38.0770   24.4400   34.2650 N   0  0  0  0  0  0  0  0  0  0  0  0
   38.1760   25.4780   35.1040 C   0  0  0  0  0  0  0  0  0  0  0  0
   38.2340   25.2700   36.4260 N   0  0  0  0  0  0  0  0  0  0  0  0
   38.0640   21.9860   36.5040 H   0  0  0  0  0  0  0  0  0  0  0  0
   38.2080   26.4920   34.6790 H   0  0  0  0  0  0  0  0  0  0  0  0
   40.6860   22.2370   33.5520 Cl  0  0  0  0  0  0  0  0  0  0  0  0
   39.0910   21.5520   33.2060 C   0  0  0  0  0  0  0  0  0  0  0  0
   37.9250   22.0360   33.7790 C   0  0  0  0  0  0  0  0  0  0  0  0
   36.7710   21.4080   33.4180 C   0  0  0  0  0  0  0  0  0  0  0  0
   35.8500   21.7490   33.8360 H   0  0  0  0  0  0  0  0  0  0  0  0
   36.7610   20.3530   32.5350 C   0  0  0  0  0  0  0  0  0  0  0  0
   35.8120   19.8770   32.2720 H   0  0  0  0  0  0  0  0  0  0  0  0
   37.9100   19.8590   31.9570 C   0  0  0  0  0  3  0  0  0  0  0  0
   39.0910   20.4940   32.3200 C   0  0  0  0  0  3  0  0  0  0  0  0
   38.2600   23.7980   38.4080 C   0  0  0  0  0  0  0  0  0  0  0  0
   39.4930   23.2700   38.7320 F   0  0  0  0  0  0  0  0  0  0  0  0
   37.9580   24.9700   39.0370 F   0  0  0  0  0  0  0  0  0  0  0  0
   37.2980   22.8280   38.7040 F   0  0  0  0  0  0  0  0  0  0  0  0
  1 18  1  0  0  0  0
  2  7  1  0  0  0  0
  2  1  2  0  0  0  0
  3  2  1  0  0  0  0
  4  3  2  0  0  0  0
  4  5  1  0  0  0  0
  5  6  2  0  0  0  0
  6  1  1  0  0  0  0
  8  5  1  0  0  0  0
 10  9  1  0  0  0  0
 10 11  1  0  0  0  0
 11  3  1  0  0  0  0
 12 11  2  0  0  0  0
 12 13  1  0  0  0  0
 14 12  1  0  0  0  0
 15 14  1  0  0  0  0
 16 17  1  0  0  0  0
 16 14  2  0  0  0  0
 17 10  2  0  0  0  0
 18 21  1  0  0  0  0
 18 19  1  0  0  0  0
 18 20  1  0  0  0  0
M  END
>  <minimizedAffinity>
-4.77349854

$$$$

 OpenBabel03272504133D

 21 22  0  0  0  0  0  0  0  0999 V2000
   36.8920   21.4630   32.9400 C   0  0  0  0  0  0  0  0  0  0  0  0
   37.2470   21.6410   34.2780 C   0  0  0  0  0  0  0  0  0  0  0  0
   37.8940   22.8010   34.6860 C   0  0  0  0  0  0  0  0  0  0  0  0
   38.1470   23.7240   33.7140 N   0  0  0  0  0  0  0  0  0  0  0  0
   37.8020   23.5400   32.4340 C   0  0  0  0  0  0  0  0  0  0  0  0
   37.1800   22.4140   32.0610 N   0  0  0  0  0  0  0  0  0  0  0  0
   37.0040   20.8620   34.9560 H   0  0  0  0  0  0  0  0  0  0  0  0
   38.0410   24.3320   31.7100 H   0  0  0  0  0  0  0  0  0  0  0  0
   40.7250   21.9370   35.3290 Cl  0  0  0  0  0  0  0  0  0  0  0  0
   39.5510   22.6440   36.4490 C   0  0  0  0  0  0  0  0  0  0  0  0
   38.2710   23.0110   36.0630 C   0  0  0  0  0  0  0  0  0  0  0  0
   37.4780   23.5440   37.0350 C   0  0  0  0  0  0  0  0  0  0  0  0
   36.4850   23.8400   36.7800 H   0  0  0  0  0  0  0  0  0  0  0  0
   37.9200   23.7090   38.3270 C   0  0  0  0  0  0  0  0  0  0  0  0
   37.2510   24.1400   39.0770 H   0  0  0  0  0  0  0  0  0  0  0  0
   39.1890   23.3500   38.7280 C   0  0  0  0  0  3  0  0  0  0  0  0
   40.0040   22.8060   37.7420 C   0  0  0  0  0  3  0  0  0  0  0  0
   36.1970   20.1990   32.5360 C   0  0  0  0  0  0  0  0  0  0  0  0
   37.1300   19.2820   32.0960 F   0  0  0  0  0  0  0  0  0  0  0  0
   35.4450   19.7830   33.5960 F   0  0  0  0  0  0  0  0  0  0  0  0
   35.3740   20.5120   31.4510 F   0  0  0  0  0  0  0  0  0  0  0  0
  1  2  1  0  0  0  0
  2  3  2  0  0  0  0
  2  7  1  0  0  0  0
  3 11  1  0  0  0  0
  4  3  1  0  0  0  0
  5  4  2  0  0  0  0
  6  5  1  0  0  0  0
  6  1  2  0  0  0  0
  8  5  1  0  0  0  0
  9 10  1  0  0  0  0
 10 17  1  0  0  0  0
 11 10  2  0  0  0  0
 11 12  1  0  0  0  0
 12 14  2  0  0  0  0
 13 12  1  0  0  0  0
 14 16  1  0  0  0  0
 14 15  1  0  0  0  0
 17 16  2  0  0  0  0
 18  1  1  0  0  0  0
 18 20  1  0  0  0  0
 19 18  1  0  0  0  0
 21 18  1  0  0  0  0
M  END
>  <minimizedAffinity>
-4.75512028

$$$$
