
 OpenBabel03272503033D

 28 30  0  0  0  0  0  0  0  0999 V2000
   37.5780   23.3520   33.2720 F   0  0  0  0  0  0  0  0  0  0  0  0
   36.7910   24.1160   32.4690 C   0  0  0  0  0  0  0  0  0  0  0  0
   35.9460   23.5080   31.5810 C   0  0  0  0  0  0  0  0  0  0  0  0
   35.1770   24.3310   30.7990 C   0  0  0  0  0  0  0  0  0  0  0  0
   35.2340   25.7080   30.8830 C   0  0  0  0  0  0  0  0  0  0  0  0
   36.0960   26.2940   31.7870 C   0  0  0  0  0  0  0  0  0  0  0  0
   36.8720   25.4890   32.5780 C   0  0  0  0  0  0  0  0  0  0  0  0
   34.5020   23.8630   30.0890 H   0  0  0  0  0  0  0  0  0  0  0  0
   34.6230   26.3500   30.2600 H   0  0  0  0  0  0  0  0  0  0  0  0
   36.1720   27.3730   31.8860 H   0  0  0  0  0  0  0  0  0  0  0  0
   34.9790   19.8980   32.1670 C   0  0  0  0  0  0  0  0  0  0  0  0
   34.9820   21.2960   32.2280 C   0  0  0  0  0  0  0  0  0  0  0  0
   35.9230   22.0530   31.5320 C   0  0  0  0  0  0  0  0  0  0  0  0
   36.8220   21.3520   30.8030 N   0  0  0  0  0  0  0  0  0  0  0  0
   36.8230   20.0120   30.7410 C   0  0  0  0  0  0  0  0  0  0  0  0
   35.9080   19.2880   31.4180 N   0  0  0  0  0  0  0  0  0  0  0  0
   34.2130   19.3940   32.7380 H   0  0  0  0  0  0  0  0  0  0  0  0
   34.2780   21.8770   32.8010 H   0  0  0  0  0  0  0  0  0  0  0  0
   37.5960   19.5700   30.1230 H   0  0  0  0  0  0  0  0  0  0  0  0
   39.5910   25.9820   31.4810 Cl  0  0  0  0  0  0  0  0  0  0  0  0
   39.1150   26.3150   33.1340 C   0  0  0  0  0  0  0  0  0  0  0  0
   37.8150   26.0530   33.5670 C   0  0  0  0  0  0  0  0  0  0  0  0
   37.4280   26.3150   34.8840 C   0  0  0  0  0  0  0  0  0  0  0  0
   36.4090   26.1000   35.1900 H   0  0  0  0  0  0  0  0  0  0  0  0
   38.3560   26.8430   35.7630 C   0  0  0  0  0  0  0  0  0  0  0  0
   38.0780   27.0580   36.7990 H   0  0  0  0  0  0  0  0  0  0  0  0
   39.6430   27.0970   35.3140 C   0  0  0  0  0  3  0  0  0  0  0  0
   40.0320   26.8400   34.0170 C   0  0  0  0  0  3  0  0  0  0  0  0
  2  7  1  0  0  0  0
  2  1  1  0  0  0  0
  3  2  2  0  0  0  0
  4  5  2  0  0  0  0
  4  3  1  0  0  0  0
  5  6  1  0  0  0  0
  6 10  1  0  0  0  0
  6  7  2  0  0  0  0
  7 22  1  0  0  0  0
  8  4  1  0  0  0  0
  9  5  1  0  0  0  0
 11 12  1  0  0  0  0
 11 17  1  0  0  0  0
 12 18  1  0  0  0  0
 13  3  1  0  0  0  0
 13 12  2  0  0  0  0
 14 13  1  0  0  0  0
 15 14  2  0  0  0  0
 15 16  1  0  0  0  0
 16 11  2  0  0  0  0
 19 15  1  0  0  0  0
 20 21  1  0  0  0  0
 21 22  2  0  0  0  0
 21 28  1  0  0  0  0
 22 23  1  0  0  0  0
 23 24  1  0  0  0  0
 23 25  2  0  0  0  0
 25 26  1  0  0  0  0
 27 25  1  0  0  0  0
 28 27  2  0  0  0  0
M  END
>  <minimizedAffinity>
-5.49648905

$$$$

 OpenBabel03272503033D

 28 30  0  0  0  0  0  0  0  0999 V2000
   36.1740   28.2940   34.8290 F   0  0  0  0  0  0  0  0  0  0  0  0
   36.1140   28.9160   33.6220 C   0  0  0  0  0  0  0  0  0  0  0  0
   36.6730   28.3150   32.5270 C   0  0  0  0  0  0  0  0  0  0  0  0
   36.5800   28.9920   31.3380 C   0  0  0  0  0  0  0  0  0  0  0  0
   35.9610   30.2210   31.2240 C   0  0  0  0  0  0  0  0  0  0  0  0
   35.4070   30.8040   32.3460 C   0  0  0  0  0  0  0  0  0  0  0  0
   35.4880   30.1430   33.5430 C   0  0  0  0  0  0  0  0  0  0  0  0
   37.0190   28.5280   30.4600 H   0  0  0  0  0  0  0  0  0  0  0  0
   35.8940   30.7480   30.2810 H   0  0  0  0  0  0  0  0  0  0  0  0
   34.9100   31.7690   32.3010 H   0  0  0  0  0  0  0  0  0  0  0  0
   39.2250   25.6330   33.3000 C   0  0  0  0  0  0  0  0  0  0  0  0
   38.6290   26.8890   33.1400 C   0  0  0  0  0  0  0  0  0  0  0  0
   37.3130   27.0190   32.7000 C   0  0  0  0  0  0  0  0  0  0  0  0
   36.6600   25.8630   32.4410 N   0  0  0  0  0  0  0  0  0  0  0  0
   37.2270   24.6570   32.5920 C   0  0  0  0  0  0  0  0  0  0  0  0
   38.5020   24.5400   33.0190 N   0  0  0  0  0  0  0  0  0  0  0  0
   40.2490   25.6270   33.6450 H   0  0  0  0  0  0  0  0  0  0  0  0
   39.1280   27.8240   33.3400 H   0  0  0  0  0  0  0  0  0  0  0  0
   36.5990   23.8080   32.3510 H   0  0  0  0  0  0  0  0  0  0  0  0
   32.6490   29.3840   33.9970 Cl  0  0  0  0  0  0  0  0  0  0  0  0
   33.5850   30.4040   35.0700 C   0  0  0  0  0  0  0  0  0  0  0  0
   34.9150   30.7120   34.7810 C   0  0  0  0  0  0  0  0  0  0  0  0
   35.6680   31.5250   35.6320 C   0  0  0  0  0  0  0  0  0  0  0  0
   36.6990   31.7460   35.3790 H   0  0  0  0  0  0  0  0  0  0  0  0
   35.0740   32.0280   36.7760 C   0  0  0  0  0  0  0  0  0  0  0  0
   35.6420   32.6680   37.4590 H   0  0  0  0  0  0  0  0  0  0  0  0
   33.7530   31.7120   37.0470 C   0  0  0  0  0  3  0  0  0  0  0  0
   33.0040   30.9100   36.2120 C   0  0  0  0  0  3  0  0  0  0  0  0
  2  1  1  0  0  0  0
  3 13  1  0  0  0  0
  3  2  2  0  0  0  0
  4  3  1  0  0  0  0
  5  4  2  0  0  0  0
  5  6  1  0  0  0  0
  6  7  2  0  0  0  0
  7  2  1  0  0  0  0
  7 22  1  0  0  0  0
  8  4  1  0  0  0  0
  9  5  1  0  0  0  0
 10  6  1  0  0  0  0
 11 17  1  0  0  0  0
 12 11  1  0  0  0  0
 12 18  1  0  0  0  0
 13 12  2  0  0  0  0
 14 15  2  0  0  0  0
 14 13  1  0  0  0  0
 15 16  1  0  0  0  0
 16 11  2  0  0  0  0
 19 15  1  0  0  0  0
 20 21  1  0  0  0  0
 21 28  1  0  0  0  0
 22 21  2  0  0  0  0
 22 23  1  0  0  0  0
 23 25  2  0  0  0  0
 24 23  1  0  0  0  0
 25 27  1  0  0  0  0
 25 26  1  0  0  0  0
 28 27  2  0  0  0  0
M  END
>  <minimizedAffinity>
-5.48741007

$$$$

 OpenBabel03272503033D

 28 30  0  0  0  0  0  0  0  0999 V2000
   37.5830   23.3730   33.4420 F   0  0  0  0  0  0  0  0  0  0  0  0
   36.8470   24.1340   32.5890 C   0  0  0  0  0  0  0  0  0  0  0  0
   36.9230   25.4980   32.6700 C   0  0  0  0  0  0  0  0  0  0  0  0
   36.1580   26.2110   31.7830 C   0  0  0  0  0  0  0  0  0  0  0  0
   35.3420   25.6080   30.8460 C   0  0  0  0  0  0  0  0  0  0  0  0
   35.2840   24.2300   30.7890 C   0  0  0  0  0  0  0  0  0  0  0  0
   36.0420   23.5000   31.6660 C   0  0  0  0  0  0  0  0  0  0  0  0
   36.2070   27.2940   31.8340 H   0  0  0  0  0  0  0  0  0  0  0  0
   34.7410   26.1800   30.1510 H   0  0  0  0  0  0  0  0  0  0  0  0
   34.6560   23.7140   30.0680 H   0  0  0  0  0  0  0  0  0  0  0  0
   38.1890   27.0800   35.8640 C   0  0  0  0  0  0  0  0  0  0  0  0
   37.3290   26.5190   34.9130 C   0  0  0  0  0  0  0  0  0  0  0  0
   37.7980   26.0850   33.6740 C   0  0  0  0  0  0  0  0  0  0  0  0
   39.1240   26.2420   33.4570 N   0  0  0  0  0  0  0  0  0  0  0  0
   39.9520   26.7800   34.3650 C   0  0  0  0  0  0  0  0  0  0  0  0
   39.4900   27.1960   35.5620 N   0  0  0  0  0  0  0  0  0  0  0  0
   37.7390   27.3880   36.7960 H   0  0  0  0  0  0  0  0  0  0  0  0
   36.2700   26.3830   35.0620 H   0  0  0  0  0  0  0  0  0  0  0  0
   40.9920   26.8510   34.0700 H   0  0  0  0  0  0  0  0  0  0  0  0
   38.3410   22.2970   30.2130 Cl  0  0  0  0  0  0  0  0  0  0  0  0
   37.0720   21.3760   30.9950 C   0  0  0  0  0  0  0  0  0  0  0  0
   36.0270   22.0220   31.6560 C   0  0  0  0  0  0  0  0  0  0  0  0
   35.0110   21.2940   32.2820 C   0  0  0  0  0  0  0  0  0  0  0  0
   34.2120   21.8260   32.7880 H   0  0  0  0  0  0  0  0  0  0  0  0
   35.0520   19.9120   32.2380 C   0  0  0  0  0  0  0  0  0  0  0  0
   34.2690   19.3190   32.7200 H   0  0  0  0  0  0  0  0  0  0  0  0
   36.0990   19.2880   31.5770 C   0  0  0  0  0  3  0  0  0  0  0  0
   37.1040   19.9990   30.9570 C   0  0  0  0  0  3  0  0  0  0  0  0
  2  3  1  0  0  0  0
  2  1  1  0  0  0  0
  3 13  1  0  0  0  0
  4  8  1  0  0  0  0
  4  3  2  0  0  0  0
  5  4  1  0  0  0  0
  6  5  2  0  0  0  0
  6  7  1  0  0  0  0
  7  2  2  0  0  0  0
  9  5  1  0  0  0  0
 10  6  1  0  0  0  0
 11 17  1  0  0  0  0
 12 18  1  0  0  0  0
 12 11  2  0  0  0  0
 13 12  1  0  0  0  0
 14 13  2  0  0  0  0
 14 15  1  0  0  0  0
 15 16  2  0  0  0  0
 16 11  1  0  0  0  0
 19 15  1  0  0  0  0
 20 21  1  0  0  0  0
 21 22  1  0  0  0  0
 22  7  1  0  0  0  0
 22 23  2  0  0  0  0
 23 24  1  0  0  0  0
 25 23  1  0  0  0  0
 25 26  1  0  0  0  0
 27 25  2  0  0  0  0
 28 21  2  0  0  0  0
 28 27  1  0  0  0  0
M  END
>  <minimizedAffinity>
-5.4216156

$$$$

 OpenBabel03272503033D

 28 30  0  0  0  0  0  0  0  0999 V2000
   35.3980   28.4890   34.3640 F   0  0  0  0  0  0  0  0  0  0  0  0
   35.7640   29.2990   33.3350 C   0  0  0  0  0  0  0  0  0  0  0  0
   36.3320   28.7510   32.2170 C   0  0  0  0  0  0  0  0  0  0  0  0
   36.6790   29.6190   31.2150 C   0  0  0  0  0  0  0  0  0  0  0  0
   36.4780   30.9830   31.3030 C   0  0  0  0  0  0  0  0  0  0  0  0
   35.9040   31.5080   32.4430 C   0  0  0  0  0  0  0  0  0  0  0  0
   35.5490   30.6560   33.4560 C   0  0  0  0  0  0  0  0  0  0  0  0
   37.1310   29.2000   30.3210 H   0  0  0  0  0  0  0  0  0  0  0  0
   36.7560   31.6600   30.5050 H   0  0  0  0  0  0  0  0  0  0  0  0
   35.7270   32.5730   32.5550 H   0  0  0  0  0  0  0  0  0  0  0  0
   37.7410   25.2850   32.7700 C   0  0  0  0  0  0  0  0  0  0  0  0
   37.5770   26.6740   32.8260 C   0  0  0  0  0  0  0  0  0  0  0  0
   36.5220   27.3090   32.1730 C   0  0  0  0  0  0  0  0  0  0  0  0
   35.6780   26.5010   31.4910 N   0  0  0  0  0  0  0  0  0  0  0  0
   35.8300   25.1690   31.4340 C   0  0  0  0  0  0  0  0  0  0  0  0
   36.8550   24.5630   32.0690 N   0  0  0  0  0  0  0  0  0  0  0  0
   38.5860   24.8790   33.3050 H   0  0  0  0  0  0  0  0  0  0  0  0
   38.2360   27.3380   33.3610 H   0  0  0  0  0  0  0  0  0  0  0  0
   35.0870   24.6350   30.8550 H   0  0  0  0  0  0  0  0  0  0  0  0
   32.5760   30.6860   33.3760 Cl  0  0  0  0  0  0  0  0  0  0  0  0
   33.5350   31.2000   34.7500 C   0  0  0  0  0  0  0  0  0  0  0  0
   34.9290   31.1540   34.7030 C   0  0  0  0  0  0  0  0  0  0  0  0
   35.7010   31.5620   35.7940 C   0  0  0  0  0  0  0  0  0  0  0  0
   36.7820   31.5140   35.7260 H   0  0  0  0  0  0  0  0  0  0  0  0
   35.0620   32.0180   36.9330 C   0  0  0  0  0  0  0  0  0  0  0  0
   35.6430   32.3440   37.8010 H   0  0  0  0  0  0  0  0  0  0  0  0
   33.6770   32.0570   36.9610 C   0  0  0  0  0  3  0  0  0  0  0  0
   32.9090   31.6560   35.8890 C   0  0  0  0  0  3  0  0  0  0  0  0
  2  7  1  0  0  0  0
  2  1  1  0  0  0  0
  3  2  2  0  0  0  0
  4  5  2  0  0  0  0
  4  3  1  0  0  0  0
  5  6  1  0  0  0  0
  6 10  1  0  0  0  0
  6  7  2  0  0  0  0
  7 22  1  0  0  0  0
  8  4  1  0  0  0  0
  9  5  1  0  0  0  0
 11 12  1  0  0  0  0
 11 17  1  0  0  0  0
 12 18  1  0  0  0  0
 13  3  1  0  0  0  0
 13 12  2  0  0  0  0
 14 13  1  0  0  0  0
 15 14  2  0  0  0  0
 15 16  1  0  0  0  0
 16 11  2  0  0  0  0
 19 15  1  0  0  0  0
 20 21  1  0  0  0  0
 21 28  1  0  0  0  0
 22 21  2  0  0  0  0
 22 23  1  0  0  0  0
 23 25  2  0  0  0  0
 24 23  1  0  0  0  0
 25 27  1  0  0  0  0
 25 26  1  0  0  0  0
 28 27  2  0  0  0  0
M  END
>  <minimizedAffinity>
-5.36042261

$$$$

 OpenBabel03272503033D

 28 30  0  0  0  0  0  0  0  0999 V2000
   35.5680   28.2970   34.8970 F   0  0  0  0  0  0  0  0  0  0  0  0
   35.6630   29.1000   33.8040 C   0  0  0  0  0  0  0  0  0  0  0  0
   36.3910   28.6800   32.7230 C   0  0  0  0  0  0  0  0  0  0  0  0
   36.4510   29.5320   31.6520 C   0  0  0  0  0  0  0  0  0  0  0  0
   35.8180   30.7600   31.6370 C   0  0  0  0  0  0  0  0  0  0  0  0
   35.0920   31.1580   32.7410 C   0  0  0  0  0  0  0  0  0  0  0  0
   35.0200   30.3190   33.8220 C   0  0  0  0  0  0  0  0  0  0  0  0
   37.0240   29.2130   30.7870 H   0  0  0  0  0  0  0  0  0  0  0  0
   35.8720   31.4270   30.7850 H   0  0  0  0  0  0  0  0  0  0  0  0
   34.5780   32.1150   32.7720 H   0  0  0  0  0  0  0  0  0  0  0  0
   38.9080   25.9370   33.3950 C   0  0  0  0  0  0  0  0  0  0  0  0
   38.3050   27.1990   33.3430 C   0  0  0  0  0  0  0  0  0  0  0  0
   37.0380   27.3770   32.7890 C   0  0  0  0  0  0  0  0  0  0  0  0
   36.4400   26.2620   32.3110 N   0  0  0  0  0  0  0  0  0  0  0  0
   37.0150   25.0500   32.3580 C   0  0  0  0  0  0  0  0  0  0  0  0
   38.2410   24.8870   32.8970 N   0  0  0  0  0  0  0  0  0  0  0  0
   39.8900   25.8920   33.8420 H   0  0  0  0  0  0  0  0  0  0  0  0
   38.7600   28.1020   33.7160 H   0  0  0  0  0  0  0  0  0  0  0  0
   36.4320   24.2370   31.9420 H   0  0  0  0  0  0  0  0  0  0  0  0
   36.4840   32.1690   35.6320 Cl  0  0  0  0  0  0  0  0  0  0  0  0
   34.8730   31.5520   35.9390 C   0  0  0  0  0  0  0  0  0  0  0  0
   34.2580   30.6850   35.0350 C   0  0  0  0  0  0  0  0  0  0  0  0
   32.9740   30.1880   35.2740 C   0  0  0  0  0  0  0  0  0  0  0  0
   32.5230   29.5160   34.5510 H   0  0  0  0  0  0  0  0  0  0  0  0
   32.3130   30.5660   36.4280 C   0  0  0  0  0  0  0  0  0  0  0  0
   31.3060   30.1910   36.6380 H   0  0  0  0  0  0  0  0  0  0  0  0
   32.9400   31.4280   37.3140 C   0  0  0  0  0  3  0  0  0  0  0  0
   34.2060   31.9230   37.0860 C   0  0  0  0  0  3  0  0  0  0  0  0
  2  7  1  0  0  0  0
  2  1  1  0  0  0  0
  3 13  1  0  0  0  0
  3  2  2  0  0  0  0
  4  3  1  0  0  0  0
  5  4  2  0  0  0  0
  5  6  1  0  0  0  0
  6 10  1  0  0  0  0
  6  7  2  0  0  0  0
  7 22  1  0  0  0  0
  8  4  1  0  0  0  0
  9  5  1  0  0  0  0
 11 17  1  0  0  0  0
 12 11  1  0  0  0  0
 12 18  1  0  0  0  0
 13 12  2  0  0  0  0
 14 15  2  0  0  0  0
 14 13  1  0  0  0  0
 15 16  1  0  0  0  0
 16 11  2  0  0  0  0
 19 15  1  0  0  0  0
 20 21  1  0  0  0  0
 21 28  1  0  0  0  0
 22 23  1  0  0  0  0
 22 21  2  0  0  0  0
 23 25  2  0  0  0  0
 24 23  1  0  0  0  0
 25 26  1  0  0  0  0
 25 27  1  0  0  0  0
 28 27  2  0  0  0  0
M  END
>  <minimizedAffinity>
-5.33710814

$$$$

 OpenBabel03272503033D

 28 30  0  0  0  0  0  0  0  0999 V2000
   36.0810   28.0110   34.7030 F   0  0  0  0  0  0  0  0  0  0  0  0
   36.2050   28.7110   33.5440 C   0  0  0  0  0  0  0  0  0  0  0  0
   35.6870   29.9760   33.4640 C   0  0  0  0  0  0  0  0  0  0  0  0
   35.8440   30.6310   32.2700 C   0  0  0  0  0  0  0  0  0  0  0  0
   36.4880   30.0660   31.1860 C   0  0  0  0  0  0  0  0  0  0  0  0
   36.9990   28.7890   31.2950 C   0  0  0  0  0  0  0  0  0  0  0  0
   36.8540   28.1180   32.4810 C   0  0  0  0  0  0  0  0  0  0  0  0
   35.4390   31.6350   32.1900 H   0  0  0  0  0  0  0  0  0  0  0  0
   36.6060   30.5920   30.2470 H   0  0  0  0  0  0  0  0  0  0  0  0
   37.5130   28.3070   30.4680 H   0  0  0  0  0  0  0  0  0  0  0  0
   35.0110   31.8630   36.6710 C   0  0  0  0  0  0  0  0  0  0  0  0
   35.6730   31.3450   35.5520 C   0  0  0  0  0  0  0  0  0  0  0  0
   35.0190   30.5250   34.6340 C   0  0  0  0  0  0  0  0  0  0  0  0
   33.7170   30.2680   34.8960 N   0  0  0  0  0  0  0  0  0  0  0  0
   33.0780   30.7620   35.9670 C   0  0  0  0  0  0  0  0  0  0  0  0
   33.7190   31.5550   36.8500 N   0  0  0  0  0  0  0  0  0  0  0  0
   35.5960   32.4890   37.3290 H   0  0  0  0  0  0  0  0  0  0  0  0
   36.7090   31.5350   35.3220 H   0  0  0  0  0  0  0  0  0  0  0  0
   32.0360   30.4810   36.0640 H   0  0  0  0  0  0  0  0  0  0  0  0
   35.1320   26.0140   31.2760 Cl  0  0  0  0  0  0  0  0  0  0  0  0
   36.6310   25.7000   32.1280 C   0  0  0  0  0  0  0  0  0  0  0  0
   37.3790   26.7480   32.6640 C   0  0  0  0  0  0  0  0  0  0  0  0
   38.5750   26.5060   33.3450 C   0  0  0  0  0  0  0  0  0  0  0  0
   39.1330   27.3430   33.7500 H   0  0  0  0  0  0  0  0  0  0  0  0
   39.0140   25.2010   33.4840 C   0  0  0  0  0  0  0  0  0  0  0  0
   39.9470   24.9840   34.0130 H   0  0  0  0  0  0  0  0  0  0  0  0
   38.2570   24.1730   32.9440 C   0  0  0  0  0  3  0  0  0  0  0  0
   37.0770   24.4040   32.2720 C   0  0  0  0  0  3  0  0  0  0  0  0
  2  1  1  0  0  0  0
  3  2  1  0  0  0  0
  3 13  1  0  0  0  0
  4  3  2  0  0  0  0
  5  6  2  0  0  0  0
  5  4  1  0  0  0  0
  6  7  1  0  0  0  0
  7 22  1  0  0  0  0
  7  2  2  0  0  0  0
  8  4  1  0  0  0  0
  9  5  1  0  0  0  0
 10  6  1  0  0  0  0
 11 16  1  0  0  0  0
 11 17  1  0  0  0  0
 12 11  2  0  0  0  0
 13 14  2  0  0  0  0
 13 12  1  0  0  0  0
 14 15  1  0  0  0  0
 15 19  1  0  0  0  0
 15 16  2  0  0  0  0
 18 12  1  0  0  0  0
 20 21  1  0  0  0  0
 21 28  2  0  0  0  0
 21 22  1  0  0  0  0
 22 23  2  0  0  0  0
 23 25  1  0  0  0  0
 23 24  1  0  0  0  0
 25 26  1  0  0  0  0
 27 25  2  0  0  0  0
 28 27  1  0  0  0  0
M  END
>  <minimizedAffinity>
-5.18803978

$$$$

 OpenBabel03272503033D

 28 30  0  0  0  0  0  0  0  0999 V2000
   35.4570   28.0720   33.8760 F   0  0  0  0  0  0  0  0  0  0  0  0
   35.7730   28.8960   32.8420 C   0  0  0  0  0  0  0  0  0  0  0  0
   35.6100   30.2480   32.9860 C   0  0  0  0  0  0  0  0  0  0  0  0
   35.9460   31.0260   31.9080 C   0  0  0  0  0  0  0  0  0  0  0  0
   36.4250   30.4990   30.7260 C   0  0  0  0  0  0  0  0  0  0  0  0
   36.5780   29.1320   30.6090 C   0  0  0  0  0  0  0  0  0  0  0  0
   36.2490   28.3370   31.6750 C   0  0  0  0  0  0  0  0  0  0  0  0
   35.8220   32.1000   32.0070 H   0  0  0  0  0  0  0  0  0  0  0  0
   36.6870   31.1230   29.8800 H   0  0  0  0  0  0  0  0  0  0  0  0
   36.9520   28.6750   29.6970 H   0  0  0  0  0  0  0  0  0  0  0  0
   35.4240   31.7880   36.4350 C   0  0  0  0  0  0  0  0  0  0  0  0
   35.9340   31.3080   35.2240 C   0  0  0  0  0  0  0  0  0  0  0  0
   35.1020   30.7530   34.2530 C   0  0  0  0  0  0  0  0  0  0  0  0
   33.7850   30.7100   34.5580 N   0  0  0  0  0  0  0  0  0  0  0  0
   33.2910   31.1690   35.7190 C   0  0  0  0  0  0  0  0  0  0  0  0
   34.1040   31.7050   36.6520 N   0  0  0  0  0  0  0  0  0  0  0  0
   36.1420   32.2010   37.1290 H   0  0  0  0  0  0  0  0  0  0  0  0
   36.9780   31.3300   34.9570 H   0  0  0  0  0  0  0  0  0  0  0  0
   32.2190   31.0780   35.8420 H   0  0  0  0  0  0  0  0  0  0  0  0
   38.8720   27.3530   32.6720 Cl  0  0  0  0  0  0  0  0  0  0  0  0
   37.5930   26.3210   32.0660 C   0  0  0  0  0  0  0  0  0  0  0  0
   36.3900   26.8670   31.6150 C   0  0  0  0  0  0  0  0  0  0  0  0
   35.3650   26.0500   31.1300 C   0  0  0  0  0  0  0  0  0  0  0  0
   34.4420   26.5050   30.7870 H   0  0  0  0  0  0  0  0  0  0  0  0
   35.5580   24.6810   31.0990 C   0  0  0  0  0  0  0  0  0  0  0  0
   34.7710   24.0190   30.7240 H   0  0  0  0  0  0  0  0  0  0  0  0
   36.7590   24.1570   31.5510 C   0  0  0  0  0  3  0  0  0  0  0  0
   37.7740   24.9560   32.0310 C   0  0  0  0  0  3  0  0  0  0  0  0
  2  3  1  0  0  0  0
  2  1  1  0  0  0  0
  3 13  1  0  0  0  0
  4  8  1  0  0  0  0
  4  3  2  0  0  0  0
  5  4  1  0  0  0  0
  6  5  2  0  0  0  0
  6  7  1  0  0  0  0
  7  2  2  0  0  0  0
  9  5  1  0  0  0  0
 10  6  1  0  0  0  0
 11 16  1  0  0  0  0
 11 17  1  0  0  0  0
 12 11  2  0  0  0  0
 13 14  2  0  0  0  0
 13 12  1  0  0  0  0
 14 15  1  0  0  0  0
 15 19  1  0  0  0  0
 15 16  2  0  0  0  0
 18 12  1  0  0  0  0
 21 20  1  0  0  0  0
 22  7  1  0  0  0  0
 22 21  2  0  0  0  0
 23 22  1  0  0  0  0
 24 23  1  0  0  0  0
 25 23  2  0  0  0  0
 25 27  1  0  0  0  0
 26 25  1  0  0  0  0
 27 28  2  0  0  0  0
 28 21  1  0  0  0  0
M  END
>  <minimizedAffinity>
-5.06487656

$$$$

 OpenBabel03272503033D

 28 30  0  0  0  0  0  0  0  0999 V2000
   38.2510   21.5260   34.0150 F   0  0  0  0  0  0  0  0  0  0  0  0
   38.0160   22.7820   33.5520 C   0  0  0  0  0  0  0  0  0  0  0  0
   38.1360   23.8470   34.4040 C   0  0  0  0  0  0  0  0  0  0  0  0
   37.8870   25.0880   33.8790 C   0  0  0  0  0  0  0  0  0  0  0  0
   37.5310   25.2830   32.5590 C   0  0  0  0  0  0  0  0  0  0  0  0
   37.4160   24.1920   31.7220 C   0  0  0  0  0  0  0  0  0  0  0  0
   37.6620   22.9430   32.2280 C   0  0  0  0  0  0  0  0  0  0  0  0
   37.9770   25.9420   34.5430 H   0  0  0  0  0  0  0  0  0  0  0  0
   37.3350   26.2680   32.1540 H   0  0  0  0  0  0  0  0  0  0  0  0
   37.1390   24.3000   30.6770 H   0  0  0  0  0  0  0  0  0  0  0  0
   38.0490   23.6000   38.1770 C   0  0  0  0  0  0  0  0  0  0  0  0
   37.6650   23.8570   36.8570 C   0  0  0  0  0  0  0  0  0  0  0  0
   38.5140   23.5870   35.7860 C   0  0  0  0  0  0  0  0  0  0  0  0
   39.7210   23.0660   36.1060 N   0  0  0  0  0  0  0  0  0  0  0  0
   40.0950   22.8180   37.3710 C   0  0  0  0  0  0  0  0  0  0  0  0
   39.2650   23.0820   38.4010 N   0  0  0  0  0  0  0  0  0  0  0  0
   37.3270   23.8400   38.9440 H   0  0  0  0  0  0  0  0  0  0  0  0
   36.7100   24.2720   36.5760 H   0  0  0  0  0  0  0  0  0  0  0  0
   41.0870   22.4010   37.4950 H   0  0  0  0  0  0  0  0  0  0  0  0
   35.0040   21.6180   32.3730 Cl  0  0  0  0  0  0  0  0  0  0  0  0
   36.3420   21.0490   31.3950 C   0  0  0  0  0  0  0  0  0  0  0  0
   37.5590   21.7320   31.3850 C   0  0  0  0  0  0  0  0  0  0  0  0
   38.6300   21.2850   30.6080 C   0  0  0  0  0  0  0  0  0  0  0  0
   39.5630   21.8390   30.6230 H   0  0  0  0  0  0  0  0  0  0  0  0
   38.4710   20.1450   29.8410 C   0  0  0  0  0  0  0  0  0  0  0  0
   39.2950   19.7740   29.2230 H   0  0  0  0  0  0  0  0  0  0  0  0
   37.2560   19.4800   29.8630 C   0  0  0  0  0  3  0  0  0  0  0  0
   36.1940   19.9150   30.6270 C   0  0  0  0  0  3  0  0  0  0  0  0
  2  1  1  0  0  0  0
  2  3  1  0  0  0  0
  3 13  1  0  0  0  0
  4  3  2  0  0  0  0
  4  8  1  0  0  0  0
  5  4  1  0  0  0  0
  6  7  1  0  0  0  0
  6  5  2  0  0  0  0
  7  2  2  0  0  0  0
  9  5  1  0  0  0  0
 10  6  1  0  0  0  0
 11 16  1  0  0  0  0
 11 17  1  0  0  0  0
 12 11  2  0  0  0  0
 13 14  2  0  0  0  0
 13 12  1  0  0  0  0
 14 15  1  0  0  0  0
 15 19  1  0  0  0  0
 15 16  2  0  0  0  0
 18 12  1  0  0  0  0
 21 20  1  0  0  0  0
 22 21  1  0  0  0  0
 22  7  1  0  0  0  0
 23 24  1  0  0  0  0
 23 22  2  0  0  0  0
 25 27  2  0  0  0  0
 25 23  1  0  0  0  0
 26 25  1  0  0  0  0
 27 28  1  0  0  0  0
 28 21  2  0  0  0  0
M  END
>  <minimizedAffinity>
-5.00831127

$$$$

 OpenBabel03272503033D

 28 30  0  0  0  0  0  0  0  0999 V2000
   38.0370   23.7230   34.1400 F   0  0  0  0  0  0  0  0  0  0  0  0
   38.7900   24.8480   34.0120 C   0  0  0  0  0  0  0  0  0  0  0  0
   38.4270   25.7990   33.0980 C   0  0  0  0  0  0  0  0  0  0  0  0
   39.2260   26.9110   33.0160 C   0  0  0  0  0  0  0  0  0  0  0  0
   40.3460   27.0860   33.8040 C   0  0  0  0  0  0  0  0  0  0  0  0
   40.6890   26.1090   34.7170 C   0  0  0  0  0  0  0  0  0  0  0  0
   39.9030   24.9910   34.8150 C   0  0  0  0  0  0  0  0  0  0  0  0
   38.9520   27.6750   32.2950 H   0  0  0  0  0  0  0  0  0  0  0  0
   40.9710   27.9670   33.7310 H   0  0  0  0  0  0  0  0  0  0  0  0
   41.5610   26.2060   35.3570 H   0  0  0  0  0  0  0  0  0  0  0  0
   35.1970   26.3370   31.2060 C   0  0  0  0  0  0  0  0  0  0  0  0
   36.3340   26.5830   31.9820 C   0  0  0  0  0  0  0  0  0  0  0  0
   37.2380   25.5670   32.2920 C   0  0  0  0  0  0  0  0  0  0  0  0
   36.9430   24.3430   31.7960 N   0  0  0  0  0  0  0  0  0  0  0  0
   35.8530   24.1030   31.0510 C   0  0  0  0  0  0  0  0  0  0  0  0
   34.9840   25.0920   30.7570 N   0  0  0  0  0  0  0  0  0  0  0  0
   34.5520   27.1830   31.0160 H   0  0  0  0  0  0  0  0  0  0  0  0
   36.5910   27.5470   32.3890 H   0  0  0  0  0  0  0  0  0  0  0  0
   35.7300   23.0800   30.7150 H   0  0  0  0  0  0  0  0  0  0  0  0
   42.1190   23.2190   33.9280 Cl  0  0  0  0  0  0  0  0  0  0  0  0
   41.2420   23.0310   35.4330 C   0  0  0  0  0  0  0  0  0  0  0  0
   40.2130   23.9090   35.7730 C   0  0  0  0  0  0  0  0  0  0  0  0
   39.5090   23.7650   36.9710 C   0  0  0  0  0  0  0  0  0  0  0  0
   38.7130   24.4640   37.2060 H   0  0  0  0  0  0  0  0  0  0  0  0
   39.8460   22.7310   37.8260 C   0  0  0  0  0  0  0  0  0  0  0  0
   39.3100   22.5970   38.7710 H   0  0  0  0  0  0  0  0  0  0  0  0
   40.8710   21.8690   37.4710 C   0  0  0  0  0  3  0  0  0  0  0  0
   41.5700   22.0040   36.2910 C   0  0  0  0  0  3  0  0  0  0  0  0
  2  1  1  0  0  0  0
  2  7  1  0  0  0  0
  3  2  2  0  0  0  0
  4  3  1  0  0  0  0
  4  5  2  0  0  0  0
  5  6  1  0  0  0  0
  6  7  2  0  0  0  0
  6 10  1  0  0  0  0
  7 22  1  0  0  0  0
  8  4  1  0  0  0  0
  9  5  1  0  0  0  0
 11 12  1  0  0  0  0
 12 13  2  0  0  0  0
 12 18  1  0  0  0  0
 13  3  1  0  0  0  0
 14 13  1  0  0  0  0
 15 14  2  0  0  0  0
 16 15  1  0  0  0  0
 16 11  2  0  0  0  0
 17 11  1  0  0  0  0
 19 15  1  0  0  0  0
 20 21  1  0  0  0  0
 21 22  2  0  0  0  0
 21 28  1  0  0  0  0
 22 23  1  0  0  0  0
 23 24  1  0  0  0  0
 23 25  2  0  0  0  0
 25 26  1  0  0  0  0
 27 25  1  0  0  0  0
 28 27  2  0  0  0  0
M  END
>  <minimizedAffinity>
-5.00791502

$$$$
