
 OpenBabel03272508053D

 35 38  0  0  0  0  0  0  0  0999 V2000
   38.9180   30.9130   45.7860 C   0  0  0  0  0  0  0  0  0  0  0  0
   40.0890   31.5790   46.0260 C   0  0  0  0  0  0  0  0  0  0  0  0
   40.9260   31.5120   44.9270 C   0  0  0  0  0  0  0  0  0  0  0  0
   40.2210   30.7930   44.0380 N   0  0  0  0  0  0  0  0  0  0  0  0
   39.0400   30.4350   44.5300 N   0  0  0  0  0  0  0  0  0  0  0  0
   40.3530   32.1020   46.9530 H   0  0  0  0  0  0  0  0  0  0  0  0
   41.9130   31.9150   44.7600 H   0  0  0  0  0  0  0  0  0  0  0  0
   37.7830   30.7540   46.6900 C   0  0  0  0  0  0  0  0  0  0  0  0
   37.9980   30.9730   48.0740 C   0  0  0  0  0  0  0  0  0  0  0  0
   36.9110   30.8190   48.9270 C   0  0  0  0  0  0  0  0  0  0  0  0
   35.7020   30.4670   48.3840 N   0  0  0  0  0  0  0  0  0  0  0  0
   35.5260   30.2650   47.0610 C   0  0  0  0  0  0  0  0  0  0  0  0
   36.5720   30.4100   46.2240 N   0  0  0  0  0  0  0  0  0  0  0  0
   38.9910   31.2490   48.4110 H   0  0  0  0  0  0  0  0  0  0  0  0
   34.5510   29.9870   46.6790 H   0  0  0  0  0  0  0  0  0  0  0  0
   37.1220   31.0470   50.3880 C   0  0  0  0  0  0  0  0  0  0  0  0
   36.5860   32.2880   50.6410 F   0  0  0  0  0  0  0  0  0  0  0  0
   36.4480   30.1210   51.1650 F   0  0  0  0  0  0  0  0  0  0  0  0
   38.4650   31.0450   50.7260 F   0  0  0  0  0  0  0  0  0  0  0  0
   40.5900   30.3970   42.6840 C   0  0  0  0  0  0  0  0  0  0  0  0
   40.2360   31.1550   41.5640 C   0  0  0  0  0  0  0  0  0  0  0  0
   40.5720   30.7810   40.3350 C   0  0  0  0  0  0  0  0  0  0  0  0
   41.3130   29.5760   40.1580 C   0  0  0  0  0  0  0  0  0  0  0  0
   41.4890   29.0180   41.9230 S   0  0  0  0  0  0  0  0  0  0  0  0
   39.6640   32.0960   41.6430 H   0  0  0  0  0  0  0  0  0  0  0  0
   40.4140   31.1870   39.3740 H   0  0  0  0  0  0  0  0  0  0  0  0
   39.5080   27.3360   39.1040 Cl  0  0  0  0  0  0  0  0  0  0  0  0
   41.1050   27.7960   38.5620 C   0  0  0  0  0  0  0  0  0  0  0  0
   41.8770   28.8040   39.0630 C   0  0  0  0  0  0  0  0  0  0  0  0
   43.1140   29.1800   38.6620 C   0  0  0  0  0  0  0  0  0  0  0  0
   43.6580   29.9960   39.1160 H   0  0  0  0  0  0  0  0  0  0  0  0
   43.6900   28.4700   37.6200 C   0  0  0  0  0  0  0  0  0  0  0  0
   44.6700   28.6810   37.2190 H   0  0  0  0  0  0  0  0  0  0  0  0
   42.9750   27.4220   37.0470 C   0  0  0  0  0  3  0  0  0  0  0  0
   41.7010   27.0880   37.5110 C   0  0  0  0  0  3  0  0  0  0  0  0
  1  2  1  0  0  0  0
  1  8  1  0  0  0  0
  2  6  1  0  0  0  0
  3  2  2  0  0  0  0
  4  5  1  0  0  0  0
  4  3  1  0  0  0  0
  5  1  2  0  0  0  0
  7  3  1  0  0  0  0
  8  9  1  0  0  0  0
  9 14  1  0  0  0  0
  9 10  2  0  0  0  0
 10 16  1  0  0  0  0
 11 10  1  0  0  0  0
 12 11  2  0  0  0  0
 13  8  2  0  0  0  0
 13 12  1  0  0  0  0
 15 12  1  0  0  0  0
 16 17  1  0  0  0  0
 16 19  1  0  0  0  0
 16 18  1  0  0  0  0
 20  4  1  0  0  0  0
 21 25  1  0  0  0  0
 21 20  2  0  0  0  0
 22 21  1  0  0  0  0
 23 22  2  0  0  0  0
 23 24  1  0  0  0  0
 24 20  1  0  0  0  0
 26 22  1  0  0  0  0
 28 29  1  0  0  0  0
 28 27  1  0  0  0  0
 29 23  1  0  0  0  0
 30 29  2  0  0  0  0
 30 31  1  0  0  0  0
 32 30  1  0  0  0  0
 33 32  1  0  0  0  0
 34 35  1  0  0  0  0
 34 32  2  0  0  0  0
 35 28  2  0  0  0  0
M  END
>  <minimizedAffinity>
-6.36702299

>  <minimizedRMSD>
0.762568831

$$$$
