
 OpenBabel03272507493D

 46 50  0  0  1  0  0  0  0  0999 V2000
   37.1960   27.6210   31.7360 N   0  0  0  0  0  0  0  0  0  0  0  0
   36.6790   26.3390   31.4090 C   0  0  0  0  0  0  0  0  0  0  0  0
   36.8800   25.2670   32.4110 C   0  0  0  0  0  0  0  0  0  0  0  0
   38.1620   25.2490   33.1120 C   0  0  1  0  0  0  0  0  0  0  0  0
   38.7090   26.6640   33.3680 C   0  0  0  0  0  0  0  0  0  0  0  0
   38.6030   27.4400   32.0480 C   0  0  0  0  0  0  0  0  0  0  0  0
   37.1180   25.9910   30.4310 H   0  0  0  0  0  0  0  0  0  0  0  0
   35.5920   26.4470   31.2180 H   0  0  0  0  0  0  0  0  0  0  0  0
   36.6420   24.2800   31.9870 H   0  0  0  0  0  0  0  0  0  0  0  0
   36.0930   25.5260   33.1960 H   0  0  0  0  0  0  0  0  0  0  0  0
   38.9650   24.7750   32.4940 H   0  0  0  0  0  0  0  0  0  0  0  0
   38.0830   27.2120   34.1040 H   0  0  0  0  0  0  0  0  0  0  0  0
   39.7730   26.6040   33.6130 H   0  0  0  0  0  0  0  0  0  0  0  0
   39.1050   28.4140   32.2160 H   0  0  0  0  0  0  0  0  0  0  0  0
   39.1550   26.9230   31.2390 H   0  0  0  0  0  0  0  0  0  0  0  0
   38.1090   23.2220   34.4840 C   0  0  0  0  0  0  0  0  0  0  0  0
   38.1310   24.6030   34.4480 C   0  0  0  0  0  0  0  0  0  0  0  0
   38.0990   25.3940   35.5660 C   0  0  0  0  0  0  0  0  0  0  0  0
   38.0390   24.7660   36.8040 C   0  0  0  0  0  0  0  0  0  0  0  0
   38.0160   23.3910   36.8450 C   0  0  0  0  0  0  0  0  0  0  0  0
   38.0490   22.5840   35.7120 C   0  0  0  0  0  0  0  0  0  0  0  0
   37.9550   22.9450   38.1760 O   0  0  0  0  0  0  0  0  0  0  0  0
   38.2880   24.0910   38.9530 C   0  0  0  0  0  0  0  0  0  0  0  0
   37.9950   25.1960   38.1350 O   0  0  0  0  0  0  0  0  0  0  0  0
   38.1420   22.4990   33.6810 H   0  0  0  0  0  0  0  0  0  0  0  0
   38.1180   26.4590   35.5050 H   0  0  0  0  0  0  0  0  0  0  0  0
   38.0280   21.4940   35.8200 H   0  0  0  0  0  0  0  0  0  0  0  0
   37.6260   24.1170   39.8460 H   0  0  0  0  0  0  0  0  0  0  0  0
   39.3600   24.0450   39.2510 H   0  0  0  0  0  0  0  0  0  0  0  0
   36.5210   28.8770   31.7670 C   0  0  0  0  0  0  0  0  0  0  0  0
   36.2760   29.7170   30.6870 C   0  0  0  0  0  0  0  0  0  0  0  0
   35.6000   30.8970   30.9210 C   0  0  0  0  0  0  0  0  0  0  0  0
   35.2070   31.1780   32.1910 N   0  0  0  0  0  0  0  0  0  0  0  0
   35.4500   30.3570   33.2230 C   0  0  0  0  0  0  0  0  0  0  0  0
   36.1050   29.2130   33.0010 N   0  0  0  0  0  0  0  0  0  0  0  0
   36.6560   29.3420   29.7500 H   0  0  0  0  0  0  0  0  0  0  0  0
   35.4290   31.5200   30.0650 H   0  0  0  0  0  0  0  0  0  0  0  0
   32.6060   29.5960   34.0780 Cl  0  0  0  0  0  0  0  0  0  0  0  0
   33.6990   30.5680   35.0190 C   0  0  0  0  0  0  0  0  0  0  0  0
   34.9500   30.8320   34.5090 C   0  0  0  0  0  0  0  0  0  0  0  0
   35.7500   31.6110   35.3160 C   0  0  0  0  0  0  0  0  0  0  0  0
   36.7570   31.8930   35.0340 H   0  0  0  0  0  0  0  0  0  0  0  0
   35.3080   32.0870   36.5490 C   0  0  0  0  0  0  0  0  0  0  0  0
   35.9690   32.6980   37.1540 H   0  0  0  0  0  0  0  0  0  0  0  0
   34.0450   31.7940   37.0150 C   0  0  0  0  0  3  0  0  0  0  0  0
   33.2220   31.0160   36.2310 C   0  0  0  0  0  3  0  0  0  0  0  0
  1 30  1  0  0  0  0
  1  6  1  0  0  0  0
  2  1  1  0  0  0  0
  2  3  1  0  0  0  0
  3  4  1  0  0  0  0
  3 10  1  0  0  0  0
  4 11  1  6  0  0  0
  4  5  1  0  0  0  0
  4 17  1  0  0  0  0
  5 13  1  0  0  0  0
  5 12  1  0  0  0  0
  6 14  1  0  0  0  0
  6  5  1  0  0  0  0
  7  2  1  0  0  0  0
  8  2  1  0  0  0  0
  9  3  1  0  0  0  0
 15  6  1  0  0  0  0
 16 21  1  0  0  0  0
 17 16  2  0  0  0  0
 17 18  1  0  0  0  0
 18 19  2  0  0  0  0
 19 20  1  0  0  0  0
 19 24  1  0  0  0  0
 20 22  1  0  0  0  0
 21 27  1  0  0  0  0
 21 20  2  0  0  0  0
 22 23  1  0  0  0  0
 23 29  1  0  0  0  0
 23 28  1  0  0  0  0
 24 23  1  0  0  0  0
 25 16  1  0  0  0  0
 26 18  1  0  0  0  0
 30 35  1  0  0  0  0
 31 32  1  0  0  0  0
 31 30  2  0  0  0  0
 32 33  2  0  0  0  0
 33 34  1  0  0  0  0
 34 40  1  0  0  0  0
 35 34  2  0  0  0  0
 36 31  1  0  0  0  0
 37 32  1  0  0  0  0
 38 39  1  0  0  0  0
 39 46  1  0  0  0  0
 40 39  2  0  0  0  0
 40 41  1  0  0  0  0
 41 43  2  0  0  0  0
 42 41  1  0  0  0  0
 43 45  1  0  0  0  0
 43 44  1  0  0  0  0
 46 45  2  0  0  0  0
M  END
>  <minimizedAffinity>
-6.83922529

$$$$

 OpenBabel03272507493D

 46 50  0  0  1  0  0  0  0  0999 V2000
   37.2030   27.7260   31.6350 N   0  0  0  0  0  0  0  0  0  0  0  0
   36.5680   26.4590   31.5300 C   0  0  0  0  0  0  0  0  0  0  0  0
   36.9460   25.4420   32.5380 C   0  0  0  0  0  0  0  0  0  0  0  0
   38.3530   25.3890   32.9300 C   0  0  1  0  0  0  0  0  0  0  0  0
   39.0070   26.7820   32.9490 C   0  0  0  0  0  0  0  0  0  0  0  0
   38.6350   27.4790   31.6340 C   0  0  0  0  0  0  0  0  0  0  0  0
   36.7550   26.0250   30.5070 H   0  0  0  0  0  0  0  0  0  0  0  0
   35.4730   26.6210   31.5830 H   0  0  0  0  0  0  0  0  0  0  0  0
   36.5730   24.4460   32.2540 H   0  0  0  0  0  0  0  0  0  0  0  0
   36.3730   25.7960   33.4590 H   0  0  0  0  0  0  0  0  0  0  0  0
   38.9700   24.8300   32.1830 H   0  0  0  0  0  0  0  0  0  0  0  0
   38.5930   27.4110   33.7650 H   0  0  0  0  0  0  0  0  0  0  0  0
   40.0950   26.6720   32.9510 H   0  0  0  0  0  0  0  0  0  0  0  0
   39.2060   28.4290   31.6110 H   0  0  0  0  0  0  0  0  0  0  0  0
   38.9630   26.8800   30.7620 H   0  0  0  0  0  0  0  0  0  0  0  0
   37.7180   25.1820   35.2850 C   0  0  0  0  0  0  0  0  0  0  0  0
   38.6010   24.8310   34.2830 C   0  0  0  0  0  0  0  0  0  0  0  0
   39.6930   24.0270   34.4780 C   0  0  0  0  0  0  0  0  0  0  0  0
   39.9210   23.5420   35.7590 C   0  0  0  0  0  0  0  0  0  0  0  0
   39.0450   23.8890   36.7620 C   0  0  0  0  0  0  0  0  0  0  0  0
   37.9350   24.7050   36.5680 C   0  0  0  0  0  0  0  0  0  0  0  0
   39.4400   23.3050   37.9770 O   0  0  0  0  0  0  0  0  0  0  0  0
   40.3920   22.3140   37.6060 C   0  0  0  0  0  0  0  0  0  0  0  0
   40.8860   22.7210   36.3540 O   0  0  0  0  0  0  0  0  0  0  0  0
   36.8250   25.7910   35.2520 H   0  0  0  0  0  0  0  0  0  0  0  0
   40.3570   23.7740   33.6820 H   0  0  0  0  0  0  0  0  0  0  0  0
   37.2780   24.9400   37.4130 H   0  0  0  0  0  0  0  0  0  0  0  0
   41.2230   22.3280   38.3440 H   0  0  0  0  0  0  0  0  0  0  0  0
   39.9020   21.3150   37.5740 H   0  0  0  0  0  0  0  0  0  0  0  0
   36.6100   29.0200   31.7250 C   0  0  0  0  0  0  0  0  0  0  0  0
   36.5070   29.9590   30.7070 C   0  0  0  0  0  0  0  0  0  0  0  0
   35.8920   31.1610   30.9910 C   0  0  0  0  0  0  0  0  0  0  0  0
   35.4190   31.3660   32.2480 N   0  0  0  0  0  0  0  0  0  0  0  0
   35.5260   30.4500   33.2200 C   0  0  0  0  0  0  0  0  0  0  0  0
   36.1220   29.2840   32.9490 N   0  0  0  0  0  0  0  0  0  0  0  0
   36.9340   29.6350   29.7710 H   0  0  0  0  0  0  0  0  0  0  0  0
   35.8300   31.8620   30.1810 H   0  0  0  0  0  0  0  0  0  0  0  0
   32.6390   29.6520   33.8770 Cl  0  0  0  0  0  0  0  0  0  0  0  0
   33.6810   30.5660   34.9290 C   0  0  0  0  0  0  0  0  0  0  0  0
   34.9580   30.8530   34.5030 C   0  0  0  0  0  0  0  0  0  0  0  0
   35.7140   31.5830   35.3940 C   0  0  0  0  0  0  0  0  0  0  0  0
   36.7340   31.8760   35.1830 H   0  0  0  0  0  0  0  0  0  0  0  0
   35.2070   31.9900   36.6260 C   0  0  0  0  0  0  0  0  0  0  0  0
   35.8340   32.5630   37.2990 H   0  0  0  0  0  0  0  0  0  0  0  0
   33.9200   31.6760   37.0060 C   0  0  0  0  0  3  0  0  0  0  0  0
   33.1390   30.9470   36.1360 C   0  0  0  0  0  3  0  0  0  0  0  0
  1 30  1  0  0  0  0
  2  8  1  0  0  0  0
  2  1  1  0  0  0  0
  2  3  1  0  0  0  0
  3  4  1  0  0  0  0
  3 10  1  0  0  0  0
  4 11  1  6  0  0  0
  4  5  1  0  0  0  0
  4 17  1  0  0  0  0
  5 13  1  0  0  0  0
  5 12  1  0  0  0  0
  6  1  1  0  0  0  0
  6  5  1  0  0  0  0
  7  2  1  0  0  0  0
  9  3  1  0  0  0  0
 14  6  1  0  0  0  0
 15  6  1  0  0  0  0
 16 21  1  0  0  0  0
 17 18  1  0  0  0  0
 17 16  2  0  0  0  0
 18 19  2  0  0  0  0
 19 24  1  0  0  0  0
 19 20  1  0  0  0  0
 20 22  1  0  0  0  0
 21 20  2  0  0  0  0
 21 27  1  0  0  0  0
 23 22  1  0  0  0  0
 23 28  1  0  0  0  0
 24 23  1  0  0  0  0
 25 16  1  0  0  0  0
 26 18  1  0  0  0  0
 29 23  1  0  0  0  0
 30 35  1  0  0  0  0
 31 32  1  0  0  0  0
 31 30  2  0  0  0  0
 32 33  2  0  0  0  0
 33 34  1  0  0  0  0
 34 40  1  0  0  0  0
 35 34  2  0  0  0  0
 36 31  1  0  0  0  0
 37 32  1  0  0  0  0
 38 39  1  0  0  0  0
 39 46  1  0  0  0  0
 40 39  2  0  0  0  0
 40 41  1  0  0  0  0
 41 43  2  0  0  0  0
 42 41  1  0  0  0  0
 43 45  1  0  0  0  0
 43 44  1  0  0  0  0
 46 45  2  0  0  0  0
M  END
>  <minimizedAffinity>
-6.67712307

$$$$

 OpenBabel03272507493D

 46 50  0  0  1  0  0  0  0  0999 V2000
   36.9250   27.8610   31.8420 N   0  0  0  0  0  0  0  0  0  0  0  0
   36.4270   26.5830   31.4730 C   0  0  0  0  0  0  0  0  0  0  0  0
   36.6960   25.4700   32.4130 C   0  0  0  0  0  0  0  0  0  0  0  0
   38.0050   25.4520   33.0620 C   0  0  1  0  0  0  0  0  0  0  0  0
   38.5260   26.8680   33.3650 C   0  0  0  0  0  0  0  0  0  0  0  0
   38.3480   27.7030   32.0900 C   0  0  0  0  0  0  0  0  0  0  0  0
   36.8360   26.2940   30.4620 H   0  0  0  0  0  0  0  0  0  0  0  0
   35.3320   26.6700   31.3300 H   0  0  0  0  0  0  0  0  0  0  0  0
   36.4660   24.4980   31.9510 H   0  0  0  0  0  0  0  0  0  0  0  0
   35.9350   25.6690   33.2400 H   0  0  0  0  0  0  0  0  0  0  0  0
   38.7940   25.0310   32.3890 H   0  0  0  0  0  0  0  0  0  0  0  0
   37.9170   27.3620   34.1510 H   0  0  0  0  0  0  0  0  0  0  0  0
   39.6000   26.8240   33.5650 H   0  0  0  0  0  0  0  0  0  0  0  0
   38.8310   28.6810   32.2860 H   0  0  0  0  0  0  0  0  0  0  0  0
   38.8790   27.2410   31.2360 H   0  0  0  0  0  0  0  0  0  0  0  0
   38.1130   23.3620   34.3320 C   0  0  0  0  0  0  0  0  0  0  0  0
   38.0450   24.7420   34.3650 C   0  0  0  0  0  0  0  0  0  0  0  0
   37.9850   25.4750   35.5200 C   0  0  0  0  0  0  0  0  0  0  0  0
   37.9920   24.7850   36.7260 C   0  0  0  0  0  0  0  0  0  0  0  0
   38.0590   23.4110   36.7010 C   0  0  0  0  0  0  0  0  0  0  0  0
   38.1200   22.6640   35.5280 C   0  0  0  0  0  0  0  0  0  0  0  0
   38.0560   22.8990   38.0090 O   0  0  0  0  0  0  0  0  0  0  0  0
   38.3300   24.0260   38.8350 C   0  0  0  0  0  0  0  0  0  0  0  0
   37.9490   25.1470   38.0780 O   0  0  0  0  0  0  0  0  0  0  0  0
   38.1750   22.6830   33.4940 H   0  0  0  0  0  0  0  0  0  0  0  0
   37.9340   26.5400   35.5110 H   0  0  0  0  0  0  0  0  0  0  0  0
   38.1720   21.5710   35.5830 H   0  0  0  0  0  0  0  0  0  0  0  0
   37.6870   23.9650   39.7400 H   0  0  0  0  0  0  0  0  0  0  0  0
   39.4090   24.0360   39.1110 H   0  0  0  0  0  0  0  0  0  0  0  0
   36.2200   29.0950   31.9610 C   0  0  0  0  0  0  0  0  0  0  0  0
   36.0780   30.0700   30.9820 C   0  0  0  0  0  0  0  0  0  0  0  0
   35.3510   31.2020   31.2900 C   0  0  0  0  0  0  0  0  0  0  0  0
   34.8120   31.3060   32.5330 N   0  0  0  0  0  0  0  0  0  0  0  0
   34.9570   30.3570   33.4680 C   0  0  0  0  0  0  0  0  0  0  0  0
   35.6610   29.2590   33.1730 N   0  0  0  0  0  0  0  0  0  0  0  0
   36.5700   29.8270   30.0530 H   0  0  0  0  0  0  0  0  0  0  0  0
   35.2630   31.9330   30.5100 H   0  0  0  0  0  0  0  0  0  0  0  0
   36.3620   32.2210   35.4560 Cl  0  0  0  0  0  0  0  0  0  0  0  0
   34.8170   31.4680   35.7230 C   0  0  0  0  0  0  0  0  0  0  0  0
   34.3040   30.6510   34.7400 C   0  0  0  0  0  0  0  0  0  0  0  0
   33.0800   30.0930   35.0330 C   0  0  0  0  0  0  0  0  0  0  0  0
   32.5660   29.4310   34.3480 H   0  0  0  0  0  0  0  0  0  0  0  0
   32.4270   30.3460   36.2380 C   0  0  0  0  0  0  0  0  0  0  0  0
   31.4640   29.8860   36.4300 H   0  0  0  0  0  0  0  0  0  0  0  0
   32.9820   31.1720   37.1900 C   0  0  0  0  0  3  0  0  0  0  0  0
   34.2070   31.7460   36.9260 C   0  0  0  0  0  3  0  0  0  0  0  0
  1 30  1  0  0  0  0
  1  6  1  0  0  0  0
  2  1  1  0  0  0  0
  2  3  1  0  0  0  0
  3  4  1  0  0  0  0
  3 10  1  0  0  0  0
  4 11  1  6  0  0  0
  4  5  1  0  0  0  0
  4 17  1  0  0  0  0
  5 13  1  0  0  0  0
  5 12  1  0  0  0  0
  6 14  1  0  0  0  0
  6  5  1  0  0  0  0
  7  2  1  0  0  0  0
  8  2  1  0  0  0  0
  9  3  1  0  0  0  0
 15  6  1  0  0  0  0
 16 17  2  0  0  0  0
 16 21  1  0  0  0  0
 17 18  1  0  0  0  0
 18 19  2  0  0  0  0
 19 24  1  0  0  0  0
 20 19  1  0  0  0  0
 20 22  1  0  0  0  0
 21 27  1  0  0  0  0
 21 20  2  0  0  0  0
 22 23  1  0  0  0  0
 23 29  1  0  0  0  0
 23 28  1  0  0  0  0
 24 23  1  0  0  0  0
 25 16  1  0  0  0  0
 26 18  1  0  0  0  0
 30 35  1  0  0  0  0
 31 32  1  0  0  0  0
 31 30  2  0  0  0  0
 32 33  2  0  0  0  0
 33 34  1  0  0  0  0
 34 40  1  0  0  0  0
 35 34  2  0  0  0  0
 36 31  1  0  0  0  0
 37 32  1  0  0  0  0
 38 39  1  0  0  0  0
 39 46  1  0  0  0  0
 40 41  1  0  0  0  0
 40 39  2  0  0  0  0
 41 43  2  0  0  0  0
 42 41  1  0  0  0  0
 43 44  1  0  0  0  0
 43 45  1  0  0  0  0
 46 45  2  0  0  0  0
M  END
>  <minimizedAffinity>
-6.6704855

$$$$

 OpenBabel03272507493D

 46 50  0  0  1  0  0  0  0  0999 V2000
   37.4700   25.0360   31.7290 N   0  0  0  0  0  0  0  0  0  0  0  0
   38.5210   25.9750   31.5500 C   0  0  0  0  0  0  0  0  0  0  0  0
   38.2100   27.3880   31.8650 C   0  0  0  0  0  0  0  0  0  0  0  0
   36.8850   27.8750   31.4850 C   0  0  1  0  0  0  0  0  0  0  0  0
   35.8020   26.7910   31.6260 C   0  0  0  0  0  0  0  0  0  0  0  0
   36.3390   25.5200   30.9550 C   0  0  0  0  0  0  0  0  0  0  0  0
   38.8950   25.9270   30.4870 H   0  0  0  0  0  0  0  0  0  0  0  0
   39.3780   25.6520   32.1750 H   0  0  0  0  0  0  0  0  0  0  0  0
   39.0020   28.0590   31.4980 H   0  0  0  0  0  0  0  0  0  0  0  0
   38.2320   27.3870   33.0060 H   0  0  0  0  0  0  0  0  0  0  0  0
   36.8380   28.1410   30.3990 H   0  0  0  0  0  0  0  0  0  0  0  0
   35.6250   26.5330   32.6910 H   0  0  0  0  0  0  0  0  0  0  0  0
   34.9130   27.0910   31.0650 H   0  0  0  0  0  0  0  0  0  0  0  0
   35.5070   24.7870   30.9610 H   0  0  0  0  0  0  0  0  0  0  0  0
   36.5990   25.7090   29.8960 H   0  0  0  0  0  0  0  0  0  0  0  0
   36.0410   28.7670   33.6030 C   0  0  0  0  0  0  0  0  0  0  0  0
   36.3880   29.0190   32.2900 C   0  0  0  0  0  0  0  0  0  0  0  0
   36.2740   30.2480   31.6950 C   0  0  0  0  0  0  0  0  0  0  0  0
   35.7780   31.2950   32.4600 C   0  0  0  0  0  0  0  0  0  0  0  0
   35.4300   31.0500   33.7680 C   0  0  0  0  0  0  0  0  0  0  0  0
   35.5450   29.8040   34.3760 C   0  0  0  0  0  0  0  0  0  0  0  0
   34.9530   32.2250   34.3730 O   0  0  0  0  0  0  0  0  0  0  0  0
   35.3460   33.2680   33.4880 C   0  0  0  0  0  0  0  0  0  0  0  0
   35.5180   32.6530   32.2360 O   0  0  0  0  0  0  0  0  0  0  0  0
   36.0970   27.8550   34.1810 H   0  0  0  0  0  0  0  0  0  0  0  0
   36.5520   30.4100   30.6770 H   0  0  0  0  0  0  0  0  0  0  0  0
   35.2490   29.6810   35.4240 H   0  0  0  0  0  0  0  0  0  0  0  0
   34.5150   34.0040   33.4170 H   0  0  0  0  0  0  0  0  0  0  0  0
   36.2760   33.7510   33.8650 H   0  0  0  0  0  0  0  0  0  0  0  0
   37.4630   23.8370   32.5010 C   0  0  0  0  0  0  0  0  0  0  0  0
   37.0780   22.5740   32.0700 C   0  0  0  0  0  0  0  0  0  0  0  0
   37.1450   21.5300   32.9700 C   0  0  0  0  0  0  0  0  0  0  0  0
   37.5830   21.7900   34.2300 N   0  0  0  0  0  0  0  0  0  0  0  0
   37.9510   23.0140   34.6320 C   0  0  0  0  0  0  0  0  0  0  0  0
   37.8870   24.0280   33.7620 N   0  0  0  0  0  0  0  0  0  0  0  0
   36.7570   22.5440   31.0400 H   0  0  0  0  0  0  0  0  0  0  0  0
   36.8410   20.5700   32.6040 H   0  0  0  0  0  0  0  0  0  0  0  0
   40.7880   22.0890   35.3380 Cl  0  0  0  0  0  0  0  0  0  0  0  0
   39.6340   22.7150   36.4800 C   0  0  0  0  0  0  0  0  0  0  0  0
   38.3920   23.0930   36.0210 C   0  0  0  0  0  0  0  0  0  0  0  0
   37.5400   23.5730   36.9900 C   0  0  0  0  0  0  0  0  0  0  0  0
   36.5340   23.9040   36.7640 H   0  0  0  0  0  0  0  0  0  0  0  0
   37.9230   23.6610   38.3270 C   0  0  0  0  0  0  0  0  0  0  0  0
   37.2220   24.0440   39.0600 H   0  0  0  0  0  0  0  0  0  0  0  0
   39.1780   23.2680   38.7360 C   0  0  0  0  0  3  0  0  0  0  0  0
   40.0550   22.7840   37.7890 C   0  0  0  0  0  3  0  0  0  0  0  0
  1 30  1  0  0  0  0
  2  1  1  0  0  0  0
  2  3  1  0  0  0  0
  2  8  1  0  0  0  0
  3 10  1  0  0  0  0
  4 11  1  6  0  0  0
  4  5  1  0  0  0  0
  4  3  1  0  0  0  0
  4 17  1  0  0  0  0
  5 12  1  0  0  0  0
  6 14  1  0  0  0  0
  6  5  1  0  0  0  0
  6  1  1  0  0  0  0
  7  2  1  0  0  0  0
  9  3  1  0  0  0  0
 13  5  1  0  0  0  0
 15  6  1  0  0  0  0
 16 25  1  0  0  0  0
 16 21  1  0  0  0  0
 17 16  2  0  0  0  0
 18 17  1  0  0  0  0
 18 19  2  0  0  0  0
 19 20  1  0  0  0  0
 20 22  1  0  0  0  0
 20 21  2  0  0  0  0
 21 27  1  0  0  0  0
 23 29  1  0  0  0  0
 23 22  1  0  0  0  0
 24 19  1  0  0  0  0
 24 23  1  0  0  0  0
 26 18  1  0  0  0  0
 28 23  1  0  0  0  0
 30 35  1  0  0  0  0
 31 30  2  0  0  0  0
 31 32  1  0  0  0  0
 32 33  2  0  0  0  0
 33 34  1  0  0  0  0
 34 40  1  0  0  0  0
 35 34  2  0  0  0  0
 36 31  1  0  0  0  0
 37 32  1  0  0  0  0
 38 39  1  0  0  0  0
 39 46  1  0  0  0  0
 40 39  2  0  0  0  0
 40 41  1  0  0  0  0
 41 43  2  0  0  0  0
 42 41  1  0  0  0  0
 43 45  1  0  0  0  0
 43 44  1  0  0  0  0
 46 45  2  0  0  0  0
M  END
>  <minimizedAffinity>
-6.62292385

$$$$

 OpenBabel03272507493D

 46 50  0  0  1  0  0  0  0  0999 V2000
   37.3520   27.9100   32.4780 N   0  0  0  0  0  0  0  0  0  0  0  0
   38.0180   27.2300   31.4230 C   0  0  0  0  0  0  0  0  0  0  0  0
   37.9810   25.7490   31.4600 C   0  0  0  0  0  0  0  0  0  0  0  0
   38.1080   25.1170   32.7720 C   0  0  1  0  0  0  0  0  0  0  0  0
   37.4360   25.9390   33.8850 C   0  0  0  0  0  0  0  0  0  0  0  0
   37.8980   27.3930   33.7210 C   0  0  0  0  0  0  0  0  0  0  0  0
   39.0980   27.5520   31.3860 H   0  0  0  0  0  0  0  0  0  0  0  0
   37.5790   27.5720   30.4650 H   0  0  0  0  0  0  0  0  0  0  0  0
   38.6910   25.3180   30.7380 H   0  0  0  0  0  0  0  0  0  0  0  0
   36.9200   25.5300   31.1040 H   0  0  0  0  0  0  0  0  0  0  0  0
   39.1750   25.0660   33.1040 H   0  0  0  0  0  0  0  0  0  0  0  0
   36.3310   25.9470   33.7700 H   0  0  0  0  0  0  0  0  0  0  0  0
   37.8020   25.6000   34.8580 H   0  0  0  0  0  0  0  0  0  0  0  0
   37.5010   27.9490   34.5950 H   0  0  0  0  0  0  0  0  0  0  0  0
   39.0020   27.4650   33.7640 H   0  0  0  0  0  0  0  0  0  0  0  0
   37.8960   22.9710   33.9310 C   0  0  0  0  0  0  0  0  0  0  0  0
   37.5000   23.7660   32.8730 C   0  0  0  0  0  0  0  0  0  0  0  0
   36.6100   23.3670   31.9110 C   0  0  0  0  0  0  0  0  0  0  0  0
   36.0790   22.0880   32.0100 C   0  0  0  0  0  0  0  0  0  0  0  0
   36.4690   21.2910   33.0620 C   0  0  0  0  0  0  0  0  0  0  0  0
   37.3730   21.6930   34.0410 C   0  0  0  0  0  0  0  0  0  0  0  0
   35.8280   20.0430   32.9910 O   0  0  0  0  0  0  0  0  0  0  0  0
   34.7750   20.2340   32.0510 C   0  0  0  0  0  0  0  0  0  0  0  0
   35.1720   21.3280   31.2630 O   0  0  0  0  0  0  0  0  0  0  0  0
   38.5720   23.1760   34.7480 H   0  0  0  0  0  0  0  0  0  0  0  0
   36.3250   24.0060   31.1060 H   0  0  0  0  0  0  0  0  0  0  0  0
   37.6380   21.0050   34.8510 H   0  0  0  0  0  0  0  0  0  0  0  0
   34.7080   19.3300   31.4070 H   0  0  0  0  0  0  0  0  0  0  0  0
   33.8180   20.4130   32.5910 H   0  0  0  0  0  0  0  0  0  0  0  0
   36.3420   28.9130   32.3980 C   0  0  0  0  0  0  0  0  0  0  0  0
   35.8790   29.5380   31.2470 C   0  0  0  0  0  0  0  0  0  0  0  0
   34.8870   30.4880   31.3760 C   0  0  0  0  0  0  0  0  0  0  0  0
   34.4130   30.7650   32.6200 N   0  0  0  0  0  0  0  0  0  0  0  0
   34.8700   30.1540   33.7220 C   0  0  0  0  0  0  0  0  0  0  0  0
   35.8320   29.2330   33.6010 N   0  0  0  0  0  0  0  0  0  0  0  0
   36.3630   29.1990   30.3440 H   0  0  0  0  0  0  0  0  0  0  0  0
   34.5540   30.9490   30.4670 H   0  0  0  0  0  0  0  0  0  0  0  0
   36.3460   32.1550   35.5160 Cl  0  0  0  0  0  0  0  0  0  0  0  0
   34.7820   31.4760   35.8620 C   0  0  0  0  0  0  0  0  0  0  0  0
   34.2380   30.5860   34.9640 C   0  0  0  0  0  0  0  0  0  0  0  0
   33.0010   30.0950   35.3170 C   0  0  0  0  0  0  0  0  0  0  0  0
   32.4610   29.3870   34.7000 H   0  0  0  0  0  0  0  0  0  0  0  0
   32.3650   30.4800   36.4950 C   0  0  0  0  0  0  0  0  0  0  0  0
   31.3910   30.0700   36.7370 H   0  0  0  0  0  0  0  0  0  0  0  0
   32.9530   31.3760   37.3620 C   0  0  0  0  0  3  0  0  0  0  0  0
   34.1920   31.8860   37.0370 C   0  0  0  0  0  3  0  0  0  0  0  0
  1  6  1  0  0  0  0
  2  3  1  0  0  0  0
  2  1  1  0  0  0  0
  3  4  1  0  0  0  0
  4 17  1  0  0  0  0
  4 11  1  1  0  0  0
  4  5  1  0  0  0  0
  5 13  1  0  0  0  0
  6 15  1  0  0  0  0
  6  5  1  0  0  0  0
  6 14  1  0  0  0  0
  7  2  1  0  0  0  0
  8  2  1  0  0  0  0
  9  3  1  0  0  0  0
 10  3  1  0  0  0  0
 12  5  1  0  0  0  0
 16 21  1  0  0  0  0
 16 25  1  0  0  0  0
 17 16  2  0  0  0  0
 18 19  2  0  0  0  0
 18 17  1  0  0  0  0
 19 20  1  0  0  0  0
 20 21  2  0  0  0  0
 21 27  1  0  0  0  0
 22 20  1  0  0  0  0
 23 29  1  0  0  0  0
 23 22  1  0  0  0  0
 24 19  1  0  0  0  0
 24 23  1  0  0  0  0
 26 18  1  0  0  0  0
 28 23  1  0  0  0  0
 30  1  1  0  0  0  0
 30 35  1  0  0  0  0
 31 32  1  0  0  0  0
 31 30  2  0  0  0  0
 32 33  2  0  0  0  0
 33 34  1  0  0  0  0
 34 40  1  0  0  0  0
 35 34  2  0  0  0  0
 36 31  1  0  0  0  0
 37 32  1  0  0  0  0
 38 39  1  0  0  0  0
 39 46  1  0  0  0  0
 40 41  1  0  0  0  0
 40 39  2  0  0  0  0
 41 43  2  0  0  0  0
 42 41  1  0  0  0  0
 43 44  1  0  0  0  0
 43 45  1  0  0  0  0
 46 45  2  0  0  0  0
M  END
>  <minimizedAffinity>
-6.61991644

$$$$

 OpenBabel03272507493D

 46 50  0  0  1  0  0  0  0  0999 V2000
   37.3390   27.9830   32.3690 N   0  0  0  0  0  0  0  0  0  0  0  0
   38.2630   27.5880   31.3650 C   0  0  0  0  0  0  0  0  0  0  0  0
   38.2700   26.1530   30.9970 C   0  0  0  0  0  0  0  0  0  0  0  0
   38.0990   25.1900   32.0830 C   0  0  1  0  0  0  0  0  0  0  0  0
   37.1490   25.7060   33.1780 C   0  0  0  0  0  0  0  0  0  0  0  0
   37.5860   27.1360   33.5240 C   0  0  0  0  0  0  0  0  0  0  0  0
   39.3080   27.8740   31.6770 H   0  0  0  0  0  0  0  0  0  0  0  0
   38.0560   28.1860   30.4560 H   0  0  0  0  0  0  0  0  0  0  0  0
   39.1470   25.9070   30.3800 H   0  0  0  0  0  0  0  0  0  0  0  0
   37.3340   26.0700   30.3500 H   0  0  0  0  0  0  0  0  0  0  0  0
   39.0550   25.0180   32.6380 H   0  0  0  0  0  0  0  0  0  0  0  0
   36.1050   25.7790   32.8050 H   0  0  0  0  0  0  0  0  0  0  0  0
   37.2810   25.1090   34.0840 H   0  0  0  0  0  0  0  0  0  0  0  0
   36.9710   27.4510   34.3910 H   0  0  0  0  0  0  0  0  0  0  0  0
   38.6440   27.1600   33.8500 H   0  0  0  0  0  0  0  0  0  0  0  0
   36.1590   23.7370   31.7330 C   0  0  0  0  0  0  0  0  0  0  0  0
   37.5320   23.8810   31.6710 C   0  0  0  0  0  0  0  0  0  0  0  0
   38.3860   22.8840   31.2790 C   0  0  0  0  0  0  0  0  0  0  0  0
   37.8330   21.6590   30.9270 C   0  0  0  0  0  0  0  0  0  0  0  0
   36.4670   21.5090   30.9880 C   0  0  0  0  0  0  0  0  0  0  0  0
   35.5970   22.5200   31.3850 C   0  0  0  0  0  0  0  0  0  0  0  0
   36.1020   20.2100   30.5970 O   0  0  0  0  0  0  0  0  0  0  0  0
   37.2670   19.6850   29.9690 C   0  0  0  0  0  0  0  0  0  0  0  0
   38.3400   20.4310   30.4860 O   0  0  0  0  0  0  0  0  0  0  0  0
   35.3920   24.4450   32.0110 H   0  0  0  0  0  0  0  0  0  0  0  0
   39.4420   23.0280   31.2410 H   0  0  0  0  0  0  0  0  0  0  0  0
   34.5180   22.3300   31.4100 H   0  0  0  0  0  0  0  0  0  0  0  0
   37.3840   18.6220   30.2750 H   0  0  0  0  0  0  0  0  0  0  0  0
   37.1700   19.7740   28.8630 H   0  0  0  0  0  0  0  0  0  0  0  0
   36.3430   29.0020   32.3180 C   0  0  0  0  0  0  0  0  0  0  0  0
   35.8840   29.6600   31.1830 C   0  0  0  0  0  0  0  0  0  0  0  0
   34.9070   30.6210   31.3390 C   0  0  0  0  0  0  0  0  0  0  0  0
   34.4430   30.8760   32.5910 N   0  0  0  0  0  0  0  0  0  0  0  0
   34.8960   30.2330   33.6760 C   0  0  0  0  0  0  0  0  0  0  0  0
   35.8430   29.3010   33.5300 N   0  0  0  0  0  0  0  0  0  0  0  0
   36.3590   29.3350   30.2710 H   0  0  0  0  0  0  0  0  0  0  0  0
   34.5760   31.1080   30.4430 H   0  0  0  0  0  0  0  0  0  0  0  0
   36.3620   32.2520   35.4590 Cl  0  0  0  0  0  0  0  0  0  0  0  0
   34.8170   31.5420   35.8260 C   0  0  0  0  0  0  0  0  0  0  0  0
   34.2750   30.6460   34.9310 C   0  0  0  0  0  0  0  0  0  0  0  0
   33.0540   30.1290   35.3010 C   0  0  0  0  0  0  0  0  0  0  0  0
   32.5180   29.4150   34.6880 H   0  0  0  0  0  0  0  0  0  0  0  0
   32.4300   30.4960   36.4920 C   0  0  0  0  0  0  0  0  0  0  0  0
   31.4680   30.0650   36.7460 H   0  0  0  0  0  0  0  0  0  0  0  0
   33.0150   31.3970   37.3540 C   0  0  0  0  0  3  0  0  0  0  0  0
   34.2380   31.9330   37.0120 C   0  0  0  0  0  3  0  0  0  0  0  0
  1  6  1  0  0  0  0
  2  7  1  0  0  0  0
  2  1  1  0  0  0  0
  3  2  1  0  0  0  0
  3  4  1  0  0  0  0
  4 11  1  1  0  0  0
  4  5  1  0  0  0  0
  5  6  1  0  0  0  0
  5 13  1  0  0  0  0
  6 15  1  0  0  0  0
  6 14  1  0  0  0  0
  8  2  1  0  0  0  0
  9  3  1  0  0  0  0
 10  3  1  0  0  0  0
 12  5  1  0  0  0  0
 16 25  1  0  0  0  0
 17 16  1  0  0  0  0
 17  4  1  0  0  0  0
 18 17  2  0  0  0  0
 19 20  2  0  0  0  0
 19 18  1  0  0  0  0
 20 21  1  0  0  0  0
 21 27  1  0  0  0  0
 21 16  2  0  0  0  0
 22 20  1  0  0  0  0
 23 28  1  0  0  0  0
 23 24  1  0  0  0  0
 23 22  1  0  0  0  0
 24 19  1  0  0  0  0
 26 18  1  0  0  0  0
 29 23  1  0  0  0  0
 30  1  1  0  0  0  0
 30 35  1  0  0  0  0
 31 32  1  0  0  0  0
 31 30  2  0  0  0  0
 32 33  2  0  0  0  0
 33 34  1  0  0  0  0
 34 40  1  0  0  0  0
 35 34  2  0  0  0  0
 36 31  1  0  0  0  0
 37 32  1  0  0  0  0
 38 39  1  0  0  0  0
 39 46  1  0  0  0  0
 40 41  1  0  0  0  0
 40 39  2  0  0  0  0
 41 43  2  0  0  0  0
 42 41  1  0  0  0  0
 43 44  1  0  0  0  0
 43 45  1  0  0  0  0
 46 45  2  0  0  0  0
M  END
>  <minimizedAffinity>
-6.50335598

$$$$

 OpenBabel03272507493D

 46 50  0  0  1  0  0  0  0  0999 V2000
   38.0120   27.0730   32.8880 N   0  0  0  0  0  0  0  0  0  0  0  0
   37.5380   27.7830   31.7520 C   0  0  0  0  0  0  0  0  0  0  0  0
   36.8080   29.0450   32.0160 C   0  0  0  0  0  0  0  0  0  0  0  0
   35.9070   29.0600   33.1670 C   0  0  1  0  0  0  0  0  0  0  0  0
   36.4360   28.2110   34.3350 C   0  0  0  0  0  0  0  0  0  0  0  0
   36.8670   26.8570   33.7570 C   0  0  0  0  0  0  0  0  0  0  0  0
   36.8700   27.1130   31.1390 H   0  0  0  0  0  0  0  0  0  0  0  0
   38.4060   28.0050   31.1010 H   0  0  0  0  0  0  0  0  0  0  0  0
   36.3020   29.4060   31.1080 H   0  0  0  0  0  0  0  0  0  0  0  0
   37.6580   29.7620   32.2690 H   0  0  0  0  0  0  0  0  0  0  0  0
   34.9250   28.5800   32.9300 H   0  0  0  0  0  0  0  0  0  0  0  0
   37.3460   28.6640   34.7840 H   0  0  0  0  0  0  0  0  0  0  0  0
   35.6220   28.0090   35.0360 H   0  0  0  0  0  0  0  0  0  0  0  0
   37.1360   26.2170   34.6220 H   0  0  0  0  0  0  0  0  0  0  0  0
   36.0250   26.3620   33.2350 H   0  0  0  0  0  0  0  0  0  0  0  0
   35.6060   31.4720   32.8740 C   0  0  0  0  0  0  0  0  0  0  0  0
   35.6650   30.4040   33.7490 C   0  0  0  0  0  0  0  0  0  0  0  0
   35.5410   30.5250   35.1080 C   0  0  0  0  0  0  0  0  0  0  0  0
   35.3460   31.7970   35.6310 C   0  0  0  0  0  0  0  0  0  0  0  0
   35.2870   32.8650   34.7650 C   0  0  0  0  0  0  0  0  0  0  0  0
   35.4130   32.7460   33.3840 C   0  0  0  0  0  0  0  0  0  0  0  0
   35.0860   34.0590   35.4770 O   0  0  0  0  0  0  0  0  0  0  0  0
   34.6830   33.6370   36.7760 C   0  0  0  0  0  0  0  0  0  0  0  0
   35.1760   32.3290   36.9150 O   0  0  0  0  0  0  0  0  0  0  0  0
   35.6780   31.5010   31.7970 H   0  0  0  0  0  0  0  0  0  0  0  0
   35.5900   29.6800   35.7570 H   0  0  0  0  0  0  0  0  0  0  0  0
   35.3550   33.6400   32.7540 H   0  0  0  0  0  0  0  0  0  0  0  0
   35.1760   34.2910   37.5290 H   0  0  0  0  0  0  0  0  0  0  0  0
   33.5740   33.6940   36.8620 H   0  0  0  0  0  0  0  0  0  0  0  0
   39.3360   26.6290   33.1770 C   0  0  0  0  0  0  0  0  0  0  0  0
   40.5140   27.1050   32.6150 C   0  0  0  0  0  0  0  0  0  0  0  0
   41.7050   26.5460   33.0300 C   0  0  0  0  0  0  0  0  0  0  0  0
   41.6670   25.5600   33.9640 N   0  0  0  0  0  0  0  0  0  0  0  0
   40.5220   25.1100   34.4970 C   0  0  0  0  0  0  0  0  0  0  0  0
   39.3660   25.6490   34.0980 N   0  0  0  0  0  0  0  0  0  0  0  0
   40.3640   27.8890   31.8900 H   0  0  0  0  0  0  0  0  0  0  0  0
   42.5940   26.9380   32.5750 H   0  0  0  0  0  0  0  0  0  0  0  0
   38.1690   24.4250   36.3390 Cl  0  0  0  0  0  0  0  0  0  0  0  0
   39.7180   23.6350   36.3720 C   0  0  0  0  0  0  0  0  0  0  0  0
   40.6860   24.0470   35.4840 C   0  0  0  0  0  0  0  0  0  0  0  0
   41.8830   23.3730   35.5800 C   0  0  0  0  0  0  0  0  0  0  0  0
   42.7280   23.5980   34.9410 H   0  0  0  0  0  0  0  0  0  0  0  0
   42.0800   22.3550   36.5110 C   0  0  0  0  0  0  0  0  0  0  0  0
   43.0370   21.8480   36.5540 H   0  0  0  0  0  0  0  0  0  0  0  0
   41.0780   21.9790   37.3780 C   0  0  0  0  0  3  0  0  0  0  0  0
   39.8680   22.6350   37.3060 C   0  0  0  0  0  3  0  0  0  0  0  0
  1 30  1  0  0  0  0
  1  6  1  0  0  0  0
  2  3  1  0  0  0  0
  2  1  1  0  0  0  0
  3 10  1  0  0  0  0
  3  4  1  0  0  0  0
  4 11  1  6  0  0  0
  4 17  1  0  0  0  0
  4  5  1  0  0  0  0
  5 12  1  0  0  0  0
  5 13  1  0  0  0  0
  6  5  1  0  0  0  0
  6 14  1  0  0  0  0
  7  2  1  0  0  0  0
  8  2  1  0  0  0  0
  9  3  1  0  0  0  0
 15  6  1  0  0  0  0
 16 21  2  0  0  0  0
 16 17  1  0  0  0  0
 17 18  2  0  0  0  0
 18 19  1  0  0  0  0
 18 26  1  0  0  0  0
 19 24  1  0  0  0  0
 20 22  1  0  0  0  0
 20 19  2  0  0  0  0
 21 20  1  0  0  0  0
 22 23  1  0  0  0  0
 23 29  1  0  0  0  0
 23 24  1  0  0  0  0
 23 28  1  0  0  0  0
 25 16  1  0  0  0  0
 27 21  1  0  0  0  0
 30 35  1  0  0  0  0
 31 32  1  0  0  0  0
 31 30  2  0  0  0  0
 32 33  2  0  0  0  0
 33 34  1  0  0  0  0
 34 40  1  0  0  0  0
 35 34  2  0  0  0  0
 36 31  1  0  0  0  0
 37 32  1  0  0  0  0
 38 39  1  0  0  0  0
 39 46  1  0  0  0  0
 40 41  1  0  0  0  0
 40 39  2  0  0  0  0
 41 43  2  0  0  0  0
 42 41  1  0  0  0  0
 43 44  1  0  0  0  0
 43 45  1  0  0  0  0
 46 45  2  0  0  0  0
M  END
>  <minimizedAffinity>
-6.37598991

$$$$

 OpenBabel03272507493D

 46 50  0  0  1  0  0  0  0  0999 V2000
   37.3050   27.1350   33.3490 N   0  0  0  0  0  0  0  0  0  0  0  0
   37.0910   27.9790   34.4720 C   0  0  0  0  0  0  0  0  0  0  0  0
   35.9310   28.8980   34.3990 C   0  0  0  0  0  0  0  0  0  0  0  0
   35.6610   29.5220   33.1050 C   0  0  1  0  0  0  0  0  0  0  0  0
   35.9870   28.5890   31.9260 C   0  0  0  0  0  0  0  0  0  0  0  0
   37.3810   27.9990   32.1820 C   0  0  0  0  0  0  0  0  0  0  0  0
   38.0150   28.5950   34.6650 H   0  0  0  0  0  0  0  0  0  0  0  0
   36.9780   27.3350   35.3660 H   0  0  0  0  0  0  0  0  0  0  0  0
   35.9700   29.6480   35.2030 H   0  0  0  0  0  0  0  0  0  0  0  0
   35.0570   28.1930   34.5990 H   0  0  0  0  0  0  0  0  0  0  0  0
   36.3280   30.4020   32.9220 H   0  0  0  0  0  0  0  0  0  0  0  0
   35.2860   27.7280   31.8870 H   0  0  0  0  0  0  0  0  0  0  0  0
   36.0580   29.1750   31.0070 H   0  0  0  0  0  0  0  0  0  0  0  0
   37.6490   27.4230   31.2740 H   0  0  0  0  0  0  0  0  0  0  0  0
   38.1360   28.8010   32.2950 H   0  0  0  0  0  0  0  0  0  0  0  0
   33.3220   29.5060   33.8260 C   0  0  0  0  0  0  0  0  0  0  0  0
   34.2490   29.9280   32.8930 C   0  0  0  0  0  0  0  0  0  0  0  0
   33.9320   30.6690   31.7850 C   0  0  0  0  0  0  0  0  0  0  0  0
   32.5990   31.0100   31.5930 C   0  0  0  0  0  0  0  0  0  0  0  0
   31.6710   30.5910   32.5180 C   0  0  0  0  0  0  0  0  0  0  0  0
   31.9900   29.8400   33.6450 C   0  0  0  0  0  0  0  0  0  0  0  0
   30.3870   31.0320   32.1540 O   0  0  0  0  0  0  0  0  0  0  0  0
   30.6180   32.0220   31.1570 C   0  0  0  0  0  0  0  0  0  0  0  0
   31.8870   31.7300   30.6270 O   0  0  0  0  0  0  0  0  0  0  0  0
   33.4510   28.9350   34.7350 H   0  0  0  0  0  0  0  0  0  0  0  0
   34.6720   30.9790   31.0830 H   0  0  0  0  0  0  0  0  0  0  0  0
   31.1980   29.5410   34.3420 H   0  0  0  0  0  0  0  0  0  0  0  0
   29.8560   31.9020   30.3570 H   0  0  0  0  0  0  0  0  0  0  0  0
   30.5620   33.0360   31.6140 H   0  0  0  0  0  0  0  0  0  0  0  0
   37.4340   25.7160   33.3070 C   0  0  0  0  0  0  0  0  0  0  0  0
   36.8480   24.8540   32.3880 C   0  0  0  0  0  0  0  0  0  0  0  0
   37.0970   23.5030   32.5130 C   0  0  0  0  0  0  0  0  0  0  0  0
   37.8980   23.0830   33.5270 N   0  0  0  0  0  0  0  0  0  0  0  0
   38.4560   23.9260   34.4070 C   0  0  0  0  0  0  0  0  0  0  0  0
   38.2180   25.2360   34.2890 N   0  0  0  0  0  0  0  0  0  0  0  0
   36.2420   25.3540   31.6490 H   0  0  0  0  0  0  0  0  0  0  0  0
   36.6290   22.8680   31.7870 H   0  0  0  0  0  0  0  0  0  0  0  0
   37.6530   24.1910   37.3550 Cl  0  0  0  0  0  0  0  0  0  0  0  0
   39.0450   23.3210   36.7790 C   0  0  0  0  0  0  0  0  0  0  0  0
   39.2850   23.2850   35.4230 C   0  0  0  0  0  0  0  0  0  0  0  0
   40.4080   22.5790   35.0540 C   0  0  0  0  0  0  0  0  0  0  0  0
   40.7110   22.4730   34.0200 H   0  0  0  0  0  0  0  0  0  0  0  0
   41.2260   21.9560   35.9940 C   0  0  0  0  0  0  0  0  0  0  0  0
   42.1020   21.4100   35.6620 H   0  0  0  0  0  0  0  0  0  0  0  0
   40.9430   22.0210   37.3410 C   0  0  0  0  0  3  0  0  0  0  0  0
   39.8250   22.7210   37.7420 C   0  0  0  0  0  3  0  0  0  0  0  0
  1  2  1  0  0  0  0
  2  7  1  0  0  0  0
  2  8  1  0  0  0  0
  3  2  1  0  0  0  0
  3 10  1  0  0  0  0
  3  9  1  0  0  0  0
  4 11  1  6  0  0  0
  4  3  1  0  0  0  0
  5  6  1  0  0  0  0
  5  4  1  0  0  0  0
  6 15  1  0  0  0  0
  6  1  1  0  0  0  0
 12  5  1  0  0  0  0
 13  5  1  0  0  0  0
 14  6  1  0  0  0  0
 16 25  1  0  0  0  0
 17  4  1  0  0  0  0
 17 16  2  0  0  0  0
 18 17  1  0  0  0  0
 19 18  2  0  0  0  0
 19 20  1  0  0  0  0
 20 21  2  0  0  0  0
 21 16  1  0  0  0  0
 21 27  1  0  0  0  0
 22 20  1  0  0  0  0
 23 29  1  0  0  0  0
 23 22  1  0  0  0  0
 24 23  1  0  0  0  0
 24 19  1  0  0  0  0
 26 18  1  0  0  0  0
 28 23  1  0  0  0  0
 30  1  1  0  0  0  0
 30 35  1  0  0  0  0
 31 32  1  0  0  0  0
 31 30  2  0  0  0  0
 32 33  2  0  0  0  0
 33 34  1  0  0  0  0
 34 40  1  0  0  0  0
 35 34  2  0  0  0  0
 36 31  1  0  0  0  0
 37 32  1  0  0  0  0
 39 38  1  0  0  0  0
 39 46  1  0  0  0  0
 40 39  2  0  0  0  0
 41 40  1  0  0  0  0
 41 43  2  0  0  0  0
 42 41  1  0  0  0  0
 43 45  1  0  0  0  0
 44 43  1  0  0  0  0
 45 46  2  0  0  0  0
M  END
>  <minimizedAffinity>
-6.35937071

$$$$

 OpenBabel03272507493D

 46 50  0  0  1  0  0  0  0  0999 V2000
   37.3000   26.8640   32.8890 N   0  0  0  0  0  0  0  0  0  0  0  0
   37.2990   26.0870   34.0780 C   0  0  0  0  0  0  0  0  0  0  0  0
   38.6220   25.6970   34.6180 C   0  0  0  0  0  0  0  0  0  0  0  0
   39.6500   25.3260   33.6460 C   0  0  1  0  0  0  0  0  0  0  0  0
   39.5510   26.1470   32.3490 C   0  0  0  0  0  0  0  0  0  0  0  0
   38.0810   26.1290   31.9080 C   0  0  0  0  0  0  0  0  0  0  0  0
   36.6950   25.1480   33.9170 H   0  0  0  0  0  0  0  0  0  0  0  0
   36.7510   26.6550   34.8570 H   0  0  0  0  0  0  0  0  0  0  0  0
   38.5190   24.9320   35.4020 H   0  0  0  0  0  0  0  0  0  0  0  0
   38.9770   26.6680   35.0990 H   0  0  0  0  0  0  0  0  0  0  0  0
   39.5210   24.2730   33.2900 H   0  0  0  0  0  0  0  0  0  0  0  0
   39.8120   27.2120   32.5240 H   0  0  0  0  0  0  0  0  0  0  0  0
   40.1220   25.6500   31.5600 H   0  0  0  0  0  0  0  0  0  0  0  0
   38.0450   26.6230   30.9160 H   0  0  0  0  0  0  0  0  0  0  0  0
   37.7220   25.0910   31.7690 H   0  0  0  0  0  0  0  0  0  0  0  0
   41.7630   26.5590   33.5620 C   0  0  0  0  0  0  0  0  0  0  0  0
   41.0450   25.5160   34.1150 C   0  0  0  0  0  0  0  0  0  0  0  0
   41.5580   24.6460   35.0400 C   0  0  0  0  0  0  0  0  0  0  0  0
   42.8760   24.8260   35.4400 C   0  0  0  0  0  0  0  0  0  0  0  0
   43.5960   25.8620   34.8920 C   0  0  0  0  0  0  0  0  0  0  0  0
   43.0780   26.7490   33.9520 C   0  0  0  0  0  0  0  0  0  0  0  0
   44.8990   25.8810   35.4170 O   0  0  0  0  0  0  0  0  0  0  0  0
   44.8380   25.0300   36.5560 C   0  0  0  0  0  0  0  0  0  0  0  0
   43.7410   24.1800   36.3300 O   0  0  0  0  0  0  0  0  0  0  0  0
   41.4680   27.3100   32.8420 H   0  0  0  0  0  0  0  0  0  0  0  0
   40.9770   23.8500   35.4490 H   0  0  0  0  0  0  0  0  0  0  0  0
   43.7090   27.5530   33.5580 H   0  0  0  0  0  0  0  0  0  0  0  0
   45.7660   24.4200   36.5920 H   0  0  0  0  0  0  0  0  0  0  0  0
   44.7270   25.6430   37.4790 H   0  0  0  0  0  0  0  0  0  0  0  0
   36.6760   28.1210   32.6410 C   0  0  0  0  0  0  0  0  0  0  0  0
   36.5580   28.7640   31.4150 C   0  0  0  0  0  0  0  0  0  0  0  0
   35.9120   29.9830   31.3780 C   0  0  0  0  0  0  0  0  0  0  0  0
   35.4240   30.4920   32.5390 N   0  0  0  0  0  0  0  0  0  0  0  0
   35.5460   29.8610   33.7150 C   0  0  0  0  0  0  0  0  0  0  0  0
   36.1710   28.6800   33.7550 N   0  0  0  0  0  0  0  0  0  0  0  0
   37.0000   28.2200   30.5950 H   0  0  0  0  0  0  0  0  0  0  0  0
   35.8390   30.4500   30.4150 H   0  0  0  0  0  0  0  0  0  0  0  0
   32.5900   29.3900   34.3820 Cl  0  0  0  0  0  0  0  0  0  0  0  0
   33.6490   30.4520   35.2620 C   0  0  0  0  0  0  0  0  0  0  0  0
   34.9580   30.5670   34.8490 C   0  0  0  0  0  0  0  0  0  0  0  0
   35.7260   31.4300   35.5990 C   0  0  0  0  0  0  0  0  0  0  0  0
   36.7700   31.6130   35.3820 H   0  0  0  0  0  0  0  0  0  0  0  0
   35.2010   32.1250   36.6870 C   0  0  0  0  0  0  0  0  0  0  0  0
   35.8390   32.7960   37.2510 H   0  0  0  0  0  0  0  0  0  0  0  0
   33.8830   31.9750   37.0600 C   0  0  0  0  0  3  0  0  0  0  0  0
   33.0890   31.1170   36.3300 C   0  0  0  0  0  3  0  0  0  0  0  0
  1  2  1  0  0  0  0
  2  3  1  0  0  0  0
  2  8  1  0  0  0  0
  3 10  1  0  0  0  0
  3  9  1  0  0  0  0
  4 11  1  6  0  0  0
  4 17  1  0  0  0  0
  4  3  1  0  0  0  0
  5 12  1  0  0  0  0
  5  4  1  0  0  0  0
  6  5  1  0  0  0  0
  6  1  1  0  0  0  0
  7  2  1  0  0  0  0
 13  5  1  0  0  0  0
 14  6  1  0  0  0  0
 15  6  1  0  0  0  0
 16 21  2  0  0  0  0
 16 17  1  0  0  0  0
 17 18  2  0  0  0  0
 18 19  1  0  0  0  0
 18 26  1  0  0  0  0
 19 24  1  0  0  0  0
 20 22  1  0  0  0  0
 20 19  2  0  0  0  0
 21 20  1  0  0  0  0
 22 23  1  0  0  0  0
 23 28  1  0  0  0  0
 23 29  1  0  0  0  0
 24 23  1  0  0  0  0
 25 16  1  0  0  0  0
 27 21  1  0  0  0  0
 30  1  1  0  0  0  0
 30 35  1  0  0  0  0
 31 30  2  0  0  0  0
 32 31  1  0  0  0  0
 32 33  2  0  0  0  0
 33 34  1  0  0  0  0
 34 35  2  0  0  0  0
 34 40  1  0  0  0  0
 36 31  1  0  0  0  0
 37 32  1  0  0  0  0
 38 39  1  0  0  0  0
 39 46  1  0  0  0  0
 40 39  2  0  0  0  0
 40 41  1  0  0  0  0
 41 43  2  0  0  0  0
 42 41  1  0  0  0  0
 43 45  1  0  0  0  0
 43 44  1  0  0  0  0
 46 45  2  0  0  0  0
M  END
>  <minimizedAffinity>
-6.23340559

$$$$
