
 OpenBabel03272503183D

 25 27  0  0  0  0  0  0  0  0999 V2000
   36.2470   29.6950   31.8160 C   0  0  0  0  0  0  0  0  0  0  0  0
   36.3540   28.7480   32.7520 C   0  0  0  0  0  0  0  0  0  0  0  0
   35.7470   28.8730   33.9420 C   0  0  0  0  0  0  0  0  0  0  0  0
   35.0060   30.0300   34.1460 C   0  0  0  0  0  0  0  0  0  0  0  0
   35.2290   30.9220   32.5490 S   0  0  0  0  0  0  0  0  0  0  0  0
   36.9600   27.8530   32.5180 H   0  0  0  0  0  0  0  0  0  0  0  0
   35.7540   28.1920   34.7690 H   0  0  0  0  0  0  0  0  0  0  0  0
   37.8550   28.8600   28.5250 C   0  0  0  0  0  0  0  0  0  0  0  0
   37.3420   28.6800   29.8200 C   0  0  0  0  0  0  0  0  0  0  0  0
   36.8020   29.7870   30.4720 C   0  0  0  0  0  0  0  0  0  0  0  0
   36.7900   30.9760   29.8470 N   0  0  0  0  0  0  0  0  0  0  0  0
   37.2910   31.1260   28.6000 C   0  0  0  0  0  0  0  0  0  0  0  0
   37.8170   30.0690   27.9520 N   0  0  0  0  0  0  0  0  0  0  0  0
   38.2400   27.9240   28.1410 H   0  0  0  0  0  0  0  0  0  0  0  0
   37.3300   27.7490   30.3560 H   0  0  0  0  0  0  0  0  0  0  0  0
   37.2670   32.0950   28.1240 H   0  0  0  0  0  0  0  0  0  0  0  0
   36.3940   32.1180   35.8090 Cl  0  0  0  0  0  0  0  0  0  0  0  0
   34.7760   31.5060   36.0530 C   0  0  0  0  0  0  0  0  0  0  0  0
   34.2260   30.5460   35.2360 C   0  0  0  0  0  0  0  0  0  0  0  0
   32.9720   30.0040   35.3440 C   0  0  0  0  0  0  0  0  0  0  0  0
   32.5750   29.2570   34.6870 H   0  0  0  0  0  0  0  0  0  0  0  0
   32.1580   30.4640   36.3870 C   0  0  0  0  0  0  0  0  0  0  0  0
   31.1670   30.0820   36.5270 H   0  0  0  0  0  0  0  0  0  0  0  0
   32.6580   31.4340   37.2480 C   0  0  0  0  0  3  0  0  0  0  0  0
   33.9370   31.9420   37.0830 C   0  0  0  0  0  3  0  0  0  0  0  0
  1  5  1  0  0  0  0
  1  2  2  0  0  0  0
  2  3  1  0  0  0  0
  3  4  2  0  0  0  0
  3  7  1  0  0  0  0
  4 19  1  0  0  0  0
  5  4  1  0  0  0  0
  6  2  1  0  0  0  0
  8  9  1  0  0  0  0
  9 15  1  0  0  0  0
  9 10  2  0  0  0  0
 10  1  1  0  0  0  0
 11 10  1  0  0  0  0
 12 11  2  0  0  0  0
 13  8  2  0  0  0  0
 13 12  1  0  0  0  0
 14  8  1  0  0  0  0
 16 12  1  0  0  0  0
 17 18  1  0  0  0  0
 18 25  1  0  0  0  0
 19 20  1  0  0  0  0
 19 18  2  0  0  0  0
 20 22  2  0  0  0  0
 21 20  1  0  0  0  0
 22 23  1  0  0  0  0
 22 24  1  0  0  0  0
 25 24  2  0  0  0  0
M  END
>  <minimizedAffinity>
-4.92311287

$$$$

 OpenBabel03272503183D

 25 27  0  0  0  0  0  0  0  0999 V2000
   37.4030   27.4660   34.1040 C   0  0  0  0  0  0  0  0  0  0  0  0
   37.7890   27.7060   35.3600 C   0  0  0  0  0  0  0  0  0  0  0  0
   38.5230   26.8170   36.0450 C   0  0  0  0  0  0  0  0  0  0  0  0
   38.8600   25.6440   35.3830 C   0  0  0  0  0  0  0  0  0  0  0  0
   38.0680   25.8840   33.7370 S   0  0  0  0  0  0  0  0  0  0  0  0
   37.4840   28.6640   35.8220 H   0  0  0  0  0  0  0  0  0  0  0  0
   38.8930   26.8890   37.0480 H   0  0  0  0  0  0  0  0  0  0  0  0
   34.8150   29.7470   32.6150 C   0  0  0  0  0  0  0  0  0  0  0  0
   35.5160   29.0100   33.5840 C   0  0  0  0  0  0  0  0  0  0  0  0
   36.6160   28.2600   33.1700 C   0  0  0  0  0  0  0  0  0  0  0  0
   36.9640   28.2670   31.8730 N   0  0  0  0  0  0  0  0  0  0  0  0
   36.2740   28.9840   30.9580 C   0  0  0  0  0  0  0  0  0  0  0  0
   35.2080   29.7150   31.3350 N   0  0  0  0  0  0  0  0  0  0  0  0
   33.9910   30.2780   33.0730 H   0  0  0  0  0  0  0  0  0  0  0  0
   35.2740   28.9760   34.6300 H   0  0  0  0  0  0  0  0  0  0  0  0
   36.5790   28.9680   29.9210 H   0  0  0  0  0  0  0  0  0  0  0  0
   37.3990   23.7130   37.1700 Cl  0  0  0  0  0  0  0  0  0  0  0  0
   39.0210   23.5260   36.5500 C   0  0  0  0  0  0  0  0  0  0  0  0
   39.6070   24.4670   35.7350 C   0  0  0  0  0  0  0  0  0  0  0  0
   40.8670   24.4130   35.2000 C   0  0  0  0  0  0  0  0  0  0  0  0
   41.2910   25.1660   34.5680 H   0  0  0  0  0  0  0  0  0  0  0  0
   41.6490   23.2920   35.5040 C   0  0  0  0  0  0  0  0  0  0  0  0
   42.6420   23.1870   35.1180 H   0  0  0  0  0  0  0  0  0  0  0  0
   41.1130   22.3050   36.3240 C   0  0  0  0  0  3  0  0  0  0  0  0
   39.8300   22.4210   36.8330 C   0  0  0  0  0  3  0  0  0  0  0  0
  1  2  2  0  0  0  0
  2  6  1  0  0  0  0
  2  3  1  0  0  0  0
  3  7  1  0  0  0  0
  4 19  1  0  0  0  0
  4  3  2  0  0  0  0
  5  1  1  0  0  0  0
  5  4  1  0  0  0  0
  8 14  1  0  0  0  0
  8  9  1  0  0  0  0
  9 15  1  0  0  0  0
 10  9  2  0  0  0  0
 10  1  1  0  0  0  0
 11 10  1  0  0  0  0
 12 13  1  0  0  0  0
 12 11  2  0  0  0  0
 13  8  2  0  0  0  0
 16 12  1  0  0  0  0
 18 25  1  0  0  0  0
 18 17  1  0  0  0  0
 19 18  2  0  0  0  0
 20 22  2  0  0  0  0
 20 19  1  0  0  0  0
 21 20  1  0  0  0  0
 22 24  1  0  0  0  0
 23 22  1  0  0  0  0
 24 25  2  0  0  0  0
M  END
>  <minimizedAffinity>
-4.88262796

$$$$

 OpenBabel03272503183D

 25 27  0  0  0  0  0  0  0  0999 V2000
   37.3170   26.4270   32.8590 C   0  0  0  0  0  0  0  0  0  0  0  0
   37.3360   25.1180   32.5880 C   0  0  0  0  0  0  0  0  0  0  0  0
   37.7230   24.2220   33.5070 C   0  0  0  0  0  0  0  0  0  0  0  0
   38.0980   24.7220   34.7470 C   0  0  0  0  0  0  0  0  0  0  0  0
   37.8690   26.5360   34.5220 S   0  0  0  0  0  0  0  0  0  0  0  0
   37.0230   24.7940   31.5780 H   0  0  0  0  0  0  0  0  0  0  0  0
   37.7820   23.1560   33.4160 H   0  0  0  0  0  0  0  0  0  0  0  0
   35.9780   29.7470   31.7230 C   0  0  0  0  0  0  0  0  0  0  0  0
   36.3010   28.6860   32.5840 C   0  0  0  0  0  0  0  0  0  0  0  0
   36.9440   27.5740   32.0430 C   0  0  0  0  0  0  0  0  0  0  0  0
   37.2310   27.5550   30.7310 N   0  0  0  0  0  0  0  0  0  0  0  0
   36.9100   28.5890   29.9210 C   0  0  0  0  0  0  0  0  0  0  0  0
   36.2880   29.6730   30.4220 N   0  0  0  0  0  0  0  0  0  0  0  0
   35.4850   30.5390   32.2720 H   0  0  0  0  0  0  0  0  0  0  0  0
   36.0910   28.6590   33.6370 H   0  0  0  0  0  0  0  0  0  0  0  0
   37.1540   28.5440   28.8690 H   0  0  0  0  0  0  0  0  0  0  0  0
   40.8000   23.4100   34.5680 Cl  0  0  0  0  0  0  0  0  0  0  0  0
   39.7880   23.5080   35.9880 C   0  0  0  0  0  0  0  0  0  0  0  0
   38.5620   24.1310   35.9730 C   0  0  0  0  0  0  0  0  0  0  0  0
   37.6990   24.2610   37.0290 C   0  0  0  0  0  0  0  0  0  0  0  0
   36.7500   24.7550   36.9800 H   0  0  0  0  0  0  0  0  0  0  0  0
   38.0910   23.7070   38.2540 C   0  0  0  0  0  0  0  0  0  0  0  0
   37.4630   23.7730   39.1190 H   0  0  0  0  0  0  0  0  0  0  0  0
   39.3200   23.0620   38.3340 C   0  0  0  0  0  3  0  0  0  0  0  0
   40.1470   22.9660   37.2260 C   0  0  0  0  0  3  0  0  0  0  0  0
  1  5  1  0  0  0  0
  2  1  2  0  0  0  0
  2  3  1  0  0  0  0
  3  4  2  0  0  0  0
  4 19  1  0  0  0  0
  5  4  1  0  0  0  0
  6  2  1  0  0  0  0
  7  3  1  0  0  0  0
  8 14  1  0  0  0  0
  8  9  1  0  0  0  0
  9 15  1  0  0  0  0
 10  9  2  0  0  0  0
 10  1  1  0  0  0  0
 11 10  1  0  0  0  0
 12 13  1  0  0  0  0
 12 11  2  0  0  0  0
 13  8  2  0  0  0  0
 16 12  1  0  0  0  0
 17 18  1  0  0  0  0
 18 25  1  0  0  0  0
 19 18  2  0  0  0  0
 19 20  1  0  0  0  0
 20 22  2  0  0  0  0
 21 20  1  0  0  0  0
 22 24  1  0  0  0  0
 22 23  1  0  0  0  0
 25 24  2  0  0  0  0
M  END
>  <minimizedAffinity>
-4.87005138

$$$$

 OpenBabel03272503183D

 25 27  0  0  0  0  0  0  0  0999 V2000
   36.3670   26.2450   31.7990 C   0  0  0  0  0  0  0  0  0  0  0  0
   37.2650   25.6550   32.5940 C   0  0  0  0  0  0  0  0  0  0  0  0
   37.3510   24.3200   32.6770 C   0  0  0  0  0  0  0  0  0  0  0  0
   36.4660   23.5870   31.8960 C   0  0  0  0  0  0  0  0  0  0  0  0
   35.5090   24.9120   31.0460 S   0  0  0  0  0  0  0  0  0  0  0  0
   37.9370   26.3040   33.1860 H   0  0  0  0  0  0  0  0  0  0  0  0
   38.0210   23.7300   33.2710 H   0  0  0  0  0  0  0  0  0  0  0  0
   36.4050   29.7160   30.3630 C   0  0  0  0  0  0  0  0  0  0  0  0
   36.7410   28.3640   30.5410 C   0  0  0  0  0  0  0  0  0  0  0  0
   36.0840   27.6500   31.5420 C   0  0  0  0  0  0  0  0  0  0  0  0
   35.1630   28.2730   32.2960 N   0  0  0  0  0  0  0  0  0  0  0  0
   34.8570   29.5760   32.1070 C   0  0  0  0  0  0  0  0  0  0  0  0
   35.4780   30.2840   31.1460 N   0  0  0  0  0  0  0  0  0  0  0  0
   36.9870   30.1440   29.5570 H   0  0  0  0  0  0  0  0  0  0  0  0
   37.4690   27.8270   29.9620 H   0  0  0  0  0  0  0  0  0  0  0  0
   34.1110   30.0480   32.7300 H   0  0  0  0  0  0  0  0  0  0  0  0
   38.5460   22.1850   30.2330 Cl  0  0  0  0  0  0  0  0  0  0  0  0
   37.1250   21.4590   30.9440 C   0  0  0  0  0  0  0  0  0  0  0  0
   36.2270   22.1850   31.6920 C   0  0  0  0  0  0  0  0  0  0  0  0
   35.0890   21.7100   32.2880 C   0  0  0  0  0  0  0  0  0  0  0  0
   34.4120   22.3060   32.8660 H   0  0  0  0  0  0  0  0  0  0  0  0
   34.7970   20.3500   32.1280 C   0  0  0  0  0  0  0  0  0  0  0  0
   33.9230   19.9140   32.5680 H   0  0  0  0  0  0  0  0  0  0  0  0
   35.6650   19.5620   31.3810 C   0  0  0  0  0  3  0  0  0  0  0  0
   36.8020   20.1060   30.8040 C   0  0  0  0  0  3  0  0  0  0  0  0
  1  2  2  0  0  0  0
  2  3  1  0  0  0  0
  2  6  1  0  0  0  0
  3  7  1  0  0  0  0
  4  3  2  0  0  0  0
  5  1  1  0  0  0  0
  5  4  1  0  0  0  0
  8  9  2  0  0  0  0
  8 13  1  0  0  0  0
  9 10  1  0  0  0  0
 10  1  1  0  0  0  0
 10 11  2  0  0  0  0
 12 11  1  0  0  0  0
 12 16  1  0  0  0  0
 13 12  2  0  0  0  0
 14  8  1  0  0  0  0
 15  9  1  0  0  0  0
 17 18  1  0  0  0  0
 18 19  1  0  0  0  0
 19  4  1  0  0  0  0
 19 20  2  0  0  0  0
 20 21  1  0  0  0  0
 22 20  1  0  0  0  0
 22 23  1  0  0  0  0
 24 22  2  0  0  0  0
 25 18  2  0  0  0  0
 25 24  1  0  0  0  0
M  END
>  <minimizedAffinity>
-4.84509945

$$$$

 OpenBabel03272503183D

 25 27  0  0  0  0  0  0  0  0999 V2000
   38.0740   24.9420   34.7700 C   0  0  0  0  0  0  0  0  0  0  0  0
   37.7830   24.4510   33.5620 C   0  0  0  0  0  0  0  0  0  0  0  0
   37.4120   25.2550   32.5540 C   0  0  0  0  0  0  0  0  0  0  0  0
   37.3490   26.6140   32.8310 C   0  0  0  0  0  0  0  0  0  0  0  0
   37.8460   26.6740   34.6040 S   0  0  0  0  0  0  0  0  0  0  0  0
   37.8560   23.3570   33.4150 H   0  0  0  0  0  0  0  0  0  0  0  0
   37.1540   24.9880   31.5490 H   0  0  0  0  0  0  0  0  0  0  0  0
   39.9220   22.8350   37.2720 C   0  0  0  0  0  0  0  0  0  0  0  0
   39.5900   23.4260   36.0420 C   0  0  0  0  0  0  0  0  0  0  0  0
   38.4920   24.2850   36.0010 C   0  0  0  0  0  0  0  0  0  0  0  0
   37.7970   24.5160   37.1260 N   0  0  0  0  0  0  0  0  0  0  0  0
   38.1360   23.9350   38.3000 C   0  0  0  0  0  0  0  0  0  0  0  0
   39.1920   23.1030   38.3620 N   0  0  0  0  0  0  0  0  0  0  0  0
   40.7890   22.1970   37.1590 H   0  0  0  0  0  0  0  0  0  0  0  0
   40.1170   23.2700   35.1190 H   0  0  0  0  0  0  0  0  0  0  0  0
   37.5560   24.1420   39.1880 H   0  0  0  0  0  0  0  0  0  0  0  0
   39.4110   27.4330   30.7990 Cl  0  0  0  0  0  0  0  0  0  0  0  0
   37.8910   28.2330   31.1120 C   0  0  0  0  0  0  0  0  0  0  0  0
   37.0090   27.7830   32.0670 C   0  0  0  0  0  0  0  0  0  0  0  0
   35.7970   28.3370   32.3860 C   0  0  0  0  0  0  0  0  0  0  0  0
   35.1350   27.9570   33.1370 H   0  0  0  0  0  0  0  0  0  0  0  0
   35.4040   29.4790   31.6770 C   0  0  0  0  0  0  0  0  0  0  0  0
   34.4700   29.9620   31.8780 H   0  0  0  0  0  0  0  0  0  0  0  0
   36.2530   29.9860   30.6990 C   0  0  0  0  0  3  0  0  0  0  0  0
   37.4670   29.3750   30.4250 C   0  0  0  0  0  3  0  0  0  0  0  0
  1 10  1  0  0  0  0
  2  1  2  0  0  0  0
  3  4  2  0  0  0  0
  3  2  1  0  0  0  0
  4  5  1  0  0  0  0
  5  1  1  0  0  0  0
  6  2  1  0  0  0  0
  7  3  1  0  0  0  0
  8 13  1  0  0  0  0
  9  8  2  0  0  0  0
 10  9  1  0  0  0  0
 10 11  2  0  0  0  0
 11 12  1  0  0  0  0
 12 13  2  0  0  0  0
 12 16  1  0  0  0  0
 14  8  1  0  0  0  0
 15  9  1  0  0  0  0
 17 18  1  0  0  0  0
 18 19  1  0  0  0  0
 19 20  2  0  0  0  0
 19  4  1  0  0  0  0
 20 21  1  0  0  0  0
 22 23  1  0  0  0  0
 22 20  1  0  0  0  0
 24 22  2  0  0  0  0
 25 24  1  0  0  0  0
 25 18  2  0  0  0  0
M  END
>  <minimizedAffinity>
-4.82664776

$$$$

 OpenBabel03272503183D

 25 27  0  0  0  0  0  0  0  0999 V2000
   37.3630   26.7350   33.8010 C   0  0  0  0  0  0  0  0  0  0  0  0
   37.3790   25.5370   33.2100 C   0  0  0  0  0  0  0  0  0  0  0  0
   38.0800   24.5150   33.7240 C   0  0  0  0  0  0  0  0  0  0  0  0
   38.7820   24.7670   34.8950 C   0  0  0  0  0  0  0  0  0  0  0  0
   38.3850   26.5370   35.2150 S   0  0  0  0  0  0  0  0  0  0  0  0
   36.7950   25.4110   32.2790 H   0  0  0  0  0  0  0  0  0  0  0  0
   38.1740   23.5160   33.3490 H   0  0  0  0  0  0  0  0  0  0  0  0
   35.9820   29.6500   31.8760 C   0  0  0  0  0  0  0  0  0  0  0  0
   36.6530   28.4420   32.1300 C   0  0  0  0  0  0  0  0  0  0  0  0
   36.6910   27.9760   33.4440 C   0  0  0  0  0  0  0  0  0  0  0  0
   36.0910   28.6890   34.4110 N   0  0  0  0  0  0  0  0  0  0  0  0
   35.4510   29.8500   34.1420 C   0  0  0  0  0  0  0  0  0  0  0  0
   35.4030   30.3190   32.8810 N   0  0  0  0  0  0  0  0  0  0  0  0
   36.0310   29.8900   30.8220 H   0  0  0  0  0  0  0  0  0  0  0  0
   37.1450   27.8400   31.3890 H   0  0  0  0  0  0  0  0  0  0  0  0
   34.9780   30.4010   34.9420 H   0  0  0  0  0  0  0  0  0  0  0  0
   37.4130   23.6090   37.3110 Cl  0  0  0  0  0  0  0  0  0  0  0  0
   39.0930   23.4100   36.8790 C   0  0  0  0  0  0  0  0  0  0  0  0
   39.6310   23.9820   35.7490 C   0  0  0  0  0  0  0  0  0  0  0  0
   40.9300   23.8860   35.3240 C   0  0  0  0  0  0  0  0  0  0  0  0
   41.3140   24.3450   34.4360 H   0  0  0  0  0  0  0  0  0  0  0  0
   41.8110   23.1330   36.1110 C   0  0  0  0  0  0  0  0  0  0  0  0
   42.8400   23.0180   35.8360 H   0  0  0  0  0  0  0  0  0  0  0  0
   41.3290   22.5310   37.2680 C   0  0  0  0  0  3  0  0  0  0  0  0
   40.0010   22.6680   37.6400 C   0  0  0  0  0  3  0  0  0  0  0  0
  1  5  1  0  0  0  0
  2  3  1  0  0  0  0
  2  1  2  0  0  0  0
  3  4  2  0  0  0  0
  4  5  1  0  0  0  0
  4 19  1  0  0  0  0
  6  2  1  0  0  0  0
  7  3  1  0  0  0  0
  8  9  2  0  0  0  0
  8 13  1  0  0  0  0
  9 10  1  0  0  0  0
 10  1  1  0  0  0  0
 10 11  2  0  0  0  0
 12 11  1  0  0  0  0
 12 16  1  0  0  0  0
 13 12  2  0  0  0  0
 14  8  1  0  0  0  0
 15  9  1  0  0  0  0
 18 17  1  0  0  0  0
 18 25  1  0  0  0  0
 19 18  2  0  0  0  0
 20 19  1  0  0  0  0
 20 22  2  0  0  0  0
 21 20  1  0  0  0  0
 22 24  1  0  0  0  0
 23 22  1  0  0  0  0
 24 25  2  0  0  0  0
M  END
>  <minimizedAffinity>
-4.80691481

$$$$

 OpenBabel03272503183D

 25 27  0  0  0  0  0  0  0  0999 V2000
   36.7270   28.3450   32.4320 C   0  0  0  0  0  0  0  0  0  0  0  0
   36.3220   29.5100   31.9180 C   0  0  0  0  0  0  0  0  0  0  0  0
   35.6630   30.4090   32.6640 C   0  0  0  0  0  0  0  0  0  0  0  0
   35.4290   30.0680   33.9890 C   0  0  0  0  0  0  0  0  0  0  0  0
   36.1980   28.3980   34.1040 S   0  0  0  0  0  0  0  0  0  0  0  0
   36.5450   29.7120   30.8540 H   0  0  0  0  0  0  0  0  0  0  0  0
   35.2880   31.3700   32.3730 H   0  0  0  0  0  0  0  0  0  0  0  0
   39.4150   26.1780   30.9520 C   0  0  0  0  0  0  0  0  0  0  0  0
   38.8020   27.3040   31.5250 C   0  0  0  0  0  0  0  0  0  0  0  0
   37.4450   27.2280   31.8350 C   0  0  0  0  0  0  0  0  0  0  0  0
   36.7760   26.0920   31.5770 N   0  0  0  0  0  0  0  0  0  0  0  0
   37.3870   25.0200   31.0240 C   0  0  0  0  0  0  0  0  0  0  0  0
   38.6970   25.0720   30.7170 N   0  0  0  0  0  0  0  0  0  0  0  0
   40.4620   26.3760   30.7650 H   0  0  0  0  0  0  0  0  0  0  0  0
   39.2980   28.2310   31.7480 H   0  0  0  0  0  0  0  0  0  0  0  0
   36.8210   24.1200   30.8290 H   0  0  0  0  0  0  0  0  0  0  0  0
   32.5210   29.3730   34.3320 Cl  0  0  0  0  0  0  0  0  0  0  0  0
   33.4510   30.4610   35.3330 C   0  0  0  0  0  0  0  0  0  0  0  0
   34.7820   30.7170   35.0970 C   0  0  0  0  0  0  0  0  0  0  0  0
   35.5940   31.5500   35.8200 C   0  0  0  0  0  0  0  0  0  0  0  0
   36.6290   31.7250   35.6070 H   0  0  0  0  0  0  0  0  0  0  0  0
   35.0260   32.2140   36.9140 C   0  0  0  0  0  0  0  0  0  0  0  0
   35.6050   32.8790   37.5220 H   0  0  0  0  0  0  0  0  0  0  0  0
   33.6830   31.9980   37.2050 C   0  0  0  0  0  3  0  0  0  0  0  0
   32.9160   31.1410   36.4320 C   0  0  0  0  0  3  0  0  0  0  0  0
  1  5  1  0  0  0  0
  2  1  2  0  0  0  0
  2  3  1  0  0  0  0
  3  4  2  0  0  0  0
  4  5  1  0  0  0  0
  4 19  1  0  0  0  0
  6  2  1  0  0  0  0
  7  3  1  0  0  0  0
  8  9  1  0  0  0  0
  9 15  1  0  0  0  0
  9 10  2  0  0  0  0
 10  1  1  0  0  0  0
 11 10  1  0  0  0  0
 12 11  2  0  0  0  0
 13  8  2  0  0  0  0
 13 12  1  0  0  0  0
 14  8  1  0  0  0  0
 16 12  1  0  0  0  0
 17 18  1  0  0  0  0
 18 25  1  0  0  0  0
 19 18  2  0  0  0  0
 19 20  1  0  0  0  0
 20 22  2  0  0  0  0
 21 20  1  0  0  0  0
 22 24  1  0  0  0  0
 22 23  1  0  0  0  0
 25 24  2  0  0  0  0
M  END
>  <minimizedAffinity>
-4.78737736

$$$$

 OpenBabel03272503183D

 25 27  0  0  0  0  0  0  0  0999 V2000
   37.0980   26.9170   33.6350 C   0  0  0  0  0  0  0  0  0  0  0  0
   37.1740   25.7120   33.0630 C   0  0  0  0  0  0  0  0  0  0  0  0
   37.7840   24.6870   33.6760 C   0  0  0  0  0  0  0  0  0  0  0  0
   38.3260   24.9430   34.9290 C   0  0  0  0  0  0  0  0  0  0  0  0
   37.9170   26.7220   35.1750 S   0  0  0  0  0  0  0  0  0  0  0  0
   36.7190   25.5830   32.0630 H   0  0  0  0  0  0  0  0  0  0  0  0
   37.9120   23.6820   33.3270 H   0  0  0  0  0  0  0  0  0  0  0  0
   35.8740   29.7390   31.4790 C   0  0  0  0  0  0  0  0  0  0  0  0
   36.4720   28.5180   31.8300 C   0  0  0  0  0  0  0  0  0  0  0  0
   36.4990   28.1630   33.1780 C   0  0  0  0  0  0  0  0  0  0  0  0
   35.9580   28.9930   34.0860 N   0  0  0  0  0  0  0  0  0  0  0  0
   35.3880   30.1640   33.7240 C   0  0  0  0  0  0  0  0  0  0  0  0
   35.3510   30.5260   32.4280 N   0  0  0  0  0  0  0  0  0  0  0  0
   35.9240   29.8860   30.4080 H   0  0  0  0  0  0  0  0  0  0  0  0
   36.9160   27.8260   31.1390 H   0  0  0  0  0  0  0  0  0  0  0  0
   34.9610   30.8090   34.4780 H   0  0  0  0  0  0  0  0  0  0  0  0
   41.1060   24.1450   34.0980 Cl  0  0  0  0  0  0  0  0  0  0  0  0
   40.3200   23.7440   35.6060 C   0  0  0  0  0  0  0  0  0  0  0  0
   39.0400   24.1550   35.8960 C   0  0  0  0  0  0  0  0  0  0  0  0
   38.3390   23.8940   37.0450 C   0  0  0  0  0  0  0  0  0  0  0  0
   37.3420   24.2330   37.2380 H   0  0  0  0  0  0  0  0  0  0  0  0
   38.9780   23.1310   38.0300 C   0  0  0  0  0  0  0  0  0  0  0  0
   38.4870   22.8910   38.9510 H   0  0  0  0  0  0  0  0  0  0  0  0
   40.2740   22.6840   37.7960 C   0  0  0  0  0  3  0  0  0  0  0  0
   40.9270   22.9840   36.6100 C   0  0  0  0  0  3  0  0  0  0  0  0
  1  5  1  0  0  0  0
  2  1  2  0  0  0  0
  2  3  1  0  0  0  0
  3  4  2  0  0  0  0
  4  5  1  0  0  0  0
  4 19  1  0  0  0  0
  6  2  1  0  0  0  0
  7  3  1  0  0  0  0
  8  9  2  0  0  0  0
  8 13  1  0  0  0  0
  9 10  1  0  0  0  0
 10  1  1  0  0  0  0
 10 11  2  0  0  0  0
 12 11  1  0  0  0  0
 12 16  1  0  0  0  0
 13 12  2  0  0  0  0
 14  8  1  0  0  0  0
 15  9  1  0  0  0  0
 17 18  1  0  0  0  0
 18 19  2  0  0  0  0
 18 25  1  0  0  0  0
 19 20  1  0  0  0  0
 20 21  1  0  0  0  0
 20 22  2  0  0  0  0
 22 23  1  0  0  0  0
 24 22  1  0  0  0  0
 25 24  2  0  0  0  0
M  END
>  <minimizedAffinity>
-4.73462439

$$$$

 OpenBabel03272503183D

 25 27  0  0  0  0  0  0  0  0999 V2000
   36.8790   24.8470   32.3680 C   0  0  0  0  0  0  0  0  0  0  0  0
   37.7500   24.1630   33.1150 C   0  0  0  0  0  0  0  0  0  0  0  0
   37.7440   22.8220   33.1380 C   0  0  0  0  0  0  0  0  0  0  0  0
   36.7920   22.1880   32.3500 C   0  0  0  0  0  0  0  0  0  0  0  0
   35.9130   23.6120   31.5800 S   0  0  0  0  0  0  0  0  0  0  0  0
   38.4790   24.7360   33.7170 H   0  0  0  0  0  0  0  0  0  0  0  0
   38.3820   22.1610   33.6900 H   0  0  0  0  0  0  0  0  0  0  0  0
   36.3550   28.2320   30.8240 C   0  0  0  0  0  0  0  0  0  0  0  0
   36.5320   26.8410   30.9130 C   0  0  0  0  0  0  0  0  0  0  0  0
   36.6900   26.2790   32.1790 C   0  0  0  0  0  0  0  0  0  0  0  0
   36.6680   27.0770   33.2590 N   0  0  0  0  0  0  0  0  0  0  0  0
   36.4970   28.4140   33.1490 C   0  0  0  0  0  0  0  0  0  0  0  0
   36.3430   28.9780   31.9360 N   0  0  0  0  0  0  0  0  0  0  0  0
   36.2460   28.5300   29.7900 H   0  0  0  0  0  0  0  0  0  0  0  0
   36.5550   26.1660   30.0780 H   0  0  0  0  0  0  0  0  0  0  0  0
   36.4850   29.0290   34.0370 H   0  0  0  0  0  0  0  0  0  0  0  0
   35.5510   20.7400   34.6770 Cl  0  0  0  0  0  0  0  0  0  0  0  0
   35.8770   20.0720   33.0970 C   0  0  0  0  0  0  0  0  0  0  0  0
   36.4510   20.8160   32.0910 C   0  0  0  0  0  0  0  0  0  0  0  0
   36.7450   20.3860   30.8240 C   0  0  0  0  0  0  0  0  0  0  0  0
   37.1920   20.9950   30.0650 H   0  0  0  0  0  0  0  0  0  0  0  0
   36.4370   19.0580   30.5060 C   0  0  0  0  0  0  0  0  0  0  0  0
   36.6410   18.6580   29.5330 H   0  0  0  0  0  0  0  0  0  0  0  0
   35.8560   18.2530   31.4800 C   0  0  0  0  0  3  0  0  0  0  0  0
   35.5840   18.7510   32.7450 C   0  0  0  0  0  3  0  0  0  0  0  0
  1  2  2  0  0  0  0
  2  3  1  0  0  0  0
  2  6  1  0  0  0  0
  3  7  1  0  0  0  0
  4  3  2  0  0  0  0
  5  4  1  0  0  0  0
  5  1  1  0  0  0  0
  8  9  2  0  0  0  0
  8 13  1  0  0  0  0
  9 10  1  0  0  0  0
 10  1  1  0  0  0  0
 10 11  2  0  0  0  0
 12 11  1  0  0  0  0
 12 16  1  0  0  0  0
 13 12  2  0  0  0  0
 14  8  1  0  0  0  0
 15  9  1  0  0  0  0
 18 17  1  0  0  0  0
 19  4  1  0  0  0  0
 19 18  2  0  0  0  0
 20 19  1  0  0  0  0
 21 20  1  0  0  0  0
 22 20  2  0  0  0  0
 22 24  1  0  0  0  0
 23 22  1  0  0  0  0
 24 25  2  0  0  0  0
 25 18  1  0  0  0  0
M  END
>  <minimizedAffinity>
-4.6835947

$$$$
