
 OpenBabel03272509133D

 40 43  0  0  1  0  0  0  0  0999 V2000
   35.9140   30.5960   47.8550 N   0  0  0  0  0  0  0  0  0  0  0  0
   37.0120   31.3160   48.5530 C   0  0  0  0  0  0  0  0  0  0  0  0
   37.7630   30.1540   49.1940 C   0  0  0  0  0  0  0  0  0  0  0  0
   36.6700   29.1820   49.5650 C   0  0  0  0  0  0  0  0  0  0  0  0
   35.4160   29.7380   48.9180 C   0  0  2  0  0  0  0  0  0  0  0  0
   36.5670   31.9910   49.3040 H   0  0  0  0  0  0  0  0  0  0  0  0
   37.6540   31.8350   47.8230 H   0  0  0  0  0  0  0  0  0  0  0  0
   38.4430   29.7290   48.4400 H   0  0  0  0  0  0  0  0  0  0  0  0
   38.2870   30.5030   50.1050 H   0  0  0  0  0  0  0  0  0  0  0  0
   36.8770   28.2040   49.0810 H   0  0  0  0  0  0  0  0  0  0  0  0
   36.5590   29.0990   50.6680 H   0  0  0  0  0  0  0  0  0  0  0  0
   34.9180   30.3990   49.6430 H   0  0  0  0  0  0  0  0  0  0  0  0
   32.9340   29.5810   50.4990 Cl  0  0  0  0  0  0  0  0  0  0  0  0
   33.3330   28.4930   49.1620 C   0  0  0  0  0  0  0  0  0  0  0  0
   34.5330   28.6420   48.4550 C   0  0  0  0  0  0  0  0  0  0  0  0
   34.7360   27.7380   47.4380 C   0  0  0  0  0  0  0  0  0  0  0  0
   35.6570   27.8510   46.9060 H   0  0  0  0  0  0  0  0  0  0  0  0
   33.7950   26.7660   47.1650 C   0  0  0  0  0  0  0  0  0  0  0  0
   34.0660   26.1140   46.3440 H   0  0  0  0  0  0  0  0  0  0  0  0
   32.6190   26.6360   47.8740 C   0  0  0  0  0  3  0  0  0  0  0  0
   32.3950   27.5310   48.8990 C   0  0  0  0  0  3  0  0  0  0  0  0
   33.9430   30.3420   46.5180 C   0  0  0  0  0  0  0  0  0  0  0  0
   35.3510   30.5810   46.5520 C   0  0  0  0  0  0  0  0  0  0  0  0
   36.0060   30.7410   45.3300 C   0  0  0  0  0  0  0  0  0  0  0  0
   35.2890   30.6620   44.1740 N   0  0  0  0  0  0  0  0  0  0  0  0
   33.9580   30.4320   44.1940 C   0  0  0  0  0  0  0  0  0  0  0  0
   33.2940   30.2750   45.3440 N   0  0  0  0  0  0  0  0  0  0  0  0
   33.3580   30.2140   47.4150 H   0  0  0  0  0  0  0  0  0  0  0  0
   33.4670   30.3830   43.2310 H   0  0  0  0  0  0  0  0  0  0  0  0
   37.4170   31.0000   45.2560 C   0  0  0  0  0  0  0  0  0  0  0  0
   37.8590   32.2990   45.1550 C   0  0  0  0  0  0  0  0  0  0  0  0
   39.1970   32.6400   45.0820 C   0  0  0  0  0  0  0  0  0  0  0  0
   40.1090   31.5970   45.1150 C   0  0  0  0  0  0  0  0  0  0  0  0
   39.7390   30.2630   45.2160 C   0  0  0  0  0  0  0  0  0  0  0  0
   38.3620   30.0060   45.2850 C   0  0  0  0  0  0  0  0  0  0  0  0
   37.1400   33.0880   45.1320 H   0  0  0  0  0  0  0  0  0  0  0  0
   39.5070   33.6770   45.0030 H   0  0  0  0  0  0  0  0  0  0  0  0
   41.1510   31.8770   45.0570 H   0  0  0  0  0  0  0  0  0  0  0  0
   40.4860   29.4930   45.2380 H   0  0  0  0  0  0  0  0  0  0  0  0
   38.0260   28.9640   45.3660 H   0  0  0  0  0  0  0  0  0  0  0  0
  1  2  1  0  0  0  0
  1  5  1  0  0  0  0
  2  3  1  0  0  0  0
  2  6  1  0  0  0  0
  3  4  1  0  0  0  0
  3  9  1  0  0  0  0
  4 11  1  0  0  0  0
  5  4  1  0  0  0  0
  5 12  1  1  0  0  0
  7  2  1  0  0  0  0
  8  3  1  0  0  0  0
 10  4  1  0  0  0  0
 14 13  1  0  0  0  0
 15  5  1  0  0  0  0
 15 14  2  0  0  0  0
 16 15  1  0  0  0  0
 17 16  1  0  0  0  0
 18 16  2  0  0  0  0
 18 20  1  0  0  0  0
 19 18  1  0  0  0  0
 20 21  2  0  0  0  0
 21 14  1  0  0  0  0
 22 23  1  0  0  0  0
 22 28  1  0  0  0  0
 23  1  1  0  0  0  0
 24 23  2  0  0  0  0
 25 26  2  0  0  0  0
 25 24  1  0  0  0  0
 26 27  1  0  0  0  0
 27 22  2  0  0  0  0
 29 26  1  0  0  0  0
 30 35  1  0  0  0  0
 30 24  1  0  0  0  0
 31 30  2  0  0  0  0
 32 33  2  0  0  0  0
 32 31  1  0  0  0  0
 33 34  1  0  0  0  0
 34 39  1  0  0  0  0
 34 35  2  0  0  0  0
 35 40  1  0  0  0  0
 36 31  1  0  0  0  0
 37 32  1  0  0  0  0
 38 33  1  0  0  0  0
M  END
>  <minimizedAffinity>
-4.45565319

>  <minimizedRMSD>
1.95268011

$$$$
