
 OpenBabel03272508453D

 27 29  0  0  0  0  0  0  0  0999 V2000
   35.7690   29.9410   49.7950 C   0  0  0  0  0  0  0  0  0  0  0  0
   36.7970   29.3230   50.4940 C   0  0  0  0  0  0  0  0  0  0  0  0
   37.8960   30.1040   50.1550 C   0  0  0  0  0  0  0  0  0  0  0  0
   37.5070   31.1110   49.3090 C   0  0  0  0  0  0  0  0  0  0  0  0
   36.2220   30.9830   49.1130 O   0  0  0  0  0  0  0  0  0  0  0  0
   36.7680   28.4610   51.1350 H   0  0  0  0  0  0  0  0  0  0  0  0
   38.9070   29.8980   50.5390 H   0  0  0  0  0  0  0  0  0  0  0  0
   38.5100   30.6120   46.4690 Cl  0  0  0  0  0  0  0  0  0  0  0  0
   38.8820   32.0060   47.4630 C   0  0  0  0  0  0  0  0  0  0  0  0
   38.3750   32.1320   48.7370 C   0  0  0  0  0  0  0  0  0  0  0  0
   38.7060   33.2530   49.4690 C   0  0  0  0  0  0  0  0  0  0  0  0
   38.2880   33.3150   50.4660 H   0  0  0  0  0  0  0  0  0  0  0  0
   39.5170   34.2680   49.0140 C   0  0  0  0  0  0  0  0  0  0  0  0
   39.7000   35.0970   49.6910 H   0  0  0  0  0  0  0  0  0  0  0  0
   40.0210   34.1220   47.7210 C   0  0  0  0  0  3  0  0  0  0  0  0
   39.7050   33.0100   46.9700 C   0  0  0  0  0  3  0  0  0  0  0  0
   34.3710   29.4800   49.8250 C   0  0  0  0  0  0  0  0  0  0  0  0
   33.6770   29.7620   50.8370 O   0  0  0  0  0  0  0  0  0  0  0  0
   32.2240   27.2250   47.9460 C   0  0  0  0  0  0  0  0  0  0  0  0
   32.7730   27.2710   46.6500 C   0  0  0  0  0  0  0  0  0  0  0  0
   33.8880   28.0820   46.4190 C   0  0  0  0  0  0  0  0  0  0  0  0
   34.3750   28.7800   47.4700 N   0  0  0  0  0  0  0  0  0  0  0  0
   33.8390   28.7250   48.7010 C   0  0  0  0  0  0  0  0  0  0  0  0
   32.7710   27.9510   48.9280 N   0  0  0  0  0  0  0  0  0  0  0  0
   31.3620   26.6090   48.1600 H   0  0  0  0  0  0  0  0  0  0  0  0
   32.3280   26.6860   45.8700 H   0  0  0  0  0  0  0  0  0  0  0  0
   34.3330   28.1380   45.4340 H   0  0  0  0  0  0  0  0  0  0  0  0
  1 17  1  0  0  0  0
  1  2  2  0  0  0  0
  2  6  1  0  0  0  0
  3  2  1  0  0  0  0
  3  7  1  0  0  0  0
  4  3  2  0  0  0  0
  5  4  1  0  0  0  0
  5  1  1  0  0  0  0
  8  9  1  0  0  0  0
  9 10  1  0  0  0  0
 10  4  1  0  0  0  0
 10 11  2  0  0  0  0
 11 12  1  0  0  0  0
 13 11  1  0  0  0  0
 13 14  1  0  0  0  0
 15 13  2  0  0  0  0
 16  9  2  0  0  0  0
 16 15  1  0  0  0  0
 17 18  2  0  0  0  0
 19 25  1  0  0  0  0
 19 24  1  0  0  0  0
 20 19  2  0  0  0  0
 21 20  1  0  0  0  0
 21 22  2  0  0  0  0
 22 23  1  0  0  0  0
 23 24  2  0  0  0  0
 23 17  1  0  0  0  0
 26 20  1  0  0  0  0
 27 21  1  0  0  0  0
M  END
>  <minimizedAffinity>
-6.21104622

>  <minimizedRMSD>
2.15879941

$$$$
