
 OpenBabel03272502373D

 30 32  0  0  1  0  0  0  0  0999 V2000
   33.6150   29.8460   46.4920 N   0  0  0  0  0  0  0  0  0  0  0  0
   34.8520   29.7290   45.7320 C   0  0  0  0  0  0  0  0  0  0  0  0
   35.9100   30.1260   46.7570 C   0  0  0  0  0  0  0  0  0  0  0  0
   35.1580   30.5130   48.0070 C   0  0  1  0  0  0  0  0  0  0  0  0
   33.9600   29.5840   47.8920 C   0  0  0  0  0  0  0  0  0  0  0  0
   34.8920   30.3470   44.8360 H   0  0  0  0  0  0  0  0  0  0  0  0
   35.0500   28.6790   45.4610 H   0  0  0  0  0  0  0  0  0  0  0  0
   36.5050   30.9690   46.3690 H   0  0  0  0  0  0  0  0  0  0  0  0
   36.6040   29.2880   46.9790 H   0  0  0  0  0  0  0  0  0  0  0  0
   34.7710   31.5490   47.9080 H   0  0  0  0  0  0  0  0  0  0  0  0
   33.1180   29.9350   48.5230 H   0  0  0  0  0  0  0  0  0  0  0  0
   34.1950   28.5310   48.0560 H   0  0  0  0  0  0  0  0  0  0  0  0
   32.3240   30.1520   45.9920 C   0  0  0  0  0  0  0  0  0  0  0  0
   32.2110   31.2890   45.1990 C   0  0  0  0  0  0  0  0  0  0  0  0
   30.9500   31.6310   44.6810 C   0  0  0  0  0  0  0  0  0  0  0  0
   29.9020   30.7920   45.0080 N   0  0  0  0  0  0  0  0  0  0  0  0
   30.0620   29.7010   45.7800 C   0  0  0  0  0  0  0  0  0  0  0  0
   31.2810   29.3840   46.2720 N   0  0  0  0  0  0  0  0  0  0  0  0
   33.0070   31.9670   44.9220 H   0  0  0  0  0  0  0  0  0  0  0  0
   30.7940   32.4920   44.0640 H   0  0  0  0  0  0  0  0  0  0  0  0
   29.1720   29.1230   45.9670 H   0  0  0  0  0  0  0  0  0  0  0  0
   37.6510   32.1420   48.0450 Cl  0  0  0  0  0  0  0  0  0  0  0  0
   37.0750   31.0460   49.3080 C   0  0  0  0  0  0  0  0  0  0  0  0
   35.9040   30.3010   49.2560 C   0  0  0  0  0  0  0  0  0  0  0  0
   35.5950   29.4910   50.3250 C   0  0  0  0  0  0  0  0  0  0  0  0
   34.6830   28.9470   50.2190 H   0  0  0  0  0  0  0  0  0  0  0  0
   36.4170   29.4110   51.4310 C   0  0  0  0  0  0  0  0  0  0  0  0
   36.0890   28.7380   52.2370 H   0  0  0  0  0  0  0  0  0  0  0  0
   37.5860   30.1680   51.4610 C   0  0  0  0  0  0  0  0  0  0  0  0
   37.9210   30.9810   50.4140 C   0  0  0  0  0  0  0  0  0  0  0  0
  1  5  1  0  0  0  0
  2  1  1  0  0  0  0
  2  3  1  0  0  0  0
  3  9  1  0  0  0  0
  3  4  1  0  0  0  0
  4 10  1  6  0  0  0
  4 24  1  0  0  0  0
  5  4  1  0  0  0  0
  5 12  1  0  0  0  0
  5 11  1  0  0  0  0
  6  2  1  0  0  0  0
  7  2  1  0  0  0  0
  8  3  1  0  0  0  0
 13 18  1  0  0  0  0
 13  1  1  0  0  0  0
 14 13  2  0  0  0  0
 15 16  2  0  0  0  0
 15 14  1  0  0  0  0
 16 17  1  0  0  0  0
 17 21  1  0  0  0  0
 17 18  2  0  0  0  0
 19 14  1  0  0  0  0
 20 15  1  0  0  0  0
 22 23  1  0  0  0  0
 23 30  1  0  0  0  0
 24 23  2  0  0  0  0
 24 25  1  0  0  0  0
 25 27  2  0  0  0  0
 26 25  1  0  0  0  0
 27 29  1  0  0  0  0
 27 28  1  0  0  0  0
 30 29  2  0  0  0  0
M  END
>  <minimizedAffinity>
-5.39577484

>  <minimizedRMSD>
4.22313118

$$$$
