
 OpenBabel03272507353D

 36 39  0  0  1  0  0  0  0  0999 V2000
   37.7530   25.6010   34.5350 C   0  0  0  0  0  0  0  0  0  0  0  0
   38.1420   26.5990   35.4020 C   0  0  0  0  0  0  0  0  0  0  0  0
   37.6080   27.8040   34.9190 C   0  0  0  0  0  0  0  0  0  0  0  0
   36.9210   27.4570   33.7790 C   0  0  0  0  0  0  0  0  0  0  0  0
   37.0340   26.1590   33.5930 O   0  0  0  0  0  0  0  0  0  0  0  0
   38.7520   26.4860   36.2990 H   0  0  0  0  0  0  0  0  0  0  0  0
   37.7110   28.7760   35.3430 H   0  0  0  0  0  0  0  0  0  0  0  0
   38.1340   24.2140   34.7330 C   0  0  0  0  0  0  0  0  0  0  0  0
   38.1880   23.4540   33.7540 O   0  0  0  0  0  0  0  0  0  0  0  0
   38.4280   23.8040   36.0780 C   0  0  0  0  0  0  0  0  0  0  0  0
   39.6930   23.2880   36.3230 C   0  0  0  0  0  0  0  0  0  0  0  0
   40.0100   22.8760   37.6250 C   0  0  0  0  0  0  0  0  0  0  0  0
   39.0450   23.0100   38.5890 N   0  0  0  0  0  0  0  0  0  0  0  0
   37.8400   23.5110   38.3210 C   0  0  0  0  0  0  0  0  0  0  0  0
   37.5230   23.9090   37.0770 N   0  0  0  0  0  0  0  0  0  0  0  0
   40.4520   23.1860   35.5480 H   0  0  0  0  0  0  0  0  0  0  0  0
   40.9950   22.4770   37.7990 H   0  0  0  0  0  0  0  0  0  0  0  0
   37.1890   23.5530   39.1840 H   0  0  0  0  0  0  0  0  0  0  0  0
   36.1810   28.3740   32.9120 C   0  0  0  0  0  0  0  0  0  0  0  0
   36.0980   28.0930   31.6690 O   0  0  0  0  0  0  0  0  0  0  0  0
   35.5470   29.6130   33.4760 C   0  0  1  0  0  0  0  0  0  0  0  0
   34.0260   29.6680   33.0730 C   0  0  0  0  0  0  0  0  0  0  0  0
   34.4840   29.5210   34.4770 C   0  0  2  0  0  0  0  0  0  0  0  0
   36.0060   30.5430   33.0740 H   0  0  0  0  0  0  0  0  0  0  0  0
   33.5910   28.7830   32.6170 H   0  0  0  0  0  0  0  0  0  0  0  0
   33.6070   30.6250   32.7790 H   0  0  0  0  0  0  0  0  0  0  0  0
   34.4250   28.5510   35.0190 H   0  0  0  0  0  0  0  0  0  0  0  0
   31.8670   29.7270   35.9730 Cl  0  0  0  0  0  0  0  0  0  0  0  0
   33.2230   30.8280   36.1290 C   0  0  0  0  0  0  0  0  0  0  0  0
   34.4200   30.6950   35.4160 C   0  0  0  0  0  0  0  0  0  0  0  0
   35.4380   31.6040   35.5960 C   0  0  0  0  0  0  0  0  0  0  0  0
   36.3350   31.4730   35.0360 H   0  0  0  0  0  0  0  0  0  0  0  0
   35.3040   32.6580   36.4750 C   0  0  0  0  0  0  0  0  0  0  0  0
   36.1200   33.3670   36.6050 H   0  0  0  0  0  0  0  0  0  0  0  0
   34.1370   32.8400   37.2120 C   0  0  0  0  0  3  0  0  0  0  0  0
   33.1500   31.9010   36.9930 C   0  0  0  0  0  3  0  0  0  0  0  0
  1  8  1  0  0  0  0
  1  2  2  0  0  0  0
  2  6  1  0  0  0  0
  3  7  1  0  0  0  0
  3  2  1  0  0  0  0
  4  3  2  0  0  0  0
  5  4  1  0  0  0  0
  5  1  1  0  0  0  0
  8 10  1  0  0  0  0
  9  8  2  0  0  0  0
 10 11  2  0  0  0  0
 10 15  1  0  0  0  0
 11 12  1  0  0  0  0
 12 17  1  0  0  0  0
 12 13  2  0  0  0  0
 14 13  1  0  0  0  0
 14 18  1  0  0  0  0
 15 14  2  0  0  0  0
 16 11  1  0  0  0  0
 19 21  1  0  0  0  0
 19  4  1  0  0  0  0
 20 19  2  0  0  0  0
 21 24  1  6  0  0  0
 21 23  1  0  0  0  0
 22 21  1  0  0  0  0
 22 23  1  0  0  0  0
 23 27  1  1  0  0  0
 23 30  1  0  0  0  0
 25 22  1  0  0  0  0
 26 22  1  0  0  0  0
 28 29  1  0  0  0  0
 29 36  1  0  0  0  0
 30 31  1  0  0  0  0
 30 29  2  0  0  0  0
 31 33  2  0  0  0  0
 32 31  1  0  0  0  0
 33 34  1  0  0  0  0
 33 35  1  0  0  0  0
 36 35  2  0  0  0  0
M  END
>  <minimizedAffinity>
-6.15234995

$$$$

 OpenBabel03272507353D

 36 39  0  0  1  0  0  0  0  0999 V2000
   35.3030   29.0890   33.2250 C   0  0  0  0  0  0  0  0  0  0  0  0
   35.7290   29.2440   31.9230 C   0  0  0  0  0  0  0  0  0  0  0  0
   36.8670   28.4390   31.7580 C   0  0  0  0  0  0  0  0  0  0  0  0
   37.0600   27.8410   32.9810 C   0  0  0  0  0  0  0  0  0  0  0  0
   36.1230   28.2510   33.8080 O   0  0  0  0  0  0  0  0  0  0  0  0
   35.2750   29.8720   31.1550 H   0  0  0  0  0  0  0  0  0  0  0  0
   37.4540   28.3180   30.8760 H   0  0  0  0  0  0  0  0  0  0  0  0
   34.1380   29.7840   33.7440 C   0  0  0  0  0  0  0  0  0  0  0  0
   33.0430   29.6380   33.1790 O   0  0  0  0  0  0  0  0  0  0  0  0
   34.3350   30.6120   34.9010 C   0  0  0  0  0  0  0  0  0  0  0  0
   33.2700   30.7370   35.7820 C   0  0  0  0  0  0  0  0  0  0  0  0
   33.4290   31.5410   36.9190 C   0  0  0  0  0  0  0  0  0  0  0  0
   34.6390   32.1600   37.0970 N   0  0  0  0  0  0  0  0  0  0  0  0
   35.6420   32.0190   36.2320 C   0  0  0  0  0  0  0  0  0  0  0  0
   35.5020   31.2520   35.1380 N   0  0  0  0  0  0  0  0  0  0  0  0
   32.3130   30.2390   35.6290 H   0  0  0  0  0  0  0  0  0  0  0  0
   32.5940   31.6290   37.5930 H   0  0  0  0  0  0  0  0  0  0  0  0
   36.5310   32.5700   36.5090 H   0  0  0  0  0  0  0  0  0  0  0  0
   38.1300   26.8990   33.3140 C   0  0  0  0  0  0  0  0  0  0  0  0
   39.2480   27.0170   32.7080 O   0  0  0  0  0  0  0  0  0  0  0  0
   37.9060   25.8230   34.3370 C   0  0  1  0  0  0  0  0  0  0  0  0
   38.0150   24.4070   33.6580 C   0  0  0  0  0  0  0  0  0  0  0  0
   38.9750   24.8860   34.6830 C   0  0  2  0  0  0  0  0  0  0  0  0
   36.8900   25.8720   34.7870 H   0  0  0  0  0  0  0  0  0  0  0  0
   38.3880   24.3620   32.6380 H   0  0  0  0  0  0  0  0  0  0  0  0
   37.3060   23.6400   33.9520 H   0  0  0  0  0  0  0  0  0  0  0  0
   40.0030   25.2190   34.4190 H   0  0  0  0  0  0  0  0  0  0  0  0
   40.9890   22.7090   35.2660 Cl  0  0  0  0  0  0  0  0  0  0  0  0
   39.8140   23.3470   36.4020 C   0  0  0  0  0  0  0  0  0  0  0  0
   38.8980   24.3570   36.0900 C   0  0  0  0  0  0  0  0  0  0  0  0
   38.0070   24.8010   37.0410 C   0  0  0  0  0  0  0  0  0  0  0  0
   37.3230   25.5730   36.7690 H   0  0  0  0  0  0  0  0  0  0  0  0
   37.9960   24.2660   38.3110 C   0  0  0  0  0  0  0  0  0  0  0  0
   37.2840   24.6310   39.0500 H   0  0  0  0  0  0  0  0  0  0  0  0
   38.8850   23.2590   38.6790 C   0  0  0  0  0  3  0  0  0  0  0  0
   39.7550   22.8520   37.6890 C   0  0  0  0  0  3  0  0  0  0  0  0
  1  8  1  0  0  0  0
  1  5  1  0  0  0  0
  2  1  2  0  0  0  0
  3  2  1  0  0  0  0
  3  4  2  0  0  0  0
  4 19  1  0  0  0  0
  4  5  1  0  0  0  0
  6  2  1  0  0  0  0
  7  3  1  0  0  0  0
  8 10  1  0  0  0  0
  9  8  2  0  0  0  0
 10 15  2  0  0  0  0
 10 11  1  0  0  0  0
 11 12  2  0  0  0  0
 12 13  1  0  0  0  0
 12 17  1  0  0  0  0
 14 18  1  0  0  0  0
 14 13  2  0  0  0  0
 15 14  1  0  0  0  0
 16 11  1  0  0  0  0
 19 21  1  0  0  0  0
 20 19  2  0  0  0  0
 21 23  1  0  0  0  0
 21 24  1  1  0  0  0
 22 26  1  0  0  0  0
 22 21  1  0  0  0  0
 22 23  1  0  0  0  0
 23 27  1  6  0  0  0
 23 30  1  0  0  0  0
 25 22  1  0  0  0  0
 28 29  1  0  0  0  0
 29 36  1  0  0  0  0
 30 29  2  0  0  0  0
 30 31  1  0  0  0  0
 31 33  2  0  0  0  0
 32 31  1  0  0  0  0
 33 35  1  0  0  0  0
 33 34  1  0  0  0  0
 36 35  2  0  0  0  0
M  END
>  <minimizedAffinity>
-5.97677898

$$$$

 OpenBabel03272507353D

 36 39  0  0  1  0  0  0  0  0999 V2000
   38.0620   26.3020   34.3280 C   0  0  0  0  0  0  0  0  0  0  0  0
   38.7590   27.0350   33.3900 C   0  0  0  0  0  0  0  0  0  0  0  0
   38.1450   26.8120   32.1480 C   0  0  0  0  0  0  0  0  0  0  0  0
   37.1050   25.9520   32.4130 C   0  0  0  0  0  0  0  0  0  0  0  0
   37.0960   25.6810   33.7000 O   0  0  0  0  0  0  0  0  0  0  0  0
   39.6260   27.6710   33.5690 H   0  0  0  0  0  0  0  0  0  0  0  0
   38.4240   27.2210   31.2040 H   0  0  0  0  0  0  0  0  0  0  0  0
   38.4290   26.2990   35.7330 C   0  0  0  0  0  0  0  0  0  0  0  0
   38.3690   27.3580   36.3780 O   0  0  0  0  0  0  0  0  0  0  0  0
   38.8470   25.0450   36.2950 C   0  0  0  0  0  0  0  0  0  0  0  0
   38.1380   24.5720   37.3910 C   0  0  0  0  0  0  0  0  0  0  0  0
   38.5230   23.3530   37.9640 C   0  0  0  0  0  0  0  0  0  0  0  0
   39.5850   22.6920   37.4040 N   0  0  0  0  0  0  0  0  0  0  0  0
   40.2450   23.1730   36.3510 C   0  0  0  0  0  0  0  0  0  0  0  0
   39.8850   24.3410   35.7930 N   0  0  0  0  0  0  0  0  0  0  0  0
   37.2950   25.1070   37.8270 H   0  0  0  0  0  0  0  0  0  0  0  0
   37.9640   22.9990   38.8140 H   0  0  0  0  0  0  0  0  0  0  0  0
   41.0580   22.5390   36.0250 H   0  0  0  0  0  0  0  0  0  0  0  0
   36.1590   25.4240   31.4300 C   0  0  0  0  0  0  0  0  0  0  0  0
   35.4660   26.2560   30.7520 O   0  0  0  0  0  0  0  0  0  0  0  0
   36.0070   23.9420   31.2370 C   0  0  1  0  0  0  0  0  0  0  0  0
   37.3230   23.3450   30.6130 C   0  0  0  0  0  0  0  0  0  0  0  0
   36.8480   23.0010   31.9760 C   0  0  2  0  0  0  0  0  0  0  0  0
   35.1880   23.6910   30.5270 H   0  0  0  0  0  0  0  0  0  0  0  0
   38.1960   23.9910   30.5600 H   0  0  0  0  0  0  0  0  0  0  0  0
   37.2280   22.5880   29.8410 H   0  0  0  0  0  0  0  0  0  0  0  0
   37.3300   23.4120   32.8900 H   0  0  0  0  0  0  0  0  0  0  0  0
   37.3110   21.9500   34.7720 Cl  0  0  0  0  0  0  0  0  0  0  0  0
   36.3900   21.1440   33.5150 C   0  0  0  0  0  0  0  0  0  0  0  0
   36.2000   21.6670   32.2310 C   0  0  0  0  0  0  0  0  0  0  0  0
   35.4630   20.9690   31.3020 C   0  0  0  0  0  0  0  0  0  0  0  0
   35.3380   21.3980   30.3340 H   0  0  0  0  0  0  0  0  0  0  0  0
   34.9000   19.7490   31.6100 C   0  0  0  0  0  0  0  0  0  0  0  0
   34.3190   19.2120   30.8610 H   0  0  0  0  0  0  0  0  0  0  0  0
   35.0550   19.1800   32.8710 C   0  0  0  0  0  3  0  0  0  0  0  0
   35.8020   19.9200   33.7640 C   0  0  0  0  0  3  0  0  0  0  0  0
  1  8  1  0  0  0  0
  2  6  1  0  0  0  0
  2  1  2  0  0  0  0
  3  4  2  0  0  0  0
  3  2  1  0  0  0  0
  4  5  1  0  0  0  0
  5  1  1  0  0  0  0
  7  3  1  0  0  0  0
  8 10  1  0  0  0  0
  8  9  2  0  0  0  0
 10 11  1  0  0  0  0
 11 16  1  0  0  0  0
 11 12  2  0  0  0  0
 12 17  1  0  0  0  0
 13 12  1  0  0  0  0
 14 13  2  0  0  0  0
 15 10  2  0  0  0  0
 15 14  1  0  0  0  0
 18 14  1  0  0  0  0
 19  4  1  0  0  0  0
 20 19  2  0  0  0  0
 21 24  1  6  0  0  0
 21 19  1  0  0  0  0
 21 23  1  0  0  0  0
 22 21  1  0  0  0  0
 22 23  1  0  0  0  0
 23 30  1  0  0  0  0
 23 27  1  1  0  0  0
 25 22  1  0  0  0  0
 26 22  1  0  0  0  0
 29 36  1  0  0  0  0
 29 28  1  0  0  0  0
 30 29  2  0  0  0  0
 31 33  2  0  0  0  0
 31 30  1  0  0  0  0
 32 31  1  0  0  0  0
 33 35  1  0  0  0  0
 34 33  1  0  0  0  0
 35 36  2  0  0  0  0
M  END
>  <minimizedAffinity>
-5.86062431

$$$$

 OpenBabel03272507353D

 36 39  0  0  1  0  0  0  0  0999 V2000
   38.2980   26.5040   33.8200 C   0  0  0  0  0  0  0  0  0  0  0  0
   37.5500   25.5570   33.1530 C   0  0  0  0  0  0  0  0  0  0  0  0
   36.6560   26.2450   32.3170 C   0  0  0  0  0  0  0  0  0  0  0  0
   36.9220   27.5770   32.5310 C   0  0  0  0  0  0  0  0  0  0  0  0
   37.8890   27.6810   33.4180 O   0  0  0  0  0  0  0  0  0  0  0  0
   37.6280   24.4740   33.2500 H   0  0  0  0  0  0  0  0  0  0  0  0
   35.9290   25.8260   31.6600 H   0  0  0  0  0  0  0  0  0  0  0  0
   39.3290   26.1400   34.7760 C   0  0  0  0  0  0  0  0  0  0  0  0
   40.3820   26.7960   34.8120 O   0  0  0  0  0  0  0  0  0  0  0  0
   39.0570   25.0210   35.6340 C   0  0  0  0  0  0  0  0  0  0  0  0
   38.1070   25.1990   36.6300 C   0  0  0  0  0  0  0  0  0  0  0  0
   37.8220   24.1270   37.4860 C   0  0  0  0  0  0  0  0  0  0  0  0
   38.5020   22.9540   37.2870 N   0  0  0  0  0  0  0  0  0  0  0  0
   39.4080   22.8140   36.3210 C   0  0  0  0  0  0  0  0  0  0  0  0
   39.6910   23.8350   35.4940 N   0  0  0  0  0  0  0  0  0  0  0  0
   37.5730   26.1380   36.7780 H   0  0  0  0  0  0  0  0  0  0  0  0
   37.0830   24.2810   38.2550 H   0  0  0  0  0  0  0  0  0  0  0  0
   39.8590   21.8320   36.2910 H   0  0  0  0  0  0  0  0  0  0  0  0
   36.2470   28.7010   31.8810 C   0  0  0  0  0  0  0  0  0  0  0  0
   36.2260   28.7340   30.6040 O   0  0  0  0  0  0  0  0  0  0  0  0
   35.6080   29.7840   32.7000 C   0  0  1  0  0  0  0  0  0  0  0  0
   34.0430   29.7270   32.5370 C   0  0  0  0  0  0  0  0  0  0  0  0
   34.7310   29.4540   33.8230 C   0  0  2  0  0  0  0  0  0  0  0  0
   35.9150   30.8010   32.3700 H   0  0  0  0  0  0  0  0  0  0  0  0
   33.6180   28.8660   32.0290 H   0  0  0  0  0  0  0  0  0  0  0  0
   33.5020   30.6640   32.4450 H   0  0  0  0  0  0  0  0  0  0  0  0
   34.8420   28.4240   34.2260 H   0  0  0  0  0  0  0  0  0  0  0  0
   32.1650   29.4860   35.4200 Cl  0  0  0  0  0  0  0  0  0  0  0  0
   33.5450   30.5370   35.6820 C   0  0  0  0  0  0  0  0  0  0  0  0
   34.7160   30.4880   34.9170 C   0  0  0  0  0  0  0  0  0  0  0  0
   35.7560   31.3500   35.1870 C   0  0  0  0  0  0  0  0  0  0  0  0
   36.6330   31.2850   34.5850 H   0  0  0  0  0  0  0  0  0  0  0  0
   35.6680   32.2720   36.2080 C   0  0  0  0  0  0  0  0  0  0  0  0
   36.5010   32.9450   36.4070 H   0  0  0  0  0  0  0  0  0  0  0  0
   34.5280   32.3660   37.0010 C   0  0  0  0  0  3  0  0  0  0  0  0
   33.5180   31.4800   36.6880 C   0  0  0  0  0  3  0  0  0  0  0  0
  1  8  1  0  0  0  0
  2  6  1  0  0  0  0
  2  1  2  0  0  0  0
  3  4  2  0  0  0  0
  3  2  1  0  0  0  0
  4  5  1  0  0  0  0
  5  1  1  0  0  0  0
  7  3  1  0  0  0  0
  8  9  2  0  0  0  0
  8 10  1  0  0  0  0
 10 11  1  0  0  0  0
 11 16  1  0  0  0  0
 11 12  2  0  0  0  0
 12 17  1  0  0  0  0
 13 12  1  0  0  0  0
 14 13  2  0  0  0  0
 15 10  2  0  0  0  0
 15 14  1  0  0  0  0
 18 14  1  0  0  0  0
 19  4  1  0  0  0  0
 19 21  1  0  0  0  0
 20 19  2  0  0  0  0
 21 24  1  6  0  0  0
 21 23  1  0  0  0  0
 22 21  1  0  0  0  0
 22 23  1  0  0  0  0
 23 27  1  1  0  0  0
 23 30  1  0  0  0  0
 25 22  1  0  0  0  0
 26 22  1  0  0  0  0
 28 29  1  0  0  0  0
 29 36  1  0  0  0  0
 30 31  1  0  0  0  0
 30 29  2  0  0  0  0
 31 33  2  0  0  0  0
 32 31  1  0  0  0  0
 33 34  1  0  0  0  0
 33 35  1  0  0  0  0
 36 35  2  0  0  0  0
M  END
>  <minimizedAffinity>
-5.8323245

$$$$

 OpenBabel03272507353D

 36 39  0  0  1  0  0  0  0  0999 V2000
   38.1080   25.3420   36.0930 C   0  0  0  0  0  0  0  0  0  0  0  0
   38.4030   26.6750   36.2870 C   0  0  0  0  0  0  0  0  0  0  0  0
   37.9560   27.3710   35.1520 C   0  0  0  0  0  0  0  0  0  0  0  0
   37.4130   26.4070   34.3350 C   0  0  0  0  0  0  0  0  0  0  0  0
   37.5240   25.2370   34.9250 O   0  0  0  0  0  0  0  0  0  0  0  0
   38.8930   27.1180   37.1550 H   0  0  0  0  0  0  0  0  0  0  0  0
   38.0230   28.4180   34.9650 H   0  0  0  0  0  0  0  0  0  0  0  0
   38.4350   24.3280   37.0790 C   0  0  0  0  0  0  0  0  0  0  0  0
   37.8200   24.3080   38.1560 O   0  0  0  0  0  0  0  0  0  0  0  0
   39.4710   23.3940   36.7350 C   0  0  0  0  0  0  0  0  0  0  0  0
   40.0720   22.6990   37.7750 C   0  0  0  0  0  0  0  0  0  0  0  0
   41.0880   21.7830   37.4730 C   0  0  0  0  0  0  0  0  0  0  0  0
   41.4330   21.6250   36.1560 N   0  0  0  0  0  0  0  0  0  0  0  0
   40.8370   22.3080   35.1800 C   0  0  0  0  0  0  0  0  0  0  0  0
   39.8600   23.1890   35.4570 N   0  0  0  0  0  0  0  0  0  0  0  0
   39.7880   22.8330   38.8190 H   0  0  0  0  0  0  0  0  0  0  0  0
   41.5450   21.2520   38.2910 H   0  0  0  0  0  0  0  0  0  0  0  0
   41.2170   22.0750   34.1950 H   0  0  0  0  0  0  0  0  0  0  0  0
   36.8050   26.6390   33.0240 C   0  0  0  0  0  0  0  0  0  0  0  0
   36.4840   27.8350   32.7110 O   0  0  0  0  0  0  0  0  0  0  0  0
   36.5630   25.4940   32.0830 C   0  0  1  0  0  0  0  0  0  0  0  0
   37.5010   25.6260   30.8250 C   0  0  0  0  0  0  0  0  0  0  0  0
   37.6160   24.5170   31.8060 C   0  0  2  0  0  0  0  0  0  0  0  0
   35.5220   25.4830   31.6910 H   0  0  0  0  0  0  0  0  0  0  0  0
   38.2870   26.3750   30.8570 H   0  0  0  0  0  0  0  0  0  0  0  0
   37.0880   25.3930   29.8500 H   0  0  0  0  0  0  0  0  0  0  0  0
   38.4350   24.4760   32.5570 H   0  0  0  0  0  0  0  0  0  0  0  0
   39.7840   22.6220   30.8880 Cl  0  0  0  0  0  0  0  0  0  0  0  0
   38.0780   22.2370   31.0220 C   0  0  0  0  0  0  0  0  0  0  0  0
   37.1050   23.1460   31.4520 C   0  0  0  0  0  0  0  0  0  0  0  0
   35.7850   22.7640   31.5290 C   0  0  0  0  0  0  0  0  0  0  0  0
   35.0710   23.4820   31.8610 H   0  0  0  0  0  0  0  0  0  0  0  0
   35.3930   21.4870   31.1870 C   0  0  0  0  0  0  0  0  0  0  0  0
   34.3440   21.2030   31.2550 H   0  0  0  0  0  0  0  0  0  0  0  0
   36.3170   20.5400   30.7530 C   0  0  0  0  0  3  0  0  0  0  0  0
   37.6240   20.9760   30.6950 C   0  0  0  0  0  3  0  0  0  0  0  0
  1  2  2  0  0  0  0
  1  8  1  0  0  0  0
  2  6  1  0  0  0  0
  3  2  1  0  0  0  0
  4  5  1  0  0  0  0
  4  3  2  0  0  0  0
  5  1  1  0  0  0  0
  7  3  1  0  0  0  0
  8  9  2  0  0  0  0
 10  8  1  0  0  0  0
 10 11  1  0  0  0  0
 11 16  1  0  0  0  0
 12 11  2  0  0  0  0
 12 17  1  0  0  0  0
 13 12  1  0  0  0  0
 14 15  1  0  0  0  0
 14 13  2  0  0  0  0
 15 10  2  0  0  0  0
 18 14  1  0  0  0  0
 19  4  1  0  0  0  0
 20 19  2  0  0  0  0
 21 24  1  6  0  0  0
 21 19  1  0  0  0  0
 22 25  1  0  0  0  0
 22 23  1  0  0  0  0
 22 21  1  0  0  0  0
 23 21  1  0  0  0  0
 23 27  1  1  0  0  0
 26 22  1  0  0  0  0
 28 29  1  0  0  0  0
 29 30  1  0  0  0  0
 30 31  2  0  0  0  0
 30 23  1  0  0  0  0
 31 32  1  0  0  0  0
 33 34  1  0  0  0  0
 33 31  1  0  0  0  0
 35 33  2  0  0  0  0
 36 35  1  0  0  0  0
 36 29  2  0  0  0  0
M  END
>  <minimizedAffinity>
-5.78109789

$$$$

 OpenBabel03272507353D

 36 39  0  0  1  0  0  0  0  0999 V2000
   36.1600   23.2820   31.8890 C   0  0  0  0  0  0  0  0  0  0  0  0
   35.5200   24.2490   31.1450 C   0  0  0  0  0  0  0  0  0  0  0  0
   36.0520   25.4910   31.5260 C   0  0  0  0  0  0  0  0  0  0  0  0
   36.9920   25.1950   32.4850 C   0  0  0  0  0  0  0  0  0  0  0  0
   37.0200   23.8920   32.6660 O   0  0  0  0  0  0  0  0  0  0  0  0
   34.7420   24.0920   30.3970 H   0  0  0  0  0  0  0  0  0  0  0  0
   35.7870   26.4530   31.1530 H   0  0  0  0  0  0  0  0  0  0  0  0
   35.8520   21.8700   31.7500 C   0  0  0  0  0  0  0  0  0  0  0  0
   34.8760   21.4000   32.3550 O   0  0  0  0  0  0  0  0  0  0  0  0
   36.7160   21.0940   30.9030 C   0  0  0  0  0  0  0  0  0  0  0  0
   36.2430   19.8640   30.4680 C   0  0  0  0  0  0  0  0  0  0  0  0
   37.0620   19.0830   29.6430 C   0  0  0  0  0  0  0  0  0  0  0  0
   38.2950   19.5830   29.3110 N   0  0  0  0  0  0  0  0  0  0  0  0
   38.7200   20.7680   29.7450 C   0  0  0  0  0  0  0  0  0  0  0  0
   37.9430   21.5280   30.5370 N   0  0  0  0  0  0  0  0  0  0  0  0
   35.2600   19.4780   30.7390 H   0  0  0  0  0  0  0  0  0  0  0  0
   36.6820   18.1310   29.3140 H   0  0  0  0  0  0  0  0  0  0  0  0
   39.7110   21.0250   29.3990 H   0  0  0  0  0  0  0  0  0  0  0  0
   37.8290   26.1650   33.1930 C   0  0  0  0  0  0  0  0  0  0  0  0
   37.6960   27.4010   32.9020 O   0  0  0  0  0  0  0  0  0  0  0  0
   38.8210   25.7080   34.2240 C   0  0  1  0  0  0  0  0  0  0  0  0
   38.5530   26.4460   35.5890 C   0  0  0  0  0  0  0  0  0  0  0  0
   38.3810   24.9820   35.4150 C   0  0  2  0  0  0  0  0  0  0  0  0
   39.8680   25.9540   33.9410 H   0  0  0  0  0  0  0  0  0  0  0  0
   37.6390   27.0270   35.6790 H   0  0  0  0  0  0  0  0  0  0  0  0
   39.4070   26.7870   36.1650 H   0  0  0  0  0  0  0  0  0  0  0  0
   37.3760   24.5100   35.3400 H   0  0  0  0  0  0  0  0  0  0  0  0
   37.6840   23.9220   38.1580 Cl  0  0  0  0  0  0  0  0  0  0  0  0
   39.1240   23.5190   37.2410 C   0  0  0  0  0  0  0  0  0  0  0  0
   39.4080   24.0330   35.9710 C   0  0  0  0  0  0  0  0  0  0  0  0
   40.5630   23.6660   35.3180 C   0  0  0  0  0  0  0  0  0  0  0  0
   40.7470   24.0760   34.3520 H   0  0  0  0  0  0  0  0  0  0  0  0
   41.4580   22.7900   35.8940 C   0  0  0  0  0  0  0  0  0  0  0  0
   42.3660   22.5100   35.3610 H   0  0  0  0  0  0  0  0  0  0  0  0
   41.2280   22.2460   37.1550 C   0  0  0  0  0  3  0  0  0  0  0  0
   40.0580   22.6480   37.7640 C   0  0  0  0  0  3  0  0  0  0  0  0
  1  5  1  0  0  0  0
  2  3  1  0  0  0  0
  2  1  2  0  0  0  0
  3  4  2  0  0  0  0
  4  5  1  0  0  0  0
  4 19  1  0  0  0  0
  6  2  1  0  0  0  0
  7  3  1  0  0  0  0
  8  1  1  0  0  0  0
  8  9  2  0  0  0  0
 10  8  1  0  0  0  0
 11 16  1  0  0  0  0
 11 10  2  0  0  0  0
 12 11  1  0  0  0  0
 13 12  2  0  0  0  0
 13 14  1  0  0  0  0
 14 15  2  0  0  0  0
 15 10  1  0  0  0  0
 17 12  1  0  0  0  0
 18 14  1  0  0  0  0
 19 21  1  0  0  0  0
 20 19  2  0  0  0  0
 21 24  1  6  0  0  0
 21 23  1  0  0  0  0
 21 22  1  0  0  0  0
 22 25  1  0  0  0  0
 22 26  1  0  0  0  0
 23 27  1  6  0  0  0
 23 22  1  0  0  0  0
 23 30  1  0  0  0  0
 29 36  1  0  0  0  0
 29 28  1  0  0  0  0
 30 29  2  0  0  0  0
 31 33  2  0  0  0  0
 31 30  1  0  0  0  0
 32 31  1  0  0  0  0
 33 35  1  0  0  0  0
 34 33  1  0  0  0  0
 35 36  2  0  0  0  0
M  END
>  <minimizedAffinity>
-5.70338488

$$$$

 OpenBabel03272507353D

 36 39  0  0  1  0  0  0  0  0999 V2000
   36.2040   28.9790   32.2870 C   0  0  0  0  0  0  0  0  0  0  0  0
   37.1720   28.8840   31.3090 C   0  0  0  0  0  0  0  0  0  0  0  0
   37.7690   27.6200   31.4340 C   0  0  0  0  0  0  0  0  0  0  0  0
   37.1190   27.0220   32.4880 C   0  0  0  0  0  0  0  0  0  0  0  0
   36.2130   27.8540   32.9570 O   0  0  0  0  0  0  0  0  0  0  0  0
   37.4330   29.6430   30.5710 H   0  0  0  0  0  0  0  0  0  0  0  0
   38.5550   27.2120   30.8410 H   0  0  0  0  0  0  0  0  0  0  0  0
   35.3840   30.1660   32.4480 C   0  0  0  0  0  0  0  0  0  0  0  0
   34.4710   30.3870   31.6370 O   0  0  0  0  0  0  0  0  0  0  0  0
   35.6890   31.0240   33.5600 C   0  0  0  0  0  0  0  0  0  0  0  0
   35.9970   32.3470   33.2760 C   0  0  0  0  0  0  0  0  0  0  0  0
   36.3030   33.2080   34.3380 C   0  0  0  0  0  0  0  0  0  0  0  0
   36.2770   32.6890   35.6070 N   0  0  0  0  0  0  0  0  0  0  0  0
   35.9770   31.4140   35.8460 C   0  0  0  0  0  0  0  0  0  0  0  0
   35.6820   30.5780   34.8360 N   0  0  0  0  0  0  0  0  0  0  0  0
   36.0140   32.7470   32.2620 H   0  0  0  0  0  0  0  0  0  0  0  0
   36.5400   34.2310   34.1030 H   0  0  0  0  0  0  0  0  0  0  0  0
   35.9990   31.1550   36.8960 H   0  0  0  0  0  0  0  0  0  0  0  0
   37.3850   25.6800   33.0090 C   0  0  0  0  0  0  0  0  0  0  0  0
   36.7080   24.7060   32.5360 O   0  0  0  0  0  0  0  0  0  0  0  0
   38.4210   25.4660   34.0750 C   0  0  1  0  0  0  0  0  0  0  0  0
   37.9180   26.0680   35.4400 C   0  0  0  0  0  0  0  0  0  0  0  0
   38.1400   24.6150   35.2310 C   0  0  2  0  0  0  0  0  0  0  0  0
   39.3780   25.9840   33.8430 H   0  0  0  0  0  0  0  0  0  0  0  0
   36.8820   26.3890   35.5000 H   0  0  0  0  0  0  0  0  0  0  0  0
   38.6310   26.6020   36.0600 H   0  0  0  0  0  0  0  0  0  0  0  0
   37.2970   23.9020   35.1020 H   0  0  0  0  0  0  0  0  0  0  0  0
   37.6090   23.2190   37.8580 Cl  0  0  0  0  0  0  0  0  0  0  0  0
   39.1550   23.2910   37.0320 C   0  0  0  0  0  0  0  0  0  0  0  0
   39.3570   23.9500   35.8150 C   0  0  0  0  0  0  0  0  0  0  0  0
   40.6050   23.9600   35.2320 C   0  0  0  0  0  0  0  0  0  0  0  0
   40.7230   24.4720   34.3040 H   0  0  0  0  0  0  0  0  0  0  0  0
   41.6740   23.3270   35.8290 C   0  0  0  0  0  0  0  0  0  0  0  0
   42.6530   23.3460   35.3530 H   0  0  0  0  0  0  0  0  0  0  0  0
   41.5320   22.6550   37.0400 C   0  0  0  0  0  3  0  0  0  0  0  0
   40.2620   22.6760   37.5790 C   0  0  0  0  0  3  0  0  0  0  0  0
  1  8  1  0  0  0  0
  1  5  1  0  0  0  0
  2  3  1  0  0  0  0
  2  1  2  0  0  0  0
  3  4  2  0  0  0  0
  4  5  1  0  0  0  0
  4 19  1  0  0  0  0
  6  2  1  0  0  0  0
  7  3  1  0  0  0  0
  8 10  1  0  0  0  0
  9  8  2  0  0  0  0
 10 15  1  0  0  0  0
 11 10  2  0  0  0  0
 11 12  1  0  0  0  0
 12 13  2  0  0  0  0
 13 14  1  0  0  0  0
 14 18  1  0  0  0  0
 15 14  2  0  0  0  0
 16 11  1  0  0  0  0
 17 12  1  0  0  0  0
 19 21  1  0  0  0  0
 20 19  2  0  0  0  0
 21 24  1  6  0  0  0
 21 23  1  0  0  0  0
 21 22  1  0  0  0  0
 22 25  1  0  0  0  0
 22 26  1  0  0  0  0
 23 27  1  6  0  0  0
 23 22  1  0  0  0  0
 23 30  1  0  0  0  0
 29 36  1  0  0  0  0
 29 28  1  0  0  0  0
 30 29  2  0  0  0  0
 31 30  1  0  0  0  0
 31 33  2  0  0  0  0
 32 31  1  0  0  0  0
 33 35  1  0  0  0  0
 34 33  1  0  0  0  0
 35 36  2  0  0  0  0
M  END
>  <minimizedAffinity>
-5.65798664

$$$$

 OpenBabel03272507353D

 36 39  0  0  1  0  0  0  0  0999 V2000
   35.8670   28.5400   33.7990 C   0  0  0  0  0  0  0  0  0  0  0  0
   36.7600   27.8520   34.5920 C   0  0  0  0  0  0  0  0  0  0  0  0
   37.4040   26.9100   33.7750 C   0  0  0  0  0  0  0  0  0  0  0  0
   36.8570   27.0890   32.5260 C   0  0  0  0  0  0  0  0  0  0  0  0
   35.9620   28.0510   32.5880 O   0  0  0  0  0  0  0  0  0  0  0  0
   36.9410   28.0020   35.6570 H   0  0  0  0  0  0  0  0  0  0  0  0
   38.1550   26.2090   34.0590 H   0  0  0  0  0  0  0  0  0  0  0  0
   35.0230   29.5980   34.3250 C   0  0  0  0  0  0  0  0  0  0  0  0
   33.8850   29.3200   34.7350 O   0  0  0  0  0  0  0  0  0  0  0  0
   35.5720   30.9250   34.3370 C   0  0  0  0  0  0  0  0  0  0  0  0
   35.9030   31.4660   35.5720 C   0  0  0  0  0  0  0  0  0  0  0  0
   36.4380   32.7610   35.6170 C   0  0  0  0  0  0  0  0  0  0  0  0
   36.6070   33.4220   34.4290 N   0  0  0  0  0  0  0  0  0  0  0  0
   36.2800   32.8750   33.2590 C   0  0  0  0  0  0  0  0  0  0  0  0
   35.7660   31.6340   33.2020 N   0  0  0  0  0  0  0  0  0  0  0  0
   35.7630   30.9300   36.5100 H   0  0  0  0  0  0  0  0  0  0  0  0
   36.6880   33.1670   36.5820 H   0  0  0  0  0  0  0  0  0  0  0  0
   36.4720   33.5190   32.4120 H   0  0  0  0  0  0  0  0  0  0  0  0
   37.2080   26.3370   31.3200 C   0  0  0  0  0  0  0  0  0  0  0  0
   37.8570   26.9420   30.4010 O   0  0  0  0  0  0  0  0  0  0  0  0
   36.8070   24.8980   31.1740 C   0  0  1  0  0  0  0  0  0  0  0  0
   37.9490   24.0930   30.4490 C   0  0  0  0  0  0  0  0  0  0  0  0
   37.5520   23.8400   31.8560 C   0  0  2  0  0  0  0  0  0  0  0  0
   35.8960   24.7750   30.5460 H   0  0  0  0  0  0  0  0  0  0  0  0
   38.9040   24.5900   30.3040 H   0  0  0  0  0  0  0  0  0  0  0  0
   37.6650   23.3550   29.7060 H   0  0  0  0  0  0  0  0  0  0  0  0
   38.1750   24.1750   32.7150 H   0  0  0  0  0  0  0  0  0  0  0  0
   38.2700   22.6020   34.5180 Cl  0  0  0  0  0  0  0  0  0  0  0  0
   37.0270   22.0240   33.4230 C   0  0  0  0  0  0  0  0  0  0  0  0
   36.7260   22.6290   32.1980 C   0  0  0  0  0  0  0  0  0  0  0  0
   35.7350   22.1110   31.3950 C   0  0  0  0  0  0  0  0  0  0  0  0
   35.5320   22.5970   30.4680 H   0  0  0  0  0  0  0  0  0  0  0  0
   35.0210   20.9950   31.7760 C   0  0  0  0  0  0  0  0  0  0  0  0
   34.2390   20.6010   31.1280 H   0  0  0  0  0  0  0  0  0  0  0  0
   35.2760   20.3520   32.9850 C   0  0  0  0  0  3  0  0  0  0  0  0
   36.2780   20.9120   33.7490 C   0  0  0  0  0  3  0  0  0  0  0  0
  1  8  1  0  0  0  0
  1  2  2  0  0  0  0
  2  6  1  0  0  0  0
  3  7  1  0  0  0  0
  3  2  1  0  0  0  0
  4  5  1  0  0  0  0
  4  3  2  0  0  0  0
  5  1  1  0  0  0  0
  8 10  1  0  0  0  0
  8  9  2  0  0  0  0
 10 11  1  0  0  0  0
 11 12  2  0  0  0  0
 11 16  1  0  0  0  0
 12 17  1  0  0  0  0
 13 12  1  0  0  0  0
 14 13  2  0  0  0  0
 15 14  1  0  0  0  0
 15 10  2  0  0  0  0
 18 14  1  0  0  0  0
 19  4  1  0  0  0  0
 20 19  2  0  0  0  0
 21 24  1  6  0  0  0
 21 19  1  0  0  0  0
 21 23  1  0  0  0  0
 22 21  1  0  0  0  0
 22 23  1  0  0  0  0
 23 30  1  0  0  0  0
 23 27  1  1  0  0  0
 25 22  1  0  0  0  0
 26 22  1  0  0  0  0
 29 36  1  0  0  0  0
 29 28  1  0  0  0  0
 30 29  2  0  0  0  0
 31 33  2  0  0  0  0
 31 30  1  0  0  0  0
 32 31  1  0  0  0  0
 33 35  1  0  0  0  0
 34 33  1  0  0  0  0
 35 36  2  0  0  0  0
M  END
>  <minimizedAffinity>
-5.62315273

$$$$

 OpenBabel03272507353D

 36 39  0  0  1  0  0  0  0  0999 V2000
   38.8340   24.5330   36.0870 C   0  0  0  0  0  0  0  0  0  0  0  0
   38.1910   25.7110   36.4010 C   0  0  0  0  0  0  0  0  0  0  0  0
   38.7990   26.7300   35.6520 C   0  0  0  0  0  0  0  0  0  0  0  0
   39.7810   26.1000   34.9240 C   0  0  0  0  0  0  0  0  0  0  0  0
   39.7650   24.8160   35.2110 O   0  0  0  0  0  0  0  0  0  0  0  0
   37.3630   25.8400   37.1000 H   0  0  0  0  0  0  0  0  0  0  0  0
   38.5540   27.7680   35.6480 H   0  0  0  0  0  0  0  0  0  0  0  0
   38.4570   23.2650   36.6870 C   0  0  0  0  0  0  0  0  0  0  0  0
   38.9000   22.9690   37.8080 O   0  0  0  0  0  0  0  0  0  0  0  0
   37.5800   22.4190   35.9270 C   0  0  0  0  0  0  0  0  0  0  0  0
   37.8330   22.2970   34.5670 C   0  0  0  0  0  0  0  0  0  0  0  0
   36.9930   21.4820   33.7980 C   0  0  0  0  0  0  0  0  0  0  0  0
   35.9620   20.8450   34.4380 N   0  0  0  0  0  0  0  0  0  0  0  0
   35.7460   20.9820   35.7450 C   0  0  0  0  0  0  0  0  0  0  0  0
   36.5440   21.7610   36.4940 N   0  0  0  0  0  0  0  0  0  0  0  0
   38.6570   22.8100   34.0700 H   0  0  0  0  0  0  0  0  0  0  0  0
   37.2020   21.3980   32.7440 H   0  0  0  0  0  0  0  0  0  0  0  0
   34.8950   20.4180   36.1030 H   0  0  0  0  0  0  0  0  0  0  0  0
   40.6950   26.7440   33.9800 C   0  0  0  0  0  0  0  0  0  0  0  0
   41.9250   26.8460   34.3070 O   0  0  0  0  0  0  0  0  0  0  0  0
   40.1900   27.2740   32.6690 C   0  0  1  0  0  0  0  0  0  0  0  0
   40.0860   26.1030   31.6210 C   0  0  0  0  0  0  0  0  0  0  0  0
   38.9010   26.8370   32.1320 C   0  0  2  0  0  0  0  0  0  0  0  0
   40.8780   28.0260   32.2240 H   0  0  0  0  0  0  0  0  0  0  0  0
   40.2120   25.0870   31.9850 H   0  0  0  0  0  0  0  0  0  0  0  0
   40.3980   26.2980   30.6000 H   0  0  0  0  0  0  0  0  0  0  0  0
   38.2040   26.3890   32.8740 H   0  0  0  0  0  0  0  0  0  0  0  0
   36.4610   28.0760   33.4150 Cl  0  0  0  0  0  0  0  0  0  0  0  0
   37.0830   28.4570   31.8200 C   0  0  0  0  0  0  0  0  0  0  0  0
   38.2190   27.8580   31.2630 C   0  0  0  0  0  0  0  0  0  0  0  0
   38.6410   28.2140   30.0020 C   0  0  0  0  0  0  0  0  0  0  0  0
   39.5100   27.7380   29.6090 H   0  0  0  0  0  0  0  0  0  0  0  0
   37.9620   29.1600   29.2640 C   0  0  0  0  0  0  0  0  0  0  0  0
   38.3120   29.4300   28.2690 H   0  0  0  0  0  0  0  0  0  0  0  0
   36.8260   29.7900   29.7670 C   0  0  0  0  0  3  0  0  0  0  0  0
   36.4470   29.3960   31.0340 C   0  0  0  0  0  3  0  0  0  0  0  0
  1  2  2  0  0  0  0
  1  8  1  0  0  0  0
  2  6  1  0  0  0  0
  3  2  1  0  0  0  0
  4  5  1  0  0  0  0
  4  3  2  0  0  0  0
  5  1  1  0  0  0  0
  7  3  1  0  0  0  0
  8  9  2  0  0  0  0
 10 15  1  0  0  0  0
 10  8  1  0  0  0  0
 11 10  2  0  0  0  0
 12 13  2  0  0  0  0
 12 11  1  0  0  0  0
 13 14  1  0  0  0  0
 14 18  1  0  0  0  0
 14 15  2  0  0  0  0
 16 11  1  0  0  0  0
 17 12  1  0  0  0  0
 19 20  2  0  0  0  0
 19  4  1  0  0  0  0
 21 24  1  6  0  0  0
 21 19  1  0  0  0  0
 22 25  1  0  0  0  0
 22 23  1  0  0  0  0
 22 21  1  0  0  0  0
 23 21  1  0  0  0  0
 23 27  1  1  0  0  0
 26 22  1  0  0  0  0
 29 28  1  0  0  0  0
 30 29  1  0  0  0  0
 30 23  1  0  0  0  0
 31 30  2  0  0  0  0
 32 31  1  0  0  0  0
 33 35  2  0  0  0  0
 33 31  1  0  0  0  0
 34 33  1  0  0  0  0
 35 36  1  0  0  0  0
 36 29  2  0  0  0  0
M  END
>  <minimizedAffinity>
-5.54998255

$$$$
