
 OpenBabel03262523273D

 40 43  0  0  1  0  0  0  0  0999 V2000
   34.5720   29.4980   32.2620 C   0  0  0  0  0  0  0  0  0  0  0  0
   35.1760   30.1830   31.2120 C   0  0  0  0  0  0  0  0  0  0  0  0
   36.5050   29.9210   30.9490 C   0  0  0  0  0  0  0  0  0  0  0  0
   37.1430   29.0090   31.7330 N   0  0  0  0  0  0  0  0  0  0  0  0
   36.5310   28.3600   32.7440 C   0  0  0  0  0  0  0  0  0  0  0  0
   35.2560   28.6020   33.0070 N   0  0  0  0  0  0  0  0  0  0  0  0
   37.2880   27.4060   33.5280 N   0  0  0  0  0  0  0  0  0  0  0  0
   37.1720   27.4050   34.9620 C   0  0  0  0  0  0  0  0  0  0  0  0
   38.4300   26.9420   35.6560 C   0  0  0  0  0  0  0  0  0  0  0  0
   39.5830   27.1240   34.7030 C   0  0  0  0  0  0  0  0  0  0  0  0
   39.3910   26.1150   33.5970 C   0  0  0  0  0  0  0  0  0  0  0  0
   38.1640   26.4590   32.8320 C   0  0  1  0  0  0  0  0  0  0  0  0
   33.5410   29.6330   32.5430 H   0  0  0  0  0  0  0  0  0  0  0  0
   34.5940   30.8950   30.6350 H   0  0  0  0  0  0  0  0  0  0  0  0
   37.0150   30.4290   30.1440 H   0  0  0  0  0  0  0  0  0  0  0  0
   36.3290   26.7520   35.2720 H   0  0  0  0  0  0  0  0  0  0  0  0
   36.8820   28.4380   35.2700 H   0  0  0  0  0  0  0  0  0  0  0  0
   38.5730   27.4230   36.6390 H   0  0  0  0  0  0  0  0  0  0  0  0
   38.3540   25.8380   35.8360 H   0  0  0  0  0  0  0  0  0  0  0  0
   40.5160   26.9310   35.2510 H   0  0  0  0  0  0  0  0  0  0  0  0
   39.5110   28.1500   34.2790 H   0  0  0  0  0  0  0  0  0  0  0  0
   39.4520   25.1280   34.0400 H   0  0  0  0  0  0  0  0  0  0  0  0
   40.3130   26.2110   32.9520 H   0  0  0  0  0  0  0  0  0  0  0  0
   38.4730   27.0310   31.9080 H   0  0  0  0  0  0  0  0  0  0  0  0
   37.4170   25.2910   32.3500 C   0  0  0  0  0  0  0  0  0  0  0  0
   36.2980   25.2850   31.5170 C   0  0  0  0  0  0  0  0  0  0  0  0
   35.7240   24.0980   31.1660 C   0  0  0  0  0  0  0  0  0  0  0  0
   36.3350   22.9090   31.6970 C   0  0  0  0  0  0  0  0  0  0  0  0
   37.7570   23.6410   32.7080 S   0  0  0  0  0  0  0  0  0  0  0  0
   35.8230   26.1660   31.1040 H   0  0  0  0  0  0  0  0  0  0  0  0
   34.8950   23.8450   30.5650 H   0  0  0  0  0  0  0  0  0  0  0  0
   38.3930   21.3270   30.0910 Cl  0  0  0  0  0  0  0  0  0  0  0  0
   36.9830   20.7100   30.9250 C   0  0  0  0  0  0  0  0  0  0  0  0
   36.1140   21.5050   31.6230 C   0  0  0  0  0  0  0  0  0  0  0  0
   34.9920   21.0930   32.2980 C   0  0  0  0  0  0  0  0  0  0  0  0
   34.3290   21.7460   32.8370 H   0  0  0  0  0  0  0  0  0  0  0  0
   34.6970   19.7240   32.2780 C   0  0  0  0  0  0  0  0  0  0  0  0
   33.8310   19.3230   32.7850 H   0  0  0  0  0  0  0  0  0  0  0  0
   35.5410   18.8530   31.5840 C   0  0  0  0  0  3  0  0  0  0  0  0
   36.6660   19.3470   30.9200 C   0  0  0  0  0  3  0  0  0  0  0  0
  1 13  1  0  0  0  0
  1  6  1  0  0  0  0
  2  1  2  0  0  0  0
  3  2  1  0  0  0  0
  3  4  2  0  0  0  0
  4  5  1  0  0  0  0
  5  6  2  0  0  0  0
  5  7  1  0  0  0  0
  7  8  1  0  0  0  0
  8 17  1  0  0  0  0
  8 16  1  0  0  0  0
  8  9  1  0  0  0  0
  9 19  1  0  0  0  0
  9 18  1  0  0  0  0
 10 20  1  0  0  0  0
 10  9  1  0  0  0  0
 11 22  1  0  0  0  0
 11 10  1  0  0  0  0
 12 24  1  6  0  0  0
 12  7  1  0  0  0  0
 12 11  1  0  0  0  0
 14  2  1  0  0  0  0
 15  3  1  0  0  0  0
 21 10  1  0  0  0  0
 23 11  1  0  0  0  0
 25 29  1  0  0  0  0
 25 12  1  0  0  0  0
 26 25  2  0  0  0  0
 27 26  1  0  0  0  0
 27 28  2  0  0  0  0
 28 29  1  0  0  0  0
 30 26  1  0  0  0  0
 31 27  1  0  0  0  0
 32 33  1  0  0  0  0
 33 34  1  0  0  0  0
 34 28  1  0  0  0  0
 34 35  2  0  0  0  0
 35 36  1  0  0  0  0
 37 35  1  0  0  0  0
 37 38  1  0  0  0  0
 39 37  2  0  0  0  0
 40 33  2  0  0  0  0
 40 39  1  0  0  0  0
M  END
>  <minimizedAffinity>
-6.31346035

$$$$

 OpenBabel03262523273D

 40 43  0  0  1  0  0  0  0  0999 V2000
   38.2070   23.0780   36.8830 C   0  0  0  0  0  0  0  0  0  0  0  0
   39.5890   22.9900   36.7470 C   0  0  0  0  0  0  0  0  0  0  0  0
   40.0900   22.4230   35.5930 C   0  0  0  0  0  0  0  0  0  0  0  0
   39.2000   21.9850   34.6590 N   0  0  0  0  0  0  0  0  0  0  0  0
   37.8660   22.0840   34.8200 C   0  0  0  0  0  0  0  0  0  0  0  0
   37.3720   22.6260   35.9230 N   0  0  0  0  0  0  0  0  0  0  0  0
   36.9930   21.5890   33.7750 N   0  0  0  0  0  0  0  0  0  0  0  0
   35.8370   20.8050   34.1180 C   0  0  0  0  0  0  0  0  0  0  0  0
   35.4610   19.8070   33.0500 C   0  0  0  0  0  0  0  0  0  0  0  0
   36.6780   19.5520   32.2000 C   0  0  0  0  0  0  0  0  0  0  0  0
   36.9390   20.8240   31.4280 C   0  0  0  0  0  0  0  0  0  0  0  0
   37.3170   21.9010   32.3800 C   0  0  1  0  0  0  0  0  0  0  0  0
   37.7210   23.5040   37.7450 H   0  0  0  0  0  0  0  0  0  0  0  0
   40.2280   23.3650   37.5400 H   0  0  0  0  0  0  0  0  0  0  0  0
   41.1550   22.3340   35.4440 H   0  0  0  0  0  0  0  0  0  0  0  0
   34.9700   21.4740   34.3070 H   0  0  0  0  0  0  0  0  0  0  0  0
   36.0530   20.3090   35.0950 H   0  0  0  0  0  0  0  0  0  0  0  0
   34.9980   18.8960   33.4650 H   0  0  0  0  0  0  0  0  0  0  0  0
   34.7060   20.2800   32.3680 H   0  0  0  0  0  0  0  0  0  0  0  0
   36.4540   18.7200   31.5180 H   0  0  0  0  0  0  0  0  0  0  0  0
   37.5330   19.3590   32.8850 H   0  0  0  0  0  0  0  0  0  0  0  0
   36.0870   20.9940   30.7820 H   0  0  0  0  0  0  0  0  0  0  0  0
   37.7950   20.5730   30.7360 H   0  0  0  0  0  0  0  0  0  0  0  0
   38.4440   21.9810   32.3930 H   0  0  0  0  0  0  0  0  0  0  0  0
   36.8250   23.2310   31.9990 C   0  0  0  0  0  0  0  0  0  0  0  0
   35.6340   23.5380   31.3420 C   0  0  0  0  0  0  0  0  0  0  0  0
   35.3330   24.8390   31.0630 C   0  0  0  0  0  0  0  0  0  0  0  0
   36.2940   25.8230   31.4810 C   0  0  0  0  0  0  0  0  0  0  0  0
   37.6180   24.7340   32.2810 S   0  0  0  0  0  0  0  0  0  0  0  0
   34.8950   22.8150   31.0200 H   0  0  0  0  0  0  0  0  0  0  0  0
   34.5150   25.3070   30.5880 H   0  0  0  0  0  0  0  0  0  0  0  0
   38.6460   26.8670   29.8400 Cl  0  0  0  0  0  0  0  0  0  0  0  0
   37.4500   27.8030   30.7100 C   0  0  0  0  0  0  0  0  0  0  0  0
   36.4260   27.2390   31.4210 C   0  0  0  0  0  0  0  0  0  0  0  0
   35.4560   27.9080   32.1260 C   0  0  0  0  0  0  0  0  0  0  0  0
   34.6630   27.4330   32.6760 H   0  0  0  0  0  0  0  0  0  0  0  0
   35.5090   29.3070   32.1220 C   0  0  0  0  0  0  0  0  0  0  0  0
   34.7810   29.9040   32.6540 H   0  0  0  0  0  0  0  0  0  0  0  0
   36.5280   29.9510   31.4170 C   0  0  0  0  0  3  0  0  0  0  0  0
   37.4810   29.2020   30.7230 C   0  0  0  0  0  3  0  0  0  0  0  0
  1 13  1  0  0  0  0
  2  1  1  0  0  0  0
  2 14  1  0  0  0  0
  3  2  2  0  0  0  0
  4  5  2  0  0  0  0
  4  3  1  0  0  0  0
  5  6  1  0  0  0  0
  6  1  2  0  0  0  0
  7  8  1  0  0  0  0
  7  5  1  0  0  0  0
  8 16  1  0  0  0  0
  8 17  1  0  0  0  0
  9 18  1  0  0  0  0
  9  8  1  0  0  0  0
 10 21  1  0  0  0  0
 10  9  1  0  0  0  0
 11 10  1  0  0  0  0
 11 12  1  0  0  0  0
 12 24  1  6  0  0  0
 12  7  1  0  0  0  0
 15  3  1  0  0  0  0
 19  9  1  0  0  0  0
 20 10  1  0  0  0  0
 22 11  1  0  0  0  0
 23 11  1  0  0  0  0
 25 29  1  0  0  0  0
 25 12  1  0  0  0  0
 26 25  2  0  0  0  0
 27 26  1  0  0  0  0
 27 28  2  0  0  0  0
 28 29  1  0  0  0  0
 30 26  1  0  0  0  0
 31 27  1  0  0  0  0
 32 33  1  0  0  0  0
 33 40  2  0  0  0  0
 33 34  1  0  0  0  0
 34 28  1  0  0  0  0
 34 35  2  0  0  0  0
 35 36  1  0  0  0  0
 37 35  1  0  0  0  0
 37 38  1  0  0  0  0
 39 37  2  0  0  0  0
 40 39  1  0  0  0  0
M  END
>  <minimizedAffinity>
-6.10768652

$$$$

 OpenBabel03262523273D

 40 43  0  0  1  0  0  0  0  0999 V2000
   37.4820   28.7430   28.9640 C   0  0  0  0  0  0  0  0  0  0  0  0
   38.8550   28.7320   28.7400 C   0  0  0  0  0  0  0  0  0  0  0  0
   39.6750   28.3150   29.7690 C   0  0  0  0  0  0  0  0  0  0  0  0
   39.0890   27.9380   30.9390 N   0  0  0  0  0  0  0  0  0  0  0  0
   37.7540   27.9580   31.1260 C   0  0  0  0  0  0  0  0  0  0  0  0
   36.9560   28.3570   30.1470 N   0  0  0  0  0  0  0  0  0  0  0  0
   37.2170   27.5420   32.4050 N   0  0  0  0  0  0  0  0  0  0  0  0
   36.1770   28.3140   33.0310 C   0  0  0  0  0  0  0  0  0  0  0  0
   36.2130   28.2420   34.5380 C   0  0  0  0  0  0  0  0  0  0  0  0
   37.6040   27.8360   34.9530 C   0  0  0  0  0  0  0  0  0  0  0  0
   37.7800   26.4010   34.5200 C   0  0  0  0  0  0  0  0  0  0  0  0
   37.7550   26.3330   33.0360 C   0  0  1  0  0  0  0  0  0  0  0  0
   36.7620   29.0510   28.2240 H   0  0  0  0  0  0  0  0  0  0  0  0
   39.2410   29.0490   27.7760 H   0  0  0  0  0  0  0  0  0  0  0  0
   40.7460   28.2910   29.6410 H   0  0  0  0  0  0  0  0  0  0  0  0
   35.1820   27.9650   32.6780 H   0  0  0  0  0  0  0  0  0  0  0  0
   36.2760   29.3630   32.6600 H   0  0  0  0  0  0  0  0  0  0  0  0
   35.8490   29.1680   35.0150 H   0  0  0  0  0  0  0  0  0  0  0  0
   35.5400   27.4110   34.8740 H   0  0  0  0  0  0  0  0  0  0  0  0
   37.6780   27.9270   36.0460 H   0  0  0  0  0  0  0  0  0  0  0  0
   38.3220   28.4770   34.3950 H   0  0  0  0  0  0  0  0  0  0  0  0
   37.0610   25.8040   35.0670 H   0  0  0  0  0  0  0  0  0  0  0  0
   38.7900   26.0970   34.9240 H   0  0  0  0  0  0  0  0  0  0  0  0
   38.8220   26.3080   32.6650 H   0  0  0  0  0  0  0  0  0  0  0  0
   37.1170   25.1210   32.5060 C   0  0  0  0  0  0  0  0  0  0  0  0
   36.0260   25.0460   31.6420 C   0  0  0  0  0  0  0  0  0  0  0  0
   35.5590   23.8260   31.2490 C   0  0  0  0  0  0  0  0  0  0  0  0
   36.2490   22.6770   31.7690 C   0  0  0  0  0  0  0  0  0  0  0  0
   37.5800   23.4950   32.8370 S   0  0  0  0  0  0  0  0  0  0  0  0
   35.4920   25.8960   31.2350 H   0  0  0  0  0  0  0  0  0  0  0  0
   34.7690   23.5220   30.6180 H   0  0  0  0  0  0  0  0  0  0  0  0
   38.3770   21.3230   30.0510 Cl  0  0  0  0  0  0  0  0  0  0  0  0
   37.0520   20.5650   30.9080 C   0  0  0  0  0  0  0  0  0  0  0  0
   36.1440   21.2620   31.6580 C   0  0  0  0  0  0  0  0  0  0  0  0
   35.0840   20.7370   32.3550 C   0  0  0  0  0  0  0  0  0  0  0  0
   34.3870   21.3160   32.9350 H   0  0  0  0  0  0  0  0  0  0  0  0
   34.9040   19.3490   32.3010 C   0  0  0  0  0  0  0  0  0  0  0  0
   34.0930   18.8620   32.8220 H   0  0  0  0  0  0  0  0  0  0  0  0
   35.7940   18.5730   31.5530 C   0  0  0  0  0  3  0  0  0  0  0  0
   36.8500   19.1800   30.8700 C   0  0  0  0  0  3  0  0  0  0  0  0
  1  6  1  0  0  0  0
  2  1  2  0  0  0  0
  2  3  1  0  0  0  0
  3  4  2  0  0  0  0
  4  5  1  0  0  0  0
  5  7  1  0  0  0  0
  6  5  2  0  0  0  0
  7  8  1  0  0  0  0
  7 12  1  0  0  0  0
  8  9  1  0  0  0  0
  9 19  1  0  0  0  0
  9 10  1  0  0  0  0
  9 18  1  0  0  0  0
 10 20  1  0  0  0  0
 11 23  1  0  0  0  0
 11 10  1  0  0  0  0
 11 22  1  0  0  0  0
 12 24  1  6  0  0  0
 12 11  1  0  0  0  0
 13  1  1  0  0  0  0
 14  2  1  0  0  0  0
 15  3  1  0  0  0  0
 16  8  1  0  0  0  0
 17  8  1  0  0  0  0
 21 10  1  0  0  0  0
 25 29  1  0  0  0  0
 25 12  1  0  0  0  0
 26 25  2  0  0  0  0
 27 26  1  0  0  0  0
 27 28  2  0  0  0  0
 28 29  1  0  0  0  0
 30 26  1  0  0  0  0
 31 27  1  0  0  0  0
 32 33  1  0  0  0  0
 33 34  1  0  0  0  0
 34 28  1  0  0  0  0
 34 35  2  0  0  0  0
 35 36  1  0  0  0  0
 37 35  1  0  0  0  0
 37 38  1  0  0  0  0
 39 37  2  0  0  0  0
 40 33  2  0  0  0  0
 40 39  1  0  0  0  0
M  END
>  <minimizedAffinity>
-6.06541538

$$$$

 OpenBabel03262523273D

 40 43  0  0  1  0  0  0  0  0999 V2000
   38.3360   20.7270   32.2910 C   0  0  0  0  0  0  0  0  0  0  0  0
   36.9960   20.3650   32.3900 C   0  0  0  0  0  0  0  0  0  0  0  0
   36.2830   20.8200   33.4810 C   0  0  0  0  0  0  0  0  0  0  0  0
   36.9340   21.5940   34.3920 N   0  0  0  0  0  0  0  0  0  0  0  0
   38.2340   21.9290   34.2680 C   0  0  0  0  0  0  0  0  0  0  0  0
   38.9310   21.4990   33.2270 N   0  0  0  0  0  0  0  0  0  0  0  0
   38.8470   22.7560   35.2870 N   0  0  0  0  0  0  0  0  0  0  0  0
   40.1510   22.4210   35.7930 C   0  0  0  0  0  0  0  0  0  0  0  0
   40.3560   22.8470   37.2270 C   0  0  0  0  0  0  0  0  0  0  0  0
   39.0000   23.0090   37.8640 C   0  0  0  0  0  0  0  0  0  0  0  0
   38.3630   24.2160   37.2180 C   0  0  0  0  0  0  0  0  0  0  0  0
   38.1130   23.9240   35.7820 C   0  0  1  0  0  0  0  0  0  0  0  0
   38.9750   20.4230   31.4790 H   0  0  0  0  0  0  0  0  0  0  0  0
   36.5540   19.7430   31.6180 H   0  0  0  0  0  0  0  0  0  0  0  0
   35.2410   20.5640   33.5990 H   0  0  0  0  0  0  0  0  0  0  0  0
   40.9350   22.8940   35.1620 H   0  0  0  0  0  0  0  0  0  0  0  0
   40.2830   21.3200   35.6620 H   0  0  0  0  0  0  0  0  0  0  0  0
   41.0380   22.1750   37.7750 H   0  0  0  0  0  0  0  0  0  0  0  0
   40.8210   23.8670   37.2340 H   0  0  0  0  0  0  0  0  0  0  0  0
   39.1430   23.1720   38.9410 H   0  0  0  0  0  0  0  0  0  0  0  0
   38.4030   22.1040   37.6180 H   0  0  0  0  0  0  0  0  0  0  0  0
   38.9720   25.0770   37.4620 H   0  0  0  0  0  0  0  0  0  0  0  0
   37.3940   24.3670   37.7770 H   0  0  0  0  0  0  0  0  0  0  0  0
   37.0330   23.6120   35.6680 H   0  0  0  0  0  0  0  0  0  0  0  0
   38.2900   25.0840   34.9000 C   0  0  0  0  0  0  0  0  0  0  0  0
   39.2020   26.1280   35.0450 C   0  0  0  0  0  0  0  0  0  0  0  0
   39.2300   27.1340   34.1250 C   0  0  0  0  0  0  0  0  0  0  0  0
   38.2890   27.0380   33.0420 C   0  0  0  0  0  0  0  0  0  0  0  0
   37.3990   25.4220   33.4650 S   0  0  0  0  0  0  0  0  0  0  0  0
   39.9220   26.2210   35.8500 H   0  0  0  0  0  0  0  0  0  0  0  0
   39.8130   28.0070   34.0230 H   0  0  0  0  0  0  0  0  0  0  0  0
   35.8490   28.8490   33.3290 Cl  0  0  0  0  0  0  0  0  0  0  0  0
   36.8670   28.6420   31.9200 C   0  0  0  0  0  0  0  0  0  0  0  0
   37.9460   27.8010   31.8900 C   0  0  0  0  0  0  0  0  0  0  0  0
   38.7860   27.5880   30.8250 C   0  0  0  0  0  0  0  0  0  0  0  0
   39.6270   26.9170   30.8340 H   0  0  0  0  0  0  0  0  0  0  0  0
   38.5230   28.2980   29.6470 C   0  0  0  0  0  0  0  0  0  0  0  0
   39.1390   28.1840   28.7660 H   0  0  0  0  0  0  0  0  0  0  0  0
   37.4370   29.1750   29.6060 C   0  0  0  0  0  3  0  0  0  0  0  0
   36.6260   29.3400   30.7310 C   0  0  0  0  0  3  0  0  0  0  0  0
  1  2  2  0  0  0  0
  1  6  1  0  0  0  0
  2  3  1  0  0  0  0
  3 15  1  0  0  0  0
  3  4  2  0  0  0  0
  5  4  1  0  0  0  0
  5  7  1  0  0  0  0
  6  5  2  0  0  0  0
  7 12  1  0  0  0  0
  7  8  1  0  0  0  0
  8  9  1  0  0  0  0
  9 19  1  0  0  0  0
  9 18  1  0  0  0  0
  9 10  1  0  0  0  0
 10 20  1  0  0  0  0
 11 22  1  0  0  0  0
 11 23  1  0  0  0  0
 11 10  1  0  0  0  0
 12 24  1  6  0  0  0
 12 11  1  0  0  0  0
 13  1  1  0  0  0  0
 14  2  1  0  0  0  0
 16  8  1  0  0  0  0
 17  8  1  0  0  0  0
 21 10  1  0  0  0  0
 25 26  2  0  0  0  0
 25 12  1  0  0  0  0
 26 30  1  0  0  0  0
 27 26  1  0  0  0  0
 28 29  1  0  0  0  0
 28 27  2  0  0  0  0
 29 25  1  0  0  0  0
 31 27  1  0  0  0  0
 33 32  1  0  0  0  0
 34 33  1  0  0  0  0
 34 28  1  0  0  0  0
 35 36  1  0  0  0  0
 35 34  2  0  0  0  0
 37 35  1  0  0  0  0
 38 37  1  0  0  0  0
 39 37  2  0  0  0  0
 39 40  1  0  0  0  0
 40 33  2  0  0  0  0
M  END
>  <minimizedAffinity>
-6.06210518

$$$$

 OpenBabel03262523273D

 40 43  0  0  1  0  0  0  0  0999 V2000
   37.7070   23.3820   37.9610 C   0  0  0  0  0  0  0  0  0  0  0  0
   38.9460   23.2290   38.5750 C   0  0  0  0  0  0  0  0  0  0  0  0
   40.0150   22.8520   37.7870 C   0  0  0  0  0  0  0  0  0  0  0  0
   39.7910   22.6550   36.4590 N   0  0  0  0  0  0  0  0  0  0  0  0
   38.5780   22.8130   35.8920 C   0  0  0  0  0  0  0  0  0  0  0  0
   37.5430   23.1730   36.6360 N   0  0  0  0  0  0  0  0  0  0  0  0
   38.4310   22.5800   34.4700 N   0  0  0  0  0  0  0  0  0  0  0  0
   37.3080   21.8260   33.9800 C   0  0  0  0  0  0  0  0  0  0  0  0
   37.6130   21.0710   32.7090 C   0  0  0  0  0  0  0  0  0  0  0  0
   39.1070   20.8960   32.6160 C   0  0  0  0  0  0  0  0  0  0  0  0
   39.6860   22.2680   32.3670 C   0  0  0  0  0  0  0  0  0  0  0  0
   39.4430   23.1230   33.5590 C   0  0  1  0  0  0  0  0  0  0  0  0
   36.8150   23.6730   38.4900 H   0  0  0  0  0  0  0  0  0  0  0  0
   39.0380   23.4060   39.6420 H   0  0  0  0  0  0  0  0  0  0  0  0
   40.9950   22.7210   38.2200 H   0  0  0  0  0  0  0  0  0  0  0  0
   36.4480   22.5050   33.7980 H   0  0  0  0  0  0  0  0  0  0  0  0
   36.9850   21.1440   34.8030 H   0  0  0  0  0  0  0  0  0  0  0  0
   37.0400   20.1320   32.6260 H   0  0  0  0  0  0  0  0  0  0  0  0
   37.3260   21.7110   31.8340 H   0  0  0  0  0  0  0  0  0  0  0  0
   39.3230   20.2220   31.7760 H   0  0  0  0  0  0  0  0  0  0  0  0
   39.4640   20.5220   33.6010 H   0  0  0  0  0  0  0  0  0  0  0  0
   39.3110   22.6120   31.4110 H   0  0  0  0  0  0  0  0  0  0  0  0
   40.7900   22.0930   32.2110 H   0  0  0  0  0  0  0  0  0  0  0  0
   40.3790   23.1230   34.1900 H   0  0  0  0  0  0  0  0  0  0  0  0
   39.1760   24.5300   33.2370 C   0  0  0  0  0  0  0  0  0  0  0  0
   39.9890   25.6300   33.5040 C   0  0  0  0  0  0  0  0  0  0  0  0
   39.5820   26.8780   33.1330 C   0  0  0  0  0  0  0  0  0  0  0  0
   38.3070   26.9660   32.4730 C   0  0  0  0  0  0  0  0  0  0  0  0
   37.7770   25.1500   32.4440 S   0  0  0  0  0  0  0  0  0  0  0  0
   40.9530   25.5890   33.9960 H   0  0  0  0  0  0  0  0  0  0  0  0
   40.0110   27.8370   33.2240 H   0  0  0  0  0  0  0  0  0  0  0  0
   36.2880   28.2220   34.3880 Cl  0  0  0  0  0  0  0  0  0  0  0  0
   36.5530   28.6160   32.7030 C   0  0  0  0  0  0  0  0  0  0  0  0
   37.4890   27.9930   31.9230 C   0  0  0  0  0  0  0  0  0  0  0  0
   37.7520   28.2480   30.6000 C   0  0  0  0  0  0  0  0  0  0  0  0
   38.4960   27.7380   30.0140 H   0  0  0  0  0  0  0  0  0  0  0  0
   36.9920   29.2450   29.9750 C   0  0  0  0  0  0  0  0  0  0  0  0
   37.1390   29.5030   28.9360 H   0  0  0  0  0  0  0  0  0  0  0  0
   36.0170   29.9240   30.7110 C   0  0  0  0  0  3  0  0  0  0  0  0
   35.8070   29.6080   32.0550 C   0  0  0  0  0  3  0  0  0  0  0  0
  1 13  1  0  0  0  0
  1  2  1  0  0  0  0
  2 14  1  0  0  0  0
  3 15  1  0  0  0  0
  3  2  2  0  0  0  0
  4  3  1  0  0  0  0
  5  4  2  0  0  0  0
  5  6  1  0  0  0  0
  6  1  2  0  0  0  0
  7  5  1  0  0  0  0
  8  7  1  0  0  0  0
  8 17  1  0  0  0  0
  9  8  1  0  0  0  0
 10  9  1  0  0  0  0
 10 21  1  0  0  0  0
 11 10  1  0  0  0  0
 11 12  1  0  0  0  0
 12 24  1  1  0  0  0
 12  7  1  0  0  0  0
 16  8  1  0  0  0  0
 18  9  1  0  0  0  0
 19  9  1  0  0  0  0
 20 10  1  0  0  0  0
 22 11  1  0  0  0  0
 23 11  1  0  0  0  0
 25 26  2  0  0  0  0
 25 12  1  0  0  0  0
 26 30  1  0  0  0  0
 27 31  1  0  0  0  0
 27 26  1  0  0  0  0
 28 27  2  0  0  0  0
 29 28  1  0  0  0  0
 29 25  1  0  0  0  0
 33 32  1  0  0  0  0
 34 28  1  0  0  0  0
 34 33  2  0  0  0  0
 35 34  1  0  0  0  0
 36 35  1  0  0  0  0
 37 35  2  0  0  0  0
 37 39  1  0  0  0  0
 38 37  1  0  0  0  0
 39 40  2  0  0  0  0
 40 33  1  0  0  0  0
M  END
>  <minimizedAffinity>
-5.97510767

$$$$

 OpenBabel03262523273D

 40 43  0  0  1  0  0  0  0  0999 V2000
   38.2490   23.0210   36.9420 C   0  0  0  0  0  0  0  0  0  0  0  0
   39.6310   22.9620   36.7950 C   0  0  0  0  0  0  0  0  0  0  0  0
   40.1340   22.4470   35.6170 C   0  0  0  0  0  0  0  0  0  0  0  0
   39.2460   22.0290   34.6730 N   0  0  0  0  0  0  0  0  0  0  0  0
   37.9110   22.1000   34.8440 C   0  0  0  0  0  0  0  0  0  0  0  0
   37.4150   22.5920   35.9700 N   0  0  0  0  0  0  0  0  0  0  0  0
   37.0400   21.6310   33.7860 N   0  0  0  0  0  0  0  0  0  0  0  0
   35.8990   20.8160   34.1060 C   0  0  0  0  0  0  0  0  0  0  0  0
   35.5320   19.8520   33.0030 C   0  0  0  0  0  0  0  0  0  0  0  0
   36.7490   19.6500   32.1370 C   0  0  0  0  0  0  0  0  0  0  0  0
   36.9830   20.9540   31.4130 C   0  0  0  0  0  0  0  0  0  0  0  0
   37.3500   22.0010   32.4020 C   0  0  1  0  0  0  0  0  0  0  0  0
   37.7620   23.4060   37.8220 H   0  0  0  0  0  0  0  0  0  0  0  0
   40.2690   23.3160   37.5980 H   0  0  0  0  0  0  0  0  0  0  0  0
   41.2000   22.3810   35.4590 H   0  0  0  0  0  0  0  0  0  0  0  0
   35.0220   21.4620   34.3260 H   0  0  0  0  0  0  0  0  0  0  0  0
   36.1290   20.2870   35.0620 H   0  0  0  0  0  0  0  0  0  0  0  0
   35.0870   18.9190   33.3860 H   0  0  0  0  0  0  0  0  0  0  0  0
   34.7660   20.3380   32.3440 H   0  0  0  0  0  0  0  0  0  0  0  0
   36.5340   18.8410   31.4250 H   0  0  0  0  0  0  0  0  0  0  0  0
   37.6110   19.4450   32.8100 H   0  0  0  0  0  0  0  0  0  0  0  0
   36.1250   21.1340   30.7780 H   0  0  0  0  0  0  0  0  0  0  0  0
   37.8390   20.7440   30.7070 H   0  0  0  0  0  0  0  0  0  0  0  0
   38.4750   22.0990   32.4120 H   0  0  0  0  0  0  0  0  0  0  0  0
   36.8340   23.3350   32.0750 C   0  0  0  0  0  0  0  0  0  0  0  0
   35.5900   23.6540   31.5310 C   0  0  0  0  0  0  0  0  0  0  0  0
   35.2730   24.9580   31.2870 C   0  0  0  0  0  0  0  0  0  0  0  0
   36.2750   25.9340   31.6210 C   0  0  0  0  0  0  0  0  0  0  0  0
   37.6590   24.8320   32.2920 S   0  0  0  0  0  0  0  0  0  0  0  0
   34.8200   22.9370   31.2730 H   0  0  0  0  0  0  0  0  0  0  0  0
   34.4190   25.4340   30.8920 H   0  0  0  0  0  0  0  0  0  0  0  0
   36.2160   27.3940   34.3010 Cl  0  0  0  0  0  0  0  0  0  0  0  0
   36.3950   28.0930   32.7060 C   0  0  0  0  0  0  0  0  0  0  0  0
   36.4100   27.3500   31.5570 C   0  0  0  0  0  0  0  0  0  0  0  0
   36.5460   27.8270   30.2770 C   0  0  0  0  0  0  0  0  0  0  0  0
   36.5540   27.2140   29.3930 H   0  0  0  0  0  0  0  0  0  0  0  0
   36.6850   29.2120   30.1190 C   0  0  0  0  0  0  0  0  0  0  0  0
   36.7960   29.6630   29.1440 H   0  0  0  0  0  0  0  0  0  0  0  0
   36.6780   30.0330   31.2500 C   0  0  0  0  0  3  0  0  0  0  0  0
   36.5350   29.4730   32.5210 C   0  0  0  0  0  3  0  0  0  0  0  0
  1 13  1  0  0  0  0
  2  1  1  0  0  0  0
  2 14  1  0  0  0  0
  3  2  2  0  0  0  0
  4  5  2  0  0  0  0
  4  3  1  0  0  0  0
  5  6  1  0  0  0  0
  6  1  2  0  0  0  0
  7  8  1  0  0  0  0
  7  5  1  0  0  0  0
  8 16  1  0  0  0  0
  8 17  1  0  0  0  0
  9 18  1  0  0  0  0
  9  8  1  0  0  0  0
 10 21  1  0  0  0  0
 10  9  1  0  0  0  0
 11 10  1  0  0  0  0
 11 12  1  0  0  0  0
 12 24  1  6  0  0  0
 12  7  1  0  0  0  0
 15  3  1  0  0  0  0
 19  9  1  0  0  0  0
 20 10  1  0  0  0  0
 22 11  1  0  0  0  0
 23 11  1  0  0  0  0
 25 29  1  0  0  0  0
 25 12  1  0  0  0  0
 26 25  2  0  0  0  0
 27 26  1  0  0  0  0
 27 28  2  0  0  0  0
 28 29  1  0  0  0  0
 30 26  1  0  0  0  0
 31 27  1  0  0  0  0
 33 32  1  0  0  0  0
 34 28  1  0  0  0  0
 34 33  2  0  0  0  0
 35 34  1  0  0  0  0
 36 35  1  0  0  0  0
 37 35  2  0  0  0  0
 37 39  1  0  0  0  0
 38 37  1  0  0  0  0
 39 40  2  0  0  0  0
 40 33  1  0  0  0  0
M  END
>  <minimizedAffinity>
-5.94629622

$$$$

 OpenBabel03262523273D

 40 43  0  0  1  0  0  0  0  0999 V2000
   32.4410   30.3210   35.2070 C   0  0  0  0  0  0  0  0  0  0  0  0
   31.4300   29.5150   34.6910 C   0  0  0  0  0  0  0  0  0  0  0  0
   31.6890   28.8200   33.5280 C   0  0  0  0  0  0  0  0  0  0  0  0
   32.9170   28.9650   32.9570 N   0  0  0  0  0  0  0  0  0  0  0  0
   33.8770   29.7520   33.4810 C   0  0  0  0  0  0  0  0  0  0  0  0
   33.6420   30.4260   34.5980 N   0  0  0  0  0  0  0  0  0  0  0  0
   35.1540   29.8480   32.8050 N   0  0  0  0  0  0  0  0  0  0  0  0
   35.7790   31.1320   32.6320 C   0  0  0  0  0  0  0  0  0  0  0  0
   36.6330   31.2120   31.3900 C   0  0  0  0  0  0  0  0  0  0  0  0
   36.1720   30.1400   30.4370 C   0  0  0  0  0  0  0  0  0  0  0  0
   36.5590   28.8180   31.0560 C   0  0  0  0  0  0  0  0  0  0  0  0
   35.7820   28.6210   32.3070 C   0  0  1  0  0  0  0  0  0  0  0  0
   32.3360   30.9000   36.1090 H   0  0  0  0  0  0  0  0  0  0  0  0
   30.4790   29.4570   35.2100 H   0  0  0  0  0  0  0  0  0  0  0  0
   30.9340   28.1840   33.0910 H   0  0  0  0  0  0  0  0  0  0  0  0
   36.4080   31.3690   33.5170 H   0  0  0  0  0  0  0  0  0  0  0  0
   34.9650   31.8970   32.6290 H   0  0  0  0  0  0  0  0  0  0  0  0
   36.6560   32.2260   30.9560 H   0  0  0  0  0  0  0  0  0  0  0  0
   37.6870   30.9450   31.6630 H   0  0  0  0  0  0  0  0  0  0  0  0
   36.6860   30.2880   29.4770 H   0  0  0  0  0  0  0  0  0  0  0  0
   35.0630   30.2020   30.3710 H   0  0  0  0  0  0  0  0  0  0  0  0
   37.6400   28.7920   31.1200 H   0  0  0  0  0  0  0  0  0  0  0  0
   36.2850   28.0440   30.2810 H   0  0  0  0  0  0  0  0  0  0  0  0
   34.8960   27.9600   32.0730 H   0  0  0  0  0  0  0  0  0  0  0  0
   36.5270   27.9310   33.3670 C   0  0  0  0  0  0  0  0  0  0  0  0
   36.9120   28.4430   34.6050 C   0  0  0  0  0  0  0  0  0  0  0  0
   37.6070   27.6560   35.4760 C   0  0  0  0  0  0  0  0  0  0  0  0
   37.8970   26.3180   35.0390 C   0  0  0  0  0  0  0  0  0  0  0  0
   37.1040   26.3080   33.3210 S   0  0  0  0  0  0  0  0  0  0  0  0
   36.7020   29.4460   34.9580 H   0  0  0  0  0  0  0  0  0  0  0  0
   37.9960   27.8160   36.4440 H   0  0  0  0  0  0  0  0  0  0  0  0
   40.7070   25.8090   33.9600 Cl  0  0  0  0  0  0  0  0  0  0  0  0
   39.8260   24.8620   35.1390 C   0  0  0  0  0  0  0  0  0  0  0  0
   38.5620   25.1730   35.5620 C   0  0  0  0  0  0  0  0  0  0  0  0
   37.8130   24.4800   36.4800 C   0  0  0  0  0  0  0  0  0  0  0  0
   36.8200   24.7530   36.7910 H   0  0  0  0  0  0  0  0  0  0  0  0
   38.3900   23.3370   37.0480 C   0  0  0  0  0  0  0  0  0  0  0  0
   37.8630   22.7380   37.7770 H   0  0  0  0  0  0  0  0  0  0  0  0
   39.6790   22.9580   36.6620 C   0  0  0  0  0  3  0  0  0  0  0  0
   40.3800   23.7150   35.7210 C   0  0  0  0  0  3  0  0  0  0  0  0
  1 13  1  0  0  0  0
  2  1  1  0  0  0  0
  2 14  1  0  0  0  0
  3  2  2  0  0  0  0
  4  5  2  0  0  0  0
  4  3  1  0  0  0  0
  5  6  1  0  0  0  0
  6  1  2  0  0  0  0
  7  5  1  0  0  0  0
  8  7  1  0  0  0  0
  8 16  1  0  0  0  0
  9 19  1  0  0  0  0
  9  8  1  0  0  0  0
 10 11  1  0  0  0  0
 10  9  1  0  0  0  0
 11 22  1  0  0  0  0
 11 12  1  0  0  0  0
 12 24  1  6  0  0  0
 12  7  1  0  0  0  0
 12 25  1  0  0  0  0
 15  3  1  0  0  0  0
 17  8  1  0  0  0  0
 18  9  1  0  0  0  0
 20 10  1  0  0  0  0
 21 10  1  0  0  0  0
 23 11  1  0  0  0  0
 25 26  2  0  0  0  0
 26 30  1  0  0  0  0
 26 27  1  0  0  0  0
 27 31  1  0  0  0  0
 28 27  2  0  0  0  0
 28 34  1  0  0  0  0
 29 25  1  0  0  0  0
 29 28  1  0  0  0  0
 32 33  1  0  0  0  0
 33 34  2  0  0  0  0
 33 40  1  0  0  0  0
 34 35  1  0  0  0  0
 35 36  1  0  0  0  0
 35 37  2  0  0  0  0
 37 38  1  0  0  0  0
 39 37  1  0  0  0  0
 40 39  2  0  0  0  0
M  END
>  <minimizedAffinity>
-5.8744421

$$$$

 OpenBabel03262523273D

 40 43  0  0  1  0  0  0  0  0999 V2000
   37.7680   23.3690   38.0640 C   0  0  0  0  0  0  0  0  0  0  0  0
   39.0220   23.2140   38.6480 C   0  0  0  0  0  0  0  0  0  0  0  0
   40.0740   22.8520   37.8310 C   0  0  0  0  0  0  0  0  0  0  0  0
   39.8200   22.6690   36.5060 N   0  0  0  0  0  0  0  0  0  0  0  0
   38.5930   22.8270   35.9700 C   0  0  0  0  0  0  0  0  0  0  0  0
   37.5750   23.1750   36.7420 N   0  0  0  0  0  0  0  0  0  0  0  0
   38.4140   22.6100   34.5490 N   0  0  0  0  0  0  0  0  0  0  0  0
   37.2830   21.8560   34.0770 C   0  0  0  0  0  0  0  0  0  0  0  0
   37.5610   21.1170   32.7900 C   0  0  0  0  0  0  0  0  0  0  0  0
   39.0530   20.9500   32.6610 C   0  0  0  0  0  0  0  0  0  0  0  0
   39.6200   22.3270   32.4140 C   0  0  0  0  0  0  0  0  0  0  0  0
   39.4010   23.1670   33.6200 C   0  0  1  0  0  0  0  0  0  0  0  0
   36.8870   23.6510   38.6170 H   0  0  0  0  0  0  0  0  0  0  0  0
   39.1380   23.3800   39.7140 H   0  0  0  0  0  0  0  0  0  0  0  0
   41.0640   22.7190   38.2400 H   0  0  0  0  0  0  0  0  0  0  0  0
   36.4150   22.5330   33.9220 H   0  0  0  0  0  0  0  0  0  0  0  0
   36.9810   21.1640   34.8990 H   0  0  0  0  0  0  0  0  0  0  0  0
   36.9900   20.1760   32.7110 H   0  0  0  0  0  0  0  0  0  0  0  0
   37.2510   21.7660   31.9300 H   0  0  0  0  0  0  0  0  0  0  0  0
   39.2520   20.2860   31.8080 H   0  0  0  0  0  0  0  0  0  0  0  0
   39.4340   20.5660   33.6330 H   0  0  0  0  0  0  0  0  0  0  0  0
   39.2220   22.6800   31.4710 H   0  0  0  0  0  0  0  0  0  0  0  0
   40.7210   22.1590   32.2300 H   0  0  0  0  0  0  0  0  0  0  0  0
   40.3520   23.1640   34.2300 H   0  0  0  0  0  0  0  0  0  0  0  0
   39.1210   24.5770   33.3210 C   0  0  0  0  0  0  0  0  0  0  0  0
   39.8150   25.6950   33.7790 C   0  0  0  0  0  0  0  0  0  0  0  0
   39.4140   26.9420   33.3990 C   0  0  0  0  0  0  0  0  0  0  0  0
   38.2730   27.0100   32.5270 C   0  0  0  0  0  0  0  0  0  0  0  0
   37.8540   25.1760   32.3200 S   0  0  0  0  0  0  0  0  0  0  0  0
   40.6780   25.6690   34.4340 H   0  0  0  0  0  0  0  0  0  0  0  0
   39.7700   27.9130   33.6090 H   0  0  0  0  0  0  0  0  0  0  0  0
   39.2260   27.8250   29.7440 Cl  0  0  0  0  0  0  0  0  0  0  0  0
   37.8610   28.4620   30.6370 C   0  0  0  0  0  0  0  0  0  0  0  0
   37.5120   28.0280   31.8860 C   0  0  0  0  0  0  0  0  0  0  0  0
   36.4590   28.4800   32.6430 C   0  0  0  0  0  0  0  0  0  0  0  0
   36.2120   28.1170   33.6260 H   0  0  0  0  0  0  0  0  0  0  0  0
   35.6550   29.4840   32.0910 C   0  0  0  0  0  0  0  0  0  0  0  0
   34.8080   29.8910   32.6260 H   0  0  0  0  0  0  0  0  0  0  0  0
   35.9530   29.9760   30.8170 C   0  0  0  0  0  3  0  0  0  0  0  0
   37.0420   29.4660   30.1070 C   0  0  0  0  0  3  0  0  0  0  0  0
  1 13  1  0  0  0  0
  1  2  1  0  0  0  0
  2 14  1  0  0  0  0
  3 15  1  0  0  0  0
  3  2  2  0  0  0  0
  4  3  1  0  0  0  0
  5  4  2  0  0  0  0
  5  6  1  0  0  0  0
  6  1  2  0  0  0  0
  7  5  1  0  0  0  0
  8  7  1  0  0  0  0
  8 17  1  0  0  0  0
  9  8  1  0  0  0  0
 10  9  1  0  0  0  0
 10 21  1  0  0  0  0
 11 10  1  0  0  0  0
 11 12  1  0  0  0  0
 12 24  1  1  0  0  0
 12  7  1  0  0  0  0
 16  8  1  0  0  0  0
 18  9  1  0  0  0  0
 19  9  1  0  0  0  0
 20 10  1  0  0  0  0
 22 11  1  0  0  0  0
 23 11  1  0  0  0  0
 25 12  1  0  0  0  0
 25 26  2  0  0  0  0
 26 30  1  0  0  0  0
 27 31  1  0  0  0  0
 27 26  1  0  0  0  0
 28 27  2  0  0  0  0
 29 28  1  0  0  0  0
 29 25  1  0  0  0  0
 32 33  1  0  0  0  0
 33 34  1  0  0  0  0
 34 28  1  0  0  0  0
 34 35  2  0  0  0  0
 35 36  1  0  0  0  0
 37 38  1  0  0  0  0
 37 35  1  0  0  0  0
 39 37  2  0  0  0  0
 40 33  2  0  0  0  0
 40 39  1  0  0  0  0
M  END
>  <minimizedAffinity>
-5.81913662

$$$$

 OpenBabel03262523273D

 40 43  0  0  1  0  0  0  0  0999 V2000
   41.6440   26.2610   31.9570 C   0  0  0  0  0  0  0  0  0  0  0  0
   41.9200   26.3740   33.3170 C   0  0  0  0  0  0  0  0  0  0  0  0
   40.9330   26.8820   34.1360 C   0  0  0  0  0  0  0  0  0  0  0  0
   39.7500   27.2400   33.5640 N   0  0  0  0  0  0  0  0  0  0  0  0
   39.5120   27.1180   32.2430 C   0  0  0  0  0  0  0  0  0  0  0  0
   40.4510   26.6320   31.4450 N   0  0  0  0  0  0  0  0  0  0  0  0
   38.2240   27.5260   31.7200 N   0  0  0  0  0  0  0  0  0  0  0  0
   38.1550   28.3000   30.5090 C   0  0  0  0  0  0  0  0  0  0  0  0
   36.9600   29.2210   30.4640 C   0  0  0  0  0  0  0  0  0  0  0  0
   36.4960   29.4540   31.8790 C   0  0  0  0  0  0  0  0  0  0  0  0
   35.9230   28.1440   32.3640 C   0  0  0  0  0  0  0  0  0  0  0  0
   37.0120   27.1370   32.4470 C   0  0  1  0  0  0  0  0  0  0  0  0
   42.3490   25.8760   31.2390 H   0  0  0  0  0  0  0  0  0  0  0  0
   42.8910   26.0650   33.6910 H   0  0  0  0  0  0  0  0  0  0  0  0
   41.1020   26.9890   35.1970 H   0  0  0  0  0  0  0  0  0  0  0  0
   38.1210   27.6240   29.6290 H   0  0  0  0  0  0  0  0  0  0  0  0
   39.1170   28.8600   30.4210 H   0  0  0  0  0  0  0  0  0  0  0  0
   37.1580   30.1440   29.8930 H   0  0  0  0  0  0  0  0  0  0  0  0
   36.1170   28.6890   29.9500 H   0  0  0  0  0  0  0  0  0  0  0  0
   35.7250   30.2360   31.8640 H   0  0  0  0  0  0  0  0  0  0  0  0
   37.3900   29.7100   32.4880 H   0  0  0  0  0  0  0  0  0  0  0  0
   35.0640   27.9130   31.7450 H   0  0  0  0  0  0  0  0  0  0  0  0
   35.5020   28.3730   33.3870 H   0  0  0  0  0  0  0  0  0  0  0  0
   37.3660   27.0860   33.5190 H   0  0  0  0  0  0  0  0  0  0  0  0
   36.5910   25.7750   32.0980 C   0  0  0  0  0  0  0  0  0  0  0  0
   35.5720   25.4000   31.2230 C   0  0  0  0  0  0  0  0  0  0  0  0
   35.3130   24.0770   31.0160 C   0  0  0  0  0  0  0  0  0  0  0  0
   36.1340   23.1420   31.7350 C   0  0  0  0  0  0  0  0  0  0  0  0
   37.2690   24.3090   32.7000 S   0  0  0  0  0  0  0  0  0  0  0  0
   34.9430   26.0850   30.6690 H   0  0  0  0  0  0  0  0  0  0  0  0
   34.6130   23.5620   30.4170 H   0  0  0  0  0  0  0  0  0  0  0  0
   38.4630   21.8710   30.2260 Cl  0  0  0  0  0  0  0  0  0  0  0  0
   37.2580   21.0660   31.2070 C   0  0  0  0  0  0  0  0  0  0  0  0
   36.2460   21.7270   31.8480 C   0  0  0  0  0  0  0  0  0  0  0  0
   35.2690   21.1640   32.6310 C   0  0  0  0  0  0  0  0  0  0  0  0
   34.4850   21.7150   33.1220 H   0  0  0  0  0  0  0  0  0  0  0  0
   35.3010   19.7740   32.7980 C   0  0  0  0  0  0  0  0  0  0  0  0
   34.5650   19.2580   33.3980 H   0  0  0  0  0  0  0  0  0  0  0  0
   36.3060   19.0340   32.1710 C   0  0  0  0  0  3  0  0  0  0  0  0
   37.2670   19.6780   31.3890 C   0  0  0  0  0  3  0  0  0  0  0  0
  1  2  1  0  0  0  0
  2 14  1  0  0  0  0
  2  3  2  0  0  0  0
  3 15  1  0  0  0  0
  4  3  1  0  0  0  0
  5  4  2  0  0  0  0
  6  1  2  0  0  0  0
  6  5  1  0  0  0  0
  7  5  1  0  0  0  0
  7 12  1  0  0  0  0
  8  7  1  0  0  0  0
  9  8  1  0  0  0  0
  9 10  1  0  0  0  0
 10 11  1  0  0  0  0
 10 21  1  0  0  0  0
 11 12  1  0  0  0  0
 11 23  1  0  0  0  0
 12 24  1  1  0  0  0
 13  1  1  0  0  0  0
 16  8  1  0  0  0  0
 17  8  1  0  0  0  0
 18  9  1  0  0  0  0
 19  9  1  0  0  0  0
 20 10  1  0  0  0  0
 22 11  1  0  0  0  0
 25 12  1  0  0  0  0
 25 29  1  0  0  0  0
 26 25  2  0  0  0  0
 27 26  1  0  0  0  0
 27 28  2  0  0  0  0
 28 34  1  0  0  0  0
 28 29  1  0  0  0  0
 30 26  1  0  0  0  0
 31 27  1  0  0  0  0
 32 33  1  0  0  0  0
 33 40  2  0  0  0  0
 33 34  1  0  0  0  0
 34 35  2  0  0  0  0
 35 37  1  0  0  0  0
 35 36  1  0  0  0  0
 37 38  1  0  0  0  0
 39 37  2  0  0  0  0
 40 39  1  0  0  0  0
M  END
>  <minimizedAffinity>
-5.79124022

$$$$
