
 OpenBabel03272503023D

 28 30  0  0  0  0  0  0  0  0999 V2000
   37.8070   30.1390   47.0800 F   0  0  0  0  0  0  0  0  0  0  0  0
   38.3360   31.3160   47.5100 C   0  0  0  0  0  0  0  0  0  0  0  0
   38.0530   31.7580   48.7740 C   0  0  0  0  0  0  0  0  0  0  0  0
   38.6160   32.9510   49.1490 C   0  0  0  0  0  0  0  0  0  0  0  0
   39.4300   33.6890   48.3130 C   0  0  0  0  0  0  0  0  0  0  0  0
   39.6980   33.2190   47.0430 C   0  0  0  0  0  0  0  0  0  0  0  0
   39.1460   32.0280   46.6500 C   0  0  0  0  0  0  0  0  0  0  0  0
   38.4010   33.3160   50.1490 H   0  0  0  0  0  0  0  0  0  0  0  0
   39.8690   34.6310   48.6190 H   0  0  0  0  0  0  0  0  0  0  0  0
   40.3330   33.7670   46.3530 H   0  0  0  0  0  0  0  0  0  0  0  0
   36.7980   29.5510   51.5760 C   0  0  0  0  0  0  0  0  0  0  0  0
   37.6450   30.3300   50.7820 C   0  0  0  0  0  0  0  0  0  0  0  0
   37.1900   30.9430   49.6150 C   0  0  0  0  0  0  0  0  0  0  0  0
   35.8890   30.7340   49.3080 N   0  0  0  0  0  0  0  0  0  0  0  0
   35.0720   29.9870   50.0670 C   0  0  0  0  0  0  0  0  0  0  0  0
   35.5220   29.3980   51.1940 N   0  0  0  0  0  0  0  0  0  0  0  0
   37.2360   29.1140   52.4620 H   0  0  0  0  0  0  0  0  0  0  0  0
   38.6840   30.5110   51.0040 H   0  0  0  0  0  0  0  0  0  0  0  0
   34.0530   29.8970   49.7120 H   0  0  0  0  0  0  0  0  0  0  0  0
   40.0730   34.0480   44.6740 Cl  0  0  0  0  0  0  0  0  0  0  0  0
   39.8320   32.3500   44.3160 C   0  0  0  0  0  0  0  0  0  0  0  0
   39.3930   31.4690   45.3040 C   0  0  0  0  0  0  0  0  0  0  0  0
   39.1980   30.1130   45.0260 C   0  0  0  0  0  0  0  0  0  0  0  0
   38.8560   29.4530   45.8160 H   0  0  0  0  0  0  0  0  0  0  0  0
   39.4460   29.6500   43.7460 C   0  0  0  0  0  0  0  0  0  0  0  0
   39.3010   28.5930   43.5020 H   0  0  0  0  0  0  0  0  0  0  0  0
   39.8810   30.5400   42.7780 C   0  0  0  0  0  0  0  0  0  0  0  0
   40.0760   31.8790   43.0440 C   0  0  0  0  0  0  0  0  0  0  0  0
  1  2  1  0  0  0  0
  2  3  1  0  0  0  0
  3  4  2  0  0  0  0
  3 13  1  0  0  0  0
  4  8  1  0  0  0  0
  5  9  1  0  0  0  0
  5  4  1  0  0  0  0
  6  5  2  0  0  0  0
  7  6  1  0  0  0  0
  7  2  2  0  0  0  0
 10  6  1  0  0  0  0
 11 17  1  0  0  0  0
 12 18  1  0  0  0  0
 12 11  2  0  0  0  0
 13 12  1  0  0  0  0
 14 13  2  0  0  0  0
 14 15  1  0  0  0  0
 15 16  2  0  0  0  0
 16 11  1  0  0  0  0
 19 15  1  0  0  0  0
 21 20  1  0  0  0  0
 21 22  1  0  0  0  0
 22  7  1  0  0  0  0
 23 22  2  0  0  0  0
 23 24  1  0  0  0  0
 25 23  1  0  0  0  0
 26 25  1  0  0  0  0
 27 28  1  0  0  0  0
 27 25  2  0  0  0  0
 28 21  2  0  0  0  0
M  END
>  <minimizedAffinity>
-6.6882062

>  <minimizedRMSD>
0.962306738

$$$$
