
 OpenBabel03272503163D

 25 27  0  0  0  0  0  0  0  0999 V2000
   37.7000   31.2120   48.2590 C   0  0  0  0  0  0  0  0  0  0  0  0
   38.5640   32.2220   48.1280 C   0  0  0  0  0  0  0  0  0  0  0  0
   38.9540   32.6530   46.9200 C   0  0  0  0  0  0  0  0  0  0  0  0
   38.4150   32.0000   45.8200 C   0  0  0  0  0  0  0  0  0  0  0  0
   37.3270   30.7400   46.6100 S   0  0  0  0  0  0  0  0  0  0  0  0
   38.9510   32.6950   49.0500 H   0  0  0  0  0  0  0  0  0  0  0  0
   39.6350   33.4460   46.6830 H   0  0  0  0  0  0  0  0  0  0  0  0
   37.1740   29.9450   51.7560 C   0  0  0  0  0  0  0  0  0  0  0  0
   37.7920   30.5840   50.6690 C   0  0  0  0  0  0  0  0  0  0  0  0
   37.1340   30.5740   49.4400 C   0  0  0  0  0  0  0  0  0  0  0  0
   35.9440   29.9610   49.3370 N   0  0  0  0  0  0  0  0  0  0  0  0
   35.3680   29.3510   50.3980 C   0  0  0  0  0  0  0  0  0  0  0  0
   35.9860   29.3480   51.5940 N   0  0  0  0  0  0  0  0  0  0  0  0
   37.7910   30.0290   52.6410 H   0  0  0  0  0  0  0  0  0  0  0  0
   38.7410   31.0860   50.7060 H   0  0  0  0  0  0  0  0  0  0  0  0
   34.4090   28.8670   50.2830 H   0  0  0  0  0  0  0  0  0  0  0  0
   41.1290   31.2600   44.7520 Cl  0  0  0  0  0  0  0  0  0  0  0  0
   39.7660   31.8220   43.8160 C   0  0  0  0  0  0  0  0  0  0  0  0
   38.5590   32.1380   44.3960 C   0  0  0  0  0  0  0  0  0  0  0  0
   37.4350   32.5840   43.7520 C   0  0  0  0  0  0  0  0  0  0  0  0
   36.5100   32.8200   44.2380 H   0  0  0  0  0  0  0  0  0  0  0  0
   37.5080   32.7400   42.3630 C   0  0  0  0  0  0  0  0  0  0  0  0
   36.6650   33.0850   41.7980 H   0  0  0  0  0  0  0  0  0  0  0  0
   38.7010   32.4390   41.7160 C   0  0  0  0  0  0  0  0  0  0  0  0
   39.8030   31.9900   42.4280 C   0  0  0  0  0  0  0  0  0  0  0  0
  1 10  1  0  0  0  0
  2  1  2  0  0  0  0
  2  6  1  0  0  0  0
  3  2  1  0  0  0  0
  4  5  1  0  0  0  0
  4  3  2  0  0  0  0
  5  1  1  0  0  0  0
  7  3  1  0  0  0  0
  8 14  1  0  0  0  0
  9 15  1  0  0  0  0
  9  8  2  0  0  0  0
 10  9  1  0  0  0  0
 11 10  2  0  0  0  0
 11 12  1  0  0  0  0
 12 13  2  0  0  0  0
 13  8  1  0  0  0  0
 16 12  1  0  0  0  0
 18 19  1  0  0  0  0
 18 17  1  0  0  0  0
 19  4  1  0  0  0  0
 20 21  1  0  0  0  0
 20 19  2  0  0  0  0
 22 20  1  0  0  0  0
 23 22  1  0  0  0  0
 24 22  2  0  0  0  0
 24 25  1  0  0  0  0
 25 18  2  0  0  0  0
M  END
>  <minimizedAffinity>
-5.50940132

>  <minimizedRMSD>
0.611868739

$$$$
