
 OpenBabel03272505533D

 44 47  0  0  1  0  0  0  0  0999 V2000
   37.3820   28.7630   29.4820 C   0  0  0  0  0  0  0  0  0  0  0  0
   38.7620   28.7790   29.1390 C   0  0  0  0  0  0  0  0  0  0  0  0
   39.5690   27.7750   29.6870 C   0  0  0  0  0  0  0  0  0  0  0  0
   38.9880   26.8540   30.5070 N   0  0  0  0  0  0  0  0  0  0  0  0
   37.6740   26.8850   30.7990 C   0  0  0  0  0  0  0  0  0  0  0  0
   36.8790   27.8310   30.2900 N   0  0  0  0  0  0  0  0  0  0  0  0
   37.1360   25.8880   31.6530 N   0  0  0  0  0  0  0  0  0  0  0  0
   35.7610   25.4550   31.5330 C   0  0  0  0  0  0  0  0  0  0  0  0
   35.6890   23.9690   31.4060 C   0  0  0  0  0  0  0  0  0  0  0  0
   36.8360   23.2710   31.6970 N   0  0  0  0  0  0  0  0  0  0  0  0
   37.8290   23.8140   32.5950 C   0  0  0  0  0  0  0  0  0  0  0  0
   37.9350   25.2520   32.6810 C   0  0  2  0  0  0  0  0  0  0  0  0
   36.8110   29.5570   29.0340 H   0  0  0  0  0  0  0  0  0  0  0  0
   39.2530   29.4780   28.5070 H   0  0  0  0  0  0  0  0  0  0  0  0
   40.6320   27.6770   29.5050 H   0  0  0  0  0  0  0  0  0  0  0  0
   35.3820   25.9110   30.5550 H   0  0  0  0  0  0  0  0  0  0  0  0
   35.0830   25.9010   32.2770 H   0  0  0  0  0  0  0  0  0  0  0  0
   35.3110   23.6890   30.4020 H   0  0  0  0  0  0  0  0  0  0  0  0
   34.8630   23.6450   32.1060 H   0  0  0  0  0  0  0  0  0  0  0  0
   37.1180   22.4630   31.1420 H   0  0  0  0  0  0  0  0  0  0  0  0
   37.7690   23.1480   33.4330 H   0  0  0  0  0  0  0  0  0  0  0  0
   38.7950   23.4560   32.0940 H   0  0  0  0  0  0  0  0  0  0  0  0
   38.9950   25.6280   32.5380 H   0  0  0  0  0  0  0  0  0  0  0  0
   37.5060   25.8290   33.9530 N   0  0  2  0  0  0  0  0  0  0  0  0
   36.8780   27.1360   33.7550 C   0  0  0  0  0  0  0  0  0  0  0  0
   37.2740   28.0180   34.9070 C   0  0  0  0  0  0  0  0  0  0  0  0
   38.0810   27.1290   35.7700 C   0  0  0  0  0  0  0  0  0  0  0  0
   38.5700   26.0170   34.8700 C   0  0  1  0  0  0  0  0  0  0  0  0
   37.2900   27.5610   32.8050 H   0  0  0  0  0  0  0  0  0  0  0  0
   35.7850   27.0490   33.6220 H   0  0  0  0  0  0  0  0  0  0  0  0
   36.3540   28.3880   35.4270 H   0  0  0  0  0  0  0  0  0  0  0  0
   37.8390   28.9090   34.5330 H   0  0  0  0  0  0  0  0  0  0  0  0
   38.9300   27.7710   36.1730 H   0  0  0  0  0  0  0  0  0  0  0  0
   37.6030   26.7690   36.6960 H   0  0  0  0  0  0  0  0  0  0  0  0
   39.4690   26.5140   34.4450 H   0  0  0  0  0  0  0  0  0  0  0  0
   41.2100   24.5360   34.2330 Cl  0  0  0  0  0  0  0  0  0  0  0  0
   40.0490   24.2480   35.5360 C   0  0  0  0  0  0  0  0  0  0  0  0
   38.8450   24.9120   35.8090 C   0  0  0  0  0  0  0  0  0  0  0  0
   38.1070   24.4710   36.8870 C   0  0  0  0  0  0  0  0  0  0  0  0
   37.1850   25.0520   37.0170 H   0  0  0  0  0  0  0  0  0  0  0  0
   38.5030   23.4210   37.6890 C   0  0  0  0  0  0  0  0  0  0  0  0
   37.8000   23.2180   38.4830 H   0  0  0  0  0  0  0  0  0  0  0  0
   39.6920   22.7710   37.4140 C   0  0  0  0  0  3  0  0  0  0  0  0
   40.4600   23.1960   36.3300 C   0  0  0  0  0  3  0  0  0  0  0  0
  1  6  1  0  0  0  0
  2  1  2  0  0  0  0
  2  3  1  0  0  0  0
  3  4  2  0  0  0  0
  4  5  1  0  0  0  0
  5  7  1  0  0  0  0
  6  5  2  0  0  0  0
  7 12  1  0  0  0  0
  8  7  1  0  0  0  0
  8 17  1  0  0  0  0
  9  8  1  0  0  0  0
  9 10  1  0  0  0  0
  9 19  1  0  0  0  0
 10 11  1  0  0  0  0
 11 12  1  0  0  0  0
 11 21  1  0  0  0  0
 12 23  1  6  0  0  0
 12 24  1  0  0  0  0
 13  1  1  0  0  0  0
 14  2  1  0  0  0  0
 15  3  1  0  0  0  0
 16  8  1  0  0  0  0
 18  9  1  0  0  0  0
 20 10  1  0  0  0  0
 22 11  1  0  0  0  0
 24 25  1  6  0  0  0
 24 28  1  0  0  0  0
 25 26  1  0  0  0  0
 26 31  1  0  0  0  0
 26 27  1  0  0  0  0
 27 33  1  0  0  0  0
 27 34  1  0  0  0  0
 28 35  1  6  0  0  0
 28 27  1  0  0  0  0
 28 38  1  0  0  0  0
 29 25  1  0  0  0  0
 30 25  1  0  0  0  0
 32 26  1  0  0  0  0
 36 37  1  0  0  0  0
 37 38  2  0  0  0  0
 37 44  1  0  0  0  0
 38 39  1  0  0  0  0
 39 40  1  0  0  0  0
 39 41  2  0  0  0  0
 41 42  1  0  0  0  0
 43 41  1  0  0  0  0
 44 43  2  0  0  0  0
M  END
>  <minimizedAffinity>
-6.10250998

$$$$

 OpenBabel03272505533D

 44 47  0  0  1  0  0  0  0  0999 V2000
   39.9040   22.7850   37.9110 C   0  0  0  0  0  0  0  0  0  0  0  0
   38.8300   23.3610   38.6430 C   0  0  0  0  0  0  0  0  0  0  0  0
   37.7900   23.9400   37.9060 C   0  0  0  0  0  0  0  0  0  0  0  0
   37.8720   23.9180   36.5450 N   0  0  0  0  0  0  0  0  0  0  0  0
   38.9140   23.3590   35.9010 C   0  0  0  0  0  0  0  0  0  0  0  0
   39.9190   22.7980   36.5790 N   0  0  0  0  0  0  0  0  0  0  0  0
   38.9270   23.3650   34.4830 N   0  0  0  0  0  0  0  0  0  0  0  0
   39.5910   22.3220   33.7310 C   0  0  0  0  0  0  0  0  0  0  0  0
   38.6610   21.7290   32.7250 C   0  0  0  0  0  0  0  0  0  0  0  0
   37.4950   22.4160   32.4850 N   0  0  0  0  0  0  0  0  0  0  0  0
   37.4130   23.8400   32.7080 C   0  0  0  0  0  0  0  0  0  0  0  0
   38.2750   24.4090   33.7180 C   0  0  2  0  0  0  0  0  0  0  0  0
   40.6730   22.3550   38.5270 H   0  0  0  0  0  0  0  0  0  0  0  0
   38.7290   23.3990   39.7010 H   0  0  0  0  0  0  0  0  0  0  0  0
   36.9180   24.4110   38.3430 H   0  0  0  0  0  0  0  0  0  0  0  0
   39.8460   21.5110   34.4960 H   0  0  0  0  0  0  0  0  0  0  0  0
   40.5840   22.6050   33.3500 H   0  0  0  0  0  0  0  0  0  0  0  0
   38.4410   20.6720   32.9830 H   0  0  0  0  0  0  0  0  0  0  0  0
   39.2580   21.6540   31.7680 H   0  0  0  0  0  0  0  0  0  0  0  0
   36.6110   21.9240   32.3480 H   0  0  0  0  0  0  0  0  0  0  0  0
   37.2920   24.2210   31.7130 H   0  0  0  0  0  0  0  0  0  0  0  0
   36.3460   23.9360   33.1140 H   0  0  0  0  0  0  0  0  0  0  0  0
   37.7180   25.0520   34.4670 H   0  0  0  0  0  0  0  0  0  0  0  0
   39.3390   25.2710   33.2080 N   0  0  2  0  0  0  0  0  0  0  0  0
   40.6130   24.9860   33.8690 C   0  0  0  0  0  0  0  0  0  0  0  0
   41.3400   26.2900   34.0540 C   0  0  0  0  0  0  0  0  0  0  0  0
   40.4520   27.2820   33.4120 C   0  0  0  0  0  0  0  0  0  0  0  0
   39.0780   26.6520   33.3950 C   0  0  1  0  0  0  0  0  0  0  0  0
   40.3750   24.5500   34.8720 H   0  0  0  0  0  0  0  0  0  0  0  0
   41.1990   24.2290   33.3180 H   0  0  0  0  0  0  0  0  0  0  0  0
   42.3400   26.2330   33.5520 H   0  0  0  0  0  0  0  0  0  0  0  0
   41.5130   26.4830   35.1420 H   0  0  0  0  0  0  0  0  0  0  0  0
   40.4980   28.2120   34.0680 H   0  0  0  0  0  0  0  0  0  0  0  0
   40.7710   27.6730   32.4310 H   0  0  0  0  0  0  0  0  0  0  0  0
   38.7420   26.9280   34.4180 H   0  0  0  0  0  0  0  0  0  0  0  0
   36.4590   28.0250   34.3030 Cl  0  0  0  0  0  0  0  0  0  0  0  0
   37.2130   27.9960   32.7040 C   0  0  0  0  0  0  0  0  0  0  0  0
   38.3920   27.3560   32.2940 C   0  0  0  0  0  0  0  0  0  0  0  0
   38.7500   27.4750   30.9680 C   0  0  0  0  0  0  0  0  0  0  0  0
   39.6840   26.9410   30.7480 H   0  0  0  0  0  0  0  0  0  0  0  0
   38.0060   28.1840   30.0500 C   0  0  0  0  0  0  0  0  0  0  0  0
   38.4400   28.1660   29.0610 H   0  0  0  0  0  0  0  0  0  0  0  0
   36.8450   28.8130   30.4600 C   0  0  0  0  0  3  0  0  0  0  0  0
   36.4570   28.7110   31.7960 C   0  0  0  0  0  3  0  0  0  0  0  0
  1 13  1  0  0  0  0
  1  2  1  0  0  0  0
  2 14  1  0  0  0  0
  3 15  1  0  0  0  0
  3  2  2  0  0  0  0
  4  3  1  0  0  0  0
  5  4  2  0  0  0  0
  5  6  1  0  0  0  0
  6  1  2  0  0  0  0
  7  5  1  0  0  0  0
  8  7  1  0  0  0  0
  8 16  1  0  0  0  0
  9 18  1  0  0  0  0
  9  8  1  0  0  0  0
 10 11  1  0  0  0  0
 10  9  1  0  0  0  0
 11 22  1  0  0  0  0
 11 12  1  0  0  0  0
 12 23  1  1  0  0  0
 12  7  1  0  0  0  0
 17  8  1  0  0  0  0
 19  9  1  0  0  0  0
 20 10  1  0  0  0  0
 21 11  1  0  0  0  0
 24 28  1  0  0  0  0
 24 12  1  0  0  0  0
 24 25  1  1  0  0  0
 25 26  1  0  0  0  0
 25 29  1  0  0  0  0
 26 32  1  0  0  0  0
 27 26  1  0  0  0  0
 27 33  1  0  0  0  0
 28 27  1  0  0  0  0
 28 35  1  1  0  0  0
 30 25  1  0  0  0  0
 31 26  1  0  0  0  0
 34 27  1  0  0  0  0
 37 36  1  0  0  0  0
 38 37  1  0  0  0  0
 38 28  1  0  0  0  0
 39 38  2  0  0  0  0
 40 39  1  0  0  0  0
 41 43  2  0  0  0  0
 41 39  1  0  0  0  0
 42 41  1  0  0  0  0
 43 44  1  0  0  0  0
 44 37  2  0  0  0  0
M  END
>  <minimizedAffinity>
-5.90183115

$$$$

 OpenBabel03272505533D

 44 47  0  0  1  0  0  0  0  0999 V2000
   37.7820   24.5760   36.5150 C   0  0  0  0  0  0  0  0  0  0  0  0
   38.2440   23.3750   37.1230 C   0  0  0  0  0  0  0  0  0  0  0  0
   38.8870   22.4470   36.2960 C   0  0  0  0  0  0  0  0  0  0  0  0
   39.0290   22.7470   34.9740 N   0  0  0  0  0  0  0  0  0  0  0  0
   38.5730   23.8990   34.4500 C   0  0  0  0  0  0  0  0  0  0  0  0
   37.9550   24.8050   35.2150 N   0  0  0  0  0  0  0  0  0  0  0  0
   38.7640   24.1480   33.0660 N   0  0  0  0  0  0  0  0  0  0  0  0
   38.9000   25.4940   32.5540 C   0  0  0  0  0  0  0  0  0  0  0  0
   40.1370   25.6180   31.7280 C   0  0  0  0  0  0  0  0  0  0  0  0
   40.7530   24.4450   31.3650 N   0  0  0  0  0  0  0  0  0  0  0  0
   40.0060   23.2130   31.2630 C   0  0  0  0  0  0  0  0  0  0  0  0
   38.8380   23.0700   32.1010 C   0  0  2  0  0  0  0  0  0  0  0  0
   37.2950   25.2520   37.1960 H   0  0  0  0  0  0  0  0  0  0  0  0
   38.1520   23.1040   38.1460 H   0  0  0  0  0  0  0  0  0  0  0  0
   39.2840   21.4970   36.6360 H   0  0  0  0  0  0  0  0  0  0  0  0
   39.0240   26.1600   33.4760 H   0  0  0  0  0  0  0  0  0  0  0  0
   37.9820   25.8960   32.0980 H   0  0  0  0  0  0  0  0  0  0  0  0
   40.8600   26.2990   32.2210 H   0  0  0  0  0  0  0  0  0  0  0  0
   39.8250   26.1820   30.7990 H   0  0  0  0  0  0  0  0  0  0  0  0
   41.7710   24.3620   31.3610 H   0  0  0  0  0  0  0  0  0  0  0  0
   40.0410   23.0100   30.2110 H   0  0  0  0  0  0  0  0  0  0  0  0
   40.7730   22.4600   31.6610 H   0  0  0  0  0  0  0  0  0  0  0  0
   38.8350   22.1070   32.6980 H   0  0  0  0  0  0  0  0  0  0  0  0
   37.5630   23.0680   31.3880 N   0  0  2  0  0  0  0  0  0  0  0  0
   37.0850   24.4310   31.1540 C   0  0  0  0  0  0  0  0  0  0  0  0
   35.5880   24.4280   31.3010 C   0  0  0  0  0  0  0  0  0  0  0  0
   35.2620   23.0080   31.5550 C   0  0  0  0  0  0  0  0  0  0  0  0
   36.5330   22.3840   32.0830 C   0  0  1  0  0  0  0  0  0  0  0  0
   37.5340   25.0790   31.9480 H   0  0  0  0  0  0  0  0  0  0  0  0
   37.4310   24.8250   30.1820 H   0  0  0  0  0  0  0  0  0  0  0  0
   35.1200   24.8050   30.3560 H   0  0  0  0  0  0  0  0  0  0  0  0
   35.2820   25.1120   32.1330 H   0  0  0  0  0  0  0  0  0  0  0  0
   34.4250   23.0140   32.3270 H   0  0  0  0  0  0  0  0  0  0  0  0
   34.8070   22.4470   30.7220 H   0  0  0  0  0  0  0  0  0  0  0  0
   36.4350   22.6580   33.1550 H   0  0  0  0  0  0  0  0  0  0  0  0
   35.5240   20.7590   34.5140 Cl  0  0  0  0  0  0  0  0  0  0  0  0
   35.8880   20.2110   32.8720 C   0  0  0  0  0  0  0  0  0  0  0  0
   36.3630   20.9490   31.7790 C   0  0  0  0  0  0  0  0  0  0  0  0
   36.5880   20.2680   30.6020 C   0  0  0  0  0  0  0  0  0  0  0  0
   36.9570   20.9310   29.8090 H   0  0  0  0  0  0  0  0  0  0  0  0
   36.3670   18.9140   30.4650 C   0  0  0  0  0  0  0  0  0  0  0  0
   36.5990   18.5540   29.4720 H   0  0  0  0  0  0  0  0  0  0  0  0
   35.8990   18.1910   31.5470 C   0  0  0  0  0  3  0  0  0  0  0  0
   35.6610   18.8540   32.7510 C   0  0  0  0  0  3  0  0  0  0  0  0
  1  2  1  0  0  0  0
  1 13  1  0  0  0  0
  2 14  1  0  0  0  0
  3 15  1  0  0  0  0
  3  2  2  0  0  0  0
  4  3  1  0  0  0  0
  5  4  2  0  0  0  0
  5  6  1  0  0  0  0
  6  1  2  0  0  0  0
  7  5  1  0  0  0  0
  8  7  1  0  0  0  0
  8 16  1  0  0  0  0
  9 18  1  0  0  0  0
  9  8  1  0  0  0  0
 10  9  1  0  0  0  0
 11 10  1  0  0  0  0
 11 22  1  0  0  0  0
 11 12  1  0  0  0  0
 12 23  1  1  0  0  0
 12  7  1  0  0  0  0
 17  8  1  0  0  0  0
 19  9  1  0  0  0  0
 20 10  1  0  0  0  0
 21 11  1  0  0  0  0
 24 25  1  1  0  0  0
 24 28  1  0  0  0  0
 24 12  1  0  0  0  0
 25 26  1  0  0  0  0
 25 29  1  0  0  0  0
 26 27  1  0  0  0  0
 26 32  1  0  0  0  0
 27 28  1  0  0  0  0
 27 33  1  0  0  0  0
 28 35  1  1  0  0  0
 30 25  1  0  0  0  0
 31 26  1  0  0  0  0
 34 27  1  0  0  0  0
 37 36  1  0  0  0  0
 38 28  1  0  0  0  0
 38 37  2  0  0  0  0
 39 38  1  0  0  0  0
 40 39  1  0  0  0  0
 41 39  2  0  0  0  0
 41 43  1  0  0  0  0
 42 41  1  0  0  0  0
 43 44  2  0  0  0  0
 44 37  1  0  0  0  0
M  END
>  <minimizedAffinity>
-5.73245144

$$$$

 OpenBabel03272505533D

 44 47  0  0  1  0  0  0  0  0999 V2000
   39.3840   27.3270   34.6550 C   0  0  0  0  0  0  0  0  0  0  0  0
   38.6930   27.2050   35.8920 C   0  0  0  0  0  0  0  0  0  0  0  0
   38.2470   25.9280   36.2520 C   0  0  0  0  0  0  0  0  0  0  0  0
   38.5000   24.8910   35.4040 N   0  0  0  0  0  0  0  0  0  0  0  0
   39.1600   25.0620   34.2440 C   0  0  0  0  0  0  0  0  0  0  0  0
   39.5980   26.2700   33.8740 N   0  0  0  0  0  0  0  0  0  0  0  0
   39.3950   23.9360   33.4150 N   0  0  0  0  0  0  0  0  0  0  0  0
   40.5500   23.8660   32.5460 C   0  0  0  0  0  0  0  0  0  0  0  0
   41.3060   22.6000   32.7800 C   0  0  0  0  0  0  0  0  0  0  0  0
   40.6700   21.6330   33.5190 N   0  0  0  0  0  0  0  0  0  0  0  0
   39.2290   21.5660   33.5730 C   0  0  0  0  0  0  0  0  0  0  0  0
   38.4970   22.7990   33.3990 C   0  0  2  0  0  0  0  0  0  0  0  0
   39.7030   28.3290   34.4290 H   0  0  0  0  0  0  0  0  0  0  0  0
   38.4750   27.9860   36.5790 H   0  0  0  0  0  0  0  0  0  0  0  0
   37.7100   25.7030   37.1660 H   0  0  0  0  0  0  0  0  0  0  0  0
   41.2200   24.7390   32.8600 H   0  0  0  0  0  0  0  0  0  0  0  0
   40.3360   24.1040   31.4930 H   0  0  0  0  0  0  0  0  0  0  0  0
   42.3030   22.8240   33.2110 H   0  0  0  0  0  0  0  0  0  0  0  0
   41.5420   22.1940   31.7520 H   0  0  0  0  0  0  0  0  0  0  0  0
   41.1780   21.0740   34.2060 H   0  0  0  0  0  0  0  0  0  0  0  0
   39.0220   20.6470   33.0600 H   0  0  0  0  0  0  0  0  0  0  0  0
   39.0660   21.2540   34.6630 H   0  0  0  0  0  0  0  0  0  0  0  0
   37.7360   22.9830   34.2190 H   0  0  0  0  0  0  0  0  0  0  0  0
   37.7320   22.8940   32.1580 N   0  0  2  0  0  0  0  0  0  0  0  0
   37.5660   24.2890   31.7450 C   0  0  0  0  0  0  0  0  0  0  0  0
   36.1930   24.4330   31.1490 C   0  0  0  0  0  0  0  0  0  0  0  0
   35.6460   23.0610   31.1880 C   0  0  0  0  0  0  0  0  0  0  0  0
   36.4330   22.3350   32.2550 C   0  0  1  0  0  0  0  0  0  0  0  0
   37.6370   24.9170   32.6690 H   0  0  0  0  0  0  0  0  0  0  0  0
   38.3770   24.6150   31.0700 H   0  0  0  0  0  0  0  0  0  0  0  0
   36.2810   24.8220   30.1020 H   0  0  0  0  0  0  0  0  0  0  0  0
   35.5920   25.1710   31.7390 H   0  0  0  0  0  0  0  0  0  0  0  0
   34.5440   23.1720   31.4570 H   0  0  0  0  0  0  0  0  0  0  0  0
   35.5970   22.5180   30.2290 H   0  0  0  0  0  0  0  0  0  0  0  0
   35.8560   22.6530   33.1500 H   0  0  0  0  0  0  0  0  0  0  0  0
   35.5180   20.5650   34.6210 Cl  0  0  0  0  0  0  0  0  0  0  0  0
   35.8570   20.1100   32.9460 C   0  0  0  0  0  0  0  0  0  0  0  0
   36.2890   20.9140   31.8820 C   0  0  0  0  0  0  0  0  0  0  0  0
   36.5020   20.2990   30.6660 C   0  0  0  0  0  0  0  0  0  0  0  0
   36.8370   21.0110   29.9010 H   0  0  0  0  0  0  0  0  0  0  0  0
   36.3100   18.9490   30.4650 C   0  0  0  0  0  0  0  0  0  0  0  0
   36.5260   18.6460   29.4500 H   0  0  0  0  0  0  0  0  0  0  0  0
   35.8840   18.1610   31.5180 C   0  0  0  0  0  3  0  0  0  0  0  0
   35.6590   18.7560   32.7600 C   0  0  0  0  0  3  0  0  0  0  0  0
  1  2  1  0  0  0  0
  2  3  2  0  0  0  0
  2 14  1  0  0  0  0
  3 15  1  0  0  0  0
  4  3  1  0  0  0  0
  5  4  2  0  0  0  0
  6  5  1  0  0  0  0
  6  1  2  0  0  0  0
  7  5  1  0  0  0  0
  8  9  1  0  0  0  0
  8 16  1  0  0  0  0
  8  7  1  0  0  0  0
  9 18  1  0  0  0  0
  9 10  1  0  0  0  0
 10 11  1  0  0  0  0
 10 20  1  0  0  0  0
 11 22  1  0  0  0  0
 12  7  1  0  0  0  0
 12 11  1  0  0  0  0
 12 23  1  1  0  0  0
 13  1  1  0  0  0  0
 17  8  1  0  0  0  0
 19  9  1  0  0  0  0
 21 11  1  0  0  0  0
 24 25  1  1  0  0  0
 24 28  1  0  0  0  0
 24 12  1  0  0  0  0
 25 29  1  0  0  0  0
 26 27  1  0  0  0  0
 26 32  1  0  0  0  0
 26 25  1  0  0  0  0
 27 33  1  0  0  0  0
 27 28  1  0  0  0  0
 28 35  1  1  0  0  0
 30 25  1  0  0  0  0
 31 26  1  0  0  0  0
 34 27  1  0  0  0  0
 37 36  1  0  0  0  0
 38 28  1  0  0  0  0
 38 37  2  0  0  0  0
 39 38  1  0  0  0  0
 40 39  1  0  0  0  0
 41 39  2  0  0  0  0
 41 43  1  0  0  0  0
 42 41  1  0  0  0  0
 43 44  2  0  0  0  0
 44 37  1  0  0  0  0
M  END
>  <minimizedAffinity>
-5.69972324

$$$$

 OpenBabel03272505533D

 44 47  0  0  1  0  0  0  0  0999 V2000
   38.5720   28.2790   29.8730 C   0  0  0  0  0  0  0  0  0  0  0  0
   37.2220   28.7100   29.7480 C   0  0  0  0  0  0  0  0  0  0  0  0
   36.3440   28.3730   30.7850 C   0  0  0  0  0  0  0  0  0  0  0  0
   36.8320   27.6590   31.8390 N   0  0  0  0  0  0  0  0  0  0  0  0
   38.1200   27.2750   31.9070 C   0  0  0  0  0  0  0  0  0  0  0  0
   38.9810   27.5830   30.9330 N   0  0  0  0  0  0  0  0  0  0  0  0
   38.5590   26.5410   33.0390 N   0  0  0  0  0  0  0  0  0  0  0  0
   39.9240   26.6270   33.5100 C   0  0  0  0  0  0  0  0  0  0  0  0
   39.9560   26.9660   34.9640 C   0  0  0  0  0  0  0  0  0  0  0  0
   38.7690   26.8600   35.6450 N   0  0  0  0  0  0  0  0  0  0  0  0
   37.7300   25.9640   35.1950 C   0  0  0  0  0  0  0  0  0  0  0  0
   37.6640   25.6760   33.7810 C   0  0  2  0  0  0  0  0  0  0  0  0
   39.2010   28.5650   29.0490 H   0  0  0  0  0  0  0  0  0  0  0  0
   36.8040   29.2670   28.9450 H   0  0  0  0  0  0  0  0  0  0  0  0
   35.2950   28.6410   30.8090 H   0  0  0  0  0  0  0  0  0  0  0  0
   40.3900   27.4990   32.9340 H   0  0  0  0  0  0  0  0  0  0  0  0
   40.5590   25.7810   33.2050 H   0  0  0  0  0  0  0  0  0  0  0  0
   40.4000   27.9710   35.1120 H   0  0  0  0  0  0  0  0  0  0  0  0
   40.7170   26.2650   35.4210 H   0  0  0  0  0  0  0  0  0  0  0  0
   38.5020   27.5470   36.3530 H   0  0  0  0  0  0  0  0  0  0  0  0
   37.7040   25.2310   35.9760 H   0  0  0  0  0  0  0  0  0  0  0  0
   36.7930   26.5780   35.4350 H   0  0  0  0  0  0  0  0  0  0  0  0
   36.6310   25.8350   33.3430 H   0  0  0  0  0  0  0  0  0  0  0  0
   38.0160   24.3060   33.4120 N   0  0  2  0  0  0  0  0  0  0  0  0
   37.1100   23.7860   32.3880 C   0  0  0  0  0  0  0  0  0  0  0  0
   36.8720   22.3290   32.6780 C   0  0  0  0  0  0  0  0  0  0  0  0
   37.7310   22.0600   33.8510 C   0  0  0  0  0  0  0  0  0  0  0  0
   37.9680   23.4020   34.5030 C   0  0  1  0  0  0  0  0  0  0  0  0
   36.1450   24.3450   32.4850 H   0  0  0  0  0  0  0  0  0  0  0  0
   37.4920   23.9750   31.3690 H   0  0  0  0  0  0  0  0  0  0  0  0
   37.1710   21.7180   31.7880 H   0  0  0  0  0  0  0  0  0  0  0  0
   35.7840   22.1470   32.8690 H   0  0  0  0  0  0  0  0  0  0  0  0
   37.1370   21.3500   34.5150 H   0  0  0  0  0  0  0  0  0  0  0  0
   38.6560   21.4880   33.6690 H   0  0  0  0  0  0  0  0  0  0  0  0
   37.0460   23.4670   35.1200 H   0  0  0  0  0  0  0  0  0  0  0  0
   37.4910   23.0640   37.5410 Cl  0  0  0  0  0  0  0  0  0  0  0  0
   39.0090   23.0290   36.6330 C   0  0  0  0  0  0  0  0  0  0  0  0
   39.2200   23.2000   35.2580 C   0  0  0  0  0  0  0  0  0  0  0  0
   40.5210   23.1480   34.8040 C   0  0  0  0  0  0  0  0  0  0  0  0
   40.5810   23.2930   33.7170 H   0  0  0  0  0  0  0  0  0  0  0  0
   41.5990   22.9370   35.6370 C   0  0  0  0  0  0  0  0  0  0  0  0
   42.5390   22.9270   35.1050 H   0  0  0  0  0  0  0  0  0  0  0  0
   41.3840   22.7680   36.9920 C   0  0  0  0  0  3  0  0  0  0  0  0
   40.0780   22.8160   37.4810 C   0  0  0  0  0  3  0  0  0  0  0  0
  1  6  1  0  0  0  0
  2  1  2  0  0  0  0
  2  3  1  0  0  0  0
  3 15  1  0  0  0  0
  3  4  2  0  0  0  0
  4  5  1  0  0  0  0
  5  7  1  0  0  0  0
  6  5  2  0  0  0  0
  7  8  1  0  0  0  0
  7 12  1  0  0  0  0
  8  9  1  0  0  0  0
  9 18  1  0  0  0  0
  9 19  1  0  0  0  0
  9 10  1  0  0  0  0
 10 20  1  0  0  0  0
 11 22  1  0  0  0  0
 11 10  1  0  0  0  0
 11 21  1  0  0  0  0
 12 23  1  6  0  0  0
 12 11  1  0  0  0  0
 13  1  1  0  0  0  0
 14  2  1  0  0  0  0
 16  8  1  0  0  0  0
 17  8  1  0  0  0  0
 24 25  1  6  0  0  0
 24 12  1  0  0  0  0
 24 28  1  0  0  0  0
 25 29  1  0  0  0  0
 25 26  1  0  0  0  0
 26 32  1  0  0  0  0
 26 27  1  0  0  0  0
 27 28  1  0  0  0  0
 27 33  1  0  0  0  0
 28 35  1  1  0  0  0
 28 38  1  0  0  0  0
 30 25  1  0  0  0  0
 31 26  1  0  0  0  0
 34 27  1  0  0  0  0
 37 44  1  0  0  0  0
 37 36  1  0  0  0  0
 38 37  2  0  0  0  0
 39 38  1  0  0  0  0
 39 41  2  0  0  0  0
 40 39  1  0  0  0  0
 41 43  1  0  0  0  0
 42 41  1  0  0  0  0
 43 44  2  0  0  0  0
M  END
>  <minimizedAffinity>
-5.67250013

$$$$

 OpenBabel03272505533D

 44 47  0  0  1  0  0  0  0  0999 V2000
   36.6990   27.8260   34.3910 C   0  0  0  0  0  0  0  0  0  0  0  0
   36.4750   27.6340   33.0000 C   0  0  0  0  0  0  0  0  0  0  0  0
   36.8730   26.4090   32.4510 C   0  0  0  0  0  0  0  0  0  0  0  0
   37.4440   25.4860   33.2750 N   0  0  0  0  0  0  0  0  0  0  0  0
   37.6330   25.7190   34.5880 C   0  0  0  0  0  0  0  0  0  0  0  0
   37.2630   26.8790   35.1390 N   0  0  0  0  0  0  0  0  0  0  0  0
   38.2260   24.7090   35.3870 N   0  0  0  0  0  0  0  0  0  0  0  0
   37.9150   24.5810   36.7940 C   0  0  0  0  0  0  0  0  0  0  0  0
   37.4880   23.1860   37.1120 C   0  0  0  0  0  0  0  0  0  0  0  0
   37.7230   22.2370   36.1470 N   0  0  0  0  0  0  0  0  0  0  0  0
   38.7850   22.4030   35.1840 C   0  0  0  0  0  0  0  0  0  0  0  0
   39.1650   23.7520   34.8350 C   0  0  2  0  0  0  0  0  0  0  0  0
   36.3750   28.7840   34.7580 H   0  0  0  0  0  0  0  0  0  0  0  0
   36.0350   28.3260   32.3240 H   0  0  0  0  0  0  0  0  0  0  0  0
   36.7580   26.1400   31.4080 H   0  0  0  0  0  0  0  0  0  0  0  0
   37.0220   25.2730   36.9720 H   0  0  0  0  0  0  0  0  0  0  0  0
   38.6780   25.0080   37.4630 H   0  0  0  0  0  0  0  0  0  0  0  0
   36.4220   23.1730   37.4170 H   0  0  0  0  0  0  0  0  0  0  0  0
   38.0430   22.9080   38.0570 H   0  0  0  0  0  0  0  0  0  0  0  0
   37.0400   21.5030   35.9510 H   0  0  0  0  0  0  0  0  0  0  0  0
   39.4660   21.6210   35.4550 H   0  0  0  0  0  0  0  0  0  0  0  0
   38.2990   21.9600   34.2450 H   0  0  0  0  0  0  0  0  0  0  0  0
   39.1840   23.9340   33.7170 H   0  0  0  0  0  0  0  0  0  0  0  0
   40.4890   24.1620   35.2980 N   0  0  2  0  0  0  0  0  0  0  0  0
   40.7780   25.5450   34.9190 C   0  0  0  0  0  0  0  0  0  0  0  0
   42.2370   25.6320   34.5650 C   0  0  0  0  0  0  0  0  0  0  0  0
   42.7450   24.2700   34.8300 C   0  0  0  0  0  0  0  0  0  0  0  0
   41.5370   23.3630   34.7750 C   0  0  1  0  0  0  0  0  0  0  0  0
   40.1630   25.7750   34.0120 H   0  0  0  0  0  0  0  0  0  0  0  0
   40.4710   26.2570   35.7060 H   0  0  0  0  0  0  0  0  0  0  0  0
   42.7320   26.4000   35.2140 H   0  0  0  0  0  0  0  0  0  0  0  0
   42.3560   25.9550   33.5000 H   0  0  0  0  0  0  0  0  0  0  0  0
   43.4950   24.0500   34.0000 H   0  0  0  0  0  0  0  0  0  0  0  0
   43.3570   24.1350   35.7370 H   0  0  0  0  0  0  0  0  0  0  0  0
   41.4890   23.1950   33.6770 H   0  0  0  0  0  0  0  0  0  0  0  0
   42.8630   21.1510   33.0670 Cl  0  0  0  0  0  0  0  0  0  0  0  0
   42.5670   21.1960   34.8100 C   0  0  0  0  0  0  0  0  0  0  0  0
   41.9490   22.1940   35.5760 C   0  0  0  0  0  0  0  0  0  0  0  0
   41.8220   21.9680   36.9310 C   0  0  0  0  0  0  0  0  0  0  0  0
   41.3270   22.8050   37.4400 H   0  0  0  0  0  0  0  0  0  0  0  0
   42.2720   20.8190   37.5450 C   0  0  0  0  0  0  0  0  0  0  0  0
   42.0870   20.8180   38.6100 H   0  0  0  0  0  0  0  0  0  0  0  0
   42.8810   19.8390   36.7840 C   0  0  0  0  0  3  0  0  0  0  0  0
   43.0240   20.0390   35.4110 C   0  0  0  0  0  3  0  0  0  0  0  0
  1 13  1  0  0  0  0
  1  6  1  0  0  0  0
  2  1  2  0  0  0  0
  3  2  1  0  0  0  0
  3  4  2  0  0  0  0
  4  5  1  0  0  0  0
  5  6  2  0  0  0  0
  5  7  1  0  0  0  0
  7  8  1  0  0  0  0
  8 16  1  0  0  0  0
  8  9  1  0  0  0  0
  8 17  1  0  0  0  0
  9 18  1  0  0  0  0
  9 19  1  0  0  0  0
 10  9  1  0  0  0  0
 11 21  1  0  0  0  0
 11 10  1  0  0  0  0
 12 23  1  6  0  0  0
 12 11  1  0  0  0  0
 12 24  1  0  0  0  0
 12  7  1  0  0  0  0
 14  2  1  0  0  0  0
 15  3  1  0  0  0  0
 20 10  1  0  0  0  0
 22 11  1  0  0  0  0
 24 25  1  6  0  0  0
 25 30  1  0  0  0  0
 26 27  1  0  0  0  0
 26 25  1  0  0  0  0
 26 31  1  0  0  0  0
 27 34  1  0  0  0  0
 28 35  1  6  0  0  0
 28 27  1  0  0  0  0
 28 24  1  0  0  0  0
 28 38  1  0  0  0  0
 29 25  1  0  0  0  0
 32 26  1  0  0  0  0
 33 27  1  0  0  0  0
 36 37  1  0  0  0  0
 37 44  2  0  0  0  0
 37 38  1  0  0  0  0
 38 39  2  0  0  0  0
 39 40  1  0  0  0  0
 39 41  1  0  0  0  0
 41 42  1  0  0  0  0
 43 41  2  0  0  0  0
 44 43  1  0  0  0  0
M  END
>  <minimizedAffinity>
-5.64321184

$$$$

 OpenBabel03272505533D

 44 47  0  0  1  0  0  0  0  0999 V2000
   35.2650   19.3490   33.2650 C   0  0  0  0  0  0  0  0  0  0  0  0
   35.2480   18.7780   31.9620 C   0  0  0  0  0  0  0  0  0  0  0  0
   35.9830   19.4330   30.9670 C   0  0  0  0  0  0  0  0  0  0  0  0
   36.6610   20.5660   31.3040 N   0  0  0  0  0  0  0  0  0  0  0  0
   36.6430   21.0650   32.5540 C   0  0  0  0  0  0  0  0  0  0  0  0
   35.9510   20.4600   33.5250 N   0  0  0  0  0  0  0  0  0  0  0  0
   37.3800   22.2440   32.8340 N   0  0  0  0  0  0  0  0  0  0  0  0
   37.9310   22.4940   34.1490 C   0  0  0  0  0  0  0  0  0  0  0  0
   39.3890   22.8010   34.0560 C   0  0  0  0  0  0  0  0  0  0  0  0
   39.8820   23.0690   32.8020 N   0  0  0  0  0  0  0  0  0  0  0  0
   39.0260   23.5900   31.7630 C   0  0  0  0  0  0  0  0  0  0  0  0
   37.6230   23.2510   31.8210 C   0  0  2  0  0  0  0  0  0  0  0  0
   34.6840   18.8050   33.9880 H   0  0  0  0  0  0  0  0  0  0  0  0
   34.7330   17.8990   31.6590 H   0  0  0  0  0  0  0  0  0  0  0  0
   36.0510   19.1010   29.9380 H   0  0  0  0  0  0  0  0  0  0  0  0
   37.8130   21.5100   34.7210 H   0  0  0  0  0  0  0  0  0  0  0  0
   37.3370   23.1910   34.7590 H   0  0  0  0  0  0  0  0  0  0  0  0
   39.9800   21.9980   34.5420 H   0  0  0  0  0  0  0  0  0  0  0  0
   39.5520   23.6980   34.7250 H   0  0  0  0  0  0  0  0  0  0  0  0
   40.7960   22.7200   32.5080 H   0  0  0  0  0  0  0  0  0  0  0  0
   39.4170   24.5770   31.6160 H   0  0  0  0  0  0  0  0  0  0  0  0
   39.4440   23.0460   30.8440 H   0  0  0  0  0  0  0  0  0  0  0  0
   37.2280   22.8250   30.8480 H   0  0  0  0  0  0  0  0  0  0  0  0
   36.7300   24.3660   32.1260 N   0  0  2  0  0  0  0  0  0  0  0  0
   35.6420   24.4540   31.1510 C   0  0  0  0  0  0  0  0  0  0  0  0
   35.3580   25.9100   30.9070 C   0  0  0  0  0  0  0  0  0  0  0  0
   36.2780   26.6090   31.8300 C   0  0  0  0  0  0  0  0  0  0  0  0
   37.3840   25.6240   32.1290 C   0  0  1  0  0  0  0  0  0  0  0  0
   36.0090   23.9840   30.2040 H   0  0  0  0  0  0  0  0  0  0  0  0
   34.7560   23.8800   31.4740 H   0  0  0  0  0  0  0  0  0  0  0  0
   34.2830   26.1250   31.1410 H   0  0  0  0  0  0  0  0  0  0  0  0
   35.5300   26.1610   29.8290 H   0  0  0  0  0  0  0  0  0  0  0  0
   36.6490   27.5260   31.2650 H   0  0  0  0  0  0  0  0  0  0  0  0
   35.8300   27.0570   32.7320 H   0  0  0  0  0  0  0  0  0  0  0  0
   38.0340   25.8110   31.2470 H   0  0  0  0  0  0  0  0  0  0  0  0
   40.1850   26.9080   31.8620 Cl  0  0  0  0  0  0  0  0  0  0  0  0
   39.1840   26.6930   33.3030 C   0  0  0  0  0  0  0  0  0  0  0  0
   37.9210   26.0940   33.4210 C   0  0  0  0  0  0  0  0  0  0  0  0
   37.3610   26.0350   34.6790 C   0  0  0  0  0  0  0  0  0  0  0  0
   36.3770   25.5490   34.6660 H   0  0  0  0  0  0  0  0  0  0  0  0
   37.9850   26.5330   35.8030 C   0  0  0  0  0  0  0  0  0  0  0  0
   37.3970   26.3980   36.6990 H   0  0  0  0  0  0  0  0  0  0  0  0
   39.2290   27.1230   35.6800 C   0  0  0  0  0  3  0  0  0  0  0  0
   39.8220   27.1980   34.4190 C   0  0  0  0  0  3  0  0  0  0  0  0
  1  6  1  0  0  0  0
  1 13  1  0  0  0  0
  2  1  2  0  0  0  0
  3  4  2  0  0  0  0
  3  2  1  0  0  0  0
  4  5  1  0  0  0  0
  5  7  1  0  0  0  0
  5  6  2  0  0  0  0
  7  8  1  0  0  0  0
  8 16  1  0  0  0  0
  8 17  1  0  0  0  0
  9  8  1  0  0  0  0
  9 18  1  0  0  0  0
  9 19  1  0  0  0  0
 10  9  1  0  0  0  0
 11 12  1  0  0  0  0
 11 10  1  0  0  0  0
 12 23  1  6  0  0  0
 12 24  1  0  0  0  0
 12  7  1  0  0  0  0
 14  2  1  0  0  0  0
 15  3  1  0  0  0  0
 20 10  1  0  0  0  0
 21 11  1  0  0  0  0
 22 11  1  0  0  0  0
 24 25  1  6  0  0  0
 24 28  1  0  0  0  0
 25 30  1  0  0  0  0
 26 31  1  0  0  0  0
 26 25  1  0  0  0  0
 26 27  1  0  0  0  0
 27 28  1  0  0  0  0
 27 34  1  0  0  0  0
 28 35  1  6  0  0  0
 28 38  1  0  0  0  0
 29 25  1  0  0  0  0
 32 26  1  0  0  0  0
 33 27  1  0  0  0  0
 36 37  1  0  0  0  0
 37 38  2  0  0  0  0
 37 44  1  0  0  0  0
 38 39  1  0  0  0  0
 39 41  2  0  0  0  0
 40 39  1  0  0  0  0
 41 42  1  0  0  0  0
 43 41  1  0  0  0  0
 44 43  2  0  0  0  0
M  END
>  <minimizedAffinity>
-5.63555336

$$$$

 OpenBabel03272505533D

 44 47  0  0  1  0  0  0  0  0999 V2000
   38.0550   24.3920   38.2470 C   0  0  0  0  0  0  0  0  0  0  0  0
   38.8170   23.2170   38.4910 C   0  0  0  0  0  0  0  0  0  0  0  0
   39.5860   22.7220   37.4300 C   0  0  0  0  0  0  0  0  0  0  0  0
   39.5550   23.3890   36.2430 N   0  0  0  0  0  0  0  0  0  0  0  0
   38.8150   24.5000   36.0660 C   0  0  0  0  0  0  0  0  0  0  0  0
   38.0720   24.9960   37.0600 N   0  0  0  0  0  0  0  0  0  0  0  0
   38.8380   25.1470   34.8040 N   0  0  0  0  0  0  0  0  0  0  0  0
   38.6320   26.5750   34.6850 C   0  0  0  0  0  0  0  0  0  0  0  0
   39.7430   27.2020   33.9110 C   0  0  0  0  0  0  0  0  0  0  0  0
   40.5750   26.3480   33.2280 N   0  0  0  0  0  0  0  0  0  0  0  0
   40.1140   25.0490   32.7960 C   0  0  0  0  0  0  0  0  0  0  0  0
   39.0760   24.4170   33.5760 C   0  0  2  0  0  0  0  0  0  0  0  0
   37.4840   24.7270   39.0960 H   0  0  0  0  0  0  0  0  0  0  0  0
   38.8680   22.6670   39.3990 H   0  0  0  0  0  0  0  0  0  0  0  0
   40.2080   21.8370   37.4870 H   0  0  0  0  0  0  0  0  0  0  0  0
   38.6760   26.9780   35.7550 H   0  0  0  0  0  0  0  0  0  0  0  0
   37.6150   26.8560   34.3710 H   0  0  0  0  0  0  0  0  0  0  0  0
   40.3320   27.8760   34.5650 H   0  0  0  0  0  0  0  0  0  0  0  0
   39.2430   27.9050   33.1800 H   0  0  0  0  0  0  0  0  0  0  0  0
   41.5820   26.5100   33.1880 H   0  0  0  0  0  0  0  0  0  0  0  0
   40.1120   25.1490   31.7290 H   0  0  0  0  0  0  0  0  0  0  0  0
   41.0570   24.4190   32.9590 H   0  0  0  0  0  0  0  0  0  0  0  0
   39.3320   23.3560   33.8810 H   0  0  0  0  0  0  0  0  0  0  0  0
   37.7810   24.3060   32.9060 N   0  0  2  0  0  0  0  0  0  0  0  0
   37.3430   22.9110   32.8300 C   0  0  0  0  0  0  0  0  0  0  0  0
   36.6480   22.7170   31.5110 C   0  0  0  0  0  0  0  0  0  0  0  0
   36.6630   24.0640   30.9030 C   0  0  0  0  0  0  0  0  0  0  0  0
   37.7910   24.8070   31.5800 C   0  0  1  0  0  0  0  0  0  0  0  0
   38.2620   22.2740   32.8620 H   0  0  0  0  0  0  0  0  0  0  0  0
   36.7240   22.6290   33.7000 H   0  0  0  0  0  0  0  0  0  0  0  0
   35.6060   22.3470   31.6890 H   0  0  0  0  0  0  0  0  0  0  0  0
   37.1860   21.9460   30.9020 H   0  0  0  0  0  0  0  0  0  0  0  0
   36.8520   23.9020   29.7910 H   0  0  0  0  0  0  0  0  0  0  0  0
   35.7100   24.6180   30.8980 H   0  0  0  0  0  0  0  0  0  0  0  0
   38.6400   24.4530   30.9550 H   0  0  0  0  0  0  0  0  0  0  0  0
   39.5730   26.2500   29.5030 Cl  0  0  0  0  0  0  0  0  0  0  0  0
   38.2170   26.8800   30.4470 C   0  0  0  0  0  0  0  0  0  0  0  0
   37.4240   26.2260   31.4010 C   0  0  0  0  0  0  0  0  0  0  0  0
   36.4330   26.9610   32.0150 C   0  0  0  0  0  0  0  0  0  0  0  0
   35.8700   26.3620   32.7430 H   0  0  0  0  0  0  0  0  0  0  0  0
   36.1990   28.2900   31.7310 C   0  0  0  0  0  0  0  0  0  0  0  0
   35.3830   28.7000   32.3090 H   0  0  0  0  0  0  0  0  0  0  0  0
   36.9840   28.9290   30.7890 C   0  0  0  0  0  3  0  0  0  0  0  0
   37.9950   28.2100   30.1510 C   0  0  0  0  0  3  0  0  0  0  0  0
  1  2  1  0  0  0  0
  1 13  1  0  0  0  0
  2 14  1  0  0  0  0
  3 15  1  0  0  0  0
  3  2  2  0  0  0  0
  4  3  1  0  0  0  0
  5  4  2  0  0  0  0
  5  6  1  0  0  0  0
  6  1  2  0  0  0  0
  7  5  1  0  0  0  0
  8  7  1  0  0  0  0
  8 16  1  0  0  0  0
  9 18  1  0  0  0  0
  9  8  1  0  0  0  0
 10  9  1  0  0  0  0
 11 22  1  0  0  0  0
 11 10  1  0  0  0  0
 11 12  1  0  0  0  0
 12 23  1  1  0  0  0
 12  7  1  0  0  0  0
 17  8  1  0  0  0  0
 19  9  1  0  0  0  0
 20 10  1  0  0  0  0
 21 11  1  0  0  0  0
 24 25  1  6  0  0  0
 24 12  1  0  0  0  0
 25 29  1  0  0  0  0
 25 30  1  0  0  0  0
 26 31  1  0  0  0  0
 26 25  1  0  0  0  0
 27 26  1  0  0  0  0
 27 28  1  0  0  0  0
 28 35  1  6  0  0  0
 28 24  1  0  0  0  0
 32 26  1  0  0  0  0
 33 27  1  0  0  0  0
 34 27  1  0  0  0  0
 36 37  1  0  0  0  0
 37 38  1  0  0  0  0
 38 28  1  0  0  0  0
 38 39  2  0  0  0  0
 39 40  1  0  0  0  0
 41 39  1  0  0  0  0
 41 42  1  0  0  0  0
 43 41  2  0  0  0  0
 44 37  2  0  0  0  0
 44 43  1  0  0  0  0
M  END
>  <minimizedAffinity>
-5.55140734

$$$$

 OpenBabel03272505533D

 44 47  0  0  1  0  0  0  0  0999 V2000
   40.4370   21.8880   37.1460 C   0  0  0  0  0  0  0  0  0  0  0  0
   41.8340   21.8510   36.8810 C   0  0  0  0  0  0  0  0  0  0  0  0
   42.3640   22.8870   36.1020 C   0  0  0  0  0  0  0  0  0  0  0  0
   41.5180   23.8560   35.6510 N   0  0  0  0  0  0  0  0  0  0  0  0
   40.2020   23.8430   35.9330 C   0  0  0  0  0  0  0  0  0  0  0  0
   39.6680   22.8670   36.6740 N   0  0  0  0  0  0  0  0  0  0  0  0
   39.3830   24.8890   35.4370 N   0  0  0  0  0  0  0  0  0  0  0  0
   38.1940   25.3150   36.1430 C   0  0  0  0  0  0  0  0  0  0  0  0
   38.2190   26.7900   36.3700 C   0  0  0  0  0  0  0  0  0  0  0  0
   39.1580   27.5040   35.6650 N   0  0  0  0  0  0  0  0  0  0  0  0
   39.6730   27.0160   34.4070 C   0  0  0  0  0  0  0  0  0  0  0  0
   39.6980   25.5870   34.2060 C   0  0  2  0  0  0  0  0  0  0  0  0
   40.0850   21.0690   37.7480 H   0  0  0  0  0  0  0  0  0  0  0  0
   42.5260   21.1160   37.2120 H   0  0  0  0  0  0  0  0  0  0  0  0
   43.4090   22.9740   35.8300 H   0  0  0  0  0  0  0  0  0  0  0  0
   38.2450   24.8000   37.1630 H   0  0  0  0  0  0  0  0  0  0  0  0
   37.2570   24.9140   35.7260 H   0  0  0  0  0  0  0  0  0  0  0  0
   38.3000   27.0090   37.4540 H   0  0  0  0  0  0  0  0  0  0  0  0
   37.1850   27.1560   36.0970 H   0  0  0  0  0  0  0  0  0  0  0  0
   39.6660   28.2780   36.0960 H   0  0  0  0  0  0  0  0  0  0  0  0
   39.2870   27.7320   33.7080 H   0  0  0  0  0  0  0  0  0  0  0  0
   40.7690   27.3440   34.4790 H   0  0  0  0  0  0  0  0  0  0  0  0
   40.7110   25.2020   33.8730 H   0  0  0  0  0  0  0  0  0  0  0  0
   38.7630   25.0870   33.1990 N   0  0  2  0  0  0  0  0  0  0  0  0
   39.0870   23.7140   32.8120 C   0  0  0  0  0  0  0  0  0  0  0  0
   38.8190   23.5730   31.3390 C   0  0  0  0  0  0  0  0  0  0  0  0
   38.2740   24.8930   30.9530 C   0  0  0  0  0  0  0  0  0  0  0  0
   38.7550   25.8600   32.0110 C   0  0  1  0  0  0  0  0  0  0  0  0
   40.1800   23.5650   33.0050 H   0  0  0  0  0  0  0  0  0  0  0  0
   38.5470   22.9760   33.4310 H   0  0  0  0  0  0  0  0  0  0  0  0
   38.0800   22.7480   31.1720 H   0  0  0  0  0  0  0  0  0  0  0  0
   39.7620   23.3040   30.7990 H   0  0  0  0  0  0  0  0  0  0  0  0
   38.7070   25.1200   29.9240 H   0  0  0  0  0  0  0  0  0  0  0  0
   37.1890   24.9470   30.7660 H   0  0  0  0  0  0  0  0  0  0  0  0
   39.7610   26.0900   31.5990 H   0  0  0  0  0  0  0  0  0  0  0  0
   39.6410   28.1220   30.0960 Cl  0  0  0  0  0  0  0  0  0  0  0  0
   38.1640   27.9820   31.0580 C   0  0  0  0  0  0  0  0  0  0  0  0
   37.7750   26.9620   31.9380 C   0  0  0  0  0  0  0  0  0  0  0  0
   36.5680   27.1090   32.5880 C   0  0  0  0  0  0  0  0  0  0  0  0
   36.3560   26.2610   33.2520 H   0  0  0  0  0  0  0  0  0  0  0  0
   35.7470   28.2000   32.4070 C   0  0  0  0  0  0  0  0  0  0  0  0
   34.8440   28.1430   32.9980 H   0  0  0  0  0  0  0  0  0  0  0  0
   36.1350   29.2030   31.5370 C   0  0  0  0  0  3  0  0  0  0  0  0
   37.3510   29.0820   30.8650 C   0  0  0  0  0  3  0  0  0  0  0  0
  1 13  1  0  0  0  0
  2  1  1  0  0  0  0
  2 14  1  0  0  0  0
  3  2  2  0  0  0  0
  4  5  2  0  0  0  0
  4  3  1  0  0  0  0
  5  6  1  0  0  0  0
  6  1  2  0  0  0  0
  7  5  1  0  0  0  0
  7  8  1  0  0  0  0
  8  9  1  0  0  0  0
  8 16  1  0  0  0  0
  9 18  1  0  0  0  0
 10 20  1  0  0  0  0
 10  9  1  0  0  0  0
 11 22  1  0  0  0  0
 11 10  1  0  0  0  0
 12 23  1  6  0  0  0
 12 11  1  0  0  0  0
 12  7  1  0  0  0  0
 15  3  1  0  0  0  0
 17  8  1  0  0  0  0
 19  9  1  0  0  0  0
 21 11  1  0  0  0  0
 24 25  1  6  0  0  0
 24 12  1  0  0  0  0
 25 29  1  0  0  0  0
 25 30  1  0  0  0  0
 26 25  1  0  0  0  0
 27 26  1  0  0  0  0
 27 28  1  0  0  0  0
 28 35  1  6  0  0  0
 28 24  1  0  0  0  0
 31 26  1  0  0  0  0
 32 26  1  0  0  0  0
 33 27  1  0  0  0  0
 34 27  1  0  0  0  0
 36 37  1  0  0  0  0
 37 38  1  0  0  0  0
 38 28  1  0  0  0  0
 38 39  2  0  0  0  0
 39 40  1  0  0  0  0
 41 39  1  0  0  0  0
 41 42  1  0  0  0  0
 43 41  2  0  0  0  0
 44 37  2  0  0  0  0
 44 43  1  0  0  0  0
M  END
>  <minimizedAffinity>
-5.5181427

$$$$
