
 OpenBabel03262523043D

 26 28  0  0  0  0  0  0  0  0999 V2000
   36.6770   27.8720   33.5330 C   0  0  0  0  0  0  0  0  0  0  0  0
   36.7440   28.3180   32.2540 C   0  0  0  0  0  0  0  0  0  0  0  0
   36.2070   29.5170   31.9160 C   0  0  0  0  0  0  0  0  0  0  0  0
   35.5980   30.2780   32.8700 N   0  0  0  0  0  0  0  0  0  0  0  0
   35.5440   29.8200   34.1210 C   0  0  0  0  0  0  0  0  0  0  0  0
   36.0720   28.6220   34.4870 N   0  0  0  0  0  0  0  0  0  0  0  0
   37.2310   27.6860   31.5420 H   0  0  0  0  0  0  0  0  0  0  0  0
   36.2990   29.8070   30.8750 H   0  0  0  0  0  0  0  0  0  0  0  0
   38.0790   24.4760   33.4540 C   0  0  0  0  0  0  0  0  0  0  0  0
   38.2790   24.1940   34.8250 C   0  0  0  0  0  0  0  0  0  0  0  0
   37.9220   25.1920   35.7470 C   0  0  0  0  0  0  0  0  0  0  0  0
   37.4110   26.3560   35.2700 N   0  0  0  0  0  0  0  0  0  0  0  0
   37.2300   26.5990   33.9610 C   0  0  0  0  0  0  0  0  0  0  0  0
   37.5700   25.6440   33.0490 N   0  0  0  0  0  0  0  0  0  0  0  0
   38.3690   23.6760   32.7850 H   0  0  0  0  0  0  0  0  0  0  0  0
   38.6870   23.2670   35.2030 H   0  0  0  0  0  0  0  0  0  0  0  0
   38.0710   24.9910   36.7990 H   0  0  0  0  0  0  0  0  0  0  0  0
   32.6240   29.3870   34.4550 Cl  0  0  0  0  0  0  0  0  0  0  0  0
   33.5500   30.5410   35.4210 C   0  0  0  0  0  0  0  0  0  0  0  0
   34.8930   30.6290   35.1490 C   0  0  0  0  0  0  0  0  0  0  0  0
   35.6370   31.5240   35.8910 C   0  0  0  0  0  0  0  0  0  0  0  0
   36.6830   31.6300   35.7200 H   0  0  0  0  0  0  0  0  0  0  0  0
   35.0010   32.2840   36.8640 C   0  0  0  0  0  0  0  0  0  0  0  0
   35.5870   32.9910   37.4500 H   0  0  0  0  0  0  0  0  0  0  0  0
   33.6420   32.1590   37.0990 C   0  0  0  0  0  3  0  0  0  0  0  0
   32.8600   31.2610   36.3660 C   0  0  0  0  0  3  0  0  0  0  0  0
  1 13  1  0  0  0  0
  1  6  1  0  0  0  0
  2  1  2  0  0  0  0
  3  2  1  0  0  0  0
  3  4  2  0  0  0  0
  4  5  1  0  0  0  0
  5  6  2  0  0  0  0
  5 20  1  0  0  0  0
  7  2  1  0  0  0  0
  8  3  1  0  0  0  0
  9 10  1  0  0  0  0
 10 16  1  0  0  0  0
 10 11  2  0  0  0  0
 11 17  1  0  0  0  0
 12 11  1  0  0  0  0
 13 12  2  0  0  0  0
 14  9  2  0  0  0  0
 14 13  1  0  0  0  0
 15  9  1  0  0  0  0
 18 19  1  0  0  0  0
 19 26  1  0  0  0  0
 20 19  2  0  0  0  0
 20 21  1  0  0  0  0
 21 23  2  0  0  0  0
 22 21  1  0  0  0  0
 23 25  1  0  0  0  0
 23 24  1  0  0  0  0
 26 25  2  0  0  0  0
M  END
>  <minimizedAffinity>
-5.31548834

$$$$

 OpenBabel03262523043D

 26 28  0  0  0  0  0  0  0  0999 V2000
   35.9690   23.5880   31.6030 C   0  0  0  0  0  0  0  0  0  0  0  0
   35.2100   24.3900   30.8160 C   0  0  0  0  0  0  0  0  0  0  0  0
   35.2850   25.7400   30.9370 C   0  0  0  0  0  0  0  0  0  0  0  0
   36.1290   26.2910   31.8550 N   0  0  0  0  0  0  0  0  0  0  0  0
   36.8660   25.4830   32.6190 C   0  0  0  0  0  0  0  0  0  0  0  0
   36.8100   24.1280   32.5190 N   0  0  0  0  0  0  0  0  0  0  0  0
   34.5640   23.9120   30.1110 H   0  0  0  0  0  0  0  0  0  0  0  0
   34.6480   26.3160   30.2740 H   0  0  0  0  0  0  0  0  0  0  0  0
   36.8510   20.1210   30.7630 C   0  0  0  0  0  0  0  0  0  0  0  0
   35.8330   19.3810   31.4060 C   0  0  0  0  0  0  0  0  0  0  0  0
   34.8620   20.1040   32.1190 C   0  0  0  0  0  0  0  0  0  0  0  0
   34.9590   21.4580   32.1470 N   0  0  0  0  0  0  0  0  0  0  0  0
   35.9370   22.1390   31.5250 C   0  0  0  0  0  0  0  0  0  0  0  0
   36.8890   21.4560   30.8280 N   0  0  0  0  0  0  0  0  0  0  0  0
   37.5730   19.5180   30.2270 H   0  0  0  0  0  0  0  0  0  0  0  0
   35.7570   18.3020   31.3840 H   0  0  0  0  0  0  0  0  0  0  0  0
   34.0780   19.5510   32.6180 H   0  0  0  0  0  0  0  0  0  0  0  0
   39.6330   26.0130   31.6810 Cl  0  0  0  0  0  0  0  0  0  0  0  0
   39.0810   26.3660   33.3210 C   0  0  0  0  0  0  0  0  0  0  0  0
   37.7720   26.0640   33.6050 C   0  0  0  0  0  0  0  0  0  0  0  0
   37.3190   26.3310   34.8810 C   0  0  0  0  0  0  0  0  0  0  0  0
   36.3110   26.1160   35.1530 H   0  0  0  0  0  0  0  0  0  0  0  0
   38.1960   26.8850   35.8060 C   0  0  0  0  0  0  0  0  0  0  0  0
   37.8390   27.0950   36.8130 H   0  0  0  0  0  0  0  0  0  0  0  0
   39.5090   27.1700   35.4700 C   0  0  0  0  0  3  0  0  0  0  0  0
   40.0000   26.9120   34.1850 C   0  0  0  0  0  3  0  0  0  0  0  0
  1  6  1  0  0  0  0
  2  3  1  0  0  0  0
  2  1  2  0  0  0  0
  3  4  2  0  0  0  0
  4  5  1  0  0  0  0
  5 20  1  0  0  0  0
  6  5  2  0  0  0  0
  7  2  1  0  0  0  0
  8  3  1  0  0  0  0
  9 14  2  0  0  0  0
  9 10  1  0  0  0  0
 10 11  2  0  0  0  0
 11 12  1  0  0  0  0
 11 17  1  0  0  0  0
 13  1  1  0  0  0  0
 13 12  2  0  0  0  0
 14 13  1  0  0  0  0
 15  9  1  0  0  0  0
 16 10  1  0  0  0  0
 18 19  1  0  0  0  0
 19 20  2  0  0  0  0
 19 26  1  0  0  0  0
 20 21  1  0  0  0  0
 21 22  1  0  0  0  0
 21 23  2  0  0  0  0
 23 24  1  0  0  0  0
 25 23  1  0  0  0  0
 26 25  2  0  0  0  0
M  END
>  <minimizedAffinity>
-5.20659828

$$$$

 OpenBabel03262523043D

 26 28  0  0  0  0  0  0  0  0999 V2000
   36.8130   25.3800   32.6200 C   0  0  0  0  0  0  0  0  0  0  0  0
   36.0790   26.0980   31.7350 C   0  0  0  0  0  0  0  0  0  0  0  0
   35.3250   25.4690   30.7980 C   0  0  0  0  0  0  0  0  0  0  0  0
   35.3060   24.1070   30.7490 N   0  0  0  0  0  0  0  0  0  0  0  0
   36.0360   23.4210   31.6300 C   0  0  0  0  0  0  0  0  0  0  0  0
   36.8000   24.0250   32.5780 N   0  0  0  0  0  0  0  0  0  0  0  0
   36.1260   27.1640   31.8130 H   0  0  0  0  0  0  0  0  0  0  0  0
   34.7650   26.1100   30.1240 H   0  0  0  0  0  0  0  0  0  0  0  0
   37.8900   27.4670   35.4470 C   0  0  0  0  0  0  0  0  0  0  0  0
   39.2540   27.1220   35.5800 C   0  0  0  0  0  0  0  0  0  0  0  0
   39.7700   26.1710   34.6850 C   0  0  0  0  0  0  0  0  0  0  0  0
   38.9340   25.6450   33.7530 N   0  0  0  0  0  0  0  0  0  0  0  0
   37.6400   25.9900   33.6460 C   0  0  0  0  0  0  0  0  0  0  0  0
   37.1190   26.9120   34.5060 N   0  0  0  0  0  0  0  0  0  0  0  0
   37.5420   28.2030   36.1600 H   0  0  0  0  0  0  0  0  0  0  0  0
   39.9190   27.5410   36.3240 H   0  0  0  0  0  0  0  0  0  0  0  0
   40.8120   25.8960   34.7760 H   0  0  0  0  0  0  0  0  0  0  0  0
   38.3420   22.1440   30.2610 Cl  0  0  0  0  0  0  0  0  0  0  0  0
   37.0170   21.2290   30.9870 C   0  0  0  0  0  0  0  0  0  0  0  0
   36.0210   21.9610   31.5840 C   0  0  0  0  0  0  0  0  0  0  0  0
   34.9750   21.2660   32.1580 C   0  0  0  0  0  0  0  0  0  0  0  0
   34.1770   21.7880   32.6340 H   0  0  0  0  0  0  0  0  0  0  0  0
   34.9780   19.8780   32.1050 C   0  0  0  0  0  0  0  0  0  0  0  0
   34.1540   19.3300   32.5570 H   0  0  0  0  0  0  0  0  0  0  0  0
   36.0070   19.1850   31.4890 C   0  0  0  0  0  3  0  0  0  0  0  0
   37.0820   19.8590   30.8990 C   0  0  0  0  0  3  0  0  0  0  0  0
  1 13  1  0  0  0  0
  2  7  1  0  0  0  0
  2  1  2  0  0  0  0
  3  2  1  0  0  0  0
  4  3  2  0  0  0  0
  4  5  1  0  0  0  0
  5  6  2  0  0  0  0
  6  1  1  0  0  0  0
  8  3  1  0  0  0  0
  9 10  1  0  0  0  0
  9 15  1  0  0  0  0
 10 16  1  0  0  0  0
 11 17  1  0  0  0  0
 11 10  2  0  0  0  0
 12 11  1  0  0  0  0
 13 12  2  0  0  0  0
 13 14  1  0  0  0  0
 14  9  2  0  0  0  0
 18 19  1  0  0  0  0
 19 20  1  0  0  0  0
 20  5  1  0  0  0  0
 20 21  2  0  0  0  0
 21 22  1  0  0  0  0
 23 21  1  0  0  0  0
 23 24  1  0  0  0  0
 25 23  2  0  0  0  0
 26 19  2  0  0  0  0
 26 25  1  0  0  0  0
M  END
>  <minimizedAffinity>
-5.20065451

$$$$

 OpenBabel03262523043D

 26 28  0  0  0  0  0  0  0  0999 V2000
   35.9770   28.1880   31.9300 C   0  0  0  0  0  0  0  0  0  0  0  0
   36.2550   28.9960   30.8780 C   0  0  0  0  0  0  0  0  0  0  0  0
   36.0990   30.3400   30.9840 C   0  0  0  0  0  0  0  0  0  0  0  0
   35.6590   30.8800   32.1560 N   0  0  0  0  0  0  0  0  0  0  0  0
   35.3910   30.0660   33.1780 C   0  0  0  0  0  0  0  0  0  0  0  0
   35.5390   28.7170   33.1000 N   0  0  0  0  0  0  0  0  0  0  0  0
   36.5970   28.5270   29.9790 H   0  0  0  0  0  0  0  0  0  0  0  0
   36.3410   30.9220   30.1000 H   0  0  0  0  0  0  0  0  0  0  0  0
   35.4560   24.6570   31.0550 C   0  0  0  0  0  0  0  0  0  0  0  0
   36.4390   24.0010   31.8300 C   0  0  0  0  0  0  0  0  0  0  0  0
   37.2630   24.8010   32.6400 C   0  0  0  0  0  0  0  0  0  0  0  0
   37.0660   26.1440   32.6290 N   0  0  0  0  0  0  0  0  0  0  0  0
   36.1230   26.7440   31.8840 C   0  0  0  0  0  0  0  0  0  0  0  0
   35.3130   25.9860   31.0910 N   0  0  0  0  0  0  0  0  0  0  0  0
   34.8480   23.9970   30.4500 H   0  0  0  0  0  0  0  0  0  0  0  0
   36.5950   22.9310   31.8370 H   0  0  0  0  0  0  0  0  0  0  0  0
   38.0200   24.3120   33.2370 H   0  0  0  0  0  0  0  0  0  0  0  0
   32.4890   29.7620   33.7330 Cl  0  0  0  0  0  0  0  0  0  0  0  0
   33.6070   30.5730   34.8340 C   0  0  0  0  0  0  0  0  0  0  0  0
   34.9200   30.6350   34.4380 C   0  0  0  0  0  0  0  0  0  0  0  0
   35.8120   31.2650   35.2830 C   0  0  0  0  0  0  0  0  0  0  0  0
   36.8430   31.3390   35.0230 H   0  0  0  0  0  0  0  0  0  0  0  0
   35.3460   31.8000   36.4770 C   0  0  0  0  0  0  0  0  0  0  0  0
   36.0480   32.2970   37.1440 H   0  0  0  0  0  0  0  0  0  0  0  0
   34.0090   31.7130   36.8300 C   0  0  0  0  0  3  0  0  0  0  0  0
   33.0800   31.0810   35.9970 C   0  0  0  0  0  3  0  0  0  0  0  0
  1  6  1  0  0  0  0
  2  3  1  0  0  0  0
  2  1  2  0  0  0  0
  3  4  2  0  0  0  0
  4  5  1  0  0  0  0
  5 20  1  0  0  0  0
  6  5  2  0  0  0  0
  7  2  1  0  0  0  0
  8  3  1  0  0  0  0
  9 14  2  0  0  0  0
  9 10  1  0  0  0  0
 10 16  1  0  0  0  0
 10 11  2  0  0  0  0
 11 17  1  0  0  0  0
 12 11  1  0  0  0  0
 13  1  1  0  0  0  0
 13 12  2  0  0  0  0
 14 13  1  0  0  0  0
 15  9  1  0  0  0  0
 18 19  1  0  0  0  0
 19 26  1  0  0  0  0
 20 19  2  0  0  0  0
 20 21  1  0  0  0  0
 21 23  2  0  0  0  0
 22 21  1  0  0  0  0
 23 25  1  0  0  0  0
 23 24  1  0  0  0  0
 26 25  2  0  0  0  0
M  END
>  <minimizedAffinity>
-5.15652132

$$$$

 OpenBabel03262523043D

 26 28  0  0  0  0  0  0  0  0999 V2000
   36.1720   23.8220   31.6230 C   0  0  0  0  0  0  0  0  0  0  0  0
   35.2610   24.6800   31.1040 C   0  0  0  0  0  0  0  0  0  0  0  0
   35.4600   26.0210   31.1770 C   0  0  0  0  0  0  0  0  0  0  0  0
   36.5840   26.5060   31.7760 N   0  0  0  0  0  0  0  0  0  0  0  0
   37.4670   25.6430   32.2810 C   0  0  0  0  0  0  0  0  0  0  0  0
   37.2930   24.2960   32.2220 N   0  0  0  0  0  0  0  0  0  0  0  0
   34.3940   24.2530   30.6440 H   0  0  0  0  0  0  0  0  0  0  0  0
   34.6870   26.6440   30.7400 H   0  0  0  0  0  0  0  0  0  0  0  0
   36.7450   20.2780   30.8380 C   0  0  0  0  0  0  0  0  0  0  0  0
   35.6890   19.6370   31.5240 C   0  0  0  0  0  0  0  0  0  0  0  0
   34.8010   20.4510   32.2470 C   0  0  0  0  0  0  0  0  0  0  0  0
   35.0090   21.7930   32.2420 N   0  0  0  0  0  0  0  0  0  0  0  0
   36.0200   22.3790   31.5790 C   0  0  0  0  0  0  0  0  0  0  0  0
   36.8930   21.6070   30.8710 N   0  0  0  0  0  0  0  0  0  0  0  0
   37.4000   19.6080   30.2970 H   0  0  0  0  0  0  0  0  0  0  0  0
   35.5250   18.5680   31.5290 H   0  0  0  0  0  0  0  0  0  0  0  0
   33.9890   19.9740   32.7790 H   0  0  0  0  0  0  0  0  0  0  0  0
   37.2730   26.1220   35.2050 Cl  0  0  0  0  0  0  0  0  0  0  0  0
   38.7400   26.4230   34.2690 C   0  0  0  0  0  0  0  0  0  0  0  0
   38.6750   26.1540   32.9240 C   0  0  0  0  0  0  0  0  0  0  0  0
   39.8100   26.3820   32.1730 C   0  0  0  0  0  0  0  0  0  0  0  0
   39.8120   26.1890   31.1240 H   0  0  0  0  0  0  0  0  0  0  0  0
   40.9490   26.8680   32.8020 C   0  0  0  0  0  0  0  0  0  0  0  0
   41.8440   27.0490   32.2090 H   0  0  0  0  0  0  0  0  0  0  0  0
   40.9630   27.1250   34.1630 C   0  0  0  0  0  3  0  0  0  0  0  0
   39.8310   26.9040   34.9530 C   0  0  0  0  0  3  0  0  0  0  0  0
  1  6  1  0  0  0  0
  2  3  1  0  0  0  0
  2  1  2  0  0  0  0
  3  4  2  0  0  0  0
  4  5  1  0  0  0  0
  5 20  1  0  0  0  0
  6  5  2  0  0  0  0
  7  2  1  0  0  0  0
  8  3  1  0  0  0  0
  9 14  2  0  0  0  0
  9 10  1  0  0  0  0
 10 16  1  0  0  0  0
 10 11  2  0  0  0  0
 11 17  1  0  0  0  0
 12 11  1  0  0  0  0
 13  1  1  0  0  0  0
 13 12  2  0  0  0  0
 14 13  1  0  0  0  0
 15  9  1  0  0  0  0
 19 26  1  0  0  0  0
 19 18  1  0  0  0  0
 20 19  2  0  0  0  0
 21 23  2  0  0  0  0
 21 20  1  0  0  0  0
 22 21  1  0  0  0  0
 23 25  1  0  0  0  0
 24 23  1  0  0  0  0
 25 26  2  0  0  0  0
M  END
>  <minimizedAffinity>
-5.12826967

$$$$

 OpenBabel03262523043D

 26 28  0  0  0  0  0  0  0  0999 V2000
   37.1390   26.3610   33.3250 C   0  0  0  0  0  0  0  0  0  0  0  0
   37.2340   25.5730   32.2260 C   0  0  0  0  0  0  0  0  0  0  0  0
   37.7190   24.3090   32.3270 C   0  0  0  0  0  0  0  0  0  0  0  0
   38.1110   23.8300   33.5410 N   0  0  0  0  0  0  0  0  0  0  0  0
   38.0090   24.6230   34.6090 C   0  0  0  0  0  0  0  0  0  0  0  0
   37.5280   25.8920   34.5370 N   0  0  0  0  0  0  0  0  0  0  0  0
   36.9140   25.9930   31.2960 H   0  0  0  0  0  0  0  0  0  0  0  0
   37.7650   23.7400   31.4040 H   0  0  0  0  0  0  0  0  0  0  0  0
   35.7060   29.5780   34.3730 C   0  0  0  0  0  0  0  0  0  0  0  0
   35.6720   30.3080   33.1630 C   0  0  0  0  0  0  0  0  0  0  0  0
   36.1490   29.6650   32.0090 C   0  0  0  0  0  0  0  0  0  0  0  0
   36.6090   28.3930   32.1240 N   0  0  0  0  0  0  0  0  0  0  0  0
   36.6300   27.7200   33.2870 C   0  0  0  0  0  0  0  0  0  0  0  0
   36.1720   28.3260   34.4200 N   0  0  0  0  0  0  0  0  0  0  0  0
   35.3280   30.1170   35.2320 H   0  0  0  0  0  0  0  0  0  0  0  0
   35.3060   31.3220   33.0730 H   0  0  0  0  0  0  0  0  0  0  0  0
   36.1300   30.2120   31.0760 H   0  0  0  0  0  0  0  0  0  0  0  0
   40.6950   23.3590   34.7100 Cl  0  0  0  0  0  0  0  0  0  0  0  0
   39.6410   23.5090   36.1190 C   0  0  0  0  0  0  0  0  0  0  0  0
   38.4270   24.1180   35.9140 C   0  0  0  0  0  0  0  0  0  0  0  0
   37.5870   24.2450   37.0020 C   0  0  0  0  0  0  0  0  0  0  0  0
   36.6330   24.7110   36.8960 H   0  0  0  0  0  0  0  0  0  0  0  0
   38.0010   23.7590   38.2350 C   0  0  0  0  0  0  0  0  0  0  0  0
   37.3380   23.8590   39.0930 H   0  0  0  0  0  0  0  0  0  0  0  0
   39.2360   23.1520   38.3890 C   0  0  0  0  0  3  0  0  0  0  0  0
   40.1120   23.0070   37.3080 C   0  0  0  0  0  3  0  0  0  0  0  0
  1  6  1  0  0  0  0
  2  3  1  0  0  0  0
  2  1  2  0  0  0  0
  3  4  2  0  0  0  0
  4  5  1  0  0  0  0
  5 20  1  0  0  0  0
  6  5  2  0  0  0  0
  7  2  1  0  0  0  0
  8  3  1  0  0  0  0
  9 14  1  0  0  0  0
  9 15  1  0  0  0  0
 10  9  2  0  0  0  0
 11 12  2  0  0  0  0
 11 10  1  0  0  0  0
 12 13  1  0  0  0  0
 13  1  1  0  0  0  0
 13 14  2  0  0  0  0
 16 10  1  0  0  0  0
 17 11  1  0  0  0  0
 18 19  1  0  0  0  0
 19 26  1  0  0  0  0
 20 19  2  0  0  0  0
 20 21  1  0  0  0  0
 21 23  2  0  0  0  0
 22 21  1  0  0  0  0
 23 25  1  0  0  0  0
 23 24  1  0  0  0  0
 26 25  2  0  0  0  0
M  END
>  <minimizedAffinity>
-5.09405899

$$$$

 OpenBabel03262523043D

 26 28  0  0  0  0  0  0  0  0999 V2000
   36.3880   28.2170   33.4890 C   0  0  0  0  0  0  0  0  0  0  0  0
   36.4870   28.7910   32.2650 C   0  0  0  0  0  0  0  0  0  0  0  0
   35.8590   29.9660   32.0040 C   0  0  0  0  0  0  0  0  0  0  0  0
   35.1250   30.5710   32.9800 N   0  0  0  0  0  0  0  0  0  0  0  0
   35.0420   29.9890   34.1770 C   0  0  0  0  0  0  0  0  0  0  0  0
   35.6600   28.8130   34.4650 N   0  0  0  0  0  0  0  0  0  0  0  0
   37.0740   28.2780   31.5310 H   0  0  0  0  0  0  0  0  0  0  0  0
   35.9840   30.3630   31.0020 H   0  0  0  0  0  0  0  0  0  0  0  0
   37.9270   24.8930   33.2000 C   0  0  0  0  0  0  0  0  0  0  0  0
   38.2630   24.5920   34.5390 C   0  0  0  0  0  0  0  0  0  0  0  0
   37.9490   25.5540   35.5140 C   0  0  0  0  0  0  0  0  0  0  0  0
   37.3450   26.7020   35.1150 N   0  0  0  0  0  0  0  0  0  0  0  0
   37.0340   26.9630   33.8330 C   0  0  0  0  0  0  0  0  0  0  0  0
   37.3310   26.0440   32.8720 N   0  0  0  0  0  0  0  0  0  0  0  0
   38.1890   24.1210   32.4880 H   0  0  0  0  0  0  0  0  0  0  0  0
   38.7450   23.6770   34.8560 H   0  0  0  0  0  0  0  0  0  0  0  0
   38.2010   25.3380   36.5430 H   0  0  0  0  0  0  0  0  0  0  0  0
   36.4810   32.0010   35.8210 Cl  0  0  0  0  0  0  0  0  0  0  0  0
   34.7840   31.5810   36.0700 C   0  0  0  0  0  0  0  0  0  0  0  0
   34.2580   30.6310   35.2290 C   0  0  0  0  0  0  0  0  0  0  0  0
   32.9330   30.2870   35.4060 C   0  0  0  0  0  0  0  0  0  0  0  0
   32.4770   29.5550   34.7790 H   0  0  0  0  0  0  0  0  0  0  0  0
   32.2030   30.9080   36.4110 C   0  0  0  0  0  0  0  0  0  0  0  0
   31.1590   30.6370   36.5510 H   0  0  0  0  0  0  0  0  0  0  0  0
   32.7810   31.8600   37.2340 C   0  0  0  0  0  3  0  0  0  0  0  0
   34.1210   32.2320   37.0820 C   0  0  0  0  0  3  0  0  0  0  0  0
  1 13  1  0  0  0  0
  1  6  1  0  0  0  0
  2  1  2  0  0  0  0
  3  2  1  0  0  0  0
  3  4  2  0  0  0  0
  4  5  1  0  0  0  0
  5  6  2  0  0  0  0
  5 20  1  0  0  0  0
  7  2  1  0  0  0  0
  8  3  1  0  0  0  0
  9 10  1  0  0  0  0
 10 16  1  0  0  0  0
 10 11  2  0  0  0  0
 11 17  1  0  0  0  0
 12 11  1  0  0  0  0
 13 12  2  0  0  0  0
 14  9  2  0  0  0  0
 14 13  1  0  0  0  0
 15  9  1  0  0  0  0
 18 19  1  0  0  0  0
 19 26  1  0  0  0  0
 20 21  1  0  0  0  0
 20 19  2  0  0  0  0
 21 23  2  0  0  0  0
 22 21  1  0  0  0  0
 23 24  1  0  0  0  0
 23 25  1  0  0  0  0
 26 25  2  0  0  0  0
M  END
>  <minimizedAffinity>
-5.04970837

$$$$

 OpenBabel03262523043D

 26 28  0  0  0  0  0  0  0  0999 V2000
   37.6190   24.4540   32.6570 C   0  0  0  0  0  0  0  0  0  0  0  0
   37.2200   23.3020   32.0630 C   0  0  0  0  0  0  0  0  0  0  0  0
   37.1980   22.1400   32.7640 C   0  0  0  0  0  0  0  0  0  0  0  0
   37.5800   22.1320   34.0730 N   0  0  0  0  0  0  0  0  0  0  0  0
   37.9690   23.2770   34.6360 C   0  0  0  0  0  0  0  0  0  0  0  0
   38.0010   24.4550   33.9580 N   0  0  0  0  0  0  0  0  0  0  0  0
   36.9290   23.3580   31.0350 H   0  0  0  0  0  0  0  0  0  0  0  0
   36.8670   21.2600   32.2220 H   0  0  0  0  0  0  0  0  0  0  0  0
   36.5800   27.4850   30.8580 C   0  0  0  0  0  0  0  0  0  0  0  0
   37.8070   28.1570   30.6550 C   0  0  0  0  0  0  0  0  0  0  0  0
   38.9690   27.5420   31.1500 C   0  0  0  0  0  0  0  0  0  0  0  0
   38.8450   26.3500   31.7860 N   0  0  0  0  0  0  0  0  0  0  0  0
   37.6660   25.7300   31.9650 C   0  0  0  0  0  0  0  0  0  0  0  0
   36.5260   26.3100   31.4930 N   0  0  0  0  0  0  0  0  0  0  0  0
   35.7160   28.0000   30.4590 H   0  0  0  0  0  0  0  0  0  0  0  0
   37.9040   29.1080   30.1490 H   0  0  0  0  0  0  0  0  0  0  0  0
   39.9150   28.0460   31.0030 H   0  0  0  0  0  0  0  0  0  0  0  0
   40.6660   22.1670   35.1970 Cl  0  0  0  0  0  0  0  0  0  0  0  0
   39.5970   22.7980   36.4530 C   0  0  0  0  0  0  0  0  0  0  0  0
   38.3800   23.2780   36.0380 C   0  0  0  0  0  0  0  0  0  0  0  0
   37.5280   23.7760   37.0030 C   0  0  0  0  0  0  0  0  0  0  0  0
   36.5710   24.1600   36.7320 H   0  0  0  0  0  0  0  0  0  0  0  0
   37.9350   23.7690   38.3300 C   0  0  0  0  0  0  0  0  0  0  0  0
   37.2640   24.1610   39.0920 H   0  0  0  0  0  0  0  0  0  0  0  0
   39.1750   23.2720   38.6990 C   0  0  0  0  0  3  0  0  0  0  0  0
   40.0620   22.7610   37.7460 C   0  0  0  0  0  3  0  0  0  0  0  0
  1  6  1  0  0  0  0
  2  1  2  0  0  0  0
  2  3  1  0  0  0  0
  3  4  2  0  0  0  0
  4  5  1  0  0  0  0
  5 20  1  0  0  0  0
  6  5  2  0  0  0  0
  7  2  1  0  0  0  0
  8  3  1  0  0  0  0
  9 14  1  0  0  0  0
 10  9  2  0  0  0  0
 10 11  1  0  0  0  0
 11 12  2  0  0  0  0
 12 13  1  0  0  0  0
 13  1  1  0  0  0  0
 14 13  2  0  0  0  0
 15  9  1  0  0  0  0
 16 10  1  0  0  0  0
 17 11  1  0  0  0  0
 18 19  1  0  0  0  0
 19 26  1  0  0  0  0
 20 19  2  0  0  0  0
 20 21  1  0  0  0  0
 21 23  2  0  0  0  0
 22 21  1  0  0  0  0
 23 25  1  0  0  0  0
 23 24  1  0  0  0  0
 26 25  2  0  0  0  0
M  END
>  <minimizedAffinity>
-4.9206171

$$$$

 OpenBabel03262523043D

 26 28  0  0  0  0  0  0  0  0999 V2000
   35.5070   29.9870   33.0510 C   0  0  0  0  0  0  0  0  0  0  0  0
   35.8480   30.7360   31.9730 C   0  0  0  0  0  0  0  0  0  0  0  0
   36.2930   30.1430   30.8370 C   0  0  0  0  0  0  0  0  0  0  0  0
   36.3990   28.7850   30.7800 N   0  0  0  0  0  0  0  0  0  0  0  0
   36.0580   28.0670   31.8520 C   0  0  0  0  0  0  0  0  0  0  0  0
   35.6090   28.6360   33.0020 N   0  0  0  0  0  0  0  0  0  0  0  0
   35.7490   31.7980   32.0660 H   0  0  0  0  0  0  0  0  0  0  0  0
   36.5470   30.8070   30.0180 H   0  0  0  0  0  0  0  0  0  0  0  0
   33.2860   30.9420   35.8180 C   0  0  0  0  0  0  0  0  0  0  0  0
   34.1520   31.6640   36.6720 C   0  0  0  0  0  0  0  0  0  0  0  0
   35.4900   31.8010   36.2670 C   0  0  0  0  0  0  0  0  0  0  0  0
   35.8670   31.2390   35.0900 N   0  0  0  0  0  0  0  0  0  0  0  0
   35.0240   30.5580   34.2950 C   0  0  0  0  0  0  0  0  0  0  0  0
   33.7210   30.4130   34.6700 N   0  0  0  0  0  0  0  0  0  0  0  0
   32.2670   30.8650   36.1750 H   0  0  0  0  0  0  0  0  0  0  0  0
   33.8510   32.1100   37.6090 H   0  0  0  0  0  0  0  0  0  0  0  0
   36.1650   32.3490   36.9100 H   0  0  0  0  0  0  0  0  0  0  0  0
   38.4160   26.8950   33.2240 Cl  0  0  0  0  0  0  0  0  0  0  0  0
   37.2000   25.9250   32.3870 C   0  0  0  0  0  0  0  0  0  0  0  0
   36.1670   26.6120   31.7990 C   0  0  0  0  0  0  0  0  0  0  0  0
   35.2050   25.8740   31.1390 C   0  0  0  0  0  0  0  0  0  0  0  0
   34.3820   26.3600   30.6660 H   0  0  0  0  0  0  0  0  0  0  0  0
   35.3250   24.4910   31.1000 C   0  0  0  0  0  0  0  0  0  0  0  0
   34.5670   23.9090   30.5790 H   0  0  0  0  0  0  0  0  0  0  0  0
   36.3880   23.8450   31.7080 C   0  0  0  0  0  3  0  0  0  0  0  0
   37.3800   24.5630   32.3860 C   0  0  0  0  0  3  0  0  0  0  0  0
  1 13  1  0  0  0  0
  2  7  1  0  0  0  0
  2  1  2  0  0  0  0
  3  2  1  0  0  0  0
  4  3  2  0  0  0  0
  4  5  1  0  0  0  0
  5  6  2  0  0  0  0
  6  1  1  0  0  0  0
  8  3  1  0  0  0  0
  9 15  1  0  0  0  0
  9 10  1  0  0  0  0
 10 16  1  0  0  0  0
 11 10  2  0  0  0  0
 11 17  1  0  0  0  0
 12 11  1  0  0  0  0
 13 14  1  0  0  0  0
 13 12  2  0  0  0  0
 14  9  2  0  0  0  0
 19 18  1  0  0  0  0
 20  5  1  0  0  0  0
 20 19  2  0  0  0  0
 21 20  1  0  0  0  0
 22 21  1  0  0  0  0
 23 21  2  0  0  0  0
 23 25  1  0  0  0  0
 24 23  1  0  0  0  0
 25 26  2  0  0  0  0
 26 19  1  0  0  0  0
M  END
>  <minimizedAffinity>
-4.91123104

$$$$
