
 OpenBabel03272507333D

 36 39  0  0  1  0  0  0  0  0999 V2000
   35.8560   29.2300   49.7150 C   0  0  0  0  0  0  0  0  0  0  0  0
   34.7950   29.7720   50.4090 C   0  0  0  0  0  0  0  0  0  0  0  0
   33.6260   29.1660   49.9230 C   0  0  0  0  0  0  0  0  0  0  0  0
   34.0550   28.2870   48.9570 C   0  0  0  0  0  0  0  0  0  0  0  0
   35.3660   28.3580   48.8690 O   0  0  0  0  0  0  0  0  0  0  0  0
   34.8430   30.5300   51.1910 H   0  0  0  0  0  0  0  0  0  0  0  0
   32.6230   29.3480   50.2340 H   0  0  0  0  0  0  0  0  0  0  0  0
   37.2290   29.6330   49.9650 C   0  0  0  0  0  0  0  0  0  0  0  0
   37.8500   29.1180   50.9070 O   0  0  0  0  0  0  0  0  0  0  0  0
   37.7880   30.6230   49.0870 C   0  0  0  0  0  0  0  0  0  0  0  0
   38.1520   31.8390   49.6480 C   0  0  0  0  0  0  0  0  0  0  0  0
   38.6970   32.8260   48.8170 C   0  0  0  0  0  0  0  0  0  0  0  0
   38.8420   32.5310   47.4870 N   0  0  0  0  0  0  0  0  0  0  0  0
   38.4830   31.3530   46.9780 C   0  0  0  0  0  0  0  0  0  0  0  0
   37.9580   30.3980   47.7650 N   0  0  0  0  0  0  0  0  0  0  0  0
   38.0320   32.0610   50.7080 H   0  0  0  0  0  0  0  0  0  0  0  0
   38.9740   33.7650   49.2670 H   0  0  0  0  0  0  0  0  0  0  0  0
   38.6580   31.2710   45.9140 H   0  0  0  0  0  0  0  0  0  0  0  0
   33.2010   27.4090   48.1560 C   0  0  0  0  0  0  0  0  0  0  0  0
   31.9870   27.7580   47.9680 O   0  0  0  0  0  0  0  0  0  0  0  0
   33.7450   26.1320   47.5810 C   0  0  1  0  0  0  0  0  0  0  0  0
   32.5590   25.1960   47.1380 C   0  0  0  0  0  0  0  0  0  0  0  0
   33.5220   25.7890   46.1770 C   0  0  2  0  0  0  0  0  0  0  0  0
   34.3340   25.5520   48.3250 H   0  0  0  0  0  0  0  0  0  0  0  0
   31.5570   25.6170   47.1320 H   0  0  0  0  0  0  0  0  0  0  0  0
   32.6410   24.1330   47.3410 H   0  0  0  0  0  0  0  0  0  0  0  0
   33.2480   26.6420   45.5170 H   0  0  0  0  0  0  0  0  0  0  0  0
   34.4300   26.7350   43.4540 Cl  0  0  0  0  0  0  0  0  0  0  0  0
   35.0540   25.3380   44.3120 C   0  0  0  0  0  0  0  0  0  0  0  0
   34.6040   24.9350   45.5740 C   0  0  0  0  0  0  0  0  0  0  0  0
   35.1470   23.8240   46.1790 C   0  0  0  0  0  0  0  0  0  0  0  0
   34.7800   23.5450   47.1410 H   0  0  0  0  0  0  0  0  0  0  0  0
   36.1370   23.0890   45.5620 C   0  0  0  0  0  0  0  0  0  0  0  0
   36.5540   22.2130   46.0580 H   0  0  0  0  0  0  0  0  0  0  0  0
   36.6240   23.4430   44.3070 C   0  0  0  0  0  0  0  0  0  0  0  0
   36.0460   24.5640   43.7460 C   0  0  0  0  0  0  0  0  0  0  0  0
  1  8  1  0  0  0  0
  1  2  2  0  0  0  0
  2  6  1  0  0  0  0
  3  7  1  0  0  0  0
  3  2  1  0  0  0  0
  4  3  2  0  0  0  0
  5  4  1  0  0  0  0
  5  1  1  0  0  0  0
  8  9  2  0  0  0  0
 10 11  1  0  0  0  0
 10  8  1  0  0  0  0
 11 16  1  0  0  0  0
 12 17  1  0  0  0  0
 12 11  2  0  0  0  0
 13 12  1  0  0  0  0
 14 13  2  0  0  0  0
 14 15  1  0  0  0  0
 15 10  2  0  0  0  0
 18 14  1  0  0  0  0
 19  4  1  0  0  0  0
 20 19  2  0  0  0  0
 21 19  1  0  0  0  0
 21 24  1  1  0  0  0
 22 26  1  0  0  0  0
 22 21  1  0  0  0  0
 23 27  1  6  0  0  0
 23 22  1  0  0  0  0
 23 21  1  0  0  0  0
 25 22  1  0  0  0  0
 28 29  1  0  0  0  0
 29 30  1  0  0  0  0
 30 23  1  0  0  0  0
 30 31  2  0  0  0  0
 31 32  1  0  0  0  0
 33 34  1  0  0  0  0
 33 31  1  0  0  0  0
 35 33  2  0  0  0  0
 36 35  1  0  0  0  0
 36 29  2  0  0  0  0
M  END
>  <minimizedAffinity>
-5.56706762

>  <minimizedRMSD>
1.77922785

$$$$
