
 OpenBabel03272508053D

 35 38  0  0  0  0  0  0  0  0999 V2000
   38.8600   30.9310   45.8390 C   0  0  0  0  0  0  0  0  0  0  0  0
   40.0110   31.6300   46.0830 C   0  0  0  0  0  0  0  0  0  0  0  0
   40.8570   31.5790   44.9900 C   0  0  0  0  0  0  0  0  0  0  0  0
   40.1790   30.8340   44.1010 N   0  0  0  0  0  0  0  0  0  0  0  0
   39.0050   30.4470   44.5870 N   0  0  0  0  0  0  0  0  0  0  0  0
   40.2530   32.1670   47.0080 H   0  0  0  0  0  0  0  0  0  0  0  0
   41.8340   32.0070   44.8280 H   0  0  0  0  0  0  0  0  0  0  0  0
   37.7230   30.7480   46.7360 C   0  0  0  0  0  0  0  0  0  0  0  0
   37.9320   30.9410   48.1250 C   0  0  0  0  0  0  0  0  0  0  0  0
   36.8430   30.7640   48.9700 C   0  0  0  0  0  0  0  0  0  0  0  0
   35.6380   30.4150   48.4170 N   0  0  0  0  0  0  0  0  0  0  0  0
   35.4680   30.2380   47.0900 C   0  0  0  0  0  0  0  0  0  0  0  0
   36.5150   30.4060   46.2590 N   0  0  0  0  0  0  0  0  0  0  0  0
   38.9230   31.2170   48.4700 H   0  0  0  0  0  0  0  0  0  0  0  0
   34.4960   29.9610   46.6990 H   0  0  0  0  0  0  0  0  0  0  0  0
   37.0480   30.9650   50.4370 C   0  0  0  0  0  0  0  0  0  0  0  0
   36.5370   32.2130   50.7050 F   0  0  0  0  0  0  0  0  0  0  0  0
   36.3480   30.0410   51.1940 F   0  0  0  0  0  0  0  0  0  0  0  0
   38.3880   30.9290   50.7840 F   0  0  0  0  0  0  0  0  0  0  0  0
   40.5690   30.4380   42.7530 C   0  0  0  0  0  0  0  0  0  0  0  0
   40.1880   31.1690   41.6230 C   0  0  0  0  0  0  0  0  0  0  0  0
   40.5440   30.7950   40.4000 C   0  0  0  0  0  0  0  0  0  0  0  0
   41.3340   29.6190   40.2390 C   0  0  0  0  0  0  0  0  0  0  0  0
   41.5260   29.0880   42.0110 S   0  0  0  0  0  0  0  0  0  0  0  0
   39.5780   32.0870   41.6900 H   0  0  0  0  0  0  0  0  0  0  0  0
   40.3730   31.1830   39.4350 H   0  0  0  0  0  0  0  0  0  0  0  0
   43.7180   30.9820   38.8800 Cl  0  0  0  0  0  0  0  0  0  0  0  0
   42.9990   29.4280   38.5210 C   0  0  0  0  0  0  0  0  0  0  0  0
   41.9330   28.8580   39.1550 C   0  0  0  0  0  0  0  0  0  0  0  0
   41.3570   27.6600   38.8970 C   0  0  0  0  0  0  0  0  0  0  0  0
   40.5100   27.2810   39.4510 H   0  0  0  0  0  0  0  0  0  0  0  0
   41.8970   26.9020   37.8700 C   0  0  0  0  0  0  0  0  0  0  0  0
   41.5200   25.9330   37.5780 H   0  0  0  0  0  0  0  0  0  0  0  0
   42.9870   27.4030   37.1680 C   0  0  0  0  0  0  0  0  0  0  0  0
   43.5320   28.6490   37.4860 C   0  0  0  0  0  0  0  0  0  0  0  0
  1  2  1  0  0  0  0
  1  8  1  0  0  0  0
  2  6  1  0  0  0  0
  3  2  2  0  0  0  0
  4  5  1  0  0  0  0
  4  3  1  0  0  0  0
  5  1  2  0  0  0  0
  7  3  1  0  0  0  0
  8  9  1  0  0  0  0
  9 14  1  0  0  0  0
  9 10  2  0  0  0  0
 10 16  1  0  0  0  0
 11 10  1  0  0  0  0
 12 11  2  0  0  0  0
 13  8  2  0  0  0  0
 13 12  1  0  0  0  0
 15 12  1  0  0  0  0
 16 17  1  0  0  0  0
 16 19  1  0  0  0  0
 16 18  1  0  0  0  0
 20  4  1  0  0  0  0
 21 25  1  0  0  0  0
 21 20  2  0  0  0  0
 22 21  1  0  0  0  0
 23 22  2  0  0  0  0
 23 24  1  0  0  0  0
 24 20  1  0  0  0  0
 26 22  1  0  0  0  0
 28 27  1  0  0  0  0
 28 29  1  0  0  0  0
 29 23  1  0  0  0  0
 30 29  2  0  0  0  0
 30 31  1  0  0  0  0
 32 30  1  0  0  0  0
 33 32  1  0  0  0  0
 34 35  1  0  0  0  0
 34 32  2  0  0  0  0
 35 28  2  0  0  0  0
M  END
>  <minimizedAffinity>
-6.53416252

>  <minimizedRMSD>
0.160467952

$$$$
