
 OpenBabel03272509533D

 43 46  0  0  0  0  0  0  0  0999 V2000
   34.6030   28.3700   48.2340 C   0  0  0  0  0  0  0  0  0  0  0  0
   35.5920   28.2530   47.7480 H   0  0  0  0  0  0  0  0  0  0  0  0
   34.1990   29.3530   47.8680 H   0  0  0  0  0  0  0  0  0  0  0  0
   33.6460   27.2500   47.9440 C   0  0  0  0  0  0  0  0  0  0  0  0
   33.9220   26.8610   46.9230 H   0  0  0  0  0  0  0  0  0  0  0  0
   33.7210   26.3930   48.6220 H   0  0  0  0  0  0  0  0  0  0  0  0
   32.2470   27.7220   47.8090 C   0  0  0  0  0  0  0  0  0  0  0  0
   31.3500   27.4140   48.8140 C   0  0  0  0  0  0  0  0  0  0  0  0
   30.0440   27.7980   48.7910 C   0  0  0  0  0  0  0  0  0  0  0  0
   29.6040   28.5070   47.7480 N   0  0  0  0  0  0  0  0  0  0  0  0
   30.4800   28.8100   46.7600 C   0  0  0  0  0  0  0  0  0  0  0  0
   31.7840   28.4460   46.7500 N   0  0  0  0  0  0  0  0  0  0  0  0
   31.6610   26.8330   49.6950 H   0  0  0  0  0  0  0  0  0  0  0  0
   29.3530   27.5500   49.5870 H   0  0  0  0  0  0  0  0  0  0  0  0
   32.1700   31.1950   45.8800 Cl  0  0  0  0  0  0  0  0  0  0  0  0
   30.6540   30.6950   45.1600 C   0  0  0  0  0  0  0  0  0  0  0  0
   29.9580   29.5870   45.6380 C   0  0  0  0  0  0  0  0  0  0  0  0
   28.7670   29.2230   45.0450 C   0  0  0  0  0  0  0  0  0  0  0  0
   28.2120   28.3640   45.4050 H   0  0  0  0  0  0  0  0  0  0  0  0
   28.2490   29.9450   43.9760 C   0  0  0  0  0  0  0  0  0  0  0  0
   27.3100   29.6080   43.5540 H   0  0  0  0  0  0  0  0  0  0  0  0
   28.9040   31.0480   43.4700 C   0  0  0  0  0  3  0  0  0  0  0  0
   30.0740   31.3570   44.0970 C   0  0  0  0  0  3  0  0  0  0  0  0
   34.8450   28.4590   49.6360 O   0  0  0  0  0  0  0  0  0  0  0  0
   37.3540   30.1670   51.5900 C   0  0  0  0  0  0  0  0  0  0  0  0
   38.0710   30.8130   50.5610 C   0  0  0  0  0  0  0  0  0  0  0  0
   37.6510   30.6260   49.2480 C   0  0  0  0  0  0  0  0  0  0  0  0
   36.5510   29.8090   49.0790 N   0  0  0  0  0  0  0  0  0  0  0  0
   35.8970   29.2130   50.0600 C   0  0  0  0  0  0  0  0  0  0  0  0
   36.3050   29.3950   51.3410 N   0  0  0  0  0  0  0  0  0  0  0  0
   37.7590   30.3750   52.5600 H   0  0  0  0  0  0  0  0  0  0  0  0
   38.9190   31.4480   50.6410 H   0  0  0  0  0  0  0  0  0  0  0  0
   39.0170   33.1630   49.0140 F   0  0  0  0  0  0  0  0  0  0  0  0
   38.8890   32.3820   47.9390 C   0  0  0  0  0  0  0  0  0  0  0  0
   38.2420   31.1930   48.0740 C   0  0  0  0  0  0  0  0  0  0  0  0
   38.1720   30.4720   46.8920 C   0  0  0  0  0  0  0  0  0  0  0  0
   38.7030   30.9120   45.7010 C   0  0  0  0  0  0  0  0  0  0  0  0
   39.3470   32.1220   45.6180 C   0  0  0  0  0  0  0  0  0  0  0  0
   39.4380   32.8720   46.7750 C   0  0  0  0  0  0  0  0  0  0  0  0
   37.6960   29.5040   46.8050 H   0  0  0  0  0  0  0  0  0  0  0  0
   38.6520   30.3560   44.7740 H   0  0  0  0  0  0  0  0  0  0  0  0
   39.7710   32.4970   44.7090 H   0  0  0  0  0  0  0  0  0  0  0  0
   39.9410   33.8280   46.7340 H   0  0  0  0  0  0  0  0  0  0  0  0
  1 24  1  0  0  0  0
  2  1  1  0  0  0  0
  3  1  1  0  0  0  0
  4  1  1  0  0  0  0
  4  6  1  0  0  0  0
  5  4  1  0  0  0  0
  7  4  1  0  0  0  0
  7  8  1  0  0  0  0
  8 13  1  0  0  0  0
  9  8  2  0  0  0  0
  9 14  1  0  0  0  0
 10  9  1  0  0  0  0
 11 10  2  0  0  0  0
 12 11  1  0  0  0  0
 12  7  2  0  0  0  0
 16 17  1  0  0  0  0
 16 15  1  0  0  0  0
 17 11  1  0  0  0  0
 18 19  1  0  0  0  0
 18 17  2  0  0  0  0
 20 18  1  0  0  0  0
 21 20  1  0  0  0  0
 22 20  2  0  0  0  0
 22 23  1  0  0  0  0
 23 16  2  0  0  0  0
 24 29  1  0  0  0  0
 25 31  1  0  0  0  0
 26 32  1  0  0  0  0
 26 25  2  0  0  0  0
 27 26  1  0  0  0  0
 28 27  2  0  0  0  0
 28 29  1  0  0  0  0
 29 30  2  0  0  0  0
 30 25  1  0  0  0  0
 34 35  1  0  0  0  0
 34 33  1  0  0  0  0
 35 27  1  0  0  0  0
 36 35  2  0  0  0  0
 37 36  1  0  0  0  0
 38 37  2  0  0  0  0
 38 39  1  0  0  0  0
 39 34  2  0  0  0  0
 40 36  1  0  0  0  0
 41 37  1  0  0  0  0
 42 38  1  0  0  0  0
 43 39  1  0  0  0  0
M  END
>  <minimizedAffinity>
-6.68889189

>  <minimizedRMSD>
0.48972252

$$$$
