
 OpenBabel03272510233D

 31 34  0  0  0  0  0  0  0  0999 V2000
   36.0550   30.0810   46.3160 C   0  0  0  0  0  0  0  0  0  0  0  0
   37.0530   30.8650   46.8780 C   0  0  0  0  0  0  0  0  0  0  0  0
   37.7310   31.7560   46.0940 C   0  0  0  0  0  0  0  0  0  0  0  0
   37.4010   31.8510   44.7520 C   0  0  0  0  0  0  0  0  0  0  0  0
   37.9290   32.6540   43.7900 N   0  0  0  0  0  0  0  0  0  0  0  0
   37.2860   32.3910   42.6450 C   0  0  0  0  0  0  0  0  0  0  0  0
   36.3660   31.4470   42.8470 N   0  0  0  0  0  0  0  0  0  0  0  0
   36.4090   31.0860   44.1510 C   0  0  0  0  0  0  0  0  0  0  0  0
   35.7330   30.1890   44.9610 C   0  0  0  0  0  0  0  0  0  0  0  0
   35.4750   29.3550   46.8670 H   0  0  0  0  0  0  0  0  0  0  0  0
   38.4960   32.3610   46.5130 H   0  0  0  0  0  0  0  0  0  0  0  0
   38.7060   33.3550   43.9330 H   0  0  0  0  0  0  0  0  0  0  0  0
   34.9600   29.5850   44.5150 H   0  0  0  0  0  0  0  0  0  0  0  0
   38.3640   31.2100   50.3840 C   0  0  0  0  0  0  0  0  0  0  0  0
   38.1730   31.4580   49.0210 C   0  0  0  0  0  0  0  0  0  0  0  0
   37.3030   30.6700   48.2930 C   0  0  0  0  0  0  0  0  0  0  0  0
   36.6640   29.6760   48.9430 N   0  0  0  0  0  0  0  0  0  0  0  0
   36.8560   29.4420   50.2700 C   0  0  0  0  0  0  0  0  0  0  0  0
   37.6930   30.1940   50.9840 N   0  0  0  0  0  0  0  0  0  0  0  0
   39.0500   31.8240   50.9760 H   0  0  0  0  0  0  0  0  0  0  0  0
   38.7050   32.2650   48.5380 H   0  0  0  0  0  0  0  0  0  0  0  0
   36.2830   28.6140   50.6720 H   0  0  0  0  0  0  0  0  0  0  0  0
   39.8260   31.6620   41.2350 Cl  0  0  0  0  0  0  0  0  0  0  0  0
   38.6280   32.7760   40.5740 C   0  0  0  0  0  0  0  0  0  0  0  0
   37.5140   33.0110   41.3410 C   0  0  0  0  0  0  0  0  0  0  0  0
   36.5700   33.8830   40.8300 C   0  0  0  0  0  0  0  0  0  0  0  0
   35.6630   34.1230   41.3680 H   0  0  0  0  0  0  0  0  0  0  0  0
   36.7610   34.4900   39.5840 C   0  0  0  0  0  0  0  0  0  0  0  0
   36.0660   35.1790   39.1280 H   0  0  0  0  0  0  0  0  0  0  0  0
   37.9110   34.2150   38.8510 C   0  0  0  0  0  3  0  0  0  0  0  0
   38.8800   33.3360   39.3470 C   0  0  0  0  0  3  0  0  0  0  0  0
  1 10  1  0  0  0  0
  1  2  1  0  0  0  0
  2 16  1  0  0  0  0
  3 11  1  0  0  0  0
  3  2  2  0  0  0  0
  4  3  1  0  0  0  0
  5 12  1  0  0  0  0
  5  4  1  0  0  0  0
  6  7  2  0  0  0  0
  6  5  1  0  0  0  0
  7  8  1  0  0  0  0
  8  4  2  0  0  0  0
  8  9  1  0  0  0  0
  9  1  2  0  0  0  0
 13  9  1  0  0  0  0
 14 20  1  0  0  0  0
 14 19  1  0  0  0  0
 15 14  2  0  0  0  0
 16 17  2  0  0  0  0
 16 15  1  0  0  0  0
 17 18  1  0  0  0  0
 18 22  1  0  0  0  0
 18 19  2  0  0  0  0
 21 15  1  0  0  0  0
 24 23  1  0  0  0  0
 24 25  1  0  0  0  0
 25  6  1  0  0  0  0
 26 25  2  0  0  0  0
 26 27  1  0  0  0  0
 28 26  1  0  0  0  0
 29 28  1  0  0  0  0
 30 31  1  0  0  0  0
 30 28  2  0  0  0  0
 31 24  2  0  0  0  0
M  END
>  <minimizedAffinity>
-5.11681604

>  <minimizedRMSD>
3.56555772

$$$$
