
 OpenBabel03272509543D

 43 46  0  0  0  0  0  0  0  0999 V2000
   34.1910   28.9320   48.2900 C   0  0  0  0  0  0  0  0  0  0  0  0
   35.1480   29.1710   47.7850 H   0  0  0  0  0  0  0  0  0  0  0  0
   33.3960   29.4760   47.7090 H   0  0  0  0  0  0  0  0  0  0  0  0
   33.8940   27.4610   48.3660 C   0  0  0  0  0  0  0  0  0  0  0  0
   34.5020   26.9790   47.5500 H   0  0  0  0  0  0  0  0  0  0  0  0
   34.2050   26.9780   49.2990 H   0  0  0  0  0  0  0  0  0  0  0  0
   32.4850   27.1510   48.0300 C   0  0  0  0  0  0  0  0  0  0  0  0
   32.2210   26.0170   47.2860 C   0  0  0  0  0  0  0  0  0  0  0  0
   30.9640   25.6390   46.9230 C   0  0  0  0  0  0  0  0  0  0  0  0
   29.9330   26.3990   47.3010 N   0  0  0  0  0  0  0  0  0  0  0  0
   30.1870   27.5120   48.0300 C   0  0  0  0  0  0  0  0  0  0  0  0
   31.4220   27.9180   48.4090 N   0  0  0  0  0  0  0  0  0  0  0  0
   33.0330   25.3570   46.9500 H   0  0  0  0  0  0  0  0  0  0  0  0
   30.7730   24.7470   46.3390 H   0  0  0  0  0  0  0  0  0  0  0  0
   29.0440   26.9430   50.8020 Cl  0  0  0  0  0  0  0  0  0  0  0  0
   28.4350   28.1320   49.6690 C   0  0  0  0  0  0  0  0  0  0  0  0
   29.0310   28.3150   48.4230 C   0  0  0  0  0  0  0  0  0  0  0  0
   28.5240   29.2610   47.5560 C   0  0  0  0  0  0  0  0  0  0  0  0
   28.9760   29.4160   46.5840 H   0  0  0  0  0  0  0  0  0  0  0  0
   27.4240   30.0370   47.9080 C   0  0  0  0  0  0  0  0  0  0  0  0
   27.0750   30.7630   47.1840 H   0  0  0  0  0  0  0  0  0  0  0  0
   26.8030   29.8900   49.1300 C   0  0  0  0  0  3  0  0  0  0  0  0
   27.3500   28.9400   49.9400 C   0  0  0  0  0  3  0  0  0  0  0  0
   34.2700   29.4860   49.6010 O   0  0  0  0  0  0  0  0  0  0  0  0
   37.2040   29.8490   51.6740 C   0  0  0  0  0  0  0  0  0  0  0  0
   38.0550   30.5330   50.7790 C   0  0  0  0  0  0  0  0  0  0  0  0
   37.5720   30.8320   49.5090 C   0  0  0  0  0  0  0  0  0  0  0  0
   36.2810   30.4220   49.2450 N   0  0  0  0  0  0  0  0  0  0  0  0
   35.5030   29.7820   50.1000 C   0  0  0  0  0  0  0  0  0  0  0  0
   35.9720   29.4900   51.3380 N   0  0  0  0  0  0  0  0  0  0  0  0
   37.6710   29.6680   52.6200 H   0  0  0  0  0  0  0  0  0  0  0  0
   39.0510   30.8670   50.9360 H   0  0  0  0  0  0  0  0  0  0  0  0
   38.7320   33.4770   49.6120 F   0  0  0  0  0  0  0  0  0  0  0  0
   38.8310   32.7570   48.4920 C   0  0  0  0  0  0  0  0  0  0  0  0
   38.2770   31.5160   48.4670 C   0  0  0  0  0  0  0  0  0  0  0  0
   38.4430   30.8670   47.2540 C   0  0  0  0  0  0  0  0  0  0  0  0
   39.1020   31.4210   46.1800 C   0  0  0  0  0  0  0  0  0  0  0  0
   39.6430   32.6800   46.2560 C   0  0  0  0  0  0  0  0  0  0  0  0
   39.5000   33.3610   47.4490 C   0  0  0  0  0  0  0  0  0  0  0  0
   38.0700   29.8720   47.0470 H   0  0  0  0  0  0  0  0  0  0  0  0
   39.2350   30.9210   45.2290 H   0  0  0  0  0  0  0  0  0  0  0  0
   40.1620   33.1430   45.4410 H   0  0  0  0  0  0  0  0  0  0  0  0
   39.9180   34.3540   47.5330 H   0  0  0  0  0  0  0  0  0  0  0  0
  1  4  1  0  0  0  0
  1 24  1  0  0  0  0
  2  1  1  0  0  0  0
  3  1  1  0  0  0  0
  4  6  1  0  0  0  0
  5  4  1  0  0  0  0
  7  4  1  0  0  0  0
  7 12  1  0  0  0  0
  8  7  2  0  0  0  0
  9  8  1  0  0  0  0
  9 10  2  0  0  0  0
 10 11  1  0  0  0  0
 11 12  2  0  0  0  0
 11 17  1  0  0  0  0
 13  8  1  0  0  0  0
 14  9  1  0  0  0  0
 16 23  1  0  0  0  0
 16 15  1  0  0  0  0
 17 16  2  0  0  0  0
 18 20  2  0  0  0  0
 18 17  1  0  0  0  0
 19 18  1  0  0  0  0
 20 22  1  0  0  0  0
 21 20  1  0  0  0  0
 22 23  2  0  0  0  0
 24 29  1  0  0  0  0
 25 31  1  0  0  0  0
 26 32  1  0  0  0  0
 26 25  2  0  0  0  0
 27 26  1  0  0  0  0
 28 27  2  0  0  0  0
 28 29  1  0  0  0  0
 29 30  2  0  0  0  0
 30 25  1  0  0  0  0
 34 33  1  0  0  0  0
 35 34  1  0  0  0  0
 35 27  1  0  0  0  0
 36 35  2  0  0  0  0
 37 38  2  0  0  0  0
 37 36  1  0  0  0  0
 38 39  1  0  0  0  0
 39 43  1  0  0  0  0
 39 34  2  0  0  0  0
 40 36  1  0  0  0  0
 41 37  1  0  0  0  0
 42 38  1  0  0  0  0
M  END
>  <minimizedAffinity>
-7.63993788

>  <minimizedRMSD>
2.49677753

$$$$
