
 OpenBabel03272509533D

 43 46  0  0  0  0  0  0  0  0999 V2000
   34.1130   28.9550   48.2530 C   0  0  0  0  0  0  0  0  0  0  0  0
   34.6730   29.6140   47.5600 H   0  0  0  0  0  0  0  0  0  0  0  0
   33.4470   29.6360   48.8500 H   0  0  0  0  0  0  0  0  0  0  0  0
   33.3140   27.8860   47.5640 C   0  0  0  0  0  0  0  0  0  0  0  0
   33.3560   28.1260   46.4640 H   0  0  0  0  0  0  0  0  0  0  0  0
   33.7180   26.8720   47.6650 H   0  0  0  0  0  0  0  0  0  0  0  0
   31.8750   27.9410   47.9150 C   0  0  0  0  0  0  0  0  0  0  0  0
   31.5160   27.7880   49.2400 C   0  0  0  0  0  0  0  0  0  0  0  0
   30.2240   27.8230   49.6720 C   0  0  0  0  0  0  0  0  0  0  0  0
   29.2540   28.0130   48.7730 N   0  0  0  0  0  0  0  0  0  0  0  0
   29.6020   28.1620   47.4730 C   0  0  0  0  0  0  0  0  0  0  0  0
   30.8740   28.1340   47.0080 N   0  0  0  0  0  0  0  0  0  0  0  0
   32.2750   27.6290   50.0200 H   0  0  0  0  0  0  0  0  0  0  0  0
   29.9580   27.7020   50.7150 H   0  0  0  0  0  0  0  0  0  0  0  0
   28.3520   25.6360   46.3030 Cl  0  0  0  0  0  0  0  0  0  0  0  0
   27.8730   27.2790   45.9320 C   0  0  0  0  0  0  0  0  0  0  0  0
   28.5110   28.3690   46.5230 C   0  0  0  0  0  0  0  0  0  0  0  0
   28.1080   29.6490   46.2070 C   0  0  0  0  0  0  0  0  0  0  0  0
   28.5920   30.5060   46.6570 H   0  0  0  0  0  0  0  0  0  0  0  0
   27.0710   29.8710   45.3060 C   0  0  0  0  0  0  0  0  0  0  0  0
   26.8010   30.8990   45.1000 H   0  0  0  0  0  0  0  0  0  0  0  0
   26.4120   28.8220   44.6970 C   0  0  0  0  0  3  0  0  0  0  0  0
   26.8570   27.5840   45.0500 C   0  0  0  0  0  3  0  0  0  0  0  0
   35.0760   28.3640   49.1230 O   0  0  0  0  0  0  0  0  0  0  0  0
   37.3020   30.1660   51.3210 C   0  0  0  0  0  0  0  0  0  0  0  0
   38.0690   30.8740   50.3700 C   0  0  0  0  0  0  0  0  0  0  0  0
   37.7770   30.6910   49.0220 C   0  0  0  0  0  0  0  0  0  0  0  0
   36.7450   29.8180   48.7420 N   0  0  0  0  0  0  0  0  0  0  0  0
   36.0410   29.1670   49.6520 C   0  0  0  0  0  0  0  0  0  0  0  0
   36.3250   29.3440   50.9660 N   0  0  0  0  0  0  0  0  0  0  0  0
   37.6070   30.3760   52.3260 H   0  0  0  0  0  0  0  0  0  0  0  0
   38.8690   31.5530   50.5360 H   0  0  0  0  0  0  0  0  0  0  0  0
   38.9500   33.3320   48.9310 F   0  0  0  0  0  0  0  0  0  0  0  0
   38.9940   32.5530   47.8480 C   0  0  0  0  0  0  0  0  0  0  0  0
   38.4360   31.3150   47.9140 C   0  0  0  0  0  0  0  0  0  0  0  0
   38.5440   30.6020   46.7310 C   0  0  0  0  0  0  0  0  0  0  0  0
   39.1540   31.0950   45.6000 C   0  0  0  0  0  0  0  0  0  0  0  0
   39.7030   32.3540   45.5840 C   0  0  0  0  0  0  0  0  0  0  0  0
   39.6170   33.0970   46.7450 C   0  0  0  0  0  0  0  0  0  0  0  0
   38.1580   29.6000   46.5940 H   0  0  0  0  0  0  0  0  0  0  0  0
   39.2430   30.5450   44.6720 H   0  0  0  0  0  0  0  0  0  0  0  0
   40.1860   32.7700   44.7240 H   0  0  0  0  0  0  0  0  0  0  0  0
   40.0420   34.0900   46.7580 H   0  0  0  0  0  0  0  0  0  0  0  0
  1  3  1  0  0  0  0
  1 24  1  0  0  0  0
  2  1  1  0  0  0  0
  4  6  1  0  0  0  0
  4  7  1  0  0  0  0
  4  1  1  0  0  0  0
  5  4  1  0  0  0  0
  7  8  1  0  0  0  0
  8  9  2  0  0  0  0
  8 13  1  0  0  0  0
  9 14  1  0  0  0  0
 10  9  1  0  0  0  0
 11 10  2  0  0  0  0
 12 11  1  0  0  0  0
 12  7  2  0  0  0  0
 16 15  1  0  0  0  0
 16 17  1  0  0  0  0
 17 11  1  0  0  0  0
 18 17  2  0  0  0  0
 18 19  1  0  0  0  0
 20 18  1  0  0  0  0
 21 20  1  0  0  0  0
 22 23  1  0  0  0  0
 22 20  2  0  0  0  0
 23 16  2  0  0  0  0
 24 29  1  0  0  0  0
 25 31  1  0  0  0  0
 26 32  1  0  0  0  0
 26 25  2  0  0  0  0
 27 26  1  0  0  0  0
 28 27  2  0  0  0  0
 28 29  1  0  0  0  0
 29 30  2  0  0  0  0
 30 25  1  0  0  0  0
 34 35  1  0  0  0  0
 34 33  1  0  0  0  0
 35 27  1  0  0  0  0
 36 35  2  0  0  0  0
 37 36  1  0  0  0  0
 38 37  2  0  0  0  0
 38 39  1  0  0  0  0
 39 43  1  0  0  0  0
 39 34  2  0  0  0  0
 40 36  1  0  0  0  0
 41 37  1  0  0  0  0
 42 38  1  0  0  0  0
M  END
>  <minimizedAffinity>
-6.97779274

>  <minimizedRMSD>
1.31802881

$$$$
