
 OpenBabel03272510333D

 28 30  0  0  0  0  0  0  0  0999 V2000
   37.4210   31.6210   46.4380 C   0  0  0  0  0  0  0  0  0  0  0  0
   37.7900   31.8960   45.1510 C   0  0  0  0  0  0  0  0  0  0  0  0
   37.2620   31.1920   44.0780 C   0  0  0  0  0  0  0  0  0  0  0  0
   36.3440   30.1940   44.3390 C   0  0  0  0  0  0  0  0  0  0  0  0
   35.9510   29.8910   45.6350 C   0  0  0  0  0  0  0  0  0  0  0  0
   36.5000   30.6150   46.6780 C   0  0  0  0  0  0  0  0  0  0  0  0
   38.5110   32.6800   44.9400 H   0  0  0  0  0  0  0  0  0  0  0  0
   37.5890   31.4530   43.0760 H   0  0  0  0  0  0  0  0  0  0  0  0
   35.9570   29.6690   43.4730 H   0  0  0  0  0  0  0  0  0  0  0  0
   35.2220   29.0920   45.7870 H   0  0  0  0  0  0  0  0  0  0  0  0
   37.7610   33.3380   49.6240 C   0  0  0  0  0  0  0  0  0  0  0  0
   39.0390   33.8930   49.5910 C   0  0  0  0  0  0  0  0  0  0  0  0
   39.8070   33.6590   48.4180 C   0  0  0  0  0  0  0  0  0  0  0  0
   39.2680   32.9200   47.4050 N   0  0  0  0  0  0  0  0  0  0  0  0
   38.0260   32.4090   47.4940 C   0  0  0  0  0  0  0  0  0  0  0  0
   37.2850   32.6250   48.6060 N   0  0  0  0  0  0  0  0  0  0  0  0
   37.2050   33.5350   50.5290 H   0  0  0  0  0  0  0  0  0  0  0  0
   39.4980   34.4740   50.3560 H   0  0  0  0  0  0  0  0  0  0  0  0
   40.8180   34.0330   48.2590 H   0  0  0  0  0  0  0  0  0  0  0  0
   38.7420   29.5780   48.2890 Cl  0  0  0  0  0  0  0  0  0  0  0  0
   37.0970   29.8240   48.8670 C   0  0  0  0  0  0  0  0  0  0  0  0
   36.1020   30.3150   48.0500 C   0  0  0  0  0  0  0  0  0  0  0  0
   34.8100   30.5000   48.5340 C   0  0  0  0  0  0  0  0  0  0  0  0
   34.0830   30.8830   47.8460 H   0  0  0  0  0  0  0  0  0  0  0  0
   34.5630   30.1790   49.8410 C   0  0  0  0  0  0  0  0  0  0  0  0
   33.5720   30.3110   50.2480 H   0  0  0  0  0  0  0  0  0  0  0  0
   35.5230   29.6940   50.6740 C   0  0  0  0  0  3  0  0  0  0  0  0
   36.8080   29.5130   50.1840 C   0  0  0  0  0  3  0  0  0  0  0  0
  1  6  1  0  0  0  0
  1 15  1  0  0  0  0
  2  1  2  0  0  0  0
  3  4  2  0  0  0  0
  3  2  1  0  0  0  0
  4  5  1  0  0  0  0
  5 10  1  0  0  0  0
  5  6  2  0  0  0  0
  6 22  1  0  0  0  0
  7  2  1  0  0  0  0
  8  3  1  0  0  0  0
  9  4  1  0  0  0  0
 11 17  1  0  0  0  0
 12 11  1  0  0  0  0
 12 18  1  0  0  0  0
 13 12  2  0  0  0  0
 14 15  2  0  0  0  0
 14 13  1  0  0  0  0
 15 16  1  0  0  0  0
 16 11  2  0  0  0  0
 19 13  1  0  0  0  0
 20 21  1  0  0  0  0
 21 28  1  0  0  0  0
 22 23  1  0  0  0  0
 22 21  2  0  0  0  0
 23 25  2  0  0  0  0
 24 23  1  0  0  0  0
 25 26  1  0  0  0  0
 25 27  1  0  0  0  0
 28 27  2  0  0  0  0
M  END
>  <minimizedAffinity>
-2.64213347

>  <minimizedRMSD>
3.30755162

$$$$
