
 OpenBabel03272509563D

 43 46  0  0  0  0  0  0  0  0999 V2000
   37.2210   26.3760   34.6060 C   0  0  0  0  0  0  0  0  0  0  0  0
   37.5820   26.9630   35.4760 H   0  0  0  0  0  0  0  0  0  0  0  0
   36.1510   26.1200   34.8350 H   0  0  0  0  0  0  0  0  0  0  0  0
   37.3370   27.1000   33.2950 C   0  0  0  0  0  0  0  0  0  0  0  0
   38.3750   27.5370   33.2710 H   0  0  0  0  0  0  0  0  0  0  0  0
   37.2590   26.4610   32.4080 H   0  0  0  0  0  0  0  0  0  0  0  0
   36.4270   28.2670   33.2120 C   0  0  0  0  0  0  0  0  0  0  0  0
   36.2690   28.8910   31.9890 C   0  0  0  0  0  0  0  0  0  0  0  0
   35.4580   29.9690   31.8010 C   0  0  0  0  0  0  0  0  0  0  0  0
   34.7820   30.4510   32.8470 N   0  0  0  0  0  0  0  0  0  0  0  0
   34.9350   29.8430   34.0480 C   0  0  0  0  0  0  0  0  0  0  0  0
   35.7300   28.7700   34.2710 N   0  0  0  0  0  0  0  0  0  0  0  0
   36.8020   28.5340   31.0960 H   0  0  0  0  0  0  0  0  0  0  0  0
   35.3440   30.4470   30.8360 H   0  0  0  0  0  0  0  0  0  0  0  0
   36.3570   31.9870   35.6910 Cl  0  0  0  0  0  0  0  0  0  0  0  0
   34.7370   31.3860   35.9770 C   0  0  0  0  0  0  0  0  0  0  0  0
   34.1770   30.4010   35.1660 C   0  0  0  0  0  0  0  0  0  0  0  0
   32.8980   29.9520   35.4200 C   0  0  0  0  0  0  0  0  0  0  0  0
   32.4480   29.1870   34.7990 H   0  0  0  0  0  0  0  0  0  0  0  0
   32.1560   30.4680   36.4790 C   0  0  0  0  0  0  0  0  0  0  0  0
   31.1590   30.0750   36.6260 H   0  0  0  0  0  0  0  0  0  0  0  0
   32.6690   31.4430   37.3070 C   0  0  0  0  0  3  0  0  0  0  0  0
   33.9370   31.8450   37.0030 C   0  0  0  0  0  3  0  0  0  0  0  0
   37.9900   25.1770   34.5750 O   0  0  0  0  0  0  0  0  0  0  0  0
   37.8720   23.8610   37.9350 C   0  0  0  0  0  0  0  0  0  0  0  0
   39.1200   23.2040   37.9870 C   0  0  0  0  0  0  0  0  0  0  0  0
   39.9350   23.2500   36.8610 C   0  0  0  0  0  0  0  0  0  0  0  0
   39.4330   23.9480   35.7810 N   0  0  0  0  0  0  0  0  0  0  0  0
   38.2590   24.5550   35.7570 C   0  0  0  0  0  0  0  0  0  0  0  0
   37.4630   24.5110   36.8540 N   0  0  0  0  0  0  0  0  0  0  0  0
   37.3240   23.7650   38.8490 H   0  0  0  0  0  0  0  0  0  0  0  0
   39.5480   22.6570   38.7900 H   0  0  0  0  0  0  0  0  0  0  0  0
   42.3240   24.4560   35.7670 F   0  0  0  0  0  0  0  0  0  0  0  0
   42.3640   23.1970   36.2080 C   0  0  0  0  0  0  0  0  0  0  0  0
   41.2280   22.6500   36.7180 C   0  0  0  0  0  0  0  0  0  0  0  0
   41.3940   21.3420   37.1420 C   0  0  0  0  0  0  0  0  0  0  0  0
   42.5870   20.6600   37.0570 C   0  0  0  0  0  0  0  0  0  0  0  0
   43.7060   21.2580   36.5330 C   0  0  0  0  0  0  0  0  0  0  0  0
   43.5830   22.5630   36.0990 C   0  0  0  0  0  0  0  0  0  0  0  0
   40.6010   20.7440   37.5760 H   0  0  0  0  0  0  0  0  0  0  0  0
   42.7240   19.6380   37.3860 H   0  0  0  0  0  0  0  0  0  0  0  0
   44.6500   20.7590   36.4510 H   0  0  0  0  0  0  0  0  0  0  0  0
   44.4510   23.0550   35.6830 H   0  0  0  0  0  0  0  0  0  0  0  0
  1  3  1  0  0  0  0
  1  2  1  0  0  0  0
  4  1  1  0  0  0  0
  5  4  1  0  0  0  0
  6  4  1  0  0  0  0
  7  4  1  0  0  0  0
  7 12  1  0  0  0  0
  8  7  2  0  0  0  0
  9  8  1  0  0  0  0
  9 10  2  0  0  0  0
 10 11  1  0  0  0  0
 11 12  2  0  0  0  0
 11 17  1  0  0  0  0
 13  8  1  0  0  0  0
 14  9  1  0  0  0  0
 15 16  1  0  0  0  0
 16 23  1  0  0  0  0
 17 18  1  0  0  0  0
 17 16  2  0  0  0  0
 18 20  2  0  0  0  0
 19 18  1  0  0  0  0
 20 21  1  0  0  0  0
 20 22  1  0  0  0  0
 23 22  2  0  0  0  0
 24  1  1  0  0  0  0
 24 29  1  0  0  0  0
 25 26  1  0  0  0  0
 25 31  1  0  0  0  0
 26 32  1  0  0  0  0
 27 26  2  0  0  0  0
 28 27  1  0  0  0  0
 29 28  2  0  0  0  0
 29 30  1  0  0  0  0
 30 25  2  0  0  0  0
 33 34  1  0  0  0  0
 34 35  1  0  0  0  0
 35 27  1  0  0  0  0
 35 36  2  0  0  0  0
 36 40  1  0  0  0  0
 37 36  1  0  0  0  0
 37 41  1  0  0  0  0
 38 37  2  0  0  0  0
 39 34  2  0  0  0  0
 39 38  1  0  0  0  0
 42 38  1  0  0  0  0
 43 39  1  0  0  0  0
M  END
>  <minimizedAffinity>
-6.75551224

$$$$

 OpenBabel03272509563D

 43 46  0  0  0  0  0  0  0  0999 V2000
   37.2640   26.7700   35.0430 C   0  0  0  0  0  0  0  0  0  0  0  0
   36.3960   26.0810   35.0350 H   0  0  0  0  0  0  0  0  0  0  0  0
   36.9510   27.6480   35.6710 H   0  0  0  0  0  0  0  0  0  0  0  0
   38.5280   26.1510   35.5710 C   0  0  0  0  0  0  0  0  0  0  0  0
   39.3600   26.5380   34.9180 H   0  0  0  0  0  0  0  0  0  0  0  0
   38.7890   26.4410   36.5950 H   0  0  0  0  0  0  0  0  0  0  0  0
   38.5520   24.6800   35.3940 C   0  0  0  0  0  0  0  0  0  0  0  0
   39.3870   23.9340   36.2040 C   0  0  0  0  0  0  0  0  0  0  0  0
   39.4870   22.5790   36.1250 C   0  0  0  0  0  0  0  0  0  0  0  0
   38.7440   21.9330   35.2220 N   0  0  0  0  0  0  0  0  0  0  0  0
   37.9250   22.6610   34.4250 C   0  0  0  0  0  0  0  0  0  0  0  0
   37.8000   24.0080   34.4750 N   0  0  0  0  0  0  0  0  0  0  0  0
   40.0190   24.4160   36.9640 H   0  0  0  0  0  0  0  0  0  0  0  0
   40.1460   22.0080   36.7680 H   0  0  0  0  0  0  0  0  0  0  0  0
   35.7460   20.8570   35.5740 Cl  0  0  0  0  0  0  0  0  0  0  0  0
   36.1100   21.0660   33.8730 C   0  0  0  0  0  0  0  0  0  0  0  0
   37.1300   21.9170   33.4510 C   0  0  0  0  0  0  0  0  0  0  0  0
   37.3880   22.0560   32.1030 C   0  0  0  0  0  0  0  0  0  0  0  0
   38.1770   22.7130   31.7580 H   0  0  0  0  0  0  0  0  0  0  0  0
   36.6440   21.3590   31.1560 C   0  0  0  0  0  0  0  0  0  0  0  0
   36.8960   21.5120   30.1140 H   0  0  0  0  0  0  0  0  0  0  0  0
   35.6270   20.5070   31.5280 C   0  0  0  0  0  3  0  0  0  0  0  0
   35.4210   20.4120   32.8730 C   0  0  0  0  0  3  0  0  0  0  0  0
   37.4540   27.2040   33.6980 O   0  0  0  0  0  0  0  0  0  0  0  0
   35.6270   29.5310   31.6310 C   0  0  0  0  0  0  0  0  0  0  0  0
   34.9800   30.2920   32.6280 C   0  0  0  0  0  0  0  0  0  0  0  0
   35.2090   29.9620   33.9600 C   0  0  0  0  0  0  0  0  0  0  0  0
   36.0640   28.9010   34.1790 N   0  0  0  0  0  0  0  0  0  0  0  0
   36.6570   28.2020   33.2270 C   0  0  0  0  0  0  0  0  0  0  0  0
   36.4350   28.5230   31.9280 N   0  0  0  0  0  0  0  0  0  0  0  0
   35.3830   29.8650   30.6430 H   0  0  0  0  0  0  0  0  0  0  0  0
   34.3170   31.1140   32.5090 H   0  0  0  0  0  0  0  0  0  0  0  0
   36.5440   31.7560   35.7920 F   0  0  0  0  0  0  0  0  0  0  0  0
   35.2580   31.4570   35.9820 C   0  0  0  0  0  0  0  0  0  0  0  0
   34.6500   30.6110   35.1080 C   0  0  0  0  0  0  0  0  0  0  0  0
   33.3180   30.3770   35.4090 C   0  0  0  0  0  0  0  0  0  0  0  0
   32.6710   30.9430   36.4840 C   0  0  0  0  0  0  0  0  0  0  0  0
   33.3300   31.7910   37.3390 C   0  0  0  0  0  0  0  0  0  0  0  0
   34.6610   32.0510   37.0730 C   0  0  0  0  0  0  0  0  0  0  0  0
   32.6730   29.7310   34.8260 H   0  0  0  0  0  0  0  0  0  0  0  0
   31.6310   30.7650   36.7260 H   0  0  0  0  0  0  0  0  0  0  0  0
   32.8590   32.2490   38.1840 H   0  0  0  0  0  0  0  0  0  0  0  0
   35.2000   32.7160   37.7320 H   0  0  0  0  0  0  0  0  0  0  0  0
  1  4  1  0  0  0  0
  1  3  1  0  0  0  0
  2  1  1  0  0  0  0
  4  6  1  0  0  0  0
  5  4  1  0  0  0  0
  7  4  1  0  0  0  0
  7  8  1  0  0  0  0
  8 13  1  0  0  0  0
  9  8  2  0  0  0  0
  9 14  1  0  0  0  0
 10  9  1  0  0  0  0
 11 12  1  0  0  0  0
 11 10  2  0  0  0  0
 12  7  2  0  0  0  0
 16 15  1  0  0  0  0
 17 16  1  0  0  0  0
 17 11  1  0  0  0  0
 18 17  2  0  0  0  0
 19 18  1  0  0  0  0
 20 22  2  0  0  0  0
 20 18  1  0  0  0  0
 21 20  1  0  0  0  0
 22 23  1  0  0  0  0
 23 16  2  0  0  0  0
 24  1  1  0  0  0  0
 25 30  2  0  0  0  0
 25 26  1  0  0  0  0
 26 27  2  0  0  0  0
 27 28  1  0  0  0  0
 27 35  1  0  0  0  0
 29 24  1  0  0  0  0
 29 28  2  0  0  0  0
 30 29  1  0  0  0  0
 31 25  1  0  0  0  0
 32 26  1  0  0  0  0
 33 34  1  0  0  0  0
 34 39  1  0  0  0  0
 35 36  1  0  0  0  0
 35 34  2  0  0  0  0
 36 37  2  0  0  0  0
 37 41  1  0  0  0  0
 37 38  1  0  0  0  0
 38 42  1  0  0  0  0
 39 38  2  0  0  0  0
 39 43  1  0  0  0  0
 40 36  1  0  0  0  0
M  END
>  <minimizedAffinity>
-6.70195627

$$$$

 OpenBabel03272509563D

 43 46  0  0  0  0  0  0  0  0999 V2000
   36.8330   25.8750   31.8960 C   0  0  0  0  0  0  0  0  0  0  0  0
   35.8450   25.4110   32.0870 H   0  0  0  0  0  0  0  0  0  0  0  0
   36.7430   26.3860   30.8990 H   0  0  0  0  0  0  0  0  0  0  0  0
   37.2680   26.8410   32.9620 C   0  0  0  0  0  0  0  0  0  0  0  0
   36.9740   26.3730   33.9440 H   0  0  0  0  0  0  0  0  0  0  0  0
   38.3490   27.0060   33.0200 H   0  0  0  0  0  0  0  0  0  0  0  0
   36.5190   28.1180   32.9060 C   0  0  0  0  0  0  0  0  0  0  0  0
   36.3170   28.7080   31.6720 C   0  0  0  0  0  0  0  0  0  0  0  0
   35.6430   29.8790   31.5070 C   0  0  0  0  0  0  0  0  0  0  0  0
   35.1520   30.4930   32.5870 N   0  0  0  0  0  0  0  0  0  0  0  0
   35.3480   29.9190   33.7980 C   0  0  0  0  0  0  0  0  0  0  0  0
   36.0120   28.7560   34.0000 N   0  0  0  0  0  0  0  0  0  0  0  0
   36.7000   28.2440   30.7520 H   0  0  0  0  0  0  0  0  0  0  0  0
   35.4920   30.3290   30.5330 H   0  0  0  0  0  0  0  0  0  0  0  0
   32.4180   29.3460   34.4360 Cl  0  0  0  0  0  0  0  0  0  0  0  0
   33.4660   30.4290   35.3280 C   0  0  0  0  0  0  0  0  0  0  0  0
   34.7940   30.6220   34.9530 C   0  0  0  0  0  0  0  0  0  0  0  0
   35.5910   31.4820   35.6800 C   0  0  0  0  0  0  0  0  0  0  0  0
   36.6250   31.6440   35.4020 H   0  0  0  0  0  0  0  0  0  0  0  0
   35.0870   32.1630   36.7840 C   0  0  0  0  0  0  0  0  0  0  0  0
   35.7620   32.8240   37.3120 H   0  0  0  0  0  0  0  0  0  0  0  0
   33.7800   32.0030   37.1910 C   0  0  0  0  0  3  0  0  0  0  0  0
   33.0450   31.1400   36.4330 C   0  0  0  0  0  3  0  0  0  0  0  0
   37.7720   24.8070   31.7890 O   0  0  0  0  0  0  0  0  0  0  0  0
   36.7130   21.5080   32.8030 C   0  0  0  0  0  0  0  0  0  0  0  0
   37.1710   21.5010   34.1370 C   0  0  0  0  0  0  0  0  0  0  0  0
   37.8220   22.6340   34.6160 C   0  0  0  0  0  0  0  0  0  0  0  0
   37.9560   23.6750   33.7200 N   0  0  0  0  0  0  0  0  0  0  0  0
   37.5180   23.6580   32.4730 C   0  0  0  0  0  0  0  0  0  0  0  0
   36.8840   22.5540   32.0050 N   0  0  0  0  0  0  0  0  0  0  0  0
   36.2290   20.5920   32.5340 H   0  0  0  0  0  0  0  0  0  0  0  0
   37.0920   20.7280   34.8610 H   0  0  0  0  0  0  0  0  0  0  0  0
   40.4370   21.8660   35.5790 F   0  0  0  0  0  0  0  0  0  0  0  0
   39.5800   22.4680   36.4070 C   0  0  0  0  0  0  0  0  0  0  0  0
   38.3550   22.8190   35.9320 C   0  0  0  0  0  0  0  0  0  0  0  0
   37.5560   23.4350   36.8820 C   0  0  0  0  0  0  0  0  0  0  0  0
   37.9580   23.6680   38.1780 C   0  0  0  0  0  0  0  0  0  0  0  0
   39.2060   23.2920   38.6090 C   0  0  0  0  0  0  0  0  0  0  0  0
   40.0340   22.6760   37.6910 C   0  0  0  0  0  0  0  0  0  0  0  0
   36.5490   23.7840   36.6870 H   0  0  0  0  0  0  0  0  0  0  0  0
   37.3390   24.1470   38.9260 H   0  0  0  0  0  0  0  0  0  0  0  0
   39.5520   23.4580   39.6080 H   0  0  0  0  0  0  0  0  0  0  0  0
   41.0220   22.3720   38.0070 H   0  0  0  0  0  0  0  0  0  0  0  0
  1  2  1  0  0  0  0
  1  4  1  0  0  0  0
  3  1  1  0  0  0  0
  4  6  1  0  0  0  0
  4  5  1  0  0  0  0
  7  4  1  0  0  0  0
  7 12  1  0  0  0  0
  8  7  2  0  0  0  0
  9  8  1  0  0  0  0
  9 10  2  0  0  0  0
 10 11  1  0  0  0  0
 11 12  2  0  0  0  0
 11 17  1  0  0  0  0
 13  8  1  0  0  0  0
 14  9  1  0  0  0  0
 15 16  1  0  0  0  0
 16 23  1  0  0  0  0
 17 16  2  0  0  0  0
 17 18  1  0  0  0  0
 18 20  2  0  0  0  0
 19 18  1  0  0  0  0
 20 22  1  0  0  0  0
 20 21  1  0  0  0  0
 23 22  2  0  0  0  0
 24  1  1  0  0  0  0
 24 29  1  0  0  0  0
 25 26  1  0  0  0  0
 26 27  2  0  0  0  0
 26 32  1  0  0  0  0
 27 35  1  0  0  0  0
 28 27  1  0  0  0  0
 29 28  2  0  0  0  0
 30 29  1  0  0  0  0
 30 25  2  0  0  0  0
 31 25  1  0  0  0  0
 33 34  1  0  0  0  0
 34 39  1  0  0  0  0
 35 34  2  0  0  0  0
 35 36  1  0  0  0  0
 36 37  2  0  0  0  0
 37 38  1  0  0  0  0
 37 41  1  0  0  0  0
 38 42  1  0  0  0  0
 39 43  1  0  0  0  0
 39 38  2  0  0  0  0
 40 36  1  0  0  0  0
M  END
>  <minimizedAffinity>
-6.70048857

$$$$

 OpenBabel03272509563D

 43 46  0  0  0  0  0  0  0  0999 V2000
   42.3970   23.1640   36.7820 C   0  0  0  0  0  0  0  0  0  0  0  0
   42.0120   24.1340   37.1550 H   0  0  0  0  0  0  0  0  0  0  0  0
   43.4020   23.0270   37.2680 H   0  0  0  0  0  0  0  0  0  0  0  0
   41.4930   21.9990   37.0720 C   0  0  0  0  0  0  0  0  0  0  0  0
   41.7250   21.2230   36.2900 H   0  0  0  0  0  0  0  0  0  0  0  0
   41.6660   21.5130   38.0390 H   0  0  0  0  0  0  0  0  0  0  0  0
   40.0630   22.3310   36.8720 C   0  0  0  0  0  0  0  0  0  0  0  0
   39.4350   23.1270   37.8110 C   0  0  0  0  0  0  0  0  0  0  0  0
   38.1260   23.4920   37.7240 C   0  0  0  0  0  0  0  0  0  0  0  0
   37.4090   23.0620   36.6820 N   0  0  0  0  0  0  0  0  0  0  0  0
   38.0210   22.2810   35.7590 C   0  0  0  0  0  0  0  0  0  0  0  0
   39.3190   21.8990   35.8130 N   0  0  0  0  0  0  0  0  0  0  0  0
   39.9790   23.5080   38.6880 H   0  0  0  0  0  0  0  0  0  0  0  0
   37.6480   24.1170   38.4680 H   0  0  0  0  0  0  0  0  0  0  0  0
   38.5730   23.6320   33.0780 Cl  0  0  0  0  0  0  0  0  0  0  0  0
   37.3760   22.3870   33.3690 C   0  0  0  0  0  0  0  0  0  0  0  0
   37.2020   21.8320   34.6350 C   0  0  0  0  0  0  0  0  0  0  0  0
   36.2510   20.8530   34.8270 C   0  0  0  0  0  0  0  0  0  0  0  0
   36.1030   20.4120   35.8050 H   0  0  0  0  0  0  0  0  0  0  0  0
   35.4590   20.4090   33.7720 C   0  0  0  0  0  0  0  0  0  0  0  0
   34.7300   19.6370   33.9870 H   0  0  0  0  0  0  0  0  0  0  0  0
   35.5960   20.9280   32.5030 C   0  0  0  0  0  3  0  0  0  0  0  0
   36.5530   21.8920   32.3780 C   0  0  0  0  0  3  0  0  0  0  0  0
   42.5760   23.3090   35.3750 O   0  0  0  0  0  0  0  0  0  0  0  0
   43.4900   26.4910   33.9370 C   0  0  0  0  0  0  0  0  0  0  0  0
   42.2200   27.1000   33.8560 C   0  0  0  0  0  0  0  0  0  0  0  0
   41.1160   26.3800   34.3010 C   0  0  0  0  0  0  0  0  0  0  0  0
   41.3780   25.1160   34.7890 N   0  0  0  0  0  0  0  0  0  0  0  0
   42.5780   24.5670   34.8540 C   0  0  0  0  0  0  0  0  0  0  0  0
   43.6550   25.2670   34.4210 N   0  0  0  0  0  0  0  0  0  0  0  0
   44.2700   27.1270   33.5700 H   0  0  0  0  0  0  0  0  0  0  0  0
   41.9690   28.0650   33.4910 H   0  0  0  0  0  0  0  0  0  0  0  0
   39.4530   26.9650   32.0100 F   0  0  0  0  0  0  0  0  0  0  0  0
   38.9520   27.1020   33.2400 C   0  0  0  0  0  0  0  0  0  0  0  0
   39.7530   26.8210   34.3030 C   0  0  0  0  0  0  0  0  0  0  0  0
   39.1240   27.0010   35.5240 C   0  0  0  0  0  0  0  0  0  0  0  0
   37.8190   27.4200   35.6530 C   0  0  0  0  0  0  0  0  0  0  0  0
   37.0520   27.6910   34.5470 C   0  0  0  0  0  0  0  0  0  0  0  0
   37.6430   27.5250   33.3090 C   0  0  0  0  0  0  0  0  0  0  0  0
   39.6030   26.8260   36.4800 H   0  0  0  0  0  0  0  0  0  0  0  0
   37.3210   27.5630   36.6030 H   0  0  0  0  0  0  0  0  0  0  0  0
   36.0350   28.0190   34.6090 H   0  0  0  0  0  0  0  0  0  0  0  0
   37.0580   27.7310   32.4240 H   0  0  0  0  0  0  0  0  0  0  0  0
  1  4  1  0  0  0  0
  1  2  1  0  0  0  0
  1  3  1  0  0  0  0
  4  6  1  0  0  0  0
  5  4  1  0  0  0  0
  7  4  1  0  0  0  0
  7  8  1  0  0  0  0
  8 13  1  0  0  0  0
  9  8  2  0  0  0  0
  9 14  1  0  0  0  0
 10  9  1  0  0  0  0
 11 12  1  0  0  0  0
 11 10  2  0  0  0  0
 12  7  2  0  0  0  0
 15 16  1  0  0  0  0
 16 17  1  0  0  0  0
 17 18  2  0  0  0  0
 17 11  1  0  0  0  0
 18 19  1  0  0  0  0
 20 21  1  0  0  0  0
 20 18  1  0  0  0  0
 22 20  2  0  0  0  0
 23 22  1  0  0  0  0
 23 16  2  0  0  0  0
 24  1  1  0  0  0  0
 25 30  1  0  0  0  0
 26 25  2  0  0  0  0
 26 27  1  0  0  0  0
 27 35  1  0  0  0  0
 27 28  2  0  0  0  0
 28 29  1  0  0  0  0
 29 24  1  0  0  0  0
 30 29  2  0  0  0  0
 31 25  1  0  0  0  0
 32 26  1  0  0  0  0
 33 34  1  0  0  0  0
 34 39  2  0  0  0  0
 34 35  1  0  0  0  0
 35 36  2  0  0  0  0
 36 37  1  0  0  0  0
 36 40  1  0  0  0  0
 37 41  1  0  0  0  0
 38 42  1  0  0  0  0
 38 37  2  0  0  0  0
 39 38  1  0  0  0  0
 43 39  1  0  0  0  0
M  END
>  <minimizedAffinity>
-6.56530333

$$$$

 OpenBabel03272509563D

 43 46  0  0  0  0  0  0  0  0999 V2000
   37.1440   26.2690   33.6360 C   0  0  0  0  0  0  0  0  0  0  0  0
   36.4510   26.6840   34.3960 H   0  0  0  0  0  0  0  0  0  0  0  0
   36.6560   25.3290   33.2590 H   0  0  0  0  0  0  0  0  0  0  0  0
   37.4420   27.2140   32.5060 C   0  0  0  0  0  0  0  0  0  0  0  0
   38.4960   27.5740   32.6710 H   0  0  0  0  0  0  0  0  0  0  0  0
   37.4340   26.7570   31.5100 H   0  0  0  0  0  0  0  0  0  0  0  0
   36.6050   28.4360   32.5560 C   0  0  0  0  0  0  0  0  0  0  0  0
   36.3320   29.0940   31.3720 C   0  0  0  0  0  0  0  0  0  0  0  0
   35.5750   30.2240   31.3050 C   0  0  0  0  0  0  0  0  0  0  0  0
   35.0700   30.7250   32.4350 N   0  0  0  0  0  0  0  0  0  0  0  0
   35.3370   30.0830   33.5980 C   0  0  0  0  0  0  0  0  0  0  0  0
   36.0840   28.9590   33.7030 N   0  0  0  0  0  0  0  0  0  0  0  0
   36.7220   28.7240   30.4130 H   0  0  0  0  0  0  0  0  0  0  0  0
   35.3680   30.7290   30.3680 H   0  0  0  0  0  0  0  0  0  0  0  0
   32.4390   29.3370   34.2040 Cl  0  0  0  0  0  0  0  0  0  0  0  0
   33.4500   30.3850   35.1770 C   0  0  0  0  0  0  0  0  0  0  0  0
   34.7660   30.6640   34.8120 C   0  0  0  0  0  0  0  0  0  0  0  0
   35.5330   31.4930   35.6030 C   0  0  0  0  0  0  0  0  0  0  0  0
   36.5570   31.7200   35.3330 H   0  0  0  0  0  0  0  0  0  0  0  0
   35.0120   32.0580   36.7630 C   0  0  0  0  0  0  0  0  0  0  0  0
   35.6640   32.7000   37.3410 H   0  0  0  0  0  0  0  0  0  0  0  0
   33.7170   31.8090   37.1630 C   0  0  0  0  0  3  0  0  0  0  0  0
   33.0100   30.9820   36.3400 C   0  0  0  0  0  3  0  0  0  0  0  0
   38.3470   25.9280   34.3210 O   0  0  0  0  0  0  0  0  0  0  0  0
   39.2330   22.9700   36.1910 C   0  0  0  0  0  0  0  0  0  0  0  0
   38.5340   21.9920   35.4520 C   0  0  0  0  0  0  0  0  0  0  0  0
   37.7940   22.4050   34.3490 C   0  0  0  0  0  0  0  0  0  0  0  0
   37.8180   23.7590   34.0800 N   0  0  0  0  0  0  0  0  0  0  0  0
   38.4800   24.6560   34.7880 C   0  0  0  0  0  0  0  0  0  0  0  0
   39.2030   24.2550   35.8640 N   0  0  0  0  0  0  0  0  0  0  0  0
   39.7680   22.5490   37.0170 H   0  0  0  0  0  0  0  0  0  0  0  0
   38.4850   20.9440   35.6190 H   0  0  0  0  0  0  0  0  0  0  0  0
   35.5160   20.7670   35.0440 F   0  0  0  0  0  0  0  0  0  0  0  0
   35.9480   20.7920   33.7810 C   0  0  0  0  0  0  0  0  0  0  0  0
   37.0220   21.5700   33.4780 C   0  0  0  0  0  0  0  0  0  0  0  0
   37.3770   21.5150   32.1400 C   0  0  0  0  0  0  0  0  0  0  0  0
   36.7120   20.7500   31.2080 C   0  0  0  0  0  0  0  0  0  0  0  0
   35.6330   19.9810   31.5660 C   0  0  0  0  0  0  0  0  0  0  0  0
   35.2460   20.0080   32.8920 C   0  0  0  0  0  0  0  0  0  0  0  0
   38.2050   22.0670   31.7130 H   0  0  0  0  0  0  0  0  0  0  0  0
   36.9830   20.7010   30.1610 H   0  0  0  0  0  0  0  0  0  0  0  0
   35.0920   19.3740   30.8690 H   0  0  0  0  0  0  0  0  0  0  0  0
   34.3990   19.4110   33.1970 H   0  0  0  0  0  0  0  0  0  0  0  0
  1 24  1  0  0  0  0
  1  2  1  0  0  0  0
  3  1  1  0  0  0  0
  4  7  1  0  0  0  0
  4  5  1  0  0  0  0
  4  1  1  0  0  0  0
  6  4  1  0  0  0  0
  7 12  1  0  0  0  0
  8  7  2  0  0  0  0
  9  8  1  0  0  0  0
  9 10  2  0  0  0  0
 10 11  1  0  0  0  0
 11 12  2  0  0  0  0
 11 17  1  0  0  0  0
 13  8  1  0  0  0  0
 14  9  1  0  0  0  0
 15 16  1  0  0  0  0
 16 23  1  0  0  0  0
 17 16  2  0  0  0  0
 17 18  1  0  0  0  0
 18 20  2  0  0  0  0
 19 18  1  0  0  0  0
 20 22  1  0  0  0  0
 20 21  1  0  0  0  0
 23 22  2  0  0  0  0
 24 29  1  0  0  0  0
 25 31  1  0  0  0  0
 26 32  1  0  0  0  0
 26 25  2  0  0  0  0
 27 26  1  0  0  0  0
 28 27  2  0  0  0  0
 28 29  1  0  0  0  0
 29 30  2  0  0  0  0
 30 25  1  0  0  0  0
 34 33  1  0  0  0  0
 35 34  1  0  0  0  0
 35 27  1  0  0  0  0
 36 35  2  0  0  0  0
 37 38  2  0  0  0  0
 37 36  1  0  0  0  0
 38 39  1  0  0  0  0
 39 43  1  0  0  0  0
 39 34  2  0  0  0  0
 40 36  1  0  0  0  0
 41 37  1  0  0  0  0
 42 38  1  0  0  0  0
M  END
>  <minimizedAffinity>
-6.53193569

$$$$

 OpenBabel03272509563D

 43 46  0  0  0  0  0  0  0  0999 V2000
   36.7390   26.1240   32.5860 C   0  0  0  0  0  0  0  0  0  0  0  0
   36.4260   25.5570   33.4860 H   0  0  0  0  0  0  0  0  0  0  0  0
   35.8070   26.2600   31.9730 H   0  0  0  0  0  0  0  0  0  0  0  0
   37.3820   27.4460   32.8940 C   0  0  0  0  0  0  0  0  0  0  0  0
   37.7600   27.3690   33.9520 H   0  0  0  0  0  0  0  0  0  0  0  0
   38.2570   27.6850   32.2790 H   0  0  0  0  0  0  0  0  0  0  0  0
   36.4040   28.5590   32.9140 C   0  0  0  0  0  0  0  0  0  0  0  0
   36.1140   29.2010   31.7250 C   0  0  0  0  0  0  0  0  0  0  0  0
   35.2320   30.2330   31.6310 C   0  0  0  0  0  0  0  0  0  0  0  0
   34.6140   30.6510   32.7400 N   0  0  0  0  0  0  0  0  0  0  0  0
   34.8960   30.0250   33.9080 C   0  0  0  0  0  0  0  0  0  0  0  0
   35.7670   28.9950   34.0380 N   0  0  0  0  0  0  0  0  0  0  0  0
   36.5940   28.8970   30.7840 H   0  0  0  0  0  0  0  0  0  0  0  0
   35.0140   30.7270   30.6920 H   0  0  0  0  0  0  0  0  0  0  0  0
   36.3600   32.1460   35.5430 Cl  0  0  0  0  0  0  0  0  0  0  0  0
   34.7830   31.4800   35.9100 C   0  0  0  0  0  0  0  0  0  0  0  0
   34.1990   30.5110   35.0960 C   0  0  0  0  0  0  0  0  0  0  0  0
   32.9550   30.0100   35.4160 C   0  0  0  0  0  0  0  0  0  0  0  0
   32.4880   29.2560   34.7940 H   0  0  0  0  0  0  0  0  0  0  0  0
   32.2710   30.4580   36.5420 C   0  0  0  0  0  0  0  0  0  0  0  0
   31.2980   30.0250   36.7390 H   0  0  0  0  0  0  0  0  0  0  0  0
   32.8090   31.4150   37.3750 C   0  0  0  0  0  3  0  0  0  0  0  0
   34.0410   31.8700   37.0060 C   0  0  0  0  0  3  0  0  0  0  0  0
   37.6480   25.2890   31.8730 O   0  0  0  0  0  0  0  0  0  0  0  0
   38.2020   21.7480   32.3050 C   0  0  0  0  0  0  0  0  0  0  0  0
   38.4480   21.7040   33.6940 C   0  0  0  0  0  0  0  0  0  0  0  0
   38.4090   22.8980   34.4070 C   0  0  0  0  0  0  0  0  0  0  0  0
   38.1280   24.0310   33.6700 N   0  0  0  0  0  0  0  0  0  0  0  0
   37.9020   24.0460   32.3680 C   0  0  0  0  0  0  0  0  0  0  0  0
   37.9390   22.8830   31.6720 N   0  0  0  0  0  0  0  0  0  0  0  0
   38.2560   20.7790   31.8520 H   0  0  0  0  0  0  0  0  0  0  0  0
   38.6670   20.8610   34.3020 H   0  0  0  0  0  0  0  0  0  0  0  0
   40.5930   21.8430   35.9800 F   0  0  0  0  0  0  0  0  0  0  0  0
   39.6470   22.5740   36.5730 C   0  0  0  0  0  0  0  0  0  0  0  0
   38.6290   23.0590   35.8130 C   0  0  0  0  0  0  0  0  0  0  0  0
   37.7110   23.8010   36.5380 C   0  0  0  0  0  0  0  0  0  0  0  0
   37.8150   24.0260   37.8920 C   0  0  0  0  0  0  0  0  0  0  0  0
   38.8630   23.5120   38.6160 C   0  0  0  0  0  0  0  0  0  0  0  0
   39.8010   22.7670   37.9290 C   0  0  0  0  0  0  0  0  0  0  0  0
   36.8350   24.2670   36.1040 H   0  0  0  0  0  0  0  0  0  0  0  0
   37.1020   24.6040   38.4660 H   0  0  0  0  0  0  0  0  0  0  0  0
   38.9760   23.6670   39.6690 H   0  0  0  0  0  0  0  0  0  0  0  0
   40.6360   22.3530   38.4770 H   0  0  0  0  0  0  0  0  0  0  0  0
  1  4  1  0  0  0  0
  1  2  1  0  0  0  0
  3  1  1  0  0  0  0
  4  7  1  0  0  0  0
  4  5  1  0  0  0  0
  6  4  1  0  0  0  0
  7 12  1  0  0  0  0
  8  7  2  0  0  0  0
  9  8  1  0  0  0  0
  9 10  2  0  0  0  0
 10 11  1  0  0  0  0
 11 12  2  0  0  0  0
 11 17  1  0  0  0  0
 13  8  1  0  0  0  0
 14  9  1  0  0  0  0
 15 16  1  0  0  0  0
 16 23  1  0  0  0  0
 17 18  1  0  0  0  0
 17 16  2  0  0  0  0
 18 20  2  0  0  0  0
 19 18  1  0  0  0  0
 20 21  1  0  0  0  0
 20 22  1  0  0  0  0
 23 22  2  0  0  0  0
 24 29  1  0  0  0  0
 24  1  1  0  0  0  0
 25 26  1  0  0  0  0
 26 32  1  0  0  0  0
 26 27  2  0  0  0  0
 27 35  1  0  0  0  0
 28 27  1  0  0  0  0
 29 28  2  0  0  0  0
 30 25  2  0  0  0  0
 30 29  1  0  0  0  0
 31 25  1  0  0  0  0
 33 34  1  0  0  0  0
 34 39  1  0  0  0  0
 35 36  1  0  0  0  0
 35 34  2  0  0  0  0
 36 37  2  0  0  0  0
 37 41  1  0  0  0  0
 37 38  1  0  0  0  0
 38 42  1  0  0  0  0
 39 43  1  0  0  0  0
 39 38  2  0  0  0  0
 40 36  1  0  0  0  0
M  END
>  <minimizedAffinity>
-6.49561834

$$$$

 OpenBabel03272509563D

 43 46  0  0  0  0  0  0  0  0999 V2000
   35.6820   21.5360   32.4620 C   0  0  0  0  0  0  0  0  0  0  0  0
   35.8680   22.1130   33.3900 H   0  0  0  0  0  0  0  0  0  0  0  0
   34.7410   20.9510   32.6520 H   0  0  0  0  0  0  0  0  0  0  0  0
   35.5510   22.3880   31.2320 C   0  0  0  0  0  0  0  0  0  0  0  0
   36.3830   22.0680   30.5430 H   0  0  0  0  0  0  0  0  0  0  0  0
   34.6230   22.2430   30.6690 H   0  0  0  0  0  0  0  0  0  0  0  0
   35.8090   23.8210   31.5070 C   0  0  0  0  0  0  0  0  0  0  0  0
   35.1500   24.7650   30.7440 C   0  0  0  0  0  0  0  0  0  0  0  0
   35.3140   26.1070   30.9130 C   0  0  0  0  0  0  0  0  0  0  0  0
   36.1510   26.5350   31.8610 N   0  0  0  0  0  0  0  0  0  0  0  0
   36.7990   25.6120   32.6120 C   0  0  0  0  0  0  0  0  0  0  0  0
   36.6610   24.2720   32.4720 N   0  0  0  0  0  0  0  0  0  0  0  0
   34.4500   24.4670   29.9500 H   0  0  0  0  0  0  0  0  0  0  0  0
   34.7900   26.8360   30.3070 H   0  0  0  0  0  0  0  0  0  0  0  0
   39.7720   25.0910   32.1520 Cl  0  0  0  0  0  0  0  0  0  0  0  0
   39.0810   25.9370   33.5220 C   0  0  0  0  0  0  0  0  0  0  0  0
   37.7050   26.1220   33.6380 C   0  0  0  0  0  0  0  0  0  0  0  0
   37.1970   26.7940   34.7310 C   0  0  0  0  0  0  0  0  0  0  0  0
   36.1290   26.9460   34.8360 H   0  0  0  0  0  0  0  0  0  0  0  0
   38.0390   27.2890   35.7210 C   0  0  0  0  0  0  0  0  0  0  0  0
   37.5790   27.8070   36.5530 H   0  0  0  0  0  0  0  0  0  0  0  0
   39.4060   27.1290   35.6480 C   0  0  0  0  0  3  0  0  0  0  0  0
   39.8460   26.4580   34.5450 C   0  0  0  0  0  3  0  0  0  0  0  0
   36.7720   20.6290   32.3190 O   0  0  0  0  0  0  0  0  0  0  0  0
   40.2920   21.3980   32.5480 C   0  0  0  0  0  0  0  0  0  0  0  0
   40.3350   21.9800   33.8330 C   0  0  0  0  0  0  0  0  0  0  0  0
   39.1470   22.0770   34.5520 C   0  0  0  0  0  0  0  0  0  0  0  0
   38.0210   21.5820   33.9240 N   0  0  0  0  0  0  0  0  0  0  0  0
   38.0070   21.0420   32.7180 C   0  0  0  0  0  0  0  0  0  0  0  0
   39.1640   20.9470   32.0170 N   0  0  0  0  0  0  0  0  0  0  0  0
   41.2560   21.3730   32.0820 H   0  0  0  0  0  0  0  0  0  0  0  0
   41.1720   22.3730   34.3560 H   0  0  0  0  0  0  0  0  0  0  0  0
   40.8690   21.7080   36.8440 F   0  0  0  0  0  0  0  0  0  0  0  0
   39.7800   22.4720   36.9540 C   0  0  0  0  0  0  0  0  0  0  0  0
   38.9850   22.6310   35.8620 C   0  0  0  0  0  0  0  0  0  0  0  0
   37.8880   23.4430   36.0990 C   0  0  0  0  0  0  0  0  0  0  0  0
   37.6260   24.0320   37.3150 C   0  0  0  0  0  0  0  0  0  0  0  0
   38.4610   23.8400   38.3880 C   0  0  0  0  0  0  0  0  0  0  0  0
   39.5680   23.0360   38.1930 C   0  0  0  0  0  0  0  0  0  0  0  0
   37.1440   23.6840   35.3490 H   0  0  0  0  0  0  0  0  0  0  0  0
   36.7710   24.6680   37.5080 H   0  0  0  0  0  0  0  0  0  0  0  0
   38.2900   24.2820   39.3480 H   0  0  0  0  0  0  0  0  0  0  0  0
   40.2400   22.8700   39.0230 H   0  0  0  0  0  0  0  0  0  0  0  0
  1  3  1  0  0  0  0
  1  2  1  0  0  0  0
  4  7  1  0  0  0  0
  4  1  1  0  0  0  0
  5  4  1  0  0  0  0
  6  4  1  0  0  0  0
  7 12  1  0  0  0  0
  8  9  1  0  0  0  0
  8  7  2  0  0  0  0
  9 10  2  0  0  0  0
 10 11  1  0  0  0  0
 11 17  1  0  0  0  0
 12 11  2  0  0  0  0
 13  8  1  0  0  0  0
 14  9  1  0  0  0  0
 15 16  1  0  0  0  0
 16 17  2  0  0  0  0
 16 23  1  0  0  0  0
 17 18  1  0  0  0  0
 18 19  1  0  0  0  0
 18 20  2  0  0  0  0
 20 21  1  0  0  0  0
 22 20  1  0  0  0  0
 23 22  2  0  0  0  0
 24  1  1  0  0  0  0
 24 29  1  0  0  0  0
 25 26  1  0  0  0  0
 26 32  1  0  0  0  0
 26 27  2  0  0  0  0
 27 35  1  0  0  0  0
 28 27  1  0  0  0  0
 29 28  2  0  0  0  0
 30 25  2  0  0  0  0
 30 29  1  0  0  0  0
 31 25  1  0  0  0  0
 33 34  1  0  0  0  0
 34 39  1  0  0  0  0
 35 36  1  0  0  0  0
 35 34  2  0  0  0  0
 36 37  2  0  0  0  0
 37 41  1  0  0  0  0
 37 38  1  0  0  0  0
 38 42  1  0  0  0  0
 39 38  2  0  0  0  0
 39 43  1  0  0  0  0
 40 36  1  0  0  0  0
M  END
>  <minimizedAffinity>
-6.44972801

$$$$

 OpenBabel03272509563D

 43 46  0  0  0  0  0  0  0  0999 V2000
   37.6070   26.5080   32.4810 C   0  0  0  0  0  0  0  0  0  0  0  0
   38.1030   26.3590   33.4610 H   0  0  0  0  0  0  0  0  0  0  0  0
   38.2450   27.2480   31.9250 H   0  0  0  0  0  0  0  0  0  0  0  0
   37.4310   25.2430   31.6900 C   0  0  0  0  0  0  0  0  0  0  0  0
   36.3620   25.2430   31.3360 H   0  0  0  0  0  0  0  0  0  0  0  0
   38.0460   25.1770   30.7860 H   0  0  0  0  0  0  0  0  0  0  0  0
   37.5580   24.0290   32.5310 C   0  0  0  0  0  0  0  0  0  0  0  0
   36.7460   22.9470   32.2500 C   0  0  0  0  0  0  0  0  0  0  0  0
   36.7800   21.7850   32.9580 C   0  0  0  0  0  0  0  0  0  0  0  0
   37.6400   21.6800   33.9750 N   0  0  0  0  0  0  0  0  0  0  0  0
   38.4380   22.7380   34.2540 C   0  0  0  0  0  0  0  0  0  0  0  0
   38.4310   23.9090   33.5720 N   0  0  0  0  0  0  0  0  0  0  0  0
   36.0210   22.9810   31.4230 H   0  0  0  0  0  0  0  0  0  0  0  0
   36.1370   20.9450   32.7250 H   0  0  0  0  0  0  0  0  0  0  0  0
   37.3630   23.5310   36.9990 Cl  0  0  0  0  0  0  0  0  0  0  0  0
   38.9690   22.9170   36.6680 C   0  0  0  0  0  0  0  0  0  0  0  0
   39.3630   22.5830   35.3740 C   0  0  0  0  0  0  0  0  0  0  0  0
   40.6360   22.1010   35.1510 C   0  0  0  0  0  0  0  0  0  0  0  0
   40.9580   21.8370   34.1510 H   0  0  0  0  0  0  0  0  0  0  0  0
   41.5360   21.9440   36.2010 C   0  0  0  0  0  0  0  0  0  0  0  0
   42.5200   21.5610   35.9600 H   0  0  0  0  0  0  0  0  0  0  0  0
   41.1890   22.2610   37.4960 C   0  0  0  0  0  3  0  0  0  0  0  0
   39.9190   22.7310   37.6520 C   0  0  0  0  0  3  0  0  0  0  0  0
   36.3380   27.0990   32.7520 O   0  0  0  0  0  0  0  0  0  0  0  0
   36.3860   30.4900   31.5150 C   0  0  0  0  0  0  0  0  0  0  0  0
   35.8050   31.1610   32.6130 C   0  0  0  0  0  0  0  0  0  0  0  0
   35.4280   30.4080   33.7200 C   0  0  0  0  0  0  0  0  0  0  0  0
   35.6640   29.0510   33.6340 N   0  0  0  0  0  0  0  0  0  0  0  0
   36.2090   28.4450   32.5940 C   0  0  0  0  0  0  0  0  0  0  0  0
   36.5780   29.1780   31.5140 N   0  0  0  0  0  0  0  0  0  0  0  0
   36.6380   31.1590   30.7180 H   0  0  0  0  0  0  0  0  0  0  0  0
   35.6040   32.1980   32.7250 H   0  0  0  0  0  0  0  0  0  0  0  0
   36.6850   31.9720   35.8010 F   0  0  0  0  0  0  0  0  0  0  0  0
   35.3980   31.6380   35.9150 C   0  0  0  0  0  0  0  0  0  0  0  0
   34.8280   30.9010   34.9230 C   0  0  0  0  0  0  0  0  0  0  0  0
   33.4920   30.6170   35.1530 C   0  0  0  0  0  0  0  0  0  0  0  0
   32.8070   31.0360   36.2710 C   0  0  0  0  0  0  0  0  0  0  0  0
   33.4290   31.7780   37.2440 C   0  0  0  0  0  0  0  0  0  0  0  0
   34.7620   32.0830   37.0530 C   0  0  0  0  0  0  0  0  0  0  0  0
   32.8730   30.0420   34.4750 H   0  0  0  0  0  0  0  0  0  0  0  0
   31.7630   30.8170   36.4580 H   0  0  0  0  0  0  0  0  0  0  0  0
   32.9280   32.1210   38.1260 H   0  0  0  0  0  0  0  0  0  0  0  0
   35.2730   32.6670   37.8050 H   0  0  0  0  0  0  0  0  0  0  0  0
  1 24  1  0  0  0  0
  1  2  1  0  0  0  0
  3  1  1  0  0  0  0
  4  1  1  0  0  0  0
  4  7  1  0  0  0  0
  5  4  1  0  0  0  0
  6  4  1  0  0  0  0
  7 12  1  0  0  0  0
  8  7  2  0  0  0  0
  8  9  1  0  0  0  0
  9 10  2  0  0  0  0
 10 11  1  0  0  0  0
 11 17  1  0  0  0  0
 12 11  2  0  0  0  0
 13  8  1  0  0  0  0
 14  9  1  0  0  0  0
 16 15  1  0  0  0  0
 16 23  1  0  0  0  0
 17 16  2  0  0  0  0
 18 17  1  0  0  0  0
 18 20  2  0  0  0  0
 19 18  1  0  0  0  0
 20 22  1  0  0  0  0
 21 20  1  0  0  0  0
 22 23  2  0  0  0  0
 25 26  1  0  0  0  0
 26 32  1  0  0  0  0
 26 27  2  0  0  0  0
 27 35  1  0  0  0  0
 28 27  1  0  0  0  0
 29 24  1  0  0  0  0
 29 28  2  0  0  0  0
 30 25  2  0  0  0  0
 30 29  1  0  0  0  0
 31 25  1  0  0  0  0
 33 34  1  0  0  0  0
 34 39  1  0  0  0  0
 35 36  1  0  0  0  0
 35 34  2  0  0  0  0
 36 37  2  0  0  0  0
 37 41  1  0  0  0  0
 37 38  1  0  0  0  0
 38 42  1  0  0  0  0
 39 38  2  0  0  0  0
 39 43  1  0  0  0  0
 40 36  1  0  0  0  0
M  END
>  <minimizedAffinity>
-6.35180521

$$$$

 OpenBabel03272509563D

 43 46  0  0  0  0  0  0  0  0999 V2000
   37.0470   26.7130   34.7970 C   0  0  0  0  0  0  0  0  0  0  0  0
   36.5150   25.7410   34.7500 H   0  0  0  0  0  0  0  0  0  0  0  0
   36.3400   27.4230   35.3060 H   0  0  0  0  0  0  0  0  0  0  0  0
   38.3640   26.6510   35.5190 C   0  0  0  0  0  0  0  0  0  0  0  0
   39.1570   26.7880   34.7310 H   0  0  0  0  0  0  0  0  0  0  0  0
   38.5250   27.4510   36.2500 H   0  0  0  0  0  0  0  0  0  0  0  0
   38.6270   25.3130   36.1000 C   0  0  0  0  0  0  0  0  0  0  0  0
   37.7770   24.8460   37.0850 C   0  0  0  0  0  0  0  0  0  0  0  0
   37.9270   23.6330   37.6850 C   0  0  0  0  0  0  0  0  0  0  0  0
   38.9440   22.8530   37.3080 N   0  0  0  0  0  0  0  0  0  0  0  0
   39.7790   23.3080   36.3430 C   0  0  0  0  0  0  0  0  0  0  0  0
   39.6610   24.5070   35.7240 N   0  0  0  0  0  0  0  0  0  0  0  0
   36.9240   25.4480   37.4320 H   0  0  0  0  0  0  0  0  0  0  0  0
   37.2520   23.2800   38.4550 H   0  0  0  0  0  0  0  0  0  0  0  0
   39.9300   22.5670   33.3860 Cl  0  0  0  0  0  0  0  0  0  0  0  0
   41.0350   22.0270   34.6330 C   0  0  0  0  0  0  0  0  0  0  0  0
   40.8780   22.4240   35.9590 C   0  0  0  0  0  0  0  0  0  0  0  0
   41.7670   21.9800   36.9150 C   0  0  0  0  0  0  0  0  0  0  0  0
   41.6590   22.2790   37.9510 H   0  0  0  0  0  0  0  0  0  0  0  0
   42.8220   21.1380   36.5740 C   0  0  0  0  0  0  0  0  0  0  0  0
   43.4860   20.8240   37.3700 H   0  0  0  0  0  0  0  0  0  0  0  0
   43.0160   20.7200   35.2750 C   0  0  0  0  0  3  0  0  0  0  0  0
   42.1040   21.1930   34.3780 C   0  0  0  0  0  3  0  0  0  0  0  0
   37.2440   27.1370   33.4510 O   0  0  0  0  0  0  0  0  0  0  0  0
   35.8040   29.8100   31.4980 C   0  0  0  0  0  0  0  0  0  0  0  0
   35.1750   30.5520   32.5210 C   0  0  0  0  0  0  0  0  0  0  0  0
   35.2800   30.0900   33.8290 C   0  0  0  0  0  0  0  0  0  0  0  0
   36.0060   28.9280   34.0010 N   0  0  0  0  0  0  0  0  0  0  0  0
   36.5860   28.2510   33.0250 C   0  0  0  0  0  0  0  0  0  0  0  0
   36.4840   28.7000   31.7500 N   0  0  0  0  0  0  0  0  0  0  0  0
   35.6620   30.2500   30.5320 H   0  0  0  0  0  0  0  0  0  0  0  0
   34.6080   31.4460   32.4390 H   0  0  0  0  0  0  0  0  0  0  0  0
   36.6240   31.7650   35.7640 F   0  0  0  0  0  0  0  0  0  0  0  0
   35.3270   31.4880   35.9190 C   0  0  0  0  0  0  0  0  0  0  0  0
   34.7170   30.6980   34.9960 C   0  0  0  0  0  0  0  0  0  0  0  0
   33.3740   30.4810   35.2640 C   0  0  0  0  0  0  0  0  0  0  0  0
   32.7220   31.0120   36.3540 C   0  0  0  0  0  0  0  0  0  0  0  0
   33.3840   31.8040   37.2580 C   0  0  0  0  0  0  0  0  0  0  0  0
   34.7250   32.0450   37.0270 C   0  0  0  0  0  0  0  0  0  0  0  0
   32.7250   29.8780   34.6410 H   0  0  0  0  0  0  0  0  0  0  0  0
   31.6740   30.8470   36.5700 H   0  0  0  0  0  0  0  0  0  0  0  0
   32.9090   32.2340   38.1160 H   0  0  0  0  0  0  0  0  0  0  0  0
   35.2680   32.6660   37.7240 H   0  0  0  0  0  0  0  0  0  0  0  0
  1  3  1  0  0  0  0
  1  4  1  0  0  0  0
  2  1  1  0  0  0  0
  4  7  1  0  0  0  0
  4  6  1  0  0  0  0
  5  4  1  0  0  0  0
  7  8  1  0  0  0  0
  8 13  1  0  0  0  0
  8  9  2  0  0  0  0
  9 14  1  0  0  0  0
 10  9  1  0  0  0  0
 11 10  2  0  0  0  0
 12  7  2  0  0  0  0
 12 11  1  0  0  0  0
 15 16  1  0  0  0  0
 16 17  1  0  0  0  0
 17 11  1  0  0  0  0
 17 18  2  0  0  0  0
 18 19  1  0  0  0  0
 20 18  1  0  0  0  0
 20 21  1  0  0  0  0
 22 20  2  0  0  0  0
 23 16  2  0  0  0  0
 23 22  1  0  0  0  0
 24  1  1  0  0  0  0
 25 30  2  0  0  0  0
 25 26  1  0  0  0  0
 26 27  2  0  0  0  0
 27 28  1  0  0  0  0
 27 35  1  0  0  0  0
 29 24  1  0  0  0  0
 29 28  2  0  0  0  0
 30 29  1  0  0  0  0
 31 25  1  0  0  0  0
 32 26  1  0  0  0  0
 33 34  1  0  0  0  0
 34 39  1  0  0  0  0
 35 36  1  0  0  0  0
 35 34  2  0  0  0  0
 36 37  2  0  0  0  0
 37 41  1  0  0  0  0
 37 38  1  0  0  0  0
 38 42  1  0  0  0  0
 39 38  2  0  0  0  0
 39 43  1  0  0  0  0
 40 36  1  0  0  0  0
M  END
>  <minimizedAffinity>
-6.31220436

$$$$
