
 OpenBabel03262521383D

 28 30  0  0  0  0  0  0  0  0999 V2000
   38.0090   23.4300   34.0200 F   0  0  0  0  0  0  0  0  0  0  0  0
   38.6490   24.6410   34.0080 C   0  0  0  0  0  0  0  0  0  0  0  0
   38.2390   25.6870   33.2030 C   0  0  0  0  0  0  0  0  0  0  0  0
   38.9170   26.8890   33.2250 C   0  0  0  0  0  0  0  0  0  0  0  0
   40.0250   27.0630   34.0620 C   0  0  0  0  0  0  0  0  0  0  0  0
   40.3980   25.9850   34.8500 C   0  0  0  0  0  0  0  0  0  0  0  0
   39.7430   24.7840   34.8450 C   0  0  0  0  0  0  0  0  0  0  0  0
   38.6000   27.6990   32.6020 H   0  0  0  0  0  0  0  0  0  0  0  0
   40.5370   28.0160   34.0580 H   0  0  0  0  0  0  0  0  0  0  0  0
   41.2650   26.2060   35.4670 H   0  0  0  0  0  0  0  0  0  0  0  0
   36.3740   26.5810   31.9990 C   0  0  0  0  0  0  0  0  0  0  0  0
   37.0990   25.4330   32.3750 C   0  0  0  0  0  0  0  0  0  0  0  0
   36.6330   24.1990   31.9090 C   0  0  0  0  0  0  0  0  0  0  0  0
   35.5160   24.1720   31.1240 N   0  0  0  0  0  0  0  0  0  0  0  0
   34.8540   25.2850   30.7870 C   0  0  0  0  0  0  0  0  0  0  0  0
   35.2760   26.4790   31.2180 N   0  0  0  0  0  0  0  0  0  0  0  0
   36.6500   27.5840   32.3060 H   0  0  0  0  0  0  0  0  0  0  0  0
   37.2030   23.3650   32.2120 H   0  0  0  0  0  0  0  0  0  0  0  0
   33.9680   25.2690   30.1650 H   0  0  0  0  0  0  0  0  0  0  0  0
   38.1430   24.5270   37.2950 Cl  0  0  0  0  0  0  0  0  0  0  0  0
   39.5540   23.5590   36.9070 C   0  0  0  0  0  0  0  0  0  0  0  0
   40.2490   23.7510   35.7230 C   0  0  0  0  0  0  0  0  0  0  0  0
   41.3500   22.9620   35.4670 C   0  0  0  0  0  0  0  0  0  0  0  0
   41.8720   23.1380   34.5330 H   0  0  0  0  0  0  0  0  0  0  0  0
   41.8160   21.9850   36.3160 C   0  0  0  0  0  0  0  0  0  0  0  0
   42.6810   21.3760   36.1010 H   0  0  0  0  0  0  0  0  0  0  0  0
   41.0990   21.8080   37.5050 C   0  0  0  0  0  3  0  0  0  0  0  0
   39.9950   22.5930   37.7700 C   0  0  0  0  0  3  0  0  0  0  0  0
  2  1  1  0  0  0  0
  2  7  1  0  0  0  0
  3  4  1  0  0  0  0
  3  2  2  0  0  0  0
  4  5  2  0  0  0  0
  5  6  1  0  0  0  0
  6 10  1  0  0  0  0
  7  6  2  0  0  0  0
  7 22  1  0  0  0  0
  8  4  1  0  0  0  0
  9  5  1  0  0  0  0
 11 17  1  0  0  0  0
 11 12  1  0  0  0  0
 12  3  1  0  0  0  0
 13 18  1  0  0  0  0
 13 12  2  0  0  0  0
 14 13  1  0  0  0  0
 15 14  2  0  0  0  0
 15 16  1  0  0  0  0
 16 11  2  0  0  0  0
 19 15  1  0  0  0  0
 21 20  1  0  0  0  0
 21 28  1  0  0  0  0
 22 21  2  0  0  0  0
 23 22  1  0  0  0  0
 23 25  2  0  0  0  0
 24 23  1  0  0  0  0
 25 27  1  0  0  0  0
 26 25  1  0  0  0  0
 27 28  2  0  0  0  0
M  END
>  <minimizedAffinity>
-5.53480244

$$$$

 OpenBabel03262521383D

 28 30  0  0  0  0  0  0  0  0999 V2000
   36.0980   28.0350   34.7750 F   0  0  0  0  0  0  0  0  0  0  0  0
   36.1630   28.7740   33.6230 C   0  0  0  0  0  0  0  0  0  0  0  0
   36.7170   28.2810   32.4570 C   0  0  0  0  0  0  0  0  0  0  0  0
   36.7600   29.0640   31.3210 C   0  0  0  0  0  0  0  0  0  0  0  0
   36.2420   30.3640   31.3370 C   0  0  0  0  0  0  0  0  0  0  0  0
   35.6970   30.8140   32.5290 C   0  0  0  0  0  0  0  0  0  0  0  0
   35.6440   30.0580   33.6670 C   0  0  0  0  0  0  0  0  0  0  0  0
   37.1880   28.6830   30.4180 H   0  0  0  0  0  0  0  0  0  0  0  0
   36.2890   30.9560   30.4310 H   0  0  0  0  0  0  0  0  0  0  0  0
   35.3200   31.8310   32.4530 H   0  0  0  0  0  0  0  0  0  0  0  0
   36.3580   25.9580   32.0080 C   0  0  0  0  0  0  0  0  0  0  0  0
   37.2250   26.9440   32.5190 C   0  0  0  0  0  0  0  0  0  0  0  0
   38.4590   26.5160   33.0210 C   0  0  0  0  0  0  0  0  0  0  0  0
   38.7550   25.1830   32.9890 N   0  0  0  0  0  0  0  0  0  0  0  0
   37.9050   24.2750   32.4950 C   0  0  0  0  0  0  0  0  0  0  0  0
   36.7180   24.6550   32.0070 N   0  0  0  0  0  0  0  0  0  0  0  0
   35.3810   26.1830   31.5950 H   0  0  0  0  0  0  0  0  0  0  0  0
   39.0780   27.2840   33.3940 H   0  0  0  0  0  0  0  0  0  0  0  0
   38.1350   23.2180   32.4670 H   0  0  0  0  0  0  0  0  0  0  0  0
   32.8030   29.3670   33.9430 Cl  0  0  0  0  0  0  0  0  0  0  0  0
   33.7020   30.3910   35.0470 C   0  0  0  0  0  0  0  0  0  0  0  0
   35.0440   30.6630   34.8370 C   0  0  0  0  0  0  0  0  0  0  0  0
   35.7040   31.4740   35.7370 C   0  0  0  0  0  0  0  0  0  0  0  0
   36.7530   31.6680   35.5430 H   0  0  0  0  0  0  0  0  0  0  0  0
   35.1150   32.0410   36.8430 C   0  0  0  0  0  0  0  0  0  0  0  0
   35.6460   32.6750   37.5370 H   0  0  0  0  0  0  0  0  0  0  0  0
   33.7600   31.7530   37.0360 C   0  0  0  0  0  3  0  0  0  0  0  0
   33.0900   30.9420   36.1410 C   0  0  0  0  0  3  0  0  0  0  0  0
  2  7  1  0  0  0  0
  2  1  1  0  0  0  0
  3 12  1  0  0  0  0
  3  2  2  0  0  0  0
  4  5  2  0  0  0  0
  4  3  1  0  0  0  0
  5  6  1  0  0  0  0
  6  7  2  0  0  0  0
  7 22  1  0  0  0  0
  8  4  1  0  0  0  0
  9  5  1  0  0  0  0
 10  6  1  0  0  0  0
 11 12  1  0  0  0  0
 12 13  2  0  0  0  0
 13 18  1  0  0  0  0
 14 13  1  0  0  0  0
 15 14  2  0  0  0  0
 16 11  2  0  0  0  0
 16 15  1  0  0  0  0
 17 11  1  0  0  0  0
 19 15  1  0  0  0  0
 20 21  1  0  0  0  0
 21 28  1  0  0  0  0
 22 21  2  0  0  0  0
 22 23  1  0  0  0  0
 23 25  2  0  0  0  0
 24 23  1  0  0  0  0
 25 27  1  0  0  0  0
 25 26  1  0  0  0  0
 28 27  2  0  0  0  0
M  END
>  <minimizedAffinity>
-5.53088617

$$$$

 OpenBabel03262521383D

 28 30  0  0  0  0  0  0  0  0999 V2000
   37.6660   23.0810   33.3510 F   0  0  0  0  0  0  0  0  0  0  0  0
   36.8780   23.8470   32.5320 C   0  0  0  0  0  0  0  0  0  0  0  0
   36.0350   23.2940   31.5870 C   0  0  0  0  0  0  0  0  0  0  0  0
   35.2610   24.1070   30.7840 C   0  0  0  0  0  0  0  0  0  0  0  0
   35.3190   25.4990   30.9190 C   0  0  0  0  0  0  0  0  0  0  0  0
   36.1790   26.0060   31.8800 C   0  0  0  0  0  0  0  0  0  0  0  0
   36.9570   25.2210   32.6870 C   0  0  0  0  0  0  0  0  0  0  0  0
   34.6080   23.6790   30.0520 H   0  0  0  0  0  0  0  0  0  0  0  0
   34.7010   26.1120   30.2750 H   0  0  0  0  0  0  0  0  0  0  0  0
   36.1630   27.0920   31.9160 H   0  0  0  0  0  0  0  0  0  0  0  0
   34.9990   21.2370   32.2350 C   0  0  0  0  0  0  0  0  0  0  0  0
   36.0300   21.8640   31.5090 C   0  0  0  0  0  0  0  0  0  0  0  0
   36.9160   21.0380   30.8080 C   0  0  0  0  0  0  0  0  0  0  0  0
   36.7370   19.6860   30.8640 N   0  0  0  0  0  0  0  0  0  0  0  0
   35.7450   19.1250   31.5650 C   0  0  0  0  0  0  0  0  0  0  0  0
   34.8820   19.8900   32.2440 N   0  0  0  0  0  0  0  0  0  0  0  0
   34.2600   21.7830   32.8110 H   0  0  0  0  0  0  0  0  0  0  0  0
   37.6730   21.5470   30.2780 H   0  0  0  0  0  0  0  0  0  0  0  0
   35.5990   18.0540   31.6120 H   0  0  0  0  0  0  0  0  0  0  0  0
   39.6640   25.6770   31.6440 Cl  0  0  0  0  0  0  0  0  0  0  0  0
   39.1060   26.1510   33.2380 C   0  0  0  0  0  0  0  0  0  0  0  0
   37.8070   25.8940   33.6450 C   0  0  0  0  0  0  0  0  0  0  0  0
   37.4190   26.2900   34.9080 C   0  0  0  0  0  0  0  0  0  0  0  0
   36.3960   26.0730   35.1970 H   0  0  0  0  0  0  0  0  0  0  0  0
   38.2430   26.9280   35.8060 C   0  0  0  0  0  0  0  0  0  0  0  0
   37.9230   27.2300   36.7920 H   0  0  0  0  0  0  0  0  0  0  0  0
   39.5500   27.1780   35.3740 C   0  0  0  0  0  3  0  0  0  0  0  0
   39.9480   26.7870   34.1110 C   0  0  0  0  0  3  0  0  0  0  0  0
  2  7  1  0  0  0  0
  2  1  1  0  0  0  0
  3  2  2  0  0  0  0
  4  5  2  0  0  0  0
  4  3  1  0  0  0  0
  5  6  1  0  0  0  0
  6 10  1  0  0  0  0
  6  7  2  0  0  0  0
  7 22  1  0  0  0  0
  8  4  1  0  0  0  0
  9  5  1  0  0  0  0
 11 16  1  0  0  0  0
 11 17  1  0  0  0  0
 12  3  1  0  0  0  0
 12 11  2  0  0  0  0
 13 14  2  0  0  0  0
 13 12  1  0  0  0  0
 14 15  1  0  0  0  0
 15 19  1  0  0  0  0
 15 16  2  0  0  0  0
 18 13  1  0  0  0  0
 20 21  1  0  0  0  0
 21 22  2  0  0  0  0
 21 28  1  0  0  0  0
 22 23  1  0  0  0  0
 23 24  1  0  0  0  0
 23 25  2  0  0  0  0
 25 26  1  0  0  0  0
 27 25  1  0  0  0  0
 28 27  2  0  0  0  0
M  END
>  <minimizedAffinity>
-5.35272408

$$$$

 OpenBabel03262521383D

 28 30  0  0  0  0  0  0  0  0999 V2000
   35.5970   28.1040   34.8240 F   0  0  0  0  0  0  0  0  0  0  0  0
   35.6950   28.9810   33.7760 C   0  0  0  0  0  0  0  0  0  0  0  0
   36.4090   28.6870   32.6300 C   0  0  0  0  0  0  0  0  0  0  0  0
   36.4800   29.6040   31.6000 C   0  0  0  0  0  0  0  0  0  0  0  0
   35.8300   30.8390   31.7040 C   0  0  0  0  0  0  0  0  0  0  0  0
   35.1270   31.0870   32.8730 C   0  0  0  0  0  0  0  0  0  0  0  0
   35.0430   30.1960   33.9070 C   0  0  0  0  0  0  0  0  0  0  0  0
   37.0320   29.3770   30.7120 H   0  0  0  0  0  0  0  0  0  0  0  0
   35.9030   31.5380   30.8810 H   0  0  0  0  0  0  0  0  0  0  0  0
   34.6550   32.0660   32.8700 H   0  0  0  0  0  0  0  0  0  0  0  0
   38.3930   27.4040   33.0100 C   0  0  0  0  0  0  0  0  0  0  0  0
   37.0460   27.4060   32.5970 C   0  0  0  0  0  0  0  0  0  0  0  0
   36.4920   26.1810   32.2070 C   0  0  0  0  0  0  0  0  0  0  0  0
   37.2750   25.0630   32.2480 N   0  0  0  0  0  0  0  0  0  0  0  0
   38.5520   25.1000   32.6470 C   0  0  0  0  0  0  0  0  0  0  0  0
   39.1080   26.2570   33.0260 N   0  0  0  0  0  0  0  0  0  0  0  0
   38.9160   28.2970   33.3320 H   0  0  0  0  0  0  0  0  0  0  0  0
   35.4830   26.2250   31.9050 H   0  0  0  0  0  0  0  0  0  0  0  0
   39.1770   24.2170   32.6820 H   0  0  0  0  0  0  0  0  0  0  0  0
   36.4950   32.1030   35.6030 Cl  0  0  0  0  0  0  0  0  0  0  0  0
   34.8800   31.4960   35.9240 C   0  0  0  0  0  0  0  0  0  0  0  0
   34.2720   30.5960   35.0650 C   0  0  0  0  0  0  0  0  0  0  0  0
   33.0010   30.1510   35.3630 C   0  0  0  0  0  0  0  0  0  0  0  0
   32.5540   29.4460   34.6710 H   0  0  0  0  0  0  0  0  0  0  0  0
   32.2850   30.5430   36.4700 C   0  0  0  0  0  0  0  0  0  0  0  0
   31.2910   30.1840   36.6890 H   0  0  0  0  0  0  0  0  0  0  0  0
   32.9180   31.4530   37.3240 C   0  0  0  0  0  3  0  0  0  0  0  0
   34.1900   31.9050   37.0330 C   0  0  0  0  0  3  0  0  0  0  0  0
  2  7  1  0  0  0  0
  2  1  1  0  0  0  0
  3  2  2  0  0  0  0
  4  5  2  0  0  0  0
  4  3  1  0  0  0  0
  5  6  1  0  0  0  0
  6  7  2  0  0  0  0
  7 22  1  0  0  0  0
  8  4  1  0  0  0  0
  9  5  1  0  0  0  0
 10  6  1  0  0  0  0
 11 16  1  0  0  0  0
 11 17  1  0  0  0  0
 12  3  1  0  0  0  0
 12 11  2  0  0  0  0
 13 14  2  0  0  0  0
 13 12  1  0  0  0  0
 14 15  1  0  0  0  0
 15 19  1  0  0  0  0
 15 16  2  0  0  0  0
 18 13  1  0  0  0  0
 20 21  1  0  0  0  0
 21 28  1  0  0  0  0
 22 23  1  0  0  0  0
 22 21  2  0  0  0  0
 23 25  2  0  0  0  0
 24 23  1  0  0  0  0
 25 26  1  0  0  0  0
 25 27  1  0  0  0  0
 28 27  2  0  0  0  0
M  END
>  <minimizedAffinity>
-5.19631672

$$$$

 OpenBabel03262521383D

 28 30  0  0  0  0  0  0  0  0999 V2000
   35.3390   28.2050   34.2750 F   0  0  0  0  0  0  0  0  0  0  0  0
   35.7130   28.9980   33.2220 C   0  0  0  0  0  0  0  0  0  0  0  0
   35.6600   30.3770   33.2780 C   0  0  0  0  0  0  0  0  0  0  0  0
   36.0480   31.1340   32.1910 C   0  0  0  0  0  0  0  0  0  0  0  0
   36.5000   30.5140   31.0210 C   0  0  0  0  0  0  0  0  0  0  0  0
   36.5350   29.1280   31.0120 C   0  0  0  0  0  0  0  0  0  0  0  0
   36.1550   28.3570   32.0760 C   0  0  0  0  0  0  0  0  0  0  0  0
   36.0070   32.2020   32.2340 H   0  0  0  0  0  0  0  0  0  0  0  0
   36.7970   31.1320   30.1830 H   0  0  0  0  0  0  0  0  0  0  0  0
   36.8970   28.7300   30.0670 H   0  0  0  0  0  0  0  0  0  0  0  0
   33.7910   31.1110   34.5810 C   0  0  0  0  0  0  0  0  0  0  0  0
   35.1880   30.9380   34.5080 C   0  0  0  0  0  0  0  0  0  0  0  0
   35.9420   31.3260   35.6210 C   0  0  0  0  0  0  0  0  0  0  0  0
   35.2940   31.8440   36.7060 N   0  0  0  0  0  0  0  0  0  0  0  0
   33.9640   31.9940   36.7380 C   0  0  0  0  0  0  0  0  0  0  0  0
   33.2170   31.6310   35.6890 N   0  0  0  0  0  0  0  0  0  0  0  0
   33.1170   30.8430   33.7750 H   0  0  0  0  0  0  0  0  0  0  0  0
   36.9820   31.1800   35.5270 H   0  0  0  0  0  0  0  0  0  0  0  0
   33.4460   32.4040   37.5950 H   0  0  0  0  0  0  0  0  0  0  0  0
   38.5190   27.2430   33.4170 Cl  0  0  0  0  0  0  0  0  0  0  0  0
   37.3350   26.3080   32.5210 C   0  0  0  0  0  0  0  0  0  0  0  0
   36.2480   26.9210   31.9190 C   0  0  0  0  0  0  0  0  0  0  0  0
   35.3460   26.1390   31.2280 C   0  0  0  0  0  0  0  0  0  0  0  0
   34.5070   26.6500   30.7690 H   0  0  0  0  0  0  0  0  0  0  0  0
   35.4520   24.7750   31.0900 C   0  0  0  0  0  0  0  0  0  0  0  0
   34.7370   24.1780   30.5440 H   0  0  0  0  0  0  0  0  0  0  0  0
   36.5570   24.1770   31.7050 C   0  0  0  0  0  3  0  0  0  0  0  0
   37.4650   24.9510   32.4000 C   0  0  0  0  0  3  0  0  0  0  0  0
  2  3  1  0  0  0  0
  2  1  1  0  0  0  0
  3 12  1  0  0  0  0
  4  8  1  0  0  0  0
  4  3  2  0  0  0  0
  5  4  1  0  0  0  0
  6  5  2  0  0  0  0
  6  7  1  0  0  0  0
  7  2  2  0  0  0  0
  9  5  1  0  0  0  0
 10  6  1  0  0  0  0
 11 16  1  0  0  0  0
 12 11  2  0  0  0  0
 12 13  1  0  0  0  0
 13 14  2  0  0  0  0
 14 15  1  0  0  0  0
 15 19  1  0  0  0  0
 16 15  2  0  0  0  0
 17 11  1  0  0  0  0
 18 13  1  0  0  0  0
 21 20  1  0  0  0  0
 22  7  1  0  0  0  0
 22 21  2  0  0  0  0
 23 22  1  0  0  0  0
 24 23  1  0  0  0  0
 25 23  2  0  0  0  0
 25 27  1  0  0  0  0
 26 25  1  0  0  0  0
 27 28  2  0  0  0  0
 28 21  1  0  0  0  0
M  END
>  <minimizedAffinity>
-5.18832588

$$$$

 OpenBabel03262521383D

 28 30  0  0  0  0  0  0  0  0999 V2000
   36.1680   27.9450   34.8120 F   0  0  0  0  0  0  0  0  0  0  0  0
   36.2530   28.6070   33.6150 C   0  0  0  0  0  0  0  0  0  0  0  0
   35.7850   29.8970   33.4480 C   0  0  0  0  0  0  0  0  0  0  0  0
   35.8930   30.5230   32.2230 C   0  0  0  0  0  0  0  0  0  0  0  0
   36.4770   29.8600   31.1370 C   0  0  0  0  0  0  0  0  0  0  0  0
   36.9300   28.5680   31.3530 C   0  0  0  0  0  0  0  0  0  0  0  0
   36.8340   27.9270   32.5580 C   0  0  0  0  0  0  0  0  0  0  0  0
   35.5310   31.5210   32.0930 H   0  0  0  0  0  0  0  0  0  0  0  0
   36.5470   30.3760   30.1880 H   0  0  0  0  0  0  0  0  0  0  0  0
   37.3660   28.1290   30.4600 H   0  0  0  0  0  0  0  0  0  0  0  0
   33.8100   30.3310   34.7280 C   0  0  0  0  0  0  0  0  0  0  0  0
   35.2020   30.5080   34.6040 C   0  0  0  0  0  0  0  0  0  0  0  0
   35.8470   31.2480   35.6020 C   0  0  0  0  0  0  0  0  0  0  0  0
   35.1030   31.7510   36.6310 N   0  0  0  0  0  0  0  0  0  0  0  0
   33.7810   31.5620   36.7150 C   0  0  0  0  0  0  0  0  0  0  0  0
   33.1380   30.8580   35.7750 N   0  0  0  0  0  0  0  0  0  0  0  0
   33.2170   29.7750   34.0110 H   0  0  0  0  0  0  0  0  0  0  0  0
   36.8870   31.3580   35.4730 H   0  0  0  0  0  0  0  0  0  0  0  0
   33.1870   31.9580   37.5280 H   0  0  0  0  0  0  0  0  0  0  0  0
   35.0360   25.9750   31.2990 Cl  0  0  0  0  0  0  0  0  0  0  0  0
   36.5680   25.5880   32.0620 C   0  0  0  0  0  0  0  0  0  0  0  0
   37.3520   26.5780   32.6320 C   0  0  0  0  0  0  0  0  0  0  0  0
   38.5480   26.2180   33.2180 C   0  0  0  0  0  0  0  0  0  0  0  0
   39.1380   27.0170   33.6560 H   0  0  0  0  0  0  0  0  0  0  0  0
   39.0230   24.9290   33.2790 C   0  0  0  0  0  0  0  0  0  0  0  0
   39.9610   24.6650   33.7430 H   0  0  0  0  0  0  0  0  0  0  0  0
   38.2150   23.9460   32.6970 C   0  0  0  0  0  3  0  0  0  0  0  0
   37.0160   24.2960   32.1080 C   0  0  0  0  0  3  0  0  0  0  0  0
  2  1  1  0  0  0  0
  3  2  1  0  0  0  0
  3 12  1  0  0  0  0
  4  3  2  0  0  0  0
  5  6  2  0  0  0  0
  5  4  1  0  0  0  0
  6  7  1  0  0  0  0
  7 22  1  0  0  0  0
  7  2  2  0  0  0  0
  8  4  1  0  0  0  0
  9  5  1  0  0  0  0
 10  6  1  0  0  0  0
 11 16  1  0  0  0  0
 12 11  2  0  0  0  0
 12 13  1  0  0  0  0
 13 14  2  0  0  0  0
 14 15  1  0  0  0  0
 15 19  1  0  0  0  0
 16 15  2  0  0  0  0
 17 11  1  0  0  0  0
 18 13  1  0  0  0  0
 20 21  1  0  0  0  0
 21 28  2  0  0  0  0
 21 22  1  0  0  0  0
 22 23  2  0  0  0  0
 23 25  1  0  0  0  0
 23 24  1  0  0  0  0
 25 26  1  0  0  0  0
 27 25  2  0  0  0  0
 28 27  1  0  0  0  0
M  END
>  <minimizedAffinity>
-5.09704781

$$$$

 OpenBabel03262521383D

 28 30  0  0  0  0  0  0  0  0999 V2000
   39.1860   24.4120   34.9160 F   0  0  0  0  0  0  0  0  0  0  0  0
   40.3040   25.1740   34.6990 C   0  0  0  0  0  0  0  0  0  0  0  0
   41.5670   24.7580   35.0760 C   0  0  0  0  0  0  0  0  0  0  0  0
   42.6640   25.5610   34.8360 C   0  0  0  0  0  0  0  0  0  0  0  0
   42.5100   26.8020   34.2080 C   0  0  0  0  0  0  0  0  0  0  0  0
   41.2250   27.1750   33.8490 C   0  0  0  0  0  0  0  0  0  0  0  0
   40.1220   26.3980   34.0770 C   0  0  0  0  0  0  0  0  0  0  0  0
   43.6420   25.2400   35.1280 H   0  0  0  0  0  0  0  0  0  0  0  0
   43.3880   27.4110   34.0330 H   0  0  0  0  0  0  0  0  0  0  0  0
   41.1960   28.1500   33.3700 H   0  0  0  0  0  0  0  0  0  0  0  0
   42.6570   22.6330   35.2180 C   0  0  0  0  0  0  0  0  0  0  0  0
   41.6440   23.4780   35.7120 C   0  0  0  0  0  0  0  0  0  0  0  0
   40.8410   22.9820   36.7460 C   0  0  0  0  0  0  0  0  0  0  0  0
   41.0790   21.7230   37.2160 N   0  0  0  0  0  0  0  0  0  0  0  0
   42.0530   20.9490   36.7220 C   0  0  0  0  0  0  0  0  0  0  0  0
   42.8360   21.3960   35.7330 N   0  0  0  0  0  0  0  0  0  0  0  0
   43.3330   22.9200   34.4210 H   0  0  0  0  0  0  0  0  0  0  0  0
   40.0950   23.6450   37.0870 H   0  0  0  0  0  0  0  0  0  0  0  0
   42.2460   19.9500   37.0910 H   0  0  0  0  0  0  0  0  0  0  0  0
   38.4610   27.2740   36.3340 Cl  0  0  0  0  0  0  0  0  0  0  0  0
   37.9920   27.3580   34.6460 C   0  0  0  0  0  0  0  0  0  0  0  0
   38.8430   26.9200   33.6450 C   0  0  0  0  0  0  0  0  0  0  0  0
   38.4250   27.0100   32.3340 C   0  0  0  0  0  0  0  0  0  0  0  0
   39.1150   26.6580   31.5750 H   0  0  0  0  0  0  0  0  0  0  0  0
   37.2050   27.5090   31.9440 C   0  0  0  0  0  0  0  0  0  0  0  0
   36.8920   27.5720   30.9130 H   0  0  0  0  0  0  0  0  0  0  0  0
   36.3600   27.9460   32.9710 C   0  0  0  0  0  3  0  0  0  0  0  0
   36.7700   27.8610   34.2870 C   0  0  0  0  0  3  0  0  0  0  0  0
  2  1  1  0  0  0  0
  2  3  1  0  0  0  0
  3 12  1  0  0  0  0
  4  3  2  0  0  0  0
  4  8  1  0  0  0  0
  5  4  1  0  0  0  0
  6  7  1  0  0  0  0
  6  5  2  0  0  0  0
  7  2  2  0  0  0  0
  9  5  1  0  0  0  0
 10  6  1  0  0  0  0
 11 12  2  0  0  0  0
 11 16  1  0  0  0  0
 12 13  1  0  0  0  0
 13 18  1  0  0  0  0
 13 14  2  0  0  0  0
 15 19  1  0  0  0  0
 15 14  1  0  0  0  0
 16 15  2  0  0  0  0
 17 11  1  0  0  0  0
 21 20  1  0  0  0  0
 22  7  1  0  0  0  0
 22 21  2  0  0  0  0
 23 22  1  0  0  0  0
 24 23  1  0  0  0  0
 25 23  2  0  0  0  0
 25 27  1  0  0  0  0
 26 25  1  0  0  0  0
 27 28  2  0  0  0  0
 28 21  1  0  0  0  0
M  END
>  <minimizedAffinity>
-5.03689861

$$$$

 OpenBabel03262521383D

 28 30  0  0  0  0  0  0  0  0999 V2000
   38.5200   28.0990   31.6990 F   0  0  0  0  0  0  0  0  0  0  0  0
   37.2620   28.5800   31.9510 C   0  0  0  0  0  0  0  0  0  0  0  0
   36.5980   29.4120   31.0700 C   0  0  0  0  0  0  0  0  0  0  0  0
   35.3310   29.8720   31.3680 C   0  0  0  0  0  0  0  0  0  0  0  0
   34.7050   29.5010   32.5640 C   0  0  0  0  0  0  0  0  0  0  0  0
   35.4110   28.6660   33.4150 C   0  0  0  0  0  0  0  0  0  0  0  0
   36.6680   28.1980   33.1420 C   0  0  0  0  0  0  0  0  0  0  0  0
   34.8160   30.5160   30.6860 H   0  0  0  0  0  0  0  0  0  0  0  0
   33.7120   29.8770   32.7720 H   0  0  0  0  0  0  0  0  0  0  0  0
   34.8540   28.4290   34.3180 H   0  0  0  0  0  0  0  0  0  0  0  0
   37.7200   31.0890   29.7840 C   0  0  0  0  0  0  0  0  0  0  0  0
   37.3010   29.7460   29.8690 C   0  0  0  0  0  0  0  0  0  0  0  0
   37.6130   28.9070   28.7930 C   0  0  0  0  0  0  0  0  0  0  0  0
   38.2970   29.4260   27.7320 N   0  0  0  0  0  0  0  0  0  0  0  0
   38.6790   30.7080   27.6860 C   0  0  0  0  0  0  0  0  0  0  0  0
   38.3960   31.5340   28.7010 N   0  0  0  0  0  0  0  0  0  0  0  0
   37.5310   31.8200   30.5610 H   0  0  0  0  0  0  0  0  0  0  0  0
   37.2830   27.9110   28.8960 H   0  0  0  0  0  0  0  0  0  0  0  0
   39.2210   31.1240   26.8470 H   0  0  0  0  0  0  0  0  0  0  0  0
   36.6040   25.3750   32.3340 Cl  0  0  0  0  0  0  0  0  0  0  0  0
   37.2950   25.9790   33.8290 C   0  0  0  0  0  0  0  0  0  0  0  0
   37.2800   27.3320   34.1270 C   0  0  0  0  0  0  0  0  0  0  0  0
   37.8380   27.7540   35.3160 C   0  0  0  0  0  0  0  0  0  0  0  0
   37.8090   28.8190   35.5200 H   0  0  0  0  0  0  0  0  0  0  0  0
   38.4140   26.9150   36.2400 C   0  0  0  0  0  0  0  0  0  0  0  0
   38.8460   27.2620   37.1670 H   0  0  0  0  0  0  0  0  0  0  0  0
   38.4190   25.5530   35.9190 C   0  0  0  0  0  3  0  0  0  0  0  0
   37.8640   25.1210   34.7310 C   0  0  0  0  0  3  0  0  0  0  0  0
  1  2  1  0  0  0  0
  2  7  1  0  0  0  0
  3  4  1  0  0  0  0
  3  2  2  0  0  0  0
  4  5  2  0  0  0  0
  5  9  1  0  0  0  0
  5  6  1  0  0  0  0
  6 10  1  0  0  0  0
  7  6  2  0  0  0  0
  7 22  1  0  0  0  0
  8  4  1  0  0  0  0
 11 12  1  0  0  0  0
 11 17  1  0  0  0  0
 12  3  1  0  0  0  0
 13 18  1  0  0  0  0
 13 12  2  0  0  0  0
 14 13  1  0  0  0  0
 15 14  2  0  0  0  0
 15 16  1  0  0  0  0
 16 11  2  0  0  0  0
 19 15  1  0  0  0  0
 20 21  1  0  0  0  0
 21 22  2  0  0  0  0
 21 28  1  0  0  0  0
 22 23  1  0  0  0  0
 23 24  1  0  0  0  0
 23 25  2  0  0  0  0
 25 26  1  0  0  0  0
 27 25  1  0  0  0  0
 28 27  2  0  0  0  0
M  END
>  <minimizedAffinity>
-5.03030491

$$$$

 OpenBabel03262521383D

 28 30  0  0  0  0  0  0  0  0999 V2000
   38.3510   23.2060   33.8040 F   0  0  0  0  0  0  0  0  0  0  0  0
   38.8780   24.4600   33.9700 C   0  0  0  0  0  0  0  0  0  0  0  0
   38.3530   25.5720   33.3400 C   0  0  0  0  0  0  0  0  0  0  0  0
   38.9180   26.8160   33.5380 C   0  0  0  0  0  0  0  0  0  0  0  0
   40.0260   26.9650   34.3790 C   0  0  0  0  0  0  0  0  0  0  0  0
   40.5170   25.8210   34.9890 C   0  0  0  0  0  0  0  0  0  0  0  0
   39.9750   24.5780   34.8070 C   0  0  0  0  0  0  0  0  0  0  0  0
   38.5120   27.6770   33.0500 H   0  0  0  0  0  0  0  0  0  0  0  0
   40.4490   27.9520   34.5150 H   0  0  0  0  0  0  0  0  0  0  0  0
   41.3760   26.0260   35.6220 H   0  0  0  0  0  0  0  0  0  0  0  0
   36.5830   26.5060   32.0280 C   0  0  0  0  0  0  0  0  0  0  0  0
   37.2200   25.3400   32.4960 C   0  0  0  0  0  0  0  0  0  0  0  0
   36.6850   24.1110   32.0930 C   0  0  0  0  0  0  0  0  0  0  0  0
   35.5900   24.1060   31.2790 N   0  0  0  0  0  0  0  0  0  0  0  0
   35.0110   25.2350   30.8540 C   0  0  0  0  0  0  0  0  0  0  0  0
   35.5000   26.4250   31.2220 N   0  0  0  0  0  0  0  0  0  0  0  0
   36.9160   27.5060   32.2800 H   0  0  0  0  0  0  0  0  0  0  0  0
   37.1910   23.2630   32.4640 H   0  0  0  0  0  0  0  0  0  0  0  0
   34.1420   25.2370   30.2090 H   0  0  0  0  0  0  0  0  0  0  0  0
   42.1040   23.3110   33.2310 Cl  0  0  0  0  0  0  0  0  0  0  0  0
   41.6130   22.8170   34.8410 C   0  0  0  0  0  0  0  0  0  0  0  0
   40.5950   23.4760   35.5110 C   0  0  0  0  0  0  0  0  0  0  0  0
   40.2500   23.0470   36.7760 C   0  0  0  0  0  0  0  0  0  0  0  0
   39.4480   23.5840   37.2730 H   0  0  0  0  0  0  0  0  0  0  0  0
   40.8520   21.9970   37.4280 C   0  0  0  0  0  0  0  0  0  0  0  0
   40.5680   21.6740   38.4180 H   0  0  0  0  0  0  0  0  0  0  0  0
   41.8780   21.3460   36.7340 C   0  0  0  0  0  3  0  0  0  0  0  0
   42.2310   21.7680   35.4670 C   0  0  0  0  0  3  0  0  0  0  0  0
  1  2  1  0  0  0  0
  2  7  1  0  0  0  0
  3  4  1  0  0  0  0
  3  2  2  0  0  0  0
  4  5  2  0  0  0  0
  5  9  1  0  0  0  0
  5  6  1  0  0  0  0
  6 10  1  0  0  0  0
  7  6  2  0  0  0  0
  7 22  1  0  0  0  0
  8  4  1  0  0  0  0
 11 17  1  0  0  0  0
 11 12  1  0  0  0  0
 12  3  1  0  0  0  0
 13 18  1  0  0  0  0
 13 12  2  0  0  0  0
 14 13  1  0  0  0  0
 15 16  1  0  0  0  0
 15 14  2  0  0  0  0
 16 11  2  0  0  0  0
 19 15  1  0  0  0  0
 20 21  1  0  0  0  0
 21 28  2  0  0  0  0
 21 22  1  0  0  0  0
 22 23  2  0  0  0  0
 23 24  1  0  0  0  0
 23 25  1  0  0  0  0
 25 26  1  0  0  0  0
 27 25  2  0  0  0  0
 28 27  1  0  0  0  0
M  END
>  <minimizedAffinity>
-5.0216856

$$$$
