
 OpenBabel03262523303D

 31 34  0  0  0  0  0  0  0  0999 V2000
   36.0660   29.4930   31.8820 C   0  0  0  0  0  0  0  0  0  0  0  0
   36.6390   28.2620   32.2080 C   0  0  0  0  0  0  0  0  0  0  0  0
   36.6450   27.8620   33.5380 C   0  0  0  0  0  0  0  0  0  0  0  0
   36.0930   28.6870   34.4780 N   0  0  0  0  0  0  0  0  0  0  0  0
   35.5460   29.8750   34.1170 C   0  0  0  0  0  0  0  0  0  0  0  0
   35.5310   30.2740   32.8440 N   0  0  0  0  0  0  0  0  0  0  0  0
   36.0770   29.7740   30.8420 H   0  0  0  0  0  0  0  0  0  0  0  0
   37.0860   27.5900   31.4650 H   0  0  0  0  0  0  0  0  0  0  0  0
   37.5620   25.6770   33.0370 C   0  0  0  0  0  0  0  0  0  0  0  0
   37.2110   26.6040   34.0010 C   0  0  0  0  0  0  0  0  0  0  0  0
   37.4030   26.3150   35.3270 C   0  0  0  0  0  0  0  0  0  0  0  0
   37.9510   25.0840   35.6550 C   0  0  0  0  0  0  0  0  0  0  0  0
   38.2280   24.5880   36.8950 N   0  0  0  0  0  0  0  0  0  0  0  0
   38.7490   23.3580   36.7150 C   0  0  0  0  0  0  0  0  0  0  0  0
   38.8110   23.0590   35.4020 N   0  0  0  0  0  0  0  0  0  0  0  0
   38.3170   24.1250   34.7280 C   0  0  0  0  0  0  0  0  0  0  0  0
   38.1130   24.4410   33.3910 C   0  0  0  0  0  0  0  0  0  0  0  0
   37.4350   25.8450   31.9740 H   0  0  0  0  0  0  0  0  0  0  0  0
   37.1280   27.0420   36.0800 H   0  0  0  0  0  0  0  0  0  0  0  0
   38.0870   25.0260   37.8450 H   0  0  0  0  0  0  0  0  0  0  0  0
   39.1010   22.6310   37.4510 H   0  0  0  0  0  0  0  0  0  0  0  0
   38.3910   23.7090   32.6570 H   0  0  0  0  0  0  0  0  0  0  0  0
   32.6800   29.3840   34.6610 Cl  0  0  0  0  0  0  0  0  0  0  0  0
   33.6440   30.5850   35.5150 C   0  0  0  0  0  0  0  0  0  0  0  0
   34.9690   30.7150   35.1660 C   0  0  0  0  0  0  0  0  0  0  0  0
   35.7490   31.6490   35.8180 C   0  0  0  0  0  0  0  0  0  0  0  0
   36.7780   31.7260   35.5250 H   0  0  0  0  0  0  0  0  0  0  0  0
   35.1490   32.4090   36.7950 C   0  0  0  0  0  0  0  0  0  0  0  0
   35.8060   33.1320   37.2810 H   0  0  0  0  0  0  0  0  0  0  0  0
   33.8150   32.2860   37.1530 C   0  0  0  0  0  3  0  0  0  0  0  0
   33.0380   31.3430   36.4910 C   0  0  0  0  0  3  0  0  0  0  0  0
  1  2  2  0  0  0  0
  1  6  1  0  0  0  0
  2  3  1  0  0  0  0
  3 10  1  0  0  0  0
  3  4  2  0  0  0  0
  5  4  1  0  0  0  0
  5 25  1  0  0  0  0
  6  5  2  0  0  0  0
  7  1  1  0  0  0  0
  8  2  1  0  0  0  0
  9 17  2  0  0  0  0
  9 10  1  0  0  0  0
 10 11  2  0  0  0  0
 11 12  1  0  0  0  0
 11 19  1  0  0  0  0
 12 13  1  0  0  0  0
 13 20  1  0  0  0  0
 14 13  1  0  0  0  0
 14 21  1  0  0  0  0
 15 14  2  0  0  0  0
 16 15  1  0  0  0  0
 16 12  2  0  0  0  0
 17 16  1  0  0  0  0
 18  9  1  0  0  0  0
 22 17  1  0  0  0  0
 23 24  1  0  0  0  0
 24 31  1  0  0  0  0
 25 24  2  0  0  0  0
 25 26  1  0  0  0  0
 26 28  2  0  0  0  0
 27 26  1  0  0  0  0
 28 30  1  0  0  0  0
 28 29  1  0  0  0  0
 31 30  2  0  0  0  0
M  END
>  <minimizedAffinity>
-6.18787003

$$$$

 OpenBabel03262523303D

 31 34  0  0  0  0  0  0  0  0999 V2000
   36.0740   29.4140   31.9230 C   0  0  0  0  0  0  0  0  0  0  0  0
   36.6850   28.2090   32.2780 C   0  0  0  0  0  0  0  0  0  0  0  0
   36.6930   27.8370   33.6170 C   0  0  0  0  0  0  0  0  0  0  0  0
   36.1060   28.6620   34.5350 N   0  0  0  0  0  0  0  0  0  0  0  0
   35.5240   29.8240   34.1470 C   0  0  0  0  0  0  0  0  0  0  0  0
   35.5070   30.1970   32.8650 N   0  0  0  0  0  0  0  0  0  0  0  0
   36.0850   29.6740   30.8780 H   0  0  0  0  0  0  0  0  0  0  0  0
   37.1600   27.5380   31.5530 H   0  0  0  0  0  0  0  0  0  0  0  0
   37.7010   26.5900   35.4310 C   0  0  0  0  0  0  0  0  0  0  0  0
   37.2960   26.6080   34.1100 C   0  0  0  0  0  0  0  0  0  0  0  0
   37.4730   25.4970   33.3270 C   0  0  0  0  0  0  0  0  0  0  0  0
   38.0590   24.3790   33.9010 C   0  0  0  0  0  0  0  0  0  0  0  0
   38.3290   23.1760   33.3190 N   0  0  0  0  0  0  0  0  0  0  0  0
   38.9000   22.4040   34.2650 C   0  0  0  0  0  0  0  0  0  0  0  0
   39.0000   23.0800   35.4280 N   0  0  0  0  0  0  0  0  0  0  0  0
   38.4800   24.3120   35.2180 C   0  0  0  0  0  0  0  0  0  0  0  0
   38.2920   25.4510   35.9900 C   0  0  0  0  0  0  0  0  0  0  0  0
   37.5910   27.4340   36.1010 H   0  0  0  0  0  0  0  0  0  0  0  0
   37.1550   25.5130   32.2930 H   0  0  0  0  0  0  0  0  0  0  0  0
   38.1530   22.8490   32.3310 H   0  0  0  0  0  0  0  0  0  0  0  0
   39.2630   21.3750   34.2060 H   0  0  0  0  0  0  0  0  0  0  0  0
   38.6120   25.4180   37.0140 H   0  0  0  0  0  0  0  0  0  0  0  0
   32.6330   29.3610   34.5640 Cl  0  0  0  0  0  0  0  0  0  0  0  0
   33.5710   30.5480   35.4640 C   0  0  0  0  0  0  0  0  0  0  0  0
   34.9120   30.6650   35.1740 C   0  0  0  0  0  0  0  0  0  0  0  0
   35.6720   31.5880   35.8630 C   0  0  0  0  0  0  0  0  0  0  0  0
   36.7130   31.6550   35.6150 H   0  0  0  0  0  0  0  0  0  0  0  0
   35.0380   32.3500   36.8170 C   0  0  0  0  0  0  0  0  0  0  0  0
   35.6810   33.0630   37.3350 H   0  0  0  0  0  0  0  0  0  0  0  0
   33.6890   32.2390   37.1170 C   0  0  0  0  0  3  0  0  0  0  0  0
   32.9320   31.3080   36.4180 C   0  0  0  0  0  3  0  0  0  0  0  0
  1  2  2  0  0  0  0
  1  6  1  0  0  0  0
  2  3  1  0  0  0  0
  3 10  1  0  0  0  0
  3  4  2  0  0  0  0
  5  4  1  0  0  0  0
  5 25  1  0  0  0  0
  6  5  2  0  0  0  0
  7  1  1  0  0  0  0
  8  2  1  0  0  0  0
  9 17  1  0  0  0  0
  9 18  1  0  0  0  0
 10  9  2  0  0  0  0
 11 12  2  0  0  0  0
 11 10  1  0  0  0  0
 12 16  1  0  0  0  0
 13 12  1  0  0  0  0
 13 14  1  0  0  0  0
 14 15  2  0  0  0  0
 16 15  1  0  0  0  0
 16 17  2  0  0  0  0
 17 22  1  0  0  0  0
 19 11  1  0  0  0  0
 20 13  1  0  0  0  0
 21 14  1  0  0  0  0
 23 24  1  0  0  0  0
 24 31  1  0  0  0  0
 25 24  2  0  0  0  0
 25 26  1  0  0  0  0
 26 28  2  0  0  0  0
 27 26  1  0  0  0  0
 28 30  1  0  0  0  0
 28 29  1  0  0  0  0
 31 30  2  0  0  0  0
M  END
>  <minimizedAffinity>
-6.08621883

$$$$

 OpenBabel03262523303D

 31 34  0  0  0  0  0  0  0  0999 V2000
   35.7340   29.7310   31.9250 C   0  0  0  0  0  0  0  0  0  0  0  0
   36.6010   28.6810   32.2340 C   0  0  0  0  0  0  0  0  0  0  0  0
   36.6450   28.2180   33.5430 C   0  0  0  0  0  0  0  0  0  0  0  0
   35.8410   28.8060   34.4780 N   0  0  0  0  0  0  0  0  0  0  0  0
   35.0120   29.8240   34.1350 C   0  0  0  0  0  0  0  0  0  0  0  0
   34.9570   30.2810   32.8820 N   0  0  0  0  0  0  0  0  0  0  0  0
   35.7230   30.0670   30.9010 H   0  0  0  0  0  0  0  0  0  0  0  0
   37.2520   28.2000   31.4940 H   0  0  0  0  0  0  0  0  0  0  0  0
   38.6160   26.8500   33.2130 C   0  0  0  0  0  0  0  0  0  0  0  0
   37.5050   27.1320   33.9870 C   0  0  0  0  0  0  0  0  0  0  0  0
   37.2580   26.3980   35.1170 C   0  0  0  0  0  0  0  0  0  0  0  0
   38.1460   25.3850   35.4470 C   0  0  0  0  0  0  0  0  0  0  0  0
   38.1000   24.5370   36.5140 N   0  0  0  0  0  0  0  0  0  0  0  0
   39.1720   23.7270   36.4150 C   0  0  0  0  0  0  0  0  0  0  0  0
   39.8960   24.0330   35.3190 N   0  0  0  0  0  0  0  0  0  0  0  0
   39.2700   25.0650   34.7050 C   0  0  0  0  0  0  0  0  0  0  0  0
   39.4980   25.8230   33.5630 C   0  0  0  0  0  0  0  0  0  0  0  0
   38.8660   27.3920   32.3090 H   0  0  0  0  0  0  0  0  0  0  0  0
   36.3890   26.6210   35.7220 H   0  0  0  0  0  0  0  0  0  0  0  0
   37.3950   24.4750   37.2970 H   0  0  0  0  0  0  0  0  0  0  0  0
   39.4990   22.9130   37.0660 H   0  0  0  0  0  0  0  0  0  0  0  0
   40.3650   25.5890   32.9760 H   0  0  0  0  0  0  0  0  0  0  0  0
   36.3260   31.9450   35.7250 Cl  0  0  0  0  0  0  0  0  0  0  0  0
   34.6680   31.4120   35.9880 C   0  0  0  0  0  0  0  0  0  0  0  0
   34.1750   30.4140   35.1780 C   0  0  0  0  0  0  0  0  0  0  0  0
   32.8790   29.9760   35.3620 C   0  0  0  0  0  0  0  0  0  0  0  0
   32.5240   29.1980   34.7150 H   0  0  0  0  0  0  0  0  0  0  0  0
   32.1420   30.5700   36.3600 C   0  0  0  0  0  0  0  0  0  0  0  0
   31.1240   30.1900   36.4660 H   0  0  0  0  0  0  0  0  0  0  0  0
   32.6290   31.5750   37.1810 C   0  0  0  0  0  3  0  0  0  0  0  0
   33.9350   32.0100   36.9880 C   0  0  0  0  0  3  0  0  0  0  0  0
  1  2  2  0  0  0  0
  1  6  1  0  0  0  0
  2  3  1  0  0  0  0
  3 10  1  0  0  0  0
  3  4  2  0  0  0  0
  5  4  1  0  0  0  0
  5 25  1  0  0  0  0
  6  5  2  0  0  0  0
  7  1  1  0  0  0  0
  8  2  1  0  0  0  0
  9 17  2  0  0  0  0
  9 10  1  0  0  0  0
 10 11  2  0  0  0  0
 11 12  1  0  0  0  0
 11 19  1  0  0  0  0
 12 13  1  0  0  0  0
 13 20  1  0  0  0  0
 14 13  1  0  0  0  0
 14 21  1  0  0  0  0
 15 14  2  0  0  0  0
 16 15  1  0  0  0  0
 16 12  2  0  0  0  0
 17 16  1  0  0  0  0
 18  9  1  0  0  0  0
 22 17  1  0  0  0  0
 23 24  1  0  0  0  0
 24 31  1  0  0  0  0
 25 26  1  0  0  0  0
 25 24  2  0  0  0  0
 26 28  2  0  0  0  0
 27 26  1  0  0  0  0
 28 29  1  0  0  0  0
 28 30  1  0  0  0  0
 31 30  2  0  0  0  0
M  END
>  <minimizedAffinity>
-5.92271376

$$$$

 OpenBabel03262523303D

 31 34  0  0  0  0  0  0  0  0999 V2000
   35.3750   29.7210   31.8850 C   0  0  0  0  0  0  0  0  0  0  0  0
   36.3240   28.7410   32.1840 C   0  0  0  0  0  0  0  0  0  0  0  0
   36.4980   28.3640   33.5100 C   0  0  0  0  0  0  0  0  0  0  0  0
   35.7370   28.9670   34.4720 N   0  0  0  0  0  0  0  0  0  0  0  0
   34.8270   29.9160   34.1380 C   0  0  0  0  0  0  0  0  0  0  0  0
   34.6460   30.2890   32.8700 N   0  0  0  0  0  0  0  0  0  0  0  0
   35.2640   29.9910   30.8490 H   0  0  0  0  0  0  0  0  0  0  0  0
   36.9410   28.2490   31.4230 H   0  0  0  0  0  0  0  0  0  0  0  0
   37.8890   27.4250   35.2550 C   0  0  0  0  0  0  0  0  0  0  0  0
   37.4520   27.3570   33.9450 C   0  0  0  0  0  0  0  0  0  0  0  0
   37.9210   26.3680   33.1210 C   0  0  0  0  0  0  0  0  0  0  0  0
   38.8290   25.4580   33.6410 C   0  0  0  0  0  0  0  0  0  0  0  0
   39.4220   24.4040   33.0120 N   0  0  0  0  0  0  0  0  0  0  0  0
   40.2270   23.8110   33.9160 C   0  0  0  0  0  0  0  0  0  0  0  0
   40.1630   24.4570   35.0990 N   0  0  0  0  0  0  0  0  0  0  0  0
   39.2960   25.4850   34.9440 C   0  0  0  0  0  0  0  0  0  0  0  0
   38.8070   26.4980   35.7590 C   0  0  0  0  0  0  0  0  0  0  0  0
   37.5570   28.1820   35.9560 H   0  0  0  0  0  0  0  0  0  0  0  0
   37.5780   26.3150   32.0960 H   0  0  0  0  0  0  0  0  0  0  0  0
   39.3170   24.0640   32.0180 H   0  0  0  0  0  0  0  0  0  0  0  0
   40.8740   22.9370   33.8130 H   0  0  0  0  0  0  0  0  0  0  0  0
   39.1580   26.5340   36.7730 H   0  0  0  0  0  0  0  0  0  0  0  0
   36.2710   31.9500   35.7270 Cl  0  0  0  0  0  0  0  0  0  0  0  0
   34.5980   31.4880   36.0230 C   0  0  0  0  0  0  0  0  0  0  0  0
   34.0410   30.5260   35.2100 C   0  0  0  0  0  0  0  0  0  0  0  0
   32.7320   30.1430   35.4190 C   0  0  0  0  0  0  0  0  0  0  0  0
   32.3260   29.3920   34.7690 H   0  0  0  0  0  0  0  0  0  0  0  0
   32.0450   30.7530   36.4440 C   0  0  0  0  0  0  0  0  0  0  0  0
   31.0150   30.4180   36.5680 H   0  0  0  0  0  0  0  0  0  0  0  0
   32.5970   31.7230   37.2670 C   0  0  0  0  0  3  0  0  0  0  0  0
   33.9160   32.1020   37.0490 C   0  0  0  0  0  3  0  0  0  0  0  0
  1  2  2  0  0  0  0
  1  6  1  0  0  0  0
  2  3  1  0  0  0  0
  3 10  1  0  0  0  0
  3  4  2  0  0  0  0
  5  4  1  0  0  0  0
  5 25  1  0  0  0  0
  6  5  2  0  0  0  0
  7  1  1  0  0  0  0
  8  2  1  0  0  0  0
  9 17  1  0  0  0  0
  9 18  1  0  0  0  0
 10  9  2  0  0  0  0
 11 12  2  0  0  0  0
 11 10  1  0  0  0  0
 12 16  1  0  0  0  0
 13 12  1  0  0  0  0
 13 14  1  0  0  0  0
 14 15  2  0  0  0  0
 16 15  1  0  0  0  0
 16 17  2  0  0  0  0
 17 22  1  0  0  0  0
 19 11  1  0  0  0  0
 20 13  1  0  0  0  0
 21 14  1  0  0  0  0
 23 24  1  0  0  0  0
 24 31  1  0  0  0  0
 25 26  1  0  0  0  0
 25 24  2  0  0  0  0
 26 28  2  0  0  0  0
 27 26  1  0  0  0  0
 28 29  1  0  0  0  0
 28 30  1  0  0  0  0
 31 30  2  0  0  0  0
M  END
>  <minimizedAffinity>
-5.80875397

$$$$

 OpenBabel03262523303D

 31 34  0  0  0  0  0  0  0  0999 V2000
   36.2460   30.2310   30.9390 C   0  0  0  0  0  0  0  0  0  0  0  0
   36.4110   28.8480   30.8300 C   0  0  0  0  0  0  0  0  0  0  0  0
   36.1040   28.0530   31.9270 C   0  0  0  0  0  0  0  0  0  0  0  0
   35.6540   28.6510   33.0710 N   0  0  0  0  0  0  0  0  0  0  0  0
   35.5090   29.9990   33.1340 C   0  0  0  0  0  0  0  0  0  0  0  0
   35.7980   30.7780   32.0900 N   0  0  0  0  0  0  0  0  0  0  0  0
   36.4920   30.8200   30.0720 H   0  0  0  0  0  0  0  0  0  0  0  0
   36.7700   28.3550   29.9200 H   0  0  0  0  0  0  0  0  0  0  0  0
   35.3830   25.8900   31.1120 C   0  0  0  0  0  0  0  0  0  0  0  0
   36.2330   26.6040   31.9360 C   0  0  0  0  0  0  0  0  0  0  0  0
   37.1460   25.9410   32.7130 C   0  0  0  0  0  0  0  0  0  0  0  0
   37.1830   24.5570   32.6420 C   0  0  0  0  0  0  0  0  0  0  0  0
   38.0000   23.6990   33.3180 N   0  0  0  0  0  0  0  0  0  0  0  0
   37.6690   22.4530   32.9240 C   0  0  0  0  0  0  0  0  0  0  0  0
   36.6680   22.4940   32.0210 N   0  0  0  0  0  0  0  0  0  0  0  0
   36.3540   23.7980   31.8340 C   0  0  0  0  0  0  0  0  0  0  0  0
   35.4370   24.4930   31.0570 C   0  0  0  0  0  0  0  0  0  0  0  0
   34.6400   26.3540   30.4750 H   0  0  0  0  0  0  0  0  0  0  0  0
   37.8110   26.5020   33.3570 H   0  0  0  0  0  0  0  0  0  0  0  0
   38.7600   23.9030   34.0210 H   0  0  0  0  0  0  0  0  0  0  0  0
   38.0830   21.4880   33.2270 H   0  0  0  0  0  0  0  0  0  0  0  0
   34.7850   23.9210   30.4240 H   0  0  0  0  0  0  0  0  0  0  0  0
   32.5970   29.7280   33.5790 Cl  0  0  0  0  0  0  0  0  0  0  0  0
   33.6880   30.5230   34.7100 C   0  0  0  0  0  0  0  0  0  0  0  0
   35.0240   30.5820   34.3840 C   0  0  0  0  0  0  0  0  0  0  0  0
   35.9020   31.2000   35.2510 C   0  0  0  0  0  0  0  0  0  0  0  0
   36.9360   31.2290   34.9700 H   0  0  0  0  0  0  0  0  0  0  0  0
   35.3850   31.7300   36.4110 C   0  0  0  0  0  0  0  0  0  0  0  0
   36.1180   32.2060   37.0640 H   0  0  0  0  0  0  0  0  0  0  0  0
   34.0410   31.6750   36.7480 C   0  0  0  0  0  3  0  0  0  0  0  0
   33.1650   31.0510   35.8680 C   0  0  0  0  0  3  0  0  0  0  0  0
  1  6  1  0  0  0  0
  2  1  2  0  0  0  0
  2  3  1  0  0  0  0
  3 10  1  0  0  0  0
  3  4  2  0  0  0  0
  4  5  1  0  0  0  0
  5 25  1  0  0  0  0
  6  5  2  0  0  0  0
  7  1  1  0  0  0  0
  8  2  1  0  0  0  0
  9 10  1  0  0  0  0
 10 11  2  0  0  0  0
 11 19  1  0  0  0  0
 12 11  1  0  0  0  0
 12 13  1  0  0  0  0
 13 20  1  0  0  0  0
 14 21  1  0  0  0  0
 14 13  1  0  0  0  0
 15 14  2  0  0  0  0
 16 15  1  0  0  0  0
 16 12  2  0  0  0  0
 17  9  2  0  0  0  0
 17 16  1  0  0  0  0
 18  9  1  0  0  0  0
 22 17  1  0  0  0  0
 23 24  1  0  0  0  0
 24 31  1  0  0  0  0
 25 24  2  0  0  0  0
 25 26  1  0  0  0  0
 26 28  2  0  0  0  0
 27 26  1  0  0  0  0
 28 30  1  0  0  0  0
 28 29  1  0  0  0  0
 31 30  2  0  0  0  0
M  END
>  <minimizedAffinity>
-5.79622459

$$$$

 OpenBabel03262523303D

 31 34  0  0  0  0  0  0  0  0999 V2000
   36.4830   29.4170   30.3670 C   0  0  0  0  0  0  0  0  0  0  0  0
   35.9330   30.1180   31.4420 C   0  0  0  0  0  0  0  0  0  0  0  0
   35.5070   29.4040   32.5550 C   0  0  0  0  0  0  0  0  0  0  0  0
   35.6410   28.0440   32.5560 N   0  0  0  0  0  0  0  0  0  0  0  0
   36.1800   27.4020   31.4900 C   0  0  0  0  0  0  0  0  0  0  0  0
   36.5950   28.0720   30.4130 N   0  0  0  0  0  0  0  0  0  0  0  0
   36.8040   29.9990   29.5200 H   0  0  0  0  0  0  0  0  0  0  0  0
   35.8200   31.2090   31.4550 H   0  0  0  0  0  0  0  0  0  0  0  0
   33.5920   29.7380   33.9980 C   0  0  0  0  0  0  0  0  0  0  0  0
   34.9200   30.0200   33.7340 C   0  0  0  0  0  0  0  0  0  0  0  0
   35.6200   30.8500   34.5700 C   0  0  0  0  0  0  0  0  0  0  0  0
   34.9600   31.3830   35.6670 C   0  0  0  0  0  0  0  0  0  0  0  0
   35.4510   32.2230   36.6220 N   0  0  0  0  0  0  0  0  0  0  0  0
   34.4440   32.4690   37.4820 C   0  0  0  0  0  0  0  0  0  0  0  0
   33.3290   31.8130   37.1020 N   0  0  0  0  0  0  0  0  0  0  0  0
   33.6330   31.1310   35.9730 C   0  0  0  0  0  0  0  0  0  0  0  0
   32.9450   30.2880   35.1100 C   0  0  0  0  0  0  0  0  0  0  0  0
   32.9850   29.0920   33.3770 H   0  0  0  0  0  0  0  0  0  0  0  0
   36.6590   31.0690   34.3620 H   0  0  0  0  0  0  0  0  0  0  0  0
   36.4180   32.6350   36.7260 H   0  0  0  0  0  0  0  0  0  0  0  0
   34.4250   33.0890   38.3810 H   0  0  0  0  0  0  0  0  0  0  0  0
   31.9160   30.0810   35.3320 H   0  0  0  0  0  0  0  0  0  0  0  0
   38.6870   26.4100   32.7070 Cl  0  0  0  0  0  0  0  0  0  0  0  0
   37.4170   25.3560   32.0920 C   0  0  0  0  0  0  0  0  0  0  0  0
   36.2980   25.9450   31.5480 C   0  0  0  0  0  0  0  0  0  0  0  0
   35.2860   25.1450   31.0580 C   0  0  0  0  0  0  0  0  0  0  0  0
   34.4270   25.6330   30.6420 H   0  0  0  0  0  0  0  0  0  0  0  0
   35.4550   23.7820   31.1420 C   0  0  0  0  0  0  0  0  0  0  0  0
   34.6290   23.1920   30.7420 H   0  0  0  0  0  0  0  0  0  0  0  0
   36.5790   23.1790   31.6870 C   0  0  0  0  0  3  0  0  0  0  0  0
   37.5920   23.9940   32.1780 C   0  0  0  0  0  3  0  0  0  0  0  0
  1  6  2  0  0  0  0
  1  2  1  0  0  0  0
  2  8  1  0  0  0  0
  2  3  2  0  0  0  0
  3  4  1  0  0  0  0
  3 10  1  0  0  0  0
  5 25  1  0  0  0  0
  5  4  2  0  0  0  0
  6  5  1  0  0  0  0
  7  1  1  0  0  0  0
  9 17  1  0  0  0  0
 10  9  2  0  0  0  0
 10 11  1  0  0  0  0
 11 12  2  0  0  0  0
 12 16  1  0  0  0  0
 12 13  1  0  0  0  0
 13 20  1  0  0  0  0
 13 14  1  0  0  0  0
 14 21  1  0  0  0  0
 15 14  2  0  0  0  0
 16 15  1  0  0  0  0
 17 22  1  0  0  0  0
 17 16  2  0  0  0  0
 18  9  1  0  0  0  0
 19 11  1  0  0  0  0
 24 31  1  0  0  0  0
 24 23  1  0  0  0  0
 25 24  2  0  0  0  0
 26 28  2  0  0  0  0
 26 25  1  0  0  0  0
 27 26  1  0  0  0  0
 28 30  1  0  0  0  0
 29 28  1  0  0  0  0
 30 31  2  0  0  0  0
M  END
>  <minimizedAffinity>
-5.74676895

$$$$

 OpenBabel03262523303D

 31 34  0  0  0  0  0  0  0  0999 V2000
   37.6280   21.8670   32.7270 C   0  0  0  0  0  0  0  0  0  0  0  0
   37.7300   23.0160   31.9390 C   0  0  0  0  0  0  0  0  0  0  0  0
   38.0880   24.2110   32.5480 C   0  0  0  0  0  0  0  0  0  0  0  0
   38.3260   24.2200   33.8940 N   0  0  0  0  0  0  0  0  0  0  0  0
   38.2150   23.0810   34.6230 C   0  0  0  0  0  0  0  0  0  0  0  0
   37.8730   21.9240   34.0530 N   0  0  0  0  0  0  0  0  0  0  0  0
   37.3490   20.9560   32.2240 H   0  0  0  0  0  0  0  0  0  0  0  0
   37.5430   23.0230   30.8590 H   0  0  0  0  0  0  0  0  0  0  0  0
   39.4530   26.1070   31.9090 C   0  0  0  0  0  0  0  0  0  0  0  0
   38.2270   25.4720   31.8350 C   0  0  0  0  0  0  0  0  0  0  0  0
   37.2100   26.0370   31.1130 C   0  0  0  0  0  0  0  0  0  0  0  0
   37.4530   27.2410   30.4710 C   0  0  0  0  0  0  0  0  0  0  0  0
   36.5980   27.9770   29.7050 N   0  0  0  0  0  0  0  0  0  0  0  0
   37.2780   29.0670   29.2980 C   0  0  0  0  0  0  0  0  0  0  0  0
   38.5360   29.0460   29.7820 N   0  0  0  0  0  0  0  0  0  0  0  0
   38.6620   27.9150   30.5150 C   0  0  0  0  0  0  0  0  0  0  0  0
   39.6770   27.3230   31.2550 C   0  0  0  0  0  0  0  0  0  0  0  0
   40.2970   25.7130   32.4640 H   0  0  0  0  0  0  0  0  0  0  0  0
   36.2510   25.5370   31.0550 H   0  0  0  0  0  0  0  0  0  0  0  0
   35.5930   27.7880   29.4430 H   0  0  0  0  0  0  0  0  0  0  0  0
   36.9550   29.9020   28.6700 H   0  0  0  0  0  0  0  0  0  0  0  0
   40.6210   27.8310   31.3010 H   0  0  0  0  0  0  0  0  0  0  0  0
   40.9140   22.1750   35.4270 Cl  0  0  0  0  0  0  0  0  0  0  0  0
   39.7020   22.7590   36.5620 C   0  0  0  0  0  0  0  0  0  0  0  0
   38.4820   23.1520   36.0590 C   0  0  0  0  0  0  0  0  0  0  0  0
   37.5120   23.6140   36.9250 C   0  0  0  0  0  0  0  0  0  0  0  0
   36.5730   23.9130   36.5030 H   0  0  0  0  0  0  0  0  0  0  0  0
   37.8240   23.6560   38.2650 C   0  0  0  0  0  0  0  0  0  0  0  0
   37.0260   24.0290   38.9090 H   0  0  0  0  0  0  0  0  0  0  0  0
   39.0490   23.2630   38.7820 C   0  0  0  0  0  3  0  0  0  0  0  0
   40.0190   22.8000   37.9010 C   0  0  0  0  0  3  0  0  0  0  0  0
  1  6  1  0  0  0  0
  2  3  1  0  0  0  0
  2  1  2  0  0  0  0
  3  4  2  0  0  0  0
  4  5  1  0  0  0  0
  5 25  1  0  0  0  0
  6  5  2  0  0  0  0
  7  1  1  0  0  0  0
  8  2  1  0  0  0  0
  9 18  1  0  0  0  0
 10  9  1  0  0  0  0
 10  3  1  0  0  0  0
 11 10  2  0  0  0  0
 12 16  2  0  0  0  0
 12 11  1  0  0  0  0
 13 12  1  0  0  0  0
 14 13  1  0  0  0  0
 14 15  2  0  0  0  0
 15 16  1  0  0  0  0
 16 17  1  0  0  0  0
 17 22  1  0  0  0  0
 17  9  2  0  0  0  0
 19 11  1  0  0  0  0
 20 13  1  0  0  0  0
 21 14  1  0  0  0  0
 23 24  1  0  0  0  0
 24 31  1  0  0  0  0
 25 24  2  0  0  0  0
 25 26  1  0  0  0  0
 26 28  2  0  0  0  0
 27 26  1  0  0  0  0
 28 30  1  0  0  0  0
 28 29  1  0  0  0  0
 31 30  2  0  0  0  0
M  END
>  <minimizedAffinity>
-5.70522356

$$$$

 OpenBabel03262523303D

 31 34  0  0  0  0  0  0  0  0999 V2000
   35.4660   26.1430   31.2530 C   0  0  0  0  0  0  0  0  0  0  0  0
   35.2660   24.7650   31.1400 C   0  0  0  0  0  0  0  0  0  0  0  0
   36.2510   23.9080   31.6150 C   0  0  0  0  0  0  0  0  0  0  0  0
   37.3780   24.4440   32.1730 N   0  0  0  0  0  0  0  0  0  0  0  0
   37.5320   25.7890   32.2630 C   0  0  0  0  0  0  0  0  0  0  0  0
   36.5960   26.6260   31.8120 N   0  0  0  0  0  0  0  0  0  0  0  0
   34.6840   26.7800   30.8750 H   0  0  0  0  0  0  0  0  0  0  0  0
   34.3680   24.3210   30.6950 H   0  0  0  0  0  0  0  0  0  0  0  0
   35.0480   21.8720   32.1340 C   0  0  0  0  0  0  0  0  0  0  0  0
   36.1580   22.4580   31.5550 C   0  0  0  0  0  0  0  0  0  0  0  0
   37.1100   21.6730   30.9590 C   0  0  0  0  0  0  0  0  0  0  0  0
   36.9200   20.3000   30.9580 C   0  0  0  0  0  0  0  0  0  0  0  0
   37.7260   19.3360   30.4290 N   0  0  0  0  0  0  0  0  0  0  0  0
   37.1310   18.1520   30.6720 C   0  0  0  0  0  0  0  0  0  0  0  0
   35.9730   18.3340   31.3390 N   0  0  0  0  0  0  0  0  0  0  0  0
   35.8260   19.6670   31.5240 C   0  0  0  0  0  0  0  0  0  0  0  0
   34.8760   20.4840   32.1230 C   0  0  0  0  0  0  0  0  0  0  0  0
   34.2610   22.4360   32.6210 H   0  0  0  0  0  0  0  0  0  0  0  0
   37.9780   22.1340   30.5050 H   0  0  0  0  0  0  0  0  0  0  0  0
   38.6460   19.4300   29.9190 H   0  0  0  0  0  0  0  0  0  0  0  0
   37.4510   17.1390   30.4130 H   0  0  0  0  0  0  0  0  0  0  0  0
   34.0210   20.0110   32.5670 H   0  0  0  0  0  0  0  0  0  0  0  0
   37.4710   25.9700   35.2150 Cl  0  0  0  0  0  0  0  0  0  0  0  0
   38.8580   26.4370   34.2370 C   0  0  0  0  0  0  0  0  0  0  0  0
   38.7580   26.3040   32.8700 C   0  0  0  0  0  0  0  0  0  0  0  0
   39.8300   26.6620   32.0780 C   0  0  0  0  0  0  0  0  0  0  0  0
   39.7220   26.5470   31.0170 H   0  0  0  0  0  0  0  0  0  0  0  0
   40.9560   27.1410   32.7090 C   0  0  0  0  0  0  0  0  0  0  0  0
   41.7750   27.4100   32.0410 H   0  0  0  0  0  0  0  0  0  0  0  0
   41.0660   27.2780   34.0840 C   0  0  0  0  0  3  0  0  0  0  0  0
   39.9820   26.9140   34.8730 C   0  0  0  0  0  3  0  0  0  0  0  0
  1  6  1  0  0  0  0
  2  1  2  0  0  0  0
  2  3  1  0  0  0  0
  3  4  2  0  0  0  0
  4  5  1  0  0  0  0
  5 25  1  0  0  0  0
  6  5  2  0  0  0  0
  7  1  1  0  0  0  0
  8  2  1  0  0  0  0
  9 18  1  0  0  0  0
 10  3  1  0  0  0  0
 10  9  2  0  0  0  0
 11 10  1  0  0  0  0
 12 11  2  0  0  0  0
 12 16  1  0  0  0  0
 13 14  1  0  0  0  0
 13 12  1  0  0  0  0
 14 15  2  0  0  0  0
 15 16  1  0  0  0  0
 16 17  2  0  0  0  0
 17  9  1  0  0  0  0
 17 22  1  0  0  0  0
 19 11  1  0  0  0  0
 20 13  1  0  0  0  0
 21 14  1  0  0  0  0
 24 31  1  0  0  0  0
 24 23  1  0  0  0  0
 25 24  2  0  0  0  0
 26 28  2  0  0  0  0
 26 25  1  0  0  0  0
 27 26  1  0  0  0  0
 28 30  1  0  0  0  0
 29 28  1  0  0  0  0
 30 31  2  0  0  0  0
M  END
>  <minimizedAffinity>
-5.68711281

$$$$

 OpenBabel03262523303D

 31 34  0  0  0  0  0  0  0  0999 V2000
   35.4410   31.0090   31.5930 C   0  0  0  0  0  0  0  0  0  0  0  0
   36.0180   29.7460   31.4380 C   0  0  0  0  0  0  0  0  0  0  0  0
   35.9330   28.8420   32.4900 C   0  0  0  0  0  0  0  0  0  0  0  0
   35.2920   29.2210   33.6360 N   0  0  0  0  0  0  0  0  0  0  0  0
   34.7470   30.4580   33.7450 C   0  0  0  0  0  0  0  0  0  0  0  0
   34.8170   31.3390   32.7450 N   0  0  0  0  0  0  0  0  0  0  0  0
   35.5230   31.6860   30.7600 H   0  0  0  0  0  0  0  0  0  0  0  0
   36.5350   29.4280   30.5250 H   0  0  0  0  0  0  0  0  0  0  0  0
   37.0360   27.0050   33.6190 C   0  0  0  0  0  0  0  0  0  0  0  0
   36.4930   27.5000   32.4480 C   0  0  0  0  0  0  0  0  0  0  0  0
   36.5010   26.7290   31.3150 C   0  0  0  0  0  0  0  0  0  0  0  0
   37.0600   25.4630   31.3880 C   0  0  0  0  0  0  0  0  0  0  0  0
   37.1760   24.5320   30.3980 N   0  0  0  0  0  0  0  0  0  0  0  0
   37.7860   23.4590   30.9400 C   0  0  0  0  0  0  0  0  0  0  0  0
   38.0610   23.6810   32.2410 N   0  0  0  0  0  0  0  0  0  0  0  0
   37.6150   24.9240   32.5370 C   0  0  0  0  0  0  0  0  0  0  0  0
   37.5960   25.7250   33.6710 C   0  0  0  0  0  0  0  0  0  0  0  0
   37.0610   27.5640   34.5470 H   0  0  0  0  0  0  0  0  0  0  0  0
   36.0740   27.1180   30.3990 H   0  0  0  0  0  0  0  0  0  0  0  0
   36.8690   24.5790   29.3890 H   0  0  0  0  0  0  0  0  0  0  0  0
   38.0630   22.5060   30.4840 H   0  0  0  0  0  0  0  0  0  0  0  0
   38.0220   25.3240   34.5710 H   0  0  0  0  0  0  0  0  0  0  0  0
   36.3690   32.0760   35.6150 Cl  0  0  0  0  0  0  0  0  0  0  0  0
   34.7200   31.5580   35.9500 C   0  0  0  0  0  0  0  0  0  0  0  0
   34.0730   30.8070   34.9950 C   0  0  0  0  0  0  0  0  0  0  0  0
   32.7800   30.3860   35.2310 C   0  0  0  0  0  0  0  0  0  0  0  0
   32.3030   29.8030   34.4670 H   0  0  0  0  0  0  0  0  0  0  0  0
   32.2010   30.7460   36.4260 C   0  0  0  0  0  0  0  0  0  0  0  0
   31.1790   30.3910   36.5650 H   0  0  0  0  0  0  0  0  0  0  0  0
   32.8440   31.5030   37.3930 C   0  0  0  0  0  3  0  0  0  0  0  0
   34.1450   31.9220   37.1470 C   0  0  0  0  0  3  0  0  0  0  0  0
  1  6  1  0  0  0  0
  2  1  2  0  0  0  0
  2  3  1  0  0  0  0
  3  4  2  0  0  0  0
  4  5  1  0  0  0  0
  5 25  1  0  0  0  0
  6  5  2  0  0  0  0
  7  1  1  0  0  0  0
  8  2  1  0  0  0  0
  9 17  1  0  0  0  0
  9 18  1  0  0  0  0
 10  3  1  0  0  0  0
 10  9  2  0  0  0  0
 11 12  2  0  0  0  0
 11 10  1  0  0  0  0
 12 16  1  0  0  0  0
 13 14  1  0  0  0  0
 13 12  1  0  0  0  0
 14 15  2  0  0  0  0
 15 16  1  0  0  0  0
 16 17  2  0  0  0  0
 17 22  1  0  0  0  0
 19 11  1  0  0  0  0
 20 13  1  0  0  0  0
 21 14  1  0  0  0  0
 23 24  1  0  0  0  0
 24 31  1  0  0  0  0
 25 26  1  0  0  0  0
 25 24  2  0  0  0  0
 26 28  2  0  0  0  0
 27 26  1  0  0  0  0
 28 29  1  0  0  0  0
 28 30  1  0  0  0  0
 31 30  2  0  0  0  0
M  END
>  <minimizedAffinity>
-5.6671114

$$$$
