
 OpenBabel03272506063D

 30 32  0  0  0  0  0  0  0  0999 V2000
   34.2300   28.0510   48.6960 C   0  0  0  0  0  0  0  0  0  0  0  0
   34.8690   27.2600   49.1360 H   0  0  0  0  0  0  0  0  0  0  0  0
   34.7230   28.2730   47.7030 H   0  0  0  0  0  0  0  0  0  0  0  0
   32.8480   27.5180   48.4300 C   0  0  0  0  0  0  0  0  0  0  0  0
   32.6740   26.5900   47.3380 C   0  0  0  0  0  0  0  0  0  0  0  0
   30.9210   26.2790   47.4500 S   0  0  0  0  0  0  0  0  0  0  0  0
   30.6840   27.4190   48.9170 C   0  0  0  0  0  0  0  0  0  0  0  0
   31.7870   27.8350   49.1180 N   0  0  0  0  0  0  0  0  0  0  0  0
   33.4110   26.2270   46.6850 H   0  0  0  0  0  0  0  0  0  0  0  0
   29.0080   29.2920   47.4290 Cl  0  0  0  0  0  0  0  0  0  0  0  0
   28.5160   28.5440   48.9250 C   0  0  0  0  0  0  0  0  0  0  0  0
   29.3520   27.6620   49.5900 C   0  0  0  0  0  0  0  0  0  0  0  0
   29.1200   27.0010   50.7530 C   0  0  0  0  0  0  0  0  0  0  0  0
   29.8550   26.3330   51.1770 H   0  0  0  0  0  0  0  0  0  0  0  0
   27.9000   27.2350   51.3550 C   0  0  0  0  0  0  0  0  0  0  0  0
   27.6720   26.7280   52.2840 H   0  0  0  0  0  0  0  0  0  0  0  0
   27.0060   28.1010   50.7590 C   0  0  0  0  0  0  0  0  0  0  0  0
   27.3150   28.7360   49.5730 C   0  0  0  0  0  0  0  0  0  0  0  0
   34.2040   29.2950   49.5100 C   0  0  0  0  0  0  0  0  0  0  0  0
   34.2940   29.0000   50.5940 H   0  0  0  0  0  0  0  0  0  0  0  0
   33.2660   29.8620   49.4040 H   0  0  0  0  0  0  0  0  0  0  0  0
   37.0890   31.6130   49.8320 C   0  0  0  0  0  0  0  0  0  0  0  0
   37.5940   31.6540   48.5160 C   0  0  0  0  0  0  0  0  0  0  0  0
   36.9360   30.8830   47.5400 C   0  0  0  0  0  0  0  0  0  0  0  0
   35.8590   30.1560   47.9370 N   0  0  0  0  0  0  0  0  0  0  0  0
   35.4120   30.1480   49.2060 C   0  0  0  0  0  0  0  0  0  0  0  0
   36.0070   30.8600   50.1480 N   0  0  0  0  0  0  0  0  0  0  0  0
   37.6150   32.2130   50.5480 H   0  0  0  0  0  0  0  0  0  0  0  0
   38.4590   32.2600   48.2820 H   0  0  0  0  0  0  0  0  0  0  0  0
   37.3110   30.9050   46.5300 H   0  0  0  0  0  0  0  0  0  0  0  0
  1  2  1  0  0  0  0
  1 19  1  0  0  0  0
  3  1  1  0  0  0  0
  4  1  1  0  0  0  0
  4  8  1  0  0  0  0
  5  6  1  0  0  0  0
  5  4  2  0  0  0  0
  6  7  1  0  0  0  0
  7  8  2  0  0  0  0
  7 12  1  0  0  0  0
  9  5  1  0  0  0  0
 10 11  1  0  0  0  0
 11 18  2  0  0  0  0
 11 12  1  0  0  0  0
 12 13  2  0  0  0  0
 13 14  1  0  0  0  0
 13 15  1  0  0  0  0
 15 16  1  0  0  0  0
 17 15  2  0  0  0  0
 18 17  1  0  0  0  0
 19 20  1  0  0  0  0
 21 19  1  0  0  0  0
 22 27  1  0  0  0  0
 22 28  1  0  0  0  0
 23 22  2  0  0  0  0
 24 25  2  0  0  0  0
 24 23  1  0  0  0  0
 25 26  1  0  0  0  0
 26 19  1  0  0  0  0
 26 27  2  0  0  0  0
 29 23  1  0  0  0  0
 30 24  1  0  0  0  0
M  END
>  <minimizedAffinity>
-5.8971262

>  <minimizedRMSD>
2.56398273

$$$$
