
 OpenBabel03272501333D

 27 29  0  0  1  0  0  0  0  0999 V2000
   37.7540   26.2880   34.6360 C   0  0  2  0  0  0  0  0  0  0  0  0
   39.1850   26.8620   34.9700 C   0  0  0  0  0  0  0  0  0  0  0  0
   38.8620   25.3800   34.8950 C   0  0  1  0  0  0  0  0  0  0  0  0
   37.0900   26.8200   35.3680 H   0  0  0  0  0  0  0  0  0  0  0  0
   39.3820   27.2000   35.9800 H   0  0  0  0  0  0  0  0  0  0  0  0
   39.7330   27.3690   34.1860 H   0  0  0  0  0  0  0  0  0  0  0  0
   39.3040   24.9380   33.9500 H   0  0  0  0  0  0  0  0  0  0  0  0
   40.9480   23.1050   35.1830 Cl  0  0  0  0  0  0  0  0  0  0  0  0
   39.8170   23.4990   36.4280 C   0  0  0  0  0  0  0  0  0  0  0  0
   38.9730   24.5430   36.1130 C   0  0  0  0  0  0  0  0  0  0  0  0
   38.0300   24.9290   37.0650 C   0  0  0  0  0  0  0  0  0  0  0  0
   37.2930   25.7350   36.9680 H   0  0  0  0  0  0  0  0  0  0  0  0
   37.9370   24.2860   38.2930 C   0  0  0  0  0  0  0  0  0  0  0  0
   37.2130   24.5610   39.0590 H   0  0  0  0  0  0  0  0  0  0  0  0
   38.7750   23.2550   38.5950 C   0  0  0  0  0  3  0  0  0  0  0  0
   39.6950   22.8850   37.6560 C   0  0  0  0  0  3  0  0  0  0  0  0
   37.4100   26.6760   33.2310 C   0  0  0  0  0  0  0  0  0  0  0  0
   37.7740   27.8360   32.8170 O   0  0  0  0  0  0  0  0  0  0  0  0
   36.3610   23.5090   31.5340 C   0  0  0  0  0  0  0  0  0  0  0  0
   37.0200   24.4200   32.3400 C   0  0  0  0  0  0  0  0  0  0  0  0
   36.6830   25.7510   32.3970 C   0  0  0  0  0  0  0  0  0  0  0  0
   35.6670   26.1250   31.6200 N   0  0  0  0  0  0  0  0  0  0  0  0
   35.0130   25.2470   30.8270 C   0  0  0  0  0  0  0  0  0  0  0  0
   35.3410   23.9480   30.7720 N   0  0  0  0  0  0  0  0  0  0  0  0
   36.6740   22.4720   31.5330 H   0  0  0  0  0  0  0  0  0  0  0  0
   37.8390   24.0290   32.9420 H   0  0  0  0  0  0  0  0  0  0  0  0
   34.2010   25.7130   30.2490 H   0  0  0  0  0  0  0  0  0  0  0  0
  1  3  1  0  0  0  0
  1  2  1  0  0  0  0
  1  4  1  1  0  0  0
  2  5  1  0  0  0  0
  3  7  1  6  0  0  0
  3  2  1  0  0  0  0
  3 10  1  0  0  0  0
  6  2  1  0  0  0  0
  8  9  1  0  0  0  0
  9 16  1  0  0  0  0
 10  9  2  0  0  0  0
 10 11  1  0  0  0  0
 11 13  2  0  0  0  0
 12 11  1  0  0  0  0
 13 15  1  0  0  0  0
 13 14  1  0  0  0  0
 16 15  2  0  0  0  0
 17  1  1  0  0  0  0
 18 17  2  0  0  0  0
 19 20  1  0  0  0  0
 20 21  2  0  0  0  0
 20 26  1  0  0  0  0
 21 17  1  0  0  0  0
 22 21  1  0  0  0  0
 23 22  2  0  0  0  0
 24 23  1  0  0  0  0
 24 19  2  0  0  0  0
 25 19  1  0  0  0  0
 27 23  1  0  0  0  0
M  END
>  <minimizedAffinity>
-5.17293167

$$$$

 OpenBabel03272501333D

 27 29  0  0  1  0  0  0  0  0999 V2000
   37.6160   26.3800   34.7740 C   0  0  2  0  0  0  0  0  0  0  0  0
   39.1640   26.6760   34.7250 C   0  0  0  0  0  0  0  0  0  0  0  0
   38.5700   25.2840   34.8480 C   0  0  1  0  0  0  0  0  0  0  0  0
   37.2530   27.0590   35.5910 H   0  0  0  0  0  0  0  0  0  0  0  0
   39.6550   27.0080   35.6320 H   0  0  0  0  0  0  0  0  0  0  0  0
   39.5910   27.0370   33.7970 H   0  0  0  0  0  0  0  0  0  0  0  0
   38.6870   24.7290   33.8670 H   0  0  0  0  0  0  0  0  0  0  0  0
   40.7570   23.0940   35.0150 Cl  0  0  0  0  0  0  0  0  0  0  0  0
   39.7230   23.4840   36.3420 C   0  0  0  0  0  0  0  0  0  0  0  0
   38.8170   24.4880   36.0740 C   0  0  0  0  0  0  0  0  0  0  0  0
   37.9460   24.8690   37.0930 C   0  0  0  0  0  0  0  0  0  0  0  0
   37.1730   25.6450   37.0390 H   0  0  0  0  0  0  0  0  0  0  0  0
   37.9820   24.2600   38.3420 C   0  0  0  0  0  0  0  0  0  0  0  0
   37.3160   24.5330   39.1600 H   0  0  0  0  0  0  0  0  0  0  0  0
   38.8810   23.2690   38.5970 C   0  0  0  0  0  3  0  0  0  0  0  0
   39.7300   22.9030   37.5930 C   0  0  0  0  0  3  0  0  0  0  0  0
   37.0210   26.7740   33.4560 C   0  0  0  0  0  0  0  0  0  0  0  0
   36.9620   25.8860   32.5300 O   0  0  0  0  0  0  0  0  0  0  0  0
   35.4670   30.1100   34.1400 C   0  0  0  0  0  0  0  0  0  0  0  0
   35.9570   28.8250   34.2920 C   0  0  0  0  0  0  0  0  0  0  0  0
   36.5440   28.1210   33.2680 C   0  0  0  0  0  0  0  0  0  0  0  0
   36.6170   28.7560   32.0980 N   0  0  0  0  0  0  0  0  0  0  0  0
   36.1440   30.0110   31.9340 C   0  0  0  0  0  0  0  0  0  0  0  0
   35.5710   30.6970   32.9330 N   0  0  0  0  0  0  0  0  0  0  0  0
   35.0150   30.6120   34.9870 H   0  0  0  0  0  0  0  0  0  0  0  0
   35.8550   28.3820   35.2820 H   0  0  0  0  0  0  0  0  0  0  0  0
   36.2800   30.3900   30.9100 H   0  0  0  0  0  0  0  0  0  0  0  0
  1  3  1  0  0  0  0
  1  4  1  1  0  0  0
  2  1  1  0  0  0  0
  2  3  1  0  0  0  0
  2  5  1  0  0  0  0
  3  7  1  6  0  0  0
  3 10  1  0  0  0  0
  6  2  1  0  0  0  0
  8  9  1  0  0  0  0
  9 16  1  0  0  0  0
 10  9  2  0  0  0  0
 10 11  1  0  0  0  0
 11 13  2  0  0  0  0
 12 11  1  0  0  0  0
 13 15  1  0  0  0  0
 13 14  1  0  0  0  0
 16 15  2  0  0  0  0
 17  1  1  0  0  0  0
 18 17  2  0  0  0  0
 19 20  1  0  0  0  0
 19 25  1  0  0  0  0
 20 26  1  0  0  0  0
 21 17  1  0  0  0  0
 21 20  2  0  0  0  0
 22 21  1  0  0  0  0
 23 22  2  0  0  0  0
 23 24  1  0  0  0  0
 24 19  2  0  0  0  0
 27 23  1  0  0  0  0
M  END
>  <minimizedAffinity>
-5.0772171

$$$$

 OpenBabel03272501333D

 27 29  0  0  1  0  0  0  0  0999 V2000
   38.4700   25.5950   35.2580 C   0  0  2  0  0  0  0  0  0  0  0  0
   38.4830   26.9350   36.0890 C   0  0  0  0  0  0  0  0  0  0  0  0
   37.3300   26.4980   35.2020 C   0  0  1  0  0  0  0  0  0  0  0  0
   39.4360   25.6400   34.6880 H   0  0  0  0  0  0  0  0  0  0  0  0
   39.0240   27.7850   35.6900 H   0  0  0  0  0  0  0  0  0  0  0  0
   38.4310   26.8720   37.1690 H   0  0  0  0  0  0  0  0  0  0  0  0
   36.4610   26.1560   35.8440 H   0  0  0  0  0  0  0  0  0  0  0  0
   38.0430   25.6280   32.3140 Cl  0  0  0  0  0  0  0  0  0  0  0  0
   37.2030   27.0950   32.6670 C   0  0  0  0  0  0  0  0  0  0  0  0
   36.9750   27.3050   34.0110 C   0  0  0  0  0  0  0  0  0  0  0  0
   36.2990   28.4650   34.3840 C   0  0  0  0  0  0  0  0  0  0  0  0
   36.0420   28.7750   35.4040 H   0  0  0  0  0  0  0  0  0  0  0  0
   35.8660   29.3870   33.4380 C   0  0  0  0  0  0  0  0  0  0  0  0
   35.3360   30.3030   33.6940 H   0  0  0  0  0  0  0  0  0  0  0  0
   36.0960   29.1710   32.1130 C   0  0  0  0  0  3  0  0  0  0  0  0
   36.7590   28.0310   31.7570 C   0  0  0  0  0  3  0  0  0  0  0  0
   38.4760   24.4460   36.2190 C   0  0  0  0  0  0  0  0  0  0  0  0
   37.4040   24.2110   36.8870 O   0  0  0  0  0  0  0  0  0  0  0  0
   41.9050   23.0600   35.6370 C   0  0  0  0  0  0  0  0  0  0  0  0
   40.7520   23.8200   35.5370 C   0  0  0  0  0  0  0  0  0  0  0  0
   39.6710   23.6530   36.3690 C   0  0  0  0  0  0  0  0  0  0  0  0
   39.7940   22.7020   37.2940 N   0  0  0  0  0  0  0  0  0  0  0  0
   40.9130   21.9520   37.4040 C   0  0  0  0  0  0  0  0  0  0  0  0
   41.9680   22.1150   36.5930 N   0  0  0  0  0  0  0  0  0  0  0  0
   42.7230   23.2410   34.9510 H   0  0  0  0  0  0  0  0  0  0  0  0
   40.7360   24.5740   34.7520 H   0  0  0  0  0  0  0  0  0  0  0  0
   40.8550   21.2120   38.2160 H   0  0  0  0  0  0  0  0  0  0  0  0
  1  4  1  6  0  0  0
  1  2  1  0  0  0  0
  1 17  1  0  0  0  0
  2  6  1  0  0  0  0
  3  1  1  0  0  0  0
  3  7  1  1  0  0  0
  3  2  1  0  0  0  0
  5  2  1  0  0  0  0
  8  9  1  0  0  0  0
  9 10  1  0  0  0  0
 10 11  2  0  0  0  0
 10  3  1  0  0  0  0
 11 12  1  0  0  0  0
 13 14  1  0  0  0  0
 13 11  1  0  0  0  0
 15 13  2  0  0  0  0
 16 15  1  0  0  0  0
 16  9  2  0  0  0  0
 17 21  1  0  0  0  0
 17 18  2  0  0  0  0
 19 24  1  0  0  0  0
 20 19  2  0  0  0  0
 20 21  1  0  0  0  0
 21 22  2  0  0  0  0
 22 23  1  0  0  0  0
 23 27  1  0  0  0  0
 24 23  2  0  0  0  0
 25 19  1  0  0  0  0
 26 20  1  0  0  0  0
M  END
>  <minimizedAffinity>
-5.01047421

$$$$

 OpenBabel03272501333D

 27 29  0  0  1  0  0  0  0  0999 V2000
   37.2980   26.5730   34.9260 C   0  0  2  0  0  0  0  0  0  0  0  0
   38.4590   27.3790   35.6260 C   0  0  0  0  0  0  0  0  0  0  0  0
   38.5750   25.9270   35.1950 C   0  0  1  0  0  0  0  0  0  0  0  0
   36.4270   26.7310   35.6160 H   0  0  0  0  0  0  0  0  0  0  0  0
   38.4280   27.4990   36.7030 H   0  0  0  0  0  0  0  0  0  0  0  0
   38.9350   28.1800   35.0750 H   0  0  0  0  0  0  0  0  0  0  0  0
   39.2360   25.8520   34.2780 H   0  0  0  0  0  0  0  0  0  0  0  0
   40.5410   23.5610   34.8190 Cl  0  0  0  0  0  0  0  0  0  0  0  0
   39.5750   23.7560   36.2370 C   0  0  0  0  0  0  0  0  0  0  0  0
   38.7650   24.8730   36.2180 C   0  0  0  0  0  0  0  0  0  0  0  0
   37.9540   25.1080   37.3270 C   0  0  0  0  0  0  0  0  0  0  0  0
   37.2600   25.9460   37.4660 H   0  0  0  0  0  0  0  0  0  0  0  0
   37.9550   24.2490   38.4200 C   0  0  0  0  0  0  0  0  0  0  0  0
   37.3340   24.4030   39.3020 H   0  0  0  0  0  0  0  0  0  0  0  0
   38.7570   23.1490   38.4290 C   0  0  0  0  0  3  0  0  0  0  0  0
   39.5480   22.9260   37.3380 C   0  0  0  0  0  3  0  0  0  0  0  0
   37.0340   27.1950   33.5900 C   0  0  0  0  0  0  0  0  0  0  0  0
   36.2450   28.2080   33.5390 O   0  0  0  0  0  0  0  0  0  0  0  0
   39.2180   26.8520   30.5690 C   0  0  0  0  0  0  0  0  0  0  0  0
   38.6140   27.3410   31.7140 C   0  0  0  0  0  0  0  0  0  0  0  0
   37.6590   26.6430   32.4140 C   0  0  0  0  0  0  0  0  0  0  0  0
   37.3390   25.4470   31.9200 N   0  0  0  0  0  0  0  0  0  0  0  0
   37.9200   24.9550   30.8030 C   0  0  0  0  0  0  0  0  0  0  0  0
   38.8520   25.6360   30.1210 N   0  0  0  0  0  0  0  0  0  0  0  0
   39.9650   27.4500   30.0630 H   0  0  0  0  0  0  0  0  0  0  0  0
   38.9350   28.3270   32.0470 H   0  0  0  0  0  0  0  0  0  0  0  0
   37.5460   23.9580   30.5290 H   0  0  0  0  0  0  0  0  0  0  0  0
  1  3  1  0  0  0  0
  1  4  1  1  0  0  0
  1  2  1  0  0  0  0
  2  5  1  0  0  0  0
  3  7  1  6  0  0  0
  3  2  1  0  0  0  0
  3 10  1  0  0  0  0
  6  2  1  0  0  0  0
  8  9  1  0  0  0  0
  9 16  1  0  0  0  0
 10  9  2  0  0  0  0
 10 11  1  0  0  0  0
 11 12  1  0  0  0  0
 11 13  2  0  0  0  0
 13 15  1  0  0  0  0
 13 14  1  0  0  0  0
 16 15  2  0  0  0  0
 17  1  1  0  0  0  0
 18 17  2  0  0  0  0
 19 20  1  0  0  0  0
 20 26  1  0  0  0  0
 20 21  2  0  0  0  0
 21 17  1  0  0  0  0
 22 21  1  0  0  0  0
 23 22  2  0  0  0  0
 24 19  2  0  0  0  0
 24 23  1  0  0  0  0
 25 19  1  0  0  0  0
 27 23  1  0  0  0  0
M  END
>  <minimizedAffinity>
-4.94295216

$$$$

 OpenBabel03272501333D

 27 29  0  0  1  0  0  0  0  0999 V2000
   38.6630   25.7810   34.9570 C   0  0  2  0  0  0  0  0  0  0  0  0
   38.7240   27.1700   35.7030 C   0  0  0  0  0  0  0  0  0  0  0  0
   37.6020   26.7590   34.7660 C   0  0  1  0  0  0  0  0  0  0  0  0
   39.6650   25.7180   34.4550 H   0  0  0  0  0  0  0  0  0  0  0  0
   39.3540   27.9490   35.2920 H   0  0  0  0  0  0  0  0  0  0  0  0
   38.5960   27.1830   36.7780 H   0  0  0  0  0  0  0  0  0  0  0  0
   36.6690   26.5250   35.3650 H   0  0  0  0  0  0  0  0  0  0  0  0
   35.4040   28.9220   34.4490 Cl  0  0  0  0  0  0  0  0  0  0  0  0
   36.4800   28.4880   33.1690 C   0  0  0  0  0  0  0  0  0  0  0  0
   37.3900   27.5080   33.5050 C   0  0  0  0  0  0  0  0  0  0  0  0
   38.2990   27.1010   32.5300 C   0  0  0  0  0  0  0  0  0  0  0  0
   39.0800   26.3380   32.6390 H   0  0  0  0  0  0  0  0  0  0  0  0
   38.2940   27.6590   31.2570 C   0  0  0  0  0  0  0  0  0  0  0  0
   38.9890   27.3640   30.4720 H   0  0  0  0  0  0  0  0  0  0  0  0
   37.3910   28.6260   30.9340 C   0  0  0  0  0  3  0  0  0  0  0  0
   36.5040   29.0190   31.8960 C   0  0  0  0  0  3  0  0  0  0  0  0
   38.5170   24.7020   35.9860 C   0  0  0  0  0  0  0  0  0  0  0  0
   37.3870   24.5880   36.5860 O   0  0  0  0  0  0  0  0  0  0  0  0
   41.8520   23.0210   35.7260 C   0  0  0  0  0  0  0  0  0  0  0  0
   40.7690   23.8520   35.4950 C   0  0  0  0  0  0  0  0  0  0  0  0
   39.6360   23.8390   36.2720 C   0  0  0  0  0  0  0  0  0  0  0  0
   39.6350   22.9670   37.2790 N   0  0  0  0  0  0  0  0  0  0  0  0
   40.6850   22.1490   37.5190 C   0  0  0  0  0  0  0  0  0  0  0  0
   41.7910   22.1620   36.7610 N   0  0  0  0  0  0  0  0  0  0  0  0
   42.7170   23.0800   35.0780 H   0  0  0  0  0  0  0  0  0  0  0  0
   40.8540   24.5340   34.6500 H   0  0  0  0  0  0  0  0  0  0  0  0
   40.5260   21.4900   38.3850 H   0  0  0  0  0  0  0  0  0  0  0  0
  1  4  1  6  0  0  0
  1  2  1  0  0  0  0
  1 17  1  0  0  0  0
  2  6  1  0  0  0  0
  3  1  1  0  0  0  0
  3  7  1  1  0  0  0
  3  2  1  0  0  0  0
  5  2  1  0  0  0  0
  9 10  1  0  0  0  0
  9  8  1  0  0  0  0
 10  3  1  0  0  0  0
 11 12  1  0  0  0  0
 11 10  2  0  0  0  0
 13 11  1  0  0  0  0
 14 13  1  0  0  0  0
 15 13  2  0  0  0  0
 15 16  1  0  0  0  0
 16  9  2  0  0  0  0
 17 21  1  0  0  0  0
 17 18  2  0  0  0  0
 19 24  1  0  0  0  0
 20 19  2  0  0  0  0
 20 21  1  0  0  0  0
 21 22  2  0  0  0  0
 22 23  1  0  0  0  0
 23 27  1  0  0  0  0
 24 23  2  0  0  0  0
 25 19  1  0  0  0  0
 26 20  1  0  0  0  0
M  END
>  <minimizedAffinity>
-4.91574192

$$$$

 OpenBabel03272501333D

 27 29  0  0  1  0  0  0  0  0999 V2000
   38.5330   22.2060   35.0820 C   0  0  2  0  0  0  0  0  0  0  0  0
   39.4600   21.8460   33.8580 C   0  0  0  0  0  0  0  0  0  0  0  0
   38.1570   22.6170   33.7370 C   0  0  1  0  0  0  0  0  0  0  0  0
   38.3820   21.2150   35.5870 H   0  0  0  0  0  0  0  0  0  0  0  0
   39.4000   20.8470   33.4420 H   0  0  0  0  0  0  0  0  0  0  0  0
   40.4240   22.3330   33.7800 H   0  0  0  0  0  0  0  0  0  0  0  0
   38.3760   23.7090   33.5290 H   0  0  0  0  0  0  0  0  0  0  0  0
   37.3720   23.5540   30.8890 Cl  0  0  0  0  0  0  0  0  0  0  0  0
   36.5240   22.3060   31.7290 C   0  0  0  0  0  0  0  0  0  0  0  0
   37.0250   22.0290   32.9830 C   0  0  0  0  0  0  0  0  0  0  0  0
   36.4000   21.0300   33.7290 C   0  0  0  0  0  0  0  0  0  0  0  0
   36.6770   20.6940   34.7350 H   0  0  0  0  0  0  0  0  0  0  0  0
   35.3060   20.3330   33.2310 C   0  0  0  0  0  0  0  0  0  0  0  0
   34.7940   19.5480   33.7870 H   0  0  0  0  0  0  0  0  0  0  0  0
   34.8170   20.6140   31.9920 C   0  0  0  0  0  3  0  0  0  0  0  0
   35.4360   21.5940   31.2680 C   0  0  0  0  0  3  0  0  0  0  0  0
   39.2810   23.1460   35.9760 C   0  0  0  0  0  0  0  0  0  0  0  0
   39.9900   22.6450   36.9230 O   0  0  0  0  0  0  0  0  0  0  0  0
   40.0970   26.6240   34.8570 C   0  0  0  0  0  0  0  0  0  0  0  0
   40.1490   25.2570   35.0670 C   0  0  0  0  0  0  0  0  0  0  0  0
   39.1800   24.5670   35.7560 C   0  0  0  0  0  0  0  0  0  0  0  0
   38.1680   25.3000   36.2190 N   0  0  0  0  0  0  0  0  0  0  0  0
   38.1020   26.6350   36.0220 C   0  0  0  0  0  0  0  0  0  0  0  0
   39.0470   27.3080   35.3500 N   0  0  0  0  0  0  0  0  0  0  0  0
   40.8920   27.1090   34.3040 H   0  0  0  0  0  0  0  0  0  0  0  0
   41.0120   24.7370   34.6540 H   0  0  0  0  0  0  0  0  0  0  0  0
   37.2060   27.0910   36.4680 H   0  0  0  0  0  0  0  0  0  0  0  0
  1  4  1  1  0  0  0
  1 17  1  0  0  0  0
  2  1  1  0  0  0  0
  3  7  1  6  0  0  0
  3  2  1  0  0  0  0
  3  1  1  0  0  0  0
  5  2  1  0  0  0  0
  6  2  1  0  0  0  0
  8  9  1  0  0  0  0
  9 10  1  0  0  0  0
 10 11  2  0  0  0  0
 10  3  1  0  0  0  0
 11 12  1  0  0  0  0
 13 11  1  0  0  0  0
 13 14  1  0  0  0  0
 15 13  2  0  0  0  0
 16  9  2  0  0  0  0
 16 15  1  0  0  0  0
 17 18  2  0  0  0  0
 19 20  2  0  0  0  0
 19 24  1  0  0  0  0
 20 21  1  0  0  0  0
 21 17  1  0  0  0  0
 21 22  2  0  0  0  0
 23 22  1  0  0  0  0
 23 27  1  0  0  0  0
 24 23  2  0  0  0  0
 25 19  1  0  0  0  0
 26 20  1  0  0  0  0
M  END
>  <minimizedAffinity>
-4.78201532

$$$$

 OpenBabel03272501333D

 27 29  0  0  1  0  0  0  0  0999 V2000
   38.6100   23.1370   33.2550 C   0  0  2  0  0  0  0  0  0  0  0  0
   37.4150   23.9680   32.6480 C   0  0  0  0  0  0  0  0  0  0  0  0
   37.2360   22.7440   33.5300 C   0  0  1  0  0  0  0  0  0  0  0  0
   39.2440   22.9100   32.3560 H   0  0  0  0  0  0  0  0  0  0  0  0
   37.1330   23.7890   31.6170 H   0  0  0  0  0  0  0  0  0  0  0  0
   37.2440   24.9710   33.0180 H   0  0  0  0  0  0  0  0  0  0  0  0
   36.8810   23.0620   34.5590 H   0  0  0  0  0  0  0  0  0  0  0  0
   35.6360   20.7430   35.2740 Cl  0  0  0  0  0  0  0  0  0  0  0  0
   35.8620   20.5290   33.5750 C   0  0  0  0  0  0  0  0  0  0  0  0
   36.6000   21.5270   32.9740 C   0  0  0  0  0  0  0  0  0  0  0  0
   36.8270   21.4340   31.6020 C   0  0  0  0  0  0  0  0  0  0  0  0
   37.3900   22.1410   30.9810 H   0  0  0  0  0  0  0  0  0  0  0  0
   36.3310   20.3710   30.8570 C   0  0  0  0  0  0  0  0  0  0  0  0
   36.4910   20.2670   29.7840 H   0  0  0  0  0  0  0  0  0  0  0  0
   35.6040   19.3890   31.4590 C   0  0  0  0  0  3  0  0  0  0  0  0
   35.3870   19.4890   32.8030 C   0  0  0  0  0  3  0  0  0  0  0  0
   39.3510   24.0150   34.2160 C   0  0  0  0  0  0  0  0  0  0  0  0
   40.1240   24.9210   33.7350 O   0  0  0  0  0  0  0  0  0  0  0  0
   39.8410   22.7170   37.6930 C   0  0  0  0  0  0  0  0  0  0  0  0
   39.9890   22.9520   36.3370 C   0  0  0  0  0  0  0  0  0  0  0  0
   39.1830   23.8150   35.6340 C   0  0  0  0  0  0  0  0  0  0  0  0
   38.2330   24.4250   36.3410 N   0  0  0  0  0  0  0  0  0  0  0  0
   38.0760   24.2080   37.6660 C   0  0  0  0  0  0  0  0  0  0  0  0
   38.8630   23.3660   38.3520 N   0  0  0  0  0  0  0  0  0  0  0  0
   40.5090   22.0250   38.1910 H   0  0  0  0  0  0  0  0  0  0  0  0
   40.7900   22.4100   35.8370 H   0  0  0  0  0  0  0  0  0  0  0  0
   37.2490   24.7880   38.1010 H   0  0  0  0  0  0  0  0  0  0  0  0
  1  4  1  6  0  0  0
  1  3  1  0  0  0  0
  1 17  1  0  0  0  0
  2  6  1  0  0  0  0
  2  1  1  0  0  0  0
  2  3  1  0  0  0  0
  3  7  1  1  0  0  0
  5  2  1  0  0  0  0
  9  8  1  0  0  0  0
 10  3  1  0  0  0  0
 10  9  1  0  0  0  0
 11 10  2  0  0  0  0
 12 11  1  0  0  0  0
 13 15  2  0  0  0  0
 13 11  1  0  0  0  0
 14 13  1  0  0  0  0
 15 16  1  0  0  0  0
 16  9  2  0  0  0  0
 17 21  1  0  0  0  0
 18 17  2  0  0  0  0
 19 25  1  0  0  0  0
 19 24  1  0  0  0  0
 20 19  2  0  0  0  0
 21 20  1  0  0  0  0
 21 22  2  0  0  0  0
 22 23  1  0  0  0  0
 23 27  1  0  0  0  0
 23 24  2  0  0  0  0
 26 20  1  0  0  0  0
M  END
>  <minimizedAffinity>
-4.72588825

$$$$

 OpenBabel03272501333D

 27 29  0  0  1  0  0  0  0  0999 V2000
   39.0780   26.7510   34.4320 C   0  0  2  0  0  0  0  0  0  0  0  0
   38.4680   27.4500   35.7080 C   0  0  0  0  0  0  0  0  0  0  0  0
   37.6340   26.8430   34.5930 C   0  0  1  0  0  0  0  0  0  0  0  0
   39.7960   27.5200   34.0400 H   0  0  0  0  0  0  0  0  0  0  0  0
   38.4200   28.5320   35.7300 H   0  0  0  0  0  0  0  0  0  0  0  0
   38.5840   26.9620   36.6680 H   0  0  0  0  0  0  0  0  0  0  0  0
   37.1650   25.8750   34.9500 H   0  0  0  0  0  0  0  0  0  0  0  0
   37.0940   26.3140   31.5870 Cl  0  0  0  0  0  0  0  0  0  0  0  0
   36.4120   27.6530   32.4370 C   0  0  0  0  0  0  0  0  0  0  0  0
   36.7670   27.7170   33.7680 C   0  0  0  0  0  0  0  0  0  0  0  0
   36.2560   28.7660   34.5300 C   0  0  0  0  0  0  0  0  0  0  0  0
   36.4420   28.9560   35.5940 H   0  0  0  0  0  0  0  0  0  0  0  0
   35.4170   29.7240   33.9720 C   0  0  0  0  0  0  0  0  0  0  0  0
   35.0010   30.5560   34.5380 H   0  0  0  0  0  0  0  0  0  0  0  0
   35.0720   29.6540   32.6570 C   0  0  0  0  0  3  0  0  0  0  0  0
   35.5770   28.6210   31.9190 C   0  0  0  0  0  3  0  0  0  0  0  0
   39.8100   25.5210   34.8750 C   0  0  0  0  0  0  0  0  0  0  0  0
   41.0830   25.5970   35.0240 O   0  0  0  0  0  0  0  0  0  0  0  0
   38.0320   22.2830   34.2720 C   0  0  0  0  0  0  0  0  0  0  0  0
   38.7560   23.4470   34.0850 C   0  0  0  0  0  0  0  0  0  0  0  0
   39.0740   24.3040   35.1120 C   0  0  0  0  0  0  0  0  0  0  0  0
   38.6380   23.9480   36.3190 N   0  0  0  0  0  0  0  0  0  0  0  0
   37.9300   22.8130   36.5180 C   0  0  0  0  0  0  0  0  0  0  0  0
   37.6200   21.9770   35.5170 N   0  0  0  0  0  0  0  0  0  0  0  0
   37.8140   21.6490   33.4220 H   0  0  0  0  0  0  0  0  0  0  0  0
   39.0720   23.6620   33.0660 H   0  0  0  0  0  0  0  0  0  0  0  0
   37.6460   22.6640   37.5700 H   0  0  0  0  0  0  0  0  0  0  0  0
  1  4  1  6  0  0  0
  1  3  1  0  0  0  0
  1 17  1  0  0  0  0
  1  2  1  0  0  0  0
  2  5  1  0  0  0  0
  2  6  1  0  0  0  0
  3  7  1  1  0  0  0
  3  2  1  0  0  0  0
  8  9  1  0  0  0  0
  9 10  1  0  0  0  0
 10 11  2  0  0  0  0
 10  3  1  0  0  0  0
 11 12  1  0  0  0  0
 13 11  1  0  0  0  0
 13 14  1  0  0  0  0
 15 13  2  0  0  0  0
 16  9  2  0  0  0  0
 16 15  1  0  0  0  0
 17 18  2  0  0  0  0
 17 21  1  0  0  0  0
 19 24  1  0  0  0  0
 20 19  2  0  0  0  0
 20 21  1  0  0  0  0
 21 22  2  0  0  0  0
 22 23  1  0  0  0  0
 23 27  1  0  0  0  0
 24 23  2  0  0  0  0
 25 19  1  0  0  0  0
 26 20  1  0  0  0  0
M  END
>  <minimizedAffinity>
-4.70360804

$$$$

 OpenBabel03272501333D

 27 29  0  0  1  0  0  0  0  0999 V2000
   35.9120   28.8600   32.7310 C   0  0  2  0  0  0  0  0  0  0  0  0
   34.3810   29.2310   32.7990 C   0  0  0  0  0  0  0  0  0  0  0  0
   35.4930   30.2470   32.6020 C   0  0  1  0  0  0  0  0  0  0  0  0
   36.0680   28.2520   33.6620 H   0  0  0  0  0  0  0  0  0  0  0  0
   33.9100   29.3040   33.7720 H   0  0  0  0  0  0  0  0  0  0  0  0
   33.7390   28.9200   31.9840 H   0  0  0  0  0  0  0  0  0  0  0  0
   35.4920   30.6130   31.5290 H   0  0  0  0  0  0  0  0  0  0  0  0
   36.5000   33.0990   31.9240 Cl  0  0  0  0  0  0  0  0  0  0  0  0
   36.1760   32.5830   33.5400 C   0  0  0  0  0  0  0  0  0  0  0  0
   35.7330   31.2800   33.6370 C   0  0  0  0  0  0  0  0  0  0  0  0
   35.4440   30.7830   34.9070 C   0  0  0  0  0  0  0  0  0  0  0  0
   35.0840   29.7760   35.1510 H   0  0  0  0  0  0  0  0  0  0  0  0
   35.5960   31.5690   36.0430 C   0  0  0  0  0  0  0  0  0  0  0  0
   35.3800   31.2120   37.0500 H   0  0  0  0  0  0  0  0  0  0  0  0
   36.0350   32.8530   35.9380 C   0  0  0  0  0  3  0  0  0  0  0  0
   36.3150   33.3320   34.6900 C   0  0  0  0  0  3  0  0  0  0  0  0
   36.1390   28.0230   31.5100 C   0  0  0  0  0  0  0  0  0  0  0  0
   36.3110   28.6250   30.3880 O   0  0  0  0  0  0  0  0  0  0  0  0
   37.1420   24.5600   32.5150 C   0  0  0  0  0  0  0  0  0  0  0  0
   37.0850   25.9380   32.3990 C   0  0  0  0  0  0  0  0  0  0  0  0
   36.1520   26.5860   31.6260 C   0  0  0  0  0  0  0  0  0  0  0  0
   35.2900   25.8020   30.9800 N   0  0  0  0  0  0  0  0  0  0  0  0
   35.3320   24.4550   31.0830 C   0  0  0  0  0  0  0  0  0  0  0  0
   36.2410   23.8220   31.8380 N   0  0  0  0  0  0  0  0  0  0  0  0
   37.9010   24.1080   33.1420 H   0  0  0  0  0  0  0  0  0  0  0  0
   37.8280   26.5010   32.9600 H   0  0  0  0  0  0  0  0  0  0  0  0
   34.5530   23.9550   30.4890 H   0  0  0  0  0  0  0  0  0  0  0  0
  1  2  1  0  0  0  0
  1  4  1  1  0  0  0
  2  5  1  0  0  0  0
  3  7  1  6  0  0  0
  3  1  1  0  0  0  0
  3  2  1  0  0  0  0
  3 10  1  0  0  0  0
  6  2  1  0  0  0  0
  8  9  1  0  0  0  0
  9 10  2  0  0  0  0
  9 16  1  0  0  0  0
 10 11  1  0  0  0  0
 11 12  1  0  0  0  0
 11 13  2  0  0  0  0
 13 14  1  0  0  0  0
 15 13  1  0  0  0  0
 16 15  2  0  0  0  0
 17 21  1  0  0  0  0
 17  1  1  0  0  0  0
 18 17  2  0  0  0  0
 19 25  1  0  0  0  0
 20 19  1  0  0  0  0
 20 26  1  0  0  0  0
 21 20  2  0  0  0  0
 22 23  2  0  0  0  0
 22 21  1  0  0  0  0
 23 24  1  0  0  0  0
 24 19  2  0  0  0  0
 27 23  1  0  0  0  0
M  END
>  <minimizedAffinity>
-4.6707201

$$$$
