
 OpenBabel03272510333D

 28 30  0  0  0  0  0  0  0  0999 V2000
   35.9940   30.1370   47.1850 C   0  0  0  0  0  0  0  0  0  0  0  0
   35.3660   30.1170   45.9710 C   0  0  0  0  0  0  0  0  0  0  0  0
   34.2700   29.3000   45.7330 C   0  0  0  0  0  0  0  0  0  0  0  0
   33.8200   28.4950   46.7610 C   0  0  0  0  0  0  0  0  0  0  0  0
   34.4370   28.4930   48.0040 C   0  0  0  0  0  0  0  0  0  0  0  0
   35.5270   29.3210   48.2020 C   0  0  0  0  0  0  0  0  0  0  0  0
   35.7160   30.7490   45.1590 H   0  0  0  0  0  0  0  0  0  0  0  0
   33.8090   29.3260   44.7500 H   0  0  0  0  0  0  0  0  0  0  0  0
   32.9620   27.8730   46.5330 H   0  0  0  0  0  0  0  0  0  0  0  0
   34.0410   27.8370   48.7820 H   0  0  0  0  0  0  0  0  0  0  0  0
   38.0830   32.7690   48.5700 C   0  0  0  0  0  0  0  0  0  0  0  0
   39.2190   32.7810   47.7620 C   0  0  0  0  0  0  0  0  0  0  0  0
   39.2560   31.8370   46.7000 C   0  0  0  0  0  0  0  0  0  0  0  0
   38.2020   30.9860   46.5260 N   0  0  0  0  0  0  0  0  0  0  0  0
   37.1310   31.0230   47.3400 C   0  0  0  0  0  0  0  0  0  0  0  0
   37.0840   31.9170   48.3550 N   0  0  0  0  0  0  0  0  0  0  0  0
   38.0880   33.4980   49.3680 H   0  0  0  0  0  0  0  0  0  0  0  0
   40.0610   33.4240   47.8620 H   0  0  0  0  0  0  0  0  0  0  0  0
   40.0800   31.7360   45.9940 H   0  0  0  0  0  0  0  0  0  0  0  0
   33.6360   29.7790   50.4190 Cl  0  0  0  0  0  0  0  0  0  0  0  0
   35.3730   29.5450   50.5900 C   0  0  0  0  0  0  0  0  0  0  0  0
   36.1920   29.3360   49.5010 C   0  0  0  0  0  0  0  0  0  0  0  0
   37.5610   29.1530   49.6650 C   0  0  0  0  0  0  0  0  0  0  0  0
   38.1420   28.9960   48.7780 H   0  0  0  0  0  0  0  0  0  0  0  0
   38.0650   29.1900   50.9370 C   0  0  0  0  0  0  0  0  0  0  0  0
   39.1230   29.0520   51.0990 H   0  0  0  0  0  0  0  0  0  0  0  0
   37.2860   29.3940   52.0320 C   0  0  0  0  0  3  0  0  0  0  0  0
   35.9200   29.5750   51.8600 C   0  0  0  0  0  3  0  0  0  0  0  0
  1 15  1  0  0  0  0
  1  6  1  0  0  0  0
  2  1  2  0  0  0  0
  3  2  1  0  0  0  0
  3  4  2  0  0  0  0
  4  5  1  0  0  0  0
  5  6  2  0  0  0  0
  5 10  1  0  0  0  0
  6 22  1  0  0  0  0
  7  2  1  0  0  0  0
  8  3  1  0  0  0  0
  9  4  1  0  0  0  0
 11 17  1  0  0  0  0
 12 18  1  0  0  0  0
 12 11  2  0  0  0  0
 13 12  1  0  0  0  0
 14 13  2  0  0  0  0
 14 15  1  0  0  0  0
 15 16  2  0  0  0  0
 16 11  1  0  0  0  0
 19 13  1  0  0  0  0
 20 21  1  0  0  0  0
 21 28  1  0  0  0  0
 22 23  1  0  0  0  0
 22 21  2  0  0  0  0
 23 25  2  0  0  0  0
 24 23  1  0  0  0  0
 25 26  1  0  0  0  0
 25 27  1  0  0  0  0
 28 27  2  0  0  0  0
M  END
>  <minimizedAffinity>
-4.86497688

>  <minimizedRMSD>
1.60875833

$$$$
