
 OpenBabel03272506073D

 30 32  0  0  0  0  0  0  0  0999 V2000
   37.1670   23.5720   31.2780 C   0  0  0  0  0  0  0  0  0  0  0  0
   37.2240   24.1910   30.3610 H   0  0  0  0  0  0  0  0  0  0  0  0
   37.7930   22.6650   31.0300 H   0  0  0  0  0  0  0  0  0  0  0  0
   37.8100   24.2900   32.4340 C   0  0  0  0  0  0  0  0  0  0  0  0
   38.3650   25.6010   32.1970 C   0  0  0  0  0  0  0  0  0  0  0  0
   38.9790   25.9940   33.8250 S   0  0  0  0  0  0  0  0  0  0  0  0
   38.4120   24.3720   34.5690 C   0  0  0  0  0  0  0  0  0  0  0  0
   37.9030   23.8110   33.6440 N   0  0  0  0  0  0  0  0  0  0  0  0
   38.3780   26.1360   31.2940 H   0  0  0  0  0  0  0  0  0  0  0  0
   40.6870   22.5790   34.9430 Cl  0  0  0  0  0  0  0  0  0  0  0  0
   39.6830   23.1410   36.2530 C   0  0  0  0  0  0  0  0  0  0  0  0
   38.6150   23.9920   36.0190 C   0  0  0  0  0  0  0  0  0  0  0  0
   37.7460   24.5150   36.9210 C   0  0  0  0  0  0  0  0  0  0  0  0
   36.9460   25.1730   36.6150 H   0  0  0  0  0  0  0  0  0  0  0  0
   37.9450   24.1570   38.2390 C   0  0  0  0  0  0  0  0  0  0  0  0
   37.2760   24.5520   38.9920 H   0  0  0  0  0  0  0  0  0  0  0  0
   38.9880   23.3120   38.5610 C   0  0  0  0  0  3  0  0  0  0  0  0
   39.8310   22.8210   37.5850 C   0  0  0  0  0  3  0  0  0  0  0  0
   35.7820   23.1300   31.5930 C   0  0  0  0  0  0  0  0  0  0  0  0
   35.1470   23.3070   30.6780 H   0  0  0  0  0  0  0  0  0  0  0  0
   35.3250   23.6950   32.4210 H   0  0  0  0  0  0  0  0  0  0  0  0
   35.9090   19.4460   31.1370 C   0  0  0  0  0  0  0  0  0  0  0  0
   35.6610   18.9690   32.4410 C   0  0  0  0  0  0  0  0  0  0  0  0
   35.4550   19.9230   33.4560 C   0  0  0  0  0  0  0  0  0  0  0  0
   35.5090   21.2340   33.1050 N   0  0  0  0  0  0  0  0  0  0  0  0
   35.7490   21.6420   31.8450 C   0  0  0  0  0  0  0  0  0  0  0  0
   35.9470   20.7740   30.8670 N   0  0  0  0  0  0  0  0  0  0  0  0
   36.0600   18.6910   30.3910 H   0  0  0  0  0  0  0  0  0  0  0  0
   35.6340   17.9060   32.6370 H   0  0  0  0  0  0  0  0  0  0  0  0
   35.2640   19.5720   34.4570 H   0  0  0  0  0  0  0  0  0  0  0  0
  1 19  1  0  0  0  0
  1  4  1  0  0  0  0
  2  1  1  0  0  0  0
  3  1  1  0  0  0  0
  4  8  1  0  0  0  0
  5  4  2  0  0  0  0
  5  6  1  0  0  0  0
  6  7  1  0  0  0  0
  7 12  1  0  0  0  0
  8  7  2  0  0  0  0
  9  5  1  0  0  0  0
 10 11  1  0  0  0  0
 11 18  1  0  0  0  0
 12 11  2  0  0  0  0
 12 13  1  0  0  0  0
 13 15  2  0  0  0  0
 14 13  1  0  0  0  0
 15 17  1  0  0  0  0
 15 16  1  0  0  0  0
 18 17  2  0  0  0  0
 19 26  1  0  0  0  0
 19 21  1  0  0  0  0
 20 19  1  0  0  0  0
 22 23  1  0  0  0  0
 23 29  1  0  0  0  0
 23 24  2  0  0  0  0
 24 30  1  0  0  0  0
 25 24  1  0  0  0  0
 26 25  2  0  0  0  0
 27 22  2  0  0  0  0
 27 26  1  0  0  0  0
 28 22  1  0  0  0  0
M  END
>  <minimizedAffinity>
-5.28172684

$$$$

 OpenBabel03272506073D

 30 32  0  0  0  0  0  0  0  0999 V2000
   38.3520   25.9210   33.9230 C   0  0  0  0  0  0  0  0  0  0  0  0
   39.3590   25.4650   33.8490 H   0  0  0  0  0  0  0  0  0  0  0  0
   38.5130   26.9850   33.5800 H   0  0  0  0  0  0  0  0  0  0  0  0
   37.4050   25.2520   32.9630 C   0  0  0  0  0  0  0  0  0  0  0  0
   36.5740   26.0890   32.1310 C   0  0  0  0  0  0  0  0  0  0  0  0
   35.6760   24.8500   31.2150 S   0  0  0  0  0  0  0  0  0  0  0  0
   36.5310   23.4180   32.0670 C   0  0  0  0  0  0  0  0  0  0  0  0
   37.2790   23.9610   32.8250 N   0  0  0  0  0  0  0  0  0  0  0  0
   36.5440   27.1380   32.1090 H   0  0  0  0  0  0  0  0  0  0  0  0
   38.5160   22.2370   30.2800 Cl  0  0  0  0  0  0  0  0  0  0  0  0
   37.1570   21.3530   30.9220 C   0  0  0  0  0  0  0  0  0  0  0  0
   36.2440   21.9640   31.7660 C   0  0  0  0  0  0  0  0  0  0  0  0
   35.1430   21.4210   32.3450 C   0  0  0  0  0  0  0  0  0  0  0  0
   34.5020   22.0030   32.9910 H   0  0  0  0  0  0  0  0  0  0  0  0
   34.8960   20.0930   32.0600 C   0  0  0  0  0  0  0  0  0  0  0  0
   34.0290   19.6190   32.5010 H   0  0  0  0  0  0  0  0  0  0  0  0
   35.7560   19.4080   31.2270 C   0  0  0  0  0  3  0  0  0  0  0  0
   36.8570   20.0310   30.6750 C   0  0  0  0  0  3  0  0  0  0  0  0
   37.8230   25.9360   35.3130 C   0  0  0  0  0  0  0  0  0  0  0  0
   36.7260   25.6820   35.2680 H   0  0  0  0  0  0  0  0  0  0  0  0
   37.9110   26.9210   35.7980 H   0  0  0  0  0  0  0  0  0  0  0  0
   40.0720   23.2080   36.4530 C   0  0  0  0  0  0  0  0  0  0  0  0
   39.5510   22.8960   37.7260 C   0  0  0  0  0  0  0  0  0  0  0  0
   38.4360   23.6290   38.1710 C   0  0  0  0  0  0  0  0  0  0  0  0
   37.9410   24.5850   37.3420 N   0  0  0  0  0  0  0  0  0  0  0  0
   38.4720   24.8470   36.1340 C   0  0  0  0  0  0  0  0  0  0  0  0
   39.5200   24.1780   35.6830 N   0  0  0  0  0  0  0  0  0  0  0  0
   40.9210   22.6290   36.1460 H   0  0  0  0  0  0  0  0  0  0  0  0
   40.0050   22.1190   38.3250 H   0  0  0  0  0  0  0  0  0  0  0  0
   38.0270   23.4010   39.1420 H   0  0  0  0  0  0  0  0  0  0  0  0
  1 19  1  0  0  0  0
  2  1  1  0  0  0  0
  3  1  1  0  0  0  0
  4  1  1  0  0  0  0
  5  4  2  0  0  0  0
  6  7  1  0  0  0  0
  6  5  1  0  0  0  0
  7  8  2  0  0  0  0
  8  4  1  0  0  0  0
  9  5  1  0  0  0  0
 10 11  1  0  0  0  0
 11 12  1  0  0  0  0
 12  7  1  0  0  0  0
 12 13  2  0  0  0  0
 13 14  1  0  0  0  0
 15 13  1  0  0  0  0
 15 16  1  0  0  0  0
 17 15  2  0  0  0  0
 18 11  2  0  0  0  0
 18 17  1  0  0  0  0
 19 21  1  0  0  0  0
 19 26  1  0  0  0  0
 20 19  1  0  0  0  0
 22 23  1  0  0  0  0
 23 24  2  0  0  0  0
 23 29  1  0  0  0  0
 24 30  1  0  0  0  0
 25 24  1  0  0  0  0
 26 25  2  0  0  0  0
 27 26  1  0  0  0  0
 27 22  2  0  0  0  0
 28 22  1  0  0  0  0
M  END
>  <minimizedAffinity>
-5.24945354

$$$$

 OpenBabel03272506073D

 30 32  0  0  0  0  0  0  0  0999 V2000
   37.3920   26.7870   33.8060 C   0  0  0  0  0  0  0  0  0  0  0  0
   36.8210   25.9280   33.4000 H   0  0  0  0  0  0  0  0  0  0  0  0
   38.3170   26.8240   33.1580 H   0  0  0  0  0  0  0  0  0  0  0  0
   36.6220   28.0650   33.6080 C   0  0  0  0  0  0  0  0  0  0  0  0
   36.4470   28.5540   32.2620 C   0  0  0  0  0  0  0  0  0  0  0  0
   35.5050   30.0360   32.5730 S   0  0  0  0  0  0  0  0  0  0  0  0
   35.4850   29.7870   34.4280 C   0  0  0  0  0  0  0  0  0  0  0  0
   36.0980   28.7700   34.5730 N   0  0  0  0  0  0  0  0  0  0  0  0
   36.7980   28.1190   31.3740 H   0  0  0  0  0  0  0  0  0  0  0  0
   32.6110   29.3100   34.6380 Cl  0  0  0  0  0  0  0  0  0  0  0  0
   33.4460   30.5480   35.5380 C   0  0  0  0  0  0  0  0  0  0  0  0
   34.8130   30.7310   35.4000 C   0  0  0  0  0  0  0  0  0  0  0  0
   35.6040   31.6400   36.0230 C   0  0  0  0  0  0  0  0  0  0  0  0
   36.6660   31.6860   35.8320 H   0  0  0  0  0  0  0  0  0  0  0  0
   34.9750   32.4940   36.9060 C   0  0  0  0  0  0  0  0  0  0  0  0
   35.5680   33.2350   37.4250 H   0  0  0  0  0  0  0  0  0  0  0  0
   33.6140   32.3810   37.1030 C   0  0  0  0  0  3  0  0  0  0  0  0
   32.8760   31.4280   36.4310 C   0  0  0  0  0  3  0  0  0  0  0  0
   37.8020   26.5920   35.2220 C   0  0  0  0  0  0  0  0  0  0  0  0
   36.9620   26.9580   35.8780 H   0  0  0  0  0  0  0  0  0  0  0  0
   38.7030   27.1650   35.4940 H   0  0  0  0  0  0  0  0  0  0  0  0
   38.1110   23.3440   36.9980 C   0  0  0  0  0  0  0  0  0  0  0  0
   38.2570   22.4290   35.9350 C   0  0  0  0  0  0  0  0  0  0  0  0
   38.2470   22.9430   34.6250 C   0  0  0  0  0  0  0  0  0  0  0  0
   38.0970   24.2860   34.4800 N   0  0  0  0  0  0  0  0  0  0  0  0
   37.9600   25.1210   35.5260 C   0  0  0  0  0  0  0  0  0  0  0  0
   37.9650   24.6720   36.7690 N   0  0  0  0  0  0  0  0  0  0  0  0
   38.1230   22.9160   37.9810 H   0  0  0  0  0  0  0  0  0  0  0  0
   38.3720   21.3720   36.1370 H   0  0  0  0  0  0  0  0  0  0  0  0
   38.3590   22.2550   33.8030 H   0  0  0  0  0  0  0  0  0  0  0  0
  1 19  1  0  0  0  0
  2  1  1  0  0  0  0
  3  1  1  0  0  0  0
  4  1  1  0  0  0  0
  4  8  1  0  0  0  0
  5  6  1  0  0  0  0
  5  4  2  0  0  0  0
  6  7  1  0  0  0  0
  7  8  2  0  0  0  0
  7 12  1  0  0  0  0
  9  5  1  0  0  0  0
 10 11  1  0  0  0  0
 11 18  1  0  0  0  0
 12 11  2  0  0  0  0
 12 13  1  0  0  0  0
 13 15  2  0  0  0  0
 14 13  1  0  0  0  0
 15 17  1  0  0  0  0
 15 16  1  0  0  0  0
 18 17  2  0  0  0  0
 19 21  1  0  0  0  0
 19 26  1  0  0  0  0
 19 20  1  0  0  0  0
 22 28  1  0  0  0  0
 23 29  1  0  0  0  0
 23 22  2  0  0  0  0
 24 23  1  0  0  0  0
 25 24  2  0  0  0  0
 25 26  1  0  0  0  0
 26 27  2  0  0  0  0
 27 22  1  0  0  0  0
 30 24  1  0  0  0  0
M  END
>  <minimizedAffinity>
-5.21266842

$$$$

 OpenBabel03272506073D

 30 32  0  0  0  0  0  0  0  0999 V2000
   37.4540   27.1870   33.6960 C   0  0  0  0  0  0  0  0  0  0  0  0
   37.0480   26.2410   33.2850 H   0  0  0  0  0  0  0  0  0  0  0  0
   38.3410   27.4080   33.0330 H   0  0  0  0  0  0  0  0  0  0  0  0
   36.4520   28.2980   33.5340 C   0  0  0  0  0  0  0  0  0  0  0  0
   36.2540   28.8500   32.2150 C   0  0  0  0  0  0  0  0  0  0  0  0
   35.0140   30.0840   32.5610 S   0  0  0  0  0  0  0  0  0  0  0  0
   34.9440   29.6860   34.3890 C   0  0  0  0  0  0  0  0  0  0  0  0
   35.7430   28.8030   34.5050 N   0  0  0  0  0  0  0  0  0  0  0  0
   36.7340   28.5680   31.3260 H   0  0  0  0  0  0  0  0  0  0  0  0
   36.3080   31.8550   35.7900 Cl  0  0  0  0  0  0  0  0  0  0  0  0
   34.6390   31.4340   36.0670 C   0  0  0  0  0  0  0  0  0  0  0  0
   34.0410   30.3940   35.3740 C   0  0  0  0  0  0  0  0  0  0  0  0
   32.7640   29.9460   35.4720 C   0  0  0  0  0  0  0  0  0  0  0  0
   32.4110   29.1190   34.8730 H   0  0  0  0  0  0  0  0  0  0  0  0
   31.9540   30.6030   36.3750 C   0  0  0  0  0  0  0  0  0  0  0  0
   30.9270   30.2780   36.4860 H   0  0  0  0  0  0  0  0  0  0  0  0
   32.4690   31.6510   37.1090 C   0  0  0  0  0  3  0  0  0  0  0  0
   33.7810   32.0500   36.9520 C   0  0  0  0  0  3  0  0  0  0  0  0
   37.9220   27.0550   35.1010 C   0  0  0  0  0  0  0  0  0  0  0  0
   37.1360   27.5040   35.7710 H   0  0  0  0  0  0  0  0  0  0  0  0
   38.8640   27.5940   35.2960 H   0  0  0  0  0  0  0  0  0  0  0  0
   38.1200   23.9040   37.0590 C   0  0  0  0  0  0  0  0  0  0  0  0
   38.2040   22.9230   36.0490 C   0  0  0  0  0  0  0  0  0  0  0  0
   38.1910   23.3610   34.7120 C   0  0  0  0  0  0  0  0  0  0  0  0
   38.0990   24.6980   34.4900 N   0  0  0  0  0  0  0  0  0  0  0  0
   38.0200   25.5980   35.4880 C   0  0  0  0  0  0  0  0  0  0  0  0
   38.0300   25.2230   36.7550 N   0  0  0  0  0  0  0  0  0  0  0  0
   38.1330   23.5340   38.0650 H   0  0  0  0  0  0  0  0  0  0  0  0
   38.2750   21.8760   36.3100 H   0  0  0  0  0  0  0  0  0  0  0  0
   38.2550   22.6220   33.9300 H   0  0  0  0  0  0  0  0  0  0  0  0
  1 19  1  0  0  0  0
  2  1  1  0  0  0  0
  3  1  1  0  0  0  0
  4  1  1  0  0  0  0
  4  8  1  0  0  0  0
  5  6  1  0  0  0  0
  5  4  2  0  0  0  0
  6  7  1  0  0  0  0
  7  8  2  0  0  0  0
  7 12  1  0  0  0  0
  9  5  1  0  0  0  0
 10 11  1  0  0  0  0
 11 18  1  0  0  0  0
 12 13  1  0  0  0  0
 12 11  2  0  0  0  0
 13 15  2  0  0  0  0
 14 13  1  0  0  0  0
 15 16  1  0  0  0  0
 15 17  1  0  0  0  0
 18 17  2  0  0  0  0
 19 21  1  0  0  0  0
 19 26  1  0  0  0  0
 19 20  1  0  0  0  0
 22 28  1  0  0  0  0
 23 29  1  0  0  0  0
 23 22  2  0  0  0  0
 24 23  1  0  0  0  0
 25 24  2  0  0  0  0
 25 26  1  0  0  0  0
 26 27  2  0  0  0  0
 27 22  1  0  0  0  0
 30 24  1  0  0  0  0
M  END
>  <minimizedAffinity>
-5.08777714

$$$$

 OpenBabel03272506073D

 30 32  0  0  0  0  0  0  0  0999 V2000
   36.9660   28.7460   31.5930 C   0  0  0  0  0  0  0  0  0  0  0  0
   36.5380   28.3480   30.6510 H   0  0  0  0  0  0  0  0  0  0  0  0
   37.9680   29.1620   31.2770 H   0  0  0  0  0  0  0  0  0  0  0  0
   36.1230   29.8800   32.1110 C   0  0  0  0  0  0  0  0  0  0  0  0
   35.8890   31.0080   31.2410 C   0  0  0  0  0  0  0  0  0  0  0  0
   34.8750   32.0280   32.2950 S   0  0  0  0  0  0  0  0  0  0  0  0
   34.9130   30.8140   33.7210 C   0  0  0  0  0  0  0  0  0  0  0  0
   35.5840   29.9190   33.2980 N   0  0  0  0  0  0  0  0  0  0  0  0
   36.2420   31.1430   30.2620 H   0  0  0  0  0  0  0  0  0  0  0  0
   36.4800   32.4740   35.5420 Cl  0  0  0  0  0  0  0  0  0  0  0  0
   34.9140   31.8240   35.9450 C   0  0  0  0  0  0  0  0  0  0  0  0
   34.2130   31.0420   35.0420 C   0  0  0  0  0  0  0  0  0  0  0  0
   32.9940   30.4660   35.2010 C   0  0  0  0  0  0  0  0  0  0  0  0
   32.5460   29.8720   34.4170 H   0  0  0  0  0  0  0  0  0  0  0  0
   32.3690   30.6830   36.4120 C   0  0  0  0  0  0  0  0  0  0  0  0
   31.3950   30.2430   36.5810 H   0  0  0  0  0  0  0  0  0  0  0  0
   32.9970   31.4520   37.3700 C   0  0  0  0  0  3  0  0  0  0  0  0
   34.2400   32.0050   37.1330 C   0  0  0  0  0  3  0  0  0  0  0  0
   37.1820   27.6930   32.6200 C   0  0  0  0  0  0  0  0  0  0  0  0
   36.5830   27.9720   33.5330 H   0  0  0  0  0  0  0  0  0  0  0  0
   38.2350   27.6060   32.9360 H   0  0  0  0  0  0  0  0  0  0  0  0
   36.6570   24.0610   32.0470 C   0  0  0  0  0  0  0  0  0  0  0  0
   35.5260   24.0460   31.2050 C   0  0  0  0  0  0  0  0  0  0  0  0
   34.9620   25.2850   30.8490 C   0  0  0  0  0  0  0  0  0  0  0  0
   35.5500   26.4070   31.3420 N   0  0  0  0  0  0  0  0  0  0  0  0
   36.6300   26.3710   32.1430 C   0  0  0  0  0  0  0  0  0  0  0  0
   37.1850   25.2250   32.4980 N   0  0  0  0  0  0  0  0  0  0  0  0
   37.0590   23.0990   32.2970 H   0  0  0  0  0  0  0  0  0  0  0  0
   35.1190   23.1070   30.8550 H   0  0  0  0  0  0  0  0  0  0  0  0
   34.0980   25.2890   30.2050 H   0  0  0  0  0  0  0  0  0  0  0  0
  1  4  1  0  0  0  0
  1 19  1  0  0  0  0
  2  1  1  0  0  0  0
  3  1  1  0  0  0  0
  4  8  1  0  0  0  0
  5  4  2  0  0  0  0
  5  6  1  0  0  0  0
  6  7  1  0  0  0  0
  7 12  1  0  0  0  0
  8  7  2  0  0  0  0
  9  5  1  0  0  0  0
 10 11  1  0  0  0  0
 11 18  1  0  0  0  0
 12 13  1  0  0  0  0
 12 11  2  0  0  0  0
 13 15  2  0  0  0  0
 14 13  1  0  0  0  0
 15 16  1  0  0  0  0
 15 17  1  0  0  0  0
 18 17  2  0  0  0  0
 19 21  1  0  0  0  0
 19 20  1  0  0  0  0
 22 28  1  0  0  0  0
 22 27  1  0  0  0  0
 23 22  2  0  0  0  0
 24 23  1  0  0  0  0
 24 25  2  0  0  0  0
 25 26  1  0  0  0  0
 26 27  2  0  0  0  0
 26 19  1  0  0  0  0
 29 23  1  0  0  0  0
 30 24  1  0  0  0  0
M  END
>  <minimizedAffinity>
-5.00848198

$$$$

 OpenBabel03272506073D

 30 32  0  0  0  0  0  0  0  0999 V2000
   37.2050   26.9760   33.7450 C   0  0  0  0  0  0  0  0  0  0  0  0
   38.0240   27.0890   34.4830 H   0  0  0  0  0  0  0  0  0  0  0  0
   36.5130   26.2220   34.2240 H   0  0  0  0  0  0  0  0  0  0  0  0
   36.4580   28.2740   33.5920 C   0  0  0  0  0  0  0  0  0  0  0  0
   36.2810   28.8050   32.2610 C   0  0  0  0  0  0  0  0  0  0  0  0
   35.3700   30.2950   32.6240 S   0  0  0  0  0  0  0  0  0  0  0  0
   35.3620   29.9930   34.4720 C   0  0  0  0  0  0  0  0  0  0  0  0
   35.9560   28.9610   34.5810 N   0  0  0  0  0  0  0  0  0  0  0  0
   36.6150   28.3890   31.3580 H   0  0  0  0  0  0  0  0  0  0  0  0
   32.5220   29.4250   34.8490 Cl  0  0  0  0  0  0  0  0  0  0  0  0
   33.3670   30.6950   35.6940 C   0  0  0  0  0  0  0  0  0  0  0  0
   34.7160   30.9210   35.4760 C   0  0  0  0  0  0  0  0  0  0  0  0
   35.5120   31.8590   36.0490 C   0  0  0  0  0  0  0  0  0  0  0  0
   36.5600   31.9380   35.7960 H   0  0  0  0  0  0  0  0  0  0  0  0
   34.9080   32.6980   36.9620 C   0  0  0  0  0  0  0  0  0  0  0  0
   35.5060   33.4610   37.4440 H   0  0  0  0  0  0  0  0  0  0  0  0
   33.5650   32.5420   37.2390 C   0  0  0  0  0  3  0  0  0  0  0  0
   32.8210   31.5620   36.6150 C   0  0  0  0  0  3  0  0  0  0  0  0
   37.6730   26.4410   32.4390 C   0  0  0  0  0  0  0  0  0  0  0  0
   38.7800   26.2460   32.5220 H   0  0  0  0  0  0  0  0  0  0  0  0
   37.5280   27.1470   31.6050 H   0  0  0  0  0  0  0  0  0  0  0  0
   35.3790   23.7880   31.2140 C   0  0  0  0  0  0  0  0  0  0  0  0
   35.9700   22.6150   31.7260 C   0  0  0  0  0  0  0  0  0  0  0  0
   37.1480   22.7550   32.4830 C   0  0  0  0  0  0  0  0  0  0  0  0
   37.6300   24.0120   32.6670 N   0  0  0  0  0  0  0  0  0  0  0  0
   37.0300   25.1030   32.1580 C   0  0  0  0  0  0  0  0  0  0  0  0
   35.9230   25.0090   31.4420 N   0  0  0  0  0  0  0  0  0  0  0  0
   34.4830   23.6430   30.6430 H   0  0  0  0  0  0  0  0  0  0  0  0
   35.5220   21.6500   31.5340 H   0  0  0  0  0  0  0  0  0  0  0  0
   37.6100   21.8660   32.8810 H   0  0  0  0  0  0  0  0  0  0  0  0
  1  3  1  0  0  0  0
  1  2  1  0  0  0  0
  4  1  1  0  0  0  0
  4  8  1  0  0  0  0
  5  6  1  0  0  0  0
  5  4  2  0  0  0  0
  6  7  1  0  0  0  0
  7  8  2  0  0  0  0
  7 12  1  0  0  0  0
  9  5  1  0  0  0  0
 10 11  1  0  0  0  0
 11 18  1  0  0  0  0
 12 11  2  0  0  0  0
 12 13  1  0  0  0  0
 13 15  2  0  0  0  0
 14 13  1  0  0  0  0
 15 17  1  0  0  0  0
 15 16  1  0  0  0  0
 18 17  2  0  0  0  0
 19 20  1  0  0  0  0
 19  1  1  0  0  0  0
 21 19  1  0  0  0  0
 22 27  2  0  0  0  0
 22 23  1  0  0  0  0
 23 24  2  0  0  0  0
 24 25  1  0  0  0  0
 24 30  1  0  0  0  0
 26 19  1  0  0  0  0
 26 25  2  0  0  0  0
 27 26  1  0  0  0  0
 28 22  1  0  0  0  0
 29 23  1  0  0  0  0
M  END
>  <minimizedAffinity>
-4.97236729

$$$$

 OpenBabel03272506073D

 30 32  0  0  0  0  0  0  0  0999 V2000
   35.8770   23.9970   31.3410 C   0  0  0  0  0  0  0  0  0  0  0  0
   35.0820   23.7250   32.0640 H   0  0  0  0  0  0  0  0  0  0  0  0
   35.3060   24.2930   30.4130 H   0  0  0  0  0  0  0  0  0  0  0  0
   36.6390   25.2000   31.8320 C   0  0  0  0  0  0  0  0  0  0  0  0
   38.0720   25.0910   31.9630 C   0  0  0  0  0  0  0  0  0  0  0  0
   38.4690   26.7260   32.5560 S   0  0  0  0  0  0  0  0  0  0  0  0
   36.6880   27.3030   32.5400 C   0  0  0  0  0  0  0  0  0  0  0  0
   36.0940   26.3420   32.1500 N   0  0  0  0  0  0  0  0  0  0  0  0
   38.6710   24.2560   31.7540 H   0  0  0  0  0  0  0  0  0  0  0  0
   36.6270   29.1670   30.2930 Cl  0  0  0  0  0  0  0  0  0  0  0  0
   36.2000   29.6150   31.9220 C   0  0  0  0  0  0  0  0  0  0  0  0
   36.2470   28.6900   32.9520 C   0  0  0  0  0  0  0  0  0  0  0  0
   35.9480   28.8780   34.2630 C   0  0  0  0  0  0  0  0  0  0  0  0
   36.0230   28.0720   34.9780 H   0  0  0  0  0  0  0  0  0  0  0  0
   35.5470   30.1490   34.6220 C   0  0  0  0  0  0  0  0  0  0  0  0
   35.2980   30.3430   35.6570 H   0  0  0  0  0  0  0  0  0  0  0  0
   35.4720   31.1330   33.6570 C   0  0  0  0  0  3  0  0  0  0  0  0
   35.7930   30.8630   32.3420 C   0  0  0  0  0  3  0  0  0  0  0  0
   36.7770   22.8590   31.0140 C   0  0  0  0  0  0  0  0  0  0  0  0
   37.7810   23.0670   31.4810 H   0  0  0  0  0  0  0  0  0  0  0  0
   36.9400   22.7350   29.9310 H   0  0  0  0  0  0  0  0  0  0  0  0
   35.5880   19.3820   31.5520 C   0  0  0  0  0  0  0  0  0  0  0  0
   35.3530   19.3520   32.9420 C   0  0  0  0  0  0  0  0  0  0  0  0
   35.6090   20.5280   33.6720 C   0  0  0  0  0  0  0  0  0  0  0  0
   36.0620   21.6070   32.9830 N   0  0  0  0  0  0  0  0  0  0  0  0
   36.2710   21.5890   31.6540 C   0  0  0  0  0  0  0  0  0  0  0  0
   36.0420   20.5020   30.9370 N   0  0  0  0  0  0  0  0  0  0  0  0
   35.3820   18.4680   31.0290 H   0  0  0  0  0  0  0  0  0  0  0  0
   34.9910   18.4490   33.4150 H   0  0  0  0  0  0  0  0  0  0  0  0
   35.4330   20.5190   34.7350 H   0  0  0  0  0  0  0  0  0  0  0  0
  1  4  1  0  0  0  0
  1  2  1  0  0  0  0
  3  1  1  0  0  0  0
  4  5  2  0  0  0  0
  4  8  1  0  0  0  0
  5  6  1  0  0  0  0
  7  6  1  0  0  0  0
  7 12  1  0  0  0  0
  8  7  2  0  0  0  0
  9  5  1  0  0  0  0
 10 11  1  0  0  0  0
 11 18  2  0  0  0  0
 11 12  1  0  0  0  0
 12 13  2  0  0  0  0
 13 15  1  0  0  0  0
 13 14  1  0  0  0  0
 15 16  1  0  0  0  0
 17 15  2  0  0  0  0
 18 17  1  0  0  0  0
 19  1  1  0  0  0  0
 19 20  1  0  0  0  0
 19 26  1  0  0  0  0
 21 19  1  0  0  0  0
 22 23  1  0  0  0  0
 23 29  1  0  0  0  0
 23 24  2  0  0  0  0
 24 30  1  0  0  0  0
 25 24  1  0  0  0  0
 26 25  2  0  0  0  0
 27 22  2  0  0  0  0
 27 26  1  0  0  0  0
 28 22  1  0  0  0  0
M  END
>  <minimizedAffinity>
-4.94530249

$$$$

 OpenBabel03272506073D

 30 32  0  0  0  0  0  0  0  0999 V2000
   39.1930   22.9030   33.6380 C   0  0  0  0  0  0  0  0  0  0  0  0
   39.0440   22.5670   32.5920 H   0  0  0  0  0  0  0  0  0  0  0  0
   40.1880   22.4510   33.9260 H   0  0  0  0  0  0  0  0  0  0  0  0
   39.3200   24.4020   33.6920 C   0  0  0  0  0  0  0  0  0  0  0  0
   40.6200   24.9660   33.9700 C   0  0  0  0  0  0  0  0  0  0  0  0
   40.2350   26.7070   33.9230 S   0  0  0  0  0  0  0  0  0  0  0  0
   38.4230   26.4280   33.5440 C   0  0  0  0  0  0  0  0  0  0  0  0
   38.3350   25.2360   33.5040 N   0  0  0  0  0  0  0  0  0  0  0  0
   41.5160   24.4500   34.1450 H   0  0  0  0  0  0  0  0  0  0  0  0
   38.3830   27.4470   30.8080 Cl  0  0  0  0  0  0  0  0  0  0  0  0
   37.3580   28.0630   32.0760 C   0  0  0  0  0  0  0  0  0  0  0  0
   37.4180   27.5420   33.3580 C   0  0  0  0  0  0  0  0  0  0  0  0
   36.6940   27.9070   34.4460 C   0  0  0  0  0  0  0  0  0  0  0  0
   36.8320   27.4230   35.4020 H   0  0  0  0  0  0  0  0  0  0  0  0
   35.7820   28.9260   34.2590 C   0  0  0  0  0  0  0  0  0  0  0  0
   35.1820   29.2490   35.1010 H   0  0  0  0  0  0  0  0  0  0  0  0
   35.6570   29.5020   33.0120 C   0  0  0  0  0  3  0  0  0  0  0  0
   36.4300   29.0740   31.9520 C   0  0  0  0  0  3  0  0  0  0  0  0
   38.1460   22.3950   34.5640 C   0  0  0  0  0  0  0  0  0  0  0  0
   38.1250   21.2720   34.4790 H   0  0  0  0  0  0  0  0  0  0  0  0
   37.1360   22.7600   34.3170 H   0  0  0  0  0  0  0  0  0  0  0  0
   39.9940   22.6670   37.7750 C   0  0  0  0  0  0  0  0  0  0  0  0
   39.0590   23.3130   38.6100 C   0  0  0  0  0  0  0  0  0  0  0  0
   37.8100   23.6460   38.0550 C   0  0  0  0  0  0  0  0  0  0  0  0
   37.5940   23.3190   36.7540 N   0  0  0  0  0  0  0  0  0  0  0  0
   38.5170   22.7010   35.9960 C   0  0  0  0  0  0  0  0  0  0  0  0
   39.7010   22.3740   36.4840 N   0  0  0  0  0  0  0  0  0  0  0  0
   40.9340   22.4290   38.2320 H   0  0  0  0  0  0  0  0  0  0  0  0
   39.3100   23.5390   39.6380 H   0  0  0  0  0  0  0  0  0  0  0  0
   37.0860   24.1400   38.6820 H   0  0  0  0  0  0  0  0  0  0  0  0
  1  4  1  0  0  0  0
  1  3  1  0  0  0  0
  1 19  1  0  0  0  0
  2  1  1  0  0  0  0
  4  5  2  0  0  0  0
  5  9  1  0  0  0  0
  6  5  1  0  0  0  0
  7  6  1  0  0  0  0
  8  7  2  0  0  0  0
  8  4  1  0  0  0  0
 10 11  1  0  0  0  0
 11 12  1  0  0  0  0
 12  7  1  0  0  0  0
 12 13  2  0  0  0  0
 13 14  1  0  0  0  0
 15 13  1  0  0  0  0
 15 16  1  0  0  0  0
 17 15  2  0  0  0  0
 18 11  2  0  0  0  0
 18 17  1  0  0  0  0
 19 26  1  0  0  0  0
 20 19  1  0  0  0  0
 21 19  1  0  0  0  0
 22 28  1  0  0  0  0
 22 23  1  0  0  0  0
 23 29  1  0  0  0  0
 24 23  2  0  0  0  0
 24 30  1  0  0  0  0
 25 24  1  0  0  0  0
 26 27  1  0  0  0  0
 26 25  2  0  0  0  0
 27 22  2  0  0  0  0
M  END
>  <minimizedAffinity>
-4.93440104

$$$$

 OpenBabel03272506073D

 30 32  0  0  0  0  0  0  0  0999 V2000
   37.7700   25.6620   31.3430 C   0  0  0  0  0  0  0  0  0  0  0  0
   38.2820   26.1980   30.5190 H   0  0  0  0  0  0  0  0  0  0  0  0
   37.8530   24.5740   31.0490 H   0  0  0  0  0  0  0  0  0  0  0  0
   38.5140   25.8620   32.6360 C   0  0  0  0  0  0  0  0  0  0  0  0
   39.4630   26.9470   32.7160 C   0  0  0  0  0  0  0  0  0  0  0  0
   40.0440   26.7490   34.3910 S   0  0  0  0  0  0  0  0  0  0  0  0
   38.9510   25.2680   34.7310 C   0  0  0  0  0  0  0  0  0  0  0  0
   38.3650   25.1200   33.6990 N   0  0  0  0  0  0  0  0  0  0  0  0
   39.7080   27.6370   31.9650 H   0  0  0  0  0  0  0  0  0  0  0  0
   40.9540   23.1480   34.8710 Cl  0  0  0  0  0  0  0  0  0  0  0  0
   39.8490   23.5110   36.1700 C   0  0  0  0  0  0  0  0  0  0  0  0
   38.9170   24.5290   36.0500 C   0  0  0  0  0  0  0  0  0  0  0  0
   37.9950   24.9340   36.9600 C   0  0  0  0  0  0  0  0  0  0  0  0
   37.3170   25.7480   36.7500 H   0  0  0  0  0  0  0  0  0  0  0  0
   37.9780   24.2480   38.1580 C   0  0  0  0  0  0  0  0  0  0  0  0
   37.2590   24.5380   38.9130 H   0  0  0  0  0  0  0  0  0  0  0  0
   38.8730   23.2180   38.3610 C   0  0  0  0  0  3  0  0  0  0  0  0
   39.7830   22.8650   37.3850 C   0  0  0  0  0  3  0  0  0  0  0  0
   36.3320   26.0220   31.4630 C   0  0  0  0  0  0  0  0  0  0  0  0
   35.9940   25.7540   32.5040 H   0  0  0  0  0  0  0  0  0  0  0  0
   35.6880   25.4700   30.7590 H   0  0  0  0  0  0  0  0  0  0  0  0
   35.2750   29.5360   32.0410 C   0  0  0  0  0  0  0  0  0  0  0  0
   35.9070   30.2210   30.9830 C   0  0  0  0  0  0  0  0  0  0  0  0
   36.6870   29.4640   30.0890 C   0  0  0  0  0  0  0  0  0  0  0  0
   36.7730   28.1270   30.3090 N   0  0  0  0  0  0  0  0  0  0  0  0
   36.1510   27.5160   31.3340 C   0  0  0  0  0  0  0  0  0  0  0  0
   35.4110   28.1950   32.1930 N   0  0  0  0  0  0  0  0  0  0  0  0
   34.6890   30.1440   32.7010 H   0  0  0  0  0  0  0  0  0  0  0  0
   35.7870   31.2910   30.8770 H   0  0  0  0  0  0  0  0  0  0  0  0
   37.1750   29.9750   29.2750 H   0  0  0  0  0  0  0  0  0  0  0  0
  1 19  1  0  0  0  0
  1  4  1  0  0  0  0
  2  1  1  0  0  0  0
  3  1  1  0  0  0  0
  4  5  2  0  0  0  0
  4  8  1  0  0  0  0
  5  6  1  0  0  0  0
  6  7  1  0  0  0  0
  7 12  1  0  0  0  0
  8  7  2  0  0  0  0
  9  5  1  0  0  0  0
 10 11  1  0  0  0  0
 11 18  1  0  0  0  0
 12 11  2  0  0  0  0
 12 13  1  0  0  0  0
 13 15  2  0  0  0  0
 14 13  1  0  0  0  0
 15 17  1  0  0  0  0
 15 16  1  0  0  0  0
 18 17  2  0  0  0  0
 19 20  1  0  0  0  0
 21 19  1  0  0  0  0
 22 27  1  0  0  0  0
 22 28  1  0  0  0  0
 23 22  2  0  0  0  0
 24 25  2  0  0  0  0
 24 23  1  0  0  0  0
 25 26  1  0  0  0  0
 26 19  1  0  0  0  0
 26 27  2  0  0  0  0
 29 23  1  0  0  0  0
 30 24  1  0  0  0  0
M  END
>  <minimizedAffinity>
-4.89376688

$$$$
