
 OpenBabel03272501373D

 36 39  0  0  1  0  0  0  0  0999 V2000
   37.2260   27.1650   33.3880 C   0  0  2  0  0  3  0  0  0  0  0  0
   37.8090   26.5920   32.3870 O   0  0  0  0  0  1  0  0  0  0  0  0
   35.5610   30.1060   31.8140 C   0  0  0  0  0  0  0  0  0  0  0  0
   36.3100   28.9690   32.0170 C   0  0  0  0  0  0  0  0  0  0  0  0
   36.3960   28.3280   33.2700 C   0  0  0  0  0  0  0  0  0  0  0  0
   35.7190   28.8700   34.2480 N   0  0  0  0  0  0  0  0  0  0  0  0
   34.9710   30.0110   34.0300 C   0  0  0  0  0  0  0  0  0  0  0  0
   34.8870   30.6160   32.8580 N   0  0  0  0  0  0  0  0  0  0  0  0
   35.5600   30.5220   30.8150 H   0  0  0  0  0  0  0  0  0  0  0  0
   36.8670   28.5400   31.1690 H   0  0  0  0  0  0  0  0  0  0  0  0
   36.3850   32.1420   35.6990 Cl  0  0  0  0  0  0  0  0  0  0  0  0
   34.7770   31.5160   36.0070 C   0  0  0  0  0  0  0  0  0  0  0  0
   34.2470   30.5500   35.1770 C   0  0  0  0  0  0  0  0  0  0  0  0
   32.9730   30.1030   35.4800 C   0  0  0  0  0  0  0  0  0  0  0  0
   32.5570   29.3360   34.8190 H   0  0  0  0  0  0  0  0  0  0  0  0
   32.1920   30.5380   36.5370 C   0  0  0  0  0  0  0  0  0  0  0  0
   31.2100   30.1070   36.6650 H   0  0  0  0  0  0  0  0  0  0  0  0
   32.7670   31.4910   37.3220 C   0  0  0  0  0  3  0  0  0  0  0  0
   34.0330   31.9940   37.0910 C   0  0  0  0  0  3  0  0  0  0  0  0
   37.4290   26.5890   34.7700 C   0  0  2  0  0  0  0  0  0  0  0  0
   38.8070   27.1820   35.3190 C   0  0  0  0  0  0  0  0  0  0  0  0
   38.5330   25.7270   35.0380 C   0  0  1  0  0  0  0  0  0  0  0  0
   36.6370   26.8200   35.5420 H   0  0  0  0  0  0  0  0  0  0  0  0
   38.7740   27.5060   36.3860 H   0  0  0  0  0  0  0  0  0  0  0  0
   39.4520   27.6910   34.6160 H   0  0  0  0  0  0  0  0  0  0  0  0
   39.0520   25.2970   34.1210 H   0  0  0  0  0  0  0  0  0  0  0  0
   38.6630   24.8270   36.1870 C   0  0  0  0  0  0  0  0  0  0  0  0
   37.8820   25.0750   37.2870 C   0  0  0  0  0  0  0  0  0  0  0  0
   38.0020   24.2310   38.3650 C   0  0  0  0  0  0  0  0  0  0  0  0
   38.8790   23.1560   38.3580 C   0  0  0  0  0  0  0  0  0  0  0  0
   39.6420   22.9410   37.2420 C   0  0  0  0  0  0  0  0  0  0  0  0
   39.5160   23.7740   36.1940 N   0  0  0  0  0  0  0  0  0  0  0  0
   37.1800   25.8840   37.3700 H   0  0  0  0  0  0  0  0  0  0  0  0
   37.4040   24.3950   39.2480 H   0  0  0  0  0  0  0  0  0  0  0  0
   38.9180   22.5320   39.2500 H   0  0  0  0  0  0  0  0  0  0  0  0
   40.3370   22.1000   37.2230 H   0  0  0  0  0  0  0  0  0  0  0  0
  1  2  1  1  0  0  0
  1 20  1  0  0  0  0
  3  4  2  0  0  0  0
  3  8  1  0  0  0  0
  4  5  1  0  0  0  0
  5  1  1  0  0  0  0
  5  6  2  0  0  0  0
  7  6  1  0  0  0  0
  7 13  1  0  0  0  0
  8  7  2  0  0  0  0
  9  3  1  0  0  0  0
 10  4  1  0  0  0  0
 11 12  1  0  0  0  0
 12 19  1  0  0  0  0
 13 14  1  0  0  0  0
 13 12  2  0  0  0  0
 14 16  2  0  0  0  0
 15 14  1  0  0  0  0
 16 17  1  0  0  0  0
 16 18  1  0  0  0  0
 19 18  2  0  0  0  0
 20 22  1  0  0  0  0
 20 21  1  0  0  0  0
 20 23  1  1  0  0  0
 21 24  1  0  0  0  0
 22 26  1  6  0  0  0
 22 21  1  0  0  0  0
 22 27  1  0  0  0  0
 25 21  1  0  0  0  0
 27 32  2  0  0  0  0
 27 28  1  0  0  0  0
 28 33  1  0  0  0  0
 28 29  2  0  0  0  0
 29 34  1  0  0  0  0
 30 29  1  0  0  0  0
 30 35  1  0  0  0  0
 31 30  2  0  0  0  0
 32 31  1  0  0  0  0
 36 31  1  0  0  0  0
M  END
>  <minimizedAffinity>
-6.6777339

$$$$

 OpenBabel03272501373D

 36 39  0  0  1  0  0  0  0  0999 V2000
   37.1340   26.7880   33.3660 C   0  0  2  0  0  3  0  0  0  0  0  0
   37.3770   25.9960   32.3740 O   0  0  0  0  0  1  0  0  0  0  0  0
   36.2070   30.0230   31.7620 C   0  0  0  0  0  0  0  0  0  0  0  0
   36.6980   28.7570   31.9850 C   0  0  0  0  0  0  0  0  0  0  0  0
   36.5650   28.0960   33.2230 C   0  0  0  0  0  0  0  0  0  0  0  0
   35.9430   28.7510   34.1680 N   0  0  0  0  0  0  0  0  0  0  0  0
   35.4560   30.0220   33.9310 C   0  0  0  0  0  0  0  0  0  0  0  0
   35.5780   30.6460   32.7720 N   0  0  0  0  0  0  0  0  0  0  0  0
   36.3610   30.4430   30.7770 H   0  0  0  0  0  0  0  0  0  0  0  0
   37.2160   28.2340   31.1650 H   0  0  0  0  0  0  0  0  0  0  0  0
   32.4820   29.4300   34.2950 Cl  0  0  0  0  0  0  0  0  0  0  0  0
   33.4340   30.4970   35.3090 C   0  0  0  0  0  0  0  0  0  0  0  0
   34.7750   30.6820   35.0400 C   0  0  0  0  0  0  0  0  0  0  0  0
   35.4630   31.5370   35.8820 C   0  0  0  0  0  0  0  0  0  0  0  0
   36.5260   31.6810   35.6650 H   0  0  0  0  0  0  0  0  0  0  0  0
   34.9270   32.2170   36.9630 C   0  0  0  0  0  0  0  0  0  0  0  0
   35.5740   32.8570   37.5430 H   0  0  0  0  0  0  0  0  0  0  0  0
   33.6000   31.9950   37.1780 C   0  0  0  0  0  3  0  0  0  0  0  0
   32.8370   31.1580   36.3870 C   0  0  0  0  0  3  0  0  0  0  0  0
   37.4730   26.3220   34.7630 C   0  0  2  0  0  0  0  0  0  0  0  0
   38.9640   26.8100   35.0630 C   0  0  0  0  0  0  0  0  0  0  0  0
   38.5160   25.3730   34.9750 C   0  0  1  0  0  0  0  0  0  0  0  0
   36.8210   26.7070   35.6030 H   0  0  0  0  0  0  0  0  0  0  0  0
   39.1110   27.2310   36.0860 H   0  0  0  0  0  0  0  0  0  0  0  0
   39.5490   27.1790   34.2340 H   0  0  0  0  0  0  0  0  0  0  0  0
   38.8590   24.8070   34.0480 H   0  0  0  0  0  0  0  0  0  0  0  0
   38.7190   24.5730   36.1860 C   0  0  0  0  0  0  0  0  0  0  0  0
   37.9210   24.8380   37.2700 C   0  0  0  0  0  0  0  0  0  0  0  0
   38.1100   24.0860   38.4060 C   0  0  0  0  0  0  0  0  0  0  0  0
   39.0700   23.0880   38.4710 C   0  0  0  0  0  0  0  0  0  0  0  0
   39.8470   22.8540   37.3690 C   0  0  0  0  0  0  0  0  0  0  0  0
   39.6540   23.5950   36.2640 N   0  0  0  0  0  0  0  0  0  0  0  0
   37.1570   25.5910   37.2980 H   0  0  0  0  0  0  0  0  0  0  0  0
   37.5010   24.2670   39.2780 H   0  0  0  0  0  0  0  0  0  0  0  0
   39.1600   22.5360   39.4060 H   0  0  0  0  0  0  0  0  0  0  0  0
   40.6070   22.0720   37.4060 H   0  0  0  0  0  0  0  0  0  0  0  0
  1  2  1  6  0  0  0
  1 20  1  0  0  0  0
  3  4  2  0  0  0  0
  3  8  1  0  0  0  0
  4  5  1  0  0  0  0
  5  1  1  0  0  0  0
  5  6  2  0  0  0  0
  7  6  1  0  0  0  0
  7 13  1  0  0  0  0
  8  7  2  0  0  0  0
  9  3  1  0  0  0  0
 10  4  1  0  0  0  0
 11 12  1  0  0  0  0
 12 19  1  0  0  0  0
 13 12  2  0  0  0  0
 13 14  1  0  0  0  0
 14 16  2  0  0  0  0
 15 14  1  0  0  0  0
 16 18  1  0  0  0  0
 16 17  1  0  0  0  0
 19 18  2  0  0  0  0
 20 22  1  0  0  0  0
 20 21  1  0  0  0  0
 20 23  1  1  0  0  0
 21 24  1  0  0  0  0
 22 26  1  6  0  0  0
 22 21  1  0  0  0  0
 22 27  1  0  0  0  0
 25 21  1  0  0  0  0
 27 32  2  0  0  0  0
 27 28  1  0  0  0  0
 28 33  1  0  0  0  0
 28 29  2  0  0  0  0
 29 30  1  0  0  0  0
 29 34  1  0  0  0  0
 30 35  1  0  0  0  0
 31 36  1  0  0  0  0
 31 30  2  0  0  0  0
 32 31  1  0  0  0  0
M  END
>  <minimizedAffinity>
-6.67299747

$$$$

 OpenBabel03272501373D

 36 39  0  0  1  0  0  0  0  0999 V2000
   38.3210   26.4700   32.9000 C   0  0  2  0  0  3  0  0  0  0  0  0
   38.9820   27.4180   32.3210 O   0  0  0  0  0  1  0  0  0  0  0  0
   35.2230   25.7360   30.9610 C   0  0  0  0  0  0  0  0  0  0  0  0
   36.2620   26.3870   31.5860 C   0  0  0  0  0  0  0  0  0  0  0  0
   37.2970   25.7020   32.2550 C   0  0  0  0  0  0  0  0  0  0  0  0
   37.2250   24.3970   32.2550 N   0  0  0  0  0  0  0  0  0  0  0  0
   36.1760   23.7560   31.6240 C   0  0  0  0  0  0  0  0  0  0  0  0
   35.2030   24.3930   30.9950 N   0  0  0  0  0  0  0  0  0  0  0  0
   34.4770   26.3520   30.4750 H   0  0  0  0  0  0  0  0  0  0  0  0
   36.2900   27.4880   31.5650 H   0  0  0  0  0  0  0  0  0  0  0  0
   38.4350   22.3060   30.1670 Cl  0  0  0  0  0  0  0  0  0  0  0  0
   37.1380   21.5280   31.0540 C   0  0  0  0  0  0  0  0  0  0  0  0
   36.1730   22.2970   31.6720 C   0  0  0  0  0  0  0  0  0  0  0  0
   35.1810   21.6160   32.3540 C   0  0  0  0  0  0  0  0  0  0  0  0
   34.4180   22.2300   32.8420 H   0  0  0  0  0  0  0  0  0  0  0  0
   35.0740   20.2400   32.4690 C   0  0  0  0  0  0  0  0  0  0  0  0
   34.2490   19.8320   33.0310 H   0  0  0  0  0  0  0  0  0  0  0  0
   36.0540   19.5340   31.8390 C   0  0  0  0  0  3  0  0  0  0  0  0
   37.0820   20.1330   31.1360 C   0  0  0  0  0  3  0  0  0  0  0  0
   38.6320   26.1480   34.3420 C   0  0  2  0  0  0  0  0  0  0  0  0
   40.1330   25.6050   34.3810 C   0  0  0  0  0  0  0  0  0  0  0  0
   38.9070   24.8070   34.7420 C   0  0  1  0  0  0  0  0  0  0  0  0
   38.5680   27.0010   35.0820 H   0  0  0  0  0  0  0  0  0  0  0  0
   40.7430   26.0030   35.2260 H   0  0  0  0  0  0  0  0  0  0  0  0
   40.6030   25.3580   33.4400 H   0  0  0  0  0  0  0  0  0  0  0  0
   38.6050   24.0030   33.9940 H   0  0  0  0  0  0  0  0  0  0  0  0
   38.8680   24.2920   36.1130 C   0  0  0  0  0  0  0  0  0  0  0  0
   39.7740   23.3210   36.4590 C   0  0  0  0  0  0  0  0  0  0  0  0
   39.7390   22.8380   37.7450 C   0  0  0  0  0  0  0  0  0  0  0  0
   38.8250   23.3060   38.6780 C   0  0  0  0  0  0  0  0  0  0  0  0
   37.9380   24.2750   38.2950 C   0  0  0  0  0  0  0  0  0  0  0  0
   37.9810   24.7400   37.0340 N   0  0  0  0  0  0  0  0  0  0  0  0
   40.5110   22.9080   35.7970 H   0  0  0  0  0  0  0  0  0  0  0  0
   40.4350   22.0730   38.0520 H   0  0  0  0  0  0  0  0  0  0  0  0
   38.8600   22.8740   39.6770 H   0  0  0  0  0  0  0  0  0  0  0  0
   37.2130   24.6530   39.0180 H   0  0  0  0  0  0  0  0  0  0  0  0
  1  2  1  1  0  0  0
  1 20  1  0  0  0  0
  3  8  2  0  0  0  0
  3  4  1  0  0  0  0
  4  5  2  0  0  0  0
  5  6  1  0  0  0  0
  5  1  1  0  0  0  0
  7 13  1  0  0  0  0
  7  6  2  0  0  0  0
  8  7  1  0  0  0  0
  9  3  1  0  0  0  0
 10  4  1  0  0  0  0
 11 12  1  0  0  0  0
 12 19  2  0  0  0  0
 12 13  1  0  0  0  0
 13 14  2  0  0  0  0
 14 16  1  0  0  0  0
 14 15  1  0  0  0  0
 16 17  1  0  0  0  0
 18 16  2  0  0  0  0
 19 18  1  0  0  0  0
 20 21  1  0  0  0  0
 20 22  1  0  0  0  0
 20 23  1  1  0  0  0
 21 22  1  0  0  0  0
 21 24  1  0  0  0  0
 22 26  1  6  0  0  0
 22 27  1  0  0  0  0
 25 21  1  0  0  0  0
 27 28  2  0  0  0  0
 27 32  1  0  0  0  0
 28 29  1  0  0  0  0
 29 34  1  0  0  0  0
 29 30  2  0  0  0  0
 30 35  1  0  0  0  0
 31 30  1  0  0  0  0
 31 36  1  0  0  0  0
 32 31  2  0  0  0  0
 33 28  1  0  0  0  0
M  END
>  <minimizedAffinity>
-6.22898054

$$$$

 OpenBabel03272501373D

 36 39  0  0  1  0  0  0  0  0999 V2000
   36.9260   27.7800   33.0140 C   0  0  2  0  0  3  0  0  0  0  0  0
   37.4250   28.5050   32.0680 O   0  0  0  0  0  1  0  0  0  0  0  0
   37.2050   24.1440   32.2390 C   0  0  0  0  0  0  0  0  0  0  0  0
   36.9700   25.4970   32.1420 C   0  0  0  0  0  0  0  0  0  0  0  0
   37.2300   26.3920   33.2010 C   0  0  0  0  0  0  0  0  0  0  0  0
   37.7120   25.8700   34.2980 N   0  0  0  0  0  0  0  0  0  0  0  0
   37.9420   24.5100   34.3820 C   0  0  0  0  0  0  0  0  0  0  0  0
   37.7010   23.6670   33.3920 N   0  0  0  0  0  0  0  0  0  0  0  0
   36.9720   23.5420   31.3700 H   0  0  0  0  0  0  0  0  0  0  0  0
   36.5640   25.9010   31.2020 H   0  0  0  0  0  0  0  0  0  0  0  0
   40.8140   23.4710   34.3580 Cl  0  0  0  0  0  0  0  0  0  0  0  0
   39.7640   23.5160   35.7620 C   0  0  0  0  0  0  0  0  0  0  0  0
   38.4820   24.0120   35.6420 C   0  0  0  0  0  0  0  0  0  0  0  0
   37.7100   24.0170   36.7910 C   0  0  0  0  0  0  0  0  0  0  0  0
   36.6940   24.4110   36.6910 H   0  0  0  0  0  0  0  0  0  0  0  0
   38.1120   23.5720   38.0390 C   0  0  0  0  0  0  0  0  0  0  0  0
   37.4110   23.6300   38.8580 H   0  0  0  0  0  0  0  0  0  0  0  0
   39.3870   23.0940   38.0950 C   0  0  0  0  0  3  0  0  0  0  0  0
   40.2250   23.0520   36.9980 C   0  0  0  0  0  3  0  0  0  0  0  0
   35.9570   28.4200   33.9810 C   0  0  2  0  0  0  0  0  0  0  0  0
   34.7390   28.9780   33.1120 C   0  0  0  0  0  0  0  0  0  0  0  0
   35.6930   29.8200   33.9190 C   0  0  1  0  0  0  0  0  0  0  0  0
   35.5170   27.7540   34.7810 H   0  0  0  0  0  0  0  0  0  0  0  0
   33.7340   28.7880   33.5560 H   0  0  0  0  0  0  0  0  0  0  0  0
   34.8610   29.0140   32.0390 H   0  0  0  0  0  0  0  0  0  0  0  0
   36.4400   30.4330   33.3150 H   0  0  0  0  0  0  0  0  0  0  0  0
   35.0830   30.6290   34.9780 C   0  0  0  0  0  0  0  0  0  0  0  0
   35.8850   31.5170   35.6480 C   0  0  0  0  0  0  0  0  0  0  0  0
   35.3130   32.2760   36.6420 C   0  0  0  0  0  0  0  0  0  0  0  0
   33.9700   32.1620   36.9680 C   0  0  0  0  0  0  0  0  0  0  0  0
   33.2020   31.2640   36.2760 C   0  0  0  0  0  0  0  0  0  0  0  0
   33.7720   30.5270   35.3070 N   0  0  0  0  0  0  0  0  0  0  0  0
   36.9310   31.6640   35.4550 H   0  0  0  0  0  0  0  0  0  0  0  0
   35.9130   32.9850   37.1900 H   0  0  0  0  0  0  0  0  0  0  0  0
   33.5900   32.7980   37.7660 H   0  0  0  0  0  0  0  0  0  0  0  0
   32.1440   31.1640   36.5220 H   0  0  0  0  0  0  0  0  0  0  0  0
  1  2  1  6  0  0  0
  1  5  1  0  0  0  0
  1 20  1  0  0  0  0
  3  8  1  0  0  0  0
  4  3  2  0  0  0  0
  4  5  1  0  0  0  0
  5  6  2  0  0  0  0
  6  7  1  0  0  0  0
  7 13  1  0  0  0  0
  8  7  2  0  0  0  0
  9  3  1  0  0  0  0
 10  4  1  0  0  0  0
 11 12  1  0  0  0  0
 12 19  1  0  0  0  0
 13 12  2  0  0  0  0
 13 14  1  0  0  0  0
 14 16  2  0  0  0  0
 15 14  1  0  0  0  0
 16 18  1  0  0  0  0
 16 17  1  0  0  0  0
 19 18  2  0  0  0  0
 20 23  1  1  0  0  0
 21 24  1  0  0  0  0
 21 22  1  0  0  0  0
 21 20  1  0  0  0  0
 22 26  1  6  0  0  0
 22 20  1  0  0  0  0
 22 27  1  0  0  0  0
 25 21  1  0  0  0  0
 27 32  2  0  0  0  0
 27 28  1  0  0  0  0
 28 29  2  0  0  0  0
 29 30  1  0  0  0  0
 29 34  1  0  0  0  0
 30 35  1  0  0  0  0
 31 36  1  0  0  0  0
 31 30  2  0  0  0  0
 32 31  1  0  0  0  0
 33 28  1  0  0  0  0
M  END
>  <minimizedAffinity>
-6.07993031

$$$$

 OpenBabel03272501373D

 36 39  0  0  1  0  0  0  0  0999 V2000
   37.9870   26.8890   32.7460 C   0  0  2  0  0  3  0  0  0  0  0  0
   38.9070   26.4280   31.9630 O   0  0  0  0  0  1  0  0  0  0  0  0
   36.4570   29.6410   30.7500 C   0  0  0  0  0  0  0  0  0  0  0  0
   37.2890   28.6340   31.1820 C   0  0  0  0  0  0  0  0  0  0  0  0
   37.0470   27.9010   32.3630 C   0  0  0  0  0  0  0  0  0  0  0  0
   35.9780   28.2280   33.0400 N   0  0  0  0  0  0  0  0  0  0  0  0
   35.1520   29.2410   32.5950 C   0  0  0  0  0  0  0  0  0  0  0  0
   35.3740   29.9310   31.4890 N   0  0  0  0  0  0  0  0  0  0  0  0
   36.7310   30.1430   29.8310 H   0  0  0  0  0  0  0  0  0  0  0  0
   38.1810   28.3860   30.5850 H   0  0  0  0  0  0  0  0  0  0  0  0
   35.6180   30.7610   35.2020 Cl  0  0  0  0  0  0  0  0  0  0  0  0
   34.0590   30.2210   34.6090 C   0  0  0  0  0  0  0  0  0  0  0  0
   33.9800   29.5410   33.4110 C   0  0  0  0  0  0  0  0  0  0  0  0
   32.7170   29.1450   33.0050 C   0  0  0  0  0  0  0  0  0  0  0  0
   32.6600   28.6060   32.0550 H   0  0  0  0  0  0  0  0  0  0  0  0
   31.5370   29.3720   33.6930 C   0  0  0  0  0  0  0  0  0  0  0  0
   30.6140   29.0090   33.2660 H   0  0  0  0  0  0  0  0  0  0  0  0
   31.6780   30.0470   34.8680 C   0  0  0  0  0  3  0  0  0  0  0  0
   32.8990   30.4780   35.3470 C   0  0  0  0  0  3  0  0  0  0  0  0
   37.8920   26.3420   34.1510 C   0  0  2  0  0  0  0  0  0  0  0  0
   38.9450   27.1560   35.0350 C   0  0  0  0  0  0  0  0  0  0  0  0
   39.0060   25.6790   34.7450 C   0  0  1  0  0  0  0  0  0  0  0  0
   36.8900   26.4270   34.6660 H   0  0  0  0  0  0  0  0  0  0  0  0
   38.5630   27.4580   36.0380 H   0  0  0  0  0  0  0  0  0  0  0  0
   39.6650   27.7740   34.5180 H   0  0  0  0  0  0  0  0  0  0  0  0
   39.8230   25.3520   34.0220 H   0  0  0  0  0  0  0  0  0  0  0  0
   38.9590   24.8010   35.9180 C   0  0  0  0  0  0  0  0  0  0  0  0
   38.0400   25.0870   36.8950 C   0  0  0  0  0  0  0  0  0  0  0  0
   37.9950   24.2640   37.9960 C   0  0  0  0  0  0  0  0  0  0  0  0
   38.8450   23.1760   38.1300 C   0  0  0  0  0  0  0  0  0  0  0  0
   39.7490   22.9240   37.1340 C   0  0  0  0  0  0  0  0  0  0  0  0
   39.7840   23.7350   36.0630 N   0  0  0  0  0  0  0  0  0  0  0  0
   37.3490   25.9080   36.8650 H   0  0  0  0  0  0  0  0  0  0  0  0
   37.2850   24.4580   38.7850 H   0  0  0  0  0  0  0  0  0  0  0  0
   38.7490   22.5710   39.0320 H   0  0  0  0  0  0  0  0  0  0  0  0
   40.4230   22.0710   37.2270 H   0  0  0  0  0  0  0  0  0  0  0  0
  1  2  1  1  0  0  0
  1 20  1  0  0  0  0
  3  4  2  0  0  0  0
  3  8  1  0  0  0  0
  4  5  1  0  0  0  0
  5  1  1  0  0  0  0
  5  6  2  0  0  0  0
  7  6  1  0  0  0  0
  7 13  1  0  0  0  0
  8  7  2  0  0  0  0
  9  3  1  0  0  0  0
 10  4  1  0  0  0  0
 12 11  1  0  0  0  0
 12 19  1  0  0  0  0
 13 12  2  0  0  0  0
 14 13  1  0  0  0  0
 14 16  2  0  0  0  0
 15 14  1  0  0  0  0
 16 18  1  0  0  0  0
 17 16  1  0  0  0  0
 18 19  2  0  0  0  0
 20 23  1  1  0  0  0
 20 22  1  0  0  0  0
 20 21  1  0  0  0  0
 21 24  1  0  0  0  0
 22 26  1  6  0  0  0
 22 21  1  0  0  0  0
 22 27  1  0  0  0  0
 25 21  1  0  0  0  0
 27 32  2  0  0  0  0
 27 28  1  0  0  0  0
 28 29  2  0  0  0  0
 29 30  1  0  0  0  0
 29 34  1  0  0  0  0
 30 35  1  0  0  0  0
 31 36  1  0  0  0  0
 31 30  2  0  0  0  0
 32 31  1  0  0  0  0
 33 28  1  0  0  0  0
M  END
>  <minimizedAffinity>
-5.96221828

$$$$

 OpenBabel03272501373D

 36 39  0  0  1  0  0  0  0  0999 V2000
   37.1220   27.4350   33.8870 C   0  0  2  0  0  3  0  0  0  0  0  0
   36.5320   28.5840   33.8420 O   0  0  0  0  0  1  0  0  0  0  0  0
   38.6650   26.7260   30.5680 C   0  0  0  0  0  0  0  0  0  0  0  0
   38.2660   27.3490   31.7290 C   0  0  0  0  0  0  0  0  0  0  0  0
   37.5140   26.6930   32.7250 C   0  0  0  0  0  0  0  0  0  0  0  0
   37.2060   25.4440   32.4930 N   0  0  0  0  0  0  0  0  0  0  0  0
   37.6130   24.8310   31.3230 C   0  0  0  0  0  0  0  0  0  0  0  0
   38.3180   25.4410   30.3860 N   0  0  0  0  0  0  0  0  0  0  0  0
   39.2390   27.3160   29.8660 H   0  0  0  0  0  0  0  0  0  0  0  0
   38.5440   28.4020   31.8910 H   0  0  0  0  0  0  0  0  0  0  0  0
   34.6250   24.1980   31.3190 Cl  0  0  0  0  0  0  0  0  0  0  0  0
   35.9100   23.0220   31.1240 C   0  0  0  0  0  0  0  0  0  0  0  0
   37.2260   23.4350   31.1440 C   0  0  0  0  0  0  0  0  0  0  0  0
   38.1870   22.4520   30.9840 C   0  0  0  0  0  0  0  0  0  0  0  0
   39.2290   22.7850   31.0010 H   0  0  0  0  0  0  0  0  0  0  0  0
   37.9420   21.1010   30.8070 C   0  0  0  0  0  0  0  0  0  0  0  0
   38.7840   20.4340   30.6940 H   0  0  0  0  0  0  0  0  0  0  0  0
   36.6250   20.7530   30.7970 C   0  0  0  0  0  3  0  0  0  0  0  0
   35.6020   21.6690   30.9500 C   0  0  0  0  0  3  0  0  0  0  0  0
   37.4130   26.8240   35.2380 C   0  0  2  0  0  0  0  0  0  0  0  0
   38.9100   27.2330   35.6160 C   0  0  0  0  0  0  0  0  0  0  0  0
   38.4230   25.8270   35.3780 C   0  0  1  0  0  0  0  0  0  0  0  0
   36.7540   27.1460   36.0980 H   0  0  0  0  0  0  0  0  0  0  0  0
   39.0450   27.5480   36.6770 H   0  0  0  0  0  0  0  0  0  0  0  0
   39.5260   27.6620   34.8380 H   0  0  0  0  0  0  0  0  0  0  0  0
   38.7710   25.3430   34.4080 H   0  0  0  0  0  0  0  0  0  0  0  0
   38.5730   24.9060   36.5090 C   0  0  0  0  0  0  0  0  0  0  0  0
   37.8560   25.1690   37.6480 C   0  0  0  0  0  0  0  0  0  0  0  0
   37.9950   24.3060   38.7090 C   0  0  0  0  0  0  0  0  0  0  0  0
   38.8280   23.1990   38.6460 C   0  0  0  0  0  0  0  0  0  0  0  0
   39.5270   22.9700   37.4920 C   0  0  0  0  0  0  0  0  0  0  0  0
   39.3830   23.8210   36.4610 N   0  0  0  0  0  0  0  0  0  0  0  0
   37.1910   26.0030   37.7750 H   0  0  0  0  0  0  0  0  0  0  0  0
   37.4470   24.4810   39.6220 H   0  0  0  0  0  0  0  0  0  0  0  0
   38.8850   22.5620   39.5280 H   0  0  0  0  0  0  0  0  0  0  0  0
   40.1860   22.1030   37.4290 H   0  0  0  0  0  0  0  0  0  0  0  0
  1  2  1  6  0  0  0
  1 20  1  0  0  0  0
  3  4  1  0  0  0  0
  4 10  1  0  0  0  0
  4  5  2  0  0  0  0
  5  1  1  0  0  0  0
  6  5  1  0  0  0  0
  7  6  2  0  0  0  0
  8  3  2  0  0  0  0
  8  7  1  0  0  0  0
  9  3  1  0  0  0  0
 12 13  1  0  0  0  0
 12 11  1  0  0  0  0
 13  7  1  0  0  0  0
 14 15  1  0  0  0  0
 14 13  2  0  0  0  0
 16 14  1  0  0  0  0
 17 16  1  0  0  0  0
 18 16  2  0  0  0  0
 18 19  1  0  0  0  0
 19 12  2  0  0  0  0
 20 22  1  0  0  0  0
 20 21  1  0  0  0  0
 20 23  1  1  0  0  0
 21 24  1  0  0  0  0
 22 26  1  6  0  0  0
 22 21  1  0  0  0  0
 22 27  1  0  0  0  0
 25 21  1  0  0  0  0
 27 28  1  0  0  0  0
 28 33  1  0  0  0  0
 28 29  2  0  0  0  0
 29 34  1  0  0  0  0
 30 29  1  0  0  0  0
 30 35  1  0  0  0  0
 31 30  2  0  0  0  0
 32 27  2  0  0  0  0
 32 31  1  0  0  0  0
 36 31  1  0  0  0  0
M  END
>  <minimizedAffinity>
-5.86618805

$$$$

 OpenBabel03272501373D

 36 39  0  0  1  0  0  0  0  0999 V2000
   36.2530   27.6200   31.6960 C   0  0  2  0  0  3  0  0  0  0  0  0
   35.9230   27.3410   30.4780 O   0  0  0  0  0  1  0  0  0  0  0  0
   39.8130   26.7990   32.4390 C   0  0  0  0  0  0  0  0  0  0  0  0
   38.6730   27.3260   31.8760 C   0  0  0  0  0  0  0  0  0  0  0  0
   37.3820   27.0460   32.3680 C   0  0  0  0  0  0  0  0  0  0  0  0
   37.3140   26.2490   33.4030 N   0  0  0  0  0  0  0  0  0  0  0  0
   38.4660   25.7280   33.9580 C   0  0  0  0  0  0  0  0  0  0  0  0
   39.6790   25.9870   33.5000 N   0  0  0  0  0  0  0  0  0  0  0  0
   40.7570   27.0740   31.9870 H   0  0  0  0  0  0  0  0  0  0  0  0
   38.7690   27.9930   31.0050 H   0  0  0  0  0  0  0  0  0  0  0  0
   38.2870   27.0460   36.7070 Cl  0  0  0  0  0  0  0  0  0  0  0  0
   38.2060   25.3210   36.4030 C   0  0  0  0  0  0  0  0  0  0  0  0
   38.3000   24.8480   35.1100 C   0  0  0  0  0  0  0  0  0  0  0  0
   38.2270   23.4750   34.9460 C   0  0  0  0  0  0  0  0  0  0  0  0
   38.3020   23.1050   33.9190 H   0  0  0  0  0  0  0  0  0  0  0  0
   38.0710   22.5450   35.9590 C   0  0  0  0  0  0  0  0  0  0  0  0
   38.0290   21.4990   35.6970 H   0  0  0  0  0  0  0  0  0  0  0  0
   37.9850   23.0710   37.2130 C   0  0  0  0  0  3  0  0  0  0  0  0
   38.0480   24.4270   37.4670 C   0  0  0  0  0  3  0  0  0  0  0  0
   35.4040   28.6020   32.4680 C   0  0  2  0  0  0  0  0  0  0  0  0
   35.9510   30.0610   32.1170 C   0  0  0  0  0  0  0  0  0  0  0  0
   35.9860   29.4210   33.4810 C   0  0  1  0  0  0  0  0  0  0  0  0
   34.2950   28.6010   32.2500 H   0  0  0  0  0  0  0  0  0  0  0  0
   35.1520   30.8180   31.9350 H   0  0  0  0  0  0  0  0  0  0  0  0
   36.8970   30.1330   31.5990 H   0  0  0  0  0  0  0  0  0  0  0  0
   37.0140   29.0940   33.8440 H   0  0  0  0  0  0  0  0  0  0  0  0
   35.2580   30.1360   34.5330 C   0  0  0  0  0  0  0  0  0  0  0  0
   35.9780   30.9530   35.3680 C   0  0  0  0  0  0  0  0  0  0  0  0
   35.2960   31.6240   36.3550 C   0  0  0  0  0  0  0  0  0  0  0  0
   33.9240   31.4920   36.5160 C   0  0  0  0  0  0  0  0  0  0  0  0
   33.2420   30.6670   35.6640 C   0  0  0  0  0  0  0  0  0  0  0  0
   33.9190   30.0150   34.7020 N   0  0  0  0  0  0  0  0  0  0  0  0
   37.0380   31.1090   35.3080 H   0  0  0  0  0  0  0  0  0  0  0  0
   35.8290   32.2760   37.0300 H   0  0  0  0  0  0  0  0  0  0  0  0
   33.4560   32.0560   37.3220 H   0  0  0  0  0  0  0  0  0  0  0  0
   32.1630   30.5530   35.7790 H   0  0  0  0  0  0  0  0  0  0  0  0
  1  2  1  1  0  0  0
  1  5  1  0  0  0  0
  1 20  1  0  0  0  0
  3  8  1  0  0  0  0
  4  5  1  0  0  0  0
  4  3  2  0  0  0  0
  5  6  2  0  0  0  0
  6  7  1  0  0  0  0
  7 13  1  0  0  0  0
  8  7  2  0  0  0  0
  9  3  1  0  0  0  0
 10  4  1  0  0  0  0
 12 11  1  0  0  0  0
 12 19  1  0  0  0  0
 13 12  2  0  0  0  0
 14 13  1  0  0  0  0
 14 16  2  0  0  0  0
 15 14  1  0  0  0  0
 16 18  1  0  0  0  0
 17 16  1  0  0  0  0
 18 19  2  0  0  0  0
 20 23  1  1  0  0  0
 20 22  1  0  0  0  0
 21 20  1  0  0  0  0
 21 22  1  0  0  0  0
 22 26  1  1  0  0  0
 22 27  1  0  0  0  0
 24 21  1  0  0  0  0
 25 21  1  0  0  0  0
 27 32  2  0  0  0  0
 27 28  1  0  0  0  0
 28 29  2  0  0  0  0
 29 30  1  0  0  0  0
 29 34  1  0  0  0  0
 30 35  1  0  0  0  0
 31 36  1  0  0  0  0
 31 30  2  0  0  0  0
 32 31  1  0  0  0  0
 33 28  1  0  0  0  0
M  END
>  <minimizedAffinity>
-5.79005432

$$$$

 OpenBabel03272501373D

 36 39  0  0  1  0  0  0  0  0999 V2000
   39.2200   24.9310   32.2130 C   0  0  2  0  0  3  0  0  0  0  0  0
   40.0900   24.7690   31.2700 O   0  0  0  0  0  1  0  0  0  0  0  0
   35.7000   25.3960   31.0770 C   0  0  0  0  0  0  0  0  0  0  0  0
   36.9430   24.8600   31.3280 C   0  0  0  0  0  0  0  0  0  0  0  0
   37.9470   25.5630   32.0250 C   0  0  0  0  0  0  0  0  0  0  0  0
   37.6400   26.7680   32.4300 N   0  0  0  0  0  0  0  0  0  0  0  0
   36.3890   27.2930   32.1710 C   0  0  0  0  0  0  0  0  0  0  0  0
   35.4440   26.6390   31.5180 N   0  0  0  0  0  0  0  0  0  0  0  0
   34.9980   24.7760   30.5340 H   0  0  0  0  0  0  0  0  0  0  0  0
   37.1660   23.8420   30.9730 H   0  0  0  0  0  0  0  0  0  0  0  0
   36.6240   29.5730   30.1530 Cl  0  0  0  0  0  0  0  0  0  0  0  0
   36.2040   29.7570   31.8450 C   0  0  0  0  0  0  0  0  0  0  0  0
   36.1300   28.6440   32.6570 C   0  0  0  0  0  0  0  0  0  0  0  0
   35.7930   28.8650   33.9820 C   0  0  0  0  0  0  0  0  0  0  0  0
   35.7360   27.9790   34.6220 H   0  0  0  0  0  0  0  0  0  0  0  0
   35.5260   30.0960   34.5560 C   0  0  0  0  0  0  0  0  0  0  0  0
   35.2740   30.1320   35.6040 H   0  0  0  0  0  0  0  0  0  0  0  0
   35.6150   31.1570   33.7060 C   0  0  0  0  0  3  0  0  0  0  0  0
   35.9450   31.0270   32.3700 C   0  0  0  0  0  3  0  0  0  0  0  0
   39.5570   24.4360   33.6000 C   0  0  2  0  0  0  0  0  0  0  0  0
   39.2280   22.8730   33.6250 C   0  0  0  0  0  0  0  0  0  0  0  0
   38.5350   23.9240   34.4530 C   0  0  1  0  0  0  0  0  0  0  0  0
   40.6290   24.5550   33.9390 H   0  0  0  0  0  0  0  0  0  0  0  0
   39.9970   22.2510   34.1390 H   0  0  0  0  0  0  0  0  0  0  0  0
   38.6600   22.4650   32.8000 H   0  0  0  0  0  0  0  0  0  0  0  0
   37.4680   24.1720   34.1420 H   0  0  0  0  0  0  0  0  0  0  0  0
   38.6330   23.7500   35.9050 C   0  0  0  0  0  0  0  0  0  0  0  0
   39.6860   23.0180   36.3930 C   0  0  0  0  0  0  0  0  0  0  0  0
   39.7790   22.8550   37.7550 C   0  0  0  0  0  0  0  0  0  0  0  0
   38.8480   23.4070   38.6230 C   0  0  0  0  0  0  0  0  0  0  0  0
   37.8120   24.1310   38.0980 C   0  0  0  0  0  0  0  0  0  0  0  0
   37.7310   24.2830   36.7650 N   0  0  0  0  0  0  0  0  0  0  0  0
   40.4460   22.5600   35.7890 H   0  0  0  0  0  0  0  0  0  0  0  0
   40.5930   22.2850   38.1750 H   0  0  0  0  0  0  0  0  0  0  0  0
   38.9900   23.2340   39.6890 H   0  0  0  0  0  0  0  0  0  0  0  0
   37.0720   24.5700   38.7690 H   0  0  0  0  0  0  0  0  0  0  0  0
  1  2  1  1  0  0  0
  1 20  1  0  0  0  0
  3  4  2  0  0  0  0
  3  8  1  0  0  0  0
  4  5  1  0  0  0  0
  5  1  1  0  0  0  0
  5  6  2  0  0  0  0
  7  6  1  0  0  0  0
  7 13  1  0  0  0  0
  8  7  2  0  0  0  0
  9  3  1  0  0  0  0
 10  4  1  0  0  0  0
 11 12  1  0  0  0  0
 12 19  2  0  0  0  0
 12 13  1  0  0  0  0
 13 14  2  0  0  0  0
 14 16  1  0  0  0  0
 14 15  1  0  0  0  0
 16 17  1  0  0  0  0
 18 16  2  0  0  0  0
 19 18  1  0  0  0  0
 20 21  1  0  0  0  0
 20 23  1  1  0  0  0
 20 22  1  0  0  0  0
 21 24  1  0  0  0  0
 21 22  1  0  0  0  0
 22 26  1  6  0  0  0
 22 27  1  0  0  0  0
 25 21  1  0  0  0  0
 27 28  2  0  0  0  0
 27 32  1  0  0  0  0
 28 29  1  0  0  0  0
 29 34  1  0  0  0  0
 29 30  2  0  0  0  0
 30 35  1  0  0  0  0
 31 30  1  0  0  0  0
 31 36  1  0  0  0  0
 32 31  2  0  0  0  0
 33 28  1  0  0  0  0
M  END
>  <minimizedAffinity>
-5.74892998

$$$$

 OpenBabel03272501373D

 36 39  0  0  1  0  0  0  0  0999 V2000
   37.5470   27.0850   33.0720 C   0  0  2  0  0  3  0  0  0  0  0  0
   38.2970   27.7910   32.2900 O   0  0  0  0  0  1  0  0  0  0  0  0
   37.1090   23.4200   32.5520 C   0  0  0  0  0  0  0  0  0  0  0  0
   37.0340   24.7880   32.4160 C   0  0  0  0  0  0  0  0  0  0  0  0
   37.7100   25.6760   33.2780 C   0  0  0  0  0  0  0  0  0  0  0  0
   38.4240   25.1340   34.2290 N   0  0  0  0  0  0  0  0  0  0  0  0
   38.4900   23.7600   34.3540 C   0  0  0  0  0  0  0  0  0  0  0  0
   37.8580   22.9220   33.5490 N   0  0  0  0  0  0  0  0  0  0  0  0
   36.5530   22.8240   31.8400 H   0  0  0  0  0  0  0  0  0  0  0  0
   36.4230   25.2090   31.6020 H   0  0  0  0  0  0  0  0  0  0  0  0
   37.3970   24.0570   37.1900 Cl  0  0  0  0  0  0  0  0  0  0  0  0
   38.9260   23.3110   36.7660 C   0  0  0  0  0  0  0  0  0  0  0  0
   39.3090   23.2380   35.4430 C   0  0  0  0  0  0  0  0  0  0  0  0
   40.5280   22.6360   35.1830 C   0  0  0  0  0  0  0  0  0  0  0  0
   40.8270   22.5800   34.1320 H   0  0  0  0  0  0  0  0  0  0  0  0
   41.3880   22.1060   36.1300 C   0  0  0  0  0  0  0  0  0  0  0  0
   42.3140   21.6630   35.7950 H   0  0  0  0  0  0  0  0  0  0  0  0
   40.9580   22.2090   37.4180 C   0  0  0  0  0  3  0  0  0  0  0  0
   39.7560   22.7940   37.7670 C   0  0  0  0  0  3  0  0  0  0  0  0
   36.4250   27.7750   33.8130 C   0  0  2  0  0  0  0  0  0  0  0  0
   35.4660   28.4140   32.7070 C   0  0  0  0  0  0  0  0  0  0  0  0
   36.2630   29.1890   33.7240 C   0  0  1  0  0  0  0  0  0  0  0  0
   35.7800   27.1300   34.4800 H   0  0  0  0  0  0  0  0  0  0  0  0
   34.3780   28.2810   32.9120 H   0  0  0  0  0  0  0  0  0  0  0  0
   35.8270   28.4520   31.6890 H   0  0  0  0  0  0  0  0  0  0  0  0
   37.1590   29.7600   33.3160 H   0  0  0  0  0  0  0  0  0  0  0  0
   35.4780   30.0240   34.6390 C   0  0  0  0  0  0  0  0  0  0  0  0
   34.1150   29.8710   34.6360 C   0  0  0  0  0  0  0  0  0  0  0  0
   33.3780   30.6530   35.4940 C   0  0  0  0  0  0  0  0  0  0  0  0
   33.9770   31.5730   36.3410 C   0  0  0  0  0  0  0  0  0  0  0  0
   35.3400   31.6980   36.3140 C   0  0  0  0  0  0  0  0  0  0  0  0
   36.0500   30.9280   35.4710 N   0  0  0  0  0  0  0  0  0  0  0  0
   33.5770   29.1820   34.0120 H   0  0  0  0  0  0  0  0  0  0  0  0
   32.3040   30.5600   35.5190 H   0  0  0  0  0  0  0  0  0  0  0  0
   33.3270   32.1560   36.9920 H   0  0  0  0  0  0  0  0  0  0  0  0
   35.8250   32.4180   36.9750 H   0  0  0  0  0  0  0  0  0  0  0  0
  1  2  1  6  0  0  0
  1  5  1  0  0  0  0
  1 20  1  0  0  0  0
  3  8  1  0  0  0  0
  4  3  2  0  0  0  0
  4  5  1  0  0  0  0
  5  6  2  0  0  0  0
  6  7  1  0  0  0  0
  7 13  1  0  0  0  0
  8  7  2  0  0  0  0
  9  3  1  0  0  0  0
 10  4  1  0  0  0  0
 12 11  1  0  0  0  0
 12 19  1  0  0  0  0
 13 12  2  0  0  0  0
 14 13  1  0  0  0  0
 14 16  2  0  0  0  0
 15 14  1  0  0  0  0
 16 18  1  0  0  0  0
 17 16  1  0  0  0  0
 18 19  2  0  0  0  0
 20 23  1  1  0  0  0
 21 24  1  0  0  0  0
 21 22  1  0  0  0  0
 21 20  1  0  0  0  0
 22 26  1  6  0  0  0
 22 20  1  0  0  0  0
 22 27  1  0  0  0  0
 25 21  1  0  0  0  0
 27 32  1  0  0  0  0
 28 27  2  0  0  0  0
 28 29  1  0  0  0  0
 29 34  1  0  0  0  0
 29 30  2  0  0  0  0
 30 35  1  0  0  0  0
 31 30  1  0  0  0  0
 31 36  1  0  0  0  0
 32 31  2  0  0  0  0
 33 28  1  0  0  0  0
M  END
>  <minimizedAffinity>
-5.6804409

$$$$
