
 OpenBabel03262521373D

 28 30  0  0  0  0  0  0  0  0999 V2000
   36.1200   31.0340   48.6630 F   0  0  0  0  0  0  0  0  0  0  0  0
   36.4010   30.8110   47.3400 C   0  0  0  0  0  0  0  0  0  0  0  0
   35.6610   29.9410   46.5630 C   0  0  0  0  0  0  0  0  0  0  0  0
   35.9830   29.7490   45.2340 C   0  0  0  0  0  0  0  0  0  0  0  0
   37.0600   30.4340   44.6600 C   0  0  0  0  0  0  0  0  0  0  0  0
   37.7720   31.2960   45.4800 C   0  0  0  0  0  0  0  0  0  0  0  0
   37.4720   31.5020   46.7990 C   0  0  0  0  0  0  0  0  0  0  0  0
   35.4110   29.0750   44.6320 H   0  0  0  0  0  0  0  0  0  0  0  0
   37.2900   30.2630   43.6160 H   0  0  0  0  0  0  0  0  0  0  0  0
   38.5890   31.7840   44.9550 H   0  0  0  0  0  0  0  0  0  0  0  0
   34.9210   28.6250   48.4200 C   0  0  0  0  0  0  0  0  0  0  0  0
   34.5760   29.2780   47.2200 C   0  0  0  0  0  0  0  0  0  0  0  0
   33.2390   29.2070   46.8130 C   0  0  0  0  0  0  0  0  0  0  0  0
   32.3510   28.5190   47.5890 N   0  0  0  0  0  0  0  0  0  0  0  0
   32.7160   27.9110   48.7230 C   0  0  0  0  0  0  0  0  0  0  0  0
   33.9880   27.9620   49.1390 N   0  0  0  0  0  0  0  0  0  0  0  0
   35.9270   28.6200   48.8240 H   0  0  0  0  0  0  0  0  0  0  0  0
   33.0220   29.7090   45.9110 H   0  0  0  0  0  0  0  0  0  0  0  0
   32.0170   27.3640   49.3420 H   0  0  0  0  0  0  0  0  0  0  0  0
   39.6400   32.5870   45.1420 Cl  0  0  0  0  0  0  0  0  0  0  0  0
   39.3570   32.9960   46.8240 C   0  0  0  0  0  0  0  0  0  0  0  0
   38.3060   32.4330   47.5290 C   0  0  0  0  0  0  0  0  0  0  0  0
   38.1270   32.7900   48.8490 C   0  0  0  0  0  0  0  0  0  0  0  0
   37.2960   32.3310   49.3720 H   0  0  0  0  0  0  0  0  0  0  0  0
   38.9320   33.6770   49.5250 C   0  0  0  0  0  0  0  0  0  0  0  0
   38.7780   33.9460   50.5600 H   0  0  0  0  0  0  0  0  0  0  0  0
   39.9870   34.2350   48.7950 C   0  0  0  0  0  0  0  0  0  0  0  0
   40.1740   33.8840   47.4720 C   0  0  0  0  0  0  0  0  0  0  0  0
  2  1  1  0  0  0  0
  3 12  1  0  0  0  0
  3  2  2  0  0  0  0
  4  3  1  0  0  0  0
  5  4  2  0  0  0  0
  5  6  1  0  0  0  0
  6  7  2  0  0  0  0
  7  2  1  0  0  0  0
  7 22  1  0  0  0  0
  8  4  1  0  0  0  0
  9  5  1  0  0  0  0
 10  6  1  0  0  0  0
 11 17  1  0  0  0  0
 11 16  1  0  0  0  0
 12 11  2  0  0  0  0
 13 12  1  0  0  0  0
 13 14  2  0  0  0  0
 14 15  1  0  0  0  0
 15 16  2  0  0  0  0
 15 19  1  0  0  0  0
 18 13  1  0  0  0  0
 20 21  1  0  0  0  0
 21 28  2  0  0  0  0
 21 22  1  0  0  0  0
 22 23  2  0  0  0  0
 23 24  1  0  0  0  0
 23 25  1  0  0  0  0
 25 26  1  0  0  0  0
 27 25  2  0  0  0  0
 28 27  1  0  0  0  0
M  END
>  <minimizedAffinity>
-5.21593857

>  <minimizedRMSD>
2.93009615

$$$$
