
 OpenBabel03272509543D

 43 46  0  0  0  0  0  0  0  0999 V2000
   34.5230   28.4640   48.2370 C   0  0  0  0  0  0  0  0  0  0  0  0
   35.4760   28.4210   47.6720 H   0  0  0  0  0  0  0  0  0  0  0  0
   34.0720   29.4650   47.9990 H   0  0  0  0  0  0  0  0  0  0  0  0
   33.5700   27.3490   47.9070 C   0  0  0  0  0  0  0  0  0  0  0  0
   33.8660   26.9800   46.8850 H   0  0  0  0  0  0  0  0  0  0  0  0
   33.6330   26.4790   48.5700 H   0  0  0  0  0  0  0  0  0  0  0  0
   32.1750   27.8250   47.7560 C   0  0  0  0  0  0  0  0  0  0  0  0
   31.2700   27.5360   48.7590 C   0  0  0  0  0  0  0  0  0  0  0  0
   29.9650   27.9250   48.7210 C   0  0  0  0  0  0  0  0  0  0  0  0
   29.5350   28.6200   47.6650 N   0  0  0  0  0  0  0  0  0  0  0  0
   30.4190   28.9050   46.6790 C   0  0  0  0  0  0  0  0  0  0  0  0
   31.7220   28.5360   46.6830 N   0  0  0  0  0  0  0  0  0  0  0  0
   31.5720   26.9660   49.6500 H   0  0  0  0  0  0  0  0  0  0  0  0
   29.2670   27.6900   49.5160 H   0  0  0  0  0  0  0  0  0  0  0  0
   32.1060   31.2920   45.7990 Cl  0  0  0  0  0  0  0  0  0  0  0  0
   30.6040   30.7750   45.0620 C   0  0  0  0  0  0  0  0  0  0  0  0
   29.9080   29.6670   45.5420 C   0  0  0  0  0  0  0  0  0  0  0  0
   28.7270   29.2880   44.9370 C   0  0  0  0  0  0  0  0  0  0  0  0
   28.1730   28.4300   45.2960 H   0  0  0  0  0  0  0  0  0  0  0  0
   28.2200   29.9980   43.8520 C   0  0  0  0  0  0  0  0  0  0  0  0
   27.2890   29.6510   43.4220 H   0  0  0  0  0  0  0  0  0  0  0  0
   28.8750   31.1000   43.3450 C   0  0  0  0  0  3  0  0  0  0  0  0
   30.0340   31.4230   43.9860 C   0  0  0  0  0  3  0  0  0  0  0  0
   34.8650   28.4240   49.6200 O   0  0  0  0  0  0  0  0  0  0  0  0
   37.3430   30.1700   51.5800 C   0  0  0  0  0  0  0  0  0  0  0  0
   38.0590   30.8200   50.5520 C   0  0  0  0  0  0  0  0  0  0  0  0
   37.6490   30.6200   49.2370 C   0  0  0  0  0  0  0  0  0  0  0  0
   36.5600   29.7900   49.0660 N   0  0  0  0  0  0  0  0  0  0  0  0
   35.9060   29.1920   50.0460 C   0  0  0  0  0  0  0  0  0  0  0  0
   36.3040   29.3860   51.3280 N   0  0  0  0  0  0  0  0  0  0  0  0
   37.7390   30.3890   52.5510 H   0  0  0  0  0  0  0  0  0  0  0  0
   38.8990   31.4650   50.6330 H   0  0  0  0  0  0  0  0  0  0  0  0
   39.0250   33.1520   49.0080 F   0  0  0  0  0  0  0  0  0  0  0  0
   38.8920   32.3740   47.9310 C   0  0  0  0  0  0  0  0  0  0  0  0
   38.2410   31.1880   48.0630 C   0  0  0  0  0  0  0  0  0  0  0  0
   38.1660   30.4700   46.8800 C   0  0  0  0  0  0  0  0  0  0  0  0
   38.6970   30.9110   45.6890 C   0  0  0  0  0  0  0  0  0  0  0  0
   39.3460   32.1190   45.6080 C   0  0  0  0  0  0  0  0  0  0  0  0
   39.4420   32.8650   46.7670 C   0  0  0  0  0  0  0  0  0  0  0  0
   37.6850   29.5040   46.7910 H   0  0  0  0  0  0  0  0  0  0  0  0
   38.6420   30.3570   44.7610 H   0  0  0  0  0  0  0  0  0  0  0  0
   39.7700   32.4930   44.7000 H   0  0  0  0  0  0  0  0  0  0  0  0
   39.9490   33.8180   46.7280 H   0  0  0  0  0  0  0  0  0  0  0  0
  1 24  1  0  0  0  0
  2  1  1  0  0  0  0
  3  1  1  0  0  0  0
  4  1  1  0  0  0  0
  4  6  1  0  0  0  0
  5  4  1  0  0  0  0
  7  4  1  0  0  0  0
  7  8  1  0  0  0  0
  8 13  1  0  0  0  0
  9  8  2  0  0  0  0
  9 14  1  0  0  0  0
 10  9  1  0  0  0  0
 11 12  1  0  0  0  0
 11 10  2  0  0  0  0
 12  7  2  0  0  0  0
 16 17  1  0  0  0  0
 16 15  1  0  0  0  0
 17 11  1  0  0  0  0
 18 19  1  0  0  0  0
 18 17  2  0  0  0  0
 20 18  1  0  0  0  0
 21 20  1  0  0  0  0
 22 20  2  0  0  0  0
 22 23  1  0  0  0  0
 23 16  2  0  0  0  0
 24 29  1  0  0  0  0
 25 31  1  0  0  0  0
 26 32  1  0  0  0  0
 26 25  2  0  0  0  0
 27 26  1  0  0  0  0
 28 27  2  0  0  0  0
 28 29  1  0  0  0  0
 29 30  2  0  0  0  0
 30 25  1  0  0  0  0
 34 35  1  0  0  0  0
 34 33  1  0  0  0  0
 35 27  1  0  0  0  0
 36 35  2  0  0  0  0
 37 36  1  0  0  0  0
 38 37  2  0  0  0  0
 38 39  1  0  0  0  0
 39 34  2  0  0  0  0
 40 36  1  0  0  0  0
 41 37  1  0  0  0  0
 42 38  1  0  0  0  0
 43 39  1  0  0  0  0
M  END
>  <minimizedAffinity>
-6.68896055

>  <minimizedRMSD>
0.501948893

$$$$
