
 OpenBabel03272500303D

 28 30  0  0  0  0  0  0  0  0999 V2000
   37.0870   30.0540   46.2610 Cl  0  0  0  0  0  0  0  0  0  0  0  0
   37.5850   31.2250   47.4630 C   0  0  0  0  0  0  0  0  0  0  0  0
   38.5660   32.1240   47.0790 C   0  0  0  0  0  0  0  0  0  0  0  0
   38.9790   33.0650   48.0200 C   0  0  0  0  0  0  0  0  0  0  0  0
   38.4090   33.0670   49.2720 C   0  0  0  0  0  0  0  0  0  0  0  0
   37.4440   32.1520   49.5890 C   0  0  0  0  0  0  0  0  0  0  0  0
   37.0000   31.2090   48.7140 C   0  0  0  0  0  0  0  0  0  0  0  0
   39.7360   33.7790   47.7640 H   0  0  0  0  0  0  0  0  0  0  0  0
   38.6840   33.7700   50.0460 H   0  0  0  0  0  0  0  0  0  0  0  0
   36.9910   32.1540   50.5830 H   0  0  0  0  0  0  0  0  0  0  0  0
   39.0670   32.8680   43.5440 C   0  0  0  0  0  0  0  0  0  0  0  0
   40.1480   32.0710   43.1710 C   0  0  0  0  0  0  0  0  0  0  0  0
   40.7120   31.2640   44.1620 C   0  0  0  0  0  0  0  0  0  0  0  0
   40.1820   31.2960   45.4250 N   0  0  0  0  0  0  0  0  0  0  0  0
   39.1400   32.0800   45.7370 C   0  0  0  0  0  0  0  0  0  0  0  0
   38.5880   32.8630   44.7860 N   0  0  0  0  0  0  0  0  0  0  0  0
   38.5770   33.5250   42.8210 H   0  0  0  0  0  0  0  0  0  0  0  0
   40.5000   32.1080   42.1540 H   0  0  0  0  0  0  0  0  0  0  0  0
   41.5420   30.6400   43.9110 H   0  0  0  0  0  0  0  0  0  0  0  0
   37.5290   29.0010   50.7560 Cl  0  0  0  0  0  0  0  0  0  0  0  0
   36.0380   29.1410   49.8780 C   0  0  0  0  0  0  0  0  0  0  0  0
   35.9620   30.1940   48.9940 C   0  0  0  0  0  0  0  0  0  0  0  0
   34.8350   30.4190   48.2340 C   0  0  0  0  0  0  0  0  0  0  0  0
   34.6790   31.2090   47.5210 H   0  0  0  0  0  0  0  0  0  0  0  0
   33.7400   29.5740   48.3490 C   0  0  0  0  0  0  0  0  0  0  0  0
   32.8190   29.7050   47.7700 H   0  0  0  0  0  0  0  0  0  0  0  0
   33.7960   28.5040   49.2350 C   0  0  0  0  0  0  0  0  0  0  0  0
   34.9370   28.3060   49.9810 C   0  0  0  0  0  0  0  0  0  0  0  0
  1  2  1  0  0  0  0
  2  7  1  0  0  0  0
  3  2  2  0  0  0  0
  3  4  1  0  0  0  0
  4  5  2  0  0  0  0
  5  6  1  0  0  0  0
  5  9  1  0  0  0  0
  6 10  1  0  0  0  0
  7 22  1  0  0  0  0
  7  6  2  0  0  0  0
  8  4  1  0  0  0  0
 11 16  1  0  0  0  0
 12 11  2  0  0  0  0
 12 13  1  0  0  0  0
 13 14  2  0  0  0  0
 14 15  1  0  0  0  0
 15  3  1  0  0  0  0
 16 15  2  0  0  0  0
 17 11  1  0  0  0  0
 18 12  1  0  0  0  0
 19 13  1  0  0  0  0
 21 28  1  0  0  0  0
 21 20  1  0  0  0  0
 22 21  2  0  0  0  0
 23 25  2  0  0  0  0
 23 22  1  0  0  0  0
 24 23  1  0  0  0  0
 25 27  1  0  0  0  0
 26 25  1  0  0  0  0
 27 28  2  0  0  0  0
M  END
>  <minimizedAffinity>
-6.59376907

>  <minimizedRMSD>
2.19116998

$$$$
