
 OpenBabel03272508413D

 42 45  0  0  1  0  0  0  0  0999 V2000
   28.8140   28.9380   46.2550 N   0  0  0  0  0  0  0  0  0  0  0  0
   30.1300   28.8720   46.8820 C   0  0  0  0  0  0  0  0  0  0  0  0
   31.2130   28.4730   45.9830 C   0  0  2  0  0  0  0  0  0  0  0  0
   30.8300   27.3280   45.1140 N   0  0  0  0  0  0  0  0  0  0  0  0
   29.5910   27.7190   44.4120 C   0  0  0  0  0  0  0  0  0  0  0  0
   28.5640   27.7470   45.5210 C   0  0  0  0  0  0  0  0  0  0  0  0
   30.3260   29.8040   47.4070 H   0  0  0  0  0  0  0  0  0  0  0  0
   29.9550   27.9910   47.5900 H   0  0  0  0  0  0  0  0  0  0  0  0
   31.4800   29.2110   45.2030 H   0  0  0  0  0  0  0  0  0  0  0  0
   31.5450   27.2100   44.3980 H   0  0  0  0  0  0  0  0  0  0  0  0
   29.3270   26.8480   43.7730 H   0  0  0  0  0  0  0  0  0  0  0  0
   29.6950   28.6600   43.8720 H   0  0  0  0  0  0  0  0  0  0  0  0
   28.7190   26.8180   46.1260 H   0  0  0  0  0  0  0  0  0  0  0  0
   27.5400   27.6690   45.1150 H   0  0  0  0  0  0  0  0  0  0  0  0
   33.1350   30.6840   46.4890 Cl  0  0  0  0  0  0  0  0  0  0  0  0
   33.3440   29.0440   47.0830 C   0  0  0  0  0  0  0  0  0  0  0  0
   32.3970   28.1140   46.7450 C   0  0  0  0  0  0  0  0  0  0  0  0
   32.4330   26.7680   47.1430 C   0  0  0  0  0  0  0  0  0  0  0  0
   33.5360   26.4090   47.9330 C   0  0  0  0  0  0  0  0  0  0  0  0
   34.5100   27.3510   48.2800 C   0  0  0  0  0  0  0  0  0  0  0  0
   34.3980   28.6400   47.8550 C   0  0  0  0  0  0  0  0  0  0  0  0
   31.8590   25.8810   47.0380 H   0  0  0  0  0  0  0  0  0  0  0  0
   33.7800   25.4450   48.3510 H   0  0  0  0  0  0  0  0  0  0  0  0
   35.3830   27.1500   48.8800 H   0  0  0  0  0  0  0  0  0  0  0  0
   33.8930   29.6850   50.5730 Cl  0  0  0  0  0  0  0  0  0  0  0  0
   35.1820   30.1910   49.4700 C   0  0  0  0  0  0  0  0  0  0  0  0
   35.3810   29.6650   48.1880 C   0  0  0  0  0  0  0  0  0  0  0  0
   36.4140   30.1340   47.4230 C   0  0  0  0  0  0  0  0  0  0  0  0
   36.4940   29.6810   46.4620 H   0  0  0  0  0  0  0  0  0  0  0  0
   37.2320   31.1240   47.9540 C   0  0  0  0  0  0  0  0  0  0  0  0
   38.0470   31.4720   47.3130 H   0  0  0  0  0  0  0  0  0  0  0  0
   37.0520   31.6520   49.2120 C   0  0  0  0  0  0  0  0  0  0  0  0
   36.0070   31.1760   49.9830 C   0  0  0  0  0  0  0  0  0  0  0  0
   27.9490   30.0480   46.4030 C   0  0  0  0  0  0  0  0  0  0  0  0
   27.7970   31.0170   45.4090 C   0  0  0  0  0  0  0  0  0  0  0  0
   26.9210   32.0700   45.6360 C   0  0  0  0  0  0  0  0  0  0  0  0
   26.2390   32.1090   46.8390 N   0  0  0  0  0  0  0  0  0  0  0  0
   26.4230   31.1430   47.7730 C   0  0  0  0  0  0  0  0  0  0  0  0
   27.2550   30.1310   47.5710 N   0  0  0  0  0  0  0  0  0  0  0  0
   28.3640   30.9160   44.4970 H   0  0  0  0  0  0  0  0  0  0  0  0
   26.7910   32.8230   44.8860 H   0  0  0  0  0  0  0  0  0  0  0  0
   25.8810   31.1990   48.6950 H   0  0  0  0  0  0  0  0  0  0  0  0
  1 34  1  0  0  0  0
  1  2  1  0  0  0  0
  2  7  1  0  0  0  0
  2  8  1  0  0  0  0
  3  9  1  6  0  0  0
  3 17  1  0  0  0  0
  3  2  1  0  0  0  0
  4  3  1  0  0  0  0
  5  4  1  0  0  0  0
  5  6  1  0  0  0  0
  6 13  1  0  0  0  0
  6  1  1  0  0  0  0
 10  4  1  0  0  0  0
 11  5  1  0  0  0  0
 12  5  1  0  0  0  0
 14  6  1  0  0  0  0
 15 16  1  0  0  0  0
 16 21  1  0  0  0  0
 17 16  2  0  0  0  0
 17 18  1  0  0  0  0
 18 19  2  0  0  0  0
 19 20  1  0  0  0  0
 19 23  1  0  0  0  0
 20 24  1  0  0  0  0
 21 27  1  0  0  0  0
 21 20  2  0  0  0  0
 22 18  1  0  0  0  0
 26 33  1  0  0  0  0
 26 25  1  0  0  0  0
 27 26  2  0  0  0  0
 28 30  2  0  0  0  0
 28 27  1  0  0  0  0
 29 28  1  0  0  0  0
 30 32  1  0  0  0  0
 31 30  1  0  0  0  0
 32 33  2  0  0  0  0
 34 39  1  0  0  0  0
 35 36  1  0  0  0  0
 35 34  2  0  0  0  0
 36 37  2  0  0  0  0
 37 38  1  0  0  0  0
 38 42  1  0  0  0  0
 39 38  2  0  0  0  0
 40 35  1  0  0  0  0
 41 36  1  0  0  0  0
M  END
>  <minimizedAffinity>
-5.967134

>  <minimizedRMSD>
5.62078524

$$$$
