
 OpenBabel03272510203D

 36 39  0  0  0  0  0  0  0  0999 V2000
   37.1510   29.6010   51.2630 Br  0  0  0  0  0  0  0  0  0  0  0  0
   35.9820   29.3380   49.7900 C   0  0  0  0  0  0  0  0  0  0  0  0
   36.0950   30.1190   48.6430 C   0  0  0  0  0  0  0  0  0  0  0  0
   35.2130   29.8690   47.6180 C   0  0  0  0  0  0  0  0  0  0  0  0
   34.2370   28.9030   47.6650 C   0  0  0  0  0  0  0  0  0  0  0  0
   34.1470   28.1470   48.8080 C   0  0  0  0  0  0  0  0  0  0  0  0
   35.0180   28.3710   49.8550 C   0  0  0  0  0  0  0  0  0  0  0  0
   35.3110   30.4800   46.7380 H   0  0  0  0  0  0  0  0  0  0  0  0
   33.3860   27.3730   48.8780 H   0  0  0  0  0  0  0  0  0  0  0  0
   34.8870   27.7330   50.7280 H   0  0  0  0  0  0  0  0  0  0  0  0
   37.9590   33.1590   49.3890 C   0  0  0  0  0  0  0  0  0  0  0  0
   39.0030   33.1540   48.4200 C   0  0  0  0  0  0  0  0  0  0  0  0
   39.0390   32.0950   47.5250 C   0  0  0  0  0  0  0  0  0  0  0  0
   38.0860   31.1290   47.6220 N   0  0  0  0  0  0  0  0  0  0  0  0
   37.1120   31.1550   48.5440 C   0  0  0  0  0  0  0  0  0  0  0  0
   37.0500   32.1780   49.4330 N   0  0  0  0  0  0  0  0  0  0  0  0
   37.9220   33.9780   50.0890 H   0  0  0  0  0  0  0  0  0  0  0  0
   39.7180   33.9610   48.4140 H   0  0  0  0  0  0  0  0  0  0  0  0
   39.8180   32.0530   46.7720 H   0  0  0  0  0  0  0  0  0  0  0  0
   33.3020   28.6380   46.5800 C   0  0  0  0  0  0  0  0  0  0  0  0
   33.4930   27.6940   45.5910 C   0  0  0  0  0  0  0  0  0  0  0  0
   32.5670   27.4830   44.5790 C   0  0  0  0  0  0  0  0  0  0  0  0
   31.4410   28.2180   44.5470 N   0  0  0  0  0  0  0  0  0  0  0  0
   31.2540   29.1420   45.5110 C   0  0  0  0  0  0  0  0  0  0  0  0
   32.1490   29.3320   46.4740 N   0  0  0  0  0  0  0  0  0  0  0  0
   34.4030   27.1060   45.6240 H   0  0  0  0  0  0  0  0  0  0  0  0
   32.8260   26.7110   43.8570 H   0  0  0  0  0  0  0  0  0  0  0  0
   31.2760   31.6380   43.7510 Cl  0  0  0  0  0  0  0  0  0  0  0  0
   29.9160   31.0760   44.6980 C   0  0  0  0  0  0  0  0  0  0  0  0
   30.0250   29.9290   45.4570 C   0  0  0  0  0  0  0  0  0  0  0  0
   28.9230   29.5060   46.2030 C   0  0  0  0  0  0  0  0  0  0  0  0
   28.9400   28.6240   46.8140 H   0  0  0  0  0  0  0  0  0  0  0  0
   27.7830   30.2870   46.1170 C   0  0  0  0  0  0  0  0  0  0  0  0
   26.9050   29.9850   46.6860 H   0  0  0  0  0  0  0  0  0  0  0  0
   27.6710   31.4340   45.3580 C   0  0  0  0  0  0  0  0  0  0  0  0
   28.7790   31.8530   44.6140 C   0  0  0  0  0  0  0  0  0  0  0  0
  2  7  1  0  0  0  0
  2  1  1  0  0  0  0
  3  2  2  0  0  0  0
  4  5  2  0  0  0  0
  4  3  1  0  0  0  0
  5  6  1  0  0  0  0
  6  9  1  0  0  0  0
  6  7  2  0  0  0  0
  7 10  1  0  0  0  0
  8  4  1  0  0  0  0
 11 16  1  0  0  0  0
 11 17  1  0  0  0  0
 12 11  2  0  0  0  0
 13 14  2  0  0  0  0
 13 12  1  0  0  0  0
 14 15  1  0  0  0  0
 15  3  1  0  0  0  0
 15 16  2  0  0  0  0
 18 12  1  0  0  0  0
 19 13  1  0  0  0  0
 20  5  1  0  0  0  0
 21 26  1  0  0  0  0
 21 20  2  0  0  0  0
 22 21  1  0  0  0  0
 23 22  2  0  0  0  0
 23 24  1  0  0  0  0
 24 25  2  0  0  0  0
 25 20  1  0  0  0  0
 27 22  1  0  0  0  0
 28 29  1  0  0  0  0
 29 30  1  0  0  0  0
 30 24  1  0  0  0  0
 30 31  2  0  0  0  0
 31 32  1  0  0  0  0
 33 31  1  0  0  0  0
 33 34  1  0  0  0  0
 35 33  2  0  0  0  0
 36 29  2  0  0  0  0
 36 35  1  0  0  0  0
M  END
>  <minimizedAffinity>
-6.6051178

>  <minimizedRMSD>
1.84759259

$$$$
