
 OpenBabel03272510203D

 36 39  0  0  0  0  0  0  0  0999 V2000
   37.4300   29.1870   50.8600 Br  0  0  0  0  0  0  0  0  0  0  0  0
   36.0400   29.3120   49.5710 C   0  0  0  0  0  0  0  0  0  0  0  0
   36.0340   30.3350   48.6270 C   0  0  0  0  0  0  0  0  0  0  0  0
   34.9950   30.3600   47.7260 C   0  0  0  0  0  0  0  0  0  0  0  0
   33.9740   29.4410   47.7090 C   0  0  0  0  0  0  0  0  0  0  0  0
   34.0040   28.4420   48.6510 C   0  0  0  0  0  0  0  0  0  0  0  0
   35.0330   28.3880   49.5690 C   0  0  0  0  0  0  0  0  0  0  0  0
   35.0030   31.1550   47.0020 H   0  0  0  0  0  0  0  0  0  0  0  0
   33.2110   27.6970   48.6660 H   0  0  0  0  0  0  0  0  0  0  0  0
   34.9900   27.5690   50.2850 H   0  0  0  0  0  0  0  0  0  0  0  0
   38.0080   33.2470   49.5790 C   0  0  0  0  0  0  0  0  0  0  0  0
   39.0640   33.2580   48.6230 C   0  0  0  0  0  0  0  0  0  0  0  0
   39.0710   32.2540   47.6660 C   0  0  0  0  0  0  0  0  0  0  0  0
   38.0790   31.3230   47.6930 N   0  0  0  0  0  0  0  0  0  0  0  0
   37.0930   31.3340   48.6030 C   0  0  0  0  0  0  0  0  0  0  0  0
   37.0600   32.3030   49.5520 N   0  0  0  0  0  0  0  0  0  0  0  0
   37.9930   34.0230   50.3270 H   0  0  0  0  0  0  0  0  0  0  0  0
   39.8110   34.0340   48.6750 H   0  0  0  0  0  0  0  0  0  0  0  0
   39.8580   32.2260   46.9210 H   0  0  0  0  0  0  0  0  0  0  0  0
   32.8730   29.4660   46.7560 C   0  0  0  0  0  0  0  0  0  0  0  0
   31.9420   28.4590   46.6050 C   0  0  0  0  0  0  0  0  0  0  0  0
   30.9100   28.5360   45.6790 C   0  0  0  0  0  0  0  0  0  0  0  0
   30.8040   29.6240   44.8950 N   0  0  0  0  0  0  0  0  0  0  0  0
   31.7130   30.6080   45.0400 C   0  0  0  0  0  0  0  0  0  0  0  0
   32.6950   30.5200   45.9310 N   0  0  0  0  0  0  0  0  0  0  0  0
   32.0350   27.5860   47.2400 H   0  0  0  0  0  0  0  0  0  0  0  0
   30.2370   27.6810   45.6510 H   0  0  0  0  0  0  0  0  0  0  0  0
   33.9980   31.1760   43.0970 Cl  0  0  0  0  0  0  0  0  0  0  0  0
   32.5470   32.1360   43.2630 C   0  0  0  0  0  0  0  0  0  0  0  0
   31.5790   31.7790   44.1790 C   0  0  0  0  0  0  0  0  0  0  0  0
   30.4300   32.5660   44.2890 C   0  0  0  0  0  0  0  0  0  0  0  0
   29.6400   32.3450   44.9810 H   0  0  0  0  0  0  0  0  0  0  0  0
   30.3520   33.6650   43.4500 C   0  0  0  0  0  0  0  0  0  0  0  0
   29.4690   34.2990   43.5100 H   0  0  0  0  0  0  0  0  0  0  0  0
   31.3190   34.0230   42.5330 C   0  0  0  0  0  3  0  0  0  0  0  0
   32.4660   33.2310   42.4290 C   0  0  0  0  0  3  0  0  0  0  0  0
  2  1  1  0  0  0  0
  3  2  2  0  0  0  0
  4  3  1  0  0  0  0
  5  4  2  0  0  0  0
  5  6  1  0  0  0  0
  6  9  1  0  0  0  0
  6  7  2  0  0  0  0
  7  2  1  0  0  0  0
  7 10  1  0  0  0  0
  8  4  1  0  0  0  0
 11 17  1  0  0  0  0
 12 18  1  0  0  0  0
 12 11  2  0  0  0  0
 13 14  2  0  0  0  0
 13 12  1  0  0  0  0
 14 15  1  0  0  0  0
 15  3  1  0  0  0  0
 15 16  2  0  0  0  0
 16 11  1  0  0  0  0
 19 13  1  0  0  0  0
 20  5  1  0  0  0  0
 21 20  1  0  0  0  0
 21 26  1  0  0  0  0
 22 21  2  0  0  0  0
 23 24  2  0  0  0  0
 23 22  1  0  0  0  0
 24 25  1  0  0  0  0
 25 20  2  0  0  0  0
 27 22  1  0  0  0  0
 28 29  1  0  0  0  0
 29 30  1  0  0  0  0
 30 31  2  0  0  0  0
 30 24  1  0  0  0  0
 31 32  1  0  0  0  0
 33 34  1  0  0  0  0
 33 31  1  0  0  0  0
 35 33  2  0  0  0  0
 36 35  1  0  0  0  0
 36 29  2  0  0  0  0
M  END
>  <minimizedAffinity>
-6.44390106

>  <minimizedRMSD>
0.592205167

$$$$
