
 OpenBabel03272508413D

 42 45  0  0  1  0  0  0  0  0999 V2000
   35.3020   29.4010   33.7960 N   0  0  0  0  0  0  0  0  0  0  0  0
   35.8630   28.0780   34.0430 C   0  0  0  0  0  0  0  0  0  0  0  0
   37.0710   27.7760   33.2740 C   0  0  2  0  0  0  0  0  0  0  0  0
   36.9520   28.1950   31.8520 N   0  0  0  0  0  0  0  0  0  0  0  0
   36.5960   29.6280   31.8560 C   0  0  0  0  0  0  0  0  0  0  0  0
   35.1840   29.6270   32.3980 C   0  0  0  0  0  0  0  0  0  0  0  0
   35.9860   27.9320   35.1130 H   0  0  0  0  0  0  0  0  0  0  0  0
   35.0280   27.4350   33.6000 H   0  0  0  0  0  0  0  0  0  0  0  0
   37.9720   28.3530   33.5580 H   0  0  0  0  0  0  0  0  0  0  0  0
   37.8700   28.1250   31.4150 H   0  0  0  0  0  0  0  0  0  0  0  0
   36.5110   29.9140   30.7850 H   0  0  0  0  0  0  0  0  0  0  0  0
   37.2970   30.2320   32.4310 H   0  0  0  0  0  0  0  0  0  0  0  0
   34.6360   28.8090   31.8660 H   0  0  0  0  0  0  0  0  0  0  0  0
   34.6560   30.5600   32.1300 H   0  0  0  0  0  0  0  0  0  0  0  0
   38.6180   26.8660   35.6440 Cl  0  0  0  0  0  0  0  0  0  0  0  0
   38.0330   25.7940   34.3820 C   0  0  0  0  0  0  0  0  0  0  0  0
   37.3610   26.3530   33.3260 C   0  0  0  0  0  0  0  0  0  0  0  0
   36.8400   25.6250   32.2450 C   0  0  0  0  0  0  0  0  0  0  0  0
   37.0540   24.2380   32.3020 C   0  0  0  0  0  0  0  0  0  0  0  0
   37.7400   23.6590   33.3740 C   0  0  0  0  0  0  0  0  0  0  0  0
   38.2120   24.4390   34.3860 C   0  0  0  0  0  0  0  0  0  0  0  0
   36.3000   25.7910   31.3470 H   0  0  0  0  0  0  0  0  0  0  0  0
   36.7530   23.4810   31.5950 H   0  0  0  0  0  0  0  0  0  0  0  0
   37.9440   22.6060   33.4850 H   0  0  0  0  0  0  0  0  0  0  0  0
   41.0730   24.1060   33.7200 Cl  0  0  0  0  0  0  0  0  0  0  0  0
   40.2950   23.7130   35.2600 C   0  0  0  0  0  0  0  0  0  0  0  0
   38.9320   23.8890   35.5300 C   0  0  0  0  0  0  0  0  0  0  0  0
   38.4420   23.5510   36.7610 C   0  0  0  0  0  0  0  0  0  0  0  0
   37.3960   23.7150   36.8810 H   0  0  0  0  0  0  0  0  0  0  0  0
   39.3240   23.0400   37.7050 C   0  0  0  0  0  0  0  0  0  0  0  0
   38.8950   22.7810   38.6780 H   0  0  0  0  0  0  0  0  0  0  0  0
   40.6670   22.8610   37.4590 C   0  0  0  0  0  3  0  0  0  0  0  0
   41.1590   23.2040   36.2140 C   0  0  0  0  0  3  0  0  0  0  0  0
   34.9330   30.2850   34.8380 C   0  0  0  0  0  0  0  0  0  0  0  0
   35.8530   31.1260   35.4680 C   0  0  0  0  0  0  0  0  0  0  0  0
   35.4030   31.9650   36.4780 C   0  0  0  0  0  0  0  0  0  0  0  0
   34.0610   31.9290   36.8120 N   0  0  0  0  0  0  0  0  0  0  0  0
   33.2080   31.0930   36.1700 C   0  0  0  0  0  0  0  0  0  0  0  0
   33.6220   30.2860   35.2030 N   0  0  0  0  0  0  0  0  0  0  0  0
   36.8840   31.0960   35.1500 H   0  0  0  0  0  0  0  0  0  0  0  0
   36.0930   32.6170   36.9730 H   0  0  0  0  0  0  0  0  0  0  0  0
   32.1750   31.0870   36.4500 H   0  0  0  0  0  0  0  0  0  0  0  0
  1  2  1  0  0  0  0
  1 34  1  0  0  0  0
  2  7  1  0  0  0  0
  3 17  1  0  0  0  0
  3  9  1  1  0  0  0
  3  2  1  0  0  0  0
  4  5  1  0  0  0  0
  4  3  1  0  0  0  0
  5  6  1  0  0  0  0
  5 12  1  0  0  0  0
  6  1  1  0  0  0  0
  8  2  1  0  0  0  0
 10  4  1  0  0  0  0
 11  5  1  0  0  0  0
 13  6  1  0  0  0  0
 14  6  1  0  0  0  0
 16 21  1  0  0  0  0
 16 15  1  0  0  0  0
 17 16  2  0  0  0  0
 18 19  2  0  0  0  0
 18 17  1  0  0  0  0
 19 20  1  0  0  0  0
 20 24  1  0  0  0  0
 20 21  2  0  0  0  0
 21 27  1  0  0  0  0
 22 18  1  0  0  0  0
 23 19  1  0  0  0  0
 25 26  1  0  0  0  0
 26 27  2  0  0  0  0
 26 33  1  0  0  0  0
 27 28  1  0  0  0  0
 28 29  1  0  0  0  0
 28 30  2  0  0  0  0
 30 31  1  0  0  0  0
 32 30  1  0  0  0  0
 33 32  2  0  0  0  0
 34 39  2  0  0  0  0
 34 35  1  0  0  0  0
 35 36  2  0  0  0  0
 36 37  1  0  0  0  0
 36 41  1  0  0  0  0
 38 42  1  0  0  0  0
 38 37  2  0  0  0  0
 39 38  1  0  0  0  0
 40 35  1  0  0  0  0
M  END
>  <minimizedAffinity>
-6.09254074

$$$$

 OpenBabel03272508413D

 42 45  0  0  1  0  0  0  0  0999 V2000
   35.5650   29.0310   33.5810 N   0  0  0  0  0  0  0  0  0  0  0  0
   36.1270   27.7190   33.8840 C   0  0  0  0  0  0  0  0  0  0  0  0
   37.3560   27.4010   33.1560 C   0  0  2  0  0  0  0  0  0  0  0  0
   37.2710   27.7740   31.7190 N   0  0  0  0  0  0  0  0  0  0  0  0
   36.9070   29.2050   31.6690 C   0  0  0  0  0  0  0  0  0  0  0  0
   35.4820   29.2120   32.1740 C   0  0  0  0  0  0  0  0  0  0  0  0
   36.2240   27.6090   34.9610 H   0  0  0  0  0  0  0  0  0  0  0  0
   35.3070   27.0580   33.4400 H   0  0  0  0  0  0  0  0  0  0  0  0
   38.2460   27.9930   33.4440 H   0  0  0  0  0  0  0  0  0  0  0  0
   38.2000   27.6970   31.3070 H   0  0  0  0  0  0  0  0  0  0  0  0
   36.8480   29.4570   30.5870 H   0  0  0  0  0  0  0  0  0  0  0  0
   37.5900   29.8310   32.2410 H   0  0  0  0  0  0  0  0  0  0  0  0
   34.9520   28.3740   31.6540 H   0  0  0  0  0  0  0  0  0  0  0  0
   34.9560   30.1320   31.8630 H   0  0  0  0  0  0  0  0  0  0  0  0
   39.4120   26.6630   35.1720 Cl  0  0  0  0  0  0  0  0  0  0  0  0
   38.5510   25.5020   34.1760 C   0  0  0  0  0  0  0  0  0  0  0  0
   37.6530   25.9830   33.2610 C   0  0  0  0  0  0  0  0  0  0  0  0
   36.8960   25.1770   32.3960 C   0  0  0  0  0  0  0  0  0  0  0  0
   37.1200   23.7960   32.5190 C   0  0  0  0  0  0  0  0  0  0  0  0
   38.0370   23.2950   33.4490 C   0  0  0  0  0  0  0  0  0  0  0  0
   38.7290   24.1480   34.2540 C   0  0  0  0  0  0  0  0  0  0  0  0
   36.1620   25.2780   31.6360 H   0  0  0  0  0  0  0  0  0  0  0  0
   36.6630   22.9880   31.9680 H   0  0  0  0  0  0  0  0  0  0  0  0
   38.2620   22.2520   33.5980 H   0  0  0  0  0  0  0  0  0  0  0  0
   37.3610   23.5310   36.8010 Cl  0  0  0  0  0  0  0  0  0  0  0  0
   39.0920   23.3770   36.4680 C   0  0  0  0  0  0  0  0  0  0  0  0
   39.6960   23.6820   35.2420 C   0  0  0  0  0  0  0  0  0  0  0  0
   41.0470   23.5230   35.1010 C   0  0  0  0  0  0  0  0  0  0  0  0
   41.4250   23.7780   34.1380 H   0  0  0  0  0  0  0  0  0  0  0  0
   41.7750   23.0610   36.1910 C   0  0  0  0  0  0  0  0  0  0  0  0
   42.8520   22.9460   36.0390 H   0  0  0  0  0  0  0  0  0  0  0  0
   41.1990   22.7550   37.4030 C   0  0  0  0  0  3  0  0  0  0  0  0
   39.8330   22.9170   37.5430 C   0  0  0  0  0  3  0  0  0  0  0  0
   35.1650   29.9450   34.5850 C   0  0  0  0  0  0  0  0  0  0  0  0
   36.0740   30.7660   35.2560 C   0  0  0  0  0  0  0  0  0  0  0  0
   35.5930   31.6370   36.2240 C   0  0  0  0  0  0  0  0  0  0  0  0
   34.2330   31.6520   36.4770 N   0  0  0  0  0  0  0  0  0  0  0  0
   33.3910   30.8340   35.7970 C   0  0  0  0  0  0  0  0  0  0  0  0
   33.8350   29.9960   34.8700 N   0  0  0  0  0  0  0  0  0  0  0  0
   37.1200   30.6960   35.0020 H   0  0  0  0  0  0  0  0  0  0  0  0
   36.2730   32.2750   36.7490 H   0  0  0  0  0  0  0  0  0  0  0  0
   32.3430   30.8660   36.0140 H   0  0  0  0  0  0  0  0  0  0  0  0
  1  2  1  0  0  0  0
  1 34  1  0  0  0  0
  2  7  1  0  0  0  0
  3 17  1  0  0  0  0
  3  9  1  1  0  0  0
  3  2  1  0  0  0  0
  4  3  1  0  0  0  0
  5  4  1  0  0  0  0
  5  6  1  0  0  0  0
  5 12  1  0  0  0  0
  6  1  1  0  0  0  0
  8  2  1  0  0  0  0
 10  4  1  0  0  0  0
 11  5  1  0  0  0  0
 13  6  1  0  0  0  0
 14  6  1  0  0  0  0
 16 21  1  0  0  0  0
 16 15  1  0  0  0  0
 17 16  2  0  0  0  0
 18 19  2  0  0  0  0
 18 17  1  0  0  0  0
 19 20  1  0  0  0  0
 20 24  1  0  0  0  0
 20 21  2  0  0  0  0
 21 27  1  0  0  0  0
 22 18  1  0  0  0  0
 23 19  1  0  0  0  0
 26 25  1  0  0  0  0
 26 33  1  0  0  0  0
 27 26  2  0  0  0  0
 28 27  1  0  0  0  0
 28 30  2  0  0  0  0
 29 28  1  0  0  0  0
 30 32  1  0  0  0  0
 31 30  1  0  0  0  0
 32 33  2  0  0  0  0
 34 39  2  0  0  0  0
 34 35  1  0  0  0  0
 35 36  2  0  0  0  0
 36 37  1  0  0  0  0
 36 41  1  0  0  0  0
 38 42  1  0  0  0  0
 38 37  2  0  0  0  0
 39 38  1  0  0  0  0
 40 35  1  0  0  0  0
M  END
>  <minimizedAffinity>
-5.87635183

$$$$

 OpenBabel03272508413D

 42 45  0  0  1  0  0  0  0  0999 V2000
   39.5320   25.9930   32.0070 N   0  0  0  0  0  0  0  0  0  0  0  0
   38.7210   27.1670   32.3100 C   0  0  0  0  0  0  0  0  0  0  0  0
   37.2840   26.9850   32.0960 C   0  0  2  0  0  0  0  0  0  0  0  0
   36.9890   26.2840   30.8190 N   0  0  0  0  0  0  0  0  0  0  0  0
   37.7490   25.0180   30.8410 C   0  0  0  0  0  0  0  0  0  0  0  0
   39.1850   25.4780   30.7280 C   0  0  0  0  0  0  0  0  0  0  0  0
   38.9660   27.5270   33.3060 H   0  0  0  0  0  0  0  0  0  0  0  0
   39.0860   27.8650   31.4810 H   0  0  0  0  0  0  0  0  0  0  0  0
   36.7820   26.2960   32.8020 H   0  0  0  0  0  0  0  0  0  0  0  0
   36.0030   26.0300   30.8070 H   0  0  0  0  0  0  0  0  0  0  0  0
   37.5130   24.5160   29.8770 H   0  0  0  0  0  0  0  0  0  0  0  0
   37.5380   24.4180   31.7250 H   0  0  0  0  0  0  0  0  0  0  0  0
   39.2110   26.2540   29.9210 H   0  0  0  0  0  0  0  0  0  0  0  0
   39.8370   24.6600   30.3730 H   0  0  0  0  0  0  0  0  0  0  0  0
   36.4090   27.9730   34.7600 Cl  0  0  0  0  0  0  0  0  0  0  0  0
   36.1860   28.8600   33.2610 C   0  0  0  0  0  0  0  0  0  0  0  0
   36.6070   28.2710   32.0990 C   0  0  0  0  0  0  0  0  0  0  0  0
   36.4920   28.8570   30.8280 C   0  0  0  0  0  0  0  0  0  0  0  0
   35.8950   30.1280   30.8100 C   0  0  0  0  0  0  0  0  0  0  0  0
   35.4600   30.7360   31.9910 C   0  0  0  0  0  0  0  0  0  0  0  0
   35.6120   30.0990   33.1850 C   0  0  0  0  0  0  0  0  0  0  0  0
   36.7280   28.6400   29.8160 H   0  0  0  0  0  0  0  0  0  0  0  0
   35.6990   30.7670   29.9620 H   0  0  0  0  0  0  0  0  0  0  0  0
   34.9920   31.7050   32.0550 H   0  0  0  0  0  0  0  0  0  0  0  0
   32.7700   29.4540   33.6830 Cl  0  0  0  0  0  0  0  0  0  0  0  0
   33.8350   30.4060   34.7270 C   0  0  0  0  0  0  0  0  0  0  0  0
   35.1790   30.6860   34.4480 C   0  0  0  0  0  0  0  0  0  0  0  0
   35.9060   31.4340   35.3320 C   0  0  0  0  0  0  0  0  0  0  0  0
   36.9180   31.6000   35.0440 H   0  0  0  0  0  0  0  0  0  0  0  0
   35.2780   31.8920   36.4840 C   0  0  0  0  0  0  0  0  0  0  0  0
   35.8920   32.4860   37.1670 H   0  0  0  0  0  0  0  0  0  0  0  0
   33.9580   31.6260   36.7760 C   0  0  0  0  0  3  0  0  0  0  0  0
   33.2260   30.8700   35.8800 C   0  0  0  0  0  3  0  0  0  0  0  0
   40.5170   25.4910   32.8900 C   0  0  0  0  0  0  0  0  0  0  0  0
   41.0280   26.2450   33.9480 C   0  0  0  0  0  0  0  0  0  0  0  0
   41.9900   25.6710   34.7690 C   0  0  0  0  0  0  0  0  0  0  0  0
   42.3980   24.3770   34.4980 N   0  0  0  0  0  0  0  0  0  0  0  0
   41.8710   23.6880   33.4560 C   0  0  0  0  0  0  0  0  0  0  0  0
   40.9510   24.2210   32.6630 N   0  0  0  0  0  0  0  0  0  0  0  0
   40.6580   27.2480   34.0950 H   0  0  0  0  0  0  0  0  0  0  0  0
   42.3930   26.2330   35.5860 H   0  0  0  0  0  0  0  0  0  0  0  0
   42.2050   22.6880   33.2690 H   0  0  0  0  0  0  0  0  0  0  0  0
  1  2  1  0  0  0  0
  1 34  1  0  0  0  0
  2  7  1  0  0  0  0
  3 17  1  0  0  0  0
  3  2  1  0  0  0  0
  3  9  1  1  0  0  0
  4  5  1  0  0  0  0
  4  3  1  0  0  0  0
  5 12  1  0  0  0  0
  6  5  1  0  0  0  0
  6  1  1  0  0  0  0
  8  2  1  0  0  0  0
 10  4  1  0  0  0  0
 11  5  1  0  0  0  0
 13  6  1  0  0  0  0
 14  6  1  0  0  0  0
 16 15  1  0  0  0  0
 17 16  2  0  0  0  0
 18 17  1  0  0  0  0
 19 18  2  0  0  0  0
 19 20  1  0  0  0  0
 20 24  1  0  0  0  0
 20 21  2  0  0  0  0
 21 16  1  0  0  0  0
 21 27  1  0  0  0  0
 22 18  1  0  0  0  0
 23 19  1  0  0  0  0
 25 26  1  0  0  0  0
 26 33  1  0  0  0  0
 27 26  2  0  0  0  0
 27 28  1  0  0  0  0
 28 30  2  0  0  0  0
 29 28  1  0  0  0  0
 30 32  1  0  0  0  0
 30 31  1  0  0  0  0
 33 32  2  0  0  0  0
 34 35  1  0  0  0  0
 35 40  1  0  0  0  0
 35 36  2  0  0  0  0
 36 41  1  0  0  0  0
 37 36  1  0  0  0  0
 38 37  2  0  0  0  0
 39 34  2  0  0  0  0
 39 38  1  0  0  0  0
 42 38  1  0  0  0  0
M  END
>  <minimizedAffinity>
-5.85811186

$$$$

 OpenBabel03272508413D

 42 45  0  0  1  0  0  0  0  0999 V2000
   37.6200   28.2310   30.5610 N   0  0  0  0  0  0  0  0  0  0  0  0
   37.4210   27.1210   31.4860 C   0  0  0  0  0  0  0  0  0  0  0  0
   38.6490   26.6070   32.0940 C   0  0  2  0  0  0  0  0  0  0  0  0
   39.7480   26.4600   31.1040 N   0  0  0  0  0  0  0  0  0  0  0  0
   39.9150   27.7740   30.4520 C   0  0  0  0  0  0  0  0  0  0  0  0
   38.6510   27.9140   29.6350 C   0  0  0  0  0  0  0  0  0  0  0  0
   36.6590   27.3910   32.2140 H   0  0  0  0  0  0  0  0  0  0  0  0
   37.0670   26.3240   30.7470 H   0  0  0  0  0  0  0  0  0  0  0  0
   39.1430   27.2870   32.8150 H   0  0  0  0  0  0  0  0  0  0  0  0
   40.6150   26.2730   31.6060 H   0  0  0  0  0  0  0  0  0  0  0  0
   40.7390   27.6370   29.7170 H   0  0  0  0  0  0  0  0  0  0  0  0
   40.0790   28.5800   31.1680 H   0  0  0  0  0  0  0  0  0  0  0  0
   38.4910   26.9330   29.1200 H   0  0  0  0  0  0  0  0  0  0  0  0
   38.7810   28.6560   28.8270 H   0  0  0  0  0  0  0  0  0  0  0  0
   39.1100   26.5000   35.0290 Cl  0  0  0  0  0  0  0  0  0  0  0  0
   38.5370   25.1430   34.0740 C   0  0  0  0  0  0  0  0  0  0  0  0
   38.4010   25.3210   32.7230 C   0  0  0  0  0  0  0  0  0  0  0  0
   37.9580   24.3280   31.8350 C   0  0  0  0  0  0  0  0  0  0  0  0
   37.6540   23.0920   32.4260 C   0  0  0  0  0  0  0  0  0  0  0  0
   37.7920   22.8990   33.8050 C   0  0  0  0  0  0  0  0  0  0  0  0
   38.2260   23.9180   34.5970 C   0  0  0  0  0  0  0  0  0  0  0  0
   37.7630   24.2030   30.7990 H   0  0  0  0  0  0  0  0  0  0  0  0
   37.3020   22.1880   31.9530 H   0  0  0  0  0  0  0  0  0  0  0  0
   37.5800   21.9810   34.3270 H   0  0  0  0  0  0  0  0  0  0  0  0
   40.7840   22.5680   35.2050 Cl  0  0  0  0  0  0  0  0  0  0  0  0
   39.5880   23.1390   36.3770 C   0  0  0  0  0  0  0  0  0  0  0  0
   38.3870   23.7750   36.0400 C   0  0  0  0  0  0  0  0  0  0  0  0
   37.5370   24.1750   37.0340 C   0  0  0  0  0  0  0  0  0  0  0  0
   36.6470   24.6500   36.6920 H   0  0  0  0  0  0  0  0  0  0  0  0
   37.9020   23.9320   38.3530 C   0  0  0  0  0  0  0  0  0  0  0  0
   37.1980   24.2670   39.1200 H   0  0  0  0  0  0  0  0  0  0  0  0
   39.0790   23.3090   38.7030 C   0  0  0  0  0  3  0  0  0  0  0  0
   39.9360   22.9060   37.6960 C   0  0  0  0  0  3  0  0  0  0  0  0
   36.8590   29.4230   30.6160 C   0  0  0  0  0  0  0  0  0  0  0  0
   37.2520   30.5930   29.9630 C   0  0  0  0  0  0  0  0  0  0  0  0
   36.4420   31.7160   30.0670 C   0  0  0  0  0  0  0  0  0  0  0  0
   35.2810   31.6210   30.8140 N   0  0  0  0  0  0  0  0  0  0  0  0
   34.9440   30.4610   31.4300 C   0  0  0  0  0  0  0  0  0  0  0  0
   35.7080   29.3800   31.3400 N   0  0  0  0  0  0  0  0  0  0  0  0
   38.1720   30.5880   29.4000 H   0  0  0  0  0  0  0  0  0  0  0  0
   36.7250   32.6220   29.5730 H   0  0  0  0  0  0  0  0  0  0  0  0
   34.0400   30.4160   32.0020 H   0  0  0  0  0  0  0  0  0  0  0  0
  1 34  1  0  0  0  0
  1  2  1  0  0  0  0
  2  3  1  0  0  0  0
  2  7  1  0  0  0  0
  3 17  1  0  0  0  0
  3  9  1  1  0  0  0
  4 10  1  0  0  0  0
  4  3  1  0  0  0  0
  5  4  1  0  0  0  0
  5 12  1  0  0  0  0
  6  5  1  0  0  0  0
  6  1  1  0  0  0  0
  8  2  1  0  0  0  0
 11  5  1  0  0  0  0
 13  6  1  0  0  0  0
 14  6  1  0  0  0  0
 16 21  1  0  0  0  0
 16 15  1  0  0  0  0
 17 16  2  0  0  0  0
 18 19  2  0  0  0  0
 18 17  1  0  0  0  0
 19 20  1  0  0  0  0
 20 24  1  0  0  0  0
 20 21  2  0  0  0  0
 21 27  1  0  0  0  0
 22 18  1  0  0  0  0
 23 19  1  0  0  0  0
 25 26  1  0  0  0  0
 26 33  1  0  0  0  0
 27 26  2  0  0  0  0
 27 28  1  0  0  0  0
 28 30  2  0  0  0  0
 29 28  1  0  0  0  0
 30 32  1  0  0  0  0
 30 31  1  0  0  0  0
 33 32  2  0  0  0  0
 34 39  1  0  0  0  0
 35 36  1  0  0  0  0
 35 34  2  0  0  0  0
 36 37  2  0  0  0  0
 37 38  1  0  0  0  0
 38 42  1  0  0  0  0
 39 38  2  0  0  0  0
 40 35  1  0  0  0  0
 41 36  1  0  0  0  0
M  END
>  <minimizedAffinity>
-5.73041058

$$$$

 OpenBabel03272508413D

 42 45  0  0  1  0  0  0  0  0999 V2000
   36.1610   28.9590   32.1400 N   0  0  0  0  0  0  0  0  0  0  0  0
   36.4560   27.6750   32.7640 C   0  0  0  0  0  0  0  0  0  0  0  0
   37.7190   27.0680   32.3420 C   0  0  2  0  0  0  0  0  0  0  0  0
   37.9210   27.1560   30.8720 N   0  0  0  0  0  0  0  0  0  0  0  0
   37.7980   28.5820   30.5070 C   0  0  0  0  0  0  0  0  0  0  0  0
   36.3300   28.8660   30.7320 C   0  0  0  0  0  0  0  0  0  0  0  0
   36.3620   27.7690   33.8440 H   0  0  0  0  0  0  0  0  0  0  0  0
   35.6220   27.0450   32.2990 H   0  0  0  0  0  0  0  0  0  0  0  0
   38.6340   27.5900   32.6830 H   0  0  0  0  0  0  0  0  0  0  0  0
   38.8790   26.8840   30.6580 H   0  0  0  0  0  0  0  0  0  0  0  0
   37.9510   28.6190   29.4060 H   0  0  0  0  0  0  0  0  0  0  0  0
   38.4720   29.2200   31.0780 H   0  0  0  0  0  0  0  0  0  0  0  0
   35.7640   28.0140   30.2770 H   0  0  0  0  0  0  0  0  0  0  0  0
   36.0100   29.7640   30.1740 H   0  0  0  0  0  0  0  0  0  0  0  0
   38.8860   26.5470   35.0260 Cl  0  0  0  0  0  0  0  0  0  0  0  0
   38.2470   25.2960   33.9730 C   0  0  0  0  0  0  0  0  0  0  0  0
   37.7690   25.6730   32.7460 C   0  0  0  0  0  0  0  0  0  0  0  0
   37.2320   24.7860   31.7990 C   0  0  0  0  0  0  0  0  0  0  0  0
   37.2130   23.4380   32.1890 C   0  0  0  0  0  0  0  0  0  0  0  0
   37.7010   23.0420   33.4390 C   0  0  0  0  0  0  0  0  0  0  0  0
   38.2030   23.9690   34.3010 C   0  0  0  0  0  0  0  0  0  0  0  0
   36.8060   24.8060   30.8270 H   0  0  0  0  0  0  0  0  0  0  0  0
   36.8550   22.5820   31.6370 H   0  0  0  0  0  0  0  0  0  0  0  0
   37.7210   22.0290   33.8050 H   0  0  0  0  0  0  0  0  0  0  0  0
   41.0030   23.0480   34.0720 Cl  0  0  0  0  0  0  0  0  0  0  0  0
   40.0500   23.1710   35.5590 C   0  0  0  0  0  0  0  0  0  0  0  0
   38.7230   23.6150   35.6170 C   0  0  0  0  0  0  0  0  0  0  0  0
   38.0860   23.6700   36.8260 C   0  0  0  0  0  0  0  0  0  0  0  0
   37.0800   24.0170   36.7810 H   0  0  0  0  0  0  0  0  0  0  0  0
   38.7870   23.2790   37.9610 C   0  0  0  0  0  0  0  0  0  0  0  0
   38.2450   23.3370   38.9090 H   0  0  0  0  0  0  0  0  0  0  0  0
   40.0920   22.8410   37.9230 C   0  0  0  0  0  3  0  0  0  0  0  0
   40.7330   22.7870   36.6990 C   0  0  0  0  0  3  0  0  0  0  0  0
   35.7560   30.0970   32.8770 C   0  0  0  0  0  0  0  0  0  0  0  0
   35.8840   31.3960   32.3810 C   0  0  0  0  0  0  0  0  0  0  0  0
   35.4560   32.4540   33.1710 C   0  0  0  0  0  0  0  0  0  0  0  0
   34.9210   32.1710   34.4150 N   0  0  0  0  0  0  0  0  0  0  0  0
   34.8190   30.8910   34.8520 C   0  0  0  0  0  0  0  0  0  0  0  0
   35.2230   29.8690   34.1090 N   0  0  0  0  0  0  0  0  0  0  0  0
   36.3110   31.5350   31.4000 H   0  0  0  0  0  0  0  0  0  0  0  0
   35.5450   33.4570   32.8080 H   0  0  0  0  0  0  0  0  0  0  0  0
   34.4010   30.7010   35.8190 H   0  0  0  0  0  0  0  0  0  0  0  0
  1  2  1  0  0  0  0
  1 34  1  0  0  0  0
  2  7  1  0  0  0  0
  3  9  1  1  0  0  0
  3 17  1  0  0  0  0
  3  2  1  0  0  0  0
  4  3  1  0  0  0  0
  5  6  1  0  0  0  0
  5  4  1  0  0  0  0
  5 12  1  0  0  0  0
  6  1  1  0  0  0  0
  8  2  1  0  0  0  0
 10  4  1  0  0  0  0
 11  5  1  0  0  0  0
 13  6  1  0  0  0  0
 14  6  1  0  0  0  0
 16 21  1  0  0  0  0
 16 15  1  0  0  0  0
 17 16  2  0  0  0  0
 18 19  2  0  0  0  0
 18 17  1  0  0  0  0
 19 20  1  0  0  0  0
 20 24  1  0  0  0  0
 20 21  2  0  0  0  0
 21 27  1  0  0  0  0
 22 18  1  0  0  0  0
 23 19  1  0  0  0  0
 25 26  1  0  0  0  0
 26 27  2  0  0  0  0
 26 33  1  0  0  0  0
 27 28  1  0  0  0  0
 28 30  2  0  0  0  0
 29 28  1  0  0  0  0
 30 31  1  0  0  0  0
 32 30  1  0  0  0  0
 33 32  2  0  0  0  0
 34 39  1  0  0  0  0
 35 34  2  0  0  0  0
 35 36  1  0  0  0  0
 36 37  2  0  0  0  0
 37 38  1  0  0  0  0
 38 42  1  0  0  0  0
 39 38  2  0  0  0  0
 40 35  1  0  0  0  0
 41 36  1  0  0  0  0
M  END
>  <minimizedAffinity>
-5.72389269

$$$$

 OpenBabel03272508413D

 42 45  0  0  1  0  0  0  0  0999 V2000
   39.2630   24.3670   34.9090 N   0  0  0  0  0  0  0  0  0  0  0  0
   38.1000   24.8380   34.1660 C   0  0  0  0  0  0  0  0  0  0  0  0
   37.9260   24.2180   32.8520 C   0  0  2  0  0  0  0  0  0  0  0  0
   39.2050   24.1270   32.0990 N   0  0  0  0  0  0  0  0  0  0  0  0
   40.1630   23.4140   32.9680 C   0  0  0  0  0  0  0  0  0  0  0  0
   40.4180   24.4050   34.0810 C   0  0  0  0  0  0  0  0  0  0  0  0
   37.2170   24.7670   34.7970 H   0  0  0  0  0  0  0  0  0  0  0  0
   38.4240   25.9180   33.9760 H   0  0  0  0  0  0  0  0  0  0  0  0
   37.6460   23.1470   32.8650 H   0  0  0  0  0  0  0  0  0  0  0  0
   39.0600   23.5370   31.2820 H   0  0  0  0  0  0  0  0  0  0  0  0
   41.1080   23.3610   32.3840 H   0  0  0  0  0  0  0  0  0  0  0  0
   39.7850   22.4480   33.3040 H   0  0  0  0  0  0  0  0  0  0  0  0
   40.5770   25.4000   33.5950 H   0  0  0  0  0  0  0  0  0  0  0  0
   41.3630   24.1770   34.6060 H   0  0  0  0  0  0  0  0  0  0  0  0
   38.6810   27.0260   32.2320 Cl  0  0  0  0  0  0  0  0  0  0  0  0
   37.2030   26.2600   31.6740 C   0  0  0  0  0  0  0  0  0  0  0  0
   36.9630   24.9680   32.0630 C   0  0  0  0  0  0  0  0  0  0  0  0
   35.8260   24.2300   31.6990 C   0  0  0  0  0  0  0  0  0  0  0  0
   34.9080   24.9130   30.8860 C   0  0  0  0  0  0  0  0  0  0  0  0
   35.1420   26.2330   30.4850 C   0  0  0  0  0  0  0  0  0  0  0  0
   36.2750   26.8760   30.8810 C   0  0  0  0  0  0  0  0  0  0  0  0
   35.4120   23.2640   31.8440 H   0  0  0  0  0  0  0  0  0  0  0  0
   33.9700   24.5590   30.4850 H   0  0  0  0  0  0  0  0  0  0  0  0
   34.4840   26.8190   29.8650 H   0  0  0  0  0  0  0  0  0  0  0  0
   35.1390   28.7590   32.8570 Cl  0  0  0  0  0  0  0  0  0  0  0  0
   36.0530   29.1810   31.4010 C   0  0  0  0  0  0  0  0  0  0  0  0
   36.5730   28.2510   30.4930 C   0  0  0  0  0  0  0  0  0  0  0  0
   37.2660   28.6940   29.4000 C   0  0  0  0  0  0  0  0  0  0  0  0
   37.6260   27.9220   28.7610 H   0  0  0  0  0  0  0  0  0  0  0  0
   37.4280   30.0640   29.2320 C   0  0  0  0  0  0  0  0  0  0  0  0
   37.9870   30.3800   28.3470 H   0  0  0  0  0  0  0  0  0  0  0  0
   36.9240   30.9930   30.1150 C   0  0  0  0  0  3  0  0  0  0  0  0
   36.2250   30.5420   31.2190 C   0  0  0  0  0  3  0  0  0  0  0  0
   39.1970   23.9580   36.2630 C   0  0  0  0  0  0  0  0  0  0  0  0
   38.1850   24.3840   37.1250 C   0  0  0  0  0  0  0  0  0  0  0  0
   38.1940   23.9300   38.4360 C   0  0  0  0  0  0  0  0  0  0  0  0
   39.2080   23.0730   38.8280 N   0  0  0  0  0  0  0  0  0  0  0  0
   40.1690   22.6890   37.9510 C   0  0  0  0  0  0  0  0  0  0  0  0
   40.1730   23.1150   36.6950 N   0  0  0  0  0  0  0  0  0  0  0  0
   37.4290   25.0540   36.7450 H   0  0  0  0  0  0  0  0  0  0  0  0
   37.4270   24.2450   39.1130 H   0  0  0  0  0  0  0  0  0  0  0  0
   40.9410   22.0260   38.2810 H   0  0  0  0  0  0  0  0  0  0  0  0
  1 34  1  0  0  0  0
  2  7  1  0  0  0  0
  2  1  1  0  0  0  0
  3  9  1  1  0  0  0
  3  2  1  0  0  0  0
  4  3  1  0  0  0  0
  4  5  1  0  0  0  0
  5 12  1  0  0  0  0
  5  6  1  0  0  0  0
  6 14  1  0  0  0  0
  6  1  1  0  0  0  0
  8  2  1  0  0  0  0
 10  4  1  0  0  0  0
 11  5  1  0  0  0  0
 13  6  1  0  0  0  0
 16 17  1  0  0  0  0
 16 15  1  0  0  0  0
 17  3  1  0  0  0  0
 18 22  1  0  0  0  0
 18 17  2  0  0  0  0
 19 18  1  0  0  0  0
 20 21  1  0  0  0  0
 20 19  2  0  0  0  0
 21 16  2  0  0  0  0
 23 19  1  0  0  0  0
 24 20  1  0  0  0  0
 26 25  1  0  0  0  0
 27 21  1  0  0  0  0
 27 26  2  0  0  0  0
 28 27  1  0  0  0  0
 29 28  1  0  0  0  0
 30 28  2  0  0  0  0
 30 32  1  0  0  0  0
 31 30  1  0  0  0  0
 32 33  2  0  0  0  0
 33 26  1  0  0  0  0
 34 39  2  0  0  0  0
 34 35  1  0  0  0  0
 35 36  2  0  0  0  0
 36 37  1  0  0  0  0
 36 41  1  0  0  0  0
 38 42  1  0  0  0  0
 38 37  2  0  0  0  0
 39 38  1  0  0  0  0
 40 35  1  0  0  0  0
M  END
>  <minimizedAffinity>
-5.70979977

$$$$

 OpenBabel03272508413D

 42 45  0  0  1  0  0  0  0  0999 V2000
   36.4270   28.0950   32.0500 N   0  0  0  0  0  0  0  0  0  0  0  0
   36.7030   26.8320   32.7250 C   0  0  0  0  0  0  0  0  0  0  0  0
   37.9360   26.1700   32.2960 C   0  0  2  0  0  0  0  0  0  0  0  0
   38.0970   26.1850   30.8180 N   0  0  0  0  0  0  0  0  0  0  0  0
   38.0030   27.5950   30.3910 C   0  0  0  0  0  0  0  0  0  0  0  0
   36.5510   27.9330   30.6430 C   0  0  0  0  0  0  0  0  0  0  0  0
   36.6440   26.9790   33.8010 H   0  0  0  0  0  0  0  0  0  0  0  0
   35.8390   26.2070   32.3130 H   0  0  0  0  0  0  0  0  0  0  0  0
   38.8750   26.6800   32.5860 H   0  0  0  0  0  0  0  0  0  0  0  0
   39.0410   25.8750   30.5900 H   0  0  0  0  0  0  0  0  0  0  0  0
   38.1240   27.5780   29.2860 H   0  0  0  0  0  0  0  0  0  0  0  0
   38.7120   28.2390   30.9120 H   0  0  0  0  0  0  0  0  0  0  0  0
   35.9480   27.0780   30.2450 H   0  0  0  0  0  0  0  0  0  0  0  0
   36.2410   28.8140   30.0530 H   0  0  0  0  0  0  0  0  0  0  0  0
   39.9410   25.5600   34.4040 Cl  0  0  0  0  0  0  0  0  0  0  0  0
   38.8070   24.3860   33.7570 C   0  0  0  0  0  0  0  0  0  0  0  0
   37.9590   24.7940   32.7620 C   0  0  0  0  0  0  0  0  0  0  0  0
   37.0030   23.9690   32.1490 C   0  0  0  0  0  0  0  0  0  0  0  0
   36.9630   22.6480   32.6240 C   0  0  0  0  0  0  0  0  0  0  0  0
   37.8270   22.2210   33.6380 C   0  0  0  0  0  0  0  0  0  0  0  0
   38.7240   23.0890   34.1820 C   0  0  0  0  0  0  0  0  0  0  0  0
   36.2530   24.0230   31.4000 H   0  0  0  0  0  0  0  0  0  0  0  0
   36.3230   21.8380   32.3090 H   0  0  0  0  0  0  0  0  0  0  0  0
   37.8560   21.2260   34.0500 H   0  0  0  0  0  0  0  0  0  0  0  0
   37.5600   23.7250   36.8240 Cl  0  0  0  0  0  0  0  0  0  0  0  0
   39.1370   22.9830   36.5160 C   0  0  0  0  0  0  0  0  0  0  0  0
   39.6470   22.7000   35.2430 C   0  0  0  0  0  0  0  0  0  0  0  0
   40.8810   22.1230   35.1270 C   0  0  0  0  0  0  0  0  0  0  0  0
   41.1930   21.9420   34.1250 H   0  0  0  0  0  0  0  0  0  0  0  0
   41.5890   21.8370   36.2890 C   0  0  0  0  0  0  0  0  0  0  0  0
   42.5710   21.3760   36.1560 H   0  0  0  0  0  0  0  0  0  0  0  0
   41.1040   22.1070   37.5490 C   0  0  0  0  0  3  0  0  0  0  0  0
   39.8550   22.6900   37.6630 C   0  0  0  0  0  3  0  0  0  0  0  0
   36.0760   29.2770   32.7450 C   0  0  0  0  0  0  0  0  0  0  0  0
   35.7060   29.2730   34.0910 C   0  0  0  0  0  0  0  0  0  0  0  0
   35.3810   30.4800   34.6950 C   0  0  0  0  0  0  0  0  0  0  0  0
   35.4400   31.6330   33.9320 N   0  0  0  0  0  0  0  0  0  0  0  0
   35.8050   31.5840   32.6270 C   0  0  0  0  0  0  0  0  0  0  0  0
   36.1180   30.4380   32.0360 N   0  0  0  0  0  0  0  0  0  0  0  0
   35.6840   28.3320   34.6180 H   0  0  0  0  0  0  0  0  0  0  0  0
   35.0960   30.4970   35.7260 H   0  0  0  0  0  0  0  0  0  0  0  0
   35.8420   32.4910   32.0610 H   0  0  0  0  0  0  0  0  0  0  0  0
  1  2  1  0  0  0  0
  1 34  1  0  0  0  0
  2  7  1  0  0  0  0
  3  9  1  1  0  0  0
  3  2  1  0  0  0  0
  3 17  1  0  0  0  0
  4  3  1  0  0  0  0
  5  6  1  0  0  0  0
  5  4  1  0  0  0  0
  5 12  1  0  0  0  0
  6  1  1  0  0  0  0
  8  2  1  0  0  0  0
 10  4  1  0  0  0  0
 11  5  1  0  0  0  0
 13  6  1  0  0  0  0
 14  6  1  0  0  0  0
 16 21  1  0  0  0  0
 16 15  1  0  0  0  0
 17 16  2  0  0  0  0
 18 19  2  0  0  0  0
 18 17  1  0  0  0  0
 19 20  1  0  0  0  0
 20 24  1  0  0  0  0
 20 21  2  0  0  0  0
 21 27  1  0  0  0  0
 22 18  1  0  0  0  0
 23 19  1  0  0  0  0
 26 25  1  0  0  0  0
 26 33  1  0  0  0  0
 27 26  2  0  0  0  0
 28 27  1  0  0  0  0
 28 30  2  0  0  0  0
 29 28  1  0  0  0  0
 30 32  1  0  0  0  0
 31 30  1  0  0  0  0
 32 33  2  0  0  0  0
 34 35  1  0  0  0  0
 35 40  1  0  0  0  0
 35 36  2  0  0  0  0
 36 41  1  0  0  0  0
 37 36  1  0  0  0  0
 38 37  2  0  0  0  0
 39 38  1  0  0  0  0
 39 34  2  0  0  0  0
 42 38  1  0  0  0  0
M  END
>  <minimizedAffinity>
-5.70282793

$$$$

 OpenBabel03272508413D

 42 45  0  0  1  0  0  0  0  0999 V2000
   37.6030   25.2950   32.9700 N   0  0  0  0  0  0  0  0  0  0  0  0
   37.4160   26.7220   32.7330 C   0  0  0  0  0  0  0  0  0  0  0  0
   36.2240   27.0580   31.9520 C   0  0  2  0  0  0  0  0  0  0  0  0
   36.0470   26.1590   30.7810 N   0  0  0  0  0  0  0  0  0  0  0  0
   36.0450   24.7760   31.3000 C   0  0  0  0  0  0  0  0  0  0  0  0
   37.4740   24.5770   31.7510 C   0  0  0  0  0  0  0  0  0  0  0  0
   37.4760   27.2550   33.6790 H   0  0  0  0  0  0  0  0  0  0  0  0
   38.3150   26.9170   32.0540 H   0  0  0  0  0  0  0  0  0  0  0  0
   35.2570   26.8840   32.4630 H   0  0  0  0  0  0  0  0  0  0  0  0
   35.1230   26.3210   30.3840 H   0  0  0  0  0  0  0  0  0  0  0  0
   35.9130   24.1260   30.4070 H   0  0  0  0  0  0  0  0  0  0  0  0
   35.3020   24.6230   32.0830 H   0  0  0  0  0  0  0  0  0  0  0  0
   38.1270   24.9790   30.9340 H   0  0  0  0  0  0  0  0  0  0  0  0
   37.7210   23.5030   31.8250 H   0  0  0  0  0  0  0  0  0  0  0  0
   35.0930   29.0970   33.7950 Cl  0  0  0  0  0  0  0  0  0  0  0  0
   35.8460   29.4750   32.2550 C   0  0  0  0  0  0  0  0  0  0  0  0
   36.2950   28.4330   31.4880 C   0  0  0  0  0  0  0  0  0  0  0  0
   36.9140   28.5800   30.2360 C   0  0  0  0  0  0  0  0  0  0  0  0
   37.0500   29.9050   29.7910 C   0  0  0  0  0  0  0  0  0  0  0  0
   36.5920   30.9760   30.5660 C   0  0  0  0  0  0  0  0  0  0  0  0
   36.0050   30.7450   31.7730 C   0  0  0  0  0  0  0  0  0  0  0  0
   37.3420   27.9800   29.4730 H   0  0  0  0  0  0  0  0  0  0  0  0
   37.4850   30.2650   28.8720 H   0  0  0  0  0  0  0  0  0  0  0  0
   36.6600   32.0150   30.2900 H   0  0  0  0  0  0  0  0  0  0  0  0
   33.1750   31.3200   31.1430 Cl  0  0  0  0  0  0  0  0  0  0  0  0
   34.1710   32.1310   32.3610 C   0  0  0  0  0  0  0  0  0  0  0  0
   35.5110   31.8220   32.6240 C   0  0  0  0  0  0  0  0  0  0  0  0
   36.1830   32.5170   33.5920 C   0  0  0  0  0  0  0  0  0  0  0  0
   37.1970   32.2200   33.7280 H   0  0  0  0  0  0  0  0  0  0  0  0
   35.5020   33.5120   34.2840 C   0  0  0  0  0  0  0  0  0  0  0  0
   36.0710   34.0440   35.0500 H   0  0  0  0  0  0  0  0  0  0  0  0
   34.1840   33.8280   34.0390 C   0  0  0  0  0  3  0  0  0  0  0  0
   33.5080   33.1240   33.0600 C   0  0  0  0  0  3  0  0  0  0  0  0
   37.8840   24.7600   34.2500 C   0  0  0  0  0  0  0  0  0  0  0  0
   37.8960   25.5450   35.4040 C   0  0  0  0  0  0  0  0  0  0  0  0
   38.1770   24.9350   36.6190 C   0  0  0  0  0  0  0  0  0  0  0  0
   38.4320   23.5760   36.6290 N   0  0  0  0  0  0  0  0  0  0  0  0
   38.4090   22.8570   35.4790 C   0  0  0  0  0  0  0  0  0  0  0  0
   38.1410   23.4250   34.3110 N   0  0  0  0  0  0  0  0  0  0  0  0
   37.6870   26.5990   35.3150 H   0  0  0  0  0  0  0  0  0  0  0  0
   38.1910   25.5200   37.5160 H   0  0  0  0  0  0  0  0  0  0  0  0
   38.6090   21.8060   35.5160 H   0  0  0  0  0  0  0  0  0  0  0  0
  1 34  1  0  0  0  0
  2  1  1  0  0  0  0
  2  7  1  0  0  0  0
  3  9  1  1  0  0  0
  3  2  1  0  0  0  0
  4  5  1  0  0  0  0
  4  3  1  0  0  0  0
  5  6  1  0  0  0  0
  5 12  1  0  0  0  0
  6 14  1  0  0  0  0
  6  1  1  0  0  0  0
  8  2  1  0  0  0  0
 10  4  1  0  0  0  0
 11  5  1  0  0  0  0
 13  6  1  0  0  0  0
 16 15  1  0  0  0  0
 17  3  1  0  0  0  0
 17 16  2  0  0  0  0
 18 17  1  0  0  0  0
 19 18  2  0  0  0  0
 19 20  1  0  0  0  0
 20 21  2  0  0  0  0
 21 16  1  0  0  0  0
 21 27  1  0  0  0  0
 22 18  1  0  0  0  0
 23 19  1  0  0  0  0
 24 20  1  0  0  0  0
 25 26  1  0  0  0  0
 26 27  2  0  0  0  0
 26 33  1  0  0  0  0
 27 28  1  0  0  0  0
 28 29  1  0  0  0  0
 28 30  2  0  0  0  0
 30 31  1  0  0  0  0
 32 30  1  0  0  0  0
 33 32  2  0  0  0  0
 34 39  2  0  0  0  0
 34 35  1  0  0  0  0
 35 36  2  0  0  0  0
 36 37  1  0  0  0  0
 36 41  1  0  0  0  0
 38 42  1  0  0  0  0
 38 37  2  0  0  0  0
 39 38  1  0  0  0  0
 40 35  1  0  0  0  0
M  END
>  <minimizedAffinity>
-5.63263798

$$$$

 OpenBabel03272508413D

 42 45  0  0  1  0  0  0  0  0999 V2000
   37.2680   27.7360   30.7730 N   0  0  0  0  0  0  0  0  0  0  0  0
   36.7320   28.8340   31.5700 C   0  0  0  0  0  0  0  0  0  0  0  0
   36.2590   29.9780   30.7910 C   0  0  2  0  0  0  0  0  0  0  0  0
   37.2010   30.3450   29.7010 N   0  0  0  0  0  0  0  0  0  0  0  0
   37.4170   29.1270   28.8930 C   0  0  0  0  0  0  0  0  0  0  0  0
   38.2040   28.2330   29.8260 C   0  0  0  0  0  0  0  0  0  0  0  0
   35.9890   28.4460   32.2630 H   0  0  0  0  0  0  0  0  0  0  0  0
   37.6930   29.1710   32.0920 H   0  0  0  0  0  0  0  0  0  0  0  0
   35.3470   29.7990   30.1900 H   0  0  0  0  0  0  0  0  0  0  0  0
   36.7450   31.0200   29.0900 H   0  0  0  0  0  0  0  0  0  0  0  0
   38.1240   29.4270   28.0890 H   0  0  0  0  0  0  0  0  0  0  0  0
   36.4840   28.6920   28.5350 H   0  0  0  0  0  0  0  0  0  0  0  0
   38.9980   28.8720   30.2880 H   0  0  0  0  0  0  0  0  0  0  0  0
   38.7430   27.4510   29.2630 H   0  0  0  0  0  0  0  0  0  0  0  0
   34.0720   29.7270   32.7880 Cl  0  0  0  0  0  0  0  0  0  0  0  0
   35.1130   31.1330   32.6430 C   0  0  0  0  0  0  0  0  0  0  0  0
   36.0610   31.1300   31.6540 C   0  0  0  0  0  0  0  0  0  0  0  0
   36.9600   32.1820   31.4160 C   0  0  0  0  0  0  0  0  0  0  0  0
   36.8290   33.2840   32.2760 C   0  0  0  0  0  0  0  0  0  0  0  0
   35.8630   33.2970   33.2880 C   0  0  0  0  0  0  0  0  0  0  0  0
   35.0310   32.2320   33.4530 C   0  0  0  0  0  0  0  0  0  0  0  0
   37.7570   32.4280   30.7600 H   0  0  0  0  0  0  0  0  0  0  0  0
   37.3980   34.2000   32.2870 H   0  0  0  0  0  0  0  0  0  0  0  0
   35.7030   34.1060   33.9820 H   0  0  0  0  0  0  0  0  0  0  0  0
   36.1920   31.2390   35.9840 Cl  0  0  0  0  0  0  0  0  0  0  0  0
   34.5120   31.7250   35.7120 C   0  0  0  0  0  0  0  0  0  0  0  0
   34.0070   32.1900   34.4910 C   0  0  0  0  0  0  0  0  0  0  0  0
   32.6880   32.5380   34.4000 C   0  0  0  0  0  0  0  0  0  0  0  0
   32.3860   32.8810   33.4370 H   0  0  0  0  0  0  0  0  0  0  0  0
   31.8910   32.4150   35.5320 C   0  0  0  0  0  0  0  0  0  0  0  0
   30.8430   32.7030   35.4190 H   0  0  0  0  0  0  0  0  0  0  0  0
   32.3700   31.9600   36.7400 C   0  0  0  0  0  3  0  0  0  0  0  0
   33.7050   31.6090   36.8300 C   0  0  0  0  0  3  0  0  0  0  0  0
   36.8850   26.3870   30.9670 C   0  0  0  0  0  0  0  0  0  0  0  0
   37.8160   25.3650   31.1610 C   0  0  0  0  0  0  0  0  0  0  0  0
   37.3510   24.0710   31.3490 C   0  0  0  0  0  0  0  0  0  0  0  0
   35.9850   23.8540   31.3340 N   0  0  0  0  0  0  0  0  0  0  0  0
   35.1210   24.8820   31.1400 C   0  0  0  0  0  0  0  0  0  0  0  0
   35.5500   26.1240   30.9600 N   0  0  0  0  0  0  0  0  0  0  0  0
   38.8650   25.6140   31.1590 H   0  0  0  0  0  0  0  0  0  0  0  0
   38.0490   23.2730   31.5000 H   0  0  0  0  0  0  0  0  0  0  0  0
   34.0690   24.6860   31.1340 H   0  0  0  0  0  0  0  0  0  0  0  0
  1 34  1  0  0  0  0
  1  2  1  0  0  0  0
  2  8  1  0  0  0  0
  2  7  1  0  0  0  0
  3  9  1  6  0  0  0
  3  2  1  0  0  0  0
  3 17  1  0  0  0  0
  4  3  1  0  0  0  0
  5  4  1  0  0  0  0
  5  6  1  0  0  0  0
  6 13  1  0  0  0  0
  6  1  1  0  0  0  0
 10  4  1  0  0  0  0
 11  5  1  0  0  0  0
 12  5  1  0  0  0  0
 14  6  1  0  0  0  0
 16 15  1  0  0  0  0
 16 21  1  0  0  0  0
 17 16  2  0  0  0  0
 18 17  1  0  0  0  0
 18 19  2  0  0  0  0
 19 23  1  0  0  0  0
 19 20  1  0  0  0  0
 20 21  2  0  0  0  0
 20 24  1  0  0  0  0
 21 27  1  0  0  0  0
 22 18  1  0  0  0  0
 26 25  1  0  0  0  0
 26 33  1  0  0  0  0
 27 26  2  0  0  0  0
 28 27  1  0  0  0  0
 28 30  2  0  0  0  0
 29 28  1  0  0  0  0
 30 32  1  0  0  0  0
 31 30  1  0  0  0  0
 32 33  2  0  0  0  0
 34 35  1  0  0  0  0
 35 36  2  0  0  0  0
 36 41  1  0  0  0  0
 37 36  1  0  0  0  0
 38 37  2  0  0  0  0
 39 34  2  0  0  0  0
 39 38  1  0  0  0  0
 40 35  1  0  0  0  0
 42 38  1  0  0  0  0
M  END
>  <minimizedAffinity>
-5.63175821

$$$$
