
 OpenBabel03272510073D

 30 32  0  0  0  0  0  0  0  0999 V2000
   38.4760   31.4920   47.0850 C   0  0  0  0  0  0  0  0  0  0  0  0
   37.9460   31.1430   45.8160 C   0  0  0  0  0  0  0  0  0  0  0  0
   36.7190   30.4780   45.7880 C   0  0  0  0  0  0  0  0  0  0  0  0
   36.1110   30.2070   46.9620 N   0  0  0  0  0  0  0  0  0  0  0  0
   36.6270   30.5440   48.1550 C   0  0  0  0  0  0  0  0  0  0  0  0
   37.8040   31.1840   48.2180 N   0  0  0  0  0  0  0  0  0  0  0  0
   35.9100   30.2150   49.3460 N   0  0  0  0  0  0  0  0  0  0  0  0
   34.5660   30.7130   49.6190 C   0  0  0  0  0  0  0  0  0  0  0  0
   34.1020   29.9410   50.8050 C   0  0  0  0  0  0  0  0  0  0  0  0
   35.1230   28.8460   51.0230 C   0  0  0  0  0  0  0  0  0  0  0  0
   36.3840   29.3740   50.4180 C   0  0  0  0  0  0  0  0  0  0  0  0
   39.4350   32.0120   47.1160 H   0  0  0  0  0  0  0  0  0  0  0  0
   36.2420   30.1750   44.8810 H   0  0  0  0  0  0  0  0  0  0  0  0
   34.6490   31.8010   49.7550 H   0  0  0  0  0  0  0  0  0  0  0  0
   33.9710   30.4610   48.6990 H   0  0  0  0  0  0  0  0  0  0  0  0
   33.1490   29.4010   50.5340 H   0  0  0  0  0  0  0  0  0  0  0  0
   33.9780   30.6030   51.6880 H   0  0  0  0  0  0  0  0  0  0  0  0
   35.2780   28.7370   52.1200 H   0  0  0  0  0  0  0  0  0  0  0  0
   34.8070   27.8700   50.5820 H   0  0  0  0  0  0  0  0  0  0  0  0
   37.0410   29.8990   51.1290 H   0  0  0  0  0  0  0  0  0  0  0  0
   36.9360   28.5230   49.9530 H   0  0  0  0  0  0  0  0  0  0  0  0
   38.9920   28.8500   44.0910 Cl  0  0  0  0  0  0  0  0  0  0  0  0
   39.1550   30.5310   43.6960 C   0  0  0  0  0  0  0  0  0  0  0  0
   38.6340   31.4540   44.5700 C   0  0  0  0  0  0  0  0  0  0  0  0
   38.7550   32.7920   44.2690 C   0  0  0  0  0  0  0  0  0  0  0  0
   38.4010   33.6350   44.8490 H   0  0  0  0  0  0  0  0  0  0  0  0
   39.3830   33.2040   43.1230 C   0  0  0  0  0  0  0  0  0  0  0  0
   39.5240   34.2490   42.8050 H   0  0  0  0  0  0  0  0  0  0  0  0
   39.9160   32.2960   42.2280 C   0  0  0  0  0  3  0  0  0  0  0  0
   39.7890   30.9580   42.5370 C   0  0  0  0  0  3  0  0  0  0  0  0
  1 12  1  0  0  0  0
  1  6  1  0  0  0  0
  2  1  2  0  0  0  0
  3  2  1  0  0  0  0
  3  4  2  0  0  0  0
  4  5  1  0  0  0  0
  5  6  2  0  0  0  0
  5  7  1  0  0  0  0
  7  8  1  0  0  0  0
  7 11  1  0  0  0  0
  8 14  1  0  0  0  0
  8  9  1  0  0  0  0
  9 10  1  0  0  0  0
  9 17  1  0  0  0  0
 10 18  1  0  0  0  0
 11 10  1  0  0  0  0
 11 20  1  0  0  0  0
 13  3  1  0  0  0  0
 15  8  1  0  0  0  0
 16  9  1  0  0  0  0
 19 10  1  0  0  0  0
 21 11  1  0  0  0  0
 23 22  1  0  0  0  0
 23 24  1  0  0  0  0
 24  2  1  0  0  0  0
 25 24  2  0  0  0  0
 25 26  1  0  0  0  0
 27 25  1  0  0  0  0
 28 27  1  0  0  0  0
 29 30  1  0  0  0  0
 29 27  2  0  0  0  0
 30 23  2  0  0  0  0
M  END
>  <minimizedAffinity>
-4.32700205

>  <minimizedRMSD>
3.97343898

$$$$
