
 OpenBabel03272510203D

 36 39  0  0  0  0  0  0  0  0999 V2000
   37.3050   29.3010   51.0080 Br  0  0  0  0  0  0  0  0  0  0  0  0
   35.9540   29.3310   49.6720 C   0  0  0  0  0  0  0  0  0  0  0  0
   35.9820   30.2800   48.6540 C   0  0  0  0  0  0  0  0  0  0  0  0
   34.9710   30.2380   47.7230 C   0  0  0  0  0  0  0  0  0  0  0  0
   33.9470   29.3220   47.7430 C   0  0  0  0  0  0  0  0  0  0  0  0
   33.9440   28.3970   48.7590 C   0  0  0  0  0  0  0  0  0  0  0  0
   34.9450   28.4110   49.7090 C   0  0  0  0  0  0  0  0  0  0  0  0
   35.0030   30.9770   46.9410 H   0  0  0  0  0  0  0  0  0  0  0  0
   33.1480   27.6570   48.8050 H   0  0  0  0  0  0  0  0  0  0  0  0
   34.8770   27.6470   50.4830 H   0  0  0  0  0  0  0  0  0  0  0  0
   37.9930   33.1960   49.5070 C   0  0  0  0  0  0  0  0  0  0  0  0
   39.0250   33.1850   48.5260 C   0  0  0  0  0  0  0  0  0  0  0  0
   39.0030   32.1650   47.5860 C   0  0  0  0  0  0  0  0  0  0  0  0
   38.0080   31.2410   47.6540 N   0  0  0  0  0  0  0  0  0  0  0  0
   37.0450   31.2720   48.5870 C   0  0  0  0  0  0  0  0  0  0  0  0
   37.0390   32.2570   49.5200 N   0  0  0  0  0  0  0  0  0  0  0  0
   38.0000   33.9850   50.2420 H   0  0  0  0  0  0  0  0  0  0  0  0
   39.7770   33.9580   48.5470 H   0  0  0  0  0  0  0  0  0  0  0  0
   39.7720   32.1200   46.8230 H   0  0  0  0  0  0  0  0  0  0  0  0
   32.8750   29.2770   46.7580 C   0  0  0  0  0  0  0  0  0  0  0  0
   32.0170   28.2110   46.5780 C   0  0  0  0  0  0  0  0  0  0  0  0
   31.0110   28.2220   45.6220 C   0  0  0  0  0  0  0  0  0  0  0  0
   30.8570   29.3030   44.8360 N   0  0  0  0  0  0  0  0  0  0  0  0
   31.6940   30.3440   45.0090 C   0  0  0  0  0  0  0  0  0  0  0  0
   32.6530   30.3190   45.9290 N   0  0  0  0  0  0  0  0  0  0  0  0
   32.1490   27.3440   47.2160 H   0  0  0  0  0  0  0  0  0  0  0  0
   30.3970   27.3250   45.5740 H   0  0  0  0  0  0  0  0  0  0  0  0
   33.8980   30.9350   42.9800 Cl  0  0  0  0  0  0  0  0  0  0  0  0
   32.4370   31.8730   43.1920 C   0  0  0  0  0  0  0  0  0  0  0  0
   31.5090   31.5070   44.1450 C   0  0  0  0  0  0  0  0  0  0  0  0
   30.3520   32.2750   44.2910 C   0  0  0  0  0  0  0  0  0  0  0  0
   29.5910   32.0460   45.0120 H   0  0  0  0  0  0  0  0  0  0  0  0
   30.2250   33.3650   43.4470 C   0  0  0  0  0  0  0  0  0  0  0  0
   29.3340   33.9850   43.5350 H   0  0  0  0  0  0  0  0  0  0  0  0
   31.1510   33.7330   42.4930 C   0  0  0  0  0  3  0  0  0  0  0  0
   32.3080   32.9600   42.3530 C   0  0  0  0  0  3  0  0  0  0  0  0
  2  7  1  0  0  0  0
  2  1  1  0  0  0  0
  3  2  2  0  0  0  0
  4  5  2  0  0  0  0
  4  3  1  0  0  0  0
  5  6  1  0  0  0  0
  6  9  1  0  0  0  0
  6  7  2  0  0  0  0
  7 10  1  0  0  0  0
  8  4  1  0  0  0  0
 11 16  1  0  0  0  0
 11 17  1  0  0  0  0
 12 18  1  0  0  0  0
 12 11  2  0  0  0  0
 13 14  2  0  0  0  0
 13 12  1  0  0  0  0
 14 15  1  0  0  0  0
 15  3  1  0  0  0  0
 15 16  2  0  0  0  0
 19 13  1  0  0  0  0
 20  5  1  0  0  0  0
 21 20  1  0  0  0  0
 21 26  1  0  0  0  0
 22 21  2  0  0  0  0
 23 24  2  0  0  0  0
 23 22  1  0  0  0  0
 24 25  1  0  0  0  0
 25 20  2  0  0  0  0
 27 22  1  0  0  0  0
 28 29  1  0  0  0  0
 29 30  1  0  0  0  0
 30 31  2  0  0  0  0
 30 24  1  0  0  0  0
 31 32  1  0  0  0  0
 33 34  1  0  0  0  0
 33 31  1  0  0  0  0
 35 33  2  0  0  0  0
 36 35  1  0  0  0  0
 36 29  2  0  0  0  0
M  END
>  <minimizedAffinity>
-6.44343424

>  <minimizedRMSD>
0.657168031

$$$$
