
 OpenBabel03272509393D

 30 32  0  0  1  0  0  0  0  0999 V2000
   39.1310   26.3480   34.0010 C   0  0  0  0  0  0  0  0  0  0  0  0
   40.3360   26.9980   34.3380 C   0  0  0  0  0  0  0  0  0  0  0  0
   41.2340   27.4270   33.3450 C   0  0  0  0  0  0  0  0  0  0  0  0
   40.9150   27.2000   31.9900 C   0  0  0  0  0  0  0  0  0  0  0  0
   39.7160   26.5560   31.6890 C   0  0  0  0  0  0  0  0  0  0  0  0
   38.8480   26.1420   32.6850 C   0  0  0  0  0  0  0  0  0  0  0  0
   40.5910   27.1760   35.3730 H   0  0  0  0  0  0  0  0  0  0  0  0
   42.1240   27.9090   33.6770 H   0  0  0  0  0  0  0  0  0  0  0  0
   41.6230   27.5410   31.2570 H   0  0  0  0  0  0  0  0  0  0  0  0
   39.5700   26.4330   30.6260 H   0  0  0  0  0  0  0  0  0  0  0  0
   36.9670   28.2340   31.8810 Cl  0  0  0  0  0  0  0  0  0  0  0  0
   36.7620   26.4820   31.7680 C   0  0  0  0  0  0  0  0  0  0  0  0
   37.6750   25.4870   32.1470 C   0  0  0  0  0  0  0  0  0  0  0  0
   37.2790   24.1790   31.9590 C   0  0  0  0  0  0  0  0  0  0  0  0
   38.1000   23.5290   32.3020 H   0  0  0  0  0  0  0  0  0  0  0  0
   36.0570   23.8480   31.4300 C   0  0  0  0  0  0  0  0  0  0  0  0
   35.8990   22.7850   31.3470 H   0  0  0  0  0  0  0  0  0  0  0  0
   35.1620   24.8280   31.0590 C   0  0  0  0  0  3  0  0  0  0  0  0
   35.5120   26.1490   31.2280 C   0  0  0  0  0  3  0  0  0  0  0  0
   38.2680   25.9320   35.0880 C   0  0  2  0  0  3  0  0  0  0  0  0
   37.1500   26.5650   35.1520 O   0  0  0  0  0  1  0  0  0  0  0  0
   38.1070   24.1190   38.2230 C   0  0  0  0  0  0  0  0  0  0  0  0
   38.9830   23.0320   38.0370 C   0  0  0  0  0  0  0  0  0  0  0  0
   39.6420   22.9270   36.8200 C   0  0  0  0  0  0  0  0  0  0  0  0
   39.4240   23.8700   35.8450 N   0  0  0  0  0  0  0  0  0  0  0  0
   38.5820   24.8840   36.0690 C   0  0  0  0  0  0  0  0  0  0  0  0
   37.9320   25.0020   37.2500 N   0  0  0  0  0  0  0  0  0  0  0  0
   37.6310   24.1330   39.1940 H   0  0  0  0  0  0  0  0  0  0  0  0
   39.2040   22.2560   38.7510 H   0  0  0  0  0  0  0  0  0  0  0  0
   40.3450   22.1470   36.5340 H   0  0  0  0  0  0  0  0  0  0  0  0
  1  2  1  0  0  0  0
  1 20  1  0  0  0  0
  2  7  1  0  0  0  0
  3  8  1  0  0  0  0
  3  2  2  0  0  0  0
  4  3  1  0  0  0  0
  5  4  2  0  0  0  0
  5  6  1  0  0  0  0
  6  1  2  0  0  0  0
  9  4  1  0  0  0  0
 10  5  1  0  0  0  0
 12 11  1  0  0  0  0
 12 13  1  0  0  0  0
 13  6  1  0  0  0  0
 14 13  2  0  0  0  0
 14 15  1  0  0  0  0
 16 14  1  0  0  0  0
 17 16  1  0  0  0  0
 18 19  1  0  0  0  0
 18 16  2  0  0  0  0
 19 12  2  0  0  0  0
 20 21  1  1  0  0  0
 20 26  1  0  0  0  0
 22 28  1  0  0  0  0
 23 22  1  0  0  0  0
 23 29  1  0  0  0  0
 24 23  2  0  0  0  0
 25 26  2  0  0  0  0
 25 24  1  0  0  0  0
 26 27  1  0  0  0  0
 27 22  2  0  0  0  0
 30 24  1  0  0  0  0
M  END
>  <minimizedAffinity>
-5.62799549

$$$$

 OpenBabel03272509393D

 30 32  0  0  1  0  0  0  0  0999 V2000
   38.2080   24.9610   33.8690 C   0  0  0  0  0  0  0  0  0  0  0  0
   37.3540   25.9860   33.4120 C   0  0  0  0  0  0  0  0  0  0  0  0
   37.2300   27.1970   34.1150 C   0  0  0  0  0  0  0  0  0  0  0  0
   37.9770   27.3820   35.2960 C   0  0  0  0  0  0  0  0  0  0  0  0
   38.8130   26.3500   35.7220 C   0  0  0  0  0  0  0  0  0  0  0  0
   38.9180   25.1660   35.0130 C   0  0  0  0  0  0  0  0  0  0  0  0
   36.7770   25.8550   32.5080 H   0  0  0  0  0  0  0  0  0  0  0  0
   36.5650   27.9230   33.7080 H   0  0  0  0  0  0  0  0  0  0  0  0
   37.8580   28.3190   35.8090 H   0  0  0  0  0  0  0  0  0  0  0  0
   39.3370   26.5950   36.6340 H   0  0  0  0  0  0  0  0  0  0  0  0
   37.4350   23.7760   37.1160 Cl  0  0  0  0  0  0  0  0  0  0  0  0
   39.1300   23.5700   36.6600 C   0  0  0  0  0  0  0  0  0  0  0  0
   39.8300   24.2350   35.6420 C   0  0  0  0  0  0  0  0  0  0  0  0
   41.1580   23.8980   35.4810 C   0  0  0  0  0  0  0  0  0  0  0  0
   41.5570   24.5020   34.6500 H   0  0  0  0  0  0  0  0  0  0  0  0
   41.7810   22.9630   36.2670 C   0  0  0  0  0  0  0  0  0  0  0  0
   42.8180   22.8130   36.0150 H   0  0  0  0  0  0  0  0  0  0  0  0
   41.0920   22.3110   37.2670 C   0  0  0  0  0  3  0  0  0  0  0  0
   39.7630   22.6140   37.4670 C   0  0  0  0  0  3  0  0  0  0  0  0
   38.2700   23.7430   33.0870 C   0  0  2  0  0  3  0  0  0  0  0  0
   39.3350   23.6190   32.3770 O   0  0  0  0  0  1  0  0  0  0  0  0
   35.4800   21.8170   31.8030 C   0  0  0  0  0  0  0  0  0  0  0  0
   35.2680   20.8250   32.7800 C   0  0  0  0  0  0  0  0  0  0  0  0
   36.0920   20.8240   33.8970 C   0  0  0  0  0  0  0  0  0  0  0  0
   37.0770   21.7740   34.0170 N   0  0  0  0  0  0  0  0  0  0  0  0
   37.2390   22.6970   33.0610 C   0  0  0  0  0  0  0  0  0  0  0  0
   36.4440   22.7120   31.9670 N   0  0  0  0  0  0  0  0  0  0  0  0
   34.8010   21.7540   30.9640 H   0  0  0  0  0  0  0  0  0  0  0  0
   34.5210   20.0500   32.7560 H   0  0  0  0  0  0  0  0  0  0  0  0
   36.0480   20.1230   34.7280 H   0  0  0  0  0  0  0  0  0  0  0  0
  1  6  1  0  0  0  0
  2  1  2  0  0  0  0
  2  3  1  0  0  0  0
  3  4  2  0  0  0  0
  4  5  1  0  0  0  0
  4  9  1  0  0  0  0
  5 10  1  0  0  0  0
  6 13  1  0  0  0  0
  6  5  2  0  0  0  0
  7  2  1  0  0  0  0
  8  3  1  0  0  0  0
 12 11  1  0  0  0  0
 12 19  1  0  0  0  0
 13 12  2  0  0  0  0
 14 13  1  0  0  0  0
 14 16  2  0  0  0  0
 15 14  1  0  0  0  0
 16 18  1  0  0  0  0
 17 16  1  0  0  0  0
 18 19  2  0  0  0  0
 20 21  1  6  0  0  0
 20  1  1  0  0  0  0
 22 27  2  0  0  0  0
 22 23  1  0  0  0  0
 23 24  2  0  0  0  0
 24 25  1  0  0  0  0
 24 30  1  0  0  0  0
 26 20  1  0  0  0  0
 26 25  2  0  0  0  0
 27 26  1  0  0  0  0
 28 22  1  0  0  0  0
 29 23  1  0  0  0  0
M  END
>  <minimizedAffinity>
-5.57931185

$$$$

 OpenBabel03272509393D

 30 32  0  0  1  0  0  0  0  0999 V2000
   37.5400   23.0070   33.2430 C   0  0  0  0  0  0  0  0  0  0  0  0
   36.6060   22.2280   32.5310 C   0  0  0  0  0  0  0  0  0  0  0  0
   35.7150   22.8150   31.6160 C   0  0  0  0  0  0  0  0  0  0  0  0
   35.7640   24.2100   31.4140 C   0  0  0  0  0  0  0  0  0  0  0  0
   36.6990   24.9530   32.1330 C   0  0  0  0  0  0  0  0  0  0  0  0
   37.5660   24.3520   33.0280 C   0  0  0  0  0  0  0  0  0  0  0  0
   36.5600   21.1580   32.6780 H   0  0  0  0  0  0  0  0  0  0  0  0
   35.0380   22.1620   31.1170 H   0  0  0  0  0  0  0  0  0  0  0  0
   35.0680   24.6260   30.7080 H   0  0  0  0  0  0  0  0  0  0  0  0
   36.6510   26.0070   31.9040 H   0  0  0  0  0  0  0  0  0  0  0  0
   40.0450   24.4540   31.4780 Cl  0  0  0  0  0  0  0  0  0  0  0  0
   39.6360   25.3600   32.9390 C   0  0  0  0  0  0  0  0  0  0  0  0
   38.4390   25.3120   33.6700 C   0  0  0  0  0  0  0  0  0  0  0  0
   38.3600   26.1200   34.7840 C   0  0  0  0  0  0  0  0  0  0  0  0
   37.3680   25.9670   35.2390 H   0  0  0  0  0  0  0  0  0  0  0  0
   39.3900   26.9380   35.1750 C   0  0  0  0  0  0  0  0  0  0  0  0
   39.1720   27.5060   36.0660 H   0  0  0  0  0  0  0  0  0  0  0  0
   40.5640   26.9830   34.4570 C   0  0  0  0  0  3  0  0  0  0  0  0
   40.6910   26.1940   33.3350 C   0  0  0  0  0  3  0  0  0  0  0  0
   38.4160   22.3200   34.1710 C   0  0  1  0  0  3  0  0  0  0  0  0
   39.1210   21.3830   33.6440 O   0  0  0  0  0  1  0  0  0  0  0  0
   40.0490   22.7520   37.3780 C   0  0  0  0  0  0  0  0  0  0  0  0
   39.0120   23.1560   38.2410 C   0  0  0  0  0  0  0  0  0  0  0  0
   37.7340   23.2740   37.7130 C   0  0  0  0  0  0  0  0  0  0  0  0
   37.5200   23.0000   36.3840 N   0  0  0  0  0  0  0  0  0  0  0  0
   38.5380   22.6200   35.6040 C   0  0  0  0  0  0  0  0  0  0  0  0
   39.7890   22.4990   36.1040 N   0  0  0  0  0  0  0  0  0  0  0  0
   41.0150   22.6840   37.8610 H   0  0  0  0  0  0  0  0  0  0  0  0
   39.1020   23.3880   39.2890 H   0  0  0  0  0  0  0  0  0  0  0  0
   36.8390   23.5740   38.2550 H   0  0  0  0  0  0  0  0  0  0  0  0
  1 20  1  0  0  0  0
  2  7  1  0  0  0  0
  2  1  2  0  0  0  0
  3  2  1  0  0  0  0
  4  3  2  0  0  0  0
  4  5  1  0  0  0  0
  5  6  2  0  0  0  0
  6  1  1  0  0  0  0
  6 13  1  0  0  0  0
  8  3  1  0  0  0  0
  9  4  1  0  0  0  0
 10  5  1  0  0  0  0
 11 12  1  0  0  0  0
 12 19  2  0  0  0  0
 12 13  1  0  0  0  0
 13 14  2  0  0  0  0
 14 16  1  0  0  0  0
 14 15  1  0  0  0  0
 16 17  1  0  0  0  0
 18 16  2  0  0  0  0
 19 18  1  0  0  0  0
 20 21  1  6  0  0  0
 20 26  1  0  0  0  0
 22 28  1  0  0  0  0
 22 23  1  0  0  0  0
 23 29  1  0  0  0  0
 24 23  2  0  0  0  0
 24 30  1  0  0  0  0
 25 24  1  0  0  0  0
 26 27  1  0  0  0  0
 26 25  2  0  0  0  0
 27 22  2  0  0  0  0
M  END
>  <minimizedAffinity>
-5.38552475

$$$$

 OpenBabel03272509393D

 30 32  0  0  1  0  0  0  0  0999 V2000
   38.1550   24.9040   33.8950 C   0  0  0  0  0  0  0  0  0  0  0  0
   37.3970   25.9700   33.3680 C   0  0  0  0  0  0  0  0  0  0  0  0
   37.2520   27.1780   34.0730 C   0  0  0  0  0  0  0  0  0  0  0  0
   37.8800   27.3170   35.3270 C   0  0  0  0  0  0  0  0  0  0  0  0
   38.6240   26.2460   35.8200 C   0  0  0  0  0  0  0  0  0  0  0  0
   38.7520   25.0660   35.1080 C   0  0  0  0  0  0  0  0  0  0  0  0
   36.9100   25.8730   32.4080 H   0  0  0  0  0  0  0  0  0  0  0  0
   36.6620   27.9360   33.6110 H   0  0  0  0  0  0  0  0  0  0  0  0
   37.7490   28.2530   35.8390 H   0  0  0  0  0  0  0  0  0  0  0  0
   39.0610   26.4580   36.7850 H   0  0  0  0  0  0  0  0  0  0  0  0
   41.5380   25.4940   34.3260 Cl  0  0  0  0  0  0  0  0  0  0  0  0
   40.8920   24.2790   35.4350 C   0  0  0  0  0  0  0  0  0  0  0  0
   39.5550   24.0890   35.8130 C   0  0  0  0  0  0  0  0  0  0  0  0
   39.3010   23.0650   36.7000 C   0  0  0  0  0  0  0  0  0  0  0  0
   38.2160   23.0500   36.8920 H   0  0  0  0  0  0  0  0  0  0  0  0
   40.2930   22.2610   37.2000 C   0  0  0  0  0  0  0  0  0  0  0  0
   39.9320   21.5070   37.8820 H   0  0  0  0  0  0  0  0  0  0  0  0
   41.6060   22.4490   36.8280 C   0  0  0  0  0  3  0  0  0  0  0  0
   41.9100   23.4600   35.9430 C   0  0  0  0  0  3  0  0  0  0  0  0
   38.2460   23.6930   33.1050 C   0  0  1  0  0  3  0  0  0  0  0  0
   39.3360   23.5750   32.4330 O   0  0  0  0  0  1  0  0  0  0  0  0
   35.4950   21.7870   31.7120 C   0  0  0  0  0  0  0  0  0  0  0  0
   35.2570   20.7780   32.6660 C   0  0  0  0  0  0  0  0  0  0  0  0
   36.0490   20.7600   33.8060 C   0  0  0  0  0  0  0  0  0  0  0  0
   37.0280   21.7090   33.9690 N   0  0  0  0  0  0  0  0  0  0  0  0
   37.2170   22.6460   33.0330 C   0  0  0  0  0  0  0  0  0  0  0  0
   36.4530   22.6790   31.9180 N   0  0  0  0  0  0  0  0  0  0  0  0
   34.8400   21.7360   30.8530 H   0  0  0  0  0  0  0  0  0  0  0  0
   34.5110   20.0030   32.6090 H   0  0  0  0  0  0  0  0  0  0  0  0
   35.9820   20.0460   34.6250 H   0  0  0  0  0  0  0  0  0  0  0  0
  1  6  1  0  0  0  0
  2  1  2  0  0  0  0
  2  3  1  0  0  0  0
  3  4  2  0  0  0  0
  4  5  1  0  0  0  0
  4  9  1  0  0  0  0
  5 10  1  0  0  0  0
  6 13  1  0  0  0  0
  6  5  2  0  0  0  0
  7  2  1  0  0  0  0
  8  3  1  0  0  0  0
 11 12  1  0  0  0  0
 12 13  2  0  0  0  0
 12 19  1  0  0  0  0
 13 14  1  0  0  0  0
 14 15  1  0  0  0  0
 14 16  2  0  0  0  0
 16 17  1  0  0  0  0
 18 16  1  0  0  0  0
 19 18  2  0  0  0  0
 20 21  1  1  0  0  0
 20  1  1  0  0  0  0
 22 27  2  0  0  0  0
 22 23  1  0  0  0  0
 23 24  2  0  0  0  0
 24 25  1  0  0  0  0
 24 30  1  0  0  0  0
 26 20  1  0  0  0  0
 26 25  2  0  0  0  0
 27 26  1  0  0  0  0
 28 22  1  0  0  0  0
 29 23  1  0  0  0  0
M  END
>  <minimizedAffinity>
-5.34330988

$$$$

 OpenBabel03272509393D

 30 32  0  0  1  0  0  0  0  0999 V2000
   41.0410   24.9390   34.3250 C   0  0  0  0  0  0  0  0  0  0  0  0
   42.3760   24.5520   34.0930 C   0  0  0  0  0  0  0  0  0  0  0  0
   43.3650   25.4990   33.7750 C   0  0  0  0  0  0  0  0  0  0  0  0
   43.0050   26.8600   33.6880 C   0  0  0  0  0  0  0  0  0  0  0  0
   41.6770   27.2120   33.9240 C   0  0  0  0  0  0  0  0  0  0  0  0
   40.7210   26.2600   34.2360 C   0  0  0  0  0  0  0  0  0  0  0  0
   42.6630   23.5120   34.1560 H   0  0  0  0  0  0  0  0  0  0  0  0
   44.3510   25.1290   33.6120 H   0  0  0  0  0  0  0  0  0  0  0  0
   43.7850   27.5570   33.4430 H   0  0  0  0  0  0  0  0  0  0  0  0
   41.5110   28.2750   33.8320 H   0  0  0  0  0  0  0  0  0  0  0  0
   39.4070   26.3320   31.6230 Cl  0  0  0  0  0  0  0  0  0  0  0  0
   38.7770   26.8960   33.1750 C   0  0  0  0  0  0  0  0  0  0  0  0
   39.4120   26.8470   34.4260 C   0  0  0  0  0  0  0  0  0  0  0  0
   38.7090   27.3550   35.4970 C   0  0  0  0  0  0  0  0  0  0  0  0
   39.3390   27.2420   36.3940 H   0  0  0  0  0  0  0  0  0  0  0  0
   37.4500   27.8860   35.3680 C   0  0  0  0  0  0  0  0  0  0  0  0
   37.0360   28.2400   36.2980 H   0  0  0  0  0  0  0  0  0  0  0  0
   36.8290   27.9330   34.1390 C   0  0  0  0  0  3  0  0  0  0  0  0
   37.4920   27.4380   33.0380 C   0  0  0  0  0  3  0  0  0  0  0  0
   40.0860   23.8970   34.6400 C   0  0  2  0  0  3  0  0  0  0  0  0
   39.7600   23.1530   33.6430 O   0  0  0  0  0  1  0  0  0  0  0  0
   37.5180   23.7600   37.1950 C   0  0  0  0  0  0  0  0  0  0  0  0
   38.1850   23.2550   38.3270 C   0  0  0  0  0  0  0  0  0  0  0  0
   39.5370   22.9660   38.2110 C   0  0  0  0  0  0  0  0  0  0  0  0
   40.1770   23.1740   37.0140 N   0  0  0  0  0  0  0  0  0  0  0  0
   39.4990   23.6550   35.9660 C   0  0  0  0  0  0  0  0  0  0  0  0
   38.1810   23.9440   36.0620 N   0  0  0  0  0  0  0  0  0  0  0  0
   36.4680   23.9620   37.3620 H   0  0  0  0  0  0  0  0  0  0  0  0
   37.7530   23.0660   39.2960 H   0  0  0  0  0  0  0  0  0  0  0  0
   40.1810   22.5720   38.9960 H   0  0  0  0  0  0  0  0  0  0  0  0
  1 20  1  0  0  0  0
  2  7  1  0  0  0  0
  2  1  2  0  0  0  0
  3  2  1  0  0  0  0
  4  3  2  0  0  0  0
  4  5  1  0  0  0  0
  5  6  2  0  0  0  0
  6  1  1  0  0  0  0
  6 13  1  0  0  0  0
  8  3  1  0  0  0  0
  9  4  1  0  0  0  0
 10  5  1  0  0  0  0
 11 12  1  0  0  0  0
 12 13  1  0  0  0  0
 13 14  2  0  0  0  0
 14 15  1  0  0  0  0
 16 14  1  0  0  0  0
 16 17  1  0  0  0  0
 18 16  2  0  0  0  0
 19 12  2  0  0  0  0
 19 18  1  0  0  0  0
 20 21  1  6  0  0  0
 20 26  1  0  0  0  0
 22 28  1  0  0  0  0
 22 23  1  0  0  0  0
 23 29  1  0  0  0  0
 24 23  2  0  0  0  0
 24 30  1  0  0  0  0
 25 24  1  0  0  0  0
 26 27  1  0  0  0  0
 26 25  2  0  0  0  0
 27 22  2  0  0  0  0
M  END
>  <minimizedAffinity>
-5.30638266

$$$$

 OpenBabel03272509393D

 30 32  0  0  1  0  0  0  0  0999 V2000
   39.4330   27.3170   32.1030 C   0  0  0  0  0  0  0  0  0  0  0  0
   40.2230   27.7080   31.0030 C   0  0  0  0  0  0  0  0  0  0  0  0
   41.6170   27.8480   31.1210 C   0  0  0  0  0  0  0  0  0  0  0  0
   42.2270   27.5910   32.3650 C   0  0  0  0  0  0  0  0  0  0  0  0
   41.4190   27.2050   33.4340 C   0  0  0  0  0  0  0  0  0  0  0  0
   40.0480   27.0740   33.2940 C   0  0  0  0  0  0  0  0  0  0  0  0
   39.7650   27.9090   30.0450 H   0  0  0  0  0  0  0  0  0  0  0  0
   42.1450   28.1480   30.2460 H   0  0  0  0  0  0  0  0  0  0  0  0
   43.2940   27.7080   32.4200 H   0  0  0  0  0  0  0  0  0  0  0  0
   41.9860   27.0330   34.3370 H   0  0  0  0  0  0  0  0  0  0  0  0
   40.3020   24.1680   33.5190 Cl  0  0  0  0  0  0  0  0  0  0  0  0
   39.5170   25.2830   34.6420 C   0  0  0  0  0  0  0  0  0  0  0  0
   39.4100   26.6780   34.5310 C   0  0  0  0  0  0  0  0  0  0  0  0
   38.7430   27.3310   35.5460 C   0  0  0  0  0  0  0  0  0  0  0  0
   38.7490   28.4070   35.3100 H   0  0  0  0  0  0  0  0  0  0  0  0
   38.2050   26.6680   36.6200 C   0  0  0  0  0  0  0  0  0  0  0  0
   37.7180   27.3210   37.3260 H   0  0  0  0  0  0  0  0  0  0  0  0
   38.3110   25.2990   36.7270 C   0  0  0  0  0  3  0  0  0  0  0  0
   38.9680   24.6010   35.7370 C   0  0  0  0  0  3  0  0  0  0  0  0
   38.0030   27.2040   31.8950 C   0  0  2  0  0  3  0  0  0  0  0  0
   37.3570   28.3080   32.0280 O   0  0  0  0  0  1  0  0  0  0  0  0
   35.1770   25.0630   31.1430 C   0  0  0  0  0  0  0  0  0  0  0  0
   35.7540   23.8000   30.9120 C   0  0  0  0  0  0  0  0  0  0  0  0
   37.1320   23.6830   31.0230 C   0  0  0  0  0  0  0  0  0  0  0  0
   37.8840   24.7850   31.3490 N   0  0  0  0  0  0  0  0  0  0  0  0
   37.2890   25.9650   31.5590 C   0  0  0  0  0  0  0  0  0  0  0  0
   35.9470   26.0950   31.4550 N   0  0  0  0  0  0  0  0  0  0  0  0
   34.1000   25.0760   31.0370 H   0  0  0  0  0  0  0  0  0  0  0  0
   35.2330   22.8930   30.6530 H   0  0  0  0  0  0  0  0  0  0  0  0
   37.7160   22.7760   30.8750 H   0  0  0  0  0  0  0  0  0  0  0  0
  1  6  1  0  0  0  0
  2  3  1  0  0  0  0
  2  1  2  0  0  0  0
  3  4  2  0  0  0  0
  4  9  1  0  0  0  0
  4  5  1  0  0  0  0
  5 10  1  0  0  0  0
  6  5  2  0  0  0  0
  6 13  1  0  0  0  0
  7  2  1  0  0  0  0
  8  3  1  0  0  0  0
 11 12  1  0  0  0  0
 12 19  1  0  0  0  0
 13 12  2  0  0  0  0
 13 14  1  0  0  0  0
 14 16  2  0  0  0  0
 15 14  1  0  0  0  0
 16 18  1  0  0  0  0
 16 17  1  0  0  0  0
 19 18  2  0  0  0  0
 20 21  1  1  0  0  0
 20  1  1  0  0  0  0
 22 27  1  0  0  0  0
 23 24  1  0  0  0  0
 23 22  2  0  0  0  0
 24 25  2  0  0  0  0
 25 26  1  0  0  0  0
 26 20  1  0  0  0  0
 27 26  2  0  0  0  0
 28 22  1  0  0  0  0
 29 23  1  0  0  0  0
 30 24  1  0  0  0  0
M  END
>  <minimizedAffinity>
-5.22809172

$$$$

 OpenBabel03272509393D

 30 32  0  0  1  0  0  0  0  0999 V2000
   38.0360   25.8260   33.6720 C   0  0  0  0  0  0  0  0  0  0  0  0
   37.0210   26.7810   33.4600 C   0  0  0  0  0  0  0  0  0  0  0  0
   36.8040   27.8290   34.3710 C   0  0  0  0  0  0  0  0  0  0  0  0
   37.6230   27.9200   35.5150 C   0  0  0  0  0  0  0  0  0  0  0  0
   38.6180   26.9610   35.6980 C   0  0  0  0  0  0  0  0  0  0  0  0
   38.8120   25.9380   34.7860 C   0  0  0  0  0  0  0  0  0  0  0  0
   36.3880   26.7210   32.5860 H   0  0  0  0  0  0  0  0  0  0  0  0
   36.0180   28.5100   34.1420 H   0  0  0  0  0  0  0  0  0  0  0  0
   37.4300   28.7330   36.1910 H   0  0  0  0  0  0  0  0  0  0  0  0
   39.1850   27.1230   36.6030 H   0  0  0  0  0  0  0  0  0  0  0  0
   41.3180   27.1590   33.9000 Cl  0  0  0  0  0  0  0  0  0  0  0  0
   41.0950   25.6260   34.7500 C   0  0  0  0  0  0  0  0  0  0  0  0
   39.8880   25.0540   35.1810 C   0  0  0  0  0  0  0  0  0  0  0  0
   39.9750   23.8390   35.8270 C   0  0  0  0  0  0  0  0  0  0  0  0
   38.9520   23.5310   36.0980 H   0  0  0  0  0  0  0  0  0  0  0  0
   41.1720   23.2060   36.0480 C   0  0  0  0  0  0  0  0  0  0  0  0
   41.0710   22.2650   36.5650 H   0  0  0  0  0  0  0  0  0  0  0  0
   42.3550   23.7700   35.6230 C   0  0  0  0  0  3  0  0  0  0  0  0
   42.3200   24.9830   34.9720 C   0  0  0  0  0  3  0  0  0  0  0  0
   38.1850   24.7750   32.6860 C   0  0  2  0  0  3  0  0  0  0  0  0
   39.1640   24.9460   31.8700 O   0  0  0  0  0  1  0  0  0  0  0  0
   36.8790   21.4930   33.4990 C   0  0  0  0  0  0  0  0  0  0  0  0
   35.8350   21.2990   32.5750 C   0  0  0  0  0  0  0  0  0  0  0  0
   35.5830   22.3080   31.6550 C   0  0  0  0  0  0  0  0  0  0  0  0
   36.3450   23.4510   31.6740 N   0  0  0  0  0  0  0  0  0  0  0  0
   37.3260   23.5890   32.5730 C   0  0  0  0  0  0  0  0  0  0  0  0
   37.5850   22.6140   33.4750 N   0  0  0  0  0  0  0  0  0  0  0  0
   37.0140   20.6650   34.1820 H   0  0  0  0  0  0  0  0  0  0  0  0
   35.1960   20.4350   32.4990 H   0  0  0  0  0  0  0  0  0  0  0  0
   34.8140   22.3000   30.8850 H   0  0  0  0  0  0  0  0  0  0  0  0
  1  6  1  0  0  0  0
  2  1  2  0  0  0  0
  2  3  1  0  0  0  0
  3  4  2  0  0  0  0
  4  5  1  0  0  0  0
  4  9  1  0  0  0  0
  5 10  1  0  0  0  0
  6 13  1  0  0  0  0
  6  5  2  0  0  0  0
  7  2  1  0  0  0  0
  8  3  1  0  0  0  0
 11 12  1  0  0  0  0
 12 19  2  0  0  0  0
 12 13  1  0  0  0  0
 13 14  2  0  0  0  0
 14 16  1  0  0  0  0
 14 15  1  0  0  0  0
 16 17  1  0  0  0  0
 18 16  2  0  0  0  0
 19 18  1  0  0  0  0
 20 21  1  6  0  0  0
 20  1  1  0  0  0  0
 22 28  1  0  0  0  0
 23 22  2  0  0  0  0
 24 25  2  0  0  0  0
 24 23  1  0  0  0  0
 25 26  1  0  0  0  0
 26 20  1  0  0  0  0
 26 27  2  0  0  0  0
 27 22  1  0  0  0  0
 29 23  1  0  0  0  0
 30 24  1  0  0  0  0
M  END
>  <minimizedAffinity>
-5.22635746

$$$$

 OpenBabel03272509393D

 30 32  0  0  1  0  0  0  0  0999 V2000
   38.2910   23.4040   35.3700 C   0  0  0  0  0  0  0  0  0  0  0  0
   38.3170   22.7130   36.5990 C   0  0  0  0  0  0  0  0  0  0  0  0
   38.2240   23.4000   37.8220 C   0  0  0  0  0  0  0  0  0  0  0  0
   38.1020   24.8040   37.8100 C   0  0  0  0  0  0  0  0  0  0  0  0
   38.0770   25.4590   36.5790 C   0  0  0  0  0  0  0  0  0  0  0  0
   38.1710   24.7600   35.3870 C   0  0  0  0  0  0  0  0  0  0  0  0
   38.4120   21.6370   36.6190 H   0  0  0  0  0  0  0  0  0  0  0  0
   38.2530   22.8090   38.7080 H   0  0  0  0  0  0  0  0  0  0  0  0
   38.0330   25.2970   38.7620 H   0  0  0  0  0  0  0  0  0  0  0  0
   37.9810   26.5290   36.6830 H   0  0  0  0  0  0  0  0  0  0  0  0
   40.9240   25.5790   34.8320 Cl  0  0  0  0  0  0  0  0  0  0  0  0
   39.4540   26.0460   33.9700 C   0  0  0  0  0  0  0  0  0  0  0  0
   38.1380   25.6390   34.2380 C   0  0  0  0  0  0  0  0  0  0  0  0
   37.1540   26.1470   33.4170 C   0  0  0  0  0  0  0  0  0  0  0  0
   36.1900   25.7340   33.7560 H   0  0  0  0  0  0  0  0  0  0  0  0
   37.4270   27.0080   32.3840 C   0  0  0  0  0  0  0  0  0  0  0  0
   36.5500   27.3140   31.8370 H   0  0  0  0  0  0  0  0  0  0  0  0
   38.7200   27.4070   32.1240 C   0  0  0  0  0  3  0  0  0  0  0  0
   39.7380   26.9270   32.9170 C   0  0  0  0  0  3  0  0  0  0  0  0
   38.4000   22.6180   34.1570 C   0  0  1  0  0  3  0  0  0  0  0  0
   39.6050   22.3220   33.8210 O   0  0  0  0  0  1  0  0  0  0  0  0
   35.4840   20.6640   33.2510 C   0  0  0  0  0  0  0  0  0  0  0  0
   35.0990   21.1800   31.9990 C   0  0  0  0  0  0  0  0  0  0  0  0
   35.8580   22.2070   31.4570 C   0  0  0  0  0  0  0  0  0  0  0  0
   36.9450   22.6880   32.1470 N   0  0  0  0  0  0  0  0  0  0  0  0
   37.2700   22.1650   33.3350 C   0  0  0  0  0  0  0  0  0  0  0  0
   36.5410   21.1620   33.8760 N   0  0  0  0  0  0  0  0  0  0  0  0
   34.8460   19.8670   33.6080 H   0  0  0  0  0  0  0  0  0  0  0  0
   34.2640   20.8570   31.4000 H   0  0  0  0  0  0  0  0  0  0  0  0
   35.6840   22.7030   30.5030 H   0  0  0  0  0  0  0  0  0  0  0  0
  1  6  2  0  0  0  0
  1  2  1  0  0  0  0
  2  7  1  0  0  0  0
  2  3  2  0  0  0  0
  3  8  1  0  0  0  0
  4  3  1  0  0  0  0
  4  9  1  0  0  0  0
  5 10  1  0  0  0  0
  5  4  2  0  0  0  0
  6  5  1  0  0  0  0
 12 13  1  0  0  0  0
 12 11  1  0  0  0  0
 13  6  1  0  0  0  0
 14 15  1  0  0  0  0
 14 13  2  0  0  0  0
 16 14  1  0  0  0  0
 17 16  1  0  0  0  0
 18 16  2  0  0  0  0
 18 19  1  0  0  0  0
 19 12  2  0  0  0  0
 20 21  1  1  0  0  0
 20  1  1  0  0  0  0
 22 28  1  0  0  0  0
 22 27  1  0  0  0  0
 23 22  2  0  0  0  0
 24 23  1  0  0  0  0
 24 25  2  0  0  0  0
 25 26  1  0  0  0  0
 26 27  2  0  0  0  0
 26 20  1  0  0  0  0
 29 23  1  0  0  0  0
 30 24  1  0  0  0  0
M  END
>  <minimizedAffinity>
-5.21822882

$$$$

 OpenBabel03272509393D

 30 32  0  0  1  0  0  0  0  0999 V2000
   37.7310   22.8000   33.2120 C   0  0  0  0  0  0  0  0  0  0  0  0
   37.3170   21.4540   33.1520 C   0  0  0  0  0  0  0  0  0  0  0  0
   36.2310   21.0610   32.3490 C   0  0  0  0  0  0  0  0  0  0  0  0
   35.5520   22.0390   31.5930 C   0  0  0  0  0  0  0  0  0  0  0  0
   35.9860   23.3610   31.6720 C   0  0  0  0  0  0  0  0  0  0  0  0
   37.0580   23.7230   32.4710 C   0  0  0  0  0  0  0  0  0  0  0  0
   37.8300   20.6980   33.7280 H   0  0  0  0  0  0  0  0  0  0  0  0
   35.9770   20.0270   32.3570 H   0  0  0  0  0  0  0  0  0  0  0  0
   34.7270   21.7040   30.9900 H   0  0  0  0  0  0  0  0  0  0  0  0
   35.3980   24.0250   31.0560 H   0  0  0  0  0  0  0  0  0  0  0  0
   38.6530   24.2140   30.0680 Cl  0  0  0  0  0  0  0  0  0  0  0  0
   38.0990   25.3880   31.2670 C   0  0  0  0  0  0  0  0  0  0  0  0
   37.3250   25.1450   32.4110 C   0  0  0  0  0  0  0  0  0  0  0  0
   37.0210   26.2360   33.1970 C   0  0  0  0  0  0  0  0  0  0  0  0
   36.4130   25.8780   34.0440 H   0  0  0  0  0  0  0  0  0  0  0  0
   37.4440   27.5040   32.8920 C   0  0  0  0  0  0  0  0  0  0  0  0
   37.1230   28.2470   33.6050 H   0  0  0  0  0  0  0  0  0  0  0  0
   38.2050   27.7410   31.7680 C   0  0  0  0  0  3  0  0  0  0  0  0
   38.5360   26.6830   30.9510 C   0  0  0  0  0  3  0  0  0  0  0  0
   38.8540   23.1180   34.0700 C   0  0  2  0  0  3  0  0  0  0  0  0
   39.9660   23.2940   33.4490 O   0  0  0  0  0  1  0  0  0  0  0  0
   39.8980   22.6880   37.5150 C   0  0  0  0  0  0  0  0  0  0  0  0
   38.9160   23.3690   38.2600 C   0  0  0  0  0  0  0  0  0  0  0  0
   37.8780   23.9770   37.5680 C   0  0  0  0  0  0  0  0  0  0  0  0
   37.8390   23.9010   36.1970 N   0  0  0  0  0  0  0  0  0  0  0  0
   38.7960   23.2430   35.5330 C   0  0  0  0  0  0  0  0  0  0  0  0
   39.8140   22.6440   36.1930 N   0  0  0  0  0  0  0  0  0  0  0  0
   40.6730   22.2410   38.1230 H   0  0  0  0  0  0  0  0  0  0  0  0
   38.8790   23.4720   39.3320 H   0  0  0  0  0  0  0  0  0  0  0  0
   37.0530   24.5350   38.0050 H   0  0  0  0  0  0  0  0  0  0  0  0
  1 20  1  0  0  0  0
  2  1  1  0  0  0  0
  2  7  1  0  0  0  0
  3  8  1  0  0  0  0
  3  2  2  0  0  0  0
  4  5  2  0  0  0  0
  4  3  1  0  0  0  0
  5  6  1  0  0  0  0
  6  1  2  0  0  0  0
  9  4  1  0  0  0  0
 10  5  1  0  0  0  0
 11 12  1  0  0  0  0
 12 13  1  0  0  0  0
 13  6  1  0  0  0  0
 13 14  2  0  0  0  0
 14 15  1  0  0  0  0
 16 14  1  0  0  0  0
 16 17  1  0  0  0  0
 18 16  2  0  0  0  0
 19 12  2  0  0  0  0
 19 18  1  0  0  0  0
 20 21  1  1  0  0  0
 20 26  1  0  0  0  0
 22 28  1  0  0  0  0
 22 23  1  0  0  0  0
 23 29  1  0  0  0  0
 24 30  1  0  0  0  0
 24 23  2  0  0  0  0
 25 24  1  0  0  0  0
 26 27  1  0  0  0  0
 26 25  2  0  0  0  0
 27 22  2  0  0  0  0
M  END
>  <minimizedAffinity>
-5.21458864

$$$$
