
 OpenBabel03272503563D

 34 37  0  0  0  0  0  0  0  0999 V2000
   37.2490   29.7410   50.2350 C   0  0  0  0  0  0  0  0  0  0  0  0
   38.1740   30.4180   49.4150 C   0  0  0  0  0  0  0  0  0  0  0  0
   37.7640   30.6350   48.1250 C   0  0  0  0  0  0  0  0  0  0  0  0
   36.5700   30.2010   47.7790 N   0  0  0  0  0  0  0  0  0  0  0  0
   35.6790   29.5710   48.4920 C   0  0  0  0  0  0  0  0  0  0  0  0
   36.0810   29.3650   49.7380 N   0  0  0  0  0  0  0  0  0  0  0  0
   39.0620   30.6590   49.9330 H   0  0  0  0  0  0  0  0  0  0  0  0
   34.3460   29.0440   48.2410 C   0  0  0  0  0  0  0  0  0  0  0  0
   33.6650   28.2910   49.1460 N   0  0  0  0  0  0  0  0  0  0  0  0
   32.4410   27.8240   48.9060 C   0  0  0  0  0  0  0  0  0  0  0  0
   31.7660   28.0440   47.7680 N   0  0  0  0  0  0  0  0  0  0  0  0
   32.3760   28.7770   46.8340 C   0  0  0  0  0  0  0  0  0  0  0  0
   31.6990   29.0150   45.6590 C   0  0  0  0  0  0  0  0  0  0  0  0
   32.2850   29.7720   44.6520 C   0  0  0  0  0  0  0  0  0  0  0  0
   33.5520   30.2560   44.8930 C   0  0  0  0  0  0  0  0  0  0  0  0
   34.1930   29.9960   46.0780 C   0  0  0  0  0  0  0  0  0  0  0  0
   33.6480   29.2610   47.0870 C   0  0  0  0  0  0  0  0  0  0  0  0
   32.0130   27.2310   49.7220 H   0  0  0  0  0  0  0  0  0  0  0  0
   30.6930   28.6020   45.5280 H   0  0  0  0  0  0  0  0  0  0  0  0
   31.7530   29.9550   43.7380 H   0  0  0  0  0  0  0  0  0  0  0  0
   33.9650   30.8370   44.0800 H   0  0  0  0  0  0  0  0  0  0  0  0
   35.1590   30.4060   46.1230 H   0  0  0  0  0  0  0  0  0  0  0  0
   38.5200   33.5590   48.8620 Cl  0  0  0  0  0  0  0  0  0  0  0  0
   39.1000   32.6600   47.4810 C   0  0  0  0  0  0  0  0  0  0  0  0
   38.6740   31.3640   47.2890 C   0  0  0  0  0  0  0  0  0  0  0  0
   39.2500   30.7910   46.1740 C   0  0  0  0  0  0  0  0  0  0  0  0
   39.0500   29.7860   45.8440 H   0  0  0  0  0  0  0  0  0  0  0  0
   40.1410   31.4370   45.3550 C   0  0  0  0  0  0  0  0  0  0  0  0
   40.5930   30.9730   44.4710 H   0  0  0  0  0  0  0  0  0  0  0  0
   40.5310   32.7300   45.5930 C   0  0  0  0  0  0  0  0  0  0  0  0
   39.9910   33.3510   46.6890 C   0  0  0  0  0  0  0  0  0  0  0  0
   37.5270   29.4600   51.6430 N   0  0  0  0  0  0  0  0  0  0  0  0
   37.9320   28.5030   51.6620 H   0  0  0  0  0  0  0  0  0  0  0  0
   37.2690   30.2420   52.2850 H   0  0  0  0  0  0  0  0  0  0  0  0
  1 32  1  0  0  0  0
  2  7  1  0  0  0  0
  2  1  2  0  0  0  0
  3  2  1  0  0  0  0
  4  3  2  0  0  0  0
  4  5  1  0  0  0  0
  5  6  2  0  0  0  0
  6  1  1  0  0  0  0
  8  5  1  0  0  0  0
  8  9  1  0  0  0  0
 10  9  2  0  0  0  0
 10 18  1  0  0  0  0
 11 10  1  0  0  0  0
 12 17  1  0  0  0  0
 12 11  2  0  0  0  0
 13 12  1  0  0  0  0
 14 15  1  0  0  0  0
 14 13  2  0  0  0  0
 15 16  2  0  0  0  0
 16 22  1  0  0  0  0
 16 17  1  0  0  0  0
 17  8  2  0  0  0  0
 19 13  1  0  0  0  0
 20 14  1  0  0  0  0
 21 15  1  0  0  0  0
 24 23  1  0  0  0  0
 25 24  1  0  0  0  0
 25  3  1  0  0  0  0
 26 25  2  0  0  0  0
 27 26  1  0  0  0  0
 28 30  2  0  0  0  0
 28 26  1  0  0  0  0
 29 28  1  0  0  0  0
 30 31  1  0  0  0  0
 31 24  2  0  0  0  0
 32 33  1  0  0  0  0
 32 34  1  0  0  0  0
M  END
>  <minimizedAffinity>
-7.18290377

>  <minimizedRMSD>
1.56818771

$$$$
