
 OpenBabel03272510203D

 36 39  0  0  0  0  0  0  0  0999 V2000
   37.3020   29.2990   51.0080 Br  0  0  0  0  0  0  0  0  0  0  0  0
   35.9510   29.3280   49.6720 C   0  0  0  0  0  0  0  0  0  0  0  0
   35.9790   30.2760   48.6530 C   0  0  0  0  0  0  0  0  0  0  0  0
   34.9670   30.2340   47.7230 C   0  0  0  0  0  0  0  0  0  0  0  0
   33.9430   29.3190   47.7450 C   0  0  0  0  0  0  0  0  0  0  0  0
   33.9390   28.3950   48.7610 C   0  0  0  0  0  0  0  0  0  0  0  0
   34.9410   28.4090   49.7110 C   0  0  0  0  0  0  0  0  0  0  0  0
   35.0000   30.9720   46.9410 H   0  0  0  0  0  0  0  0  0  0  0  0
   33.1430   27.6550   48.8080 H   0  0  0  0  0  0  0  0  0  0  0  0
   34.8730   27.6460   50.4860 H   0  0  0  0  0  0  0  0  0  0  0  0
   37.9900   33.1940   49.5010 C   0  0  0  0  0  0  0  0  0  0  0  0
   39.0240   33.1790   48.5220 C   0  0  0  0  0  0  0  0  0  0  0  0
   39.0030   32.1560   47.5850 C   0  0  0  0  0  0  0  0  0  0  0  0
   38.0070   31.2330   47.6540 N   0  0  0  0  0  0  0  0  0  0  0  0
   37.0420   31.2670   48.5860 C   0  0  0  0  0  0  0  0  0  0  0  0
   37.0360   32.2550   49.5150 N   0  0  0  0  0  0  0  0  0  0  0  0
   37.9970   33.9850   50.2340 H   0  0  0  0  0  0  0  0  0  0  0  0
   39.7770   33.9510   48.5420 H   0  0  0  0  0  0  0  0  0  0  0  0
   39.7730   32.1090   46.8230 H   0  0  0  0  0  0  0  0  0  0  0  0
   32.8710   29.2740   46.7600 C   0  0  0  0  0  0  0  0  0  0  0  0
   32.0160   28.2050   46.5770 C   0  0  0  0  0  0  0  0  0  0  0  0
   31.0090   28.2170   45.6220 C   0  0  0  0  0  0  0  0  0  0  0  0
   30.8510   29.3000   44.8390 N   0  0  0  0  0  0  0  0  0  0  0  0
   31.6850   30.3430   45.0160 C   0  0  0  0  0  0  0  0  0  0  0  0
   32.6440   30.3180   45.9350 N   0  0  0  0  0  0  0  0  0  0  0  0
   32.1510   27.3370   47.2120 H   0  0  0  0  0  0  0  0  0  0  0  0
   30.3980   27.3180   45.5700 H   0  0  0  0  0  0  0  0  0  0  0  0
   33.9590   31.0450   43.1010 Cl  0  0  0  0  0  0  0  0  0  0  0  0
   32.4530   31.9210   43.2520 C   0  0  0  0  0  0  0  0  0  0  0  0
   31.4960   31.5080   44.1550 C   0  0  0  0  0  0  0  0  0  0  0  0
   30.3040   32.2290   44.2530 C   0  0  0  0  0  0  0  0  0  0  0  0
   29.5190   31.9620   44.9350 H   0  0  0  0  0  0  0  0  0  0  0  0
   30.1740   33.3240   43.4160 C   0  0  0  0  0  0  0  0  0  0  0  0
   29.2560   33.9080   43.4670 H   0  0  0  0  0  0  0  0  0  0  0  0
   31.1300   33.7380   42.5110 C   0  0  0  0  0  3  0  0  0  0  0  0
   32.3210   33.0130   42.4190 C   0  0  0  0  0  3  0  0  0  0  0  0
  2  7  1  0  0  0  0
  2  1  1  0  0  0  0
  3  2  2  0  0  0  0
  4  5  2  0  0  0  0
  4  3  1  0  0  0  0
  5  6  1  0  0  0  0
  6  9  1  0  0  0  0
  6  7  2  0  0  0  0
  7 10  1  0  0  0  0
  8  4  1  0  0  0  0
 11 16  1  0  0  0  0
 11 17  1  0  0  0  0
 12 18  1  0  0  0  0
 12 11  2  0  0  0  0
 13 14  2  0  0  0  0
 13 12  1  0  0  0  0
 14 15  1  0  0  0  0
 15  3  1  0  0  0  0
 15 16  2  0  0  0  0
 19 13  1  0  0  0  0
 20  5  1  0  0  0  0
 21 20  1  0  0  0  0
 21 26  1  0  0  0  0
 22 21  2  0  0  0  0
 23 24  2  0  0  0  0
 23 22  1  0  0  0  0
 24 25  1  0  0  0  0
 25 20  2  0  0  0  0
 27 22  1  0  0  0  0
 28 29  1  0  0  0  0
 29 30  1  0  0  0  0
 30 31  2  0  0  0  0
 30 24  1  0  0  0  0
 31 32  1  0  0  0  0
 33 34  1  0  0  0  0
 33 31  1  0  0  0  0
 35 33  2  0  0  0  0
 36 35  1  0  0  0  0
 36 29  2  0  0  0  0
M  END
>  <minimizedAffinity>
-6.45062208

>  <minimizedRMSD>
0.881009877

$$$$
