
 OpenBabel03272509503D

 33 35  0  0  0  0  0  0  0  0999 V2000
   37.3000   30.1490   51.5630 C   0  0  0  0  0  0  0  0  0  0  0  0
   38.0290   30.8390   50.5900 C   0  0  0  0  0  0  0  0  0  0  0  0
   37.7130   30.6730   49.2640 C   0  0  0  0  0  0  0  0  0  0  0  0
   36.6780   29.8170   49.0230 N   0  0  0  0  0  0  0  0  0  0  0  0
   35.9840   29.1600   49.9410 C   0  0  0  0  0  0  0  0  0  0  0  0
   36.3060   29.3340   51.2290 N   0  0  0  0  0  0  0  0  0  0  0  0
   37.5910   30.3160   52.6020 H   0  0  0  0  0  0  0  0  0  0  0  0
   38.8170   31.4680   50.8680 H   0  0  0  0  0  0  0  0  0  0  0  0
   38.9320   33.5800   49.3090 Cl  0  0  0  0  0  0  0  0  0  0  0  0
   38.9080   32.4990   47.9540 C   0  0  0  0  0  0  0  0  0  0  0  0
   38.3360   31.2700   48.0990 C   0  0  0  0  0  0  0  0  0  0  0  0
   38.3690   30.5340   46.9370 C   0  0  0  0  0  0  0  0  0  0  0  0
   37.9550   29.5170   46.8630 H   0  0  0  0  0  0  0  0  0  0  0  0
   38.9150   30.9770   45.7580 C   0  0  0  0  0  0  0  0  0  0  0  0
   38.9230   30.3740   44.8720 H   0  0  0  0  0  0  0  0  0  0  0  0
   39.4790   32.2280   45.6700 C   0  0  0  0  0  3  0  0  0  0  0  0
   39.4700   33.0020   46.8050 C   0  0  0  0  0  3  0  0  0  0  0  0
   34.9960   28.3640   49.4210 O   0  0  0  0  0  0  0  0  0  0  0  0
   34.4260   28.6970   48.1670 C   0  0  0  0  0  0  0  0  0  0  0  0
   33.8790   29.6570   48.2420 H   0  0  0  0  0  0  0  0  0  0  0  0
   35.2970   28.8010   47.4700 H   0  0  0  0  0  0  0  0  0  0  0  0
   33.5740   27.5980   47.6330 C   0  0  0  0  0  0  0  0  0  0  0  0
   33.7590   27.3760   46.5620 H   0  0  0  0  0  0  0  0  0  0  0  0
   33.7770   26.6400   48.1720 H   0  0  0  0  0  0  0  0  0  0  0  0
   32.1110   27.8880   47.7530 C   0  0  0  0  0  0  0  0  0  0  0  0
   31.4880   27.5290   48.9430 C   0  0  0  0  0  0  0  0  0  0  0  0
   30.1480   27.7580   49.1480 C   0  0  0  0  0  0  0  0  0  0  0  0
   29.4210   28.3350   48.1920 N   0  0  0  0  0  0  0  0  0  0  0  0
   30.0490   28.6830   47.0290 C   0  0  0  0  0  0  0  0  0  0  0  0
   31.3470   28.4790   46.7900 N   0  0  0  0  0  0  0  0  0  0  0  0
   32.0730   27.0560   49.7310 H   0  0  0  0  0  0  0  0  0  0  0  0
   29.6570   27.4800   50.0710 H   0  0  0  0  0  0  0  0  0  0  0  0
   29.5510   29.1610   46.1800 H   0  0  0  0  0  0  0  0  0  0  0  0
  1  7  1  0  0  0  0
  2  8  1  0  0  0  0
  2  1  2  0  0  0  0
  3  2  1  0  0  0  0
  4  3  2  0  0  0  0
  4  5  1  0  0  0  0
  5  6  2  0  0  0  0
  6  1  1  0  0  0  0
 10 11  1  0  0  0  0
 10  9  1  0  0  0  0
 11  3  1  0  0  0  0
 12 11  2  0  0  0  0
 13 12  1  0  0  0  0
 14 12  1  0  0  0  0
 15 14  1  0  0  0  0
 16 14  2  0  0  0  0
 16 17  1  0  0  0  0
 17 10  2  0  0  0  0
 18  5  1  0  0  0  0
 19 20  1  0  0  0  0
 19 18  1  0  0  0  0
 21 19  1  0  0  0  0
 22 25  1  0  0  0  0
 22 19  1  0  0  0  0
 22 24  1  0  0  0  0
 23 22  1  0  0  0  0
 25 26  1  0  0  0  0
 26 27  2  0  0  0  0
 26 31  1  0  0  0  0
 27 32  1  0  0  0  0
 28 27  1  0  0  0  0
 29 28  2  0  0  0  0
 30 29  1  0  0  0  0
 30 25  2  0  0  0  0
 33 29  1  0  0  0  0
M  END
>  <minimizedAffinity>
-6.33250904

>  <minimizedRMSD>
1.00363028

$$$$
