
 OpenBabel03272509213D

 46 50  0  0  0  0  0  0  0  0999 V2000
   37.9740   31.3650   48.1350 C   0  0  0  0  0  0  0  0  0  0  0  0
   37.2090   31.6310   49.2530 C   0  0  0  0  0  0  0  0  0  0  0  0
   37.4900   32.8520   49.8640 C   0  0  0  0  0  0  0  0  0  0  0  0
   38.4680   33.7210   49.3720 C   0  0  0  0  0  0  0  0  0  0  0  0
   39.1980   33.3540   48.2180 C   0  0  0  0  0  0  0  0  0  0  0  0
   38.9300   32.1390   47.5950 C   0  0  0  0  0  0  0  0  0  0  0  0
   36.9100   33.1000   50.7490 H   0  0  0  0  0  0  0  0  0  0  0  0
   38.6710   34.6690   49.8640 H   0  0  0  0  0  0  0  0  0  0  0  0
   39.9440   34.0580   47.8730 H   0  0  0  0  0  0  0  0  0  0  0  0
   34.9700   30.6550   49.1230 C   0  0  0  0  0  0  0  0  0  0  0  0
   36.2090   30.7500   49.7620 C   0  0  0  0  0  0  0  0  0  0  0  0
   36.4040   29.9530   50.8970 C   0  0  0  0  0  0  0  0  0  0  0  0
   35.4130   29.1430   51.3200 N   0  0  0  0  0  0  0  0  0  0  0  0
   34.2160   29.0890   50.6540 C   0  0  0  0  0  0  0  0  0  0  0  0
   34.0050   29.8340   49.5770 N   0  0  0  0  0  0  0  0  0  0  0  0
   34.7850   31.2560   48.2430 H   0  0  0  0  0  0  0  0  0  0  0  0
   33.4450   28.4240   51.0290 H   0  0  0  0  0  0  0  0  0  0  0  0
   37.7140   30.0190   51.6150 C   0  0  0  0  0  0  0  0  0  0  0  0
   37.6560   29.3890   52.5070 H   0  0  0  0  0  0  0  0  0  0  0  0
   37.9750   31.0650   51.8650 H   0  0  0  0  0  0  0  0  0  0  0  0
   38.4520   29.5350   50.9400 H   0  0  0  0  0  0  0  0  0  0  0  0
   37.7680   30.1630   47.4490 O   0  0  0  0  0  0  0  0  0  0  0  0
   37.1180   30.1020   46.6750 H   0  0  0  0  0  0  0  0  0  0  0  0
   39.6810   31.8550   46.4790 O   0  0  0  0  0  0  0  0  0  0  0  0
   39.4570   30.3630   44.4940 C   0  0  0  0  0  0  0  0  0  0  0  0
   39.2050   31.4960   45.2430 C   0  0  0  0  0  0  0  0  0  0  0  0
   38.3490   32.4640   44.7270 C   0  0  0  0  0  0  0  0  0  0  0  0
   37.7510   32.2950   43.4750 C   0  0  0  0  0  0  0  0  0  0  0  0
   36.9020   33.0270   42.7230 N   0  0  0  0  0  0  0  0  0  0  0  0
   36.6420   32.3780   41.5680 C   0  0  0  0  0  0  0  0  0  0  0  0
   37.3470   31.2130   41.6010 N   0  0  0  0  0  0  0  0  0  0  0  0
   38.0280   31.1550   42.7620 C   0  0  0  0  0  0  0  0  0  0  0  0
   38.8750   30.1910   43.2640 C   0  0  0  0  0  0  0  0  0  0  0  0
   40.1270   29.6760   44.9700 H   0  0  0  0  0  0  0  0  0  0  0  0
   38.0670   33.3920   45.2060 H   0  0  0  0  0  0  0  0  0  0  0  0
   36.5100   33.9370   42.9830 H   0  0  0  0  0  0  0  0  0  0  0  0
   35.9950   32.7110   40.7580 H   0  0  0  0  0  0  0  0  0  0  0  0
   40.9120   30.7080   41.2030 Cl  0  0  0  0  0  0  0  0  0  0  0  0
   40.1240   29.1790   41.5330 C   0  0  0  0  0  0  0  0  0  0  0  0
   39.1720   28.9780   42.5110 C   0  0  0  0  0  0  0  0  0  0  0  0
   38.6070   27.7210   42.6910 C   0  0  0  0  0  0  0  0  0  0  0  0
   37.8760   27.6600   43.4750 H   0  0  0  0  0  0  0  0  0  0  0  0
   39.0310   26.7010   41.8650 C   0  0  0  0  0  0  0  0  0  0  0  0
   38.5370   25.7490   42.0740 H   0  0  0  0  0  0  0  0  0  0  0  0
   39.9830   26.8860   40.8830 C   0  0  0  0  0  3  0  0  0  0  0  0
   40.5370   28.1470   40.7140 C   0  0  0  0  0  3  0  0  0  0  0  0
  1  2  1  0  0  0  0
  2 11  1  0  0  0  0
  2  3  2  0  0  0  0
  3  7  1  0  0  0  0
  4  8  1  0  0  0  0
  4  3  1  0  0  0  0
  5  4  2  0  0  0  0
  6  1  2  0  0  0  0
  6  5  1  0  0  0  0
  9  5  1  0  0  0  0
 10 15  2  0  0  0  0
 10 11  1  0  0  0  0
 11 12  2  0  0  0  0
 12 13  1  0  0  0  0
 12 18  1  0  0  0  0
 14 17  1  0  0  0  0
 14 13  2  0  0  0  0
 15 14  1  0  0  0  0
 16 10  1  0  0  0  0
 18 20  1  0  0  0  0
 18 19  1  0  0  0  0
 21 18  1  0  0  0  0
 22  1  1  0  0  0  0
 23 22  1  0  0  0  0
 24  6  1  0  0  0  0
 25 34  1  0  0  0  0
 25 26  1  0  0  0  0
 26 24  1  0  0  0  0
 27 35  1  0  0  0  0
 27 26  2  0  0  0  0
 28 27  1  0  0  0  0
 29 36  1  0  0  0  0
 29 28  1  0  0  0  0
 30 31  2  0  0  0  0
 30 29  1  0  0  0  0
 31 32  1  0  0  0  0
 32 33  1  0  0  0  0
 32 28  2  0  0  0  0
 33 25  2  0  0  0  0
 37 30  1  0  0  0  0
 38 39  1  0  0  0  0
 39 40  1  0  0  0  0
 40 41  2  0  0  0  0
 40 33  1  0  0  0  0
 41 42  1  0  0  0  0
 43 44  1  0  0  0  0
 43 41  1  0  0  0  0
 45 43  2  0  0  0  0
 46 45  1  0  0  0  0
 46 39  2  0  0  0  0
M  END
>  <minimizedAffinity>
-7.33387947

>  <minimizedRMSD>
1.61620796

$$$$
