
 OpenBabel03272509223D

 46 50  0  0  0  0  0  0  0  0999 V2000
   38.1300   31.3950   47.9090 C   0  0  0  0  0  0  0  0  0  0  0  0
   37.2730   31.5840   48.9750 C   0  0  0  0  0  0  0  0  0  0  0  0
   37.4700   32.7810   49.6640 C   0  0  0  0  0  0  0  0  0  0  0  0
   38.4560   33.6990   49.2920 C   0  0  0  0  0  0  0  0  0  0  0  0
   39.2830   33.4090   48.1820 C   0  0  0  0  0  0  0  0  0  0  0  0
   39.1010   32.2210   47.4830 C   0  0  0  0  0  0  0  0  0  0  0  0
   36.8160   32.9680   50.5110 H   0  0  0  0  0  0  0  0  0  0  0  0
   38.5920   34.6270   49.8430 H   0  0  0  0  0  0  0  0  0  0  0  0
   40.0320   34.1490   47.9310 H   0  0  0  0  0  0  0  0  0  0  0  0
   35.1600   30.4360   48.5330 C   0  0  0  0  0  0  0  0  0  0  0  0
   36.2650   30.6530   49.3610 C   0  0  0  0  0  0  0  0  0  0  0  0
   36.3200   29.9240   50.5560 C   0  0  0  0  0  0  0  0  0  0  0  0
   35.3290   29.0610   50.8550 N   0  0  0  0  0  0  0  0  0  0  0  0
   34.2680   28.8860   50.0050 C   0  0  0  0  0  0  0  0  0  0  0  0
   34.1920   29.5640   48.8680 N   0  0  0  0  0  0  0  0  0  0  0  0
   35.0850   30.9810   47.6030 H   0  0  0  0  0  0  0  0  0  0  0  0
   33.4920   28.1810   50.2850 H   0  0  0  0  0  0  0  0  0  0  0  0
   37.4820   30.1220   51.4750 C   0  0  0  0  0  0  0  0  0  0  0  0
   37.3180   29.5300   52.3790 H   0  0  0  0  0  0  0  0  0  0  0  0
   37.6260   31.1950   51.7050 H   0  0  0  0  0  0  0  0  0  0  0  0
   38.3550   29.6670   50.9590 H   0  0  0  0  0  0  0  0  0  0  0  0
   38.0140   30.2240   47.1520 O   0  0  0  0  0  0  0  0  0  0  0  0
   37.4280   30.1850   46.3280 H   0  0  0  0  0  0  0  0  0  0  0  0
   39.9440   32.0130   46.4170 O   0  0  0  0  0  0  0  0  0  0  0  0
   40.0550   30.8220   44.2290 C   0  0  0  0  0  0  0  0  0  0  0  0
   39.5750   31.7630   45.1190 C   0  0  0  0  0  0  0  0  0  0  0  0
   38.5640   32.6240   44.7040 C   0  0  0  0  0  0  0  0  0  0  0  0
   38.0400   32.5400   43.4110 C   0  0  0  0  0  0  0  0  0  0  0  0
   37.0860   33.2080   42.7290 N   0  0  0  0  0  0  0  0  0  0  0  0
   36.9820   32.7040   41.4810 C   0  0  0  0  0  0  0  0  0  0  0  0
   37.8930   31.6970   41.3820 N   0  0  0  0  0  0  0  0  0  0  0  0
   38.5450   31.5900   42.5570 C   0  0  0  0  0  0  0  0  0  0  0  0
   39.5460   30.7330   42.9580 C   0  0  0  0  0  0  0  0  0  0  0  0
   40.8310   30.2060   44.6360 H   0  0  0  0  0  0  0  0  0  0  0  0
   38.1000   33.4020   45.2960 H   0  0  0  0  0  0  0  0  0  0  0  0
   36.5230   33.9810   43.0960 H   0  0  0  0  0  0  0  0  0  0  0  0
   36.3030   33.0320   40.6940 H   0  0  0  0  0  0  0  0  0  0  0  0
   37.9340   28.2720   43.0570 Cl  0  0  0  0  0  0  0  0  0  0  0  0
   39.3550   28.5520   42.0720 C   0  0  0  0  0  0  0  0  0  0  0  0
   40.0850   29.7230   42.0560 C   0  0  0  0  0  0  0  0  0  0  0  0
   41.2000   29.8420   41.2350 C   0  0  0  0  0  0  0  0  0  0  0  0
   41.7040   30.7890   41.2890 H   0  0  0  0  0  0  0  0  0  0  0  0
   41.5410   28.7590   40.4530 C   0  0  0  0  0  0  0  0  0  0  0  0
   42.4290   28.9380   39.8400 H   0  0  0  0  0  0  0  0  0  0  0  0
   40.8230   27.5810   40.4590 C   0  0  0  0  0  3  0  0  0  0  0  0
   39.7110   27.4770   41.2820 C   0  0  0  0  0  3  0  0  0  0  0  0
  1  2  1  0  0  0  0
  2 11  1  0  0  0  0
  2  3  2  0  0  0  0
  3  7  1  0  0  0  0
  4  3  1  0  0  0  0
  4  8  1  0  0  0  0
  5  4  2  0  0  0  0
  6  1  2  0  0  0  0
  6  5  1  0  0  0  0
  9  5  1  0  0  0  0
 10 15  2  0  0  0  0
 10 11  1  0  0  0  0
 11 12  2  0  0  0  0
 12 13  1  0  0  0  0
 12 18  1  0  0  0  0
 14 17  1  0  0  0  0
 14 13  2  0  0  0  0
 15 14  1  0  0  0  0
 16 10  1  0  0  0  0
 18 20  1  0  0  0  0
 18 19  1  0  0  0  0
 21 18  1  0  0  0  0
 22  1  1  0  0  0  0
 23 22  1  0  0  0  0
 24  6  1  0  0  0  0
 25 34  1  0  0  0  0
 25 26  1  0  0  0  0
 26 24  1  0  0  0  0
 27 26  2  0  0  0  0
 27 35  1  0  0  0  0
 28 27  1  0  0  0  0
 29 36  1  0  0  0  0
 29 28  1  0  0  0  0
 30 29  1  0  0  0  0
 31 30  2  0  0  0  0
 31 32  1  0  0  0  0
 32 33  1  0  0  0  0
 32 28  2  0  0  0  0
 33 25  2  0  0  0  0
 37 30  1  0  0  0  0
 39 38  1  0  0  0  0
 40 39  1  0  0  0  0
 40 33  1  0  0  0  0
 41 42  1  0  0  0  0
 41 40  2  0  0  0  0
 43 45  2  0  0  0  0
 43 41  1  0  0  0  0
 44 43  1  0  0  0  0
 45 46  1  0  0  0  0
 46 39  2  0  0  0  0
M  END
>  <minimizedAffinity>
-7.73131704

>  <minimizedRMSD>
0.906408846

$$$$
