
 OpenBabel03272502543D

 27 29  0  0  0  0  0  0  0  0999 V2000
   36.7230   27.8330   33.5530 C   0  0  0  0  0  0  0  0  0  0  0  0
   36.8200   28.2410   32.2430 C   0  0  0  0  0  0  0  0  0  0  0  0
   36.3170   29.4570   31.8260 C   0  0  0  0  0  0  0  0  0  0  0  0
   35.7180   30.2300   32.7900 C   0  0  0  0  0  0  0  0  0  0  0  0
   35.6040   29.8450   34.1150 C   0  0  0  0  0  0  0  0  0  0  0  0
   36.1220   28.6280   34.4690 N   0  0  0  0  0  0  0  0  0  0  0  0
   37.3120   27.5580   31.5620 H   0  0  0  0  0  0  0  0  0  0  0  0
   36.3890   29.7800   30.8130 H   0  0  0  0  0  0  0  0  0  0  0  0
   35.3230   31.1800   32.4700 H   0  0  0  0  0  0  0  0  0  0  0  0
   37.9320   25.1270   35.6870 C   0  0  0  0  0  0  0  0  0  0  0  0
   38.2680   24.1160   34.7920 C   0  0  0  0  0  0  0  0  0  0  0  0
   38.0720   24.3820   33.4420 C   0  0  0  0  0  0  0  0  0  0  0  0
   37.5680   25.6020   33.0860 N   0  0  0  0  0  0  0  0  0  0  0  0
   37.2560   26.5470   33.9720 C   0  0  0  0  0  0  0  0  0  0  0  0
   37.4410   26.3050   35.2870 N   0  0  0  0  0  0  0  0  0  0  0  0
   38.0840   24.9230   36.7410 H   0  0  0  0  0  0  0  0  0  0  0  0
   38.6670   23.1460   35.0630 H   0  0  0  0  0  0  0  0  0  0  0  0
   38.3070   23.6500   32.6850 H   0  0  0  0  0  0  0  0  0  0  0  0
   32.6940   29.4040   34.4190 Cl  0  0  0  0  0  0  0  0  0  0  0  0
   33.6160   30.5490   35.3700 C   0  0  0  0  0  0  0  0  0  0  0  0
   34.9690   30.6650   35.1360 C   0  0  0  0  0  0  0  0  0  0  0  0
   35.6350   31.5830   35.9170 C   0  0  0  0  0  0  0  0  0  0  0  0
   36.6980   31.7210   35.7820 H   0  0  0  0  0  0  0  0  0  0  0  0
   35.0260   32.3580   36.8840 C   0  0  0  0  0  0  0  0  0  0  0  0
   35.6010   33.0640   37.4680 H   0  0  0  0  0  0  0  0  0  0  0  0
   33.6810   32.2310   37.1030 C   0  0  0  0  0  3  0  0  0  0  0  0
   32.9880   31.3270   36.3450 C   0  0  0  0  0  3  0  0  0  0  0  0
  1 14  1  0  0  0  0
  1  6  1  0  0  0  0
  2  1  2  0  0  0  0
  3  2  1  0  0  0  0
  3  4  2  0  0  0  0
  4  5  1  0  0  0  0
  5  6  2  0  0  0  0
  5 21  1  0  0  0  0
  7  2  1  0  0  0  0
  8  3  1  0  0  0  0
  9  4  1  0  0  0  0
 10 16  1  0  0  0  0
 11 17  1  0  0  0  0
 11 10  2  0  0  0  0
 12 11  1  0  0  0  0
 13 12  2  0  0  0  0
 13 14  1  0  0  0  0
 14 15  2  0  0  0  0
 15 10  1  0  0  0  0
 18 12  1  0  0  0  0
 19 20  1  0  0  0  0
 20 27  1  0  0  0  0
 21 20  2  0  0  0  0
 21 22  1  0  0  0  0
 22 24  2  0  0  0  0
 23 22  1  0  0  0  0
 24 26  1  0  0  0  0
 24 25  1  0  0  0  0
 27 26  2  0  0  0  0
M  END
>  <minimizedAffinity>
-5.44565725

$$$$

 OpenBabel03272502543D

 27 29  0  0  0  0  0  0  0  0999 V2000
   38.4400   25.6110   33.3220 C   0  0  0  0  0  0  0  0  0  0  0  0
   39.0120   26.8610   33.3590 C   0  0  0  0  0  0  0  0  0  0  0  0
   40.1170   27.1270   34.1430 C   0  0  0  0  0  0  0  0  0  0  0  0
   40.6060   26.0760   34.8790 C   0  0  0  0  0  0  0  0  0  0  0  0
   40.0510   24.8080   34.8620 C   0  0  0  0  0  0  0  0  0  0  0  0
   38.9570   24.6060   34.0650 N   0  0  0  0  0  0  0  0  0  0  0  0
   38.5490   27.6200   32.7410 H   0  0  0  0  0  0  0  0  0  0  0  0
   40.5660   28.0930   34.1770 H   0  0  0  0  0  0  0  0  0  0  0  0
   41.4690   26.2780   35.4930 H   0  0  0  0  0  0  0  0  0  0  0  0
   35.5260   26.1700   31.1910 C   0  0  0  0  0  0  0  0  0  0  0  0
   35.0600   24.8880   30.9150 C   0  0  0  0  0  0  0  0  0  0  0  0
   35.7640   23.8290   31.4730 C   0  0  0  0  0  0  0  0  0  0  0  0
   36.8550   24.1110   32.2480 N   0  0  0  0  0  0  0  0  0  0  0  0
   37.2740   25.3520   32.4910 C   0  0  0  0  0  0  0  0  0  0  0  0
   36.6000   26.3930   31.9570 N   0  0  0  0  0  0  0  0  0  0  0  0
   34.9790   26.9980   30.7570 H   0  0  0  0  0  0  0  0  0  0  0  0
   34.1980   24.6550   30.3020 H   0  0  0  0  0  0  0  0  0  0  0  0
   35.4670   22.8050   31.3060 H   0  0  0  0  0  0  0  0  0  0  0  0
   38.4500   24.1210   37.2540 Cl  0  0  0  0  0  0  0  0  0  0  0  0
   39.9110   23.2810   36.7790 C   0  0  0  0  0  0  0  0  0  0  0  0
   40.5710   23.6940   35.6420 C   0  0  0  0  0  0  0  0  0  0  0  0
   41.7130   22.9940   35.3250 C   0  0  0  0  0  0  0  0  0  0  0  0
   42.2750   23.2690   34.4440 H   0  0  0  0  0  0  0  0  0  0  0  0
   42.2020   21.9380   36.0690 C   0  0  0  0  0  0  0  0  0  0  0  0
   43.1060   21.4240   35.7700 H   0  0  0  0  0  0  0  0  0  0  0  0
   41.5350   21.5410   37.1960 C   0  0  0  0  0  3  0  0  0  0  0  0
   40.3940   22.2160   37.5410 C   0  0  0  0  0  3  0  0  0  0  0  0
  1  2  2  0  0  0  0
  1  6  1  0  0  0  0
  2  3  1  0  0  0  0
  3  8  1  0  0  0  0
  3  4  2  0  0  0  0
  4  9  1  0  0  0  0
  5  4  1  0  0  0  0
  5 21  1  0  0  0  0
  6  5  2  0  0  0  0
  7  2  1  0  0  0  0
 10 15  1  0  0  0  0
 11 10  2  0  0  0  0
 11 12  1  0  0  0  0
 12 13  2  0  0  0  0
 13 14  1  0  0  0  0
 14  1  1  0  0  0  0
 15 14  2  0  0  0  0
 16 10  1  0  0  0  0
 17 11  1  0  0  0  0
 18 12  1  0  0  0  0
 20 19  1  0  0  0  0
 20 27  1  0  0  0  0
 21 20  2  0  0  0  0
 22 21  1  0  0  0  0
 22 24  2  0  0  0  0
 23 22  1  0  0  0  0
 24 26  1  0  0  0  0
 25 24  1  0  0  0  0
 26 27  2  0  0  0  0
M  END
>  <minimizedAffinity>
-5.33850384

$$$$

 OpenBabel03272502543D

 27 29  0  0  0  0  0  0  0  0999 V2000
   36.0460   28.0740   31.9300 C   0  0  0  0  0  0  0  0  0  0  0  0
   36.3780   28.8370   30.8350 C   0  0  0  0  0  0  0  0  0  0  0  0
   36.2860   30.2140   30.8590 C   0  0  0  0  0  0  0  0  0  0  0  0
   35.8450   30.7730   32.0330 C   0  0  0  0  0  0  0  0  0  0  0  0
   35.5030   30.0310   33.1500 C   0  0  0  0  0  0  0  0  0  0  0  0
   35.6150   28.6690   33.0660 N   0  0  0  0  0  0  0  0  0  0  0  0
   36.7150   28.2980   29.9580 H   0  0  0  0  0  0  0  0  0  0  0  0
   36.5420   30.8120   30.0140 H   0  0  0  0  0  0  0  0  0  0  0  0
   35.7710   31.8480   32.0570 H   0  0  0  0  0  0  0  0  0  0  0  0
   35.3900   24.5950   31.0340 C   0  0  0  0  0  0  0  0  0  0  0  0
   36.3180   23.8730   31.7790 C   0  0  0  0  0  0  0  0  0  0  0  0
   37.1740   24.6040   32.5930 C   0  0  0  0  0  0  0  0  0  0  0  0
   37.0490   25.9660   32.6110 N   0  0  0  0  0  0  0  0  0  0  0  0
   36.1470   26.6240   31.8830 C   0  0  0  0  0  0  0  0  0  0  0  0
   35.3080   25.9280   31.0870 N   0  0  0  0  0  0  0  0  0  0  0  0
   34.7210   24.0270   30.3970 H   0  0  0  0  0  0  0  0  0  0  0  0
   36.4260   22.7960   31.7710 H   0  0  0  0  0  0  0  0  0  0  0  0
   37.9220   24.1200   33.2020 H   0  0  0  0  0  0  0  0  0  0  0  0
   32.5820   29.8440   33.5880 Cl  0  0  0  0  0  0  0  0  0  0  0  0
   33.6940   30.6000   34.7100 C   0  0  0  0  0  0  0  0  0  0  0  0
   35.0360   30.6240   34.3950 C   0  0  0  0  0  0  0  0  0  0  0  0
   35.8560   31.2320   35.3180 C   0  0  0  0  0  0  0  0  0  0  0  0
   36.9190   31.2840   35.1290 H   0  0  0  0  0  0  0  0  0  0  0  0
   35.4070   31.7940   36.4970 C   0  0  0  0  0  0  0  0  0  0  0  0
   36.1000   32.2590   37.1860 H   0  0  0  0  0  0  0  0  0  0  0  0
   34.0720   31.7610   36.7950 C   0  0  0  0  0  3  0  0  0  0  0  0
   33.2270   31.1640   35.8980 C   0  0  0  0  0  3  0  0  0  0  0  0
  1  6  1  0  0  0  0
  2  3  1  0  0  0  0
  2  1  2  0  0  0  0
  3  4  2  0  0  0  0
  4  9  1  0  0  0  0
  4  5  1  0  0  0  0
  5 21  1  0  0  0  0
  6  5  2  0  0  0  0
  7  2  1  0  0  0  0
  8  3  1  0  0  0  0
 10 15  2  0  0  0  0
 10 11  1  0  0  0  0
 11 12  2  0  0  0  0
 12 13  1  0  0  0  0
 12 18  1  0  0  0  0
 14  1  1  0  0  0  0
 14 13  2  0  0  0  0
 15 14  1  0  0  0  0
 16 10  1  0  0  0  0
 17 11  1  0  0  0  0
 19 20  1  0  0  0  0
 20 27  1  0  0  0  0
 21 20  2  0  0  0  0
 21 22  1  0  0  0  0
 22 24  2  0  0  0  0
 23 22  1  0  0  0  0
 24 26  1  0  0  0  0
 24 25  1  0  0  0  0
 27 26  2  0  0  0  0
M  END
>  <minimizedAffinity>
-5.31246853

$$$$

 OpenBabel03272502543D

 27 29  0  0  0  0  0  0  0  0999 V2000
   36.8500   25.3440   32.6450 C   0  0  0  0  0  0  0  0  0  0  0  0
   36.1320   26.1190   31.7630 C   0  0  0  0  0  0  0  0  0  0  0  0
   35.3270   25.5530   30.7950 C   0  0  0  0  0  0  0  0  0  0  0  0
   35.2860   24.1810   30.7640 C   0  0  0  0  0  0  0  0  0  0  0  0
   35.9980   23.3770   31.6370 C   0  0  0  0  0  0  0  0  0  0  0  0
   36.7790   23.9950   32.5760 N   0  0  0  0  0  0  0  0  0  0  0  0
   36.2340   27.1910   31.8720 H   0  0  0  0  0  0  0  0  0  0  0  0
   34.7680   26.1470   30.1080 H   0  0  0  0  0  0  0  0  0  0  0  0
   34.6590   23.7340   30.0100 H   0  0  0  0  0  0  0  0  0  0  0  0
   37.8880   27.2390   35.5890 C   0  0  0  0  0  0  0  0  0  0  0  0
   39.2760   27.1380   35.5840 C   0  0  0  0  0  0  0  0  0  0  0  0
   39.8480   26.4070   34.5510 C   0  0  0  0  0  0  0  0  0  0  0  0
   39.0220   25.8420   33.6180 N   0  0  0  0  0  0  0  0  0  0  0  0
   37.6950   25.9600   33.6560 C   0  0  0  0  0  0  0  0  0  0  0  0
   37.1230   26.6670   34.6530 N   0  0  0  0  0  0  0  0  0  0  0  0
   37.4380   27.8080   36.3950 H   0  0  0  0  0  0  0  0  0  0  0  0
   39.9380   27.5800   36.3180 H   0  0  0  0  0  0  0  0  0  0  0  0
   40.9170   26.2810   34.4750 H   0  0  0  0  0  0  0  0  0  0  0  0
   38.3550   22.0980   30.3860 Cl  0  0  0  0  0  0  0  0  0  0  0  0
   36.9950   21.2130   31.0450 C   0  0  0  0  0  0  0  0  0  0  0  0
   35.9540   21.9220   31.6040 C   0  0  0  0  0  0  0  0  0  0  0  0
   34.9160   21.1670   32.1030 C   0  0  0  0  0  0  0  0  0  0  0  0
   34.0690   21.6650   32.5540 H   0  0  0  0  0  0  0  0  0  0  0  0
   34.8790   19.7870   32.0690 C   0  0  0  0  0  0  0  0  0  0  0  0
   34.0360   19.2470   32.4770 H   0  0  0  0  0  0  0  0  0  0  0  0
   35.9210   19.0990   31.5100 C   0  0  0  0  0  3  0  0  0  0  0  0
   36.9710   19.8180   31.0030 C   0  0  0  0  0  3  0  0  0  0  0  0
  1 14  1  0  0  0  0
  2  7  1  0  0  0  0
  2  1  2  0  0  0  0
  3  2  1  0  0  0  0
  4  3  2  0  0  0  0
  4  5  1  0  0  0  0
  5  6  2  0  0  0  0
  6  1  1  0  0  0  0
  8  3  1  0  0  0  0
  9  4  1  0  0  0  0
 10 16  1  0  0  0  0
 11 10  1  0  0  0  0
 11 17  1  0  0  0  0
 12 11  2  0  0  0  0
 13 14  2  0  0  0  0
 13 12  1  0  0  0  0
 14 15  1  0  0  0  0
 15 10  2  0  0  0  0
 18 12  1  0  0  0  0
 19 20  1  0  0  0  0
 20 21  1  0  0  0  0
 21  5  1  0  0  0  0
 21 22  2  0  0  0  0
 22 23  1  0  0  0  0
 24 22  1  0  0  0  0
 24 25  1  0  0  0  0
 26 24  2  0  0  0  0
 27 20  2  0  0  0  0
 27 26  1  0  0  0  0
M  END
>  <minimizedAffinity>
-5.29300833

$$$$

 OpenBabel03272502543D

 27 29  0  0  0  0  0  0  0  0999 V2000
   36.1900   23.7730   31.6390 C   0  0  0  0  0  0  0  0  0  0  0  0
   35.2390   24.6110   31.1040 C   0  0  0  0  0  0  0  0  0  0  0  0
   35.3900   25.9830   31.1270 C   0  0  0  0  0  0  0  0  0  0  0  0
   36.5370   26.4580   31.7130 C   0  0  0  0  0  0  0  0  0  0  0  0
   37.5100   25.6390   32.2600 C   0  0  0  0  0  0  0  0  0  0  0  0
   37.3050   24.2870   32.2070 N   0  0  0  0  0  0  0  0  0  0  0  0
   34.3710   24.1350   30.6650 H   0  0  0  0  0  0  0  0  0  0  0  0
   34.6570   26.6390   30.7150 H   0  0  0  0  0  0  0  0  0  0  0  0
   36.6600   27.5290   31.7340 H   0  0  0  0  0  0  0  0  0  0  0  0
   36.7180   20.2450   30.8540 C   0  0  0  0  0  0  0  0  0  0  0  0
   35.6910   19.5920   31.5280 C   0  0  0  0  0  0  0  0  0  0  0  0
   34.8140   20.3860   32.2580 C   0  0  0  0  0  0  0  0  0  0  0  0
   35.0140   21.7390   32.2650 N   0  0  0  0  0  0  0  0  0  0  0  0
   36.0100   22.3300   31.6070 C   0  0  0  0  0  0  0  0  0  0  0  0
   36.8710   21.5730   30.8930 N   0  0  0  0  0  0  0  0  0  0  0  0
   37.4040   19.6290   30.2840 H   0  0  0  0  0  0  0  0  0  0  0  0
   35.5240   18.5220   31.5300 H   0  0  0  0  0  0  0  0  0  0  0  0
   33.9920   19.9560   32.8090 H   0  0  0  0  0  0  0  0  0  0  0  0
   37.3090   26.1040   35.1750 Cl  0  0  0  0  0  0  0  0  0  0  0  0
   38.7550   26.4000   34.2350 C   0  0  0  0  0  0  0  0  0  0  0  0
   38.7270   26.1440   32.8810 C   0  0  0  0  0  0  0  0  0  0  0  0
   39.8960   26.3980   32.1990 C   0  0  0  0  0  0  0  0  0  0  0  0
   39.9370   26.2170   31.1340 H   0  0  0  0  0  0  0  0  0  0  0  0
   41.0470   26.8770   32.7930 C   0  0  0  0  0  0  0  0  0  0  0  0
   41.9370   27.0580   32.2050 H   0  0  0  0  0  0  0  0  0  0  0  0
   41.0580   27.1260   34.1380 C   0  0  0  0  0  3  0  0  0  0  0  0
   39.9120   26.8840   34.8480 C   0  0  0  0  0  3  0  0  0  0  0  0
  1  6  1  0  0  0  0
  2  3  1  0  0  0  0
  2  1  2  0  0  0  0
  3  4  2  0  0  0  0
  4  9  1  0  0  0  0
  4  5  1  0  0  0  0
  5 21  1  0  0  0  0
  6  5  2  0  0  0  0
  7  2  1  0  0  0  0
  8  3  1  0  0  0  0
 10 15  2  0  0  0  0
 10 11  1  0  0  0  0
 11 17  1  0  0  0  0
 11 12  2  0  0  0  0
 12 13  1  0  0  0  0
 12 18  1  0  0  0  0
 14  1  1  0  0  0  0
 14 13  2  0  0  0  0
 15 14  1  0  0  0  0
 16 10  1  0  0  0  0
 20 27  1  0  0  0  0
 20 19  1  0  0  0  0
 21 20  2  0  0  0  0
 22 24  2  0  0  0  0
 22 21  1  0  0  0  0
 23 22  1  0  0  0  0
 24 26  1  0  0  0  0
 25 24  1  0  0  0  0
 26 27  2  0  0  0  0
M  END
>  <minimizedAffinity>
-5.15990257

$$$$

 OpenBabel03272502543D

 27 29  0  0  0  0  0  0  0  0999 V2000
   40.1430   23.0710   36.7150 C   0  0  0  0  0  0  0  0  0  0  0  0
   39.4380   23.0390   37.8950 C   0  0  0  0  0  0  0  0  0  0  0  0
   38.2440   23.7170   38.0410 C   0  0  0  0  0  0  0  0  0  0  0  0
   37.8050   24.4190   36.9460 C   0  0  0  0  0  0  0  0  0  0  0  0
   38.4940   24.4700   35.7460 C   0  0  0  0  0  0  0  0  0  0  0  0
   39.6720   23.7770   35.6610 N   0  0  0  0  0  0  0  0  0  0  0  0
   39.8700   22.4550   38.6980 H   0  0  0  0  0  0  0  0  0  0  0  0
   37.6910   23.6970   38.9530 H   0  0  0  0  0  0  0  0  0  0  0  0
   36.8740   24.9500   37.0550 H   0  0  0  0  0  0  0  0  0  0  0  0
   42.7230   20.5200   37.1340 C   0  0  0  0  0  0  0  0  0  0  0  0
   43.7770   20.9730   36.3480 C   0  0  0  0  0  0  0  0  0  0  0  0
   43.5850   22.1700   35.6700 C   0  0  0  0  0  0  0  0  0  0  0  0
   42.3890   22.8170   35.8180 N   0  0  0  0  0  0  0  0  0  0  0  0
   41.4000   22.3520   36.5820 C   0  0  0  0  0  0  0  0  0  0  0  0
   41.5710   21.1900   37.2470 N   0  0  0  0  0  0  0  0  0  0  0  0
   42.8690   19.5850   37.6640 H   0  0  0  0  0  0  0  0  0  0  0  0
   44.7270   20.4680   36.2220 H   0  0  0  0  0  0  0  0  0  0  0  0
   44.3530   22.5890   35.0390 H   0  0  0  0  0  0  0  0  0  0  0  0
   38.7410   27.4090   35.9840 Cl  0  0  0  0  0  0  0  0  0  0  0  0
   38.0920   26.5910   34.5780 C   0  0  0  0  0  0  0  0  0  0  0  0
   38.0280   25.2140   34.5850 C   0  0  0  0  0  0  0  0  0  0  0  0
   37.5090   24.6340   33.4500 C   0  0  0  0  0  0  0  0  0  0  0  0
   37.4320   23.5570   33.3940 H   0  0  0  0  0  0  0  0  0  0  0  0
   37.0680   25.3460   32.3520 C   0  0  0  0  0  0  0  0  0  0  0  0
   36.6690   24.8340   31.4870 H   0  0  0  0  0  0  0  0  0  0  0  0
   37.1380   26.7120   32.3620 C   0  0  0  0  0  3  0  0  0  0  0  0
   37.6500   27.3230   33.4750 C   0  0  0  0  0  3  0  0  0  0  0  0
  1  2  1  0  0  0  0
  2  3  2  0  0  0  0
  2  7  1  0  0  0  0
  3  8  1  0  0  0  0
  4  9  1  0  0  0  0
  4  3  1  0  0  0  0
  5  4  2  0  0  0  0
  6  5  1  0  0  0  0
  6  1  2  0  0  0  0
 10 15  1  0  0  0  0
 10 16  1  0  0  0  0
 11 10  2  0  0  0  0
 12 13  2  0  0  0  0
 12 11  1  0  0  0  0
 13 14  1  0  0  0  0
 14  1  1  0  0  0  0
 14 15  2  0  0  0  0
 17 11  1  0  0  0  0
 18 12  1  0  0  0  0
 20 21  1  0  0  0  0
 20 19  1  0  0  0  0
 21  5  1  0  0  0  0
 22 21  2  0  0  0  0
 23 22  1  0  0  0  0
 24 26  2  0  0  0  0
 24 22  1  0  0  0  0
 25 24  1  0  0  0  0
 26 27  1  0  0  0  0
 27 20  2  0  0  0  0
M  END
>  <minimizedAffinity>
-5.14859581

$$$$

 OpenBabel03272502543D

 27 29  0  0  0  0  0  0  0  0999 V2000
   36.5800   28.1760   33.5360 C   0  0  0  0  0  0  0  0  0  0  0  0
   36.5790   28.6440   32.2420 C   0  0  0  0  0  0  0  0  0  0  0  0
   35.7960   29.7160   31.8630 C   0  0  0  0  0  0  0  0  0  0  0  0
   35.0230   30.2820   32.8470 C   0  0  0  0  0  0  0  0  0  0  0  0
   35.0030   29.8320   34.1550 C   0  0  0  0  0  0  0  0  0  0  0  0
   35.8010   28.7660   34.4720 N   0  0  0  0  0  0  0  0  0  0  0  0
   37.2250   28.1270   31.5440 H   0  0  0  0  0  0  0  0  0  0  0  0
   35.7900   30.0840   30.8620 H   0  0  0  0  0  0  0  0  0  0  0  0
   34.4100   31.1190   32.5550 H   0  0  0  0  0  0  0  0  0  0  0  0
   39.1630   26.1870   35.1820 C   0  0  0  0  0  0  0  0  0  0  0  0
   38.9990   24.9120   34.6490 C   0  0  0  0  0  0  0  0  0  0  0  0
   37.9840   24.7490   33.7150 C   0  0  0  0  0  0  0  0  0  0  0  0
   37.2240   25.8360   33.3830 N   0  0  0  0  0  0  0  0  0  0  0  0
   37.4100   27.0430   33.9150 C   0  0  0  0  0  0  0  0  0  0  0  0
   38.3920   27.2190   34.8250 N   0  0  0  0  0  0  0  0  0  0  0  0
   39.9540   26.3180   35.9120 H   0  0  0  0  0  0  0  0  0  0  0  0
   39.5950   24.0450   34.9050 H   0  0  0  0  0  0  0  0  0  0  0  0
   37.7910   23.7920   33.2550 H   0  0  0  0  0  0  0  0  0  0  0  0
   36.3590   31.9360   35.7320 Cl  0  0  0  0  0  0  0  0  0  0  0  0
   34.7060   31.4260   35.9990 C   0  0  0  0  0  0  0  0  0  0  0  0
   34.1830   30.4330   35.1980 C   0  0  0  0  0  0  0  0  0  0  0  0
   32.8790   30.0780   35.4590 C   0  0  0  0  0  0  0  0  0  0  0  0
   32.4120   29.3060   34.8650 H   0  0  0  0  0  0  0  0  0  0  0  0
   32.1070   30.6520   36.4490 C   0  0  0  0  0  0  0  0  0  0  0  0
   31.0860   30.3310   36.6090 H   0  0  0  0  0  0  0  0  0  0  0  0
   32.6410   31.6360   37.2360 C   0  0  0  0  0  3  0  0  0  0  0  0
   33.9370   32.0140   37.0040 C   0  0  0  0  0  3  0  0  0  0  0  0
  1 14  1  0  0  0  0
  1  6  1  0  0  0  0
  2  1  2  0  0  0  0
  3  2  1  0  0  0  0
  3  4  2  0  0  0  0
  4  5  1  0  0  0  0
  5  6  2  0  0  0  0
  5 21  1  0  0  0  0
  7  2  1  0  0  0  0
  8  3  1  0  0  0  0
  9  4  1  0  0  0  0
 10 16  1  0  0  0  0
 11 17  1  0  0  0  0
 11 10  2  0  0  0  0
 12 11  1  0  0  0  0
 13 12  2  0  0  0  0
 13 14  1  0  0  0  0
 14 15  2  0  0  0  0
 15 10  1  0  0  0  0
 18 12  1  0  0  0  0
 19 20  1  0  0  0  0
 20 27  1  0  0  0  0
 21 22  1  0  0  0  0
 21 20  2  0  0  0  0
 22 24  2  0  0  0  0
 23 22  1  0  0  0  0
 24 25  1  0  0  0  0
 24 26  1  0  0  0  0
 27 26  2  0  0  0  0
M  END
>  <minimizedAffinity>
-5.11442709

$$$$

 OpenBabel03272502543D

 27 29  0  0  0  0  0  0  0  0999 V2000
   35.5500   30.0730   33.1890 C   0  0  0  0  0  0  0  0  0  0  0  0
   35.9530   30.8910   32.1590 C   0  0  0  0  0  0  0  0  0  0  0  0
   36.4440   30.3750   30.9770 C   0  0  0  0  0  0  0  0  0  0  0  0
   36.5060   29.0060   30.8900 C   0  0  0  0  0  0  0  0  0  0  0  0
   36.1090   28.1580   31.9100 C   0  0  0  0  0  0  0  0  0  0  0  0
   35.6300   28.7280   33.0590 N   0  0  0  0  0  0  0  0  0  0  0  0
   35.8620   31.9560   32.3280 H   0  0  0  0  0  0  0  0  0  0  0  0
   36.7580   31.0030   30.1740 H   0  0  0  0  0  0  0  0  0  0  0  0
   36.8890   28.5980   29.9690 H   0  0  0  0  0  0  0  0  0  0  0  0
   33.2590   30.9550   35.8930 C   0  0  0  0  0  0  0  0  0  0  0  0
   34.0430   31.6950   36.7720 C   0  0  0  0  0  0  0  0  0  0  0  0
   35.3740   31.8850   36.4190 C   0  0  0  0  0  0  0  0  0  0  0  0
   35.8200   31.3400   35.2470 N   0  0  0  0  0  0  0  0  0  0  0  0
   35.0380   30.6360   34.4280 C   0  0  0  0  0  0  0  0  0  0  0  0
   33.7430   30.4430   34.7560 N   0  0  0  0  0  0  0  0  0  0  0  0
   32.2200   30.8050   36.1660 H   0  0  0  0  0  0  0  0  0  0  0  0
   33.7010   32.1300   37.7030 H   0  0  0  0  0  0  0  0  0  0  0  0
   36.0480   32.4470   37.0470 H   0  0  0  0  0  0  0  0  0  0  0  0
   38.4450   26.9400   33.2550 Cl  0  0  0  0  0  0  0  0  0  0  0  0
   37.2180   26.0250   32.4050 C   0  0  0  0  0  0  0  0  0  0  0  0
   36.1750   26.7070   31.8170 C   0  0  0  0  0  0  0  0  0  0  0  0
   35.2450   25.9300   31.1640 C   0  0  0  0  0  0  0  0  0  0  0  0
   34.4020   26.4050   30.6830 H   0  0  0  0  0  0  0  0  0  0  0  0
   35.3130   24.5530   31.0800 C   0  0  0  0  0  0  0  0  0  0  0  0
   34.5510   23.9940   30.5520 H   0  0  0  0  0  0  0  0  0  0  0  0
   36.3560   23.8920   31.6680 C   0  0  0  0  0  3  0  0  0  0  0  0
   37.3000   24.6340   32.3270 C   0  0  0  0  0  3  0  0  0  0  0  0
  1 14  1  0  0  0  0
  2  7  1  0  0  0  0
  2  1  2  0  0  0  0
  3  2  1  0  0  0  0
  4  3  2  0  0  0  0
  4  5  1  0  0  0  0
  5  6  2  0  0  0  0
  6  1  1  0  0  0  0
  8  3  1  0  0  0  0
  9  4  1  0  0  0  0
 10 16  1  0  0  0  0
 10 11  1  0  0  0  0
 11 17  1  0  0  0  0
 12 11  2  0  0  0  0
 12 18  1  0  0  0  0
 13 12  1  0  0  0  0
 14 15  1  0  0  0  0
 14 13  2  0  0  0  0
 15 10  2  0  0  0  0
 20 19  1  0  0  0  0
 21  5  1  0  0  0  0
 21 20  2  0  0  0  0
 22 21  1  0  0  0  0
 23 22  1  0  0  0  0
 24 22  2  0  0  0  0
 24 26  1  0  0  0  0
 25 24  1  0  0  0  0
 26 27  2  0  0  0  0
 27 20  1  0  0  0  0
M  END
>  <minimizedAffinity>
-5.05903578

$$$$

 OpenBabel03272502543D

 27 29  0  0  0  0  0  0  0  0999 V2000
   36.0970   23.1100   31.7920 C   0  0  0  0  0  0  0  0  0  0  0  0
   35.2880   23.7960   30.9160 C   0  0  0  0  0  0  0  0  0  0  0  0
   35.2770   25.1760   30.8730 C   0  0  0  0  0  0  0  0  0  0  0  0
   36.1130   25.8180   31.7520 C   0  0  0  0  0  0  0  0  0  0  0  0
   36.9360   25.1550   32.6450 C   0  0  0  0  0  0  0  0  0  0  0  0
   36.9050   23.7860   32.6410 N   0  0  0  0  0  0  0  0  0  0  0  0
   34.6670   23.1950   30.2640 H   0  0  0  0  0  0  0  0  0  0  0  0
   34.6530   25.7140   30.1960 H   0  0  0  0  0  0  0  0  0  0  0  0
   36.1070   26.8960   31.7220 H   0  0  0  0  0  0  0  0  0  0  0  0
   37.2690   19.6520   31.7150 C   0  0  0  0  0  0  0  0  0  0  0  0
   36.1110   18.8990   31.8790 C   0  0  0  0  0  0  0  0  0  0  0  0
   34.9200   19.6010   32.0180 C   0  0  0  0  0  0  0  0  0  0  0  0
   34.9630   20.9680   31.9840 N   0  0  0  0  0  0  0  0  0  0  0  0
   36.0920   21.6560   31.8240 C   0  0  0  0  0  0  0  0  0  0  0  0
   37.2580   20.9890   31.6880 N   0  0  0  0  0  0  0  0  0  0  0  0
   38.2000   19.1070   31.6070 H   0  0  0  0  0  0  0  0  0  0  0  0
   36.0660   17.8170   31.9090 H   0  0  0  0  0  0  0  0  0  0  0  0
   33.9780   19.0910   32.1500 H   0  0  0  0  0  0  0  0  0  0  0  0
   39.6620   25.6590   31.6100 Cl  0  0  0  0  0  0  0  0  0  0  0  0
   39.1190   26.1270   33.2080 C   0  0  0  0  0  0  0  0  0  0  0  0
   37.8230   25.8370   33.5760 C   0  0  0  0  0  0  0  0  0  0  0  0
   37.4600   26.2310   34.8440 C   0  0  0  0  0  0  0  0  0  0  0  0
   36.4560   26.0330   35.1930 H   0  0  0  0  0  0  0  0  0  0  0  0
   38.3060   26.8780   35.7230 C   0  0  0  0  0  0  0  0  0  0  0  0
   37.9640   27.1640   36.7090 H   0  0  0  0  0  0  0  0  0  0  0  0
   39.5900   27.1580   35.3420 C   0  0  0  0  0  3  0  0  0  0  0  0
   39.9850   26.7800   34.0860 C   0  0  0  0  0  3  0  0  0  0  0  0
  1 14  1  0  0  0  0
  1  6  1  0  0  0  0
  2  1  2  0  0  0  0
  3  2  1  0  0  0  0
  3  4  2  0  0  0  0
  4  5  1  0  0  0  0
  5 21  1  0  0  0  0
  6  5  2  0  0  0  0
  7  2  1  0  0  0  0
  8  3  1  0  0  0  0
  9  4  1  0  0  0  0
 10 11  1  0  0  0  0
 11 17  1  0  0  0  0
 11 12  2  0  0  0  0
 12 18  1  0  0  0  0
 13 12  1  0  0  0  0
 14 13  2  0  0  0  0
 15 10  2  0  0  0  0
 15 14  1  0  0  0  0
 16 10  1  0  0  0  0
 19 20  1  0  0  0  0
 20 21  2  0  0  0  0
 20 27  1  0  0  0  0
 21 22  1  0  0  0  0
 22 23  1  0  0  0  0
 22 24  2  0  0  0  0
 24 25  1  0  0  0  0
 26 24  1  0  0  0  0
 27 26  2  0  0  0  0
M  END
>  <minimizedAffinity>
-5.01804781

$$$$
