
 OpenBabel03272509113D

 28 30  0  0  0  0  0  0  0  0999 V2000
   38.0960   30.6380   50.4490 C   0  0  0  0  0  0  0  0  0  0  0  0
   37.2310   30.4400   49.3520 C   0  0  0  0  0  0  0  0  0  0  0  0
   36.0420   29.7660   49.5390 C   0  0  0  0  0  0  0  0  0  0  0  0
   35.7240   29.3020   50.7870 N   0  0  0  0  0  0  0  0  0  0  0  0
   36.5810   29.5080   51.8330 C   0  0  0  0  0  0  0  0  0  0  0  0
   37.7510   30.1690   51.6580 N   0  0  0  0  0  0  0  0  0  0  0  0
   39.0290   31.1460   50.3980 H   0  0  0  0  0  0  0  0  0  0  0  0
   36.3120   29.1290   52.8240 H   0  0  0  0  0  0  0  0  0  0  0  0
   35.1070   29.5220   48.4680 C   0  0  0  0  0  0  0  0  0  0  0  0
   34.5070   30.6000   47.8790 C   0  0  0  0  0  0  0  0  0  0  0  0
   33.5970   30.4670   46.8350 C   0  0  0  0  0  0  0  0  0  0  0  0
   33.3130   29.1710   46.4020 C   0  0  0  0  0  0  0  0  0  0  0  0
   33.8940   28.0280   46.9640 C   0  0  0  0  0  0  0  0  0  0  0  0
   34.7880   28.2630   48.0000 C   0  0  0  0  0  0  0  0  0  0  0  0
   34.5970   31.6530   48.0980 H   0  0  0  0  0  0  0  0  0  0  0  0
   33.0780   31.2300   46.3090 H   0  0  0  0  0  0  0  0  0  0  0  0
   32.6200   28.9480   45.5940 H   0  0  0  0  0  0  0  0  0  0  0  0
   33.6580   27.0410   46.6130 H   0  0  0  0  0  0  0  0  0  0  0  0
   35.2510   27.3920   48.4520 H   0  0  0  0  0  0  0  0  0  0  0  0
   37.9880   33.3950   49.2780 Cl  0  0  0  0  0  0  0  0  0  0  0  0
   38.1600   32.2930   47.9110 C   0  0  0  0  0  0  0  0  0  0  0  0
   37.7600   30.9810   48.1170 C   0  0  0  0  0  0  0  0  0  0  0  0
   37.8920   30.0970   47.0370 C   0  0  0  0  0  0  0  0  0  0  0  0
   37.6210   29.0340   47.0440 H   0  0  0  0  0  0  0  0  0  0  0  0
   38.3980   30.5120   45.8170 C   0  0  0  0  0  0  0  0  0  0  0  0
   38.5150   29.8770   44.9770 H   0  0  0  0  0  0  0  0  0  0  0  0
   38.7920   31.8340   45.6410 C   0  0  0  0  0  0  0  0  0  0  0  0
   38.6660   32.7150   46.6990 C   0  0  0  0  0  0  0  0  0  0  0  0
  1  6  1  0  0  0  0
  2  3  1  0  0  0  0
  2  1  2  0  0  0  0
  3  4  2  0  0  0  0
  4  5  1  0  0  0  0
  5  8  1  0  0  0  0
  6  5  2  0  0  0  0
  7  1  1  0  0  0  0
  9  3  1  0  0  0  0
 10 15  1  0  0  0  0
 10  9  2  0  0  0  0
 11 10  1  0  0  0  0
 12 11  2  0  0  0  0
 12 13  1  0  0  0  0
 13 14  2  0  0  0  0
 14 19  1  0  0  0  0
 14  9  1  0  0  0  0
 16 11  1  0  0  0  0
 17 12  1  0  0  0  0
 18 13  1  0  0  0  0
 21 22  1  0  0  0  0
 21 20  1  0  0  0  0
 22  2  1  0  0  0  0
 23 24  1  0  0  0  0
 23 22  2  0  0  0  0
 25 23  1  0  0  0  0
 26 25  1  0  0  0  0
 27 25  2  0  0  0  0
 27 28  1  0  0  0  0
 28 21  2  0  0  0  0
M  END
>  <minimizedAffinity>
-5.34697294

>  <minimizedRMSD>
4.5500412

$$$$
