
 OpenBabel03262522323D

 27 29  0  0  0  0  0  0  0  0999 V2000
   37.7900   31.5750   48.8850 C   0  0  0  0  0  0  0  0  0  0  0  0
   38.3580   32.7550   49.3180 C   0  0  0  0  0  0  0  0  0  0  0  0
   39.2160   33.5210   48.5460 C   0  0  0  0  0  0  0  0  0  0  0  0
   39.5340   33.1020   47.2810 C   0  0  0  0  0  0  0  0  0  0  0  0
   38.9580   31.9270   46.8740 C   0  0  0  0  0  0  0  0  0  0  0  0
   38.1210   31.1850   47.6330 N   0  0  0  0  0  0  0  0  0  0  0  0
   38.1130   33.0960   50.3160 H   0  0  0  0  0  0  0  0  0  0  0  0
   39.6080   34.4340   48.9790 H   0  0  0  0  0  0  0  0  0  0  0  0
   40.1930   33.7130   46.7240 H   0  0  0  0  0  0  0  0  0  0  0  0
   37.2680   30.1980   50.9340 C   0  0  0  0  0  0  0  0  0  0  0  0
   36.8920   30.7720   49.7020 C   0  0  0  0  0  0  0  0  0  0  0  0
   35.6070   30.5640   49.2450 C   0  0  0  0  0  0  0  0  0  0  0  0
   34.7740   29.8010   50.0350 N   0  0  0  0  0  0  0  0  0  0  0  0
   35.1620   29.2700   51.2000 C   0  0  0  0  0  0  0  0  0  0  0  0
   36.4010   29.4630   51.6530 N   0  0  0  0  0  0  0  0  0  0  0  0
   38.2890   30.3790   51.2710 H   0  0  0  0  0  0  0  0  0  0  0  0
   35.2060   30.9520   48.3170 H   0  0  0  0  0  0  0  0  0  0  0  0
   34.4250   28.6860   51.7420 H   0  0  0  0  0  0  0  0  0  0  0  0
   40.0990   33.9210   44.9670 Cl  0  0  0  0  0  0  0  0  0  0  0  0
   39.7850   32.2300   44.5480 C   0  0  0  0  0  0  0  0  0  0  0  0
   39.2530   31.4190   45.5360 C   0  0  0  0  0  0  0  0  0  0  0  0
   39.0450   30.1230   45.1120 C   0  0  0  0  0  0  0  0  0  0  0  0
   38.6320   29.4130   45.8140 H   0  0  0  0  0  0  0  0  0  0  0  0
   39.3370   29.6830   43.8380 C   0  0  0  0  0  0  0  0  0  0  0  0
   39.1380   28.6390   43.5960 H   0  0  0  0  0  0  0  0  0  0  0  0
   39.8670   30.5580   42.9110 C   0  0  0  0  0  0  0  0  0  0  0  0
   40.1050   31.8720   43.2550 C   0  0  0  0  0  0  0  0  0  0  0  0
  1  2  1  0  0  0  0
  1 11  1  0  0  0  0
  2  7  1  0  0  0  0
  3  8  1  0  0  0  0
  3  2  2  0  0  0  0
  4  3  1  0  0  0  0
  5  4  2  0  0  0  0
  5  6  1  0  0  0  0
  6  1  2  0  0  0  0
  9  4  1  0  0  0  0
 10 16  1  0  0  0  0
 10 15  1  0  0  0  0
 11 10  2  0  0  0  0
 12 11  1  0  0  0  0
 12 13  2  0  0  0  0
 13 14  1  0  0  0  0
 14 15  2  0  0  0  0
 14 18  1  0  0  0  0
 17 12  1  0  0  0  0
 20 19  1  0  0  0  0
 20 21  1  0  0  0  0
 21  5  1  0  0  0  0
 22 21  2  0  0  0  0
 22 23  1  0  0  0  0
 24 22  1  0  0  0  0
 25 24  1  0  0  0  0
 26 27  1  0  0  0  0
 26 24  2  0  0  0  0
 27 20  2  0  0  0  0
M  END
>  <minimizedAffinity>
-6.21375704

>  <minimizedRMSD>
0.9376176

$$$$
