
 OpenBabel03272506513D

 34 36  0  0  1  0  0  0  0  0999 V2000
   34.9530   30.4860   48.2770 C   0  0  1  0  0  0  0  0  0  0  0  0
   33.7990   30.3350   47.3980 C   0  0  0  0  0  0  0  0  0  0  0  0
   33.3820   28.9390   47.0290 C   0  0  0  0  0  0  0  0  0  0  0  0
   33.5120   27.9530   48.1420 C   0  0  2  0  0  0  0  0  0  0  0  0
   34.6780   28.0670   49.0360 C   0  0  0  0  0  0  0  0  0  0  0  0
   34.9370   29.4990   49.4150 C   0  0  0  0  0  0  0  0  0  0  0  0
   34.8580   31.4840   48.8140 H   0  0  0  0  0  0  0  0  0  0  0  0
   33.7870   30.9470   46.4940 H   0  0  0  0  0  0  0  0  0  0  0  0
   32.8990   30.7290   47.9780 H   0  0  0  0  0  0  0  0  0  0  0  0
   32.3180   28.9590   46.7070 H   0  0  0  0  0  0  0  0  0  0  0  0
   33.9600   28.6560   46.1220 H   0  0  0  0  0  0  0  0  0  0  0  0
   32.6220   28.2080   48.8130 H   0  0  0  0  0  0  0  0  0  0  0  0
   34.4090   27.5600   50.0110 H   0  0  0  0  0  0  0  0  0  0  0  0
   35.6210   27.6290   48.7520 H   0  0  0  0  0  0  0  0  0  0  0  0
   33.9720   29.7680   49.9560 H   0  0  0  0  0  0  0  0  0  0  0  0
   35.6790   29.6420   50.1880 H   0  0  0  0  0  0  0  0  0  0  0  0
   36.4220   30.5210   46.2340 C   0  0  0  0  0  0  0  0  0  0  0  0
   36.2830   30.5980   47.6320 C   0  0  0  0  0  0  0  0  0  0  0  0
   37.4360   30.7840   48.3710 C   0  0  0  0  0  0  0  0  0  0  0  0
   38.6370   30.8840   47.7260 N   0  0  0  0  0  0  0  0  0  0  0  0
   38.7230   30.8040   46.3820 C   0  0  0  0  0  0  0  0  0  0  0  0
   37.6030   30.6220   45.6300 N   0  0  0  0  0  0  0  0  0  0  0  0
   35.5940   30.3780   45.5560 H   0  0  0  0  0  0  0  0  0  0  0  0
   37.4400   30.8570   49.4420 H   0  0  0  0  0  0  0  0  0  0  0  0
   39.7310   30.8990   46.0000 H   0  0  0  0  0  0  0  0  0  0  0  0
   30.7530   26.6500   48.7080 Cl  0  0  0  0  0  0  0  0  0  0  0  0
   32.0220   25.9210   47.7920 C   0  0  0  0  0  0  0  0  0  0  0  0
   33.2080   26.6050   47.6230 C   0  0  0  0  0  0  0  0  0  0  0  0
   34.1340   25.8690   46.8690 C   0  0  0  0  0  0  0  0  0  0  0  0
   35.1090   26.3520   46.6910 H   0  0  0  0  0  0  0  0  0  0  0  0
   33.9550   24.6140   46.3300 C   0  0  0  0  0  0  0  0  0  0  0  0
   34.7630   24.1670   45.7680 H   0  0  0  0  0  0  0  0  0  0  0  0
   32.7360   24.0150   46.5550 C   0  0  0  0  0  0  0  0  0  0  0  0
   31.7650   24.6650   47.2870 C   0  0  0  0  0  0  0  0  0  0  0  0
  1  7  1  1  0  0  0
  1  6  1  0  0  0  0
  2  9  1  0  0  0  0
  2  1  1  0  0  0  0
  3  2  1  0  0  0  0
  3  4  1  0  0  0  0
  4 12  1  1  0  0  0
  4  5  1  0  0  0  0
  5  6  1  0  0  0  0
  5 13  1  0  0  0  0
  6 15  1  0  0  0  0
  6 16  1  0  0  0  0
  8  2  1  0  0  0  0
 10  3  1  0  0  0  0
 11  3  1  0  0  0  0
 14  5  1  0  0  0  0
 17 18  1  0  0  0  0
 18  1  1  0  0  0  0
 18 19  2  0  0  0  0
 19 24  1  0  0  0  0
 20 19  1  0  0  0  0
 21 20  2  0  0  0  0
 22 17  2  0  0  0  0
 22 21  1  0  0  0  0
 23 17  1  0  0  0  0
 25 21  1  0  0  0  0
 27 26  1  0  0  0  0
 28 27  1  0  0  0  0
 28  4  1  0  0  0  0
 29 28  2  0  0  0  0
 30 29  1  0  0  0  0
 31 33  2  0  0  0  0
 31 29  1  0  0  0  0
 32 31  1  0  0  0  0
 33 34  1  0  0  0  0
 34 27  2  0  0  0  0
M  END
>  <minimizedAffinity>
-4.88216305

>  <minimizedRMSD>
2.3832252

$$$$
