
 OpenBabel03272509023D

 41 44  0  0  0  0  0  0  0  0999 V2000
   38.5350   25.8430   31.2910 C   0  0  0  0  0  0  0  0  0  0  0  0
   39.3190   25.1800   30.8530 H   0  0  0  0  0  0  0  0  0  0  0  0
   38.5360   26.7480   30.6380 H   0  0  0  0  0  0  0  0  0  0  0  0
   38.5590   22.8880   31.9010 Cl  0  0  0  0  0  0  0  0  0  0  0  0
   37.1660   23.8320   31.5160 C   0  0  0  0  0  0  0  0  0  0  0  0
   35.9200   23.2130   31.4740 C   0  0  0  0  0  0  0  0  0  0  0  0
   34.7850   23.9170   31.1680 C   0  0  0  0  0  0  0  0  0  0  0  0
   34.8490   25.2620   30.8910 C   0  0  0  0  0  0  0  0  0  0  0  0
   36.0680   25.9100   30.9240 C   0  0  0  0  0  0  0  0  0  0  0  0
   36.2880   27.6170   30.5890 Cl  0  0  0  0  0  0  0  0  0  0  0  0
   37.1970   25.1600   31.2400 C   0  0  0  0  0  0  0  0  0  0  0  0
   33.7950   23.4840   31.1220 H   0  0  0  0  0  0  0  0  0  0  0  0
   33.9890   25.8700   30.6420 H   0  0  0  0  0  0  0  0  0  0  0  0
   35.8990   19.5660   31.0910 C   0  0  0  0  0  0  0  0  0  0  0  0
   35.6710   19.1130   32.4010 C   0  0  0  0  0  0  0  0  0  0  0  0
   35.5230   20.0920   33.4210 C   0  0  0  0  0  0  0  0  0  0  0  0
   35.6130   21.3920   33.0520 N   0  0  0  0  0  0  0  0  0  0  0  0
   35.8360   21.7940   31.7660 C   0  0  0  0  0  0  0  0  0  0  0  0
   35.9720   20.8700   30.8260 N   0  0  0  0  0  0  0  0  0  0  0  0
   36.0100   18.8170   30.3260 H   0  0  0  0  0  0  0  0  0  0  0  0
   35.6000   18.0950   32.6910 H   0  0  0  0  0  0  0  0  0  0  0  0
   35.3450   19.8660   34.4610 H   0  0  0  0  0  0  0  0  0  0  0  0
   40.9120   24.8350   32.4190 F   0  0  0  0  0  0  0  0  0  0  0  0
   40.1100   25.6480   33.1800 C   0  0  0  0  0  0  0  0  0  0  0  0
   38.9050   26.1670   32.6840 C   0  0  0  0  0  0  0  0  0  0  0  0
   38.1420   26.9510   33.5140 C   0  0  0  0  0  0  0  0  0  0  0  0
   38.5480   27.2310   34.8110 C   0  0  0  0  0  0  0  0  0  0  0  0
   39.7630   26.7040   35.2940 C   0  0  0  0  0  0  0  0  0  0  0  0
   40.5520   25.9000   34.4610 C   0  0  0  0  0  0  0  0  0  0  0  0
   37.1660   27.3370   33.2640 H   0  0  0  0  0  0  0  0  0  0  0  0
   38.0010   27.8370   35.5090 H   0  0  0  0  0  0  0  0  0  0  0  0
   40.1250   26.8910   36.2920 H   0  0  0  0  0  0  0  0  0  0  0  0
   40.1220   23.3380   35.8500 Cl  0  0  0  0  0  0  0  0  0  0  0  0
   41.6460   24.1320   35.6050 C   0  0  0  0  0  0  0  0  0  0  0  0
   41.8110   25.3430   34.9430 C   0  0  0  0  0  0  0  0  0  0  0  0
   43.0720   25.8830   34.8060 C   0  0  0  0  0  0  0  0  0  0  0  0
   43.1130   26.8220   34.2810 H   0  0  0  0  0  0  0  0  0  0  0  0
   44.1490   25.1980   35.3350 C   0  0  0  0  0  0  0  0  0  0  0  0
   45.1230   25.6280   35.2220 H   0  0  0  0  0  0  0  0  0  0  0  0
   44.0170   23.9970   35.9960 C   0  0  0  0  0  3  0  0  0  0  0  0
   42.7370   23.4520   36.1330 C   0  0  0  0  0  3  0  0  0  0  0  0
  1 25  1  0  0  0  0
  2  1  1  0  0  0  0
  3  1  1  0  0  0  0
  5  4  1  0  0  0  0
  6  5  1  0  0  0  0
  6 18  1  0  0  0  0
  7  6  2  0  0  0  0
  8  9  2  0  0  0  0
  8  7  1  0  0  0  0
  9 11  1  0  0  0  0
 10  9  1  0  0  0  0
 11  1  1  0  0  0  0
 11  5  2  0  0  0  0
 12  7  1  0  0  0  0
 13  8  1  0  0  0  0
 14 15  1  0  0  0  0
 15 21  1  0  0  0  0
 15 16  2  0  0  0  0
 16 22  1  0  0  0  0
 17 16  1  0  0  0  0
 18 17  2  0  0  0  0
 19 14  2  0  0  0  0
 19 18  1  0  0  0  0
 20 14  1  0  0  0  0
 23 24  1  0  0  0  0
 24 29  1  0  0  0  0
 25 24  2  0  0  0  0
 25 26  1  0  0  0  0
 26 27  2  0  0  0  0
 27 28  1  0  0  0  0
 27 31  1  0  0  0  0
 28 32  1  0  0  0  0
 29 35  1  0  0  0  0
 29 28  2  0  0  0  0
 30 26  1  0  0  0  0
 34 33  1  0  0  0  0
 34 41  1  0  0  0  0
 35 34  2  0  0  0  0
 36 35  1  0  0  0  0
 36 38  2  0  0  0  0
 37 36  1  0  0  0  0
 38 40  1  0  0  0  0
 39 38  1  0  0  0  0
 40 41  2  0  0  0  0
M  END
>  <minimizedAffinity>
-6.36168718

$$$$

 OpenBabel03272509023D

 41 44  0  0  0  0  0  0  0  0999 V2000
   39.3110   26.9380   32.2910 C   0  0  0  0  0  0  0  0  0  0  0  0
   40.1670   26.7560   31.5980 H   0  0  0  0  0  0  0  0  0  0  0  0
   39.7510   27.5260   33.1310 H   0  0  0  0  0  0  0  0  0  0  0  0
   37.1710   28.0900   34.0770 Cl  0  0  0  0  0  0  0  0  0  0  0  0
   37.2680   28.2740   32.3640 C   0  0  0  0  0  0  0  0  0  0  0  0
   36.2900   29.0160   31.7070 C   0  0  0  0  0  0  0  0  0  0  0  0
   36.3180   29.1860   30.3480 C   0  0  0  0  0  0  0  0  0  0  0  0
   37.3200   28.6240   29.5930 C   0  0  0  0  0  0  0  0  0  0  0  0
   38.3080   27.8820   30.2110 C   0  0  0  0  0  0  0  0  0  0  0  0
   39.6370   27.1120   29.3660 Cl  0  0  0  0  0  0  0  0  0  0  0  0
   38.2440   27.7340   31.5930 C   0  0  0  0  0  0  0  0  0  0  0  0
   35.5840   29.7520   29.7910 H   0  0  0  0  0  0  0  0  0  0  0  0
   37.3960   28.7230   28.5180 H   0  0  0  0  0  0  0  0  0  0  0  0
   34.3850   31.3580   33.7900 C   0  0  0  0  0  0  0  0  0  0  0  0
   33.1560   30.6990   33.9610 C   0  0  0  0  0  0  0  0  0  0  0  0
   32.9980   29.4280   33.3450 C   0  0  0  0  0  0  0  0  0  0  0  0
   34.0470   28.9460   32.6350 N   0  0  0  0  0  0  0  0  0  0  0  0
   35.2270   29.6170   32.4910 C   0  0  0  0  0  0  0  0  0  0  0  0
   35.3600   30.8010   33.0720 N   0  0  0  0  0  0  0  0  0  0  0  0
   34.4950   32.3180   34.2600 H   0  0  0  0  0  0  0  0  0  0  0  0
   32.3340   31.0750   34.5170 H   0  0  0  0  0  0  0  0  0  0  0  0
   32.1020   28.8280   33.4050 H   0  0  0  0  0  0  0  0  0  0  0  0
   39.4700   26.1910   35.0030 F   0  0  0  0  0  0  0  0  0  0  0  0
   38.8740   25.3330   34.1130 C   0  0  0  0  0  0  0  0  0  0  0  0
   38.7800   25.6370   32.7470 C   0  0  0  0  0  0  0  0  0  0  0  0
   38.1940   24.7160   31.9130 C   0  0  0  0  0  0  0  0  0  0  0  0
   37.7010   23.5150   32.4020 C   0  0  0  0  0  0  0  0  0  0  0  0
   37.8010   23.2260   33.7780 C   0  0  0  0  0  0  0  0  0  0  0  0
   38.3990   24.1520   34.6420 C   0  0  0  0  0  0  0  0  0  0  0  0
   38.1380   24.8130   30.8400 H   0  0  0  0  0  0  0  0  0  0  0  0
   37.2310   22.7560   31.8070 H   0  0  0  0  0  0  0  0  0  0  0  0
   37.4350   22.3090   34.2100 H   0  0  0  0  0  0  0  0  0  0  0  0
   40.8700   22.6640   35.2370 Cl  0  0  0  0  0  0  0  0  0  0  0  0
   39.6710   23.1670   36.3870 C   0  0  0  0  0  0  0  0  0  0  0  0
   38.5140   23.8700   36.0690 C   0  0  0  0  0  0  0  0  0  0  0  0
   37.6280   24.2200   37.0660 C   0  0  0  0  0  0  0  0  0  0  0  0
   36.7590   24.7620   36.7360 H   0  0  0  0  0  0  0  0  0  0  0  0
   37.9170   23.8590   38.3670 C   0  0  0  0  0  0  0  0  0  0  0  0
   37.2210   24.1360   39.1320 H   0  0  0  0  0  0  0  0  0  0  0  0
   39.0550   23.1630   38.7130 C   0  0  0  0  0  3  0  0  0  0  0  0
   39.9510   22.8100   37.7000 C   0  0  0  0  0  3  0  0  0  0  0  0
  1 25  1  0  0  0  0
  1  3  1  0  0  0  0
  2  1  1  0  0  0  0
  5  4  1  0  0  0  0
  6  5  1  0  0  0  0
  6 18  1  0  0  0  0
  7  6  2  0  0  0  0
  8  9  2  0  0  0  0
  8  7  1  0  0  0  0
  9 11  1  0  0  0  0
 10  9  1  0  0  0  0
 11  1  1  0  0  0  0
 11  5  2  0  0  0  0
 12  7  1  0  0  0  0
 13  8  1  0  0  0  0
 14 15  1  0  0  0  0
 14 20  1  0  0  0  0
 15 21  1  0  0  0  0
 16 22  1  0  0  0  0
 16 15  2  0  0  0  0
 17 16  1  0  0  0  0
 18 17  2  0  0  0  0
 18 19  1  0  0  0  0
 19 14  2  0  0  0  0
 24 29  1  0  0  0  0
 24 23  1  0  0  0  0
 25 24  2  0  0  0  0
 26 27  2  0  0  0  0
 26 25  1  0  0  0  0
 27 28  1  0  0  0  0
 28 32  1  0  0  0  0
 28 29  2  0  0  0  0
 29 35  1  0  0  0  0
 30 26  1  0  0  0  0
 31 27  1  0  0  0  0
 33 34  1  0  0  0  0
 34 41  1  0  0  0  0
 35 34  2  0  0  0  0
 35 36  1  0  0  0  0
 36 38  2  0  0  0  0
 37 36  1  0  0  0  0
 38 40  1  0  0  0  0
 38 39  1  0  0  0  0
 41 40  2  0  0  0  0
M  END
>  <minimizedAffinity>
-6.24293327

$$$$

 OpenBabel03272509023D

 41 44  0  0  0  0  0  0  0  0999 V2000
   36.5010   27.9040   31.1400 C   0  0  0  0  0  0  0  0  0  0  0  0
   35.6130   27.3870   31.5760 H   0  0  0  0  0  0  0  0  0  0  0  0
   36.4530   27.6740   30.0500 H   0  0  0  0  0  0  0  0  0  0  0  0
   35.3480   28.7310   33.8030 Cl  0  0  0  0  0  0  0  0  0  0  0  0
   35.8920   29.7970   32.5590 C   0  0  0  0  0  0  0  0  0  0  0  0
   35.8090   31.1720   32.7620 C   0  0  0  0  0  0  0  0  0  0  0  0
   36.2200   32.0600   31.8030 C   0  0  0  0  0  0  0  0  0  0  0  0
   36.7290   31.6120   30.6070 C   0  0  0  0  0  0  0  0  0  0  0  0
   36.8260   30.2550   30.3700 C   0  0  0  0  0  0  0  0  0  0  0  0
   37.4510   29.5540   28.8900 Cl  0  0  0  0  0  0  0  0  0  0  0  0
   36.3980   29.3860   31.3700 C   0  0  0  0  0  0  0  0  0  0  0  0
   36.1770   33.1350   31.9120 H   0  0  0  0  0  0  0  0  0  0  0  0
   37.0690   32.2640   29.8120 H   0  0  0  0  0  0  0  0  0  0  0  0
   35.5470   32.2440   36.2600 C   0  0  0  0  0  0  0  0  0  0  0  0
   34.1940   32.6010   36.3790 C   0  0  0  0  0  0  0  0  0  0  0  0
   33.3710   32.4630   35.2280 C   0  0  0  0  0  0  0  0  0  0  0  0
   33.9560   31.9970   34.0980 N   0  0  0  0  0  0  0  0  0  0  0  0
   35.2770   31.6600   34.0210 C   0  0  0  0  0  0  0  0  0  0  0  0
   36.0310   31.7930   35.1030 N   0  0  0  0  0  0  0  0  0  0  0  0
   36.1600   32.3510   37.1370 H   0  0  0  0  0  0  0  0  0  0  0  0
   33.7340   32.9660   37.2630 H   0  0  0  0  0  0  0  0  0  0  0  0
   32.3190   32.7050   35.1970 H   0  0  0  0  0  0  0  0  0  0  0  0
   36.3360   26.0110   33.2210 F   0  0  0  0  0  0  0  0  0  0  0  0
   37.5750   26.4090   32.7840 C   0  0  0  0  0  0  0  0  0  0  0  0
   37.7250   27.3620   31.7650 C   0  0  0  0  0  0  0  0  0  0  0  0
   38.9970   27.7310   31.4010 C   0  0  0  0  0  0  0  0  0  0  0  0
   40.1100   27.1770   32.0160 C   0  0  0  0  0  0  0  0  0  0  0  0
   39.9420   26.2190   33.0360 C   0  0  0  0  0  0  0  0  0  0  0  0
   38.6520   25.8340   33.4230 C   0  0  0  0  0  0  0  0  0  0  0  0
   39.2270   28.5060   30.6860 H   0  0  0  0  0  0  0  0  0  0  0  0
   41.1280   27.4180   31.7770 H   0  0  0  0  0  0  0  0  0  0  0  0
   40.7710   25.7580   33.5470 H   0  0  0  0  0  0  0  0  0  0  0  0
   38.4070   27.1250   36.0590 Cl  0  0  0  0  0  0  0  0  0  0  0  0
   38.3370   25.4210   35.7380 C   0  0  0  0  0  0  0  0  0  0  0  0
   38.4560   24.8460   34.4780 C   0  0  0  0  0  0  0  0  0  0  0  0
   38.3850   23.4760   34.3400 C   0  0  0  0  0  0  0  0  0  0  0  0
   38.4870   23.1110   33.3330 H   0  0  0  0  0  0  0  0  0  0  0  0
   38.1940   22.7040   35.4700 C   0  0  0  0  0  0  0  0  0  0  0  0
   38.1410   21.6410   35.3490 H   0  0  0  0  0  0  0  0  0  0  0  0
   38.0720   23.2440   36.7310 C   0  0  0  0  0  3  0  0  0  0  0  0
   38.1450   24.6340   36.8680 C   0  0  0  0  0  3  0  0  0  0  0  0
  1 11  1  0  0  0  0
  1  2  1  0  0  0  0
  1 25  1  0  0  0  0
  3  1  1  0  0  0  0
  5  6  1  0  0  0  0
  5  4  1  0  0  0  0
  6 18  1  0  0  0  0
  7 12  1  0  0  0  0
  7  6  2  0  0  0  0
  8  7  1  0  0  0  0
  9  8  2  0  0  0  0
  9 11  1  0  0  0  0
 10  9  1  0  0  0  0
 11  5  2  0  0  0  0
 13  8  1  0  0  0  0
 14 15  1  0  0  0  0
 14 20  1  0  0  0  0
 15 21  1  0  0  0  0
 16 15  2  0  0  0  0
 17 16  1  0  0  0  0
 18 17  2  0  0  0  0
 18 19  1  0  0  0  0
 19 14  2  0  0  0  0
 22 16  1  0  0  0  0
 24 23  1  0  0  0  0
 24 29  1  0  0  0  0
 25 24  2  0  0  0  0
 26 25  1  0  0  0  0
 26 27  2  0  0  0  0
 27 28  1  0  0  0  0
 28 29  2  0  0  0  0
 28 32  1  0  0  0  0
 29 35  1  0  0  0  0
 30 26  1  0  0  0  0
 31 27  1  0  0  0  0
 34 33  1  0  0  0  0
 34 41  1  0  0  0  0
 35 34  2  0  0  0  0
 36 35  1  0  0  0  0
 36 38  2  0  0  0  0
 37 36  1  0  0  0  0
 38 40  1  0  0  0  0
 39 38  1  0  0  0  0
 40 41  2  0  0  0  0
M  END
>  <minimizedAffinity>
-6.23737097

$$$$

 OpenBabel03272509023D

 41 44  0  0  0  0  0  0  0  0999 V2000
   37.2330   26.8600   33.1540 C   0  0  0  0  0  0  0  0  0  0  0  0
   36.7910   26.1750   32.3920 H   0  0  0  0  0  0  0  0  0  0  0  0
   36.9080   26.4380   34.1340 H   0  0  0  0  0  0  0  0  0  0  0  0
   38.3390   26.3210   30.3990 Cl  0  0  0  0  0  0  0  0  0  0  0  0
   39.2670   26.6180   31.8230 C   0  0  0  0  0  0  0  0  0  0  0  0
   40.6570   26.6180   31.7380 C   0  0  0  0  0  0  0  0  0  0  0  0
   41.4400   26.8420   32.8400 C   0  0  0  0  0  0  0  0  0  0  0  0
   40.8670   27.0730   34.0680 C   0  0  0  0  0  0  0  0  0  0  0  0
   39.4910   27.0800   34.1920 C   0  0  0  0  0  0  0  0  0  0  0  0
   38.6370   27.3580   35.6980 Cl  0  0  0  0  0  0  0  0  0  0  0  0
   38.7330   26.8490   33.0480 C   0  0  0  0  0  0  0  0  0  0  0  0
   42.5210   26.8530   32.8260 H   0  0  0  0  0  0  0  0  0  0  0  0
   41.4310   27.2550   34.9740 H   0  0  0  0  0  0  0  0  0  0  0  0
   42.1280   27.1460   28.4190 C   0  0  0  0  0  0  0  0  0  0  0  0
   42.4600   25.8430   28.0110 C   0  0  0  0  0  0  0  0  0  0  0  0
   42.1640   24.7770   28.9040 C   0  0  0  0  0  0  0  0  0  0  0  0
   41.5830   25.0980   30.0850 N   0  0  0  0  0  0  0  0  0  0  0  0
   41.2760   26.3780   30.4470 C   0  0  0  0  0  0  0  0  0  0  0  0
   41.5570   27.3620   29.6040 N   0  0  0  0  0  0  0  0  0  0  0  0
   42.3550   27.9450   27.7370 H   0  0  0  0  0  0  0  0  0  0  0  0
   42.9140   25.5900   27.0860 H   0  0  0  0  0  0  0  0  0  0  0  0
   42.3720   23.7370   28.7020 H   0  0  0  0  0  0  0  0  0  0  0  0
   35.9050   28.2330   35.2250 F   0  0  0  0  0  0  0  0  0  0  0  0
   36.0690   28.8580   34.0140 C   0  0  0  0  0  0  0  0  0  0  0  0
   36.7040   28.2220   32.9370 C   0  0  0  0  0  0  0  0  0  0  0  0
   36.8060   28.9020   31.7470 C   0  0  0  0  0  0  0  0  0  0  0  0
   36.3000   30.1860   31.6080 C   0  0  0  0  0  0  0  0  0  0  0  0
   35.6660   30.8120   32.7000 C   0  0  0  0  0  0  0  0  0  0  0  0
   35.5510   30.1320   33.9200 C   0  0  0  0  0  0  0  0  0  0  0  0
   37.2050   28.4820   30.8370 H   0  0  0  0  0  0  0  0  0  0  0  0
   36.3480   30.7710   30.7090 H   0  0  0  0  0  0  0  0  0  0  0  0
   35.2560   31.8070   32.6460 H   0  0  0  0  0  0  0  0  0  0  0  0
   32.6890   29.4430   34.0210 Cl  0  0  0  0  0  0  0  0  0  0  0  0
   33.5420   30.4570   35.1410 C   0  0  0  0  0  0  0  0  0  0  0  0
   34.8970   30.7610   35.0620 C   0  0  0  0  0  0  0  0  0  0  0  0
   35.4720   31.5810   36.0100 C   0  0  0  0  0  0  0  0  0  0  0  0
   36.5240   31.7660   35.8770 H   0  0  0  0  0  0  0  0  0  0  0  0
   34.6790   32.0820   37.0230 C   0  0  0  0  0  0  0  0  0  0  0  0
   35.1370   32.7180   37.7530 H   0  0  0  0  0  0  0  0  0  0  0  0
   33.3340   31.7990   37.1280 C   0  0  0  0  0  3  0  0  0  0  0  0
   32.7540   30.9680   36.1650 C   0  0  0  0  0  3  0  0  0  0  0  0
  1  3  1  0  0  0  0
  2  1  1  0  0  0  0
  4  5  1  0  0  0  0
  5 11  1  0  0  0  0
  6  5  2  0  0  0  0
  6  7  1  0  0  0  0
  7  8  2  0  0  0  0
  8  9  1  0  0  0  0
  8 13  1  0  0  0  0
  9 10  1  0  0  0  0
 11  1  1  0  0  0  0
 11  9  2  0  0  0  0
 12  7  1  0  0  0  0
 14 19  1  0  0  0  0
 15 14  2  0  0  0  0
 15 16  1  0  0  0  0
 16 17  2  0  0  0  0
 17 18  1  0  0  0  0
 18  6  1  0  0  0  0
 19 18  2  0  0  0  0
 20 14  1  0  0  0  0
 21 15  1  0  0  0  0
 22 16  1  0  0  0  0
 24 23  1  0  0  0  0
 25  1  1  0  0  0  0
 25 24  2  0  0  0  0
 26 25  1  0  0  0  0
 27 26  2  0  0  0  0
 27 28  1  0  0  0  0
 28 29  2  0  0  0  0
 29 24  1  0  0  0  0
 29 35  1  0  0  0  0
 30 26  1  0  0  0  0
 31 27  1  0  0  0  0
 32 28  1  0  0  0  0
 33 34  1  0  0  0  0
 34 41  1  0  0  0  0
 35 34  2  0  0  0  0
 35 36  1  0  0  0  0
 36 38  2  0  0  0  0
 37 36  1  0  0  0  0
 38 40  1  0  0  0  0
 38 39  1  0  0  0  0
 41 40  2  0  0  0  0
M  END
>  <minimizedAffinity>
-6.20759726

$$$$

 OpenBabel03272509023D

 41 44  0  0  0  0  0  0  0  0999 V2000
   36.4820   26.5280   32.3550 C   0  0  0  0  0  0  0  0  0  0  0  0
   35.3890   26.4800   32.5740 H   0  0  0  0  0  0  0  0  0  0  0  0
   36.7090   25.5590   31.8490 H   0  0  0  0  0  0  0  0  0  0  0  0
   38.9590   26.2460   30.6560 Cl  0  0  0  0  0  0  0  0  0  0  0  0
   37.8750   27.5880   30.6520 C   0  0  0  0  0  0  0  0  0  0  0  0
   38.1300   28.6610   29.8010 C   0  0  0  0  0  0  0  0  0  0  0  0
   37.3040   29.7540   29.7650 C   0  0  0  0  0  0  0  0  0  0  0  0
   36.1950   29.8190   30.5750 C   0  0  0  0  0  0  0  0  0  0  0  0
   35.9100   28.7740   31.4320 C   0  0  0  0  0  0  0  0  0  0  0  0
   34.5330   28.7340   32.5160 Cl  0  0  0  0  0  0  0  0  0  0  0  0
   36.7740   27.6820   31.4380 C   0  0  0  0  0  0  0  0  0  0  0  0
   37.4570   30.6110   29.1230 H   0  0  0  0  0  0  0  0  0  0  0  0
   35.5060   30.6550   30.5920 H   0  0  0  0  0  0  0  0  0  0  0  0
   41.5440   29.0450   28.5170 C   0  0  0  0  0  0  0  0  0  0  0  0
   41.4700   28.4540   27.2450 C   0  0  0  0  0  0  0  0  0  0  0  0
   40.2170   27.9210   26.8370 C   0  0  0  0  0  0  0  0  0  0  0  0
   39.1840   28.0230   27.7080 N   0  0  0  0  0  0  0  0  0  0  0  0
   39.2950   28.6050   28.9390 C   0  0  0  0  0  0  0  0  0  0  0  0
   40.4700   29.0970   29.3050 N   0  0  0  0  0  0  0  0  0  0  0  0
   42.4960   29.4450   28.8160 H   0  0  0  0  0  0  0  0  0  0  0  0
   42.2770   28.3740   26.5600 H   0  0  0  0  0  0  0  0  0  0  0  0
   40.0370   27.4450   25.8840 H   0  0  0  0  0  0  0  0  0  0  0  0
   38.1840   24.4770   33.2690 F   0  0  0  0  0  0  0  0  0  0  0  0
   38.0640   25.6220   34.0170 C   0  0  0  0  0  0  0  0  0  0  0  0
   37.2190   26.6710   33.6270 C   0  0  0  0  0  0  0  0  0  0  0  0
   37.1300   27.7740   34.4410 C   0  0  0  0  0  0  0  0  0  0  0  0
   37.8580   27.8560   35.6190 C   0  0  0  0  0  0  0  0  0  0  0  0
   38.7040   26.7940   35.9970 C   0  0  0  0  0  0  0  0  0  0  0  0
   38.8040   25.6610   35.1800 C   0  0  0  0  0  0  0  0  0  0  0  0
   36.4580   28.6010   34.2780 H   0  0  0  0  0  0  0  0  0  0  0  0
   37.8360   28.6890   36.2980 H   0  0  0  0  0  0  0  0  0  0  0  0
   39.2910   26.8080   36.9000 H   0  0  0  0  0  0  0  0  0  0  0  0
   37.4450   23.8260   37.0400 Cl  0  0  0  0  0  0  0  0  0  0  0  0
   39.0630   23.6630   36.4320 C   0  0  0  0  0  0  0  0  0  0  0  0
   39.6730   24.5500   35.5530 C   0  0  0  0  0  0  0  0  0  0  0  0
   40.9660   24.3210   35.1340 C   0  0  0  0  0  0  0  0  0  0  0  0
   41.3640   25.0550   34.4550 H   0  0  0  0  0  0  0  0  0  0  0  0
   41.6280   23.2030   35.6040 C   0  0  0  0  0  0  0  0  0  0  0  0
   42.6320   23.0370   35.2720 H   0  0  0  0  0  0  0  0  0  0  0  0
   41.0500   22.3060   36.4750 C   0  0  0  0  0  3  0  0  0  0  0  0
   39.7390   22.5410   36.8980 C   0  0  0  0  0  3  0  0  0  0  0  0
  1  2  1  0  0  0  0
  1 25  1  0  0  0  0
  3  1  1  0  0  0  0
  5  4  1  0  0  0  0
  5 11  1  0  0  0  0
  6  5  2  0  0  0  0
  7  6  1  0  0  0  0
  7  8  2  0  0  0  0
  8 13  1  0  0  0  0
  8  9  1  0  0  0  0
  9 11  2  0  0  0  0
  9 10  1  0  0  0  0
 11  1  1  0  0  0  0
 12  7  1  0  0  0  0
 14 20  1  0  0  0  0
 14 19  1  0  0  0  0
 15 14  2  0  0  0  0
 16 15  1  0  0  0  0
 16 17  2  0  0  0  0
 17 18  1  0  0  0  0
 18 19  2  0  0  0  0
 18  6  1  0  0  0  0
 21 15  1  0  0  0  0
 22 16  1  0  0  0  0
 23 24  1  0  0  0  0
 24 29  1  0  0  0  0
 25 24  2  0  0  0  0
 25 26  1  0  0  0  0
 26 27  2  0  0  0  0
 27 28  1  0  0  0  0
 27 31  1  0  0  0  0
 28 32  1  0  0  0  0
 29 35  1  0  0  0  0
 29 28  2  0  0  0  0
 30 26  1  0  0  0  0
 34 41  1  0  0  0  0
 34 33  1  0  0  0  0
 35 34  2  0  0  0  0
 36 35  1  0  0  0  0
 36 38  2  0  0  0  0
 37 36  1  0  0  0  0
 38 40  1  0  0  0  0
 39 38  1  0  0  0  0
 40 41  2  0  0  0  0
M  END
>  <minimizedAffinity>
-6.20706224

$$$$

 OpenBabel03272509023D

 41 44  0  0  0  0  0  0  0  0999 V2000
   36.6490   25.5410   32.2830 C   0  0  0  0  0  0  0  0  0  0  0  0
   35.8620   26.2900   32.0290 H   0  0  0  0  0  0  0  0  0  0  0  0
   36.0950   24.5780   32.3930 H   0  0  0  0  0  0  0  0  0  0  0  0
   37.7930   28.1680   31.3390 Cl  0  0  0  0  0  0  0  0  0  0  0  0
   38.1940   26.6070   30.7210 C   0  0  0  0  0  0  0  0  0  0  0  0
   39.1270   26.5060   29.6920 C   0  0  0  0  0  0  0  0  0  0  0  0
   39.4740   25.2910   29.1620 C   0  0  0  0  0  0  0  0  0  0  0  0
   38.9050   24.1330   29.6350 C   0  0  0  0  0  0  0  0  0  0  0  0
   37.9760   24.1940   30.6560 C   0  0  0  0  0  0  0  0  0  0  0  0
   37.1750   22.7960   31.3460 Cl  0  0  0  0  0  0  0  0  0  0  0  0
   37.6510   25.4480   31.1670 C   0  0  0  0  0  0  0  0  0  0  0  0
   40.1920   25.1590   28.3640 H   0  0  0  0  0  0  0  0  0  0  0  0
   39.1380   23.1460   29.2580 H   0  0  0  0  0  0  0  0  0  0  0  0
   39.7830   29.5120   27.6950 C   0  0  0  0  0  0  0  0  0  0  0  0
   40.9530   30.0270   28.2760 C   0  0  0  0  0  0  0  0  0  0  0  0
   41.5140   29.3150   29.3720 C   0  0  0  0  0  0  0  0  0  0  0  0
   40.8750   28.1900   29.7740 N   0  0  0  0  0  0  0  0  0  0  0  0
   39.7370   27.7200   29.1830 C   0  0  0  0  0  0  0  0  0  0  0  0
   39.2260   28.3940   28.1630 N   0  0  0  0  0  0  0  0  0  0  0  0
   39.3670   30.0570   26.8670 H   0  0  0  0  0  0  0  0  0  0  0  0
   41.4550   30.9070   27.9620 H   0  0  0  0  0  0  0  0  0  0  0  0
   42.4090   29.6120   29.8980 H   0  0  0  0  0  0  0  0  0  0  0  0
   38.3190   23.7480   33.6750 F   0  0  0  0  0  0  0  0  0  0  0  0
   38.1390   25.0130   34.1780 C   0  0  0  0  0  0  0  0  0  0  0  0
   37.3050   25.9460   33.5430 C   0  0  0  0  0  0  0  0  0  0  0  0
   37.1530   27.1820   34.1220 C   0  0  0  0  0  0  0  0  0  0  0  0
   37.8060   27.5090   35.3010 C   0  0  0  0  0  0  0  0  0  0  0  0
   38.6420   26.5620   35.9250 C   0  0  0  0  0  0  0  0  0  0  0  0
   38.8070   25.2950   35.3500 C   0  0  0  0  0  0  0  0  0  0  0  0
   36.4800   27.9460   33.7620 H   0  0  0  0  0  0  0  0  0  0  0  0
   37.7320   28.4560   35.8020 H   0  0  0  0  0  0  0  0  0  0  0  0
   39.1730   26.7640   36.8400 H   0  0  0  0  0  0  0  0  0  0  0  0
   37.3990   23.9030   37.5320 Cl  0  0  0  0  0  0  0  0  0  0  0  0
   39.0320   23.6210   37.0180 C   0  0  0  0  0  0  0  0  0  0  0  0
   39.6660   24.2990   35.9810 C   0  0  0  0  0  0  0  0  0  0  0  0
   40.9700   23.9920   35.6580 C   0  0  0  0  0  0  0  0  0  0  0  0
   41.3860   24.5610   34.8450 H   0  0  0  0  0  0  0  0  0  0  0  0
   41.6190   23.0090   36.3790 C   0  0  0  0  0  0  0  0  0  0  0  0
   42.6330   22.7810   36.1180 H   0  0  0  0  0  0  0  0  0  0  0  0
   41.0190   22.3210   37.4110 C   0  0  0  0  0  3  0  0  0  0  0  0
   39.6960   22.6340   37.7360 C   0  0  0  0  0  3  0  0  0  0  0  0
  1  3  1  0  0  0  0
  1 25  1  0  0  0  0
  2  1  1  0  0  0  0
  5 11  1  0  0  0  0
  5  4  1  0  0  0  0
  6  5  2  0  0  0  0
  7  8  2  0  0  0  0
  7  6  1  0  0  0  0
  8  9  1  0  0  0  0
  9 11  2  0  0  0  0
  9 10  1  0  0  0  0
 11  1  1  0  0  0  0
 12  7  1  0  0  0  0
 13  8  1  0  0  0  0
 14 19  2  0  0  0  0
 14 15  1  0  0  0  0
 15 16  2  0  0  0  0
 16 17  1  0  0  0  0
 16 22  1  0  0  0  0
 18  6  1  0  0  0  0
 18 17  2  0  0  0  0
 19 18  1  0  0  0  0
 20 14  1  0  0  0  0
 21 15  1  0  0  0  0
 23 24  1  0  0  0  0
 24 29  1  0  0  0  0
 25 26  1  0  0  0  0
 25 24  2  0  0  0  0
 26 27  2  0  0  0  0
 27 31  1  0  0  0  0
 27 28  1  0  0  0  0
 28 32  1  0  0  0  0
 29 28  2  0  0  0  0
 29 35  1  0  0  0  0
 30 26  1  0  0  0  0
 34 33  1  0  0  0  0
 34 41  1  0  0  0  0
 35 34  2  0  0  0  0
 36 35  1  0  0  0  0
 36 38  2  0  0  0  0
 37 36  1  0  0  0  0
 38 40  1  0  0  0  0
 39 38  1  0  0  0  0
 40 41  2  0  0  0  0
M  END
>  <minimizedAffinity>
-6.1980114

$$$$

 OpenBabel03272509023D

 41 44  0  0  0  0  0  0  0  0999 V2000
   37.9900   26.4260   31.3220 C   0  0  0  0  0  0  0  0  0  0  0  0
   37.0420   25.9360   31.6490 H   0  0  0  0  0  0  0  0  0  0  0  0
   38.3880   25.7600   30.5200 H   0  0  0  0  0  0  0  0  0  0  0  0
   35.9910   28.0580   32.8860 Cl  0  0  0  0  0  0  0  0  0  0  0  0
   36.8110   28.5610   31.4530 C   0  0  0  0  0  0  0  0  0  0  0  0
   36.5570   29.8300   30.9380 C   0  0  0  0  0  0  0  0  0  0  0  0
   37.1770   30.2750   29.8000 C   0  0  0  0  0  0  0  0  0  0  0  0
   38.0720   29.4730   29.1320 C   0  0  0  0  0  0  0  0  0  0  0  0
   38.3490   28.2080   29.6130 C   0  0  0  0  0  0  0  0  0  0  0  0
   39.4650   27.0870   28.8570 Cl  0  0  0  0  0  0  0  0  0  0  0  0
   37.6990   27.7950   30.7730 C   0  0  0  0  0  0  0  0  0  0  0  0
   37.0150   31.2490   29.3600 H   0  0  0  0  0  0  0  0  0  0  0  0
   38.5920   29.7670   28.2290 H   0  0  0  0  0  0  0  0  0  0  0  0
   33.4520   31.4700   31.9980 C   0  0  0  0  0  0  0  0  0  0  0  0
   33.8880   32.3470   33.0050 C   0  0  0  0  0  0  0  0  0  0  0  0
   35.2750   32.3630   33.3120 C   0  0  0  0  0  0  0  0  0  0  0  0
   36.0770   31.5280   32.6070 N   0  0  0  0  0  0  0  0  0  0  0  0
   35.6170   30.6890   31.6340 C   0  0  0  0  0  0  0  0  0  0  0  0
   34.3200   30.6850   31.3590 N   0  0  0  0  0  0  0  0  0  0  0  0
   32.4010   31.4660   31.7740 H   0  0  0  0  0  0  0  0  0  0  0  0
   33.2610   33.0020   33.5580 H   0  0  0  0  0  0  0  0  0  0  0  0
   35.7270   32.9920   34.0640 H   0  0  0  0  0  0  0  0  0  0  0  0
   37.4500   25.0040   33.6940 F   0  0  0  0  0  0  0  0  0  0  0  0
   38.5910   25.7630   33.6220 C   0  0  0  0  0  0  0  0  0  0  0  0
   38.9080   26.5100   32.4760 C   0  0  0  0  0  0  0  0  0  0  0  0
   40.0530   27.2680   32.4880 C   0  0  0  0  0  0  0  0  0  0  0  0
   40.8840   27.2960   33.5990 C   0  0  0  0  0  0  0  0  0  0  0  0
   40.5530   26.5390   34.7410 C   0  0  0  0  0  0  0  0  0  0  0  0
   39.3870   25.7630   34.7470 C   0  0  0  0  0  0  0  0  0  0  0  0
   40.3520   27.9350   31.6960 H   0  0  0  0  0  0  0  0  0  0  0  0
   41.7930   27.8640   33.6730 H   0  0  0  0  0  0  0  0  0  0  0  0
   41.1630   26.5250   35.6290 H   0  0  0  0  0  0  0  0  0  0  0  0
   40.8550   23.2100   34.8050 Cl  0  0  0  0  0  0  0  0  0  0  0  0
   39.7010   23.7600   35.9790 C   0  0  0  0  0  0  0  0  0  0  0  0
   39.0260   24.9740   35.9200 C   0  0  0  0  0  0  0  0  0  0  0  0
   38.1280   25.3090   36.9110 C   0  0  0  0  0  0  0  0  0  0  0  0
   37.6480   26.2650   36.7900 H   0  0  0  0  0  0  0  0  0  0  0  0
   37.9210   24.4200   37.9470 C   0  0  0  0  0  0  0  0  0  0  0  0
   37.2210   24.6910   38.7110 H   0  0  0  0  0  0  0  0  0  0  0  0
   38.5750   23.2100   38.0340 C   0  0  0  0  0  3  0  0  0  0  0  0
   39.4850   22.8730   37.0280 C   0  0  0  0  0  3  0  0  0  0  0  0
  1  2  1  0  0  0  0
  1 25  1  0  0  0  0
  3  1  1  0  0  0  0
  5  4  1  0  0  0  0
  6  5  1  0  0  0  0
  6 18  1  0  0  0  0
  7  6  2  0  0  0  0
  8  9  2  0  0  0  0
  8  7  1  0  0  0  0
  9 11  1  0  0  0  0
 10  9  1  0  0  0  0
 11  1  1  0  0  0  0
 11  5  2  0  0  0  0
 12  7  1  0  0  0  0
 13  8  1  0  0  0  0
 14 15  1  0  0  0  0
 15 16  2  0  0  0  0
 15 21  1  0  0  0  0
 16 22  1  0  0  0  0
 17 16  1  0  0  0  0
 18 17  2  0  0  0  0
 19 18  1  0  0  0  0
 19 14  2  0  0  0  0
 20 14  1  0  0  0  0
 24 23  1  0  0  0  0
 24 29  1  0  0  0  0
 25 26  1  0  0  0  0
 25 24  2  0  0  0  0
 26 27  2  0  0  0  0
 27 31  1  0  0  0  0
 27 28  1  0  0  0  0
 28 29  2  0  0  0  0
 28 32  1  0  0  0  0
 29 35  1  0  0  0  0
 30 26  1  0  0  0  0
 33 34  1  0  0  0  0
 34 41  1  0  0  0  0
 35 34  2  0  0  0  0
 35 36  1  0  0  0  0
 36 38  2  0  0  0  0
 37 36  1  0  0  0  0
 38 40  1  0  0  0  0
 38 39  1  0  0  0  0
 41 40  2  0  0  0  0
M  END
>  <minimizedAffinity>
-6.18207884

$$$$

 OpenBabel03272509023D

 41 44  0  0  0  0  0  0  0  0999 V2000
   39.5580   27.2310   32.4590 C   0  0  0  0  0  0  0  0  0  0  0  0
   40.6530   27.1760   32.2520 H   0  0  0  0  0  0  0  0  0  0  0  0
   39.4680   27.9570   33.3010 H   0  0  0  0  0  0  0  0  0  0  0  0
   41.1290   27.1860   29.8840 Cl  0  0  0  0  0  0  0  0  0  0  0  0
   39.5010   27.7270   30.0680 C   0  0  0  0  0  0  0  0  0  0  0  0
   38.8130   28.1930   28.9510 C   0  0  0  0  0  0  0  0  0  0  0  0
   37.5210   28.6400   29.0440 C   0  0  0  0  0  0  0  0  0  0  0  0
   36.8680   28.6410   30.2540 C   0  0  0  0  0  0  0  0  0  0  0  0
   37.5190   28.1860   31.3840 C   0  0  0  0  0  0  0  0  0  0  0  0
   36.8020   28.1370   32.9830 Cl  0  0  0  0  0  0  0  0  0  0  0  0
   38.8300   27.7390   31.2460 C   0  0  0  0  0  0  0  0  0  0  0  0
   36.9440   29.0110   28.2090 H   0  0  0  0  0  0  0  0  0  0  0  0
   35.8490   28.9820   30.3920 H   0  0  0  0  0  0  0  0  0  0  0  0
   40.3850   27.0760   25.8310 C   0  0  0  0  0  0  0  0  0  0  0  0
   40.7720   28.2820   25.2240 C   0  0  0  0  0  0  0  0  0  0  0  0
   40.4810   29.4900   25.9130 C   0  0  0  0  0  0  0  0  0  0  0  0
   39.8500   29.3880   27.1080 N   0  0  0  0  0  0  0  0  0  0  0  0
   39.4890   28.1960   27.6660 C   0  0  0  0  0  0  0  0  0  0  0  0
   39.7670   27.0770   27.0120 N   0  0  0  0  0  0  0  0  0  0  0  0
   40.6100   26.1670   25.3010 H   0  0  0  0  0  0  0  0  0  0  0  0
   41.2670   28.3640   24.2890 H   0  0  0  0  0  0  0  0  0  0  0  0
   40.7290   30.4760   25.5480 H   0  0  0  0  0  0  0  0  0  0  0  0
   39.5130   26.4220   35.1570 F   0  0  0  0  0  0  0  0  0  0  0  0
   39.0600   25.5520   34.1970 C   0  0  0  0  0  0  0  0  0  0  0  0
   39.0740   25.8870   32.8340 C   0  0  0  0  0  0  0  0  0  0  0  0
   38.6300   24.9540   31.9290 C   0  0  0  0  0  0  0  0  0  0  0  0
   38.1740   23.7110   32.3440 C   0  0  0  0  0  0  0  0  0  0  0  0
   38.1650   23.3910   33.7170 C   0  0  0  0  0  0  0  0  0  0  0  0
   38.6160   24.3290   34.6530 C   0  0  0  0  0  0  0  0  0  0  0  0
   38.6680   25.0760   30.8580 H   0  0  0  0  0  0  0  0  0  0  0  0
   37.8130   22.9400   31.6910 H   0  0  0  0  0  0  0  0  0  0  0  0
   37.8210   22.4410   34.0920 H   0  0  0  0  0  0  0  0  0  0  0  0
   41.0160   22.7960   35.4060 Cl  0  0  0  0  0  0  0  0  0  0  0  0
   39.7370   23.2920   36.4690 C   0  0  0  0  0  0  0  0  0  0  0  0
   38.6160   24.0170   36.0780 C   0  0  0  0  0  0  0  0  0  0  0  0
   37.6600   24.3570   37.0100 C   0  0  0  0  0  0  0  0  0  0  0  0
   36.8250   24.9180   36.6260 H   0  0  0  0  0  0  0  0  0  0  0  0
   37.8420   23.9660   38.3220 C   0  0  0  0  0  0  0  0  0  0  0  0
   37.0920   24.2360   39.0370 H   0  0  0  0  0  0  0  0  0  0  0  0
   38.9410   23.2470   38.7410 C   0  0  0  0  0  3  0  0  0  0  0  0
   39.9090   22.9030   37.7930 C   0  0  0  0  0  3  0  0  0  0  0  0
  1 25  1  0  0  0  0
  1  3  1  0  0  0  0
  2  1  1  0  0  0  0
  4  5  1  0  0  0  0
  5 11  1  0  0  0  0
  6  7  1  0  0  0  0
  6  5  2  0  0  0  0
  7  8  2  0  0  0  0
  8 13  1  0  0  0  0
  8  9  1  0  0  0  0
  9 10  1  0  0  0  0
 11  9  2  0  0  0  0
 11  1  1  0  0  0  0
 12  7  1  0  0  0  0
 14 19  1  0  0  0  0
 15 14  2  0  0  0  0
 15 16  1  0  0  0  0
 16 17  2  0  0  0  0
 17 18  1  0  0  0  0
 18  6  1  0  0  0  0
 19 18  2  0  0  0  0
 20 14  1  0  0  0  0
 21 15  1  0  0  0  0
 22 16  1  0  0  0  0
 24 29  1  0  0  0  0
 24 23  1  0  0  0  0
 25 24  2  0  0  0  0
 26 27  2  0  0  0  0
 26 25  1  0  0  0  0
 27 28  1  0  0  0  0
 28 32  1  0  0  0  0
 28 29  2  0  0  0  0
 29 35  1  0  0  0  0
 30 26  1  0  0  0  0
 31 27  1  0  0  0  0
 33 34  1  0  0  0  0
 34 41  1  0  0  0  0
 35 34  2  0  0  0  0
 35 36  1  0  0  0  0
 36 38  2  0  0  0  0
 37 36  1  0  0  0  0
 38 40  1  0  0  0  0
 38 39  1  0  0  0  0
 41 40  2  0  0  0  0
M  END
>  <minimizedAffinity>
-6.10376167

$$$$

 OpenBabel03272509023D

 41 44  0  0  0  0  0  0  0  0999 V2000
   36.6330   25.9360   32.1490 C   0  0  0  0  0  0  0  0  0  0  0  0
   35.9620   25.0450   32.1990 H   0  0  0  0  0  0  0  0  0  0  0  0
   35.9710   26.7670   31.8080 H   0  0  0  0  0  0  0  0  0  0  0  0
   38.0600   23.6470   33.5000 Cl  0  0  0  0  0  0  0  0  0  0  0  0
   37.8500   25.2330   34.1460 C   0  0  0  0  0  0  0  0  0  0  0  0
   38.3720   25.5250   35.4040 C   0  0  0  0  0  0  0  0  0  0  0  0
   38.2270   26.7670   35.9650 C   0  0  0  0  0  0  0  0  0  0  0  0
   37.5550   27.7620   35.2950 C   0  0  0  0  0  0  0  0  0  0  0  0
   37.0240   27.5090   34.0450 C   0  0  0  0  0  0  0  0  0  0  0  0
   36.1450   28.6860   33.0900 Cl  0  0  0  0  0  0  0  0  0  0  0  0
   37.1940   26.2350   33.5110 C   0  0  0  0  0  0  0  0  0  0  0  0
   38.6130   27.0440   36.9360 H   0  0  0  0  0  0  0  0  0  0  0  0
   37.4070   28.7610   35.6850 H   0  0  0  0  0  0  0  0  0  0  0  0
   40.9100   23.0560   36.3620 C   0  0  0  0  0  0  0  0  0  0  0  0
   40.3860   22.5100   37.5450 C   0  0  0  0  0  0  0  0  0  0  0  0
   39.1380   23.0090   38.0060 C   0  0  0  0  0  0  0  0  0  0  0  0
   38.5450   23.9780   37.2680 N   0  0  0  0  0  0  0  0  0  0  0  0
   39.0860   24.4850   36.1210 C   0  0  0  0  0  0  0  0  0  0  0  0
   40.2500   24.0100   35.7030 N   0  0  0  0  0  0  0  0  0  0  0  0
   41.8540   22.6720   36.0210 H   0  0  0  0  0  0  0  0  0  0  0  0
   40.8490   21.7510   38.1240 H   0  0  0  0  0  0  0  0  0  0  0  0
   38.6370   22.6680   38.9000 H   0  0  0  0  0  0  0  0  0  0  0  0
   38.5740   27.8970   31.5760 F   0  0  0  0  0  0  0  0  0  0  0  0
   38.6630   26.6750   30.9570 C   0  0  0  0  0  0  0  0  0  0  0  0
   37.7180   25.6630   31.1840 C   0  0  0  0  0  0  0  0  0  0  0  0
   37.8580   24.4760   30.5070 C   0  0  0  0  0  0  0  0  0  0  0  0
   38.9070   24.2740   29.6220 C   0  0  0  0  0  0  0  0  0  0  0  0
   39.8490   25.2990   29.4060 C   0  0  0  0  0  0  0  0  0  0  0  0
   39.7190   26.5170   30.0850 C   0  0  0  0  0  0  0  0  0  0  0  0
   37.1510   23.6620   30.5480 H   0  0  0  0  0  0  0  0  0  0  0  0
   39.0750   23.3710   29.0640 H   0  0  0  0  0  0  0  0  0  0  0  0
   40.6810   25.1940   28.7300 H   0  0  0  0  0  0  0  0  0  0  0  0
   38.8990   28.2590   27.8570 Cl  0  0  0  0  0  0  0  0  0  0  0  0
   40.3270   28.4350   28.8270 C   0  0  0  0  0  0  0  0  0  0  0  0
   40.6830   27.5920   29.8740 C   0  0  0  0  0  0  0  0  0  0  0  0
   41.8430   27.8270   30.5800 C   0  0  0  0  0  0  0  0  0  0  0  0
   42.0460   27.1290   31.3740 H   0  0  0  0  0  0  0  0  0  0  0  0
   42.6290   28.9060   30.2250 C   0  0  0  0  0  0  0  0  0  0  0  0
   43.5280   29.0780   30.7800 H   0  0  0  0  0  0  0  0  0  0  0  0
   42.3030   29.7590   29.1930 C   0  0  0  0  0  3  0  0  0  0  0  0
   41.1260   29.5180   28.4790 C   0  0  0  0  0  3  0  0  0  0  0  0
  1  2  1  0  0  0  0
  1 11  1  0  0  0  0
  3  1  1  0  0  0  0
  4  5  1  0  0  0  0
  5  6  1  0  0  0  0
  6  7  2  0  0  0  0
  6 18  1  0  0  0  0
  7 12  1  0  0  0  0
  8 13  1  0  0  0  0
  8  7  1  0  0  0  0
  9  8  2  0  0  0  0
 10  9  1  0  0  0  0
 11  9  1  0  0  0  0
 11  5  2  0  0  0  0
 14 15  1  0  0  0  0
 15 16  2  0  0  0  0
 15 21  1  0  0  0  0
 16 22  1  0  0  0  0
 17 16  1  0  0  0  0
 18 17  2  0  0  0  0
 19 18  1  0  0  0  0
 19 14  2  0  0  0  0
 20 14  1  0  0  0  0
 24 25  1  0  0  0  0
 24 23  1  0  0  0  0
 25  1  1  0  0  0  0
 26 30  1  0  0  0  0
 26 25  2  0  0  0  0
 27 26  1  0  0  0  0
 28 27  2  0  0  0  0
 28 29  1  0  0  0  0
 29 24  2  0  0  0  0
 31 27  1  0  0  0  0
 32 28  1  0  0  0  0
 33 34  1  0  0  0  0
 34 35  1  0  0  0  0
 35 29  1  0  0  0  0
 35 36  2  0  0  0  0
 36 37  1  0  0  0  0
 38 36  1  0  0  0  0
 38 39  1  0  0  0  0
 40 38  2  0  0  0  0
 41 34  2  0  0  0  0
 41 40  1  0  0  0  0
M  END
>  <minimizedAffinity>
-6.06022024

$$$$
