
 OpenBabel03272509213D

 46 50  0  0  0  0  0  0  0  0999 V2000
   38.1400   31.4120   47.9330 C   0  0  0  0  0  0  0  0  0  0  0  0
   37.2840   31.5960   49.0000 C   0  0  0  0  0  0  0  0  0  0  0  0
   37.4730   32.7950   49.6870 C   0  0  0  0  0  0  0  0  0  0  0  0
   38.4520   33.7190   49.3130 C   0  0  0  0  0  0  0  0  0  0  0  0
   39.2800   33.4340   48.2020 C   0  0  0  0  0  0  0  0  0  0  0  0
   39.1050   32.2430   47.5040 C   0  0  0  0  0  0  0  0  0  0  0  0
   36.8190   32.9790   50.5360 H   0  0  0  0  0  0  0  0  0  0  0  0
   38.5830   34.6480   49.8630 H   0  0  0  0  0  0  0  0  0  0  0  0
   40.0240   34.1780   47.9490 H   0  0  0  0  0  0  0  0  0  0  0  0
   35.1710   30.4420   48.5690 C   0  0  0  0  0  0  0  0  0  0  0  0
   36.2810   30.6590   49.3890 C   0  0  0  0  0  0  0  0  0  0  0  0
   36.3490   29.9240   50.5800 C   0  0  0  0  0  0  0  0  0  0  0  0
   35.3640   29.0550   50.8820 N   0  0  0  0  0  0  0  0  0  0  0  0
   34.2970   28.8800   50.0390 C   0  0  0  0  0  0  0  0  0  0  0  0
   34.2090   29.5640   48.9060 N   0  0  0  0  0  0  0  0  0  0  0  0
   35.0870   30.9920   47.6420 H   0  0  0  0  0  0  0  0  0  0  0  0
   33.5260   28.1710   50.3210 H   0  0  0  0  0  0  0  0  0  0  0  0
   37.5180   30.1210   51.4910 C   0  0  0  0  0  0  0  0  0  0  0  0
   37.3630   29.5230   52.3930 H   0  0  0  0  0  0  0  0  0  0  0  0
   37.6590   31.1940   51.7250 H   0  0  0  0  0  0  0  0  0  0  0  0
   38.3880   29.6720   50.9650 H   0  0  0  0  0  0  0  0  0  0  0  0
   38.0300   30.2390   47.1780 O   0  0  0  0  0  0  0  0  0  0  0  0
   37.4430   30.1950   46.3540 H   0  0  0  0  0  0  0  0  0  0  0  0
   39.9470   32.0390   46.4370 O   0  0  0  0  0  0  0  0  0  0  0  0
   40.1560   31.0230   44.1700 C   0  0  0  0  0  0  0  0  0  0  0  0
   39.5780   31.8280   45.1330 C   0  0  0  0  0  0  0  0  0  0  0  0
   38.4480   32.5670   44.7980 C   0  0  0  0  0  0  0  0  0  0  0  0
   37.9030   32.4980   43.5140 C   0  0  0  0  0  0  0  0  0  0  0  0
   36.8480   33.0730   42.8990 N   0  0  0  0  0  0  0  0  0  0  0  0
   36.7770   32.6430   41.6210 C   0  0  0  0  0  0  0  0  0  0  0  0
   37.8140   31.7800   41.4340 N   0  0  0  0  0  0  0  0  0  0  0  0
   38.5070   31.6860   42.5850 C   0  0  0  0  0  0  0  0  0  0  0  0
   39.6270   30.9500   42.9060 C   0  0  0  0  0  0  0  0  0  0  0  0
   41.0190   30.4940   44.5180 H   0  0  0  0  0  0  0  0  0  0  0  0
   37.9000   33.2330   45.4520 H   0  0  0  0  0  0  0  0  0  0  0  0
   36.1950   33.7340   43.3300 H   0  0  0  0  0  0  0  0  0  0  0  0
   36.0380   32.9260   40.8720 H   0  0  0  0  0  0  0  0  0  0  0  0
   38.8090   28.1480   43.2790 Cl  0  0  0  0  0  0  0  0  0  0  0  0
   39.9130   28.7610   42.0660 C   0  0  0  0  0  0  0  0  0  0  0  0
   40.2720   30.0860   41.9250 C   0  0  0  0  0  0  0  0  0  0  0  0
   41.1590   30.4690   40.9270 C   0  0  0  0  0  0  0  0  0  0  0  0
   41.3790   31.5190   40.8930 H   0  0  0  0  0  0  0  0  0  0  0  0
   41.6570   29.4850   40.0970 C   0  0  0  0  0  0  0  0  0  0  0  0
   42.3460   29.8740   39.3420 H   0  0  0  0  0  0  0  0  0  0  0  0
   41.3090   28.1570   40.2260 C   0  0  0  0  0  3  0  0  0  0  0  0
   40.4220   27.7890   41.2270 C   0  0  0  0  0  3  0  0  0  0  0  0
  1  2  1  0  0  0  0
  2 11  1  0  0  0  0
  2  3  2  0  0  0  0
  3  7  1  0  0  0  0
  4  3  1  0  0  0  0
  4  8  1  0  0  0  0
  5  4  2  0  0  0  0
  6  1  2  0  0  0  0
  6  5  1  0  0  0  0
  9  5  1  0  0  0  0
 10 15  2  0  0  0  0
 10 11  1  0  0  0  0
 11 12  2  0  0  0  0
 12 13  1  0  0  0  0
 12 18  1  0  0  0  0
 14 17  1  0  0  0  0
 14 13  2  0  0  0  0
 15 14  1  0  0  0  0
 16 10  1  0  0  0  0
 18 20  1  0  0  0  0
 18 19  1  0  0  0  0
 21 18  1  0  0  0  0
 22  1  1  0  0  0  0
 23 22  1  0  0  0  0
 24  6  1  0  0  0  0
 25 34  1  0  0  0  0
 25 26  1  0  0  0  0
 26 24  1  0  0  0  0
 27 26  2  0  0  0  0
 27 35  1  0  0  0  0
 28 27  1  0  0  0  0
 29 36  1  0  0  0  0
 29 28  1  0  0  0  0
 30 29  1  0  0  0  0
 31 30  2  0  0  0  0
 31 32  1  0  0  0  0
 32 33  1  0  0  0  0
 32 28  2  0  0  0  0
 33 25  2  0  0  0  0
 37 30  1  0  0  0  0
 39 38  1  0  0  0  0
 40 39  1  0  0  0  0
 40 33  1  0  0  0  0
 41 40  2  0  0  0  0
 42 41  1  0  0  0  0
 43 45  2  0  0  0  0
 43 41  1  0  0  0  0
 44 43  1  0  0  0  0
 45 46  1  0  0  0  0
 46 39  2  0  0  0  0
M  END
>  <minimizedAffinity>
-7.90006924

>  <minimizedRMSD>
1.05239642

$$$$
