
 OpenBabel03272504333D

 40 43  0  0  0  0  0  0  0  0999 V2000
   35.1220   29.5690   47.6170 C   0  0  0  0  0  0  0  0  0  0  0  0
   35.2810   30.0690   46.3300 C   0  0  0  0  0  0  0  0  0  0  0  0
   34.2440   29.9550   45.4030 C   0  0  0  0  0  0  0  0  0  0  0  0
   33.0970   29.3420   45.8230 N   0  0  0  0  0  0  0  0  0  0  0  0
   32.9740   28.8630   47.0900 C   0  0  0  0  0  0  0  0  0  0  0  0
   33.9720   28.9710   47.9870 N   0  0  0  0  0  0  0  0  0  0  0  0
   36.1900   30.5400   46.0410 H   0  0  0  0  0  0  0  0  0  0  0  0
   34.3090   30.3230   44.3940 H   0  0  0  0  0  0  0  0  0  0  0  0
   36.1500   29.6600   48.6000 N   0  0  0  0  0  0  0  0  0  0  0  0
   36.1090   28.8830   49.8340 C   0  0  0  0  0  0  0  0  0  0  0  0
   36.4670   29.6510   51.0680 C   0  0  0  0  0  0  0  0  0  0  0  0
   37.3290   30.7630   50.9290 N   0  0  0  0  0  0  0  0  0  0  0  0
   37.1870   31.4810   49.6630 C   0  0  0  0  0  0  0  0  0  0  0  0
   37.3170   30.4630   48.5640 C   0  0  0  0  0  0  0  0  0  0  0  0
   36.8180   28.0210   49.6820 H   0  0  0  0  0  0  0  0  0  0  0  0
   35.1050   28.4510   49.9000 H   0  0  0  0  0  0  0  0  0  0  0  0
   35.5220   29.9420   51.5860 H   0  0  0  0  0  0  0  0  0  0  0  0
   36.9600   28.9170   51.7690 H   0  0  0  0  0  0  0  0  0  0  0  0
   38.3160   30.6150   51.1830 H   0  0  0  0  0  0  0  0  0  0  0  0
   38.0740   32.1470   49.5930 H   0  0  0  0  0  0  0  0  0  0  0  0
   36.2340   32.0250   49.5990 H   0  0  0  0  0  0  0  0  0  0  0  0
   38.2300   29.8520   48.7500 H   0  0  0  0  0  0  0  0  0  0  0  0
   37.3980   31.0300   47.6140 H   0  0  0  0  0  0  0  0  0  0  0  0
   31.7270   28.2190   47.4760 C   0  0  0  0  0  0  0  0  0  0  0  0
   31.6040   27.6170   48.7090 C   0  0  0  0  0  0  0  0  0  0  0  0
   30.4440   26.9970   49.1180 C   0  0  0  0  0  0  0  0  0  0  0  0
   29.4110   27.0110   48.2220 N   0  0  0  0  0  0  0  0  0  0  0  0
   29.5400   27.5960   47.0300 C   0  0  0  0  0  0  0  0  0  0  0  0
   30.6860   28.1970   46.6550 N   0  0  0  0  0  0  0  0  0  0  0  0
   32.4620   27.6430   49.3690 H   0  0  0  0  0  0  0  0  0  0  0  0
   30.3740   26.5320   50.0920 H   0  0  0  0  0  0  0  0  0  0  0  0
   27.4810   29.7820   47.4160 Cl  0  0  0  0  0  0  0  0  0  0  0  0
   27.4190   28.5380   46.1670 C   0  0  0  0  0  0  0  0  0  0  0  0
   28.4200   27.5960   46.0950 C   0  0  0  0  0  0  0  0  0  0  0  0
   28.3510   26.6270   45.1060 C   0  0  0  0  0  0  0  0  0  0  0  0
   29.0960   25.8600   44.9890 H   0  0  0  0  0  0  0  0  0  0  0  0
   27.3050   26.5760   44.1840 C   0  0  0  0  0  0  0  0  0  0  0  0
   27.2380   25.8290   43.4090 H   0  0  0  0  0  0  0  0  0  0  0  0
   26.3250   27.5630   44.3170 C   0  0  0  0  0  0  0  0  0  0  0  0
   26.3620   28.5390   45.2860 C   0  0  0  0  0  0  0  0  0  0  0  0
  1  6  1  0  0  0  0
  1  9  1  0  0  0  0
  2  1  2  0  0  0  0
  3  4  2  0  0  0  0
  3  2  1  0  0  0  0
  4  5  1  0  0  0  0
  5 24  1  0  0  0  0
  5  6  2  0  0  0  0
  7  2  1  0  0  0  0
  8  3  1  0  0  0  0
  9 10  1  0  0  0  0
 10 16  1  0  0  0  0
 10 11  1  0  0  0  0
 11 17  1  0  0  0  0
 11 18  1  0  0  0  0
 12 11  1  0  0  0  0
 12 19  1  0  0  0  0
 13 12  1  0  0  0  0
 14  9  1  0  0  0  0
 14 22  1  0  0  0  0
 14 13  1  0  0  0  0
 15 10  1  0  0  0  0
 20 13  1  0  0  0  0
 21 13  1  0  0  0  0
 23 14  1  0  0  0  0
 24 25  1  0  0  0  0
 25 26  2  0  0  0  0
 25 30  1  0  0  0  0
 26 31  1  0  0  0  0
 27 26  1  0  0  0  0
 28 27  2  0  0  0  0
 29 28  1  0  0  0  0
 29 24  2  0  0  0  0
 33 32  1  0  0  0  0
 34 33  1  0  0  0  0
 34 28  1  0  0  0  0
 35 34  2  0  0  0  0
 36 35  1  0  0  0  0
 37 39  2  0  0  0  0
 37 35  1  0  0  0  0
 38 37  1  0  0  0  0
 39 40  1  0  0  0  0
 40 33  2  0  0  0  0
M  END
>  <minimizedAffinity>
-5.61286688

>  <minimizedRMSD>
1.104406

$$$$
