
 OpenBabel03272507193D

 30 32  0  0  1  0  0  0  0  0999 V2000
   38.1540   31.2270   49.4910 C   0  0  0  0  0  0  0  0  0  0  0  0
   38.5180   32.5650   49.5620 C   0  0  0  0  0  0  0  0  0  0  0  0
   38.8460   33.1670   48.3560 C   0  0  0  0  0  0  0  0  0  0  0  0
   38.7980   32.4480   47.1860 N   0  0  0  0  0  0  0  0  0  0  0  0
   38.4340   31.1450   47.1740 C   0  0  0  0  0  0  0  0  0  0  0  0
   38.1080   30.5180   48.3250 N   0  0  0  0  0  0  0  0  0  0  0  0
   38.5380   33.0730   50.4920 H   0  0  0  0  0  0  0  0  0  0  0  0
   39.1420   34.2070   48.3230 H   0  0  0  0  0  0  0  0  0  0  0  0
   41.1280   31.0450   45.6770 Cl  0  0  0  0  0  0  0  0  0  0  0  0
   39.5910   30.7300   44.9280 C   0  0  0  0  0  0  0  0  0  0  0  0
   38.5250   30.8260   45.7750 C   0  0  0  0  0  0  0  0  0  0  0  0
   37.2550   30.5820   45.2780 C   0  0  0  0  0  0  0  0  0  0  0  0
   36.2480   30.5890   45.7280 H   0  0  0  0  0  0  0  0  0  0  0  0
   37.1050   30.2460   43.9320 C   0  0  0  0  0  0  0  0  0  0  0  0
   36.1760   30.0300   43.4120 H   0  0  0  0  0  0  0  0  0  0  0  0
   38.2410   30.1710   43.1450 C   0  0  0  0  0  3  0  0  0  0  0  0
   39.5190   30.4050   43.5930 C   0  0  0  0  0  3  0  0  0  0  0  0
   37.7850   30.5650   50.7820 C   0  0  1  0  0  0  0  0  0  0  0  0
   36.4470   30.0280   51.0190 C   0  0  2  0  0  0  0  0  0  0  0  0
   37.5030   29.0560   50.5960 C   0  0  0  0  0  0  0  0  0  0  0  0
   38.4720   30.7890   51.6390 H   0  0  0  0  0  0  0  0  0  0  0  0
   36.1290   30.1340   52.0990 H   0  0  0  0  0  0  0  0  0  0  0  0
   37.8510   28.3900   51.4200 H   0  0  0  0  0  0  0  0  0  0  0  0
   37.4810   28.6340   49.5920 H   0  0  0  0  0  0  0  0  0  0  0  0
   35.4510   30.3860   50.1170 O   0  0  0  0  0  0  0  0  0  0  0  0
   34.4880   29.6130   49.5510 C   0  0  0  0  0  0  0  0  0  0  0  0
   34.6910   29.0350   48.4450 O   0  0  0  0  0  0  0  0  0  0  0  0
   33.3660   29.6170   50.3840 N   0  0  0  0  0  0  0  0  0  0  0  0
   32.7890   30.4970   50.3580 H   0  0  0  0  0  0  0  0  0  0  0  0
   33.5340   28.6520   50.7580 H   0  0  0  0  0  0  0  0  0  0  0  0
  1  2  1  0  0  0  0
  1 18  1  0  0  0  0
  2  7  1  0  0  0  0
  3  2  2  0  0  0  0
  4  3  1  0  0  0  0
  5  4  2  0  0  0  0
  5  6  1  0  0  0  0
  6  1  2  0  0  0  0
  8  3  1  0  0  0  0
 10  9  1  0  0  0  0
 10 11  1  0  0  0  0
 11  5  1  0  0  0  0
 12 13  1  0  0  0  0
 12 11  2  0  0  0  0
 14 12  1  0  0  0  0
 15 14  1  0  0  0  0
 16 17  1  0  0  0  0
 16 14  2  0  0  0  0
 17 10  2  0  0  0  0
 18 19  1  0  0  0  0
 18 21  1  1  0  0  0
 19 22  1  1  0  0  0
 20 18  1  0  0  0  0
 20 19  1  0  0  0  0
 20 23  1  0  0  0  0
 24 20  1  0  0  0  0
 25 19  1  0  0  0  0
 26 25  1  0  0  0  0
 26 28  1  0  0  0  0
 27 26  2  0  0  0  0
 28 30  1  0  0  0  0
 29 28  1  0  0  0  0
M  END
>  <minimizedAffinity>
-5.97806978

>  <minimizedRMSD>
1.67554879

$$$$
