
 OpenBabel03262521403D

 43 47  0  0  0  0  0  0  0  0999 V2000
   37.3100   30.6460   46.8200 C   0  0  0  0  0  0  0  0  0  0  0  0
   37.8550   30.6140   45.5720 N   0  0  0  0  0  0  0  0  0  0  0  0
   38.8280   31.4930   45.2360 C   0  0  0  0  0  0  0  0  0  0  0  0
   39.3000   32.4200   46.0850 N   0  0  0  0  0  0  0  0  0  0  0  0
   38.7960   32.4910   47.3240 C   0  0  0  0  0  0  0  0  0  0  0  0
   39.2880   33.4420   48.1820 C   0  0  0  0  0  0  0  0  0  0  0  0
   38.7770   33.5290   49.4730 C   0  0  0  0  0  0  0  0  0  0  0  0
   37.7620   32.6430   49.8840 C   0  0  0  0  0  0  0  0  0  0  0  0
   37.3270   31.7220   48.9620 C   0  0  0  0  0  0  0  0  0  0  0  0
   37.8040   31.6070   47.6940 C   0  0  0  0  0  0  0  0  0  0  0  0
   39.1610   31.3460   44.2160 H   0  0  0  0  0  0  0  0  0  0  0  0
   40.0650   34.1110   47.8490 H   0  0  0  0  0  0  0  0  0  0  0  0
   39.2120   34.3100   50.1100 H   0  0  0  0  0  0  0  0  0  0  0  0
   37.4450   32.8010   50.8940 H   0  0  0  0  0  0  0  0  0  0  0  0
   38.2250   29.2330   50.4790 Cl  0  0  0  0  0  0  0  0  0  0  0  0
   36.5550   29.7220   50.2750 C   0  0  0  0  0  0  0  0  0  0  0  0
   36.2810   30.8980   49.5610 C   0  0  0  0  0  0  0  0  0  0  0  0
   34.9690   31.3520   49.3590 C   0  0  0  0  0  0  0  0  0  0  0  0
   34.7800   32.2620   48.8060 H   0  0  0  0  0  0  0  0  0  0  0  0
   33.9220   30.5910   49.8940 C   0  0  0  0  0  0  0  0  0  0  0  0
   32.8970   30.9580   49.7280 H   0  0  0  0  0  0  0  0  0  0  0  0
   34.1920   29.4170   50.6050 C   0  0  0  0  0  0  0  0  0  0  0  0
   35.4880   28.9830   50.7980 C   0  0  0  0  0  0  0  0  0  0  0  0
   36.0390   29.5790   47.4110 S   0  0  0  0  0  0  0  0  0  0  0  0
   33.5380   28.1230   47.8600 F   0  0  0  0  0  0  0  0  0  0  0  0
   33.4880   28.8440   46.7040 C   0  0  0  0  0  0  0  0  0  0  0  0
   32.3590   28.8360   45.8980 C   0  0  0  0  0  0  0  0  0  0  0  0
   32.3500   29.5870   44.7260 C   0  0  0  0  0  0  0  0  0  0  0  0
   33.4630   30.3510   44.3510 C   0  0  0  0  0  0  0  0  0  0  0  0
   34.5520   30.3130   45.2010 C   0  0  0  0  0  0  0  0  0  0  0  0
   34.5940   29.5810   46.3640 C   0  0  0  0  0  0  0  0  0  0  0  0
   31.4670   29.5820   44.0940 H   0  0  0  0  0  0  0  0  0  0  0  0
   33.4200   30.9180   43.4430 H   0  0  0  0  0  0  0  0  0  0  0  0
   35.3650   30.9110   44.8670 H   0  0  0  0  0  0  0  0  0  0  0  0
   31.2210   26.7600   45.8110 C   0  0  0  0  0  0  0  0  0  0  0  0
   31.2600   28.0430   46.3300 C   0  0  0  0  0  0  0  0  0  0  0  0
   30.2290   28.4020   47.2050 C   0  0  0  0  0  0  0  0  0  0  0  0
   29.2610   27.4930   47.4960 N   0  0  0  0  0  0  0  0  0  0  0  0
   29.2720   26.2650   46.9640 C   0  0  0  0  0  0  0  0  0  0  0  0
   30.2360   25.8810   46.1260 N   0  0  0  0  0  0  0  0  0  0  0  0
   31.9510   26.3430   45.1220 H   0  0  0  0  0  0  0  0  0  0  0  0
   30.2970   29.4080   47.5860 H   0  0  0  0  0  0  0  0  0  0  0  0
   28.4570   25.6250   47.2630 H   0  0  0  0  0  0  0  0  0  0  0  0
  1 24  1  0  0  0  0
  1 10  1  0  0  0  0
  2  1  2  0  0  0  0
  3  2  1  0  0  0  0
  3  4  2  0  0  0  0
  4  5  1  0  0  0  0
  5 10  2  0  0  0  0
  5  6  1  0  0  0  0
  6  7  2  0  0  0  0
  7  8  1  0  0  0  0
  7 13  1  0  0  0  0
  8 14  1  0  0  0  0
  9 17  1  0  0  0  0
  9  8  2  0  0  0  0
 10  9  1  0  0  0  0
 11  3  1  0  0  0  0
 12  6  1  0  0  0  0
 16 15  1  0  0  0  0
 16 23  1  0  0  0  0
 17 16  2  0  0  0  0
 18 17  1  0  0  0  0
 18 20  2  0  0  0  0
 19 18  1  0  0  0  0
 20 22  1  0  0  0  0
 21 20  1  0  0  0  0
 22 23  2  0  0  0  0
 26 25  1  0  0  0  0
 27 36  1  0  0  0  0
 27 26  2  0  0  0  0
 28 27  1  0  0  0  0
 29 28  2  0  0  0  0
 29 30  1  0  0  0  0
 30 31  2  0  0  0  0
 31 26  1  0  0  0  0
 31 24  1  0  0  0  0
 32 28  1  0  0  0  0
 33 29  1  0  0  0  0
 34 30  1  0  0  0  0
 35 40  2  0  0  0  0
 35 36  1  0  0  0  0
 36 37  2  0  0  0  0
 37 38  1  0  0  0  0
 37 42  1  0  0  0  0
 39 43  1  0  0  0  0
 39 38  2  0  0  0  0
 40 39  1  0  0  0  0
 41 35  1  0  0  0  0
M  END
>  <minimizedAffinity>
-5.74129677

>  <minimizedRMSD>
1.29329515

$$$$
