
 OpenBabel03272508373D

 44 47  0  0  1  0  0  0  0  0999 V2000
   40.4400   31.8140   44.5650 C   0  0  0  0  0  0  0  0  0  0  0  0
   40.2680   30.7380   44.8790 H   0  0  0  0  0  0  0  0  0  0  0  0
   41.5530   31.8930   44.6960 H   0  0  0  0  0  0  0  0  0  0  0  0
   40.0320   31.8480   43.2040 N   0  0  0  0  0  0  0  0  0  0  0  0
   39.4000   33.0380   42.7860 C   0  0  0  0  0  0  0  0  0  0  0  0
   37.9930   32.9310   42.3390 C   0  0  0  0  0  0  0  0  0  0  0  0
   37.7570   31.7860   41.6080 O   0  0  0  0  0  0  0  0  0  0  0  0
   38.1150   30.6890   42.3110 C   0  0  0  0  0  0  0  0  0  0  0  0
   39.5910   30.6640   42.6180 C   0  0  1  0  0  0  0  0  0  0  0  0
   39.6280   33.9790   43.2960 H   0  0  0  0  0  0  0  0  0  0  0  0
   39.9520   33.2430   41.8350 H   0  0  0  0  0  0  0  0  0  0  0  0
   37.1930   33.3430   42.9420 H   0  0  0  0  0  0  0  0  0  0  0  0
   37.8810   33.7010   41.4820 H   0  0  0  0  0  0  0  0  0  0  0  0
   37.9330   29.8590   41.5860 H   0  0  0  0  0  0  0  0  0  0  0  0
   37.4710   30.3860   43.1380 H   0  0  0  0  0  0  0  0  0  0  0  0
   39.5980   29.9270   43.5300 H   0  0  0  0  0  0  0  0  0  0  0  0
   39.9320   27.4660   42.4440 Cl  0  0  0  0  0  0  0  0  0  0  0  0
   40.6320   28.6470   41.3680 C   0  0  0  0  0  0  0  0  0  0  0  0
   40.3190   29.9380   41.6190 C   0  0  0  0  0  0  0  0  0  0  0  0
   40.9010   30.7940   40.6620 C   0  0  0  0  0  0  0  0  0  0  0  0
   40.7950   31.8940   40.6370 H   0  0  0  0  0  0  0  0  0  0  0  0
   41.6870   30.3750   39.6100 C   0  0  0  0  0  0  0  0  0  0  0  0
   42.1380   31.0180   38.8700 H   0  0  0  0  0  0  0  0  0  0  0  0
   41.9370   29.0320   39.4580 C   0  0  0  0  0  0  0  0  0  0  0  0
   41.4010   28.1370   40.3540 C   0  0  0  0  0  0  0  0  0  0  0  0
   39.7780   32.6820   45.5280 C   0  0  0  0  0  0  0  0  0  0  0  0
   39.2640   33.5900   45.2690 H   0  0  0  0  0  0  0  0  0  0  0  0
   40.5270   33.0360   46.3130 H   0  0  0  0  0  0  0  0  0  0  0  0
   37.6960   31.0000   47.9150 C   0  0  0  0  0  0  0  0  0  0  0  0
   36.9570   30.8130   46.7610 C   0  0  0  0  0  0  0  0  0  0  0  0
   37.6680   31.4290   45.7250 C   0  0  0  0  0  0  0  0  0  0  0  0
   38.7620   31.9410   46.2780 N   0  0  0  0  0  0  0  0  0  0  0  0
   38.7780   31.6840   47.5870 N   0  0  0  0  0  0  0  0  0  0  0  0
   35.9910   30.2750   46.6880 H   0  0  0  0  0  0  0  0  0  0  0  0
   37.2470   31.3750   44.7930 H   0  0  0  0  0  0  0  0  0  0  0  0
   37.4410   30.1600   51.5650 C   0  0  0  0  0  0  0  0  0  0  0  0
   37.9470   30.6960   50.3870 C   0  0  0  0  0  0  0  0  0  0  0  0
   37.2740   30.4940   49.1950 C   0  0  0  0  0  0  0  0  0  0  0  0
   36.1310   29.7580   49.2910 N   0  0  0  0  0  0  0  0  0  0  0  0
   35.6490   29.2440   50.4350 C   0  0  0  0  0  0  0  0  0  0  0  0
   36.3170   29.4520   51.5720 N   0  0  0  0  0  0  0  0  0  0  0  0
   38.0760   30.4020   52.4050 H   0  0  0  0  0  0  0  0  0  0  0  0
   38.8530   31.2810   50.2990 H   0  0  0  0  0  0  0  0  0  0  0  0
   34.7340   28.6670   50.4470 H   0  0  0  0  0  0  0  0  0  0  0  0
  1  3  1  0  0  0  0
  1  2  1  0  0  0  0
  1 26  1  0  0  0  0
  4  1  1  0  0  0  0
  5  4  1  0  0  0  0
  5 10  1  0  0  0  0
  6  5  1  0  0  0  0
  6 12  1  0  0  0  0
  7  8  1  0  0  0  0
  7  6  1  0  0  0  0
  8  9  1  0  0  0  0
  8 15  1  0  0  0  0
  9  4  1  0  0  0  0
  9 16  1  1  0  0  0
 11  5  1  0  0  0  0
 13  6  1  0  0  0  0
 14  8  1  0  0  0  0
 18 19  1  0  0  0  0
 18 17  1  0  0  0  0
 19  9  1  0  0  0  0
 20 19  2  0  0  0  0
 21 20  1  0  0  0  0
 22 20  1  0  0  0  0
 23 22  1  0  0  0  0
 24 22  2  0  0  0  0
 24 25  1  0  0  0  0
 25 18  2  0  0  0  0
 26 32  1  0  0  0  0
 26 28  1  0  0  0  0
 27 26  1  0  0  0  0
 29 38  1  0  0  0  0
 30 29  1  0  0  0  0
 31 32  1  0  0  0  0
 31 30  2  0  0  0  0
 32 33  1  0  0  0  0
 33 29  2  0  0  0  0
 34 30  1  0  0  0  0
 35 31  1  0  0  0  0
 36 41  1  0  0  0  0
 36 42  1  0  0  0  0
 37 36  2  0  0  0  0
 38 39  2  0  0  0  0
 38 37  1  0  0  0  0
 39 40  1  0  0  0  0
 40 44  1  0  0  0  0
 40 41  2  0  0  0  0
 43 37  1  0  0  0  0
M  END
>  <minimizedAffinity>
-5.94598913

>  <minimizedRMSD>
1.0310241

$$$$
