
 OpenBabel03272510163D

 28 30  0  0  0  0  0  0  0  0999 V2000
   37.2050   29.2500   50.9240 Br  0  0  0  0  0  0  0  0  0  0  0  0
   35.9430   29.2790   49.4850 C   0  0  0  0  0  0  0  0  0  0  0  0
   35.9970   30.2630   48.5080 C   0  0  0  0  0  0  0  0  0  0  0  0
   35.0550   30.2090   47.5140 C   0  0  0  0  0  0  0  0  0  0  0  0
   34.0670   29.2310   47.4410 C   0  0  0  0  0  0  0  0  0  0  0  0
   34.0560   28.2810   48.4280 C   0  0  0  0  0  0  0  0  0  0  0  0
   34.9900   28.3100   49.4420 C   0  0  0  0  0  0  0  0  0  0  0  0
   35.1260   30.9990   46.7600 H   0  0  0  0  0  0  0  0  0  0  0  0
   33.3160   27.4930   48.4350 H   0  0  0  0  0  0  0  0  0  0  0  0
   34.9520   27.5470   50.2040 H   0  0  0  0  0  0  0  0  0  0  0  0
   37.8540   33.1910   49.6210 C   0  0  0  0  0  0  0  0  0  0  0  0
   38.9270   33.2880   48.7030 C   0  0  0  0  0  0  0  0  0  0  0  0
   38.9960   32.3290   47.7000 C   0  0  0  0  0  0  0  0  0  0  0  0
   38.0330   31.3450   47.6450 N   0  0  0  0  0  0  0  0  0  0  0  0
   37.0230   31.3030   48.5590 C   0  0  0  0  0  0  0  0  0  0  0  0
   36.9400   32.2220   49.5350 N   0  0  0  0  0  0  0  0  0  0  0  0
   37.8240   33.9510   50.3930 H   0  0  0  0  0  0  0  0  0  0  0  0
   39.6510   34.0840   48.7990 H   0  0  0  0  0  0  0  0  0  0  0  0
   39.8000   32.3680   46.9780 H   0  0  0  0  0  0  0  0  0  0  0  0
   35.1430   28.9680   44.5940 Cl  0  0  0  0  0  0  0  0  0  0  0  0
   33.4700   29.1290   45.0300 C   0  0  0  0  0  0  0  0  0  0  0  0
   33.0990   29.2410   46.3500 C   0  0  0  0  0  0  0  0  0  0  0  0
   31.7400   29.3670   46.6410 C   0  0  0  0  0  0  0  0  0  0  0  0
   31.4430   29.4560   47.6950 H   0  0  0  0  0  0  0  0  0  0  0  0
   30.7580   29.3850   45.6770 C   0  0  0  0  0  0  0  0  0  0  0  0
   29.7070   29.4830   45.9080 H   0  0  0  0  0  0  0  0  0  0  0  0
   31.1890   29.2690   44.3690 C   0  0  0  0  0  3  0  0  0  0  0  0
   32.5150   29.1400   44.0080 C   0  0  0  0  0  3  0  0  0  0  0  0
  2  1  1  0  0  0  0
  3 15  1  0  0  0  0
  3  2  2  0  0  0  0
  4  3  1  0  0  0  0
  5  4  2  0  0  0  0
  5  6  1  0  0  0  0
  6  9  1  0  0  0  0
  6  7  2  0  0  0  0
  7  2  1  0  0  0  0
  7 10  1  0  0  0  0
  8  4  1  0  0  0  0
 11 17  1  0  0  0  0
 12 18  1  0  0  0  0
 12 11  2  0  0  0  0
 13 12  1  0  0  0  0
 14 13  2  0  0  0  0
 14 15  1  0  0  0  0
 15 16  2  0  0  0  0
 16 11  1  0  0  0  0
 19 13  1  0  0  0  0
 20 21  1  0  0  0  0
 21 22  1  0  0  0  0
 22 23  2  0  0  0  0
 22  5  1  0  0  0  0
 23 24  1  0  0  0  0
 25 26  1  0  0  0  0
 25 23  1  0  0  0  0
 27 25  2  0  0  0  0
 28 27  1  0  0  0  0
 28 21  2  0  0  0  0
M  END
>  <minimizedAffinity>
-5.74865866

>  <minimizedRMSD>
0.824689031

$$$$
