
 OpenBabel03272508373D

 44 47  0  0  1  0  0  0  0  0999 V2000
   40.2640   32.1390   44.0100 C   0  0  0  0  0  0  0  0  0  0  0  0
   40.0860   31.0420   44.2380 H   0  0  0  0  0  0  0  0  0  0  0  0
   41.3810   32.1950   44.1200 H   0  0  0  0  0  0  0  0  0  0  0  0
   39.8240   32.2900   42.6670 N   0  0  0  0  0  0  0  0  0  0  0  0
   38.9810   33.3940   42.4220 C   0  0  0  0  0  0  0  0  0  0  0  0
   37.6050   33.0990   41.9610 C   0  0  0  0  0  0  0  0  0  0  0  0
   37.5590   32.0460   41.0730 O   0  0  0  0  0  0  0  0  0  0  0  0
   38.1240   30.9420   41.6140 C   0  0  0  0  0  0  0  0  0  0  0  0
   39.5880   31.1400   41.9170 C   0  0  1  0  0  0  0  0  0  0  0  0
   39.0500   34.2790   43.0610 H   0  0  0  0  0  0  0  0  0  0  0  0
   39.4650   33.8270   41.5100 H   0  0  0  0  0  0  0  0  0  0  0  0
   36.7590   33.2720   42.6160 H   0  0  0  0  0  0  0  0  0  0  0  0
   37.3370   33.9500   41.2220 H   0  0  0  0  0  0  0  0  0  0  0  0
   38.0750   30.2040   40.7770 H   0  0  0  0  0  0  0  0  0  0  0  0
   37.5640   30.4160   42.3880 H   0  0  0  0  0  0  0  0  0  0  0  0
   39.7480   30.2960   42.7150 H   0  0  0  0  0  0  0  0  0  0  0  0
   41.8510   28.8510   42.0200 Cl  0  0  0  0  0  0  0  0  0  0  0  0
   41.4210   29.8270   40.6400 C   0  0  0  0  0  0  0  0  0  0  0  0
   40.4100   30.7050   40.8260 C   0  0  0  0  0  0  0  0  0  0  0  0
   40.1210   31.4020   39.6350 C   0  0  0  0  0  0  0  0  0  0  0  0
   39.3350   32.1700   39.5160 H   0  0  0  0  0  0  0  0  0  0  0  0
   40.7800   31.2170   38.4390 C   0  0  0  0  0  0  0  0  0  0  0  0
   40.5700   31.7430   37.5210 H   0  0  0  0  0  0  0  0  0  0  0  0
   41.7960   30.2930   38.3730 C   0  0  0  0  0  3  0  0  0  0  0  0
   42.1330   29.5740   39.4950 C   0  0  0  0  0  3  0  0  0  0  0  0
   39.6360   32.9310   45.0580 C   0  0  0  0  0  0  0  0  0  0  0  0
   39.0550   33.8170   44.8780 H   0  0  0  0  0  0  0  0  0  0  0  0
   40.4260   33.2980   45.7950 H   0  0  0  0  0  0  0  0  0  0  0  0
   37.8210   31.0860   47.5400 C   0  0  0  0  0  0  0  0  0  0  0  0
   37.0590   30.8150   46.4190 C   0  0  0  0  0  0  0  0  0  0  0  0
   37.6660   31.4840   45.3500 C   0  0  0  0  0  0  0  0  0  0  0  0
   38.7260   32.1050   45.8540 N   0  0  0  0  0  0  0  0  0  0  0  0
   38.8190   31.8670   47.1640 N   0  0  0  0  0  0  0  0  0  0  0  0
   36.1470   30.1860   46.3900 H   0  0  0  0  0  0  0  0  0  0  0  0
   37.2160   31.3790   44.4360 H   0  0  0  0  0  0  0  0  0  0  0  0
   37.6860   30.3890   51.2270 C   0  0  0  0  0  0  0  0  0  0  0  0
   38.0780   30.9720   50.0280 C   0  0  0  0  0  0  0  0  0  0  0  0
   37.5000   30.5580   48.8410 C   0  0  0  0  0  0  0  0  0  0  0  0
   36.5630   29.5770   48.9620 N   0  0  0  0  0  0  0  0  0  0  0  0
   36.1890   29.0190   50.1270 C   0  0  0  0  0  0  0  0  0  0  0  0
   36.7610   29.4350   51.2580 N   0  0  0  0  0  0  0  0  0  0  0  0
   38.2250   30.8170   52.0600 H   0  0  0  0  0  0  0  0  0  0  0  0
   38.8210   31.7500   49.9200 H   0  0  0  0  0  0  0  0  0  0  0  0
   35.4360   28.2430   50.1580 H   0  0  0  0  0  0  0  0  0  0  0  0
  1  3  1  0  0  0  0
  1  2  1  0  0  0  0
  1 26  1  0  0  0  0
  4  1  1  0  0  0  0
  5  4  1  0  0  0  0
  5 10  1  0  0  0  0
  6  5  1  0  0  0  0
  6 12  1  0  0  0  0
  7  8  1  0  0  0  0
  7  6  1  0  0  0  0
  8  9  1  0  0  0  0
  8 15  1  0  0  0  0
  9  4  1  0  0  0  0
  9 16  1  1  0  0  0
 11  5  1  0  0  0  0
 13  6  1  0  0  0  0
 14  8  1  0  0  0  0
 18 19  1  0  0  0  0
 18 17  1  0  0  0  0
 19  9  1  0  0  0  0
 20 19  2  0  0  0  0
 21 20  1  0  0  0  0
 22 20  1  0  0  0  0
 23 22  1  0  0  0  0
 24 22  2  0  0  0  0
 24 25  1  0  0  0  0
 25 18  2  0  0  0  0
 26 28  1  0  0  0  0
 26 32  1  0  0  0  0
 27 26  1  0  0  0  0
 29 38  1  0  0  0  0
 30 29  1  0  0  0  0
 31 32  1  0  0  0  0
 31 30  2  0  0  0  0
 32 33  1  0  0  0  0
 33 29  2  0  0  0  0
 34 30  1  0  0  0  0
 35 31  1  0  0  0  0
 36 41  1  0  0  0  0
 36 42  1  0  0  0  0
 37 36  2  0  0  0  0
 38 39  2  0  0  0  0
 38 37  1  0  0  0  0
 39 40  1  0  0  0  0
 40 44  1  0  0  0  0
 40 41  2  0  0  0  0
 43 37  1  0  0  0  0
M  END
>  <minimizedAffinity>
-5.68044996

>  <minimizedRMSD>
1.39235032

$$$$
