
 OpenBabel03272506173D

 34 36  0  0  0  0  0  0  0  0999 V2000
   34.6530   29.6140   48.9290 C   0  0  0  0  0  0  0  0  0  0  0  0
   34.2540   30.3320   47.7910 C   0  0  0  0  0  0  0  0  0  0  0  0
   33.4880   29.6720   46.8430 C   0  0  0  0  0  0  0  0  0  0  0  0
   33.1570   28.3500   47.0670 N   0  0  0  0  0  0  0  0  0  0  0  0
   33.5570   27.6850   48.1760 C   0  0  0  0  0  0  0  0  0  0  0  0
   34.2980   28.3160   49.0920 N   0  0  0  0  0  0  0  0  0  0  0  0
   34.4710   31.3400   47.5700 H   0  0  0  0  0  0  0  0  0  0  0  0
   33.2550   26.6550   48.2710 H   0  0  0  0  0  0  0  0  0  0  0  0
   35.4730   30.3500   49.9390 C   0  0  0  0  0  0  0  0  0  0  0  0
   36.4650   31.2530   49.2360 C   0  0  0  0  0  0  0  0  0  0  0  0
   37.8810   30.7720   49.3730 C   0  0  0  0  0  0  0  0  0  0  0  0
   38.2810   30.6070   50.8210 C   0  0  0  0  0  0  0  0  0  0  0  0
   37.2590   29.8910   51.6400 C   0  0  0  0  0  0  0  0  0  0  0  0
   36.1070   29.3430   50.8250 C   0  0  0  0  0  0  0  0  0  0  0  0
   34.7600   31.0000   50.4840 H   0  0  0  0  0  0  0  0  0  0  0  0
   36.4330   32.2820   49.6850 H   0  0  0  0  0  0  0  0  0  0  0  0
   36.2310   31.3580   48.1750 H   0  0  0  0  0  0  0  0  0  0  0  0
   38.5450   31.5270   48.9340 H   0  0  0  0  0  0  0  0  0  0  0  0
   37.9510   29.8170   48.7950 H   0  0  0  0  0  0  0  0  0  0  0  0
   38.4020   31.6190   51.2460 H   0  0  0  0  0  0  0  0  0  0  0  0
   39.2800   30.1000   50.8160 H   0  0  0  0  0  0  0  0  0  0  0  0
   37.7590   28.9950   52.0810 H   0  0  0  0  0  0  0  0  0  0  0  0
   36.9100   30.4790   52.5200 H   0  0  0  0  0  0  0  0  0  0  0  0
   36.4220   28.4180   50.3180 H   0  0  0  0  0  0  0  0  0  0  0  0
   35.3390   29.0240   51.5770 H   0  0  0  0  0  0  0  0  0  0  0  0
   35.2710   29.3670   44.4070 Cl  0  0  0  0  0  0  0  0  0  0  0  0
   33.7320   30.2070   44.4530 C   0  0  0  0  0  0  0  0  0  0  0  0
   33.0030   30.2850   45.6170 C   0  0  0  0  0  0  0  0  0  0  0  0
   31.8360   30.9660   45.4960 C   0  0  0  0  0  0  0  0  0  0  0  0
   31.1890   31.0850   46.3500 H   0  0  0  0  0  0  0  0  0  0  0  0
   31.3720   31.5490   44.3310 C   0  0  0  0  0  0  0  0  0  0  0  0
   30.4260   32.0810   44.3030 H   0  0  0  0  0  0  0  0  0  0  0  0
   32.1210   31.4520   43.1950 C   0  0  0  0  0  0  0  0  0  0  0  0
   33.3160   30.7700   43.2670 C   0  0  0  0  0  0  0  0  0  0  0  0
  1  6  1  0  0  0  0
  1  9  1  0  0  0  0
  2  1  2  0  0  0  0
  3  4  2  0  0  0  0
  3  2  1  0  0  0  0
  4  5  1  0  0  0  0
  5  8  1  0  0  0  0
  5  6  2  0  0  0  0
  7  2  1  0  0  0  0
  9 15  1  0  0  0  0
  9 14  1  0  0  0  0
 10 11  1  0  0  0  0
 10 16  1  0  0  0  0
 10  9  1  0  0  0  0
 11 12  1  0  0  0  0
 12 20  1  0  0  0  0
 12 13  1  0  0  0  0
 13 22  1  0  0  0  0
 13 23  1  0  0  0  0
 14 25  1  0  0  0  0
 14 13  1  0  0  0  0
 17 10  1  0  0  0  0
 18 11  1  0  0  0  0
 19 11  1  0  0  0  0
 21 12  1  0  0  0  0
 24 14  1  0  0  0  0
 26 27  1  0  0  0  0
 27 28  1  0  0  0  0
 28  3  1  0  0  0  0
 29 28  2  0  0  0  0
 29 30  1  0  0  0  0
 31 29  1  0  0  0  0
 32 31  1  0  0  0  0
 33 34  1  0  0  0  0
 33 31  2  0  0  0  0
 34 27  2  0  0  0  0
M  END
>  <minimizedAffinity>
-5.44721985

>  <minimizedRMSD>
1.11137867

$$$$
