
 OpenBabel03272503543D

 44 47  0  0  1  0  0  0  0  0999 V2000
   36.4890   30.2430   45.8560 C   0  0  1  0  0  0  0  0  0  0  0  0
   34.9930   30.3250   46.2650 C   0  0  0  0  0  0  0  0  0  0  0  0
   34.3760   29.0650   45.6390 C   0  0  0  0  0  0  0  0  0  0  0  0
   34.3500   29.2830   44.1660 C   0  0  0  0  0  0  0  0  0  0  0  0
   35.7490   29.4850   43.6400 C   0  0  0  0  0  0  0  0  0  0  0  0
   36.4880   30.5660   44.3890 C   0  0  2  0  0  0  0  0  0  0  0  0
   36.7380   29.2070   46.0690 H   0  0  0  0  0  0  0  0  0  0  0  0
   34.4940   31.1820   45.7930 H   0  0  0  0  0  0  0  0  0  0  0  0
   34.8730   30.3400   47.3510 H   0  0  0  0  0  0  0  0  0  0  0  0
   33.4170   28.7960   46.0720 H   0  0  0  0  0  0  0  0  0  0  0  0
   35.1110   28.2410   45.8430 H   0  0  0  0  0  0  0  0  0  0  0  0
   33.9350   28.3920   43.6570 H   0  0  0  0  0  0  0  0  0  0  0  0
   33.7470   30.2120   43.9730 H   0  0  0  0  0  0  0  0  0  0  0  0
   36.2930   28.5320   43.7540 H   0  0  0  0  0  0  0  0  0  0  0  0
   35.7300   29.7810   42.5590 H   0  0  0  0  0  0  0  0  0  0  0  0
   35.9600   31.5030   44.1500 H   0  0  0  0  0  0  0  0  0  0  0  0
   37.3140   31.2150   48.0230 C   0  0  0  0  0  0  0  0  0  0  0  0
   38.1840   32.0600   48.6980 C   0  0  0  0  0  0  0  0  0  0  0  0
   39.0860   32.8680   47.9940 C   0  0  0  0  0  0  0  0  0  0  0  0
   39.0650   32.7820   46.6090 C   0  0  0  0  0  0  0  0  0  0  0  0
   38.2110   31.9530   45.9290 C   0  0  0  0  0  0  0  0  0  0  0  0
   37.3150   31.1490   46.6610 C   0  0  0  0  0  0  0  0  0  0  0  0
   38.1970   32.1230   49.7810 H   0  0  0  0  0  0  0  0  0  0  0  0
   39.7440   33.5090   48.5660 H   0  0  0  0  0  0  0  0  0  0  0  0
   39.7870   33.4340   46.1390 H   0  0  0  0  0  0  0  0  0  0  0  0
   38.2840   31.9710   44.8720 H   0  0  0  0  0  0  0  0  0  0  0  0
   35.7230   28.5280   50.1520 C   0  0  0  0  0  0  0  0  0  0  0  0
   36.6810   29.1650   49.3280 C   0  0  0  0  0  0  0  0  0  0  0  0
   36.4140   30.4520   48.8660 C   0  0  0  0  0  0  0  0  0  0  0  0
   35.2430   30.9980   49.2460 N   0  0  0  0  0  0  0  0  0  0  0  0
   34.3380   30.3870   50.0280 C   0  0  0  0  0  0  0  0  0  0  0  0
   34.5770   29.1640   50.4760 N   0  0  0  0  0  0  0  0  0  0  0  0
   36.0630   27.5410   50.4340 H   0  0  0  0  0  0  0  0  0  0  0  0
   37.6180   28.7150   49.0300 H   0  0  0  0  0  0  0  0  0  0  0  0
   33.4150   30.8550   50.3100 H   0  0  0  0  0  0  0  0  0  0  0  0
   37.1080   32.9400   42.6450 Cl  0  0  0  0  0  0  0  0  0  0  0  0
   38.2320   31.6410   43.0180 C   0  0  0  0  0  0  0  0  0  0  0  0
   37.8720   30.5860   43.8260 C   0  0  0  0  0  0  0  0  0  0  0  0
   38.7730   29.5900   44.0980 C   0  0  0  0  0  0  0  0  0  0  0  0
   38.4980   28.7750   44.7220 H   0  0  0  0  0  0  0  0  0  0  0  0
   40.0570   29.6490   43.5510 C   0  0  0  0  0  0  0  0  0  0  0  0
   40.8110   28.8690   43.7440 H   0  0  0  0  0  0  0  0  0  0  0  0
   40.3970   30.7160   42.7420 C   0  0  0  0  0  3  0  0  0  0  0  0
   39.4900   31.7410   42.4560 C   0  0  0  0  0  3  0  0  0  0  0  0
  1  7  1  1  0  0  0
  1  2  1  0  0  0  0
  1 22  1  0  0  0  0
  2  9  1  0  0  0  0
  3 11  1  0  0  0  0
  3 10  1  0  0  0  0
  3  2  1  0  0  0  0
  4  3  1  0  0  0  0
  5 14  1  0  0  0  0
  5  4  1  0  0  0  0
  5  6  1  0  0  0  0
  6 16  1  6  0  0  0
  6  1  1  0  0  0  0
  8  2  1  0  0  0  0
 12  4  1  0  0  0  0
 13  4  1  0  0  0  0
 15  5  1  0  0  0  0
 17 18  1  0  0  0  0
 17 29  1  0  0  0  0
 18 23  1  0  0  0  0
 19 24  1  0  0  0  0
 19 18  2  0  0  0  0
 20 19  1  0  0  0  0
 21 20  2  0  0  0  0
 21 22  1  0  0  0  0
 22 17  2  0  0  0  0
 25 20  1  0  0  0  0
 26 21  1  0  0  0  0
 27 33  1  0  0  0  0
 27 32  1  0  0  0  0
 28 27  2  0  0  0  0
 29 30  2  0  0  0  0
 29 28  1  0  0  0  0
 30 31  1  0  0  0  0
 31 35  1  0  0  0  0
 31 32  2  0  0  0  0
 34 28  1  0  0  0  0
 36 37  1  0  0  0  0
 37 38  1  0  0  0  0
 38 39  2  0  0  0  0
 38  6  1  0  0  0  0
 39 40  1  0  0  0  0
 41 42  1  0  0  0  0
 41 39  1  0  0  0  0
 43 41  2  0  0  0  0
 44 43  1  0  0  0  0
 44 37  2  0  0  0  0
M  END
>  <minimizedAffinity>
-5.48945522

>  <minimizedRMSD>
3.33401418

$$$$
