
 OpenBabel03272502363D

 36 38  0  0  1  0  0  0  0  0999 V2000
   37.5880   26.9420   33.1960 C   0  0  0  0  0  3  0  0  0  0  0  0
   37.1140   25.7510   33.3890 C   0  0  0  0  0  3  0  0  0  0  0  0
   35.6760   29.6620   31.5140 C   0  0  0  0  0  0  0  0  0  0  0  0
   36.4760   28.5580   31.7560 C   0  0  0  0  0  0  0  0  0  0  0  0
   36.7370   28.0920   33.0180 C   0  0  0  0  0  0  0  0  0  0  0  0
   36.1680   28.7690   34.0340 N   0  0  0  0  0  0  0  0  0  0  0  0
   35.3970   29.8280   33.8190 C   0  0  0  0  0  0  0  0  0  0  0  0
   35.1400   30.2880   32.5840 N   0  0  0  0  0  0  0  0  0  0  0  0
   35.4460   30.0590   30.5390 H   0  0  0  0  0  0  0  0  0  0  0  0
   36.8440   28.1420   30.8310 H   0  0  0  0  0  0  0  0  0  0  0  0
   32.4740   29.2490   34.3940 Cl  0  0  0  0  0  0  0  0  0  0  0  0
   33.4710   30.3360   35.2970 C   0  0  0  0  0  0  0  0  0  0  0  0
   34.8020   30.5310   34.9510 C   0  0  0  0  0  0  0  0  0  0  0  0
   35.5150   31.4090   35.7210 C   0  0  0  0  0  0  0  0  0  0  0  0
   36.5570   31.5450   35.4290 H   0  0  0  0  0  0  0  0  0  0  0  0
   35.0540   32.1230   36.8080 C   0  0  0  0  0  0  0  0  0  0  0  0
   35.6900   32.8000   37.3640 H   0  0  0  0  0  0  0  0  0  0  0  0
   33.7200   31.9000   37.1220 C   0  0  0  0  0  3  0  0  0  0  0  0
   32.9530   31.0310   36.3870 C   0  0  0  0  0  3  0  0  0  0  0  0
   38.0960   24.6270   33.5510 C   0  0  1  0  0  0  0  0  0  0  0  0
   39.0560   24.9200   33.1030 H   0  0  0  0  0  0  0  0  0  0  0  0
   38.2520   24.3120   34.9830 C   0  0  0  0  0  0  0  0  0  0  0  0
   39.0300   23.1460   35.2140 C   0  0  0  0  0  0  0  0  0  0  0  0
   39.3100   22.6590   36.4650 C   0  0  0  0  0  0  0  0  0  0  0  0
   38.8250   23.3080   37.6150 C   0  0  0  0  0  0  0  0  0  0  0  0
   38.0760   24.4350   37.2980 C   0  0  0  0  0  0  0  0  0  0  0  0
   37.7890   24.9310   36.0900 N   0  0  0  0  0  0  0  0  0  0  0  0
   39.5170   22.4720   34.4930 H   0  0  0  0  0  0  0  0  0  0  0  0
   39.8920   21.7820   36.7120 H   0  0  0  0  0  0  0  0  0  0  0  0
   38.9530   23.0580   38.6450 H   0  0  0  0  0  0  0  0  0  0  0  0
   37.6300   25.0500   38.0840 H   0  0  0  0  0  0  0  0  0  0  0  0
   37.3560   23.1440   32.7870 S   0  0  0  0  0  0  0  0  0  0  0  0
   36.3180   23.5830   31.4050 C   0  0  0  0  0  0  0  0  0  0  0  0
   35.1210   24.1690   31.7830 F   0  0  0  0  0  0  0  0  0  0  0  0
   36.9970   24.3570   30.4820 F   0  0  0  0  0  0  0  0  0  0  0  0
   36.0080   22.3740   30.7440 F   0  0  0  0  0  0  0  0  0  0  0  0
  1  2  2  0  0  0  0
  2 20  1  0  0  0  0
  3  4  2  0  0  0  0
  3  8  1  0  0  0  0
  4  5  1  0  0  0  0
  5  1  1  0  0  0  0
  5  6  2  0  0  0  0
  7  6  1  0  0  0  0
  7 13  1  0  0  0  0
  8  7  2  0  0  0  0
  9  3  1  0  0  0  0
 10  4  1  0  0  0  0
 11 12  1  0  0  0  0
 12 19  1  0  0  0  0
 13 12  2  0  0  0  0
 13 14  1  0  0  0  0
 14 16  2  0  0  0  0
 15 14  1  0  0  0  0
 16 18  1  0  0  0  0
 16 17  1  0  0  0  0
 19 18  2  0  0  0  0
 20 21  1  6  0  0  0
 20 22  1  0  0  0  0
 22 23  2  0  0  0  0
 22 27  1  0  0  0  0
 23 24  1  0  0  0  0
 24 29  1  0  0  0  0
 24 25  2  0  0  0  0
 25 30  1  0  0  0  0
 26 25  1  0  0  0  0
 26 31  1  0  0  0  0
 27 26  2  0  0  0  0
 28 23  1  0  0  0  0
 32 20  1  0  0  0  0
 33 34  1  0  0  0  0
 33 32  1  0  0  0  0
 35 33  1  0  0  0  0
 36 33  1  0  0  0  0
M  END
>  <minimizedAffinity>
-6.30884981

$$$$

 OpenBabel03272502363D

 36 38  0  0  1  0  0  0  0  0999 V2000
   37.5590   27.2210   33.3680 C   0  0  0  0  0  3  0  0  0  0  0  0
   37.2160   26.0760   33.8680 C   0  0  0  0  0  3  0  0  0  0  0  0
   35.5670   29.9160   31.7390 C   0  0  0  0  0  0  0  0  0  0  0  0
   36.4440   28.8690   31.9670 C   0  0  0  0  0  0  0  0  0  0  0  0
   36.6210   28.3030   33.2030 C   0  0  0  0  0  0  0  0  0  0  0  0
   35.8890   28.8220   34.2070 N   0  0  0  0  0  0  0  0  0  0  0  0
   35.0430   29.8250   34.0060 C   0  0  0  0  0  0  0  0  0  0  0  0
   34.8670   30.3820   32.7970 N   0  0  0  0  0  0  0  0  0  0  0  0
   35.3990   30.3870   30.7850 H   0  0  0  0  0  0  0  0  0  0  0  0
   36.9430   28.5820   31.0540 H   0  0  0  0  0  0  0  0  0  0  0  0
   36.3420   32.0380   35.6290 Cl  0  0  0  0  0  0  0  0  0  0  0  0
   34.7750   31.3690   35.9290 C   0  0  0  0  0  0  0  0  0  0  0  0
   34.2710   30.3560   35.1240 C   0  0  0  0  0  0  0  0  0  0  0  0
   33.0230   29.8880   35.4350 C   0  0  0  0  0  0  0  0  0  0  0  0
   32.6490   29.0920   34.7890 H   0  0  0  0  0  0  0  0  0  0  0  0
   32.2100   30.3150   36.4650 C   0  0  0  0  0  0  0  0  0  0  0  0
   31.2310   29.8870   36.6400 H   0  0  0  0  0  0  0  0  0  0  0  0
   32.7490   31.3280   37.2450 C   0  0  0  0  0  3  0  0  0  0  0  0
   33.9960   31.8390   36.9830 C   0  0  0  0  0  3  0  0  0  0  0  0
   38.2760   25.0190   33.9840 C   0  0  1  0  0  0  0  0  0  0  0  0
   39.2370   25.4340   33.6460 H   0  0  0  0  0  0  0  0  0  0  0  0
   38.3600   24.5550   35.3800 C   0  0  0  0  0  0  0  0  0  0  0  0
   39.3160   23.5210   35.5670 C   0  0  0  0  0  0  0  0  0  0  0  0
   39.5680   22.9330   36.7800 C   0  0  0  0  0  0  0  0  0  0  0  0
   38.8720   23.3370   37.9330 C   0  0  0  0  0  0  0  0  0  0  0  0
   37.9590   24.3490   37.6620 C   0  0  0  0  0  0  0  0  0  0  0  0
   37.6950   24.9390   36.4910 N   0  0  0  0  0  0  0  0  0  0  0  0
   39.9800   23.0380   34.8340 H   0  0  0  0  0  0  0  0  0  0  0  0
   40.2780   22.1460   36.9910 H   0  0  0  0  0  0  0  0  0  0  0  0
   38.9520   22.9840   38.9370 H   0  0  0  0  0  0  0  0  0  0  0  0
   37.3400   24.7730   38.4570 H   0  0  0  0  0  0  0  0  0  0  0  0
   37.7190   23.5810   33.0080 S   0  0  0  0  0  0  0  0  0  0  0  0
   36.8430   24.0980   31.5430 C   0  0  0  0  0  0  0  0  0  0  0  0
   35.5490   24.5220   31.7990 F   0  0  0  0  0  0  0  0  0  0  0  0
   37.5590   25.0410   30.8280 F   0  0  0  0  0  0  0  0  0  0  0  0
   36.7600   22.9600   30.7100 F   0  0  0  0  0  0  0  0  0  0  0  0
  1  2  2  0  0  0  0
  2 20  1  0  0  0  0
  3  4  2  0  0  0  0
  3  8  1  0  0  0  0
  4  5  1  0  0  0  0
  5  1  1  0  0  0  0
  5  6  2  0  0  0  0
  7  6  1  0  0  0  0
  7 13  1  0  0  0  0
  8  7  2  0  0  0  0
  9  3  1  0  0  0  0
 10  4  1  0  0  0  0
 11 12  1  0  0  0  0
 12 19  1  0  0  0  0
 13 14  1  0  0  0  0
 13 12  2  0  0  0  0
 14 16  2  0  0  0  0
 15 14  1  0  0  0  0
 16 17  1  0  0  0  0
 16 18  1  0  0  0  0
 19 18  2  0  0  0  0
 20 21  1  6  0  0  0
 20 22  1  0  0  0  0
 22 23  2  0  0  0  0
 22 27  1  0  0  0  0
 23 24  1  0  0  0  0
 24 29  1  0  0  0  0
 24 25  2  0  0  0  0
 25 30  1  0  0  0  0
 26 25  1  0  0  0  0
 26 31  1  0  0  0  0
 27 26  2  0  0  0  0
 28 23  1  0  0  0  0
 32 20  1  0  0  0  0
 33 34  1  0  0  0  0
 33 32  1  0  0  0  0
 35 33  1  0  0  0  0
 36 33  1  0  0  0  0
M  END
>  <minimizedAffinity>
-6.19048405

$$$$

 OpenBabel03272502363D

 36 38  0  0  1  0  0  0  0  0999 V2000
   37.0690   26.8920   33.5800 C   0  0  0  0  0  3  0  0  0  0  0  0
   37.3170   26.4330   34.7650 C   0  0  0  0  0  3  0  0  0  0  0  0
   35.6340   29.8450   31.8170 C   0  0  0  0  0  0  0  0  0  0  0  0
   36.2730   28.6490   32.0950 C   0  0  0  0  0  0  0  0  0  0  0  0
   36.3810   28.1410   33.3630 C   0  0  0  0  0  0  0  0  0  0  0  0
   35.8250   28.8720   34.3480 N   0  0  0  0  0  0  0  0  0  0  0  0
   35.2080   30.0210   34.0990 C   0  0  0  0  0  0  0  0  0  0  0  0
   35.1010   30.5220   32.8580 N   0  0  0  0  0  0  0  0  0  0  0  0
   35.5280   30.2780   30.8360 H   0  0  0  0  0  0  0  0  0  0  0  0
   36.6560   28.2000   31.1910 H   0  0  0  0  0  0  0  0  0  0  0  0
   32.2970   29.4490   34.7440 Cl  0  0  0  0  0  0  0  0  0  0  0  0
   33.2970   30.5930   35.5730 C   0  0  0  0  0  0  0  0  0  0  0  0
   34.6210   30.7800   35.1980 C   0  0  0  0  0  0  0  0  0  0  0  0
   35.3350   31.7040   35.9100 C   0  0  0  0  0  0  0  0  0  0  0  0
   36.3730   31.8330   35.5970 H   0  0  0  0  0  0  0  0  0  0  0  0
   34.8820   32.4740   36.9620 C   0  0  0  0  0  0  0  0  0  0  0  0
   35.5200   33.1850   37.4710 H   0  0  0  0  0  0  0  0  0  0  0  0
   33.5550   32.2570   37.3050 C   0  0  0  0  0  3  0  0  0  0  0  0
   32.7860   31.3420   36.6290 C   0  0  0  0  0  3  0  0  0  0  0  0
   38.0310   25.1170   34.8690 C   0  0  1  0  0  0  0  0  0  0  0  0
   37.4580   24.3520   34.3260 H   0  0  0  0  0  0  0  0  0  0  0  0
   39.3930   25.2500   34.3200 C   0  0  0  0  0  0  0  0  0  0  0  0
   40.1020   26.3590   34.8530 C   0  0  0  0  0  0  0  0  0  0  0  0
   41.3850   26.6820   34.4910 C   0  0  0  0  0  0  0  0  0  0  0  0
   42.0820   25.9070   33.5460 C   0  0  0  0  0  0  0  0  0  0  0  0
   41.3160   24.8460   33.0770 C   0  0  0  0  0  0  0  0  0  0  0  0
   40.0660   24.5100   33.4130 N   0  0  0  0  0  0  0  0  0  0  0  0
   39.7840   27.1050   35.5970 H   0  0  0  0  0  0  0  0  0  0  0  0
   41.9810   27.5060   34.8550 H   0  0  0  0  0  0  0  0  0  0  0  0
   43.0720   26.0250   33.1630 H   0  0  0  0  0  0  0  0  0  0  0  0
   41.7180   24.1510   32.3360 H   0  0  0  0  0  0  0  0  0  0  0  0
   38.2390   24.7490   36.6450 S   0  0  0  0  0  0  0  0  0  0  0  0
   39.2240   23.2830   36.8860 C   0  0  0  0  0  0  0  0  0  0  0  0
   40.5530   23.4500   36.5360 F   0  0  0  0  0  0  0  0  0  0  0  0
   39.0900   22.7850   38.1700 F   0  0  0  0  0  0  0  0  0  0  0  0
   38.6810   22.2980   36.0310 F   0  0  0  0  0  0  0  0  0  0  0  0
  1  2  2  0  0  0  0
  2 20  1  0  0  0  0
  3  4  2  0  0  0  0
  3  8  1  0  0  0  0
  4  5  1  0  0  0  0
  5  1  1  0  0  0  0
  5  6  2  0  0  0  0
  7  6  1  0  0  0  0
  7 13  1  0  0  0  0
  8  7  2  0  0  0  0
  9  3  1  0  0  0  0
 10  4  1  0  0  0  0
 11 12  1  0  0  0  0
 12 19  1  0  0  0  0
 13 12  2  0  0  0  0
 13 14  1  0  0  0  0
 14 16  2  0  0  0  0
 15 14  1  0  0  0  0
 16 18  1  0  0  0  0
 16 17  1  0  0  0  0
 19 18  2  0  0  0  0
 20 21  1  6  0  0  0
 20 32  1  0  0  0  0
 22 23  1  0  0  0  0
 22 20  1  0  0  0  0
 23 28  1  0  0  0  0
 24 23  2  0  0  0  0
 24 29  1  0  0  0  0
 25 24  1  0  0  0  0
 26 27  1  0  0  0  0
 26 25  2  0  0  0  0
 27 22  2  0  0  0  0
 30 25  1  0  0  0  0
 31 26  1  0  0  0  0
 32 33  1  0  0  0  0
 33 35  1  0  0  0  0
 34 33  1  0  0  0  0
 36 33  1  0  0  0  0
M  END
>  <minimizedAffinity>
-6.00900316

$$$$

 OpenBabel03272502363D

 36 38  0  0  1  0  0  0  0  0999 V2000
   37.5920   27.2650   33.6160 C   0  0  0  0  0  3  0  0  0  0  0  0
   38.3180   27.2590   34.6890 C   0  0  0  0  0  3  0  0  0  0  0  0
   35.3080   29.5950   31.8170 C   0  0  0  0  0  0  0  0  0  0  0  0
   36.2770   28.6510   32.1080 C   0  0  0  0  0  0  0  0  0  0  0  0
   36.5620   28.2470   33.3870 C   0  0  0  0  0  0  0  0  0  0  0  0
   35.8410   28.8230   34.3690 N   0  0  0  0  0  0  0  0  0  0  0  0
   34.9080   29.7300   34.1060 C   0  0  0  0  0  0  0  0  0  0  0  0
   34.6270   30.1270   32.8560 N   0  0  0  0  0  0  0  0  0  0  0  0
   35.0540   29.9390   30.8280 H   0  0  0  0  0  0  0  0  0  0  0  0
   36.7510   28.2980   31.2050 H   0  0  0  0  0  0  0  0  0  0  0  0
   36.2940   31.9280   35.6760 Cl  0  0  0  0  0  0  0  0  0  0  0  0
   34.6960   31.3400   35.9820 C   0  0  0  0  0  0  0  0  0  0  0  0
   34.1520   30.3270   35.2030 C   0  0  0  0  0  0  0  0  0  0  0  0
   32.8830   29.9250   35.5170 C   0  0  0  0  0  0  0  0  0  0  0  0
   32.4780   29.1280   34.8900 H   0  0  0  0  0  0  0  0  0  0  0  0
   32.0820   30.4180   36.5270 C   0  0  0  0  0  0  0  0  0  0  0  0
   31.0830   30.0400   36.7060 H   0  0  0  0  0  0  0  0  0  0  0  0
   32.6610   31.4290   37.2810 C   0  0  0  0  0  3  0  0  0  0  0  0
   33.9310   31.8760   37.0150 C   0  0  0  0  0  3  0  0  0  0  0  0
   39.3540   26.1810   34.8240 C   0  0  1  0  0  0  0  0  0  0  0  0
   40.1710   26.5450   35.4640 H   0  0  0  0  0  0  0  0  0  0  0  0
   38.7350   24.9700   35.3930 C   0  0  0  0  0  0  0  0  0  0  0  0
   38.2460   25.1610   36.7120 C   0  0  0  0  0  0  0  0  0  0  0  0
   37.6310   24.1760   37.4420 C   0  0  0  0  0  0  0  0  0  0  0  0
   37.4490   22.8900   36.9030 C   0  0  0  0  0  0  0  0  0  0  0  0
   37.9560   22.7900   35.6130 C   0  0  0  0  0  0  0  0  0  0  0  0
   38.5580   23.7330   34.8800 N   0  0  0  0  0  0  0  0  0  0  0  0
   38.2640   26.0610   37.3440 H   0  0  0  0  0  0  0  0  0  0  0  0
   37.2370   24.2530   38.4450 H   0  0  0  0  0  0  0  0  0  0  0  0
   36.9950   22.0260   37.3370 H   0  0  0  0  0  0  0  0  0  0  0  0
   37.8910   21.8510   35.0570 H   0  0  0  0  0  0  0  0  0  0  0  0
   39.8920   25.7280   33.1400 S   0  0  0  0  0  0  0  0  0  0  0  0
   40.9840   26.9630   32.4600 C   0  0  0  0  0  0  0  0  0  0  0  0
   41.4440   27.8680   33.4030 F   0  0  0  0  0  0  0  0  0  0  0  0
   42.0230   26.3900   31.7510 F   0  0  0  0  0  0  0  0  0  0  0  0
   40.2220   27.6870   31.5150 F   0  0  0  0  0  0  0  0  0  0  0  0
  1  2  2  0  0  0  0
  2 20  1  0  0  0  0
  3  4  2  0  0  0  0
  3  8  1  0  0  0  0
  4  5  1  0  0  0  0
  5  1  1  0  0  0  0
  5  6  2  0  0  0  0
  7  6  1  0  0  0  0
  7 13  1  0  0  0  0
  8  7  2  0  0  0  0
  9  3  1  0  0  0  0
 10  4  1  0  0  0  0
 11 12  1  0  0  0  0
 12 19  1  0  0  0  0
 13 14  1  0  0  0  0
 13 12  2  0  0  0  0
 14 16  2  0  0  0  0
 15 14  1  0  0  0  0
 16 17  1  0  0  0  0
 16 18  1  0  0  0  0
 19 18  2  0  0  0  0
 20 22  1  0  0  0  0
 20 21  1  1  0  0  0
 22 23  1  0  0  0  0
 23 28  1  0  0  0  0
 23 24  2  0  0  0  0
 24 29  1  0  0  0  0
 25 30  1  0  0  0  0
 25 24  1  0  0  0  0
 26 25  2  0  0  0  0
 27 22  2  0  0  0  0
 27 26  1  0  0  0  0
 31 26  1  0  0  0  0
 32 20  1  0  0  0  0
 33 32  1  0  0  0  0
 33 34  1  0  0  0  0
 35 33  1  0  0  0  0
 36 33  1  0  0  0  0
M  END
>  <minimizedAffinity>
-5.93322659

$$$$

 OpenBabel03272502363D

 36 38  0  0  1  0  0  0  0  0999 V2000
   37.4130   26.9810   33.0400 C   0  0  0  0  0  3  0  0  0  0  0  0
   37.7610   26.4960   34.1900 C   0  0  0  0  0  3  0  0  0  0  0  0
   35.6700   29.8870   31.4900 C   0  0  0  0  0  0  0  0  0  0  0  0
   36.4140   28.7350   31.6800 C   0  0  0  0  0  0  0  0  0  0  0  0
   36.6190   28.1780   32.9160 C   0  0  0  0  0  0  0  0  0  0  0  0
   36.0520   28.8150   33.9590 N   0  0  0  0  0  0  0  0  0  0  0  0
   35.3350   29.9200   33.7940 C   0  0  0  0  0  0  0  0  0  0  0  0
   35.1330   30.4680   32.5850 N   0  0  0  0  0  0  0  0  0  0  0  0
   35.4850   30.3550   30.5370 H   0  0  0  0  0  0  0  0  0  0  0  0
   36.7890   28.3620   30.7400 H   0  0  0  0  0  0  0  0  0  0  0  0
   32.4260   29.2760   34.3770 Cl  0  0  0  0  0  0  0  0  0  0  0  0
   33.4160   30.3480   35.3050 C   0  0  0  0  0  0  0  0  0  0  0  0
   34.7400   30.5760   34.9530 C   0  0  0  0  0  0  0  0  0  0  0  0
   35.4460   31.4380   35.7450 C   0  0  0  0  0  0  0  0  0  0  0  0
   36.4840   31.6000   35.4480 H   0  0  0  0  0  0  0  0  0  0  0  0
   34.9850   32.1100   36.8590 C   0  0  0  0  0  0  0  0  0  0  0  0
   35.6170   32.7780   37.4310 H   0  0  0  0  0  0  0  0  0  0  0  0
   33.6580   31.8550   37.1780 C   0  0  0  0  0  3  0  0  0  0  0  0
   32.8970   30.9990   36.4220 C   0  0  0  0  0  3  0  0  0  0  0  0
   38.5810   25.2390   34.1980 C   0  0  1  0  0  0  0  0  0  0  0  0
   39.6060   25.4750   33.8790 H   0  0  0  0  0  0  0  0  0  0  0  0
   38.5670   24.6490   35.5480 C   0  0  0  0  0  0  0  0  0  0  0  0
   39.5990   23.6940   35.7500 C   0  0  0  0  0  0  0  0  0  0  0  0
   39.7830   23.0150   36.9270 C   0  0  0  0  0  0  0  0  0  0  0  0
   38.9340   23.2380   38.0260 C   0  0  0  0  0  0  0  0  0  0  0  0
   37.9560   24.1840   37.7440 C   0  0  0  0  0  0  0  0  0  0  0  0
   37.7550   24.8590   36.6070 N   0  0  0  0  0  0  0  0  0  0  0  0
   40.3810   23.3480   35.0570 H   0  0  0  0  0  0  0  0  0  0  0  0
   40.5440   22.2800   37.1470 H   0  0  0  0  0  0  0  0  0  0  0  0
   38.9460   22.7970   38.9980 H   0  0  0  0  0  0  0  0  0  0  0  0
   37.2180   24.4690   38.4980 H   0  0  0  0  0  0  0  0  0  0  0  0
   37.7400   24.0340   33.1140 S   0  0  0  0  0  0  0  0  0  0  0  0
   38.5940   23.8640   31.5580 C   0  0  0  0  0  0  0  0  0  0  0  0
   37.7660   24.0150   30.4590 F   0  0  0  0  0  0  0  0  0  0  0  0
   39.6960   24.6960   31.4880 F   0  0  0  0  0  0  0  0  0  0  0  0
   39.1010   22.5450   31.5290 F   0  0  0  0  0  0  0  0  0  0  0  0
  1  2  2  0  0  0  0
  2 20  1  0  0  0  0
  3  4  2  0  0  0  0
  3  8  1  0  0  0  0
  4  5  1  0  0  0  0
  5  1  1  0  0  0  0
  5  6  2  0  0  0  0
  7  6  1  0  0  0  0
  7 13  1  0  0  0  0
  8  7  2  0  0  0  0
  9  3  1  0  0  0  0
 10  4  1  0  0  0  0
 11 12  1  0  0  0  0
 12 19  1  0  0  0  0
 13 12  2  0  0  0  0
 13 14  1  0  0  0  0
 14 16  2  0  0  0  0
 15 14  1  0  0  0  0
 16 18  1  0  0  0  0
 16 17  1  0  0  0  0
 19 18  2  0  0  0  0
 20 21  1  6  0  0  0
 20 22  1  0  0  0  0
 22 23  2  0  0  0  0
 22 27  1  0  0  0  0
 23 24  1  0  0  0  0
 24 29  1  0  0  0  0
 24 25  2  0  0  0  0
 25 30  1  0  0  0  0
 26 25  1  0  0  0  0
 26 31  1  0  0  0  0
 27 26  2  0  0  0  0
 28 23  1  0  0  0  0
 32 20  1  0  0  0  0
 33 32  1  0  0  0  0
 34 33  1  0  0  0  0
 35 33  1  0  0  0  0
 36 33  1  0  0  0  0
M  END
>  <minimizedAffinity>
-5.93137217

$$$$

 OpenBabel03272502363D

 36 38  0  0  1  0  0  0  0  0999 V2000
   37.1360   26.9500   33.6900 C   0  0  0  0  0  3  0  0  0  0  0  0
   37.2490   26.4180   34.8660 C   0  0  0  0  0  3  0  0  0  0  0  0
   35.6270   29.8550   31.9100 C   0  0  0  0  0  0  0  0  0  0  0  0
   36.3410   28.7060   32.2050 C   0  0  0  0  0  0  0  0  0  0  0  0
   36.3610   28.1430   33.4540 C   0  0  0  0  0  0  0  0  0  0  0  0
   35.6400   28.7710   34.4030 N   0  0  0  0  0  0  0  0  0  0  0  0
   34.9500   29.8720   34.1370 C   0  0  0  0  0  0  0  0  0  0  0  0
   34.9280   30.4260   32.9150 N   0  0  0  0  0  0  0  0  0  0  0  0
   35.5850   30.3280   30.9430 H   0  0  0  0  0  0  0  0  0  0  0  0
   36.8560   28.3410   31.3300 H   0  0  0  0  0  0  0  0  0  0  0  0
   36.3760   32.0270   35.7300 Cl  0  0  0  0  0  0  0  0  0  0  0  0
   34.7430   31.5160   35.9840 C   0  0  0  0  0  0  0  0  0  0  0  0
   34.1820   30.5180   35.1980 C   0  0  0  0  0  0  0  0  0  0  0  0
   32.8860   30.1780   35.4690 C   0  0  0  0  0  0  0  0  0  0  0  0
   32.4670   29.3920   34.8380 H   0  0  0  0  0  0  0  0  0  0  0  0
   32.0720   30.7210   36.4430 C   0  0  0  0  0  0  0  0  0  0  0  0
   31.0510   30.3910   36.5900 H   0  0  0  0  0  0  0  0  0  0  0  0
   32.6690   31.7150   37.2060 C   0  0  0  0  0  3  0  0  0  0  0  0
   33.9670   32.1000   36.9820 C   0  0  0  0  0  3  0  0  0  0  0  0
   38.0730   25.1700   34.9910 C   0  0  1  0  0  0  0  0  0  0  0  0
   37.6140   24.3730   34.3880 H   0  0  0  0  0  0  0  0  0  0  0  0
   39.4530   25.4430   34.5490 C   0  0  0  0  0  0  0  0  0  0  0  0
   39.9110   24.5320   33.5590 C   0  0  0  0  0  0  0  0  0  0  0  0
   41.1610   24.5890   32.9980 C   0  0  0  0  0  0  0  0  0  0  0  0
   42.0780   25.5820   33.3870 C   0  0  0  0  0  0  0  0  0  0  0  0
   41.5510   26.4280   34.3560 C   0  0  0  0  0  0  0  0  0  0  0  0
   40.3380   26.3940   34.9180 N   0  0  0  0  0  0  0  0  0  0  0  0
   39.3910   23.6810   33.0940 H   0  0  0  0  0  0  0  0  0  0  0  0
   41.5710   23.9320   32.2450 H   0  0  0  0  0  0  0  0  0  0  0  0
   43.0750   25.7590   33.0500 H   0  0  0  0  0  0  0  0  0  0  0  0
   42.1420   27.2530   34.7610 H   0  0  0  0  0  0  0  0  0  0  0  0
   38.1850   24.7670   36.7680 S   0  0  0  0  0  0  0  0  0  0  0  0
   39.1900   23.3190   37.0370 C   0  0  0  0  0  0  0  0  0  0  0  0
   40.5080   23.4860   36.6460 F   0  0  0  0  0  0  0  0  0  0  0  0
   39.0950   22.8680   38.3400 F   0  0  0  0  0  0  0  0  0  0  0  0
   38.6350   22.2980   36.2330 F   0  0  0  0  0  0  0  0  0  0  0  0
  1  2  2  0  0  0  0
  2 20  1  0  0  0  0
  3  4  2  0  0  0  0
  3  8  1  0  0  0  0
  4  5  1  0  0  0  0
  5  1  1  0  0  0  0
  5  6  2  0  0  0  0
  7  6  1  0  0  0  0
  7 13  1  0  0  0  0
  8  7  2  0  0  0  0
  9  3  1  0  0  0  0
 10  4  1  0  0  0  0
 11 12  1  0  0  0  0
 12 19  1  0  0  0  0
 13 14  1  0  0  0  0
 13 12  2  0  0  0  0
 14 16  2  0  0  0  0
 15 14  1  0  0  0  0
 16 17  1  0  0  0  0
 16 18  1  0  0  0  0
 19 18  2  0  0  0  0
 20 21  1  6  0  0  0
 20 32  1  0  0  0  0
 22 27  1  0  0  0  0
 22 20  1  0  0  0  0
 23 22  2  0  0  0  0
 24 25  2  0  0  0  0
 24 23  1  0  0  0  0
 25 26  1  0  0  0  0
 26 31  1  0  0  0  0
 26 27  2  0  0  0  0
 28 23  1  0  0  0  0
 29 24  1  0  0  0  0
 30 25  1  0  0  0  0
 32 33  1  0  0  0  0
 33 35  1  0  0  0  0
 34 33  1  0  0  0  0
 36 33  1  0  0  0  0
M  END
>  <minimizedAffinity>
-5.86847973

$$$$

 OpenBabel03272502363D

 36 38  0  0  1  0  0  0  0  0999 V2000
   36.4870   28.6400   34.9900 C   0  0  0  0  0  3  0  0  0  0  0  0
   35.5200   29.2390   34.3700 C   0  0  0  0  0  3  0  0  0  0  0  0
   37.2270   25.6840   32.8460 C   0  0  0  0  0  0  0  0  0  0  0  0
   36.7870   26.9160   33.2990 C   0  0  0  0  0  0  0  0  0  0  0  0
   36.9810   27.3480   34.5850 C   0  0  0  0  0  0  0  0  0  0  0  0
   37.6310   26.5010   35.4070 N   0  0  0  0  0  0  0  0  0  0  0  0
   38.0600   25.3170   34.9880 C   0  0  0  0  0  0  0  0  0  0  0  0
   37.8730   24.8920   33.7290 N   0  0  0  0  0  0  0  0  0  0  0  0
   37.0960   25.3090   31.8440 H   0  0  0  0  0  0  0  0  0  0  0  0
   36.2900   27.4590   32.5100 H   0  0  0  0  0  0  0  0  0  0  0  0
   40.8180   24.3700   34.1410 Cl  0  0  0  0  0  0  0  0  0  0  0  0
   40.0280   23.9450   35.6200 C   0  0  0  0  0  0  0  0  0  0  0  0
   38.7610   24.4330   35.9140 C   0  0  0  0  0  0  0  0  0  0  0  0
   38.2140   24.0440   37.1060 C   0  0  0  0  0  0  0  0  0  0  0  0
   37.2190   24.4410   37.3130 H   0  0  0  0  0  0  0  0  0  0  0  0
   38.7850   23.2160   38.0510 C   0  0  0  0  0  0  0  0  0  0  0  0
   38.2790   22.9590   38.9720 H   0  0  0  0  0  0  0  0  0  0  0  0
   40.0500   22.7500   37.7200 C   0  0  0  0  0  3  0  0  0  0  0  0
   40.6530   23.1050   36.5390 C   0  0  0  0  0  3  0  0  0  0  0  0
   35.0810   30.5780   34.8870 C   0  0  1  0  0  0  0  0  0  0  0  0
   35.3080   30.6410   35.9610 H   0  0  0  0  0  0  0  0  0  0  0  0
   35.7670   31.6450   34.1370 C   0  0  0  0  0  0  0  0  0  0  0  0
   36.3220   32.6480   34.9760 C   0  0  0  0  0  0  0  0  0  0  0  0
   37.0060   33.7380   34.5030 C   0  0  0  0  0  0  0  0  0  0  0  0
   37.1970   33.9230   33.1210 C   0  0  0  0  0  0  0  0  0  0  0  0
   36.6240   32.9000   32.3760 C   0  0  0  0  0  0  0  0  0  0  0  0
   35.9530   31.8280   32.8120 N   0  0  0  0  0  0  0  0  0  0  0  0
   36.3110   32.7310   36.0730 H   0  0  0  0  0  0  0  0  0  0  0  0
   37.4520   34.5340   35.0820 H   0  0  0  0  0  0  0  0  0  0  0  0
   37.7000   34.7080   32.6010 H   0  0  0  0  0  0  0  0  0  0  0  0
   36.6870   32.8990   31.2850 H   0  0  0  0  0  0  0  0  0  0  0  0
   33.3060   30.7550   34.5050 S   0  0  0  0  0  0  0  0  0  0  0  0
   32.2990   29.9630   35.7450 C   0  0  0  0  0  0  0  0  0  0  0  0
   32.5450   28.6060   35.8680 F   0  0  0  0  0  0  0  0  0  0  0  0
   32.3880   30.6120   36.9630 F   0  0  0  0  0  0  0  0  0  0  0  0
   30.9590   30.1160   35.3230 F   0  0  0  0  0  0  0  0  0  0  0  0
  2 20  1  0  0  0  0
  2  1  2  0  0  0  0
  3  4  2  0  0  0  0
  3  8  1  0  0  0  0
  4  5  1  0  0  0  0
  5  1  1  0  0  0  0
  5  6  2  0  0  0  0
  7  6  1  0  0  0  0
  7 13  1  0  0  0  0
  8  7  2  0  0  0  0
  9  3  1  0  0  0  0
 10  4  1  0  0  0  0
 11 12  1  0  0  0  0
 12 13  2  0  0  0  0
 12 19  1  0  0  0  0
 13 14  1  0  0  0  0
 14 15  1  0  0  0  0
 14 16  2  0  0  0  0
 16 17  1  0  0  0  0
 18 16  1  0  0  0  0
 19 18  2  0  0  0  0
 20 21  1  1  0  0  0
 22 20  1  0  0  0  0
 22 23  1  0  0  0  0
 23 28  1  0  0  0  0
 24 23  2  0  0  0  0
 24 29  1  0  0  0  0
 25 24  1  0  0  0  0
 26 27  1  0  0  0  0
 26 25  2  0  0  0  0
 27 22  2  0  0  0  0
 30 25  1  0  0  0  0
 31 26  1  0  0  0  0
 32 20  1  0  0  0  0
 32 33  1  0  0  0  0
 33 34  1  0  0  0  0
 33 35  1  0  0  0  0
 36 33  1  0  0  0  0
M  END
>  <minimizedAffinity>
-5.75247526

$$$$

 OpenBabel03272502363D

 36 38  0  0  1  0  0  0  0  0999 V2000
   38.1180   23.8270   32.9370 C   0  0  0  0  0  3  0  0  0  0  0  0
   38.7000   24.1390   34.0520 C   0  0  0  0  0  3  0  0  0  0  0  0
   35.1470   24.8340   30.9250 C   0  0  0  0  0  0  0  0  0  0  0  0
   36.1410   24.0940   31.5420 C   0  0  0  0  0  0  0  0  0  0  0  0
   37.1060   24.6590   32.3350 C   0  0  0  0  0  0  0  0  0  0  0  0
   37.0420   25.9950   32.4910 N   0  0  0  0  0  0  0  0  0  0  0  0
   36.0940   26.7190   31.9080 C   0  0  0  0  0  0  0  0  0  0  0  0
   35.1490   26.1690   31.1310 N   0  0  0  0  0  0  0  0  0  0  0  0
   34.3720   24.4280   30.2960 H   0  0  0  0  0  0  0  0  0  0  0  0
   36.0390   23.0450   31.3080 H   0  0  0  0  0  0  0  0  0  0  0  0
   37.0490   28.4310   29.5890 Cl  0  0  0  0  0  0  0  0  0  0  0  0
   36.4800   29.0350   31.1070 C   0  0  0  0  0  0  0  0  0  0  0  0
   36.0640   28.1650   32.1060 C   0  0  0  0  0  0  0  0  0  0  0  0
   35.6300   28.7320   33.2730 C   0  0  0  0  0  0  0  0  0  0  0  0
   35.3090   28.0270   34.0420 H   0  0  0  0  0  0  0  0  0  0  0  0
   35.5600   30.0790   33.5660 C   0  0  0  0  0  0  0  0  0  0  0  0
   35.2010   30.4420   34.5210 H   0  0  0  0  0  0  0  0  0  0  0  0
   35.9840   30.9150   32.5420 C   0  0  0  0  0  3  0  0  0  0  0  0
   36.4300   30.4060   31.3480 C   0  0  0  0  0  3  0  0  0  0  0  0
   39.7310   23.1910   34.5900 C   0  0  1  0  0  0  0  0  0  0  0  0
   39.9190   22.4030   33.8470 H   0  0  0  0  0  0  0  0  0  0  0  0
   40.9670   23.9320   34.9020 C   0  0  0  0  0  0  0  0  0  0  0  0
   41.8110   23.2480   35.8170 C   0  0  0  0  0  0  0  0  0  0  0  0
   43.0130   23.7430   36.2540 C   0  0  0  0  0  0  0  0  0  0  0  0
   43.4840   24.9890   35.8030 C   0  0  0  0  0  0  0  0  0  0  0  0
   42.6000   25.5890   34.9140 C   0  0  0  0  0  0  0  0  0  0  0  0
   41.4240   25.1290   34.4730 N   0  0  0  0  0  0  0  0  0  0  0  0
   41.6710   22.2720   36.3060 H   0  0  0  0  0  0  0  0  0  0  0  0
   43.7010   23.2770   36.9450 H   0  0  0  0  0  0  0  0  0  0  0  0
   44.3860   25.5050   36.0450 H   0  0  0  0  0  0  0  0  0  0  0  0
   42.8240   26.5630   34.4740 H   0  0  0  0  0  0  0  0  0  0  0  0
   39.1090   22.5580   36.1850 S   0  0  0  0  0  0  0  0  0  0  0  0
   38.3590   23.8600   37.1450 C   0  0  0  0  0  0  0  0  0  0  0  0
   38.7930   25.1250   36.7860 F   0  0  0  0  0  0  0  0  0  0  0  0
   36.9790   23.7700   37.1360 F   0  0  0  0  0  0  0  0  0  0  0  0
   38.7530   23.6400   38.4840 F   0  0  0  0  0  0  0  0  0  0  0  0
  1  2  2  0  0  0  0
  2 20  1  0  0  0  0
  3  8  2  0  0  0  0
  3  4  1  0  0  0  0
  4  5  2  0  0  0  0
  5  6  1  0  0  0  0
  5  1  1  0  0  0  0
  7 13  1  0  0  0  0
  7  6  2  0  0  0  0
  8  7  1  0  0  0  0
  9  3  1  0  0  0  0
 10  4  1  0  0  0  0
 11 12  1  0  0  0  0
 12 19  2  0  0  0  0
 12 13  1  0  0  0  0
 13 14  2  0  0  0  0
 14 16  1  0  0  0  0
 14 15  1  0  0  0  0
 16 17  1  0  0  0  0
 18 16  2  0  0  0  0
 19 18  1  0  0  0  0
 20 21  1  6  0  0  0
 20 22  1  0  0  0  0
 20 32  1  0  0  0  0
 22 23  1  0  0  0  0
 23 24  2  0  0  0  0
 23 28  1  0  0  0  0
 24 29  1  0  0  0  0
 25 30  1  0  0  0  0
 25 24  1  0  0  0  0
 26 25  2  0  0  0  0
 27 22  2  0  0  0  0
 27 26  1  0  0  0  0
 31 26  1  0  0  0  0
 32 33  1  0  0  0  0
 33 36  1  0  0  0  0
 34 33  1  0  0  0  0
 35 33  1  0  0  0  0
M  END
>  <minimizedAffinity>
-5.73961878

$$$$

 OpenBabel03272502363D

 36 38  0  0  1  0  0  0  0  0999 V2000
   37.0840   27.5110   32.8420 C   0  0  0  0  0  3  0  0  0  0  0  0
   37.6450   27.0720   31.7600 C   0  0  0  0  0  3  0  0  0  0  0  0
   35.2260   30.5070   31.6350 C   0  0  0  0  0  0  0  0  0  0  0  0
   36.0280   29.3810   31.6960 C   0  0  0  0  0  0  0  0  0  0  0  0
   36.2260   28.6700   32.8510 C   0  0  0  0  0  0  0  0  0  0  0  0
   35.5920   29.1260   33.9480 N   0  0  0  0  0  0  0  0  0  0  0  0
   34.8180   30.2040   33.9070 C   0  0  0  0  0  0  0  0  0  0  0  0
   34.6220   30.9020   32.7770 N   0  0  0  0  0  0  0  0  0  0  0  0
   35.0440   31.0920   30.7490 H   0  0  0  0  0  0  0  0  0  0  0  0
   36.4540   29.1620   30.7290 H   0  0  0  0  0  0  0  0  0  0  0  0
   36.3490   32.1660   35.6450 Cl  0  0  0  0  0  0  0  0  0  0  0  0
   34.7650   31.5580   35.9840 C   0  0  0  0  0  0  0  0  0  0  0  0
   34.1500   30.6610   35.1210 C   0  0  0  0  0  0  0  0  0  0  0  0
   32.8980   30.2340   35.4690 C   0  0  0  0  0  0  0  0  0  0  0  0
   32.4360   29.5300   34.7750 H   0  0  0  0  0  0  0  0  0  0  0  0
   32.1770   30.6000   36.5870 C   0  0  0  0  0  0  0  0  0  0  0  0
   31.1860   30.2120   36.7860 H   0  0  0  0  0  0  0  0  0  0  0  0
   32.8250   31.4980   37.4240 C   0  0  0  0  0  3  0  0  0  0  0  0
   34.0830   31.9630   37.1290 C   0  0  0  0  0  3  0  0  0  0  0  0
   38.5270   25.8620   31.8730 C   0  0  1  0  0  0  0  0  0  0  0  0
   38.8420   25.5510   30.8660 H   0  0  0  0  0  0  0  0  0  0  0  0
   39.6920   26.1770   32.7190 C   0  0  0  0  0  0  0  0  0  0  0  0
   40.5980   27.0820   32.1050 C   0  0  0  0  0  0  0  0  0  0  0  0
   41.7530   27.5200   32.7020 C   0  0  0  0  0  0  0  0  0  0  0  0
   42.1060   27.0810   33.9910 C   0  0  0  0  0  0  0  0  0  0  0  0
   41.1680   26.2010   34.5170 C   0  0  0  0  0  0  0  0  0  0  0  0
   40.0360   25.7590   33.9570 N   0  0  0  0  0  0  0  0  0  0  0  0
   40.5480   27.5640   31.1170 H   0  0  0  0  0  0  0  0  0  0  0  0
   42.4820   28.2040   32.2940 H   0  0  0  0  0  0  0  0  0  0  0  0
   42.9590   27.3260   34.5850 H   0  0  0  0  0  0  0  0  0  0  0  0
   41.2990   25.7710   35.5130 H   0  0  0  0  0  0  0  0  0  0  0  0
   37.5840   24.5830   32.7710 S   0  0  0  0  0  0  0  0  0  0  0  0
   36.3210   23.8700   31.7340 C   0  0  0  0  0  0  0  0  0  0  0  0
   36.7050   23.7430   30.4090 F   0  0  0  0  0  0  0  0  0  0  0  0
   35.8540   22.6740   32.2490 F   0  0  0  0  0  0  0  0  0  0  0  0
   35.2260   24.7620   31.7750 F   0  0  0  0  0  0  0  0  0  0  0  0
  1  5  1  0  0  0  0
  2 20  1  0  0  0  0
  2  1  2  0  0  0  0
  3  4  2  0  0  0  0
  3  8  1  0  0  0  0
  4  5  1  0  0  0  0
  5  6  2  0  0  0  0
  7  6  1  0  0  0  0
  7 13  1  0  0  0  0
  8  7  2  0  0  0  0
  9  3  1  0  0  0  0
 10  4  1  0  0  0  0
 11 12  1  0  0  0  0
 12 19  1  0  0  0  0
 13 14  1  0  0  0  0
 13 12  2  0  0  0  0
 14 16  2  0  0  0  0
 15 14  1  0  0  0  0
 16 17  1  0  0  0  0
 16 18  1  0  0  0  0
 19 18  2  0  0  0  0
 20 21  1  6  0  0  0
 20 22  1  0  0  0  0
 20 32  1  0  0  0  0
 22 27  1  0  0  0  0
 23 24  1  0  0  0  0
 23 22  2  0  0  0  0
 24 25  2  0  0  0  0
 25 26  1  0  0  0  0
 25 30  1  0  0  0  0
 26 31  1  0  0  0  0
 27 26  2  0  0  0  0
 28 23  1  0  0  0  0
 29 24  1  0  0  0  0
 33 36  1  0  0  0  0
 33 35  1  0  0  0  0
 33 32  1  0  0  0  0
 34 33  1  0  0  0  0
M  END
>  <minimizedAffinity>
-5.71152496

$$$$
