
 OpenBabel03272501083D

 40 43  0  0  1  0  0  0  0  0999 V2000
   39.1440   32.4870   47.5480 C   0  0  2  0  0  0  0  0  0  0  0  0
   38.0510   32.6490   48.6550 C   0  0  2  0  0  0  0  0  0  0  0  0
   38.7800   33.4210   49.6440 C   0  0  0  0  0  0  0  0  0  0  0  0
   39.6370   34.2890   48.9850 O   0  0  0  0  0  0  0  0  0  0  0  0
   39.7030   33.9270   47.6790 C   0  0  0  0  0  0  0  0  0  0  0  0
   39.9460   31.8400   47.8860 H   0  0  0  0  0  0  0  0  0  0  0  0
   37.2820   33.2690   48.1460 H   0  0  0  0  0  0  0  0  0  0  0  0
   38.0570   34.0630   50.2290 H   0  0  0  0  0  0  0  0  0  0  0  0
   39.3810   32.8880   50.3760 H   0  0  0  0  0  0  0  0  0  0  0  0
   39.1610   34.5630   46.9590 H   0  0  0  0  0  0  0  0  0  0  0  0
   40.7760   33.8970   47.3600 H   0  0  0  0  0  0  0  0  0  0  0  0
   37.3770   29.4180   50.4560 C   0  0  0  0  0  0  0  0  0  0  0  0
   37.9940   30.6590   50.1380 C   0  0  0  0  0  0  0  0  0  0  0  0
   37.4650   31.3930   49.0360 C   0  0  0  0  0  0  0  0  0  0  0  0
   36.3880   30.8800   48.3280 N   0  0  0  0  0  0  0  0  0  0  0  0
   35.8510   29.7040   48.6800 C   0  0  0  0  0  0  0  0  0  0  0  0
   36.3220   28.9690   49.7210 N   0  0  0  0  0  0  0  0  0  0  0  0
   37.7700   28.8700   51.2770 H   0  0  0  0  0  0  0  0  0  0  0  0
   38.8130   31.0130   50.7030 H   0  0  0  0  0  0  0  0  0  0  0  0
   35.0130   29.2840   48.1420 H   0  0  0  0  0  0  0  0  0  0  0  0
   38.6050   32.3330   46.3160 O   0  0  0  0  0  0  0  0  0  0  0  0
   36.8510   32.5850   43.7890 Cl  0  0  0  0  0  0  0  0  0  0  0  0
   38.4370   31.8660   43.8460 C   0  0  0  0  0  0  0  0  0  0  0  0
   39.0130   31.8780   45.1090 C   0  0  0  0  0  0  0  0  0  0  0  0
   40.2750   31.3070   45.1800 C   0  0  0  0  0  0  0  0  0  0  0  0
   40.9060   30.7690   44.0710 C   0  0  0  0  0  0  0  0  0  0  0  0
   40.2850   30.7890   42.8540 C   0  0  0  0  0  0  0  0  0  0  0  0
   39.0390   31.3430   42.7390 C   0  0  0  0  0  0  0  0  0  0  0  0
   40.8820   31.2220   46.0720 H   0  0  0  0  0  0  0  0  0  0  0  0
   41.8880   30.3160   44.0900 H   0  0  0  0  0  0  0  0  0  0  0  0
   40.7350   30.3870   41.9760 H   0  0  0  0  0  0  0  0  0  0  0  0
   37.0560   29.1390   42.0130 Cl  0  0  0  0  0  0  0  0  0  0  0  0
   37.3440   30.5400   41.0030 C   0  0  0  0  0  0  0  0  0  0  0  0
   38.2740   31.4240   41.4970 C   0  0  0  0  0  0  0  0  0  0  0  0
   38.5890   32.5800   40.7800 C   0  0  0  0  0  0  0  0  0  0  0  0
   39.3000   33.3430   41.0690 H   0  0  0  0  0  0  0  0  0  0  0  0
   37.9710   32.8550   39.5640 C   0  0  0  0  0  0  0  0  0  0  0  0
   38.1800   33.7320   38.9720 H   0  0  0  0  0  0  0  0  0  0  0  0
   37.0300   31.9450   39.0790 C   0  0  0  0  0  3  0  0  0  0  0  0
   36.7310   30.8070   39.8000 C   0  0  0  0  0  3  0  0  0  0  0  0
  1  5  1  0  0  0  0
  1  6  1  1  0  0  0
  1  2  1  0  0  0  0
  2  7  1  6  0  0  0
  2 14  1  0  0  0  0
  2  3  1  0  0  0  0
  3  8  1  0  0  0  0
  3  9  1  0  0  0  0
  4  3  1  0  0  0  0
  5  4  1  0  0  0  0
 10  5  1  0  0  0  0
 11  5  1  0  0  0  0
 12 18  1  0  0  0  0
 13 12  1  0  0  0  0
 13 19  1  0  0  0  0
 14 13  2  0  0  0  0
 15 16  2  0  0  0  0
 15 14  1  0  0  0  0
 16 17  1  0  0  0  0
 17 12  2  0  0  0  0
 20 16  1  0  0  0  0
 21  1  1  0  0  0  0
 22 23  1  0  0  0  0
 23 24  1  0  0  0  0
 24 25  2  0  0  0  0
 24 21  1  0  0  0  0
 25 29  1  0  0  0  0
 26 30  1  0  0  0  0
 26 25  1  0  0  0  0
 27 26  2  0  0  0  0
 28 27  1  0  0  0  0
 28 23  2  0  0  0  0
 31 27  1  0  0  0  0
 33 34  1  0  0  0  0
 33 32  1  0  0  0  0
 34 28  1  0  0  0  0
 35 36  1  0  0  0  0
 35 34  2  0  0  0  0
 37 35  1  0  0  0  0
 38 37  1  0  0  0  0
 39 37  2  0  0  0  0
 39 40  1  0  0  0  0
 40 33  2  0  0  0  0
M  END
>  <minimizedAffinity>
-5.68683815

>  <minimizedRMSD>
3.43062901

$$$$
