
 OpenBabel03272501083D

 40 43  0  0  1  0  0  0  0  0999 V2000
   38.9050   32.4870   47.6680 C   0  0  2  0  0  0  0  0  0  0  0  0
   38.0520   32.7680   48.9490 C   0  0  2  0  0  0  0  0  0  0  0  0
   39.0230   33.4600   49.7740 C   0  0  0  0  0  0  0  0  0  0  0  0
   39.8330   34.2300   48.9540 O   0  0  0  0  0  0  0  0  0  0  0  0
   39.6250   33.8600   47.6660 C   0  0  0  0  0  0  0  0  0  0  0  0
   39.6830   31.7600   47.8720 H   0  0  0  0  0  0  0  0  0  0  0  0
   37.2730   33.4640   48.5710 H   0  0  0  0  0  0  0  0  0  0  0  0
   38.4880   34.1780   50.4640 H   0  0  0  0  0  0  0  0  0  0  0  0
   39.6870   32.8690   50.3990 H   0  0  0  0  0  0  0  0  0  0  0  0
   39.0320   34.5480   47.0400 H   0  0  0  0  0  0  0  0  0  0  0  0
   40.6150   33.7150   47.1610 H   0  0  0  0  0  0  0  0  0  0  0  0
   37.3790   29.6340   50.9150 C   0  0  0  0  0  0  0  0  0  0  0  0
   38.0540   30.8020   50.4650 C   0  0  0  0  0  0  0  0  0  0  0  0
   37.4170   31.5820   49.4560 C   0  0  0  0  0  0  0  0  0  0  0  0
   36.1850   31.1820   48.9590 N   0  0  0  0  0  0  0  0  0  0  0  0
   35.6010   30.0700   49.4270 C   0  0  0  0  0  0  0  0  0  0  0  0
   36.1710   29.2950   50.3870 N   0  0  0  0  0  0  0  0  0  0  0  0
   37.8530   29.0520   51.6670 H   0  0  0  0  0  0  0  0  0  0  0  0
   38.9920   31.0710   50.8690 H   0  0  0  0  0  0  0  0  0  0  0  0
   34.6420   29.7380   49.0540 H   0  0  0  0  0  0  0  0  0  0  0  0
   38.1420   32.3870   46.5550 O   0  0  0  0  0  0  0  0  0  0  0  0
   40.3930   32.2600   44.4480 Cl  0  0  0  0  0  0  0  0  0  0  0  0
   38.9200   31.3310   44.4050 C   0  0  0  0  0  0  0  0  0  0  0  0
   38.0700   31.5760   45.4750 C   0  0  0  0  0  0  0  0  0  0  0  0
   36.8880   30.8510   45.4600 C   0  0  0  0  0  0  0  0  0  0  0  0
   36.5860   29.9520   44.4520 C   0  0  0  0  0  0  0  0  0  0  0  0
   37.4660   29.7540   43.4260 C   0  0  0  0  0  0  0  0  0  0  0  0
   38.6440   30.4490   43.4000 C   0  0  0  0  0  0  0  0  0  0  0  0
   36.1040   30.9040   46.2030 H   0  0  0  0  0  0  0  0  0  0  0  0
   35.6750   29.3690   44.4080 H   0  0  0  0  0  0  0  0  0  0  0  0
   37.2720   29.0710   42.6310 H   0  0  0  0  0  0  0  0  0  0  0  0
   38.6910   32.4110   41.0630 Cl  0  0  0  0  0  0  0  0  0  0  0  0
   39.8460   31.1060   41.2420 C   0  0  0  0  0  0  0  0  0  0  0  0
   39.6630   30.3270   42.3600 C   0  0  0  0  0  0  0  0  0  0  0  0
   40.5210   29.2540   42.6120 C   0  0  0  0  0  0  0  0  0  0  0  0
   40.4740   28.5760   43.4540 H   0  0  0  0  0  0  0  0  0  0  0  0
   41.5660   28.9590   41.7420 C   0  0  0  0  0  0  0  0  0  0  0  0
   42.2560   28.1430   41.8930 H   0  0  0  0  0  0  0  0  0  0  0  0
   41.7350   29.7620   40.6130 C   0  0  0  0  0  3  0  0  0  0  0  0
   40.8780   30.8180   40.3790 C   0  0  0  0  0  3  0  0  0  0  0  0
  1  6  1  1  0  0  0
  1  2  1  0  0  0  0
  2  7  1  6  0  0  0
  2 14  1  0  0  0  0
  2  3  1  0  0  0  0
  3  9  1  0  0  0  0
  3  8  1  0  0  0  0
  4  3  1  0  0  0  0
  5  1  1  0  0  0  0
  5  4  1  0  0  0  0
 10  5  1  0  0  0  0
 11  5  1  0  0  0  0
 12 18  1  0  0  0  0
 13 19  1  0  0  0  0
 13 12  1  0  0  0  0
 14 13  2  0  0  0  0
 15 16  2  0  0  0  0
 15 14  1  0  0  0  0
 16 17  1  0  0  0  0
 17 12  2  0  0  0  0
 20 16  1  0  0  0  0
 21  1  1  0  0  0  0
 23 22  1  0  0  0  0
 23 24  1  0  0  0  0
 24 21  1  0  0  0  0
 25 24  2  0  0  0  0
 25 29  1  0  0  0  0
 26 25  1  0  0  0  0
 27 26  2  0  0  0  0
 28 27  1  0  0  0  0
 28 23  2  0  0  0  0
 30 26  1  0  0  0  0
 31 27  1  0  0  0  0
 32 33  1  0  0  0  0
 33 34  1  0  0  0  0
 34 35  2  0  0  0  0
 34 28  1  0  0  0  0
 35 36  1  0  0  0  0
 37 38  1  0  0  0  0
 37 35  1  0  0  0  0
 39 37  2  0  0  0  0
 40 39  1  0  0  0  0
 40 33  2  0  0  0  0
M  END
>  <minimizedAffinity>
-6.36635447

>  <minimizedRMSD>
1.23655379

$$$$
