
 OpenBabel03272501083D

 40 43  0  0  1  0  0  0  0  0999 V2000
   38.8180   32.3360   47.5670 C   0  0  2  0  0  0  0  0  0  0  0  0
   38.0100   32.6780   48.8620 C   0  0  2  0  0  0  0  0  0  0  0  0
   39.0160   33.3850   49.6310 C   0  0  0  0  0  0  0  0  0  0  0  0
   39.8120   34.1110   48.7580 O   0  0  0  0  0  0  0  0  0  0  0  0
   39.5580   33.6970   47.4910 C   0  0  0  0  0  0  0  0  0  0  0  0
   39.5910   31.6050   47.7730 H   0  0  0  0  0  0  0  0  0  0  0  0
   37.2300   33.3720   48.4830 H   0  0  0  0  0  0  0  0  0  0  0  0
   38.5140   34.1360   50.3100 H   0  0  0  0  0  0  0  0  0  0  0  0
   39.6910   32.8070   50.2560 H   0  0  0  0  0  0  0  0  0  0  0  0
   38.9550   34.3710   46.8590 H   0  0  0  0  0  0  0  0  0  0  0  0
   40.5290   33.5180   46.9620 H   0  0  0  0  0  0  0  0  0  0  0  0
   37.3430   29.6440   50.9800 C   0  0  0  0  0  0  0  0  0  0  0  0
   38.0200   30.7840   50.4670 C   0  0  0  0  0  0  0  0  0  0  0  0
   37.3730   31.5220   49.4330 C   0  0  0  0  0  0  0  0  0  0  0  0
   36.1310   31.1100   48.9730 N   0  0  0  0  0  0  0  0  0  0  0  0
   35.5460   30.0250   49.5000 C   0  0  0  0  0  0  0  0  0  0  0  0
   36.1240   29.2900   50.4860 N   0  0  0  0  0  0  0  0  0  0  0  0
   37.8240   29.0920   51.7510 H   0  0  0  0  0  0  0  0  0  0  0  0
   38.9660   31.0630   50.8440 H   0  0  0  0  0  0  0  0  0  0  0  0
   34.5790   29.6850   49.1570 H   0  0  0  0  0  0  0  0  0  0  0  0
   38.0180   32.2090   46.4830 O   0  0  0  0  0  0  0  0  0  0  0  0
   40.3480   31.5920   44.5550 Cl  0  0  0  0  0  0  0  0  0  0  0  0
   38.7520   30.9010   44.4580 C   0  0  0  0  0  0  0  0  0  0  0  0
   37.8870   31.3470   45.4480 C   0  0  0  0  0  0  0  0  0  0  0  0
   36.6080   30.8140   45.3890 C   0  0  0  0  0  0  0  0  0  0  0  0
   36.2310   29.9060   44.4150 C   0  0  0  0  0  0  0  0  0  0  0  0
   37.1300   29.5060   43.4680 C   0  0  0  0  0  0  0  0  0  0  0  0
   38.4030   30.0070   43.4880 C   0  0  0  0  0  0  0  0  0  0  0  0
   35.7970   31.0380   46.0690 H   0  0  0  0  0  0  0  0  0  0  0  0
   35.2430   29.4700   44.3380 H   0  0  0  0  0  0  0  0  0  0  0  0
   36.8810   28.8090   42.7010 H   0  0  0  0  0  0  0  0  0  0  0  0
   39.4160   27.1340   43.3060 Cl  0  0  0  0  0  0  0  0  0  0  0  0
   40.0340   28.4330   42.3070 C   0  0  0  0  0  0  0  0  0  0  0  0
   39.4530   29.6590   42.5340 C   0  0  0  0  0  0  0  0  0  0  0  0
   39.8620   30.7720   41.7970 C   0  0  0  0  0  0  0  0  0  0  0  0
   39.4780   31.7810   41.8880 H   0  0  0  0  0  0  0  0  0  0  0  0
   40.8560   30.6610   40.8300 C   0  0  0  0  0  0  0  0  0  0  0  0
   41.2060   31.4910   40.2360 H   0  0  0  0  0  0  0  0  0  0  0  0
   41.4330   29.4080   40.6150 C   0  0  0  0  0  3  0  0  0  0  0  0
   41.0170   28.3180   41.3510 C   0  0  0  0  0  3  0  0  0  0  0  0
  1  6  1  1  0  0  0
  1  2  1  0  0  0  0
  2  7  1  6  0  0  0
  2 14  1  0  0  0  0
  2  3  1  0  0  0  0
  3  9  1  0  0  0  0
  3  8  1  0  0  0  0
  4  3  1  0  0  0  0
  5  1  1  0  0  0  0
  5  4  1  0  0  0  0
 10  5  1  0  0  0  0
 11  5  1  0  0  0  0
 12 18  1  0  0  0  0
 13 19  1  0  0  0  0
 13 12  2  0  0  0  0
 14 13  1  0  0  0  0
 15 14  2  0  0  0  0
 15 16  1  0  0  0  0
 16 17  2  0  0  0  0
 17 12  1  0  0  0  0
 20 16  1  0  0  0  0
 21  1  1  0  0  0  0
 23 22  1  0  0  0  0
 23 24  1  0  0  0  0
 24 21  1  0  0  0  0
 25 24  2  0  0  0  0
 25 29  1  0  0  0  0
 26 25  1  0  0  0  0
 27 28  1  0  0  0  0
 27 26  2  0  0  0  0
 28 23  2  0  0  0  0
 30 26  1  0  0  0  0
 31 27  1  0  0  0  0
 33 34  1  0  0  0  0
 33 32  1  0  0  0  0
 34 28  1  0  0  0  0
 35 36  1  0  0  0  0
 35 34  2  0  0  0  0
 37 35  1  0  0  0  0
 38 37  1  0  0  0  0
 39 37  2  0  0  0  0
 39 40  1  0  0  0  0
 40 33  2  0  0  0  0
M  END
>  <minimizedAffinity>
-6.26421881

>  <minimizedRMSD>
0.918023705

$$$$
