
 OpenBabel03272508563D

 40 43  0  0  1  0  0  0  0  0999 V2000
   38.3680   31.8840   44.5210 C   0  0  0  0  0  0  0  0  0  0  0  0
   37.2480   32.4380   44.4150 O   0  0  0  0  0  0  0  0  0  0  0  0
   38.9500   31.6100   45.8280 N   0  0  0  0  0  0  0  0  0  0  0  0
   39.9280   31.3400   45.9720 H   0  0  0  0  0  0  0  0  0  0  0  0
   39.1490   31.4860   43.3310 C   0  0  0  0  0  0  0  0  0  0  0  0
   40.1340   30.5500   43.4700 C   0  0  0  0  0  0  0  0  0  0  0  0
   40.8500   30.1970   42.3400 C   0  0  0  0  0  0  0  0  0  0  0  0
   40.5240   30.8110   41.1450 C   0  0  0  0  0  0  0  0  0  0  0  0
   39.5180   31.7660   41.0040 C   0  0  0  0  0  0  0  0  0  0  0  0
   38.8650   32.0610   42.1360 N   0  0  0  0  0  0  0  0  0  0  0  0
   40.3850   30.0710   44.4060 H   0  0  0  0  0  0  0  0  0  0  0  0
   41.6530   29.4720   42.3180 H   0  0  0  0  0  0  0  0  0  0  0  0
   41.0630   30.5670   40.2170 H   0  0  0  0  0  0  0  0  0  0  0  0
   39.2290   32.3690   39.7140 C   0  0  0  0  0  0  0  0  0  0  0  0
   38.7300   33.5170   39.6840 O   0  0  0  0  0  0  0  0  0  0  0  0
   36.9150   30.7190   38.9840 Cl  0  0  0  0  0  0  0  0  0  0  0  0
   38.4120   30.8910   38.0930 C   0  0  0  0  0  0  0  0  0  0  0  0
   39.5050   31.6770   38.4490 C   0  0  0  0  0  0  0  0  0  0  0  0
   40.6150   31.7200   37.6600 C   0  0  0  0  0  0  0  0  0  0  0  0
   41.3840   32.3570   38.0380 H   0  0  0  0  0  0  0  0  0  0  0  0
   40.6550   30.9760   36.4980 C   0  0  0  0  0  0  0  0  0  0  0  0
   41.5580   31.0380   35.8970 H   0  0  0  0  0  0  0  0  0  0  0  0
   39.5720   30.1780   36.1160 C   0  0  0  0  0  3  0  0  0  0  0  0
   38.4400   30.1320   36.9170 C   0  0  0  0  0  3  0  0  0  0  0  0
   38.4360   31.1040   48.2000 C   0  0  2  0  0  0  0  0  0  0  0  0
   38.6750   32.5700   48.1200 C   0  0  0  0  0  0  0  0  0  0  0  0
   38.0790   31.7310   46.9700 C   0  0  1  0  0  0  0  0  0  0  0  0
   39.3700   30.5150   48.3050 H   0  0  0  0  0  0  0  0  0  0  0  0
   38.0030   33.2100   48.7110 H   0  0  0  0  0  0  0  0  0  0  0  0
   39.6920   32.9410   48.0040 H   0  0  0  0  0  0  0  0  0  0  0  0
   37.0000   32.0030   46.7830 H   0  0  0  0  0  0  0  0  0  0  0  0
   35.0670   30.2340   49.5170 C   0  0  0  0  0  0  0  0  0  0  0  0
   35.4020   29.5470   50.7320 C   0  0  0  0  0  0  0  0  0  0  0  0
   36.8040   29.4070   51.0730 C   0  0  0  0  0  0  0  0  0  0  0  0
   37.7500   29.9300   50.2340 N   0  0  0  0  0  0  0  0  0  0  0  0
   37.3490   30.5640   49.1050 C   0  0  0  0  0  0  0  0  0  0  0  0
   36.0270   30.7370   48.7120 N   0  0  0  0  0  0  0  0  0  0  0  0
   34.0130   30.3170   49.2980 H   0  0  0  0  0  0  0  0  0  0  0  0
   34.6630   29.1420   51.3830 H   0  0  0  0  0  0  0  0  0  0  0  0
   37.0380   28.8970   51.9760 H   0  0  0  0  0  0  0  0  0  0  0  0
  1  3  1  0  0  0  0
  2  1  2  0  0  0  0
  3  4  1  0  0  0  0
  3 27  1  0  0  0  0
  5  6  1  0  0  0  0
  5  1  1  0  0  0  0
  6 11  1  0  0  0  0
  7  6  2  0  0  0  0
  8  7  1  0  0  0  0
  9  8  2  0  0  0  0
  9 10  1  0  0  0  0
 10  5  2  0  0  0  0
 12  7  1  0  0  0  0
 13  8  1  0  0  0  0
 14  9  1  0  0  0  0
 15 14  2  0  0  0  0
 17 18  1  0  0  0  0
 17 16  1  0  0  0  0
 18 14  1  0  0  0  0
 19 20  1  0  0  0  0
 19 18  2  0  0  0  0
 21 19  1  0  0  0  0
 22 21  1  0  0  0  0
 23 21  2  0  0  0  0
 23 24  1  0  0  0  0
 24 17  2  0  0  0  0
 25 28  1  6  0  0  0
 25 36  1  0  0  0  0
 26 25  1  0  0  0  0
 26 29  1  0  0  0  0
 27 31  1  6  0  0  0
 27 26  1  0  0  0  0
 27 25  1  0  0  0  0
 30 26  1  0  0  0  0
 32 33  1  0  0  0  0
 33 34  2  0  0  0  0
 33 39  1  0  0  0  0
 34 40  1  0  0  0  0
 35 34  1  0  0  0  0
 36 35  2  0  0  0  0
 37 36  1  0  0  0  0
 37 32  2  0  0  0  0
 38 32  1  0  0  0  0
M  END
>  <minimizedAffinity>
-4.94571304

>  <minimizedRMSD>
0.243979841

$$$$
