
 OpenBabel03272500543D

 32 34  0  0  0  0  0  0  0  0999 V2000
   37.2750   31.4470   43.4380 C   0  0  0  0  0  0  0  0  0  0  0  0
   37.8450   31.4870   42.1590 C   0  0  0  0  0  0  0  0  0  0  0  0
   39.0050   32.2000   41.8950 C   0  0  0  0  0  0  0  0  0  0  0  0
   39.6320   32.9120   42.9530 C   0  0  0  0  0  0  0  0  0  0  0  0
   39.0380   32.8430   44.1810 C   0  0  0  0  0  0  0  0  0  0  0  0
   37.9040   32.1430   44.4510 C   0  0  0  0  0  0  0  0  0  0  0  0
   37.3720   30.9450   41.3350 H   0  0  0  0  0  0  0  0  0  0  0  0
   39.3680   32.1620   40.8540 H   0  0  0  0  0  0  0  0  0  0  0  0
   40.5030   33.4020   42.5780 H   0  0  0  0  0  0  0  0  0  0  0  0
   39.6440   33.4820   44.7850 H   0  0  0  0  0  0  0  0  0  0  0  0
   36.1520   29.3160   43.6910 C   0  0  0  0  0  0  0  0  0  0  0  0
   36.0290   30.7080   43.5350 C   0  0  0  0  0  0  0  0  0  0  0  0
   34.7270   31.2360   43.4860 C   0  0  0  0  0  0  0  0  0  0  0  0
   33.6740   30.4110   43.5880 N   0  0  0  0  0  0  0  0  0  0  0  0
   33.8040   29.0870   43.7360 C   0  0  0  0  0  0  0  0  0  0  0  0
   35.0370   28.5530   43.7860 N   0  0  0  0  0  0  0  0  0  0  0  0
   37.1170   28.8250   43.7390 H   0  0  0  0  0  0  0  0  0  0  0  0
   34.6910   32.3160   43.3640 H   0  0  0  0  0  0  0  0  0  0  0  0
   32.8820   28.5330   43.8070 H   0  0  0  0  0  0  0  0  0  0  0  0
   37.9630   31.0430   46.5220 C   0  0  0  0  0  0  0  0  0  0  0  0
   38.8390   30.2880   45.9720 O   0  0  0  0  0  0  0  0  0  0  0  0
   37.3300   32.0580   45.7210 N   0  0  0  0  0  0  0  0  0  0  0  0
   36.5500   32.6600   46.0330 H   0  0  0  0  0  0  0  0  0  0  0  0
   35.1840   29.9130   47.0920 Cl  0  0  0  0  0  0  0  0  0  0  0  0
   36.3260   30.4410   48.3100 C   0  0  0  0  0  0  0  0  0  0  0  0
   37.5570   30.9350   47.9460 C   0  0  0  0  0  0  0  0  0  0  0  0
   38.5320   31.3780   48.8180 C   0  0  0  0  0  0  0  0  0  0  0  0
   39.4840   31.7600   48.5160 H   0  0  0  0  0  0  0  0  0  0  0  0
   38.2190   31.3060   50.1670 C   0  0  0  0  0  0  0  0  0  0  0  0
   38.9330   31.6350   50.9290 H   0  0  0  0  0  0  0  0  0  0  0  0
   37.0050   30.8220   50.6090 C   0  0  0  0  0  3  0  0  0  0  0  0
   36.0930   30.4020   49.6620 C   0  0  0  0  0  3  0  0  0  0  0  0
  1 12  1  0  0  0  0
  1  6  1  0  0  0  0
  2  1  2  0  0  0  0
  3  2  1  0  0  0  0
  3  4  2  0  0  0  0
  4  5  1  0  0  0  0
  5  6  2  0  0  0  0
  5 10  1  0  0  0  0
  6 22  1  0  0  0  0
  7  2  1  0  0  0  0
  8  3  1  0  0  0  0
  9  4  1  0  0  0  0
 11 17  1  0  0  0  0
 11 16  1  0  0  0  0
 12 11  2  0  0  0  0
 13 12  1  0  0  0  0
 13 14  2  0  0  0  0
 14 15  1  0  0  0  0
 15 16  2  0  0  0  0
 15 19  1  0  0  0  0
 18 13  1  0  0  0  0
 20 26  1  0  0  0  0
 21 20  2  0  0  0  0
 22 23  1  0  0  0  0
 22 20  1  0  0  0  0
 24 25  1  0  0  0  0
 25 32  1  0  0  0  0
 26 25  2  0  0  0  0
 26 27  1  0  0  0  0
 27 29  2  0  0  0  0
 28 27  1  0  0  0  0
 29 31  1  0  0  0  0
 29 30  1  0  0  0  0
 32 31  2  0  0  0  0
M  END
>  <minimizedAffinity>
-5.63085365

>  <minimizedRMSD>
5.45437479

$$$$
