
 OpenBabel03272508563D

 40 43  0  0  1  0  0  0  0  0999 V2000
   38.3920   31.8640   44.5010 C   0  0  0  0  0  0  0  0  0  0  0  0
   37.2930   32.4610   44.3980 O   0  0  0  0  0  0  0  0  0  0  0  0
   38.9560   31.5480   45.8060 N   0  0  0  0  0  0  0  0  0  0  0  0
   39.9230   31.2390   45.9500 H   0  0  0  0  0  0  0  0  0  0  0  0
   39.1620   31.4530   43.3070 C   0  0  0  0  0  0  0  0  0  0  0  0
   40.2110   30.5930   43.4630 C   0  0  0  0  0  0  0  0  0  0  0  0
   40.9160   30.2270   42.3300 C   0  0  0  0  0  0  0  0  0  0  0  0
   40.5150   30.7530   41.1160 C   0  0  0  0  0  0  0  0  0  0  0  0
   39.4440   31.6310   40.9590 C   0  0  0  0  0  0  0  0  0  0  0  0
   38.8060   31.9440   42.0940 N   0  0  0  0  0  0  0  0  0  0  0  0
   40.5220   30.1830   44.4140 H   0  0  0  0  0  0  0  0  0  0  0  0
   41.7650   29.5560   42.3200 H   0  0  0  0  0  0  0  0  0  0  0  0
   41.0420   30.4950   40.1850 H   0  0  0  0  0  0  0  0  0  0  0  0
   39.0780   32.1440   39.6490 C   0  0  0  0  0  0  0  0  0  0  0  0
   39.0700   33.3820   39.4670 O   0  0  0  0  0  0  0  0  0  0  0  0
   41.3370   31.9520   37.7870 Cl  0  0  0  0  0  0  0  0  0  0  0  0
   39.7830   31.1590   37.6450 C   0  0  0  0  0  0  0  0  0  0  0  0
   38.7180   31.2570   38.5360 C   0  0  0  0  0  0  0  0  0  0  0  0
   37.5560   30.5820   38.3050 C   0  0  0  0  0  0  0  0  0  0  0  0
   36.8140   30.7380   39.0570 H   0  0  0  0  0  0  0  0  0  0  0  0
   37.4380   29.7950   37.1770 C   0  0  0  0  0  0  0  0  0  0  0  0
   36.4950   29.2750   37.0300 H   0  0  0  0  0  0  0  0  0  0  0  0
   38.4920   29.6780   36.2660 C   0  0  0  0  0  3  0  0  0  0  0  0
   39.6760   30.3630   36.4980 C   0  0  0  0  0  3  0  0  0  0  0  0
   38.4380   31.0690   48.1820 C   0  0  2  0  0  0  0  0  0  0  0  0
   38.6840   32.5330   48.0870 C   0  0  0  0  0  0  0  0  0  0  0  0
   38.0850   31.6850   46.9460 C   0  0  1  0  0  0  0  0  0  0  0  0
   39.3690   30.4760   48.2940 H   0  0  0  0  0  0  0  0  0  0  0  0
   38.0150   33.1820   48.6710 H   0  0  0  0  0  0  0  0  0  0  0  0
   39.7030   32.8970   47.9680 H   0  0  0  0  0  0  0  0  0  0  0  0
   37.0080   31.9610   46.7550 H   0  0  0  0  0  0  0  0  0  0  0  0
   35.0630   30.2370   49.5090 C   0  0  0  0  0  0  0  0  0  0  0  0
   35.3940   29.5530   50.7270 C   0  0  0  0  0  0  0  0  0  0  0  0
   36.7950   29.4020   51.0660 C   0  0  0  0  0  0  0  0  0  0  0  0
   37.7440   29.9120   50.2230 N   0  0  0  0  0  0  0  0  0  0  0  0
   37.3480   30.5430   49.0920 C   0  0  0  0  0  0  0  0  0  0  0  0
   36.0260   30.7280   48.7000 N   0  0  0  0  0  0  0  0  0  0  0  0
   34.0090   30.3290   49.2910 H   0  0  0  0  0  0  0  0  0  0  0  0
   34.6520   29.1580   51.3810 H   0  0  0  0  0  0  0  0  0  0  0  0
   37.0250   28.8940   51.9720 H   0  0  0  0  0  0  0  0  0  0  0  0
  1  3  1  0  0  0  0
  2  1  2  0  0  0  0
  3  4  1  0  0  0  0
  3 27  1  0  0  0  0
  5  6  1  0  0  0  0
  5  1  1  0  0  0  0
  6 11  1  0  0  0  0
  7  6  2  0  0  0  0
  8  7  1  0  0  0  0
  9  8  2  0  0  0  0
  9 10  1  0  0  0  0
 10  5  2  0  0  0  0
 12  7  1  0  0  0  0
 13  8  1  0  0  0  0
 14  9  1  0  0  0  0
 15 14  2  0  0  0  0
 17 16  1  0  0  0  0
 17 18  1  0  0  0  0
 18 14  1  0  0  0  0
 19 18  2  0  0  0  0
 19 20  1  0  0  0  0
 21 19  1  0  0  0  0
 22 21  1  0  0  0  0
 23 24  1  0  0  0  0
 23 21  2  0  0  0  0
 24 17  2  0  0  0  0
 25 28  1  6  0  0  0
 25 36  1  0  0  0  0
 26 25  1  0  0  0  0
 26 29  1  0  0  0  0
 27 31  1  6  0  0  0
 27 26  1  0  0  0  0
 27 25  1  0  0  0  0
 30 26  1  0  0  0  0
 32 33  1  0  0  0  0
 33 34  2  0  0  0  0
 33 39  1  0  0  0  0
 34 40  1  0  0  0  0
 35 34  1  0  0  0  0
 36 35  2  0  0  0  0
 37 36  1  0  0  0  0
 37 32  2  0  0  0  0
 38 32  1  0  0  0  0
M  END
>  <minimizedAffinity>
-4.92281485

>  <minimizedRMSD>
0.630239487

$$$$
