
 OpenBabel03272508563D

 40 43  0  0  1  0  0  0  0  0999 V2000
   38.3800   31.8710   44.5310 C   0  0  0  0  0  0  0  0  0  0  0  0
   37.2640   32.4330   44.4200 O   0  0  0  0  0  0  0  0  0  0  0  0
   38.9530   31.5910   45.8410 N   0  0  0  0  0  0  0  0  0  0  0  0
   39.9280   31.3130   45.9900 H   0  0  0  0  0  0  0  0  0  0  0  0
   39.1630   31.4680   43.3440 C   0  0  0  0  0  0  0  0  0  0  0  0
   40.1410   30.5250   43.4880 C   0  0  0  0  0  0  0  0  0  0  0  0
   40.8600   30.1680   42.3610 C   0  0  0  0  0  0  0  0  0  0  0  0
   40.5440   30.7860   41.1650 C   0  0  0  0  0  0  0  0  0  0  0  0
   39.5460   31.7480   41.0200 C   0  0  0  0  0  0  0  0  0  0  0  0
   38.8900   32.0470   42.1490 N   0  0  0  0  0  0  0  0  0  0  0  0
   40.3840   30.0440   44.4240 H   0  0  0  0  0  0  0  0  0  0  0  0
   41.6580   29.4370   42.3430 H   0  0  0  0  0  0  0  0  0  0  0  0
   41.0860   30.5380   40.2400 H   0  0  0  0  0  0  0  0  0  0  0  0
   39.2680   32.3550   39.7290 C   0  0  0  0  0  0  0  0  0  0  0  0
   38.6450   33.4400   39.6950 O   0  0  0  0  0  0  0  0  0  0  0  0
   37.1840   30.5110   38.7960 Cl  0  0  0  0  0  0  0  0  0  0  0  0
   38.7120   30.8580   38.0160 C   0  0  0  0  0  0  0  0  0  0  0  0
   39.6940   31.7360   38.4670 C   0  0  0  0  0  0  0  0  0  0  0  0
   40.8440   31.9140   37.7580 C   0  0  0  0  0  0  0  0  0  0  0  0
   41.5180   32.6110   38.2060 H   0  0  0  0  0  0  0  0  0  0  0  0
   41.0350   31.2190   36.5820 C   0  0  0  0  0  0  0  0  0  0  0  0
   41.9650   31.3890   36.0470 H   0  0  0  0  0  0  0  0  0  0  0  0
   40.0650   30.3310   36.1050 C   0  0  0  0  0  3  0  0  0  0  0  0
   38.8930   30.1470   36.8240 C   0  0  0  0  0  3  0  0  0  0  0  0
   38.4310   31.0990   48.2140 C   0  0  2  0  0  0  0  0  0  0  0  0
   38.6660   32.5650   48.1250 C   0  0  0  0  0  0  0  0  0  0  0  0
   38.0770   31.7170   46.9790 C   0  0  1  0  0  0  0  0  0  0  0  0
   39.3660   30.5140   48.3270 H   0  0  0  0  0  0  0  0  0  0  0  0
   37.9890   33.2070   48.7090 H   0  0  0  0  0  0  0  0  0  0  0  0
   39.6820   32.9380   48.0110 H   0  0  0  0  0  0  0  0  0  0  0  0
   36.9980   31.9850   46.7850 H   0  0  0  0  0  0  0  0  0  0  0  0
   35.0590   30.2320   49.5250 C   0  0  0  0  0  0  0  0  0  0  0  0
   35.3910   29.5500   50.7450 C   0  0  0  0  0  0  0  0  0  0  0  0
   36.7920   29.4130   51.0890 C   0  0  0  0  0  0  0  0  0  0  0  0
   37.7400   29.9330   50.2510 N   0  0  0  0  0  0  0  0  0  0  0  0
   37.3420   30.5620   49.1190 C   0  0  0  0  0  0  0  0  0  0  0  0
   36.0200   30.7330   48.7210 N   0  0  0  0  0  0  0  0  0  0  0  0
   34.0050   30.3140   49.3030 H   0  0  0  0  0  0  0  0  0  0  0  0
   34.6510   29.1470   51.3940 H   0  0  0  0  0  0  0  0  0  0  0  0
   37.0240   28.9070   51.9960 H   0  0  0  0  0  0  0  0  0  0  0  0
  1  3  1  0  0  0  0
  2  1  2  0  0  0  0
  3  4  1  0  0  0  0
  3 27  1  0  0  0  0
  5  6  1  0  0  0  0
  5  1  1  0  0  0  0
  6 11  1  0  0  0  0
  7  6  2  0  0  0  0
  8  7  1  0  0  0  0
  9  8  2  0  0  0  0
  9 10  1  0  0  0  0
 10  5  2  0  0  0  0
 12  7  1  0  0  0  0
 13  8  1  0  0  0  0
 14  9  1  0  0  0  0
 15 14  2  0  0  0  0
 17 18  1  0  0  0  0
 17 16  1  0  0  0  0
 18 14  1  0  0  0  0
 19 20  1  0  0  0  0
 19 18  2  0  0  0  0
 21 19  1  0  0  0  0
 22 21  1  0  0  0  0
 23 21  2  0  0  0  0
 23 24  1  0  0  0  0
 24 17  2  0  0  0  0
 25 28  1  6  0  0  0
 25 36  1  0  0  0  0
 26 25  1  0  0  0  0
 26 29  1  0  0  0  0
 27 31  1  6  0  0  0
 27 26  1  0  0  0  0
 27 25  1  0  0  0  0
 30 26  1  0  0  0  0
 32 33  1  0  0  0  0
 33 34  2  0  0  0  0
 33 39  1  0  0  0  0
 34 40  1  0  0  0  0
 35 34  1  0  0  0  0
 36 35  2  0  0  0  0
 37 36  1  0  0  0  0
 37 32  2  0  0  0  0
 38 32  1  0  0  0  0
M  END
>  <minimizedAffinity>
-4.98025608

>  <minimizedRMSD>
0.471502006

$$$$
