
 OpenBabel03272508563D

 40 43  0  0  1  0  0  0  0  0999 V2000
   38.3680   31.8840   44.5220 C   0  0  0  0  0  0  0  0  0  0  0  0
   37.2460   32.4370   44.4160 O   0  0  0  0  0  0  0  0  0  0  0  0
   38.9500   31.6110   45.8290 N   0  0  0  0  0  0  0  0  0  0  0  0
   39.9280   31.3430   45.9730 H   0  0  0  0  0  0  0  0  0  0  0  0
   39.1480   31.4860   43.3310 C   0  0  0  0  0  0  0  0  0  0  0  0
   40.1330   30.5510   43.4710 C   0  0  0  0  0  0  0  0  0  0  0  0
   40.8490   30.1980   42.3400 C   0  0  0  0  0  0  0  0  0  0  0  0
   40.5230   30.8120   41.1460 C   0  0  0  0  0  0  0  0  0  0  0  0
   39.5180   31.7660   41.0050 C   0  0  0  0  0  0  0  0  0  0  0  0
   38.8650   32.0610   42.1360 N   0  0  0  0  0  0  0  0  0  0  0  0
   40.3850   30.0720   44.4070 H   0  0  0  0  0  0  0  0  0  0  0  0
   41.6520   29.4720   42.3190 H   0  0  0  0  0  0  0  0  0  0  0  0
   41.0630   30.5670   40.2180 H   0  0  0  0  0  0  0  0  0  0  0  0
   39.2290   32.3700   39.7140 C   0  0  0  0  0  0  0  0  0  0  0  0
   38.7290   33.5170   39.6840 O   0  0  0  0  0  0  0  0  0  0  0  0
   36.9160   30.7180   38.9850 Cl  0  0  0  0  0  0  0  0  0  0  0  0
   38.4120   30.8900   38.0930 C   0  0  0  0  0  0  0  0  0  0  0  0
   39.5040   31.6780   38.4490 C   0  0  0  0  0  0  0  0  0  0  0  0
   40.6140   31.7210   37.6610 C   0  0  0  0  0  0  0  0  0  0  0  0
   41.3830   32.3600   38.0390 H   0  0  0  0  0  0  0  0  0  0  0  0
   40.6560   30.9780   36.4980 C   0  0  0  0  0  0  0  0  0  0  0  0
   41.5590   31.0400   35.8980 H   0  0  0  0  0  0  0  0  0  0  0  0
   39.5730   30.1780   36.1170 C   0  0  0  0  0  3  0  0  0  0  0  0
   38.4410   30.1310   36.9170 C   0  0  0  0  0  3  0  0  0  0  0  0
   38.4370   31.1050   48.2010 C   0  0  2  0  0  0  0  0  0  0  0  0
   38.6750   32.5710   48.1200 C   0  0  0  0  0  0  0  0  0  0  0  0
   38.0790   31.7320   46.9710 C   0  0  1  0  0  0  0  0  0  0  0  0
   39.3700   30.5160   48.3050 H   0  0  0  0  0  0  0  0  0  0  0  0
   38.0030   33.2100   48.7120 H   0  0  0  0  0  0  0  0  0  0  0  0
   39.6920   32.9420   48.0050 H   0  0  0  0  0  0  0  0  0  0  0  0
   37.0000   32.0040   46.7840 H   0  0  0  0  0  0  0  0  0  0  0  0
   35.0680   30.2330   49.5170 C   0  0  0  0  0  0  0  0  0  0  0  0
   35.4030   29.5470   50.7330 C   0  0  0  0  0  0  0  0  0  0  0  0
   36.8050   29.4090   51.0740 C   0  0  0  0  0  0  0  0  0  0  0  0
   37.7500   29.9320   50.2350 N   0  0  0  0  0  0  0  0  0  0  0  0
   37.3500   30.5640   49.1060 C   0  0  0  0  0  0  0  0  0  0  0  0
   36.0270   30.7370   48.7120 N   0  0  0  0  0  0  0  0  0  0  0  0
   34.0140   30.3150   49.2970 H   0  0  0  0  0  0  0  0  0  0  0  0
   34.6640   29.1420   51.3830 H   0  0  0  0  0  0  0  0  0  0  0  0
   37.0390   28.8990   51.9780 H   0  0  0  0  0  0  0  0  0  0  0  0
  1  3  1  0  0  0  0
  2  1  2  0  0  0  0
  3  4  1  0  0  0  0
  3 27  1  0  0  0  0
  5  6  1  0  0  0  0
  5  1  1  0  0  0  0
  6 11  1  0  0  0  0
  7  6  2  0  0  0  0
  8  7  1  0  0  0  0
  9  8  2  0  0  0  0
  9 10  1  0  0  0  0
 10  5  2  0  0  0  0
 12  7  1  0  0  0  0
 13  8  1  0  0  0  0
 14  9  1  0  0  0  0
 15 14  2  0  0  0  0
 17 18  1  0  0  0  0
 17 16  1  0  0  0  0
 18 14  1  0  0  0  0
 19 20  1  0  0  0  0
 19 18  2  0  0  0  0
 21 19  1  0  0  0  0
 22 21  1  0  0  0  0
 23 21  2  0  0  0  0
 23 24  1  0  0  0  0
 24 17  2  0  0  0  0
 25 28  1  6  0  0  0
 25 36  1  0  0  0  0
 26 25  1  0  0  0  0
 26 29  1  0  0  0  0
 27 31  1  6  0  0  0
 27 26  1  0  0  0  0
 27 25  1  0  0  0  0
 30 26  1  0  0  0  0
 32 33  1  0  0  0  0
 33 34  2  0  0  0  0
 33 39  1  0  0  0  0
 34 40  1  0  0  0  0
 35 34  1  0  0  0  0
 36 35  2  0  0  0  0
 37 36  1  0  0  0  0
 37 32  2  0  0  0  0
 38 32  1  0  0  0  0
M  END
>  <minimizedAffinity>
-4.9456358

>  <minimizedRMSD>
0.482938707

$$$$
