
 OpenBabel03262523563D

 38 40  0  0  1  0  0  0  0  0999 V2000
   34.1810   30.0600   44.1720 C   0  0  1  0  0  0  0  0  0  0  0  0
   33.4120   31.2870   44.0210 C   0  0  0  0  0  0  0  0  0  0  0  0
   33.3820   31.6500   42.5670 C   0  0  0  0  0  0  0  0  0  0  0  0
   34.7160   31.4710   41.9380 C   0  0  0  0  0  0  0  0  0  0  0  0
   35.8610   31.3920   42.8740 C   0  0  0  0  0  0  0  0  0  0  0  0
   35.6610   30.4120   44.0300 C   0  0  1  0  0  0  0  0  0  0  0  0
   33.9770   29.3280   43.3450 H   0  0  0  0  0  0  0  0  0  0  0  0
   32.3450   31.1810   44.3770 H   0  0  0  0  0  0  0  0  0  0  0  0
   33.8400   32.1520   44.5620 H   0  0  0  0  0  0  0  0  0  0  0  0
   32.9240   32.6540   42.4250 H   0  0  0  0  0  0  0  0  0  0  0  0
   32.6660   30.9210   42.0850 H   0  0  0  0  0  0  0  0  0  0  0  0
   34.7410   30.5700   41.2740 H   0  0  0  0  0  0  0  0  0  0  0  0
   34.9050   32.3400   41.2730 H   0  0  0  0  0  0  0  0  0  0  0  0
   36.7660   31.1470   42.2820 H   0  0  0  0  0  0  0  0  0  0  0  0
   36.0420   32.3850   43.3410 H   0  0  0  0  0  0  0  0  0  0  0  0
   36.2010   29.4810   43.7530 H   0  0  0  0  0  0  0  0  0  0  0  0
   33.8890   27.2870   46.6260 C   0  0  0  0  0  0  0  0  0  0  0  0
   34.0400   27.9640   45.3840 C   0  0  0  0  0  0  0  0  0  0  0  0
   34.0510   29.3520   45.4520 C   0  0  0  0  0  0  0  0  0  0  0  0
   33.9200   29.9990   46.6730 N   0  0  0  0  0  0  0  0  0  0  0  0
   33.7810   29.3100   47.8140 C   0  0  0  0  0  0  0  0  0  0  0  0
   33.7630   27.9560   47.8060 N   0  0  0  0  0  0  0  0  0  0  0  0
   33.8720   26.2060   46.6390 H   0  0  0  0  0  0  0  0  0  0  0  0
   34.1370   27.4120   44.4660 H   0  0  0  0  0  0  0  0  0  0  0  0
   33.6920   29.9560   48.6750 H   0  0  0  0  0  0  0  0  0  0  0  0
   37.5300   30.7960   45.8660 C   0  0  0  0  0  0  0  0  0  0  0  0
   38.3020   30.1070   45.1550 O   0  0  0  0  0  0  0  0  0  0  0  0
   36.2590   30.9310   45.2290 N   0  0  0  0  0  0  0  0  0  0  0  0
   35.4860   31.5340   45.6430 H   0  0  0  0  0  0  0  0  0  0  0  0
   39.6940   32.8790   45.9360 Cl  0  0  0  0  0  0  0  0  0  0  0  0
   38.7060   32.4160   47.3240 C   0  0  0  0  0  0  0  0  0  0  0  0
   37.7310   31.4330   47.1610 C   0  0  0  0  0  0  0  0  0  0  0  0
   36.9800   31.1030   48.2870 C   0  0  0  0  0  0  0  0  0  0  0  0
   36.2180   30.3420   48.1790 H   0  0  0  0  0  0  0  0  0  0  0  0
   37.1730   31.7090   49.5180 C   0  0  0  0  0  0  0  0  0  0  0  0
   36.5730   31.4370   50.3890 H   0  0  0  0  0  0  0  0  0  0  0  0
   38.1550   32.6910   49.6560 C   0  0  0  0  0  0  0  0  0  0  0  0
   38.9300   33.0490   48.5490 C   0  0  0  0  0  0  0  0  0  0  0  0
  1  7  1  6  0  0  0
  1 19  1  0  0  0  0
  2  1  1  0  0  0  0
  2  8  1  0  0  0  0
  2  9  1  0  0  0  0
  3  2  1  0  0  0  0
  4  3  1  0  0  0  0
  4  5  1  0  0  0  0
  5 15  1  0  0  0  0
  5  6  1  0  0  0  0
  6 16  1  6  0  0  0
  6  1  1  0  0  0  0
  6 28  1  0  0  0  0
 10  3  1  0  0  0  0
 11  3  1  0  0  0  0
 12  4  1  0  0  0  0
 13  4  1  0  0  0  0
 14  5  1  0  0  0  0
 17 23  1  0  0  0  0
 17 22  1  0  0  0  0
 18 19  1  0  0  0  0
 18 17  2  0  0  0  0
 19 20  2  0  0  0  0
 20 21  1  0  0  0  0
 21 25  1  0  0  0  0
 22 21  2  0  0  0  0
 24 18  1  0  0  0  0
 26 32  1  0  0  0  0
 27 26  2  0  0  0  0
 28 29  1  0  0  0  0
 28 26  1  0  0  0  0
 30 31  1  0  0  0  0
 31 38  1  0  0  0  0
 32 31  2  0  0  0  0
 32 33  1  0  0  0  0
 33 35  2  0  0  0  0
 34 33  1  0  0  0  0
 35 37  1  0  0  0  0
 35 36  1  0  0  0  0
 38 37  2  0  0  0  0
M  END
>  <minimizedAffinity>
-5.19248295

>  <minimizedRMSD>
4.76032257

$$$$
