
 OpenBabel03272509303D

 38 40  0  0  1  0  0  0  0  0999 V2000
   36.1790   30.6600   49.0270 C   0  0  2  0  0  0  0  0  0  0  0  0
   37.3010   31.3390   49.7530 C   0  0  0  0  0  0  0  0  0  0  0  0
   38.0900   30.3940   50.6350 C   0  0  0  0  0  0  0  0  0  0  0  0
   37.1710   29.7180   51.6470 C   0  0  0  0  0  0  0  0  0  0  0  0
   35.8100   29.3650   51.0890 C   0  0  0  0  0  0  0  0  0  0  0  0
   35.9150   29.2920   49.5570 C   0  0  1  0  0  0  0  0  0  0  0  0
   35.1920   31.2050   49.1050 H   0  0  0  0  0  0  0  0  0  0  0  0
   37.9250   32.0060   49.1870 H   0  0  0  0  0  0  0  0  0  0  0  0
   36.7720   32.0120   50.5100 H   0  0  0  0  0  0  0  0  0  0  0  0
   38.7850   31.0260   51.2240 H   0  0  0  0  0  0  0  0  0  0  0  0
   38.5910   29.5850   50.0760 H   0  0  0  0  0  0  0  0  0  0  0  0
   37.6380   28.7610   52.0020 H   0  0  0  0  0  0  0  0  0  0  0  0
   37.0450   30.3520   52.5400 H   0  0  0  0  0  0  0  0  0  0  0  0
   35.0790   30.1250   51.3750 H   0  0  0  0  0  0  0  0  0  0  0  0
   35.4450   28.3720   51.4520 H   0  0  0  0  0  0  0  0  0  0  0  0
   36.7630   28.6620   49.4460 H   0  0  0  0  0  0  0  0  0  0  0  0
   36.4650   30.5640   47.5700 C   0  0  0  0  0  0  0  0  0  0  0  0
   37.8030   30.7460   47.2000 C   0  0  0  0  0  0  0  0  0  0  0  0
   38.0930   30.6570   45.8330 C   0  0  0  0  0  0  0  0  0  0  0  0
   37.0730   30.4010   44.9510 N   0  0  0  0  0  0  0  0  0  0  0  0
   35.7750   30.2300   45.3690 C   0  0  0  0  0  0  0  0  0  0  0  0
   35.4950   30.3160   46.6790 N   0  0  0  0  0  0  0  0  0  0  0  0
   38.6810   30.9410   47.7800 H   0  0  0  0  0  0  0  0  0  0  0  0
   39.0710   30.7750   45.4010 H   0  0  0  0  0  0  0  0  0  0  0  0
   34.9820   30.0280   44.6630 H   0  0  0  0  0  0  0  0  0  0  0  0
   33.4950   28.5890   49.2870 C   0  0  0  0  0  0  0  0  0  0  0  0
   32.8570   29.2390   50.1670 O   0  0  0  0  0  0  0  0  0  0  0  0
   34.8670   28.5850   48.9180 N   0  0  0  0  0  0  0  0  0  0  0  0
   34.9820   27.9520   48.0660 H   0  0  0  0  0  0  0  0  0  0  0  0
   34.3850   27.0920   46.8790 Cl  0  0  0  0  0  0  0  0  0  0  0  0
   32.7400   27.0100   47.5220 C   0  0  0  0  0  0  0  0  0  0  0  0
   32.4460   27.7560   48.6560 C   0  0  0  0  0  0  0  0  0  0  0  0
   31.1660   27.7210   49.1950 C   0  0  0  0  0  0  0  0  0  0  0  0
   30.9450   28.2980   50.0700 H   0  0  0  0  0  0  0  0  0  0  0  0
   30.1770   26.9400   48.6020 C   0  0  0  0  0  0  0  0  0  0  0  0
   29.1670   26.8820   48.9840 H   0  0  0  0  0  0  0  0  0  0  0  0
   30.4660   26.1870   47.4590 C   0  0  0  0  0  3  0  0  0  0  0  0
   31.7530   26.2340   46.9340 C   0  0  0  0  0  3  0  0  0  0  0  0
  1  7  1  1  0  0  0
  1  6  1  0  0  0  0
  1  2  1  0  0  0  0
  2  9  1  0  0  0  0
  2  3  1  0  0  0  0
  3 10  1  0  0  0  0
  3  4  1  0  0  0  0
  4 12  1  0  0  0  0
  4 13  1  0  0  0  0
  5 14  1  0  0  0  0
  5 15  1  0  0  0  0
  5  4  1  0  0  0  0
  6 16  1  6  0  0  0
  6  5  1  0  0  0  0
  8  2  1  0  0  0  0
 11  3  1  0  0  0  0
 17  1  1  0  0  0  0
 18 17  1  0  0  0  0
 18 23  1  0  0  0  0
 19 18  2  0  0  0  0
 20 21  2  0  0  0  0
 20 19  1  0  0  0  0
 21 22  1  0  0  0  0
 22 17  2  0  0  0  0
 24 19  1  0  0  0  0
 25 21  1  0  0  0  0
 26 27  2  0  0  0  0
 28 26  1  0  0  0  0
 28  6  1  0  0  0  0
 29 28  1  0  0  0  0
 30 31  1  0  0  0  0
 31 32  1  0  0  0  0
 32 33  2  0  0  0  0
 32 26  1  0  0  0  0
 33 34  1  0  0  0  0
 35 36  1  0  0  0  0
 35 33  1  0  0  0  0
 37 35  2  0  0  0  0
 38 37  1  0  0  0  0
 38 31  2  0  0  0  0
M  END
>  <minimizedAffinity>
-5.67228079

>  <minimizedRMSD>
0.794390559

$$$$
