
 OpenBabel03272508503D

 29 31  0  0  1  0  0  0  0  0999 V2000
   37.4780   30.1400   44.0980 C   0  0  2  0  0  0  0  0  0  0  0  0
   36.4320   31.1470   43.9630 C   0  0  0  0  0  0  0  0  0  0  0  0
   37.3860   31.1150   45.1740 C   0  0  1  0  0  0  0  0  0  0  0  0
   37.1210   29.0750   44.3340 H   0  0  0  0  0  0  0  0  0  0  0  0
   36.5690   32.0240   43.3050 H   0  0  0  0  0  0  0  0  0  0  0  0
   35.3800   30.8870   44.1720 H   0  0  0  0  0  0  0  0  0  0  0  0
   38.0080   31.9950   45.2710 H   0  0  0  0  0  0  0  0  0  0  0  0
   40.2160   31.1800   41.8320 C   0  0  0  0  0  0  0  0  0  0  0  0
   40.9150   29.9580   41.6390 C   0  0  0  0  0  0  0  0  0  0  0  0
   40.4210   28.7880   42.3100 C   0  0  0  0  0  0  0  0  0  0  0  0
   39.3260   28.8990   43.0830 N   0  0  0  0  0  0  0  0  0  0  0  0
   38.6940   30.0950   43.2320 C   0  0  0  0  0  0  0  0  0  0  0  0
   39.1110   31.2280   42.6290 N   0  0  0  0  0  0  0  0  0  0  0  0
   40.6370   32.0110   41.3040 H   0  0  0  0  0  0  0  0  0  0  0  0
   41.7900   29.9220   41.0070 H   0  0  0  0  0  0  0  0  0  0  0  0
   40.9490   27.8510   42.1690 H   0  0  0  0  0  0  0  0  0  0  0  0
   37.2590   31.2300   47.6320 C   0  0  0  0  0  0  0  0  0  0  0  0
   38.1040   32.1620   47.6120 O   0  0  0  0  0  0  0  0  0  0  0  0
   36.7350   30.6750   46.4080 N   0  0  0  0  0  0  0  0  0  0  0  0
   35.9520   30.0060   46.3820 H   0  0  0  0  0  0  0  0  0  0  0  0
   34.3190   30.3910   47.8060 Cl  0  0  0  0  0  0  0  0  0  0  0  0
   35.4620   30.1790   49.1100 C   0  0  0  0  0  0  0  0  0  0  0  0
   36.7250   30.6190   48.8420 C   0  0  0  0  0  0  0  0  0  0  0  0
   37.7300   30.5130   49.7860 C   0  0  0  0  0  0  0  0  0  0  0  0
   38.7810   30.8230   49.7000 H   0  0  0  0  0  0  0  0  0  0  0  0
   37.5120   29.9580   51.0450 C   0  0  0  0  0  0  0  0  0  0  0  0
   38.2580   29.8470   51.8260 H   0  0  0  0  0  0  0  0  0  0  0  0
   36.2150   29.5120   51.3070 C   0  0  0  0  0  3  0  0  0  0  0  0
   35.2290   29.6270   50.3560 C   0  0  0  0  0  3  0  0  0  0  0  0
  1  4  1  1  0  0  0
  1  3  1  0  0  0  0
  2  1  1  0  0  0  0
  2  6  1  0  0  0  0
  2  3  1  0  0  0  0
  3  7  1  1  0  0  0
  3 19  1  0  0  0  0
  5  2  1  0  0  0  0
  8 13  1  0  0  0  0
  9  8  2  0  0  0  0
  9 10  1  0  0  0  0
 10 11  2  0  0  0  0
 11 12  1  0  0  0  0
 12  1  1  0  0  0  0
 13 12  2  0  0  0  0
 14  8  1  0  0  0  0
 15  9  1  0  0  0  0
 16 10  1  0  0  0  0
 17 23  1  0  0  0  0
 18 17  2  0  0  0  0
 19 17  1  0  0  0  0
 20 19  1  0  0  0  0
 21 22  1  0  0  0  0
 22 29  1  0  0  0  0
 23 22  2  0  0  0  0
 23 24  1  0  0  0  0
 24 26  2  0  0  0  0
 25 24  1  0  0  0  0
 26 28  1  0  0  0  0
 26 27  1  0  0  0  0
 29 28  2  0  0  0  0
M  END
>  <minimizedAffinity>
-5.56774044

>  <minimizedRMSD>
3.86393642

$$$$
