
 OpenBabel03262523563D

 38 40  0  0  1  0  0  0  0  0999 V2000
   38.5230   25.8240   33.7370 C   0  0  1  0  0  0  0  0  0  0  0  0
   39.7320   25.7680   32.9290 C   0  0  0  0  0  0  0  0  0  0  0  0
   39.8800   27.0720   32.2050 C   0  0  0  0  0  0  0  0  0  0  0  0
   38.5800   27.5310   31.6500 C   0  0  0  0  0  0  0  0  0  0  0  0
   37.5290   26.4940   31.5360 C   0  0  0  0  0  0  0  0  0  0  0  0
   37.3250   25.6630   32.8020 C   0  0  1  0  0  0  0  0  0  0  0  0
   38.3810   26.8300   34.2170 H   0  0  0  0  0  0  0  0  0  0  0  0
   40.6640   25.6040   33.5470 H   0  0  0  0  0  0  0  0  0  0  0  0
   39.7200   24.9710   32.1610 H   0  0  0  0  0  0  0  0  0  0  0  0
   40.7140   27.0190   31.4710 H   0  0  0  0  0  0  0  0  0  0  0  0
   40.2110   27.8190   32.9850 H   0  0  0  0  0  0  0  0  0  0  0  0
   38.1630   28.3910   32.2350 H   0  0  0  0  0  0  0  0  0  0  0  0
   38.7580   27.9220   30.6260 H   0  0  0  0  0  0  0  0  0  0  0  0
   36.5920   26.9950   31.2200 H   0  0  0  0  0  0  0  0  0  0  0  0
   37.7920   25.7710   30.7330 H   0  0  0  0  0  0  0  0  0  0  0  0
   36.4380   26.0870   33.3190 H   0  0  0  0  0  0  0  0  0  0  0  0
   37.6800   24.2180   36.9780 C   0  0  0  0  0  0  0  0  0  0  0  0
   37.7990   25.2140   35.9690 C   0  0  0  0  0  0  0  0  0  0  0  0
   38.3720   24.7960   34.7750 C   0  0  0  0  0  0  0  0  0  0  0  0
   38.7880   23.4820   34.6140 N   0  0  0  0  0  0  0  0  0  0  0  0
   38.6510   22.5840   35.5990 C   0  0  0  0  0  0  0  0  0  0  0  0
   38.1000   22.9360   36.7840 N   0  0  0  0  0  0  0  0  0  0  0  0
   37.2420   24.4800   37.9310 H   0  0  0  0  0  0  0  0  0  0  0  0
   37.4590   26.2190   36.1480 H   0  0  0  0  0  0  0  0  0  0  0  0
   39.0220   21.6090   35.3180 H   0  0  0  0  0  0  0  0  0  0  0  0
   35.9760   23.6420   31.7510 C   0  0  0  0  0  0  0  0  0  0  0  0
   35.1740   24.4840   31.2800 O   0  0  0  0  0  0  0  0  0  0  0  0
   37.0280   24.3000   32.4580 N   0  0  0  0  0  0  0  0  0  0  0  0
   37.8440   23.7610   32.8780 H   0  0  0  0  0  0  0  0  0  0  0  0
   38.3060   22.4510   30.2730 Cl  0  0  0  0  0  0  0  0  0  0  0  0
   37.0140   21.5120   31.0270 C   0  0  0  0  0  0  0  0  0  0  0  0
   35.9860   22.1850   31.6860 C   0  0  0  0  0  0  0  0  0  0  0  0
   34.9910   21.3990   32.2630 C   0  0  0  0  0  0  0  0  0  0  0  0
   34.1850   21.9050   32.7780 H   0  0  0  0  0  0  0  0  0  0  0  0
   35.0020   20.0150   32.1990 C   0  0  0  0  0  0  0  0  0  0  0  0
   34.2130   19.4170   32.6580 H   0  0  0  0  0  0  0  0  0  0  0  0
   36.0420   19.3640   31.5350 C   0  0  0  0  0  3  0  0  0  0  0  0
   37.0590   20.1190   30.9420 C   0  0  0  0  0  3  0  0  0  0  0  0
  1  7  1  1  0  0  0
  1 19  1  0  0  0  0
  2  8  1  0  0  0  0
  2  1  1  0  0  0  0
  3  2  1  0  0  0  0
  3 11  1  0  0  0  0
  4  3  1  0  0  0  0
  4 12  1  0  0  0  0
  5  4  1  0  0  0  0
  5  6  1  0  0  0  0
  6 16  1  1  0  0  0
  6  1  1  0  0  0  0
  9  2  1  0  0  0  0
 10  3  1  0  0  0  0
 13  4  1  0  0  0  0
 14  5  1  0  0  0  0
 15  5  1  0  0  0  0
 17 23  1  0  0  0  0
 18 24  1  0  0  0  0
 18 17  2  0  0  0  0
 19 18  1  0  0  0  0
 20 19  2  0  0  0  0
 20 21  1  0  0  0  0
 21 22  2  0  0  0  0
 22 17  1  0  0  0  0
 25 21  1  0  0  0  0
 26 28  1  0  0  0  0
 27 26  2  0  0  0  0
 28  6  1  0  0  0  0
 28 29  1  0  0  0  0
 30 31  1  0  0  0  0
 31 32  1  0  0  0  0
 32 26  1  0  0  0  0
 32 33  2  0  0  0  0
 33 34  1  0  0  0  0
 35 33  1  0  0  0  0
 35 36  1  0  0  0  0
 37 35  2  0  0  0  0
 38 31  2  0  0  0  0
 38 37  1  0  0  0  0
M  END
>  <minimizedAffinity>
-5.53219414

$$$$

 OpenBabel03262523563D

 38 40  0  0  1  0  0  0  0  0999 V2000
   36.7970   24.0130   31.2480 C   0  0  1  0  0  0  0  0  0  0  0  0
   35.3740   24.0900   31.5450 C   0  0  0  0  0  0  0  0  0  0  0  0
   34.7980   25.2590   30.8030 C   0  0  0  0  0  0  0  0  0  0  0  0
   35.6890   26.4450   30.8890 C   0  0  0  0  0  0  0  0  0  0  0  0
   36.7000   26.4110   31.9700 C   0  0  0  0  0  0  0  0  0  0  0  0
   37.5040   25.1130   32.0390 C   0  0  1  0  0  0  0  0  0  0  0  0
   37.0180   24.2450   30.1700 H   0  0  0  0  0  0  0  0  0  0  0  0
   34.8110   23.1640   31.2300 H   0  0  0  0  0  0  0  0  0  0  0  0
   35.1500   24.2460   32.6180 H   0  0  0  0  0  0  0  0  0  0  0  0
   33.7450   25.4370   31.1130 H   0  0  0  0  0  0  0  0  0  0  0  0
   34.7460   24.9380   29.7210 H   0  0  0  0  0  0  0  0  0  0  0  0
   36.2170   26.6350   29.9190 H   0  0  0  0  0  0  0  0  0  0  0  0
   35.0580   27.3410   31.0680 H   0  0  0  0  0  0  0  0  0  0  0  0
   37.3590   27.2940   31.8450 H   0  0  0  0  0  0  0  0  0  0  0  0
   36.2050   26.5190   32.9600 H   0  0  0  0  0  0  0  0  0  0  0  0
   38.4750   25.3140   31.5380 H   0  0  0  0  0  0  0  0  0  0  0  0
   37.3210   20.4690   32.2270 C   0  0  0  0  0  0  0  0  0  0  0  0
   36.6540   21.6740   31.8690 C   0  0  0  0  0  0  0  0  0  0  0  0
   37.4780   22.7580   31.5940 C   0  0  0  0  0  0  0  0  0  0  0  0
   38.8580   22.6350   31.6740 N   0  0  0  0  0  0  0  0  0  0  0  0
   39.4330   21.4750   32.0170 C   0  0  0  0  0  0  0  0  0  0  0  0
   38.6800   20.3850   32.2950 N   0  0  0  0  0  0  0  0  0  0  0  0
   36.7370   19.5880   32.4530 H   0  0  0  0  0  0  0  0  0  0  0  0
   35.5810   21.7130   31.8220 H   0  0  0  0  0  0  0  0  0  0  0  0
   40.5110   21.5410   32.0340 H   0  0  0  0  0  0  0  0  0  0  0  0
   38.7810   25.1200   34.3580 C   0  0  0  0  0  0  0  0  0  0  0  0
   39.5590   25.9770   33.8730 O   0  0  0  0  0  0  0  0  0  0  0  0
   37.7750   24.7700   33.4080 N   0  0  0  0  0  0  0  0  0  0  0  0
   36.9810   24.1040   33.6520 H   0  0  0  0  0  0  0  0  0  0  0  0
   40.9870   23.1350   34.8290 Cl  0  0  0  0  0  0  0  0  0  0  0  0
   39.7310   23.5320   36.0050 C   0  0  0  0  0  0  0  0  0  0  0  0
   38.7610   24.4730   35.6650 C   0  0  0  0  0  0  0  0  0  0  0  0
   37.7920   24.7500   36.6270 C   0  0  0  0  0  0  0  0  0  0  0  0
   37.0300   25.4780   36.3800 H   0  0  0  0  0  0  0  0  0  0  0  0
   37.7740   24.1340   37.8680 C   0  0  0  0  0  0  0  0  0  0  0  0
   37.0060   24.3660   38.6080 H   0  0  0  0  0  0  0  0  0  0  0  0
   38.7560   23.1960   38.1850 C   0  0  0  0  0  3  0  0  0  0  0  0
   39.7450   22.8910   37.2450 C   0  0  0  0  0  3  0  0  0  0  0  0
  1  7  1  6  0  0  0
  1  2  1  0  0  0  0
  1 19  1  0  0  0  0
  1  6  1  0  0  0  0
  2  9  1  0  0  0  0
  3  4  1  0  0  0  0
  3 10  1  0  0  0  0
  3  2  1  0  0  0  0
  4 13  1  0  0  0  0
  4  5  1  0  0  0  0
  5  6  1  0  0  0  0
  5 15  1  0  0  0  0
  6 16  1  6  0  0  0
  6 28  1  0  0  0  0
  8  2  1  0  0  0  0
 11  3  1  0  0  0  0
 12  4  1  0  0  0  0
 14  5  1  0  0  0  0
 17 22  1  0  0  0  0
 17 23  1  0  0  0  0
 18 17  2  0  0  0  0
 19 20  2  0  0  0  0
 19 18  1  0  0  0  0
 20 21  1  0  0  0  0
 21 25  1  0  0  0  0
 21 22  2  0  0  0  0
 24 18  1  0  0  0  0
 26 32  1  0  0  0  0
 27 26  2  0  0  0  0
 28 29  1  0  0  0  0
 28 26  1  0  0  0  0
 30 31  1  0  0  0  0
 31 38  1  0  0  0  0
 32 31  2  0  0  0  0
 32 33  1  0  0  0  0
 33 35  2  0  0  0  0
 34 33  1  0  0  0  0
 35 37  1  0  0  0  0
 35 36  1  0  0  0  0
 38 37  2  0  0  0  0
M  END
>  <minimizedAffinity>
-5.44667244

$$$$

 OpenBabel03262523563D

 38 40  0  0  1  0  0  0  0  0999 V2000
   37.2930   21.2900   33.2440 C   0  0  1  0  0  0  0  0  0  0  0  0
   35.9710   20.9860   33.7750 C   0  0  0  0  0  0  0  0  0  0  0  0
   35.2690   20.0810   32.8080 C   0  0  0  0  0  0  0  0  0  0  0  0
   35.4740   20.5250   31.4060 C   0  0  0  0  0  0  0  0  0  0  0  0
   35.9330   21.9230   31.2360 C   0  0  0  0  0  0  0  0  0  0  0  0
   37.1240   22.3050   32.1140 C   0  0  1  0  0  0  0  0  0  0  0  0
   37.7700   20.3940   32.7600 H   0  0  0  0  0  0  0  0  0  0  0  0
   36.0110   20.4660   34.7760 H   0  0  0  0  0  0  0  0  0  0  0  0
   35.3290   21.8770   33.9090 H   0  0  0  0  0  0  0  0  0  0  0  0
   34.2070   19.9380   33.1080 H   0  0  0  0  0  0  0  0  0  0  0  0
   35.7560   19.0680   32.9300 H   0  0  0  0  0  0  0  0  0  0  0  0
   36.1850   19.8530   30.8600 H   0  0  0  0  0  0  0  0  0  0  0  0
   34.5060   20.4380   30.8690 H   0  0  0  0  0  0  0  0  0  0  0  0
   36.1510   22.0800   30.1600 H   0  0  0  0  0  0  0  0  0  0  0  0
   35.1160   22.6280   31.5030 H   0  0  0  0  0  0  0  0  0  0  0  0
   38.0270   22.2400   31.4700 H   0  0  0  0  0  0  0  0  0  0  0  0
   38.7490   22.6700   36.3690 C   0  0  0  0  0  0  0  0  0  0  0  0
   37.8110   22.0800   35.4770 C   0  0  0  0  0  0  0  0  0  0  0  0
   38.2620   21.8750   34.1790 C   0  0  0  0  0  0  0  0  0  0  0  0
   39.5520   22.2360   33.8150 N   0  0  0  0  0  0  0  0  0  0  0  0
   40.3940   22.7890   34.6980 C   0  0  0  0  0  0  0  0  0  0  0  0
   40.0080   23.0120   35.9760 N   0  0  0  0  0  0  0  0  0  0  0  0
   38.4590   22.8560   37.3940 H   0  0  0  0  0  0  0  0  0  0  0  0
   36.8230   21.8190   35.8130 H   0  0  0  0  0  0  0  0  0  0  0  0
   41.3570   23.0120   34.2620 H   0  0  0  0  0  0  0  0  0  0  0  0
   37.7020   24.8800   32.3160 C   0  0  0  0  0  0  0  0  0  0  0  0
   38.5990   24.6970   31.4580 O   0  0  0  0  0  0  0  0  0  0  0  0
   36.9950   23.6640   32.5610 N   0  0  0  0  0  0  0  0  0  0  0  0
   36.1530   23.6260   33.2110 H   0  0  0  0  0  0  0  0  0  0  0  0
   36.0320   26.8330   30.7570 Cl  0  0  0  0  0  0  0  0  0  0  0  0
   36.5290   27.0590   32.4370 C   0  0  0  0  0  0  0  0  0  0  0  0
   37.3050   26.0760   33.0490 C   0  0  0  0  0  0  0  0  0  0  0  0
   37.6710   26.3030   34.3750 C   0  0  0  0  0  0  0  0  0  0  0  0
   38.2740   25.5500   34.8660 H   0  0  0  0  0  0  0  0  0  0  0  0
   37.2940   27.4400   35.0700 C   0  0  0  0  0  0  0  0  0  0  0  0
   37.5910   27.5990   36.1090 H   0  0  0  0  0  0  0  0  0  0  0  0
   36.5170   28.4090   34.4350 C   0  0  0  0  0  3  0  0  0  0  0  0
   36.1300   28.2180   33.1050 C   0  0  0  0  0  3  0  0  0  0  0  0
  1  7  1  6  0  0  0
  1  2  1  0  0  0  0
  1 19  1  0  0  0  0
  2  9  1  0  0  0  0
  2  8  1  0  0  0  0
  3 11  1  0  0  0  0
  3 10  1  0  0  0  0
  3  2  1  0  0  0  0
  4  3  1  0  0  0  0
  5  4  1  0  0  0  0
  5 15  1  0  0  0  0
  5  6  1  0  0  0  0
  6 16  1  6  0  0  0
  6 28  1  0  0  0  0
  6  1  1  0  0  0  0
 12  4  1  0  0  0  0
 13  4  1  0  0  0  0
 14  5  1  0  0  0  0
 17 23  1  0  0  0  0
 18 24  1  0  0  0  0
 18 17  2  0  0  0  0
 19 18  1  0  0  0  0
 20 19  2  0  0  0  0
 20 21  1  0  0  0  0
 21 22  2  0  0  0  0
 22 17  1  0  0  0  0
 25 21  1  0  0  0  0
 26 28  1  0  0  0  0
 26 32  1  0  0  0  0
 27 26  2  0  0  0  0
 28 29  1  0  0  0  0
 30 31  1  0  0  0  0
 31 32  2  0  0  0  0
 31 38  1  0  0  0  0
 32 33  1  0  0  0  0
 33 34  1  0  0  0  0
 33 35  2  0  0  0  0
 35 36  1  0  0  0  0
 37 35  1  0  0  0  0
 38 37  2  0  0  0  0
M  END
>  <minimizedAffinity>
-5.38773727

$$$$

 OpenBabel03262523563D

 38 40  0  0  1  0  0  0  0  0999 V2000
   37.8950   27.2090   32.6390 C   0  0  1  0  0  0  0  0  0  0  0  0
   38.8160   27.3070   31.5160 C   0  0  0  0  0  0  0  0  0  0  0  0
   38.4070   28.4740   30.6680 C   0  0  0  0  0  0  0  0  0  0  0  0
   36.9340   28.5200   30.4870 C   0  0  0  0  0  0  0  0  0  0  0  0
   36.2110   27.2620   30.7830 C   0  0  0  0  0  0  0  0  0  0  0  0
   36.5820   26.6230   32.1210 C   0  0  1  0  0  0  0  0  0  0  0  0
   37.6180   28.2190   33.0490 H   0  0  0  0  0  0  0  0  0  0  0  0
   39.8860   27.4680   31.8410 H   0  0  0  0  0  0  0  0  0  0  0  0
   38.8170   26.4150   30.8600 H   0  0  0  0  0  0  0  0  0  0  0  0
   39.0000   28.4990   29.7270 H   0  0  0  0  0  0  0  0  0  0  0  0
   38.7190   29.3940   31.2460 H   0  0  0  0  0  0  0  0  0  0  0  0
   36.4700   29.3420   31.0910 H   0  0  0  0  0  0  0  0  0  0  0  0
   36.7220   28.7700   29.4260 H   0  0  0  0  0  0  0  0  0  0  0  0
   35.1250   27.4710   30.7170 H   0  0  0  0  0  0  0  0  0  0  0  0
   36.4380   26.5000   30.0050 H   0  0  0  0  0  0  0  0  0  0  0  0
   35.7830   26.9060   32.8390 H   0  0  0  0  0  0  0  0  0  0  0  0
   39.9920   25.0240   34.7880 C   0  0  0  0  0  0  0  0  0  0  0  0
   39.6070   25.8680   33.7090 C   0  0  0  0  0  0  0  0  0  0  0  0
   38.3080   26.3570   33.7610 C   0  0  0  0  0  0  0  0  0  0  0  0
   37.4700   26.0220   34.8150 N   0  0  0  0  0  0  0  0  0  0  0  0
   37.8850   25.2220   35.8060 C   0  0  0  0  0  0  0  0  0  0  0  0
   39.1400   24.7160   35.8070 N   0  0  0  0  0  0  0  0  0  0  0  0
   40.9900   24.6100   34.8060 H   0  0  0  0  0  0  0  0  0  0  0  0
   40.2990   26.0950   32.9180 H   0  0  0  0  0  0  0  0  0  0  0  0
   37.1170   25.0570   36.5480 H   0  0  0  0  0  0  0  0  0  0  0  0
   35.7050   24.2210   31.4320 C   0  0  0  0  0  0  0  0  0  0  0  0
   34.7490   24.7900   30.8520 O   0  0  0  0  0  0  0  0  0  0  0  0
   36.5850   25.1910   32.0030 N   0  0  0  0  0  0  0  0  0  0  0  0
   37.4920   24.9100   32.4840 H   0  0  0  0  0  0  0  0  0  0  0  0
   38.2970   23.3500   30.1850 Cl  0  0  0  0  0  0  0  0  0  0  0  0
   37.2000   22.2810   31.0640 C   0  0  0  0  0  0  0  0  0  0  0  0
   36.0250   22.8090   31.5970 C   0  0  0  0  0  0  0  0  0  0  0  0
   35.1940   21.9230   32.2800 C   0  0  0  0  0  0  0  0  0  0  0  0
   34.2770   22.3160   32.7010 H   0  0  0  0  0  0  0  0  0  0  0  0
   35.4990   20.5810   32.4360 C   0  0  0  0  0  0  0  0  0  0  0  0
   34.8330   19.9030   32.9750 H   0  0  0  0  0  0  0  0  0  0  0  0
   36.6810   20.0760   31.8930 C   0  0  0  0  0  3  0  0  0  0  0  0
   37.5410   20.9330   31.2000 C   0  0  0  0  0  3  0  0  0  0  0  0
  1  7  1  1  0  0  0
  1 19  1  0  0  0  0
  2  8  1  0  0  0  0
  2  1  1  0  0  0  0
  3 11  1  0  0  0  0
  3  2  1  0  0  0  0
  4  3  1  0  0  0  0
  4  5  1  0  0  0  0
  4 12  1  0  0  0  0
  5  6  1  0  0  0  0
  6  1  1  0  0  0  0
  6 16  1  1  0  0  0
  9  2  1  0  0  0  0
 10  3  1  0  0  0  0
 13  4  1  0  0  0  0
 14  5  1  0  0  0  0
 15  5  1  0  0  0  0
 17 23  1  0  0  0  0
 17 22  1  0  0  0  0
 18 19  1  0  0  0  0
 18 17  2  0  0  0  0
 19 20  2  0  0  0  0
 20 21  1  0  0  0  0
 21 22  2  0  0  0  0
 21 25  1  0  0  0  0
 24 18  1  0  0  0  0
 26 32  1  0  0  0  0
 26 28  1  0  0  0  0
 27 26  2  0  0  0  0
 28  6  1  0  0  0  0
 28 29  1  0  0  0  0
 30 31  1  0  0  0  0
 31 38  2  0  0  0  0
 31 32  1  0  0  0  0
 32 33  2  0  0  0  0
 33 35  1  0  0  0  0
 33 34  1  0  0  0  0
 35 36  1  0  0  0  0
 37 35  2  0  0  0  0
 38 37  1  0  0  0  0
M  END
>  <minimizedAffinity>
-5.29040194

$$$$

 OpenBabel03262523563D

 38 40  0  0  1  0  0  0  0  0999 V2000
   38.8500   22.2750   35.7840 C   0  0  1  0  0  0  0  0  0  0  0  0
   40.2340   22.6960   35.9490 C   0  0  0  0  0  0  0  0  0  0  0  0
   40.6090   22.5320   37.3920 C   0  0  0  0  0  0  0  0  0  0  0  0
   39.5260   23.0090   38.2890 C   0  0  0  0  0  0  0  0  0  0  0  0
   38.5210   23.8990   37.6640 C   0  0  0  0  0  0  0  0  0  0  0  0
   37.9530   23.3780   36.3450 C   0  0  1  0  0  0  0  0  0  0  0  0
   38.6070   21.3660   36.3980 H   0  0  0  0  0  0  0  0  0  0  0  0
   40.9530   22.0850   35.3290 H   0  0  0  0  0  0  0  0  0  0  0  0
   40.4130   23.7560   35.6870 H   0  0  0  0  0  0  0  0  0  0  0  0
   41.6120   22.9730   37.5860 H   0  0  0  0  0  0  0  0  0  0  0  0
   40.7320   21.4200   37.5510 H   0  0  0  0  0  0  0  0  0  0  0  0
   38.9870   22.1560   38.7740 H   0  0  0  0  0  0  0  0  0  0  0  0
   39.9900   23.5830   39.1190 H   0  0  0  0  0  0  0  0  0  0  0  0
   37.7210   24.0830   38.4100 H   0  0  0  0  0  0  0  0  0  0  0  0
   38.9770   24.8870   37.4340 H   0  0  0  0  0  0  0  0  0  0  0  0
   36.9690   22.9210   36.5820 H   0  0  0  0  0  0  0  0  0  0  0  0
   38.9270   21.7790   32.1040 C   0  0  0  0  0  0  0  0  0  0  0  0
   39.3820   21.9890   33.4360 C   0  0  0  0  0  0  0  0  0  0  0  0
   38.3920   22.0350   34.4090 C   0  0  0  0  0  0  0  0  0  0  0  0
   37.0560   21.8820   34.0650 N   0  0  0  0  0  0  0  0  0  0  0  0
   36.6840   21.6880   32.7930 C   0  0  0  0  0  0  0  0  0  0  0  0
   37.6050   21.6340   31.8030 N   0  0  0  0  0  0  0  0  0  0  0  0
   39.6480   21.7340   31.3000 H   0  0  0  0  0  0  0  0  0  0  0  0
   40.4300   22.1000   33.6460 H   0  0  0  0  0  0  0  0  0  0  0  0
   35.6130   21.5880   32.6900 H   0  0  0  0  0  0  0  0  0  0  0  0
   38.4410   25.6530   35.0810 C   0  0  0  0  0  0  0  0  0  0  0  0
   39.5490   25.6870   35.6700 O   0  0  0  0  0  0  0  0  0  0  0  0
   37.7270   24.4690   35.4370 N   0  0  0  0  0  0  0  0  0  0  0  0
   36.7910   24.2240   34.9930 H   0  0  0  0  0  0  0  0  0  0  0  0
   39.3810   25.4280   32.2360 Cl  0  0  0  0  0  0  0  0  0  0  0  0
   38.1720   26.5840   32.8010 C   0  0  0  0  0  0  0  0  0  0  0  0
   37.8200   26.5880   34.1500 C   0  0  0  0  0  0  0  0  0  0  0  0
   36.8620   27.5200   34.5450 C   0  0  0  0  0  0  0  0  0  0  0  0
   36.5770   27.5370   35.5890 H   0  0  0  0  0  0  0  0  0  0  0  0
   36.2730   28.4080   33.6590 C   0  0  0  0  0  0  0  0  0  0  0  0
   35.5250   29.1300   33.9890 H   0  0  0  0  0  0  0  0  0  0  0  0
   36.6420   28.3830   32.3140 C   0  0  0  0  0  3  0  0  0  0  0  0
   37.6010   27.4630   31.8790 C   0  0  0  0  0  3  0  0  0  0  0  0
  1  2  1  0  0  0  0
  1  6  1  0  0  0  0
  1  7  1  1  0  0  0
  2  3  1  0  0  0  0
  3 11  1  0  0  0  0
  3 10  1  0  0  0  0
  3  4  1  0  0  0  0
  4 12  1  0  0  0  0
  4 13  1  0  0  0  0
  5  4  1  0  0  0  0
  5 14  1  0  0  0  0
  6 16  1  1  0  0  0
  6  5  1  0  0  0  0
  8  2  1  0  0  0  0
  9  2  1  0  0  0  0
 15  5  1  0  0  0  0
 17 18  1  0  0  0  0
 18 24  1  0  0  0  0
 18 19  2  0  0  0  0
 19  1  1  0  0  0  0
 20 19  1  0  0  0  0
 21 20  2  0  0  0  0
 22 17  2  0  0  0  0
 22 21  1  0  0  0  0
 23 17  1  0  0  0  0
 25 21  1  0  0  0  0
 26 28  1  0  0  0  0
 26 27  2  0  0  0  0
 28  6  1  0  0  0  0
 29 28  1  0  0  0  0
 30 31  1  0  0  0  0
 31 32  1  0  0  0  0
 32 33  2  0  0  0  0
 32 26  1  0  0  0  0
 33 34  1  0  0  0  0
 35 36  1  0  0  0  0
 35 33  1  0  0  0  0
 37 35  2  0  0  0  0
 38 37  1  0  0  0  0
 38 31  2  0  0  0  0
M  END
>  <minimizedAffinity>
-5.23421288

$$$$

 OpenBabel03262523563D

 38 40  0  0  1  0  0  0  0  0999 V2000
   35.9140   21.6540   31.6300 C   0  0  1  0  0  0  0  0  0  0  0  0
   36.6420   20.5980   30.9430 C   0  0  0  0  0  0  0  0  0  0  0  0
   35.8320   19.3380   31.0180 C   0  0  0  0  0  0  0  0  0  0  0  0
   35.2560   19.1480   32.3740 C   0  0  0  0  0  0  0  0  0  0  0  0
   35.8870   19.9380   33.4560 C   0  0  0  0  0  0  0  0  0  0  0  0
   36.0560   21.4220   33.1340 C   0  0  1  0  0  0  0  0  0  0  0  0
   34.8080   21.6040   31.4340 H   0  0  0  0  0  0  0  0  0  0  0  0
   36.8250   20.8310   29.8530 H   0  0  0  0  0  0  0  0  0  0  0  0
   37.6300   20.3740   31.3870 H   0  0  0  0  0  0  0  0  0  0  0  0
   36.4150   18.4760   30.6270 H   0  0  0  0  0  0  0  0  0  0  0  0
   34.9780   19.4800   30.2920 H   0  0  0  0  0  0  0  0  0  0  0  0
   34.1550   19.3510   32.3870 H   0  0  0  0  0  0  0  0  0  0  0  0
   35.3680   18.0780   32.6510 H   0  0  0  0  0  0  0  0  0  0  0  0
   35.2910   19.7850   34.3790 H   0  0  0  0  0  0  0  0  0  0  0  0
   36.9080   19.5500   33.6660 H   0  0  0  0  0  0  0  0  0  0  0  0
   35.2190   21.9530   33.6350 H   0  0  0  0  0  0  0  0  0  0  0  0
   35.8190   25.3440   31.2130 C   0  0  0  0  0  0  0  0  0  0  0  0
   35.3830   24.0150   31.4760 C   0  0  0  0  0  0  0  0  0  0  0  0
   36.3600   23.0320   31.3850 C   0  0  0  0  0  0  0  0  0  0  0  0
   37.6670   23.3650   31.0580 N   0  0  0  0  0  0  0  0  0  0  0  0
   38.0230   24.6340   30.8210 C   0  0  0  0  0  0  0  0  0  0  0  0
   37.1120   25.6330   30.8940 N   0  0  0  0  0  0  0  0  0  0  0  0
   35.1060   26.1540   31.2670 H   0  0  0  0  0  0  0  0  0  0  0  0
   34.3560   23.8140   31.7250 H   0  0  0  0  0  0  0  0  0  0  0  0
   39.0720   24.7280   30.5800 H   0  0  0  0  0  0  0  0  0  0  0  0
   37.7650   22.1810   35.0080 C   0  0  0  0  0  0  0  0  0  0  0  0
   36.9090   21.8400   35.8600 O   0  0  0  0  0  0  0  0  0  0  0  0
   37.2870   21.9130   33.6900 N   0  0  0  0  0  0  0  0  0  0  0  0
   37.8940   22.0730   32.8300 H   0  0  0  0  0  0  0  0  0  0  0  0
   37.9190   25.1190   34.3970 Cl  0  0  0  0  0  0  0  0  0  0  0  0
   39.2900   24.1310   34.9070 C   0  0  0  0  0  0  0  0  0  0  0  0
   39.0880   22.7750   35.1620 C   0  0  0  0  0  0  0  0  0  0  0  0
   40.2020   22.0390   35.5610 C   0  0  0  0  0  0  0  0  0  0  0  0
   40.0630   20.9850   35.7620 H   0  0  0  0  0  0  0  0  0  0  0  0
   41.4580   22.6050   35.7060 C   0  0  0  0  0  0  0  0  0  0  0  0
   42.3180   22.0100   36.0200 H   0  0  0  0  0  0  0  0  0  0  0  0
   41.6360   23.9640   35.4460 C   0  0  0  0  0  3  0  0  0  0  0  0
   40.5420   24.7360   35.0430 C   0  0  0  0  0  3  0  0  0  0  0  0
  1  7  1  6  0  0  0
  1  6  1  0  0  0  0
  2  3  1  0  0  0  0
  2  9  1  0  0  0  0
  2  1  1  0  0  0  0
  3  4  1  0  0  0  0
  4 12  1  0  0  0  0
  4 13  1  0  0  0  0
  4  5  1  0  0  0  0
  5 15  1  0  0  0  0
  5 14  1  0  0  0  0
  6  5  1  0  0  0  0
  6 16  1  1  0  0  0
  6 28  1  0  0  0  0
  8  2  1  0  0  0  0
 10  3  1  0  0  0  0
 11  3  1  0  0  0  0
 17 23  1  0  0  0  0
 17 18  1  0  0  0  0
 18 24  1  0  0  0  0
 19 18  2  0  0  0  0
 19  1  1  0  0  0  0
 20 19  1  0  0  0  0
 21 22  1  0  0  0  0
 21 20  2  0  0  0  0
 22 17  2  0  0  0  0
 25 21  1  0  0  0  0
 26 32  1  0  0  0  0
 26 27  2  0  0  0  0
 28 26  1  0  0  0  0
 29 28  1  0  0  0  0
 30 31  1  0  0  0  0
 31 38  2  0  0  0  0
 31 32  1  0  0  0  0
 32 33  2  0  0  0  0
 33 35  1  0  0  0  0
 33 34  1  0  0  0  0
 35 36  1  0  0  0  0
 37 35  2  0  0  0  0
 38 37  1  0  0  0  0
M  END
>  <minimizedAffinity>
-5.22830629

$$$$

 OpenBabel03262523563D

 38 40  0  0  1  0  0  0  0  0999 V2000
   39.4510   27.2640   33.6330 C   0  0  1  0  0  0  0  0  0  0  0  0
   38.3170   26.6190   32.9870 C   0  0  0  0  0  0  0  0  0  0  0  0
   37.0710   27.3620   33.3650 C   0  0  0  0  0  0  0  0  0  0  0  0
   37.0660   27.7080   34.8090 C   0  0  0  0  0  0  0  0  0  0  0  0
   38.0080   26.9420   35.6560 C   0  0  0  0  0  0  0  0  0  0  0  0
   39.4340   26.8770   35.1110 C   0  0  1  0  0  0  0  0  0  0  0  0
   39.3600   28.3850   33.6270 H   0  0  0  0  0  0  0  0  0  0  0  0
   38.3970   26.6190   31.8610 H   0  0  0  0  0  0  0  0  0  0  0  0
   38.1700   25.5650   33.2920 H   0  0  0  0  0  0  0  0  0  0  0  0
   36.1690   26.8190   33.0060 H   0  0  0  0  0  0  0  0  0  0  0  0
   37.0990   28.3250   32.7740 H   0  0  0  0  0  0  0  0  0  0  0  0
   37.2550   28.8000   34.9720 H   0  0  0  0  0  0  0  0  0  0  0  0
   36.0470   27.5170   35.2080 H   0  0  0  0  0  0  0  0  0  0  0  0
   37.9790   27.3770   36.6750 H   0  0  0  0  0  0  0  0  0  0  0  0
   37.6660   25.8870   35.7490 H   0  0  0  0  0  0  0  0  0  0  0  0
   40.0190   27.6420   35.6640 H   0  0  0  0  0  0  0  0  0  0  0  0
   42.1170   25.8080   31.4960 C   0  0  0  0  0  0  0  0  0  0  0  0
   40.8200   26.1670   31.9600 C   0  0  0  0  0  0  0  0  0  0  0  0
   40.7860   26.9110   33.1330 C   0  0  0  0  0  0  0  0  0  0  0  0
   41.9620   27.2620   33.7800 N   0  0  0  0  0  0  0  0  0  0  0  0
   43.1570   26.8970   33.2980 C   0  0  0  0  0  0  0  0  0  0  0  0
   43.2510   26.1710   32.1590 N   0  0  0  0  0  0  0  0  0  0  0  0
   42.2110   25.2290   30.5880 H   0  0  0  0  0  0  0  0  0  0  0  0
   39.9410   25.8680   31.4170 H   0  0  0  0  0  0  0  0  0  0  0  0
   43.9720   27.2470   33.9150 H   0  0  0  0  0  0  0  0  0  0  0  0
   39.5160   24.2540   35.4640 C   0  0  0  0  0  0  0  0  0  0  0  0
   38.3020   24.2220   35.1500 O   0  0  0  0  0  0  0  0  0  0  0  0
   40.0120   25.5910   35.3880 N   0  0  0  0  0  0  0  0  0  0  0  0
   41.0390   25.8190   35.5550 H   0  0  0  0  0  0  0  0  0  0  0  0
   39.1200   23.2360   38.2630 Cl  0  0  0  0  0  0  0  0  0  0  0  0
   40.3490   22.6380   37.1460 C   0  0  0  0  0  0  0  0  0  0  0  0
   40.4310   23.1940   35.8700 C   0  0  0  0  0  0  0  0  0  0  0  0
   41.4190   22.6880   35.0280 C   0  0  0  0  0  0  0  0  0  0  0  0
   41.4970   23.1090   34.0340 H   0  0  0  0  0  0  0  0  0  0  0  0
   42.2880   21.6810   35.4160 C   0  0  0  0  0  0  0  0  0  0  0  0
   43.0550   21.2980   34.7400 H   0  0  0  0  0  0  0  0  0  0  0  0
   42.1860   21.1390   36.6980 C   0  0  0  0  0  3  0  0  0  0  0  0
   41.2070   21.6220   37.5720 C   0  0  0  0  0  3  0  0  0  0  0  0
  1  7  1  6  0  0  0
  1  6  1  0  0  0  0
  2  9  1  0  0  0  0
  2  3  1  0  0  0  0
  2  1  1  0  0  0  0
  3  4  1  0  0  0  0
  4 12  1  0  0  0  0
  4 13  1  0  0  0  0
  4  5  1  0  0  0  0
  5 15  1  0  0  0  0
  5 14  1  0  0  0  0
  6 28  1  0  0  0  0
  6  5  1  0  0  0  0
  6 16  1  1  0  0  0
  8  2  1  0  0  0  0
 10  3  1  0  0  0  0
 11  3  1  0  0  0  0
 17 18  2  0  0  0  0
 17 22  1  0  0  0  0
 18 19  1  0  0  0  0
 19  1  1  0  0  0  0
 19 20  2  0  0  0  0
 21 20  1  0  0  0  0
 21 25  1  0  0  0  0
 22 21  2  0  0  0  0
 23 17  1  0  0  0  0
 24 18  1  0  0  0  0
 26 32  1  0  0  0  0
 27 26  2  0  0  0  0
 28 26  1  0  0  0  0
 28 29  1  0  0  0  0
 31 38  1  0  0  0  0
 31 30  1  0  0  0  0
 32 31  2  0  0  0  0
 33 35  2  0  0  0  0
 33 32  1  0  0  0  0
 34 33  1  0  0  0  0
 35 37  1  0  0  0  0
 36 35  1  0  0  0  0
 37 38  2  0  0  0  0
M  END
>  <minimizedAffinity>
-5.22334957

$$$$

 OpenBabel03262523563D

 38 40  0  0  1  0  0  0  0  0999 V2000
   39.0400   26.1070   33.8960 C   0  0  1  0  0  0  0  0  0  0  0  0
   37.8550   26.9460   33.9980 C   0  0  0  0  0  0  0  0  0  0  0  0
   37.8810   27.6440   35.3250 C   0  0  0  0  0  0  0  0  0  0  0  0
   38.2910   26.7190   36.4130 C   0  0  0  0  0  0  0  0  0  0  0  0
   38.1880   25.2750   36.1010 C   0  0  0  0  0  0  0  0  0  0  0  0
   38.8200   24.8730   34.7690 C   0  0  1  0  0  0  0  0  0  0  0  0
   39.9500   26.6070   34.3260 H   0  0  0  0  0  0  0  0  0  0  0  0
   37.8040   27.7330   33.1900 H   0  0  0  0  0  0  0  0  0  0  0  0
   36.9040   26.3820   33.9480 H   0  0  0  0  0  0  0  0  0  0  0  0
   36.9250   28.1840   35.5010 H   0  0  0  0  0  0  0  0  0  0  0  0
   38.6700   28.4470   35.2320 H   0  0  0  0  0  0  0  0  0  0  0  0
   39.3340   26.9300   36.7620 H   0  0  0  0  0  0  0  0  0  0  0  0
   37.6370   26.9050   37.2910 H   0  0  0  0  0  0  0  0  0  0  0  0
   38.6280   24.7130   36.9490 H   0  0  0  0  0  0  0  0  0  0  0  0
   37.1190   24.9740   36.0370 H   0  0  0  0  0  0  0  0  0  0  0  0
   39.8190   24.4500   35.0070 H   0  0  0  0  0  0  0  0  0  0  0  0
   39.0310   25.6910   30.2050 C   0  0  0  0  0  0  0  0  0  0  0  0
   38.7120   26.1990   31.4950 C   0  0  0  0  0  0  0  0  0  0  0  0
   39.3820   25.6070   32.5580 C   0  0  0  0  0  0  0  0  0  0  0  0
   40.2990   24.5890   32.3350 N   0  0  0  0  0  0  0  0  0  0  0  0
   40.5620   24.1490   31.0970 C   0  0  0  0  0  0  0  0  0  0  0  0
   39.9380   24.6890   30.0240 N   0  0  0  0  0  0  0  0  0  0  0  0
   38.5430   26.1100   29.3370 H   0  0  0  0  0  0  0  0  0  0  0  0
   37.9930   26.9910   31.6100 H   0  0  0  0  0  0  0  0  0  0  0  0
   41.2950   23.3560   31.0910 H   0  0  0  0  0  0  0  0  0  0  0  0
   38.0780   22.4140   34.1260 C   0  0  0  0  0  0  0  0  0  0  0  0
   38.9710   21.9930   34.9000 O   0  0  0  0  0  0  0  0  0  0  0  0
   38.0410   23.8410   34.1420 N   0  0  0  0  0  0  0  0  0  0  0  0
   37.3070   24.3890   33.5990 H   0  0  0  0  0  0  0  0  0  0  0  0
   35.9280   20.9000   35.5810 Cl  0  0  0  0  0  0  0  0  0  0  0  0
   36.0940   20.9620   33.8240 C   0  0  0  0  0  0  0  0  0  0  0  0
   37.1370   21.7030   33.2690 C   0  0  0  0  0  0  0  0  0  0  0  0
   37.2230   21.7190   31.8790 C   0  0  0  0  0  0  0  0  0  0  0  0
   38.0280   22.2880   31.4310 H   0  0  0  0  0  0  0  0  0  0  0  0
   36.3290   21.0410   31.0660 C   0  0  0  0  0  0  0  0  0  0  0  0
   36.4140   21.0670   29.9780 H   0  0  0  0  0  0  0  0  0  0  0  0
   35.2930   20.3070   31.6450 C   0  0  0  0  0  3  0  0  0  0  0  0
   35.1730   20.2670   33.0380 C   0  0  0  0  0  3  0  0  0  0  0  0
  1  2  1  0  0  0  0
  1  7  1  1  0  0  0
  1  6  1  0  0  0  0
  2  3  1  0  0  0  0
  3 10  1  0  0  0  0
  3  4  1  0  0  0  0
  4 12  1  0  0  0  0
  4 13  1  0  0  0  0
  5  4  1  0  0  0  0
  5 14  1  0  0  0  0
  6 16  1  1  0  0  0
  6  5  1  0  0  0  0
  8  2  1  0  0  0  0
  9  2  1  0  0  0  0
 11  3  1  0  0  0  0
 15  5  1  0  0  0  0
 17 18  1  0  0  0  0
 18 24  1  0  0  0  0
 18 19  2  0  0  0  0
 19  1  1  0  0  0  0
 20 19  1  0  0  0  0
 21 20  2  0  0  0  0
 22 17  2  0  0  0  0
 22 21  1  0  0  0  0
 23 17  1  0  0  0  0
 25 21  1  0  0  0  0
 26 28  1  0  0  0  0
 26 27  2  0  0  0  0
 28  6  1  0  0  0  0
 29 28  1  0  0  0  0
 31 30  1  0  0  0  0
 32 31  1  0  0  0  0
 32 26  1  0  0  0  0
 33 32  2  0  0  0  0
 34 33  1  0  0  0  0
 35 37  2  0  0  0  0
 35 33  1  0  0  0  0
 36 35  1  0  0  0  0
 37 38  1  0  0  0  0
 38 31  2  0  0  0  0
M  END
>  <minimizedAffinity>
-5.17910337

$$$$

 OpenBabel03262523563D

 38 40  0  0  1  0  0  0  0  0999 V2000
   37.3460   25.6630   30.8430 C   0  0  1  0  0  0  0  0  0  0  0  0
   36.2210   26.5260   31.1730 C   0  0  0  0  0  0  0  0  0  0  0  0
   36.4520   27.8680   30.5450 C   0  0  0  0  0  0  0  0  0  0  0  0
   37.8620   28.3070   30.7140 C   0  0  0  0  0  0  0  0  0  0  0  0
   38.6290   27.6060   31.7690 C   0  0  0  0  0  0  0  0  0  0  0  0
   38.5310   26.0830   31.7120 C   0  0  1  0  0  0  0  0  0  0  0  0
   37.6960   25.8110   29.7850 H   0  0  0  0  0  0  0  0  0  0  0  0
   35.2360   26.1270   30.7900 H   0  0  0  0  0  0  0  0  0  0  0  0
   36.0910   26.6960   32.2590 H   0  0  0  0  0  0  0  0  0  0  0  0
   35.6860   28.5970   30.8880 H   0  0  0  0  0  0  0  0  0  0  0  0
   36.2610   27.7250   29.4400 H   0  0  0  0  0  0  0  0  0  0  0  0
   38.4340   28.2330   29.7550 H   0  0  0  0  0  0  0  0  0  0  0  0
   37.8590   29.3850   30.9820 H   0  0  0  0  0  0  0  0  0  0  0  0
   39.6810   27.9510   31.7080 H   0  0  0  0  0  0  0  0  0  0  0  0
   38.2540   27.9010   32.7740 H   0  0  0  0  0  0  0  0  0  0  0  0
   39.4550   25.7240   31.2120 H   0  0  0  0  0  0  0  0  0  0  0  0
   35.6940   22.4110   31.5410 C   0  0  0  0  0  0  0  0  0  0  0  0
   35.8590   23.8030   31.3000 C   0  0  0  0  0  0  0  0  0  0  0  0
   37.1630   24.2240   31.0680 C   0  0  0  0  0  0  0  0  0  0  0  0
   38.2100   23.3130   31.0770 N   0  0  0  0  0  0  0  0  0  0  0  0
   37.9970   22.0110   31.3100 C   0  0  0  0  0  0  0  0  0  0  0  0
   36.7470   21.5450   31.5430 N   0  0  0  0  0  0  0  0  0  0  0  0
   34.7040   22.0210   31.7290 H   0  0  0  0  0  0  0  0  0  0  0  0
   35.0110   24.4650   31.3040 H   0  0  0  0  0  0  0  0  0  0  0  0
   38.9100   21.4350   31.2840 H   0  0  0  0  0  0  0  0  0  0  0  0
   39.4930   25.2230   34.0240 C   0  0  0  0  0  0  0  0  0  0  0  0
   40.6300   25.5760   33.6270 O   0  0  0  0  0  0  0  0  0  0  0  0
   38.5060   25.5370   33.0410 N   0  0  0  0  0  0  0  0  0  0  0  0
   37.4690   25.3730   33.2160 H   0  0  0  0  0  0  0  0  0  0  0  0
   38.2020   27.0520   36.0280 Cl  0  0  0  0  0  0  0  0  0  0  0  0
   38.4530   25.3210   36.2700 C   0  0  0  0  0  0  0  0  0  0  0  0
   39.0650   24.5800   35.2600 C   0  0  0  0  0  0  0  0  0  0  0  0
   39.2400   23.2190   35.5010 C   0  0  0  0  0  0  0  0  0  0  0  0
   39.7140   22.6280   34.7280 H   0  0  0  0  0  0  0  0  0  0  0  0
   38.8330   22.6090   36.6770 C   0  0  0  0  0  0  0  0  0  0  0  0
   38.9800   21.5410   36.8450 H   0  0  0  0  0  0  0  0  0  0  0  0
   38.2220   23.3720   37.6720 C   0  0  0  0  0  3  0  0  0  0  0  0
   38.0290   24.7420   37.4680 C   0  0  0  0  0  3  0  0  0  0  0  0
  1  7  1  6  0  0  0
  1 19  1  0  0  0  0
  1  2  1  0  0  0  0
  1  6  1  0  0  0  0
  2  9  1  0  0  0  0
  3  4  1  0  0  0  0
  3 10  1  0  0  0  0
  3  2  1  0  0  0  0
  4 13  1  0  0  0  0
  4  5  1  0  0  0  0
  5 15  1  0  0  0  0
  6 16  1  6  0  0  0
  6  5  1  0  0  0  0
  6 28  1  0  0  0  0
  8  2  1  0  0  0  0
 11  3  1  0  0  0  0
 12  4  1  0  0  0  0
 14  5  1  0  0  0  0
 17 22  1  0  0  0  0
 17 23  1  0  0  0  0
 18 24  1  0  0  0  0
 18 17  2  0  0  0  0
 19 20  2  0  0  0  0
 19 18  1  0  0  0  0
 20 21  1  0  0  0  0
 21 22  2  0  0  0  0
 25 21  1  0  0  0  0
 26 32  1  0  0  0  0
 27 26  2  0  0  0  0
 28 29  1  0  0  0  0
 28 26  1  0  0  0  0
 30 31  1  0  0  0  0
 31 38  1  0  0  0  0
 32 33  1  0  0  0  0
 32 31  2  0  0  0  0
 33 35  2  0  0  0  0
 34 33  1  0  0  0  0
 35 36  1  0  0  0  0
 35 37  1  0  0  0  0
 38 37  2  0  0  0  0
M  END
>  <minimizedAffinity>
-5.17097902

$$$$
