
 OpenBabel03272505083D

 29 31  0  0  0  0  0  0  0  0999 V2000
   36.3300   30.9230   45.2570 Cl  0  0  0  0  0  0  0  0  0  0  0  0
   36.5240   30.5440   46.9480 C   0  0  0  0  0  0  0  0  0  0  0  0
   37.7610   30.7770   47.5110 C   0  0  0  0  0  0  0  0  0  0  0  0
   37.9230   30.4800   48.8550 C   0  0  0  0  0  0  0  0  0  0  0  0
   36.8770   29.9750   49.5770 C   0  0  0  0  0  0  0  0  0  0  0  0
   35.6560   29.7660   48.9440 C   0  0  0  0  0  0  0  0  0  0  0  0
   35.4240   30.0360   47.6230 C   0  0  0  0  0  0  0  0  0  0  0  0
   38.8820   30.6520   49.3270 H   0  0  0  0  0  0  0  0  0  0  0  0
   36.9590   29.7290   50.6320 H   0  0  0  0  0  0  0  0  0  0  0  0
   34.8440   29.3640   49.5440 H   0  0  0  0  0  0  0  0  0  0  0  0
   40.0860   33.1940   46.0840 C   0  0  0  0  0  0  0  0  0  0  0  0
   40.8890   32.4310   45.2100 C   0  0  0  0  0  0  0  0  0  0  0  0
   40.6090   31.0610   45.1250 C   0  0  0  0  0  0  0  0  0  0  0  0
   39.5930   30.5460   45.8770 N   0  0  0  0  0  0  0  0  0  0  0  0
   38.8620   31.3230   46.6930 C   0  0  0  0  0  0  0  0  0  0  0  0
   39.1110   32.6250   46.7890 N   0  0  0  0  0  0  0  0  0  0  0  0
   40.2650   34.2530   46.1830 H   0  0  0  0  0  0  0  0  0  0  0  0
   41.6810   32.8670   44.6310 H   0  0  0  0  0  0  0  0  0  0  0  0
   41.1840   30.4120   44.4750 H   0  0  0  0  0  0  0  0  0  0  0  0
   33.8750   29.7870   46.8060 S   0  0  0  0  0  0  0  0  0  0  0  0
   30.7820   29.3010   46.4520 Cl  0  0  0  0  0  0  0  0  0  0  0  0
   31.8690   28.0030   46.8910 C   0  0  0  0  0  0  0  0  0  0  0  0
   33.2490   28.1220   47.0700 C   0  0  0  0  0  0  0  0  0  0  0  0
   33.9960   27.0220   47.4160 C   0  0  0  0  0  0  0  0  0  0  0  0
   35.0490   27.2210   47.5290 H   0  0  0  0  0  0  0  0  0  0  0  0
   33.3960   25.8060   47.5870 C   0  0  0  0  0  0  0  0  0  0  0  0
   34.0200   24.9500   47.8630 H   0  0  0  0  0  0  0  0  0  0  0  0
   32.0270   25.6240   47.4230 C   0  0  0  0  0  3  0  0  0  0  0  0
   31.3040   26.7430   47.0770 C   0  0  0  0  0  3  0  0  0  0  0  0
  1  2  1  0  0  0  0
  2  3  2  0  0  0  0
  2  7  1  0  0  0  0
  3  4  1  0  0  0  0
  4  8  1  0  0  0  0
  4  5  2  0  0  0  0
  5  9  1  0  0  0  0
  6 10  1  0  0  0  0
  6  5  1  0  0  0  0
  7  6  2  0  0  0  0
 11 17  1  0  0  0  0
 11 16  1  0  0  0  0
 12 11  2  0  0  0  0
 13 12  1  0  0  0  0
 13 14  2  0  0  0  0
 14 15  1  0  0  0  0
 15 16  2  0  0  0  0
 15  3  1  0  0  0  0
 18 12  1  0  0  0  0
 19 13  1  0  0  0  0
 20 23  1  0  0  0  0
 20  7  1  0  0  0  0
 21 22  1  0  0  0  0
 22 23  2  0  0  0  0
 22 29  1  0  0  0  0
 23 24  1  0  0  0  0
 24 25  1  0  0  0  0
 24 26  2  0  0  0  0
 26 27  1  0  0  0  0
 28 26  1  0  0  0  0
 29 28  2  0  0  0  0
M  END
>  <minimizedAffinity>
-5.63996792

>  <minimizedRMSD>
1.50225949

$$$$
