
 OpenBabel03272509423D

 38 40  0  0  1  0  0  0  0  0999 V2000
   37.0260   30.9660   49.0770 C   0  0  0  0  0  0  0  0  0  0  0  0
   36.6730   31.8250   50.1190 C   0  0  0  0  0  0  0  0  0  0  0  0
   37.2200   33.0920   50.2420 C   0  0  0  0  0  0  0  0  0  0  0  0
   38.1540   33.5300   49.2970 C   0  0  0  0  0  0  0  0  0  0  0  0
   38.4920   32.6820   48.2820 C   0  0  0  0  0  0  0  0  0  0  0  0
   37.9220   31.4200   48.1940 C   0  0  0  0  0  0  0  0  0  0  0  0
   35.9450   31.4740   50.8500 H   0  0  0  0  0  0  0  0  0  0  0  0
   36.8850   33.6720   51.0760 H   0  0  0  0  0  0  0  0  0  0  0  0
   38.5230   34.5220   49.4700 H   0  0  0  0  0  0  0  0  0  0  0  0
   39.2250   33.1610   47.6330 H   0  0  0  0  0  0  0  0  0  0  0  0
   36.4790   29.6310   48.9670 C   0  0  2  0  0  0  0  0  0  0  0  0
   37.0020   29.1650   48.0460 H   0  0  0  0  0  0  0  0  0  0  0  0
   33.6100   30.0630   46.7770 C   0  0  0  0  0  0  0  0  0  0  0  0
   32.9150   28.8770   46.8970 C   0  0  0  0  0  0  0  0  0  0  0  0
   33.3910   27.9320   47.7860 C   0  0  0  0  0  0  0  0  0  0  0  0
   34.5310   28.2000   48.5130 N   0  0  0  0  0  0  0  0  0  0  0  0
   35.1510   29.3500   48.3500 C   0  0  0  0  0  0  0  0  0  0  0  0
   34.6990   30.2890   47.4880 N   0  0  0  0  0  0  0  0  0  0  0  0
   33.2660   30.8370   46.0870 H   0  0  0  0  0  0  0  0  0  0  0  0
   32.0310   28.7520   46.2880 H   0  0  0  0  0  0  0  0  0  0  0  0
   32.8520   27.0020   47.8870 H   0  0  0  0  0  0  0  0  0  0  0  0
   36.9630   28.8260   49.8430 O   0  0  0  0  0  0  0  0  0  0  0  0
   36.4420   28.0800   50.2230 H   0  0  0  0  0  0  0  0  0  0  0  0
   38.3920   30.6160   47.0900 C   0  0  0  0  0  3  0  0  0  0  0  0
   39.1930   31.0710   46.1210 C   0  0  0  0  0  3  0  0  0  0  0  0
   39.7700   30.3280   44.9760 C   0  0  0  0  0  0  0  0  0  0  0  0
   40.5680   30.9770   44.5240 H   0  0  0  0  0  0  0  0  0  0  0  0
   40.2260   29.3640   45.2870 H   0  0  0  0  0  0  0  0  0  0  0  0
   38.4930   30.0080   43.7540 S   0  0  0  0  0  0  0  0  0  0  0  0
   40.3300   30.9430   41.4560 Cl  0  0  0  0  0  0  0  0  0  0  0  0
   39.9040   29.2430   41.6560 C   0  0  0  0  0  0  0  0  0  0  0  0
   39.0930   28.7360   42.6500 C   0  0  0  0  0  0  0  0  0  0  0  0
   38.8260   27.3850   42.7130 C   0  0  0  0  0  0  0  0  0  0  0  0
   38.1780   27.0950   43.5320 H   0  0  0  0  0  0  0  0  0  0  0  0
   39.3910   26.5480   41.7540 C   0  0  0  0  0  0  0  0  0  0  0  0
   39.1580   25.5080   41.8390 H   0  0  0  0  0  0  0  0  0  0  0  0
   40.1990   27.0640   40.7660 C   0  0  0  0  0  3  0  0  0  0  0  0
   40.4780   28.4170   40.6880 C   0  0  0  0  0  3  0  0  0  0  0  0
  1  2  1  0  0  0  0
  2  3  2  0  0  0  0
  2  7  1  0  0  0  0
  3  8  1  0  0  0  0
  4  9  1  0  0  0  0
  4  3  1  0  0  0  0
  5  4  2  0  0  0  0
  6  5  1  0  0  0  0
  6  1  2  0  0  0  0
 10  5  1  0  0  0  0
 11 12  1  6  0  0  0
 11  1  1  0  0  0  0
 11 22  1  0  0  0  0
 13 14  2  0  0  0  0
 13 18  1  0  0  0  0
 14 15  1  0  0  0  0
 15 21  1  0  0  0  0
 15 16  2  0  0  0  0
 17 16  1  0  0  0  0
 17 11  1  0  0  0  0
 18 17  2  0  0  0  0
 19 13  1  0  0  0  0
 20 14  1  0  0  0  0
 22 23  1  0  0  0  0
 24  6  1  0  0  0  0
 25 24  2  0  0  0  0
 26 28  1  0  0  0  0
 26 25  1  0  0  0  0
 27 26  1  0  0  0  0
 29 26  1  0  0  0  0
 30 31  1  0  0  0  0
 31 32  1  0  0  0  0
 32 33  2  0  0  0  0
 32 29  1  0  0  0  0
 33 34  1  0  0  0  0
 35 36  1  0  0  0  0
 35 33  1  0  0  0  0
 37 35  2  0  0  0  0
 38 37  1  0  0  0  0
 38 31  2  0  0  0  0
M  END
>  <minimizedAffinity>
-5.73564196

>  <minimizedRMSD>
1.06392169

$$$$
