
 OpenBabel03272509423D

 38 40  0  0  1  0  0  0  0  0999 V2000
   37.0190   31.0050   49.0720 C   0  0  0  0  0  0  0  0  0  0  0  0
   36.6090   31.8510   50.1040 C   0  0  0  0  0  0  0  0  0  0  0  0
   37.1300   33.1260   50.2570 C   0  0  0  0  0  0  0  0  0  0  0  0
   38.0940   33.5860   49.3540 C   0  0  0  0  0  0  0  0  0  0  0  0
   38.4870   32.7510   48.3480 C   0  0  0  0  0  0  0  0  0  0  0  0
   37.9430   31.4810   48.2290 C   0  0  0  0  0  0  0  0  0  0  0  0
   35.8590   31.4830   50.8020 H   0  0  0  0  0  0  0  0  0  0  0  0
   36.7510   33.6940   51.0800 H   0  0  0  0  0  0  0  0  0  0  0  0
   38.4390   34.5830   49.5480 H   0  0  0  0  0  0  0  0  0  0  0  0
   39.2380   33.2460   47.7320 H   0  0  0  0  0  0  0  0  0  0  0  0
   36.5000   29.6620   48.9310 C   0  0  2  0  0  0  0  0  0  0  0  0
   37.0250   29.2320   47.9940 H   0  0  0  0  0  0  0  0  0  0  0  0
   33.6580   30.0150   46.6920 C   0  0  0  0  0  0  0  0  0  0  0  0
   32.9410   28.8500   46.8750 C   0  0  0  0  0  0  0  0  0  0  0  0
   33.3920   27.9510   47.8220 C   0  0  0  0  0  0  0  0  0  0  0  0
   34.5310   28.2410   48.5430 N   0  0  0  0  0  0  0  0  0  0  0  0
   35.1720   29.3690   48.3190 C   0  0  0  0  0  0  0  0  0  0  0  0
   34.7450   30.2630   47.3990 N   0  0  0  0  0  0  0  0  0  0  0  0
   33.3340   30.7530   45.9550 H   0  0  0  0  0  0  0  0  0  0  0  0
   32.0600   28.7050   46.2660 H   0  0  0  0  0  0  0  0  0  0  0  0
   32.8350   27.0380   47.9730 H   0  0  0  0  0  0  0  0  0  0  0  0
   37.0100   28.8450   49.7810 O   0  0  0  0  0  0  0  0  0  0  0  0
   36.5090   28.0780   50.1460 H   0  0  0  0  0  0  0  0  0  0  0  0
   38.4710   30.6920   47.1400 C   0  0  0  0  0  3  0  0  0  0  0  0
   39.3240   31.1590   46.2230 C   0  0  0  0  0  3  0  0  0  0  0  0
   39.9610   30.4320   45.1000 C   0  0  0  0  0  0  0  0  0  0  0  0
   40.9450   30.9340   44.8920 H   0  0  0  0  0  0  0  0  0  0  0  0
   40.1490   29.3650   45.3430 H   0  0  0  0  0  0  0  0  0  0  0  0
   38.9160   30.5300   43.6430 S   0  0  0  0  0  0  0  0  0  0  0  0
   39.1540   27.4800   43.2260 Cl  0  0  0  0  0  0  0  0  0  0  0  0
   39.9340   28.6190   42.1290 C   0  0  0  0  0  0  0  0  0  0  0  0
   39.8810   29.9930   42.2370 C   0  0  0  0  0  0  0  0  0  0  0  0
   40.5310   30.7910   41.3190 C   0  0  0  0  0  0  0  0  0  0  0  0
   40.4250   31.8550   41.4980 H   0  0  0  0  0  0  0  0  0  0  0  0
   41.2370   30.1820   40.2860 C   0  0  0  0  0  0  0  0  0  0  0  0
   41.7250   30.8380   39.5960 H   0  0  0  0  0  0  0  0  0  0  0  0
   41.2820   28.8090   40.1860 C   0  0  0  0  0  3  0  0  0  0  0  0
   40.6370   27.9930   41.0980 C   0  0  0  0  0  3  0  0  0  0  0  0
  1  2  1  0  0  0  0
  2  3  2  0  0  0  0
  2  7  1  0  0  0  0
  3  8  1  0  0  0  0
  4  9  1  0  0  0  0
  4  3  1  0  0  0  0
  5  4  2  0  0  0  0
  6  5  1  0  0  0  0
  6  1  2  0  0  0  0
 10  5  1  0  0  0  0
 11 12  1  6  0  0  0
 11  1  1  0  0  0  0
 11 22  1  0  0  0  0
 13 14  2  0  0  0  0
 13 18  1  0  0  0  0
 14 15  1  0  0  0  0
 15 21  1  0  0  0  0
 15 16  2  0  0  0  0
 17 16  1  0  0  0  0
 17 11  1  0  0  0  0
 18 17  2  0  0  0  0
 19 13  1  0  0  0  0
 20 14  1  0  0  0  0
 22 23  1  0  0  0  0
 24  6  1  0  0  0  0
 25 24  2  0  0  0  0
 26 28  1  0  0  0  0
 26 25  1  0  0  0  0
 27 26  1  0  0  0  0
 29 26  1  0  0  0  0
 31 32  1  0  0  0  0
 31 30  1  0  0  0  0
 32 29  1  0  0  0  0
 33 34  1  0  0  0  0
 33 32  2  0  0  0  0
 35 33  1  0  0  0  0
 36 35  1  0  0  0  0
 37 35  2  0  0  0  0
 37 38  1  0  0  0  0
 38 31  2  0  0  0  0
M  END
>  <minimizedAffinity>
-5.76881456

>  <minimizedRMSD>
0.534184217

$$$$
