
 OpenBabel03272509423D

 38 40  0  0  1  0  0  0  0  0999 V2000
   36.9940   30.9090   49.1350 C   0  0  0  0  0  0  0  0  0  0  0  0
   36.6500   31.8130   50.1420 C   0  0  0  0  0  0  0  0  0  0  0  0
   37.2040   33.0820   50.2080 C   0  0  0  0  0  0  0  0  0  0  0  0
   38.1350   33.4750   49.2400 C   0  0  0  0  0  0  0  0  0  0  0  0
   38.4630   32.5830   48.2590 C   0  0  0  0  0  0  0  0  0  0  0  0
   37.8870   31.3220   48.2280 C   0  0  0  0  0  0  0  0  0  0  0  0
   35.9250   31.4970   50.8900 H   0  0  0  0  0  0  0  0  0  0  0  0
   36.8760   33.6970   51.0180 H   0  0  0  0  0  0  0  0  0  0  0  0
   38.5090   34.4720   49.3690 H   0  0  0  0  0  0  0  0  0  0  0  0
   39.1940   33.0300   47.5870 H   0  0  0  0  0  0  0  0  0  0  0  0
   36.4400   29.5740   49.0840 C   0  0  2  0  0  0  0  0  0  0  0  0
   36.9510   29.0690   48.1770 H   0  0  0  0  0  0  0  0  0  0  0  0
   33.5980   29.8590   46.8360 C   0  0  0  0  0  0  0  0  0  0  0  0
   32.8560   28.7220   47.0870 C   0  0  0  0  0  0  0  0  0  0  0  0
   33.2920   27.8680   48.0830 C   0  0  0  0  0  0  0  0  0  0  0  0
   34.4390   28.1750   48.7830 N   0  0  0  0  0  0  0  0  0  0  0  0
   35.1040   29.2740   48.4930 C   0  0  0  0  0  0  0  0  0  0  0  0
   34.6920   30.1230   47.5240 N   0  0  0  0  0  0  0  0  0  0  0  0
   33.2870   30.5600   46.0580 H   0  0  0  0  0  0  0  0  0  0  0  0
   31.9700   28.5610   46.4890 H   0  0  0  0  0  0  0  0  0  0  0  0
   32.7160   26.9780   48.2870 H   0  0  0  0  0  0  0  0  0  0  0  0
   36.9300   28.8020   49.9870 O   0  0  0  0  0  0  0  0  0  0  0  0
   36.4100   28.0740   50.4020 H   0  0  0  0  0  0  0  0  0  0  0  0
   38.3460   30.4690   47.1560 C   0  0  0  0  0  3  0  0  0  0  0  0
   38.6620   30.9090   45.9340 C   0  0  0  0  0  3  0  0  0  0  0  0
   39.1850   30.1370   44.7820 C   0  0  0  0  0  0  0  0  0  0  0  0
   39.5790   29.1640   45.1830 H   0  0  0  0  0  0  0  0  0  0  0  0
   38.3970   29.9200   44.0290 H   0  0  0  0  0  0  0  0  0  0  0  0
   40.5180   31.0480   43.9960 S   0  0  0  0  0  0  0  0  0  0  0  0
   41.5970   29.2620   41.7190 Cl  0  0  0  0  0  0  0  0  0  0  0  0
   40.5230   30.6210   41.3880 C   0  0  0  0  0  0  0  0  0  0  0  0
   39.9940   31.4700   42.3390 C   0  0  0  0  0  0  0  0  0  0  0  0
   39.1620   32.5040   41.9670 C   0  0  0  0  0  0  0  0  0  0  0  0
   38.8040   33.1090   42.7940 H   0  0  0  0  0  0  0  0  0  0  0  0
   38.8690   32.6720   40.6170 C   0  0  0  0  0  0  0  0  0  0  0  0
   38.2200   33.4870   40.3730 H   0  0  0  0  0  0  0  0  0  0  0  0
   39.4020   31.8200   39.6750 C   0  0  0  0  0  3  0  0  0  0  0  0
   40.2380   30.7780   40.0300 C   0  0  0  0  0  3  0  0  0  0  0  0
  1  2  1  0  0  0  0
  2  3  2  0  0  0  0
  2  7  1  0  0  0  0
  3  8  1  0  0  0  0
  4  9  1  0  0  0  0
  4  3  1  0  0  0  0
  5  4  2  0  0  0  0
  6  5  1  0  0  0  0
  6  1  2  0  0  0  0
 10  5  1  0  0  0  0
 11 12  1  6  0  0  0
 11  1  1  0  0  0  0
 11 22  1  0  0  0  0
 13 14  2  0  0  0  0
 13 18  1  0  0  0  0
 14 15  1  0  0  0  0
 15 21  1  0  0  0  0
 15 16  2  0  0  0  0
 17 16  1  0  0  0  0
 17 11  1  0  0  0  0
 18 17  2  0  0  0  0
 19 13  1  0  0  0  0
 20 14  1  0  0  0  0
 22 23  1  0  0  0  0
 24  6  1  0  0  0  0
 25 24  2  0  0  0  0
 26 27  1  0  0  0  0
 26 25  1  0  0  0  0
 28 26  1  0  0  0  0
 29 26  1  0  0  0  0
 31 30  1  0  0  0  0
 31 32  1  0  0  0  0
 32 29  1  0  0  0  0
 33 32  2  0  0  0  0
 33 34  1  0  0  0  0
 35 33  1  0  0  0  0
 36 35  1  0  0  0  0
 37 38  1  0  0  0  0
 37 35  2  0  0  0  0
 38 31  2  0  0  0  0
M  END
>  <minimizedAffinity>
-6.06403017

>  <minimizedRMSD>
1.55020773

$$$$
