
 OpenBabel03272505483D

 40 44  0  0  0  0  0  0  0  0999 V2000
   36.2430   30.3120   46.2690 C   0  0  0  0  0  0  0  0  0  0  0  0
   36.7810   30.8040   47.4050 C   0  0  0  0  0  0  0  0  0  0  0  0
   36.1720   30.5550   48.6390 C   0  0  0  0  0  0  0  0  0  0  0  0
   35.0090   29.7920   48.6440 C   0  0  0  0  0  0  0  0  0  0  0  0
   34.4620   29.2890   47.4680 C   0  0  0  0  0  0  0  0  0  0  0  0
   35.1160   29.5770   46.3120 N   0  0  0  0  0  0  0  0  0  0  0  0
   37.6810   31.3920   47.3800 H   0  0  0  0  0  0  0  0  0  0  0  0
   36.5730   30.9330   49.5710 H   0  0  0  0  0  0  0  0  0  0  0  0
   34.4660   29.5490   49.5540 H   0  0  0  0  0  0  0  0  0  0  0  0
   36.8930   30.5740   44.9270 C   0  0  0  0  0  0  0  0  0  0  0  0
   36.5850   29.6700   43.8020 C   0  0  0  0  0  0  0  0  0  0  0  0
   36.0010   31.0660   43.8160 C   0  0  0  0  0  0  0  0  0  0  0  0
   37.3270   29.5010   43.0190 H   0  0  0  0  0  0  0  0  0  0  0  0
   35.8430   28.8490   44.0020 H   0  0  0  0  0  0  0  0  0  0  0  0
   36.4450   31.8460   43.1500 H   0  0  0  0  0  0  0  0  0  0  0  0
   34.9290   31.1620   44.0620 H   0  0  0  0  0  0  0  0  0  0  0  0
   39.5110   33.1930   45.0020 C   0  0  0  0  0  0  0  0  0  0  0  0
   40.6510   32.4650   45.3670 C   0  0  0  0  0  0  0  0  0  0  0  0
   40.5120   31.0740   45.5850 C   0  0  0  0  0  0  0  0  0  0  0  0
   39.2940   30.5020   45.4350 N   0  0  0  0  0  0  0  0  0  0  0  0
   38.2010   31.2470   45.0770 C   0  0  0  0  0  0  0  0  0  0  0  0
   38.3040   32.5800   44.8630 N   0  0  0  0  0  0  0  0  0  0  0  0
   39.4850   34.2520   44.8090 H   0  0  0  0  0  0  0  0  0  0  0  0
   41.5490   33.0240   45.4530 H   0  0  0  0  0  0  0  0  0  0  0  0
   41.4000   30.5410   45.8620 H   0  0  0  0  0  0  0  0  0  0  0  0
   33.2470   28.4860   47.4240 C   0  0  0  0  0  0  0  0  0  0  0  0
   32.8790   27.4700   46.6020 N   0  0  0  0  0  0  0  0  0  0  0  0
   31.6450   27.0430   46.9660 C   0  0  0  0  0  0  0  0  0  0  0  0
   31.2370   27.8040   48.0280 N   0  0  0  0  0  0  0  0  0  0  0  0
   32.2110   28.6630   48.2900 N   0  0  0  0  0  0  0  0  0  0  0  0
   31.0370   26.2530   46.5350 H   0  0  0  0  0  0  0  0  0  0  0  0
   29.0680   29.4480   46.7580 Cl  0  0  0  0  0  0  0  0  0  0  0  0
   28.9860   28.4890   48.2150 C   0  0  0  0  0  0  0  0  0  0  0  0
   30.0260   27.7430   48.7600 C   0  0  0  0  0  0  0  0  0  0  0  0
   29.8130   27.0300   49.9200 C   0  0  0  0  0  0  0  0  0  0  0  0
   30.6590   26.4680   50.2990 H   0  0  0  0  0  0  0  0  0  0  0  0
   28.5830   27.0490   50.5450 C   0  0  0  0  0  0  0  0  0  0  0  0
   28.4310   26.4770   51.4670 H   0  0  0  0  0  0  0  0  0  0  0  0
   27.5280   27.7820   50.0250 C   0  0  0  0  0  0  0  0  0  0  0  0
   27.7570   28.4970   48.8530 C   0  0  0  0  0  0  0  0  0  0  0  0
  1  6  2  0  0  0  0
  1  2  1  0  0  0  0
  2  3  2  0  0  0  0
  3  4  1  0  0  0  0
  3  8  1  0  0  0  0
  4  9  1  0  0  0  0
  5  4  2  0  0  0  0
  6  5  1  0  0  0  0
  7  2  1  0  0  0  0
 10 21  1  0  0  0  0
 10  1  1  0  0  0  0
 11 12  1  0  0  0  0
 11 14  1  0  0  0  0
 11 10  1  0  0  0  0
 12 16  1  0  0  0  0
 12 10  1  0  0  0  0
 13 11  1  0  0  0  0
 15 12  1  0  0  0  0
 17 18  1  0  0  0  0
 18 24  1  0  0  0  0
 18 19  2  0  0  0  0
 19 25  1  0  0  0  0
 20 19  1  0  0  0  0
 21 20  2  0  0  0  0
 22 17  2  0  0  0  0
 22 21  1  0  0  0  0
 23 17  1  0  0  0  0
 26  5  1  0  0  0  0
 26 30  2  0  0  0  0
 27 28  2  0  0  0  0
 27 26  1  0  0  0  0
 28 29  1  0  0  0  0
 29 30  1  0  0  0  0
 29 34  1  0  0  0  0
 31 28  1  0  0  0  0
 32 33  1  0  0  0  0
 33 34  2  0  0  0  0
 33 40  1  0  0  0  0
 34 35  1  0  0  0  0
 35 36  1  0  0  0  0
 35 37  2  0  0  0  0
 37 38  1  0  0  0  0
 39 37  1  0  0  0  0
 40 39  2  0  0  0  0
M  END
>  <minimizedAffinity>
-6.12355232

>  <minimizedRMSD>
1.43222904

$$$$
