
 OpenBabel03272509423D

 38 40  0  0  1  0  0  0  0  0999 V2000
   36.9920   30.9000   49.1450 C   0  0  0  0  0  0  0  0  0  0  0  0
   36.6460   31.8040   50.1510 C   0  0  0  0  0  0  0  0  0  0  0  0
   37.1910   33.0770   50.2110 C   0  0  0  0  0  0  0  0  0  0  0  0
   38.1150   33.4740   49.2390 C   0  0  0  0  0  0  0  0  0  0  0  0
   38.4460   32.5820   48.2600 C   0  0  0  0  0  0  0  0  0  0  0  0
   37.8790   31.3170   48.2340 C   0  0  0  0  0  0  0  0  0  0  0  0
   35.9260   31.4850   50.9030 H   0  0  0  0  0  0  0  0  0  0  0  0
   36.8620   33.6930   51.0210 H   0  0  0  0  0  0  0  0  0  0  0  0
   38.4830   34.4740   49.3640 H   0  0  0  0  0  0  0  0  0  0  0  0
   39.1710   33.0330   47.5830 H   0  0  0  0  0  0  0  0  0  0  0  0
   36.4480   29.5610   49.1000 C   0  0  2  0  0  0  0  0  0  0  0  0
   36.9610   29.0560   48.1940 H   0  0  0  0  0  0  0  0  0  0  0  0
   33.5960   29.8220   46.8620 C   0  0  0  0  0  0  0  0  0  0  0  0
   32.8660   28.6780   47.1140 C   0  0  0  0  0  0  0  0  0  0  0  0
   33.3130   27.8270   48.1070 C   0  0  0  0  0  0  0  0  0  0  0  0
   34.4600   28.1440   48.8040 N   0  0  0  0  0  0  0  0  0  0  0  0
   35.1130   29.2500   48.5130 C   0  0  0  0  0  0  0  0  0  0  0  0
   34.6900   30.0960   47.5470 N   0  0  0  0  0  0  0  0  0  0  0  0
   33.2760   30.5220   46.0860 H   0  0  0  0  0  0  0  0  0  0  0  0
   31.9800   28.5100   46.5190 H   0  0  0  0  0  0  0  0  0  0  0  0
   32.7470   26.9310   48.3120 H   0  0  0  0  0  0  0  0  0  0  0  0
   36.9460   28.7960   50.0040 O   0  0  0  0  0  0  0  0  0  0  0  0
   36.4320   28.0660   50.4230 H   0  0  0  0  0  0  0  0  0  0  0  0
   38.3410   30.4640   47.1630 C   0  0  0  0  0  3  0  0  0  0  0  0
   38.6740   30.9070   45.9460 C   0  0  0  0  0  3  0  0  0  0  0  0
   39.2000   30.1350   44.7960 C   0  0  0  0  0  0  0  0  0  0  0  0
   39.6020   29.1660   45.1990 H   0  0  0  0  0  0  0  0  0  0  0  0
   38.4130   29.9110   44.0450 H   0  0  0  0  0  0  0  0  0  0  0  0
   40.5260   31.0530   44.0050 S   0  0  0  0  0  0  0  0  0  0  0  0
   41.5900   29.2800   41.7120 Cl  0  0  0  0  0  0  0  0  0  0  0  0
   40.5120   30.6400   41.3950 C   0  0  0  0  0  0  0  0  0  0  0  0
   39.9890   31.4830   42.3550 C   0  0  0  0  0  0  0  0  0  0  0  0
   39.1540   32.5180   41.9940 C   0  0  0  0  0  0  0  0  0  0  0  0
   38.8000   33.1180   42.8260 H   0  0  0  0  0  0  0  0  0  0  0  0
   38.8500   32.6930   40.6480 C   0  0  0  0  0  0  0  0  0  0  0  0
   38.1990   33.5080   40.4110 H   0  0  0  0  0  0  0  0  0  0  0  0
   39.3770   31.8470   39.6970 C   0  0  0  0  0  3  0  0  0  0  0  0
   40.2170   30.8030   40.0410 C   0  0  0  0  0  3  0  0  0  0  0  0
  1  2  1  0  0  0  0
  2  3  2  0  0  0  0
  2  7  1  0  0  0  0
  3  8  1  0  0  0  0
  4  9  1  0  0  0  0
  4  3  1  0  0  0  0
  5  4  2  0  0  0  0
  6  5  1  0  0  0  0
  6  1  2  0  0  0  0
 10  5  1  0  0  0  0
 11 12  1  6  0  0  0
 11  1  1  0  0  0  0
 11 22  1  0  0  0  0
 13 14  2  0  0  0  0
 13 18  1  0  0  0  0
 14 15  1  0  0  0  0
 15 21  1  0  0  0  0
 15 16  2  0  0  0  0
 17 16  1  0  0  0  0
 17 11  1  0  0  0  0
 18 17  2  0  0  0  0
 19 13  1  0  0  0  0
 20 14  1  0  0  0  0
 22 23  1  0  0  0  0
 24  6  1  0  0  0  0
 25 24  2  0  0  0  0
 26 27  1  0  0  0  0
 26 25  1  0  0  0  0
 28 26  1  0  0  0  0
 29 26  1  0  0  0  0
 31 30  1  0  0  0  0
 31 32  1  0  0  0  0
 32 29  1  0  0  0  0
 33 32  2  0  0  0  0
 33 34  1  0  0  0  0
 35 33  1  0  0  0  0
 36 35  1  0  0  0  0
 37 38  1  0  0  0  0
 37 35  2  0  0  0  0
 38 31  2  0  0  0  0
M  END
>  <minimizedAffinity>
-6.05507851

>  <minimizedRMSD>
1.573632

$$$$
