
 OpenBabel03262521533D

 23 24  0  0  0  0  0  0  0  0999 V2000
   35.5490   29.4350   32.2720 C   0  0  0  0  0  0  0  0  0  0  0  0
   35.4690   29.8720   31.2700 H   0  0  0  0  0  0  0  0  0  0  0  0
   36.3350   30.0030   32.8110 H   0  0  0  0  0  0  0  0  0  0  0  0
   34.0010   29.5250   33.1990 S   0  0  0  0  0  0  0  0  0  0  0  0
   34.3040   30.4790   34.6750 C   0  0  0  0  0  0  0  0  0  0  0  0
   35.6200   30.9190   34.8390 C   0  0  0  0  0  0  0  0  0  0  0  0
   35.9080   31.6690   35.9740 C   0  0  0  0  0  0  0  0  0  0  0  0
   34.8970   31.9460   36.8830 N   0  0  0  0  0  0  0  0  0  0  0  0
   33.6410   31.4810   36.6510 C   0  0  0  0  0  0  0  0  0  0  0  0
   33.3520   30.7690   35.5800 N   0  0  0  0  0  0  0  0  0  0  0  0
   36.4010   30.6970   34.1240 H   0  0  0  0  0  0  0  0  0  0  0  0
   36.9250   32.0040   36.0950 H   0  0  0  0  0  0  0  0  0  0  0  0
   32.9730   31.7800   37.4460 H   0  0  0  0  0  0  0  0  0  0  0  0
   36.1570   27.7160   32.1500 S   0  0  0  0  0  0  0  0  0  0  0  0
   39.0350   27.0230   31.2810 Cl  0  0  0  0  0  0  0  0  0  0  0  0
   38.6050   27.1580   32.9690 C   0  0  0  0  0  0  0  0  0  0  0  0
   37.3430   27.4640   33.4840 C   0  0  0  0  0  0  0  0  0  0  0  0
   37.1290   27.5430   34.8410 C   0  0  0  0  0  0  0  0  0  0  0  0
   36.1080   27.7870   35.0890 H   0  0  0  0  0  0  0  0  0  0  0  0
   38.1800   27.3160   35.7020 C   0  0  0  0  0  0  0  0  0  0  0  0
   37.9610   27.3900   36.7540 H   0  0  0  0  0  0  0  0  0  0  0  0
   39.4440   27.0110   35.2280 C   0  0  0  0  0  3  0  0  0  0  0  0
   39.6650   26.9300   33.8540 C   0  0  0  0  0  3  0  0  0  0  0  0
  1  3  1  0  0  0  0
  1  4  1  0  0  0  0
  2  1  1  0  0  0  0
  4  5  1  0  0  0  0
  5  6  2  0  0  0  0
  5 10  1  0  0  0  0
  6  7  1  0  0  0  0
  7 12  1  0  0  0  0
  7  8  2  0  0  0  0
  9  8  1  0  0  0  0
  9 13  1  0  0  0  0
 10  9  2  0  0  0  0
 11  6  1  0  0  0  0
 14  1  1  0  0  0  0
 14 17  1  0  0  0  0
 15 16  1  0  0  0  0
 16 17  2  0  0  0  0
 16 23  1  0  0  0  0
 17 18  1  0  0  0  0
 18 19  1  0  0  0  0
 18 20  2  0  0  0  0
 20 21  1  0  0  0  0
 22 20  1  0  0  0  0
 23 22  2  0  0  0  0
M  END
>  <minimizedAffinity>
-4.41239405

$$$$

 OpenBabel03262521533D

 23 24  0  0  0  0  0  0  0  0999 V2000
   37.9260   24.5270   33.3520 C   0  0  0  0  0  0  0  0  0  0  0  0
   36.9030   24.4280   33.7300 H   0  0  0  0  0  0  0  0  0  0  0  0
   37.8670   25.0990   32.4030 H   0  0  0  0  0  0  0  0  0  0  0  0
   39.0190   25.3880   34.5040 S   0  0  0  0  0  0  0  0  0  0  0  0
   39.0210   24.4780   36.0370 C   0  0  0  0  0  0  0  0  0  0  0  0
   38.0200   24.8380   36.9440 C   0  0  0  0  0  0  0  0  0  0  0  0
   37.9780   24.1570   38.1550 C   0  0  0  0  0  0  0  0  0  0  0  0
   38.9120   23.1650   38.4130 N   0  0  0  0  0  0  0  0  0  0  0  0
   39.8550   22.8740   37.4780 C   0  0  0  0  0  0  0  0  0  0  0  0
   39.9090   23.5090   36.3250 N   0  0  0  0  0  0  0  0  0  0  0  0
   37.2960   25.6140   36.7340 H   0  0  0  0  0  0  0  0  0  0  0  0
   37.2040   24.4410   38.8500 H   0  0  0  0  0  0  0  0  0  0  0  0
   40.5040   22.0820   37.8280 H   0  0  0  0  0  0  0  0  0  0  0  0
   38.5830   22.8800   32.9100 S   0  0  0  0  0  0  0  0  0  0  0  0
   37.1330   21.5860   35.3070 Cl  0  0  0  0  0  0  0  0  0  0  0  0
   36.6060   21.3000   33.6660 C   0  0  0  0  0  0  0  0  0  0  0  0
   37.1780   21.8250   32.5050 C   0  0  0  0  0  0  0  0  0  0  0  0
   36.6680   21.5250   31.2630 C   0  0  0  0  0  0  0  0  0  0  0  0
   37.2110   22.0020   30.4620 H   0  0  0  0  0  0  0  0  0  0  0  0
   35.5760   20.6920   31.1680 C   0  0  0  0  0  0  0  0  0  0  0  0
   35.2140   20.4890   30.1740 H   0  0  0  0  0  0  0  0  0  0  0  0
   34.9820   20.1540   32.2970 C   0  0  0  0  0  3  0  0  0  0  0  0
   35.4960   20.4550   33.5560 C   0  0  0  0  0  3  0  0  0  0  0  0
  1  2  1  0  0  0  0
  1  4  1  0  0  0  0
  3  1  1  0  0  0  0
  4  5  1  0  0  0  0
  5 10  2  0  0  0  0
  5  6  1  0  0  0  0
  6  7  2  0  0  0  0
  7  8  1  0  0  0  0
  7 12  1  0  0  0  0
  9 13  1  0  0  0  0
  9  8  2  0  0  0  0
 10  9  1  0  0  0  0
 11  6  1  0  0  0  0
 14  1  1  0  0  0  0
 16 15  1  0  0  0  0
 17 14  1  0  0  0  0
 17 16  2  0  0  0  0
 18 17  1  0  0  0  0
 19 18  1  0  0  0  0
 20 18  2  0  0  0  0
 20 22  1  0  0  0  0
 21 20  1  0  0  0  0
 22 23  2  0  0  0  0
 23 16  1  0  0  0  0
M  END
>  <minimizedAffinity>
-4.28444147

$$$$

 OpenBabel03262521533D

 23 24  0  0  0  0  0  0  0  0999 V2000
   39.7330   24.2490   33.4210 C   0  0  0  0  0  0  0  0  0  0  0  0
   40.6290   23.6520   33.6230 H   0  0  0  0  0  0  0  0  0  0  0  0
   39.6140   24.2910   32.3200 H   0  0  0  0  0  0  0  0  0  0  0  0
   38.2420   23.5450   34.1600 S   0  0  0  0  0  0  0  0  0  0  0  0
   38.5090   23.4240   35.9180 C   0  0  0  0  0  0  0  0  0  0  0  0
   39.7480   22.9010   36.2980 C   0  0  0  0  0  0  0  0  0  0  0  0
   40.0060   22.7870   37.6580 C   0  0  0  0  0  0  0  0  0  0  0  0
   39.0420   23.1890   38.5720 N   0  0  0  0  0  0  0  0  0  0  0  0
   37.8600   23.6870   38.1220 C   0  0  0  0  0  0  0  0  0  0  0  0
   37.6000   23.8020   36.8350 N   0  0  0  0  0  0  0  0  0  0  0  0
   40.4930   22.5910   35.5770 H   0  0  0  0  0  0  0  0  0  0  0  0
   40.9640   22.3820   37.9440 H   0  0  0  0  0  0  0  0  0  0  0  0
   37.2200   23.9530   38.9520 H   0  0  0  0  0  0  0  0  0  0  0  0
   40.0020   25.9710   33.9700 S   0  0  0  0  0  0  0  0  0  0  0  0
   38.3830   27.0830   36.3490 Cl  0  0  0  0  0  0  0  0  0  0  0  0
   37.8800   27.3640   34.7000 C   0  0  0  0  0  0  0  0  0  0  0  0
   38.5250   26.9140   33.5450 C   0  0  0  0  0  0  0  0  0  0  0  0
   38.0290   27.2040   32.2950 C   0  0  0  0  0  0  0  0  0  0  0  0
   38.6310   26.7910   31.5010 H   0  0  0  0  0  0  0  0  0  0  0  0
   36.8750   27.9480   32.1860 C   0  0  0  0  0  0  0  0  0  0  0  0
   36.5280   28.1480   31.1860 H   0  0  0  0  0  0  0  0  0  0  0  0
   36.2100   28.4110   33.3080 C   0  0  0  0  0  3  0  0  0  0  0  0
   36.7100   28.1210   34.5750 C   0  0  0  0  0  3  0  0  0  0  0  0
  1  2  1  0  0  0  0
  1 14  1  0  0  0  0
  1  4  1  0  0  0  0
  3  1  1  0  0  0  0
  4  5  1  0  0  0  0
  5  6  2  0  0  0  0
  5 10  1  0  0  0  0
  6  7  1  0  0  0  0
  7 12  1  0  0  0  0
  7  8  2  0  0  0  0
  9  8  1  0  0  0  0
  9 13  1  0  0  0  0
 10  9  2  0  0  0  0
 11  6  1  0  0  0  0
 16 15  1  0  0  0  0
 17 14  1  0  0  0  0
 17 16  2  0  0  0  0
 18 17  1  0  0  0  0
 19 18  1  0  0  0  0
 20 18  2  0  0  0  0
 20 22  1  0  0  0  0
 21 20  1  0  0  0  0
 22 23  2  0  0  0  0
 23 16  1  0  0  0  0
M  END
>  <minimizedAffinity>
-4.27185297

$$$$

 OpenBabel03262521533D

 23 24  0  0  0  0  0  0  0  0999 V2000
   35.9100   25.5380   31.4120 C   0  0  0  0  0  0  0  0  0  0  0  0
   35.1250   25.6070   30.6510 H   0  0  0  0  0  0  0  0  0  0  0  0
   35.4050   25.3570   32.3830 H   0  0  0  0  0  0  0  0  0  0  0  0
   37.0840   24.2030   31.0880 S   0  0  0  0  0  0  0  0  0  0  0  0
   36.6270   22.8150   32.1100 C   0  0  0  0  0  0  0  0  0  0  0  0
   35.4660   22.1430   31.7160 C   0  0  0  0  0  0  0  0  0  0  0  0
   35.0680   21.0520   32.4800 C   0  0  0  0  0  0  0  0  0  0  0  0
   35.8230   20.6790   33.5820 N   0  0  0  0  0  0  0  0  0  0  0  0
   36.9400   21.3850   33.9000 C   0  0  0  0  0  0  0  0  0  0  0  0
   37.3320   22.4220   33.1870 N   0  0  0  0  0  0  0  0  0  0  0  0
   34.8850   22.4420   30.8550 H   0  0  0  0  0  0  0  0  0  0  0  0
   34.1720   20.5390   32.1710 H   0  0  0  0  0  0  0  0  0  0  0  0
   37.4140   20.9710   34.7790 H   0  0  0  0  0  0  0  0  0  0  0  0
   36.7570   27.1490   31.5730 S   0  0  0  0  0  0  0  0  0  0  0  0
   39.8210   26.7920   31.5130 Cl  0  0  0  0  0  0  0  0  0  0  0  0
   38.9620   27.0020   33.0190 C   0  0  0  0  0  0  0  0  0  0  0  0
   37.5840   27.1710   33.1750 C   0  0  0  0  0  0  0  0  0  0  0  0
   37.0240   27.3290   34.4220 C   0  0  0  0  0  0  0  0  0  0  0  0
   35.9520   27.4490   34.3860 H   0  0  0  0  0  0  0  0  0  0  0  0
   37.8390   27.3190   35.5310 C   0  0  0  0  0  0  0  0  0  0  0  0
   37.3520   27.4470   36.4830 H   0  0  0  0  0  0  0  0  0  0  0  0
   39.2080   27.1540   35.4160 C   0  0  0  0  0  3  0  0  0  0  0  0
   39.7800   26.9940   34.1550 C   0  0  0  0  0  3  0  0  0  0  0  0
  1 14  1  0  0  0  0
  1  3  1  0  0  0  0
  2  1  1  0  0  0  0
  4  1  1  0  0  0  0
  4  5  1  0  0  0  0
  5 10  1  0  0  0  0
  6  5  2  0  0  0  0
  6  7  1  0  0  0  0
  7  8  2  0  0  0  0
  8  9  1  0  0  0  0
  9 13  1  0  0  0  0
 10  9  2  0  0  0  0
 11  6  1  0  0  0  0
 12  7  1  0  0  0  0
 14 17  1  0  0  0  0
 15 16  1  0  0  0  0
 16 17  2  0  0  0  0
 16 23  1  0  0  0  0
 17 18  1  0  0  0  0
 18 20  2  0  0  0  0
 19 18  1  0  0  0  0
 20 21  1  0  0  0  0
 22 20  1  0  0  0  0
 23 22  2  0  0  0  0
M  END
>  <minimizedAffinity>
-4.26029682

$$$$

 OpenBabel03262521533D

 23 24  0  0  0  0  0  0  0  0999 V2000
   35.7030   29.2640   32.1350 C   0  0  0  0  0  0  0  0  0  0  0  0
   36.4510   29.9780   32.4980 H   0  0  0  0  0  0  0  0  0  0  0  0
   35.4410   29.5670   31.1010 H   0  0  0  0  0  0  0  0  0  0  0  0
   36.3050   27.5610   32.1270 S   0  0  0  0  0  0  0  0  0  0  0  0
   37.4700   27.3880   33.4660 C   0  0  0  0  0  0  0  0  0  0  0  0
   38.7840   27.1090   33.0790 C   0  0  0  0  0  0  0  0  0  0  0  0
   39.7310   26.9660   34.0870 C   0  0  0  0  0  0  0  0  0  0  0  0
   39.3430   27.1020   35.4120 N   0  0  0  0  0  0  0  0  0  0  0  0
   38.0440   27.3730   35.7050 C   0  0  0  0  0  0  0  0  0  0  0  0
   37.1340   27.5120   34.7630 N   0  0  0  0  0  0  0  0  0  0  0  0
   39.0760   27.0050   32.0430 H   0  0  0  0  0  0  0  0  0  0  0  0
   40.7420   26.7500   33.7820 H   0  0  0  0  0  0  0  0  0  0  0  0
   37.9050   27.4490   36.7750 H   0  0  0  0  0  0  0  0  0  0  0  0
   34.1690   29.4260   33.1150 S   0  0  0  0  0  0  0  0  0  0  0  0
   31.8120   29.9980   35.0220 Cl  0  0  0  0  0  0  0  0  0  0  0  0
   33.4090   30.6310   35.3390 C   0  0  0  0  0  0  0  0  0  0  0  0
   34.5490   30.4440   34.5540 C   0  0  0  0  0  0  0  0  0  0  0  0
   35.7570   30.9970   34.9130 C   0  0  0  0  0  0  0  0  0  0  0  0
   36.5450   30.7670   34.2130 H   0  0  0  0  0  0  0  0  0  0  0  0
   35.8380   31.7480   36.0640 C   0  0  0  0  0  0  0  0  0  0  0  0
   36.8050   32.1580   36.3000 H   0  0  0  0  0  0  0  0  0  0  0  0
   34.7290   31.9550   36.8660 C   0  0  0  0  0  3  0  0  0  0  0  0
   33.5040   31.3960   36.5070 C   0  0  0  0  0  3  0  0  0  0  0  0
  1  2  1  0  0  0  0
  1 14  1  0  0  0  0
  3  1  1  0  0  0  0
  4  1  1  0  0  0  0
  4  5  1  0  0  0  0
  5 10  1  0  0  0  0
  6  5  2  0  0  0  0
  6  7  1  0  0  0  0
  7  8  2  0  0  0  0
  8  9  1  0  0  0  0
  9 13  1  0  0  0  0
 10  9  2  0  0  0  0
 11  6  1  0  0  0  0
 12  7  1  0  0  0  0
 14 17  1  0  0  0  0
 15 16  1  0  0  0  0
 16 23  1  0  0  0  0
 17 18  1  0  0  0  0
 17 16  2  0  0  0  0
 18 20  2  0  0  0  0
 19 18  1  0  0  0  0
 20 21  1  0  0  0  0
 20 22  1  0  0  0  0
 23 22  2  0  0  0  0
M  END
>  <minimizedAffinity>
-4.24951315

$$$$

 OpenBabel03262521533D

 23 24  0  0  0  0  0  0  0  0999 V2000
   40.1460   23.0290   33.2890 C   0  0  0  0  0  0  0  0  0  0  0  0
   41.0100   23.1930   33.9420 H   0  0  0  0  0  0  0  0  0  0  0  0
   40.4760   22.3430   32.4830 H   0  0  0  0  0  0  0  0  0  0  0  0
   38.7390   22.3020   34.1580 S   0  0  0  0  0  0  0  0  0  0  0  0
   38.8940   22.7120   35.8860 C   0  0  0  0  0  0  0  0  0  0  0  0
   37.8220   23.4280   36.4260 C   0  0  0  0  0  0  0  0  0  0  0  0
   37.8930   23.7710   37.7710 C   0  0  0  0  0  0  0  0  0  0  0  0
   39.0050   23.3970   38.5130 N   0  0  0  0  0  0  0  0  0  0  0  0
   40.0070   22.7010   37.9130 C   0  0  0  0  0  0  0  0  0  0  0  0
   39.9550   22.3680   36.6390 N   0  0  0  0  0  0  0  0  0  0  0  0
   36.9600   23.7150   35.8390 H   0  0  0  0  0  0  0  0  0  0  0  0
   37.0640   24.3240   38.1810 H   0  0  0  0  0  0  0  0  0  0  0  0
   40.7960   22.4870   38.6210 H   0  0  0  0  0  0  0  0  0  0  0  0
   39.6880   24.5960   32.4680 S   0  0  0  0  0  0  0  0  0  0  0  0
   36.6830   25.2880   32.3600 Cl  0  0  0  0  0  0  0  0  0  0  0  0
   37.7250   25.9600   33.5910 C   0  0  0  0  0  0  0  0  0  0  0  0
   39.0930   25.7240   33.7420 C   0  0  0  0  0  0  0  0  0  0  0  0
   39.8080   26.3140   34.7590 C   0  0  0  0  0  0  0  0  0  0  0  0
   40.8520   26.0400   34.7500 H   0  0  0  0  0  0  0  0  0  0  0  0
   39.1600   27.1520   35.6380 C   0  0  0  0  0  0  0  0  0  0  0  0
   39.7630   27.5880   36.4160 H   0  0  0  0  0  0  0  0  0  0  0  0
   37.8050   27.4090   35.5200 C   0  0  0  0  0  3  0  0  0  0  0  0
   37.0770   26.8120   34.4920 C   0  0  0  0  0  3  0  0  0  0  0  0
  1  2  1  0  0  0  0
  1  4  1  0  0  0  0
  3  1  1  0  0  0  0
  4  5  1  0  0  0  0
  5  6  2  0  0  0  0
  5 10  1  0  0  0  0
  6  7  1  0  0  0  0
  7 12  1  0  0  0  0
  7  8  2  0  0  0  0
  9  8  1  0  0  0  0
  9 13  1  0  0  0  0
 10  9  2  0  0  0  0
 11  6  1  0  0  0  0
 14  1  1  0  0  0  0
 14 17  1  0  0  0  0
 15 16  1  0  0  0  0
 16 17  2  0  0  0  0
 16 23  1  0  0  0  0
 17 18  1  0  0  0  0
 18 20  2  0  0  0  0
 19 18  1  0  0  0  0
 20 21  1  0  0  0  0
 22 20  1  0  0  0  0
 23 22  2  0  0  0  0
M  END
>  <minimizedAffinity>
-4.22961235

$$$$

 OpenBabel03262521533D

 23 24  0  0  0  0  0  0  0  0999 V2000
   37.7680   24.7180   33.4170 C   0  0  0  0  0  0  0  0  0  0  0  0
   36.8920   24.8700   34.0570 H   0  0  0  0  0  0  0  0  0  0  0  0
   37.3980   24.3130   32.4530 H   0  0  0  0  0  0  0  0  0  0  0  0
   38.6870   26.2440   33.1130 S   0  0  0  0  0  0  0  0  0  0  0  0
   37.5070   27.5740   32.9800 C   0  0  0  0  0  0  0  0  0  0  0  0
   36.7570   27.8220   34.1330 C   0  0  0  0  0  0  0  0  0  0  0  0
   35.8240   28.8500   34.0820 C   0  0  0  0  0  0  0  0  0  0  0  0
   35.6750   29.5780   32.9100 N   0  0  0  0  0  0  0  0  0  0  0  0
   36.4430   29.2750   31.8310 C   0  0  0  0  0  0  0  0  0  0  0  0
   37.3330   28.3030   31.8630 N   0  0  0  0  0  0  0  0  0  0  0  0
   36.8810   27.2480   35.0420 H   0  0  0  0  0  0  0  0  0  0  0  0
   35.2480   29.0350   34.9740 H   0  0  0  0  0  0  0  0  0  0  0  0
   36.2090   29.9290   31.0020 H   0  0  0  0  0  0  0  0  0  0  0  0
   38.8390   23.4240   34.1350 S   0  0  0  0  0  0  0  0  0  0  0  0
   41.0330   21.9680   35.7440 Cl  0  0  0  0  0  0  0  0  0  0  0  0
   39.7570   22.8520   36.5450 C   0  0  0  0  0  0  0  0  0  0  0  0
   38.7130   23.5470   35.9290 C   0  0  0  0  0  0  0  0  0  0  0  0
   37.7650   24.2110   36.6730 C   0  0  0  0  0  0  0  0  0  0  0  0
   37.0220   24.7010   36.0630 H   0  0  0  0  0  0  0  0  0  0  0  0
   37.8490   24.1850   38.0480 C   0  0  0  0  0  0  0  0  0  0  0  0
   37.0840   24.7200   38.5840 H   0  0  0  0  0  0  0  0  0  0  0  0
   38.8700   23.5070   38.6920 C   0  0  0  0  0  3  0  0  0  0  0  0
   39.8330   22.8350   37.9420 C   0  0  0  0  0  3  0  0  0  0  0  0
  1  2  1  0  0  0  0
  1 14  1  0  0  0  0
  3  1  1  0  0  0  0
  4  1  1  0  0  0  0
  5  4  1  0  0  0  0
  5  6  1  0  0  0  0
  6 11  1  0  0  0  0
  7  6  2  0  0  0  0
  7 12  1  0  0  0  0
  8  7  1  0  0  0  0
  9 10  1  0  0  0  0
  9  8  2  0  0  0  0
 10  5  2  0  0  0  0
 13  9  1  0  0  0  0
 14 17  1  0  0  0  0
 15 16  1  0  0  0  0
 16 23  1  0  0  0  0
 17 16  2  0  0  0  0
 17 18  1  0  0  0  0
 18 20  2  0  0  0  0
 19 18  1  0  0  0  0
 20 21  1  0  0  0  0
 20 22  1  0  0  0  0
 23 22  2  0  0  0  0
M  END
>  <minimizedAffinity>
-4.19756508

$$$$

 OpenBabel03262521533D

 23 24  0  0  0  0  0  0  0  0999 V2000
   40.0150   23.1430   33.3140 C   0  0  0  0  0  0  0  0  0  0  0  0
   40.8870   23.2340   33.9710 H   0  0  0  0  0  0  0  0  0  0  0  0
   40.2820   22.4140   32.5210 H   0  0  0  0  0  0  0  0  0  0  0  0
   38.5390   22.5690   34.1830 S   0  0  0  0  0  0  0  0  0  0  0  0
   38.7700   22.8900   35.9210 C   0  0  0  0  0  0  0  0  0  0  0  0
   37.7670   23.6540   36.5240 C   0  0  0  0  0  0  0  0  0  0  0  0
   37.9000   23.9310   37.8790 C   0  0  0  0  0  0  0  0  0  0  0  0
   39.0020   23.4480   38.5700 N   0  0  0  0  0  0  0  0  0  0  0  0
   39.9350   22.7120   37.9110 C   0  0  0  0  0  0  0  0  0  0  0  0
   39.8240   22.4400   36.6260 N   0  0  0  0  0  0  0  0  0  0  0  0
   36.9110   24.0260   35.9760 H   0  0  0  0  0  0  0  0  0  0  0  0
   37.1230   24.5220   38.3370 H   0  0  0  0  0  0  0  0  0  0  0  0
   40.7260   22.4110   38.5840 H   0  0  0  0  0  0  0  0  0  0  0  0
   39.7150   24.7310   32.4620 S   0  0  0  0  0  0  0  0  0  0  0  0
   41.4020   25.9320   34.7500 Cl  0  0  0  0  0  0  0  0  0  0  0  0
   39.6980   26.2870   34.5970 C   0  0  0  0  0  0  0  0  0  0  0  0
   38.8330   25.8060   33.6110 C   0  0  0  0  0  0  0  0  0  0  0  0
   37.5040   26.1610   33.5960 C   0  0  0  0  0  0  0  0  0  0  0  0
   36.9610   25.7140   32.7780 H   0  0  0  0  0  0  0  0  0  0  0  0
   37.0230   27.0040   34.5730 C   0  0  0  0  0  0  0  0  0  0  0  0
   35.9760   27.2520   34.5170 H   0  0  0  0  0  0  0  0  0  0  0  0
   37.8500   27.5010   35.5660 C   0  0  0  0  0  3  0  0  0  0  0  0
   39.1970   27.1440   35.5830 C   0  0  0  0  0  3  0  0  0  0  0  0
  1  2  1  0  0  0  0
  1  4  1  0  0  0  0
  3  1  1  0  0  0  0
  4  5  1  0  0  0  0
  5  6  2  0  0  0  0
  5 10  1  0  0  0  0
  6  7  1  0  0  0  0
  7 12  1  0  0  0  0
  7  8  2  0  0  0  0
  9  8  1  0  0  0  0
  9 13  1  0  0  0  0
 10  9  2  0  0  0  0
 11  6  1  0  0  0  0
 14  1  1  0  0  0  0
 14 17  1  0  0  0  0
 16 15  1  0  0  0  0
 16 23  1  0  0  0  0
 17 16  2  0  0  0  0
 18 17  1  0  0  0  0
 18 20  2  0  0  0  0
 19 18  1  0  0  0  0
 20 22  1  0  0  0  0
 21 20  1  0  0  0  0
 22 23  2  0  0  0  0
M  END
>  <minimizedAffinity>
-4.17876387

$$$$

 OpenBabel03262521533D

 23 24  0  0  0  0  0  0  0  0999 V2000
   38.8200   22.9640   33.3090 C   0  0  0  0  0  0  0  0  0  0  0  0
   38.6080   22.1400   33.9990 H   0  0  0  0  0  0  0  0  0  0  0  0
   39.7080   22.6680   32.7140 H   0  0  0  0  0  0  0  0  0  0  0  0
   37.4430   23.3150   32.1940 S   0  0  0  0  0  0  0  0  0  0  0  0
   36.5490   21.7950   31.9330 C   0  0  0  0  0  0  0  0  0  0  0  0
   37.0500   20.9770   30.9160 C   0  0  0  0  0  0  0  0  0  0  0  0
   36.3900   19.7790   30.6730 C   0  0  0  0  0  0  0  0  0  0  0  0
   35.2800   19.4450   31.4360 N   0  0  0  0  0  0  0  0  0  0  0  0
   34.8540   20.2950   32.4070 C   0  0  0  0  0  0  0  0  0  0  0  0
   35.4690   21.4350   32.6500 N   0  0  0  0  0  0  0  0  0  0  0  0
   37.9170   21.2470   30.3270 H   0  0  0  0  0  0  0  0  0  0  0  0
   36.7810   19.1540   29.8870 H   0  0  0  0  0  0  0  0  0  0  0  0
   33.9840   19.8940   32.9080 H   0  0  0  0  0  0  0  0  0  0  0  0
   39.3120   24.4490   34.2530 S   0  0  0  0  0  0  0  0  0  0  0  0
   41.2570   22.4930   35.6360 Cl  0  0  0  0  0  0  0  0  0  0  0  0
   39.9310   23.2230   36.5090 C   0  0  0  0  0  0  0  0  0  0  0  0
   38.9880   24.1170   35.9950 C   0  0  0  0  0  0  0  0  0  0  0  0
   37.9860   24.6260   36.7890 C   0  0  0  0  0  0  0  0  0  0  0  0
   37.3350   25.3020   36.2570 H   0  0  0  0  0  0  0  0  0  0  0  0
   37.9150   24.2440   38.1100 C   0  0  0  0  0  0  0  0  0  0  0  0
   37.1130   24.6710   38.6880 H   0  0  0  0  0  0  0  0  0  0  0  0
   38.8310   23.3600   38.6530 C   0  0  0  0  0  3  0  0  0  0  0  0
   39.8480   22.8430   37.8530 C   0  0  0  0  0  3  0  0  0  0  0  0
  1  2  1  0  0  0  0
  1 14  1  0  0  0  0
  3  1  1  0  0  0  0
  4  1  1  0  0  0  0
  5  4  1  0  0  0  0
  5 10  1  0  0  0  0
  6  5  2  0  0  0  0
  7  6  1  0  0  0  0
  7  8  2  0  0  0  0
  8  9  1  0  0  0  0
  9 10  2  0  0  0  0
  9 13  1  0  0  0  0
 11  6  1  0  0  0  0
 12  7  1  0  0  0  0
 14 17  1  0  0  0  0
 15 16  1  0  0  0  0
 16 23  1  0  0  0  0
 17 16  2  0  0  0  0
 17 18  1  0  0  0  0
 18 20  2  0  0  0  0
 19 18  1  0  0  0  0
 20 22  1  0  0  0  0
 20 21  1  0  0  0  0
 23 22  2  0  0  0  0
M  END
>  <minimizedAffinity>
-4.16913986

$$$$
