
 OpenBabel03272509423D

 38 40  0  0  1  0  0  0  0  0999 V2000
   37.0190   30.9060   49.0980 C   0  0  0  0  0  0  0  0  0  0  0  0
   36.7220   31.8090   50.1210 C   0  0  0  0  0  0  0  0  0  0  0  0
   37.2990   33.0680   50.1760 C   0  0  0  0  0  0  0  0  0  0  0  0
   38.2040   33.4520   49.1810 C   0  0  0  0  0  0  0  0  0  0  0  0
   38.4870   32.5610   48.1860 C   0  0  0  0  0  0  0  0  0  0  0  0
   37.8900   31.3090   48.1660 C   0  0  0  0  0  0  0  0  0  0  0  0
   36.0160   31.5000   50.8900 H   0  0  0  0  0  0  0  0  0  0  0  0
   37.0060   33.6840   51.0000 H   0  0  0  0  0  0  0  0  0  0  0  0
   38.5990   34.4420   49.3040 H   0  0  0  0  0  0  0  0  0  0  0  0
   39.2040   33.0010   47.4930 H   0  0  0  0  0  0  0  0  0  0  0  0
   36.4420   29.5800   49.0580 C   0  0  2  0  0  0  0  0  0  0  0  0
   36.9440   29.0590   48.1550 H   0  0  0  0  0  0  0  0  0  0  0  0
   33.5850   29.9280   46.8380 C   0  0  0  0  0  0  0  0  0  0  0  0
   32.8410   28.7880   47.0670 C   0  0  0  0  0  0  0  0  0  0  0  0
   33.2810   27.9090   48.0390 C   0  0  0  0  0  0  0  0  0  0  0  0
   34.4350   28.1950   48.7370 N   0  0  0  0  0  0  0  0  0  0  0  0
   35.1010   29.2990   48.4690 C   0  0  0  0  0  0  0  0  0  0  0  0
   34.6840   30.1730   47.5250 N   0  0  0  0  0  0  0  0  0  0  0  0
   33.2700   30.6500   46.0800 H   0  0  0  0  0  0  0  0  0  0  0  0
   31.9500   28.6450   46.4720 H   0  0  0  0  0  0  0  0  0  0  0  0
   32.7040   27.0160   48.2250 H   0  0  0  0  0  0  0  0  0  0  0  0
   36.9190   28.8070   49.9660 O   0  0  0  0  0  0  0  0  0  0  0  0
   36.3870   28.0910   50.3870 H   0  0  0  0  0  0  0  0  0  0  0  0
   38.3020   30.4560   47.0760 C   0  0  0  0  0  3  0  0  0  0  0  0
   38.8230   30.9060   45.9300 C   0  0  0  0  0  3  0  0  0  0  0  0
   39.3200   30.1240   44.7730 C   0  0  0  0  0  0  0  0  0  0  0  0
   40.4180   29.9490   44.9340 H   0  0  0  0  0  0  0  0  0  0  0  0
   38.8110   29.1410   44.6800 H   0  0  0  0  0  0  0  0  0  0  0  0
   39.0770   31.0600   43.2590 S   0  0  0  0  0  0  0  0  0  0  0  0
   39.0930   32.5020   40.5290 Cl  0  0  0  0  0  0  0  0  0  0  0  0
   40.1360   31.1140   40.8400 C   0  0  0  0  0  0  0  0  0  0  0  0
   40.1960   30.4100   42.0250 C   0  0  0  0  0  0  0  0  0  0  0  0
   41.0510   29.3370   42.1590 C   0  0  0  0  0  0  0  0  0  0  0  0
   41.0170   28.8580   43.1300 H   0  0  0  0  0  0  0  0  0  0  0  0
   41.8490   28.9820   41.0760 C   0  0  0  0  0  0  0  0  0  0  0  0
   42.4990   28.1440   41.2220 H   0  0  0  0  0  0  0  0  0  0  0  0
   41.7830   29.6900   39.8970 C   0  0  0  0  0  3  0  0  0  0  0  0
   40.9310   30.7690   39.7460 C   0  0  0  0  0  3  0  0  0  0  0  0
  1  2  1  0  0  0  0
  2  3  2  0  0  0  0
  2  7  1  0  0  0  0
  3  8  1  0  0  0  0
  4  9  1  0  0  0  0
  4  3  1  0  0  0  0
  5  4  2  0  0  0  0
  6  5  1  0  0  0  0
  6  1  2  0  0  0  0
 10  5  1  0  0  0  0
 11 12  1  6  0  0  0
 11  1  1  0  0  0  0
 11 22  1  0  0  0  0
 13 14  2  0  0  0  0
 13 18  1  0  0  0  0
 14 15  1  0  0  0  0
 15 21  1  0  0  0  0
 15 16  2  0  0  0  0
 17 16  1  0  0  0  0
 17 11  1  0  0  0  0
 18 17  2  0  0  0  0
 19 13  1  0  0  0  0
 20 14  1  0  0  0  0
 22 23  1  0  0  0  0
 24  6  1  0  0  0  0
 25 24  2  0  0  0  0
 26 27  1  0  0  0  0
 26 25  1  0  0  0  0
 28 26  1  0  0  0  0
 29 26  1  0  0  0  0
 30 31  1  0  0  0  0
 31 32  1  0  0  0  0
 32 33  2  0  0  0  0
 32 29  1  0  0  0  0
 33 34  1  0  0  0  0
 35 36  1  0  0  0  0
 35 33  1  0  0  0  0
 37 35  2  0  0  0  0
 38 37  1  0  0  0  0
 38 31  2  0  0  0  0
M  END
>  <minimizedAffinity>
-5.98357296

>  <minimizedRMSD>
0.714118421

$$$$
