
 OpenBabel03272501573D

 31 33  0  0  0  0  0  0  0  0999 V2000
   32.6440   27.7900   48.6920 C   0  0  0  0  0  0  0  0  0  0  0  0
   32.2770   26.7650   47.8650 C   0  0  0  0  0  0  0  0  0  0  0  0
   30.9410   26.4290   48.0500 C   0  0  0  0  0  0  0  0  0  0  0  0
   30.5360   27.2880   49.0110 N   0  0  0  0  0  0  0  0  0  0  0  0
   31.5410   28.0860   49.3850 N   0  0  0  0  0  0  0  0  0  0  0  0
   32.8670   26.2120   47.1220 H   0  0  0  0  0  0  0  0  0  0  0  0
   30.2520   25.7140   47.6360 H   0  0  0  0  0  0  0  0  0  0  0  0
   28.8580   29.2220   47.5630 Cl  0  0  0  0  0  0  0  0  0  0  0  0
   28.4490   28.4120   49.0820 C   0  0  0  0  0  0  0  0  0  0  0  0
   29.3050   27.5170   49.6880 C   0  0  0  0  0  0  0  0  0  0  0  0
   28.9780   26.8910   50.8730 C   0  0  0  0  0  0  0  0  0  0  0  0
   29.6830   26.1870   51.3240 H   0  0  0  0  0  0  0  0  0  0  0  0
   27.7430   27.1880   51.4530 C   0  0  0  0  0  0  0  0  0  0  0  0
   27.4660   26.7000   52.3940 H   0  0  0  0  0  0  0  0  0  0  0  0
   26.8780   28.0900   50.8460 C   0  0  0  0  0  0  0  0  0  0  0  0
   27.2180   28.7060   49.6640 C   0  0  0  0  0  0  0  0  0  0  0  0
   34.0080   28.4060   48.7610 C   0  0  0  0  0  0  0  0  0  0  0  0
   34.8030   27.6270   48.7260 H   0  0  0  0  0  0  0  0  0  0  0  0
   34.1650   29.0290   47.8610 H   0  0  0  0  0  0  0  0  0  0  0  0
   34.0610   29.2020   50.0310 C   0  0  0  0  0  0  0  0  0  0  0  0
   33.7400   28.6390   50.9140 H   0  0  0  0  0  0  0  0  0  0  0  0
   33.3540   30.0800   49.9470 H   0  0  0  0  0  0  0  0  0  0  0  0
   37.4040   30.0300   51.3610 C   0  0  0  0  0  0  0  0  0  0  0  0
   37.9140   30.9250   50.4150 C   0  0  0  0  0  0  0  0  0  0  0  0
   37.0900   31.2380   49.3120 C   0  0  0  0  0  0  0  0  0  0  0  0
   35.8590   30.6710   49.2150 N   0  0  0  0  0  0  0  0  0  0  0  0
   35.4250   29.8060   50.1760 C   0  0  0  0  0  0  0  0  0  0  0  0
   36.1920   29.5010   51.2210 N   0  0  0  0  0  0  0  0  0  0  0  0
   38.0980   29.8470   52.1690 H   0  0  0  0  0  0  0  0  0  0  0  0
   38.8440   31.4370   50.3620 H   0  0  0  0  0  0  0  0  0  0  0  0
   37.3060   31.8970   48.4900 H   0  0  0  0  0  0  0  0  0  0  0  0
  1 17  1  0  0  0  0
  1  5  2  0  0  0  0
  2  3  2  0  0  0  0
  2  1  1  0  0  0  0
  3  4  1  0  0  0  0
  4  5  1  0  0  0  0
  4 10  1  0  0  0  0
  6  2  1  0  0  0  0
  7  3  1  0  0  0  0
  8  9  1  0  0  0  0
  9 16  2  0  0  0  0
  9 10  1  0  0  0  0
 10 11  2  0  0  0  0
 11 12  1  0  0  0  0
 11 13  1  0  0  0  0
 13 14  1  0  0  0  0
 15 13  2  0  0  0  0
 16 15  1  0  0  0  0
 17 20  1  0  0  0  0
 18 17  1  0  0  0  0
 19 17  1  0  0  0  0
 20 27  1  0  0  0  0
 20 21  1  0  0  0  0
 22 20  1  0  0  0  0
 23 29  1  0  0  0  0
 24 23  2  0  0  0  0
 25 24  1  0  0  0  0
 26 25  2  0  0  0  0
 26 27  1  0  0  0  0
 27 28  2  0  0  0  0
 28 23  1  0  0  0  0
 30 24  1  0  0  0  0
 31 25  1  0  0  0  0
M  END
>  <minimizedAffinity>
-6.29650974

>  <minimizedRMSD>
3.55626154

$$$$
