
 OpenBabel03272505493D

 40 44  0  0  0  0  0  0  0  0999 V2000
   38.6360   25.3590   33.7110 C   0  0  0  0  0  0  0  0  0  0  0  0
   38.2070   24.3960   32.8670 C   0  0  0  0  0  0  0  0  0  0  0  0
   37.1070   24.6270   32.0350 C   0  0  0  0  0  0  0  0  0  0  0  0
   36.4850   25.8690   32.1130 C   0  0  0  0  0  0  0  0  0  0  0  0
   36.9340   26.8550   32.9860 C   0  0  0  0  0  0  0  0  0  0  0  0
   38.0090   26.5500   33.7600 N   0  0  0  0  0  0  0  0  0  0  0  0
   38.7010   23.4430   32.8210 H   0  0  0  0  0  0  0  0  0  0  0  0
   36.7340   23.8800   31.3460 H   0  0  0  0  0  0  0  0  0  0  0  0
   35.6240   26.1380   31.5070 H   0  0  0  0  0  0  0  0  0  0  0  0
   39.8250   25.1220   34.6170 C   0  0  0  0  0  0  0  0  0  0  0  0
   41.1560   24.9430   34.0060 C   0  0  0  0  0  0  0  0  0  0  0  0
   40.8370   26.2340   34.7260 C   0  0  0  0  0  0  0  0  0  0  0  0
   41.9060   24.3240   34.5030 H   0  0  0  0  0  0  0  0  0  0  0  0
   41.2140   25.0330   32.8860 H   0  0  0  0  0  0  0  0  0  0  0  0
   41.2590   26.4030   35.7480 H   0  0  0  0  0  0  0  0  0  0  0  0
   40.6460   27.1260   34.1050 H   0  0  0  0  0  0  0  0  0  0  0  0
   37.9700   24.2680   37.7070 C   0  0  0  0  0  0  0  0  0  0  0  0
   38.7160   23.1970   38.2160 C   0  0  0  0  0  0  0  0  0  0  0  0
   39.8550   22.7740   37.4920 C   0  0  0  0  0  0  0  0  0  0  0  0
   40.1810   23.4130   36.3430 N   0  0  0  0  0  0  0  0  0  0  0  0
   39.4270   24.4580   35.8770 C   0  0  0  0  0  0  0  0  0  0  0  0
   38.3320   24.8830   36.5480 N   0  0  0  0  0  0  0  0  0  0  0  0
   37.0870   24.6820   38.1620 H   0  0  0  0  0  0  0  0  0  0  0  0
   38.3620   22.7760   39.1240 H   0  0  0  0  0  0  0  0  0  0  0  0
   40.4090   21.9530   37.9040 H   0  0  0  0  0  0  0  0  0  0  0  0
   36.3150   28.1690   33.1030 C   0  0  0  0  0  0  0  0  0  0  0  0
   36.0350   29.1090   32.1640 N   0  0  0  0  0  0  0  0  0  0  0  0
   35.4520   30.1700   32.7740 C   0  0  0  0  0  0  0  0  0  0  0  0
   35.3680   29.8890   34.1110 N   0  0  0  0  0  0  0  0  0  0  0  0
   35.8890   28.6840   34.2900 N   0  0  0  0  0  0  0  0  0  0  0  0
   35.0970   31.1010   32.3410 H   0  0  0  0  0  0  0  0  0  0  0  0
   32.4280   29.4150   34.5080 Cl  0  0  0  0  0  0  0  0  0  0  0  0
   33.4780   30.5000   35.3870 C   0  0  0  0  0  0  0  0  0  0  0  0
   34.8390   30.6790   35.1600 C   0  0  0  0  0  0  0  0  0  0  0  0
   35.5430   31.5740   35.9370 C   0  0  0  0  0  0  0  0  0  0  0  0
   36.5990   31.6730   35.7150 H   0  0  0  0  0  0  0  0  0  0  0  0
   34.9140   32.2900   36.9340 C   0  0  0  0  0  0  0  0  0  0  0  0
   35.4890   32.9970   37.5430 H   0  0  0  0  0  0  0  0  0  0  0  0
   33.5610   32.1310   37.1840 C   0  0  0  0  0  3  0  0  0  0  0  0
   32.8620   31.2260   36.3920 C   0  0  0  0  0  3  0  0  0  0  0  0
  1  6  1  0  0  0  0
  1 10  1  0  0  0  0
  2  1  2  0  0  0  0
  3  4  2  0  0  0  0
  3  2  1  0  0  0  0
  4  5  1  0  0  0  0
  5 26  1  0  0  0  0
  5  6  2  0  0  0  0
  7  2  1  0  0  0  0
  8  3  1  0  0  0  0
  9  4  1  0  0  0  0
 10 12  1  0  0  0  0
 10 21  1  0  0  0  0
 11 13  1  0  0  0  0
 11 10  1  0  0  0  0
 11 12  1  0  0  0  0
 12 15  1  0  0  0  0
 14 11  1  0  0  0  0
 16 12  1  0  0  0  0
 17 23  1  0  0  0  0
 17 18  1  0  0  0  0
 18 24  1  0  0  0  0
 19 25  1  0  0  0  0
 19 18  2  0  0  0  0
 20 19  1  0  0  0  0
 21 20  2  0  0  0  0
 21 22  1  0  0  0  0
 22 17  2  0  0  0  0
 26 30  2  0  0  0  0
 27 28  2  0  0  0  0
 27 26  1  0  0  0  0
 28 29  1  0  0  0  0
 29 30  1  0  0  0  0
 29 34  1  0  0  0  0
 31 28  1  0  0  0  0
 32 33  1  0  0  0  0
 33 40  1  0  0  0  0
 34 33  2  0  0  0  0
 34 35  1  0  0  0  0
 35 37  2  0  0  0  0
 36 35  1  0  0  0  0
 37 39  1  0  0  0  0
 37 38  1  0  0  0  0
 40 39  2  0  0  0  0
M  END
>  <minimizedAffinity>
-6.57925224

$$$$

 OpenBabel03272505493D

 40 44  0  0  0  0  0  0  0  0999 V2000
   35.7700   29.5180   33.1240 C   0  0  0  0  0  0  0  0  0  0  0  0
   36.1290   30.0220   31.9240 C   0  0  0  0  0  0  0  0  0  0  0  0
   36.9150   29.2650   31.0490 C   0  0  0  0  0  0  0  0  0  0  0  0
   37.3050   27.9950   31.4610 C   0  0  0  0  0  0  0  0  0  0  0  0
   36.9290   27.4850   32.7010 C   0  0  0  0  0  0  0  0  0  0  0  0
   36.1650   28.2840   33.4900 N   0  0  0  0  0  0  0  0  0  0  0  0
   35.8180   31.0060   31.6230 H   0  0  0  0  0  0  0  0  0  0  0  0
   37.2230   29.6350   30.0790 H   0  0  0  0  0  0  0  0  0  0  0  0
   37.9160   27.3370   30.8500 H   0  0  0  0  0  0  0  0  0  0  0  0
   34.9190   30.3260   34.0800 C   0  0  0  0  0  0  0  0  0  0  0  0
   35.5850   31.0650   35.1700 C   0  0  0  0  0  0  0  0  0  0  0  0
   35.0220   31.8270   33.9910 C   0  0  0  0  0  0  0  0  0  0  0  0
   35.0590   31.2400   36.1110 H   0  0  0  0  0  0  0  0  0  0  0  0
   36.7080   31.0140   35.2020 H   0  0  0  0  0  0  0  0  0  0  0  0
   34.0610   32.3850   34.1150 H   0  0  0  0  0  0  0  0  0  0  0  0
   35.7420   32.2200   33.2530 H   0  0  0  0  0  0  0  0  0  0  0  0
   31.5850   28.9510   33.2330 C   0  0  0  0  0  0  0  0  0  0  0  0
   31.0350   28.7030   34.4960 C   0  0  0  0  0  0  0  0  0  0  0  0
   31.8160   29.0100   35.6360 C   0  0  0  0  0  0  0  0  0  0  0  0
   33.0550   29.5290   35.4650 N   0  0  0  0  0  0  0  0  0  0  0  0
   33.5600   29.7580   34.2120 C   0  0  0  0  0  0  0  0  0  0  0  0
   32.8360   29.4730   33.1050 N   0  0  0  0  0  0  0  0  0  0  0  0
   31.0960   28.7610   32.2930 H   0  0  0  0  0  0  0  0  0  0  0  0
   30.0560   28.2940   34.5030 H   0  0  0  0  0  0  0  0  0  0  0  0
   31.3700   28.8110   36.5910 H   0  0  0  0  0  0  0  0  0  0  0  0
   37.3130   26.1620   33.1760 C   0  0  0  0  0  0  0  0  0  0  0  0
   37.3360   24.9600   32.5430 N   0  0  0  0  0  0  0  0  0  0  0  0
   37.7730   24.0200   33.4170 C   0  0  0  0  0  0  0  0  0  0  0  0
   38.0260   24.6430   34.6090 N   0  0  0  0  0  0  0  0  0  0  0  0
   37.7460   25.9280   34.4450 N   0  0  0  0  0  0  0  0  0  0  0  0
   37.9170   22.9540   33.2630 H   0  0  0  0  0  0  0  0  0  0  0  0
   40.8930   23.7670   34.4120 Cl  0  0  0  0  0  0  0  0  0  0  0  0
   39.8230   23.6670   35.7880 C   0  0  0  0  0  0  0  0  0  0  0  0
   38.4990   24.0910   35.8240 C   0  0  0  0  0  0  0  0  0  0  0  0
   37.7730   23.9490   36.9880 C   0  0  0  0  0  0  0  0  0  0  0  0
   36.7460   24.2950   36.9570 H   0  0  0  0  0  0  0  0  0  0  0  0
   38.3450   23.3930   38.1130 C   0  0  0  0  0  0  0  0  0  0  0  0
   37.7540   23.2880   39.0300 H   0  0  0  0  0  0  0  0  0  0  0  0
   39.6620   22.9630   38.1080 C   0  0  0  0  0  3  0  0  0  0  0  0
   40.3830   23.1120   36.9270 C   0  0  0  0  0  3  0  0  0  0  0  0
  1  6  1  0  0  0  0
  1 10  1  0  0  0  0
  2  1  2  0  0  0  0
  3  4  2  0  0  0  0
  3  2  1  0  0  0  0
  4  5  1  0  0  0  0
  5 26  1  0  0  0  0
  5  6  2  0  0  0  0
  7  2  1  0  0  0  0
  8  3  1  0  0  0  0
  9  4  1  0  0  0  0
 10 21  1  0  0  0  0
 10 11  1  0  0  0  0
 11 14  1  0  0  0  0
 11 13  1  0  0  0  0
 12 10  1  0  0  0  0
 12 15  1  0  0  0  0
 12 11  1  0  0  0  0
 16 12  1  0  0  0  0
 17 18  1  0  0  0  0
 18 24  1  0  0  0  0
 18 19  2  0  0  0  0
 19 25  1  0  0  0  0
 20 19  1  0  0  0  0
 21 20  2  0  0  0  0
 22 17  2  0  0  0  0
 22 21  1  0  0  0  0
 23 17  1  0  0  0  0
 26 30  2  0  0  0  0
 27 26  1  0  0  0  0
 27 28  2  0  0  0  0
 28 29  1  0  0  0  0
 29 34  1  0  0  0  0
 30 29  1  0  0  0  0
 31 28  1  0  0  0  0
 32 33  1  0  0  0  0
 33 34  2  0  0  0  0
 33 40  1  0  0  0  0
 34 35  1  0  0  0  0
 35 37  2  0  0  0  0
 36 35  1  0  0  0  0
 37 38  1  0  0  0  0
 39 37  1  0  0  0  0
 40 39  2  0  0  0  0
M  END
>  <minimizedAffinity>
-6.34147596

$$$$

 OpenBabel03272505493D

 40 44  0  0  0  0  0  0  0  0999 V2000
   38.0930   24.5840   34.5880 C   0  0  0  0  0  0  0  0  0  0  0  0
   38.1350   23.7650   33.5160 C   0  0  0  0  0  0  0  0  0  0  0  0
   37.6680   24.2050   32.2740 C   0  0  0  0  0  0  0  0  0  0  0  0
   37.1670   25.5010   32.1920 C   0  0  0  0  0  0  0  0  0  0  0  0
   37.1280   26.3380   33.3030 C   0  0  0  0  0  0  0  0  0  0  0  0
   37.6020   25.8320   34.4720 N   0  0  0  0  0  0  0  0  0  0  0  0
   38.5260   22.7670   33.5980 H   0  0  0  0  0  0  0  0  0  0  0  0
   37.6850   23.5780   31.3920 H   0  0  0  0  0  0  0  0  0  0  0  0
   36.7820   25.9280   31.2710 H   0  0  0  0  0  0  0  0  0  0  0  0
   38.5960   24.1200   35.9380 C   0  0  0  0  0  0  0  0  0  0  0  0
   38.0530   24.7550   37.1540 C   0  0  0  0  0  0  0  0  0  0  0  0
   37.6330   23.3450   36.8010 C   0  0  0  0  0  0  0  0  0  0  0  0
   38.6680   24.8300   38.0520 H   0  0  0  0  0  0  0  0  0  0  0  0
   37.2540   25.5330   37.0030 H   0  0  0  0  0  0  0  0  0  0  0  0
   38.0750   22.4900   37.3700 H   0  0  0  0  0  0  0  0  0  0  0  0
   36.6180   23.2080   36.3910 H   0  0  0  0  0  0  0  0  0  0  0  0
   41.5330   21.8770   36.1950 C   0  0  0  0  0  0  0  0  0  0  0  0
   42.5650   22.6770   35.6880 C   0  0  0  0  0  0  0  0  0  0  0  0
   42.2440   23.9870   35.2590 C   0  0  0  0  0  0  0  0  0  0  0  0
   40.9630   24.4160   35.3540 N   0  0  0  0  0  0  0  0  0  0  0  0
   39.9800   23.6040   35.8560 C   0  0  0  0  0  0  0  0  0  0  0  0
   40.2580   22.3460   36.2730 N   0  0  0  0  0  0  0  0  0  0  0  0
   41.6470   20.8680   36.5520 H   0  0  0  0  0  0  0  0  0  0  0  0
   43.5280   22.2310   35.6630 H   0  0  0  0  0  0  0  0  0  0  0  0
   43.0520   24.5780   34.8750 H   0  0  0  0  0  0  0  0  0  0  0  0
   36.6130   27.7000   33.2670 C   0  0  0  0  0  0  0  0  0  0  0  0
   36.4740   28.5730   32.2350 N   0  0  0  0  0  0  0  0  0  0  0  0
   35.9410   29.7250   32.7120 C   0  0  0  0  0  0  0  0  0  0  0  0
   35.7450   29.5690   34.0570 N   0  0  0  0  0  0  0  0  0  0  0  0
   36.1530   28.3480   34.3730 N   0  0  0  0  0  0  0  0  0  0  0  0
   35.6930   30.6390   32.1800 H   0  0  0  0  0  0  0  0  0  0  0  0
   32.7590   29.3410   34.2940 Cl  0  0  0  0  0  0  0  0  0  0  0  0
   33.8330   30.4240   35.1460 C   0  0  0  0  0  0  0  0  0  0  0  0
   35.2140   30.4860   34.9970 C   0  0  0  0  0  0  0  0  0  0  0  0
   35.9350   31.3960   35.7400 C   0  0  0  0  0  0  0  0  0  0  0  0
   37.0080   31.4000   35.5830 H   0  0  0  0  0  0  0  0  0  0  0  0
   35.3030   32.2420   36.6270 C   0  0  0  0  0  0  0  0  0  0  0  0
   35.8920   32.9590   37.2110 H   0  0  0  0  0  0  0  0  0  0  0  0
   33.9290   32.2020   36.7980 C   0  0  0  0  0  3  0  0  0  0  0  0
   33.2130   31.2790   36.0410 C   0  0  0  0  0  3  0  0  0  0  0  0
  1 10  1  0  0  0  0
  2  7  1  0  0  0  0
  2  1  2  0  0  0  0
  3  2  1  0  0  0  0
  4  3  2  0  0  0  0
  4  5  1  0  0  0  0
  5  6  2  0  0  0  0
  6  1  1  0  0  0  0
  8  3  1  0  0  0  0
  9  4  1  0  0  0  0
 10 12  1  0  0  0  0
 10 11  1  0  0  0  0
 11 13  1  0  0  0  0
 12 11  1  0  0  0  0
 12 15  1  0  0  0  0
 14 11  1  0  0  0  0
 16 12  1  0  0  0  0
 17 22  1  0  0  0  0
 17 23  1  0  0  0  0
 18 17  2  0  0  0  0
 19 20  2  0  0  0  0
 19 18  1  0  0  0  0
 20 21  1  0  0  0  0
 21 10  1  0  0  0  0
 21 22  2  0  0  0  0
 24 18  1  0  0  0  0
 25 19  1  0  0  0  0
 26  5  1  0  0  0  0
 26 30  2  0  0  0  0
 27 28  2  0  0  0  0
 27 26  1  0  0  0  0
 28 29  1  0  0  0  0
 29 30  1  0  0  0  0
 29 34  1  0  0  0  0
 31 28  1  0  0  0  0
 32 33  1  0  0  0  0
 33 40  1  0  0  0  0
 34 33  2  0  0  0  0
 34 35  1  0  0  0  0
 35 37  2  0  0  0  0
 36 35  1  0  0  0  0
 37 39  1  0  0  0  0
 37 38  1  0  0  0  0
 40 39  2  0  0  0  0
M  END
>  <minimizedAffinity>
-6.24607754

$$$$

 OpenBabel03272505493D

 40 44  0  0  0  0  0  0  0  0999 V2000
   38.4720   26.0100   33.2420 C   0  0  0  0  0  0  0  0  0  0  0  0
   38.2880   25.2380   32.1500 C   0  0  0  0  0  0  0  0  0  0  0  0
   37.3080   25.5700   31.2090 C   0  0  0  0  0  0  0  0  0  0  0  0
   36.5460   26.7110   31.4420 C   0  0  0  0  0  0  0  0  0  0  0  0
   36.7440   27.5000   32.5710 C   0  0  0  0  0  0  0  0  0  0  0  0
   37.7150   27.1070   33.4350 N   0  0  0  0  0  0  0  0  0  0  0  0
   38.8870   24.3600   31.9870 H   0  0  0  0  0  0  0  0  0  0  0  0
   37.1310   24.9760   30.3220 H   0  0  0  0  0  0  0  0  0  0  0  0
   35.7630   27.0460   30.7680 H   0  0  0  0  0  0  0  0  0  0  0  0
   39.5290   25.6610   34.2680 C   0  0  0  0  0  0  0  0  0  0  0  0
   40.9450   25.6590   33.8550 C   0  0  0  0  0  0  0  0  0  0  0  0
   40.4290   26.7770   34.7330 C   0  0  0  0  0  0  0  0  0  0  0  0
   41.6560   24.9910   34.3460 H   0  0  0  0  0  0  0  0  0  0  0  0
   41.1610   25.9590   32.7920 H   0  0  0  0  0  0  0  0  0  0  0  0
   40.6820   26.7710   35.8220 H   0  0  0  0  0  0  0  0  0  0  0  0
   40.2680   27.7600   34.2580 H   0  0  0  0  0  0  0  0  0  0  0  0
   37.8120   24.4240   37.3090 C   0  0  0  0  0  0  0  0  0  0  0  0
   38.0260   23.0420   37.2300 C   0  0  0  0  0  0  0  0  0  0  0  0
   38.7610   22.5420   36.1290 C   0  0  0  0  0  0  0  0  0  0  0  0
   39.2280   23.4100   35.2000 N   0  0  0  0  0  0  0  0  0  0  0  0
   38.9980   24.7560   35.3110 C   0  0  0  0  0  0  0  0  0  0  0  0
   38.2970   25.2620   36.3520 N   0  0  0  0  0  0  0  0  0  0  0  0
   37.2710   24.9260   38.0920 H   0  0  0  0  0  0  0  0  0  0  0  0
   37.6120   22.4640   38.0180 H   0  0  0  0  0  0  0  0  0  0  0  0
   38.9110   21.4810   36.0940 H   0  0  0  0  0  0  0  0  0  0  0  0
   35.9710   28.7010   32.8580 C   0  0  0  0  0  0  0  0  0  0  0  0
   35.6640   29.7710   32.0780 N   0  0  0  0  0  0  0  0  0  0  0  0
   34.9150   30.6360   32.8060 C   0  0  0  0  0  0  0  0  0  0  0  0
   34.7520   30.0990   34.0540 N   0  0  0  0  0  0  0  0  0  0  0  0
   35.3910   28.9380   34.0670 N   0  0  0  0  0  0  0  0  0  0  0  0
   34.4930   31.5930   32.5130 H   0  0  0  0  0  0  0  0  0  0  0  0
   36.4520   31.9600   35.6890 Cl  0  0  0  0  0  0  0  0  0  0  0  0
   34.7920   31.4900   35.9610 C   0  0  0  0  0  0  0  0  0  0  0  0
   34.0500   30.6210   35.1680 C   0  0  0  0  0  0  0  0  0  0  0  0
   32.7430   30.3420   35.5080 C   0  0  0  0  0  0  0  0  0  0  0  0
   32.2140   29.6580   34.8540 H   0  0  0  0  0  0  0  0  0  0  0  0
   32.1660   30.9140   36.6220 C   0  0  0  0  0  0  0  0  0  0  0  0
   31.1260   30.6820   36.8780 H   0  0  0  0  0  0  0  0  0  0  0  0
   32.8800   31.7840   37.4300 C   0  0  0  0  0  3  0  0  0  0  0  0
   34.1980   32.0560   37.0770 C   0  0  0  0  0  3  0  0  0  0  0  0
  1  6  1  0  0  0  0
  1 10  1  0  0  0  0
  2  1  2  0  0  0  0
  3  4  2  0  0  0  0
  3  2  1  0  0  0  0
  4  5  1  0  0  0  0
  5 26  1  0  0  0  0
  5  6  2  0  0  0  0
  7  2  1  0  0  0  0
  8  3  1  0  0  0  0
  9  4  1  0  0  0  0
 10 12  1  0  0  0  0
 10 21  1  0  0  0  0
 11 10  1  0  0  0  0
 11 13  1  0  0  0  0
 11 12  1  0  0  0  0
 12 15  1  0  0  0  0
 14 11  1  0  0  0  0
 16 12  1  0  0  0  0
 17 23  1  0  0  0  0
 18 17  1  0  0  0  0
 18 24  1  0  0  0  0
 19 18  2  0  0  0  0
 20 21  2  0  0  0  0
 20 19  1  0  0  0  0
 21 22  1  0  0  0  0
 22 17  2  0  0  0  0
 25 19  1  0  0  0  0
 26 30  2  0  0  0  0
 27 28  2  0  0  0  0
 27 26  1  0  0  0  0
 28 29  1  0  0  0  0
 29 30  1  0  0  0  0
 29 34  1  0  0  0  0
 31 28  1  0  0  0  0
 32 33  1  0  0  0  0
 33 40  1  0  0  0  0
 34 35  1  0  0  0  0
 34 33  2  0  0  0  0
 35 37  2  0  0  0  0
 36 35  1  0  0  0  0
 37 38  1  0  0  0  0
 37 39  1  0  0  0  0
 40 39  2  0  0  0  0
M  END
>  <minimizedAffinity>
-6.15854406

$$$$

 OpenBabel03272505493D

 40 44  0  0  0  0  0  0  0  0999 V2000
   38.4570   24.3290   35.2410 C   0  0  0  0  0  0  0  0  0  0  0  0
   38.6350   25.1280   36.3140 C   0  0  0  0  0  0  0  0  0  0  0  0
   38.2960   26.4830   36.2480 C   0  0  0  0  0  0  0  0  0  0  0  0
   37.7760   26.9630   35.0510 C   0  0  0  0  0  0  0  0  0  0  0  0
   37.5960   26.1320   33.9500 C   0  0  0  0  0  0  0  0  0  0  0  0
   37.9510   24.8290   34.0970 N   0  0  0  0  0  0  0  0  0  0  0  0
   39.0380   24.7380   37.2310 H   0  0  0  0  0  0  0  0  0  0  0  0
   38.4250   27.1540   37.0880 H   0  0  0  0  0  0  0  0  0  0  0  0
   37.4860   28.0000   34.9070 H   0  0  0  0  0  0  0  0  0  0  0  0
   38.8190   22.8600   35.2980 C   0  0  0  0  0  0  0  0  0  0  0  0
   40.2300   22.4700   35.1070 C   0  0  0  0  0  0  0  0  0  0  0  0
   39.6190   22.3970   36.4890 C   0  0  0  0  0  0  0  0  0  0  0  0
   40.4730   21.5000   34.6700 H   0  0  0  0  0  0  0  0  0  0  0  0
   40.9700   23.3060   34.9660 H   0  0  0  0  0  0  0  0  0  0  0  0
   39.3330   21.3980   36.9030 H   0  0  0  0  0  0  0  0  0  0  0  0
   39.9090   23.1780   37.2120 H   0  0  0  0  0  0  0  0  0  0  0  0
   35.7240   20.8290   35.3990 C   0  0  0  0  0  0  0  0  0  0  0  0
   35.5990   20.4100   34.0680 C   0  0  0  0  0  0  0  0  0  0  0  0
   36.5830   20.8290   33.1410 C   0  0  0  0  0  0  0  0  0  0  0  0
   37.6000   21.6130   33.5700 N   0  0  0  0  0  0  0  0  0  0  0  0
   37.6890   22.0030   34.8810 C   0  0  0  0  0  0  0  0  0  0  0  0
   36.7620   21.6180   35.7890 N   0  0  0  0  0  0  0  0  0  0  0  0
   35.0440   20.5790   36.1960 H   0  0  0  0  0  0  0  0  0  0  0  0
   34.7590   19.7970   33.8520 H   0  0  0  0  0  0  0  0  0  0  0  0
   36.4640   20.4930   32.1300 H   0  0  0  0  0  0  0  0  0  0  0  0
   37.0570   26.5890   32.6760 C   0  0  0  0  0  0  0  0  0  0  0  0
   36.0610   26.0900   31.8990 N   0  0  0  0  0  0  0  0  0  0  0  0
   35.9320   26.8770   30.8020 C   0  0  0  0  0  0  0  0  0  0  0  0
   36.8580   27.8790   30.8970 N   0  0  0  0  0  0  0  0  0  0  0  0
   37.5230   27.6920   32.0270 N   0  0  0  0  0  0  0  0  0  0  0  0
   35.2430   26.7830   29.9670 H   0  0  0  0  0  0  0  0  0  0  0  0
   35.7880   30.4930   31.9190 Cl  0  0  0  0  0  0  0  0  0  0  0  0
   36.6400   30.1830   30.4270 C   0  0  0  0  0  0  0  0  0  0  0  0
   37.1160   28.9470   30.0020 C   0  0  0  0  0  0  0  0  0  0  0  0
   37.7740   28.8530   28.7940 C   0  0  0  0  0  0  0  0  0  0  0  0
   38.1230   27.8650   28.5140 H   0  0  0  0  0  0  0  0  0  0  0  0
   37.9650   29.9680   28.0060 C   0  0  0  0  0  0  0  0  0  0  0  0
   38.4910   29.8760   27.0490 H   0  0  0  0  0  0  0  0  0  0  0  0
   37.5030   31.2130   28.4040 C   0  0  0  0  0  3  0  0  0  0  0  0
   36.8400   31.2930   29.6240 C   0  0  0  0  0  3  0  0  0  0  0  0
  1 10  1  0  0  0  0
  1  2  1  0  0  0  0
  2  7  1  0  0  0  0
  3  2  2  0  0  0  0
  3  8  1  0  0  0  0
  4  3  1  0  0  0  0
  5  6  1  0  0  0  0
  5  4  2  0  0  0  0
  6  1  2  0  0  0  0
  9  4  1  0  0  0  0
 10 12  1  0  0  0  0
 11 10  1  0  0  0  0
 11 12  1  0  0  0  0
 12 15  1  0  0  0  0
 12 16  1  0  0  0  0
 13 11  1  0  0  0  0
 14 11  1  0  0  0  0
 17 22  1  0  0  0  0
 17 23  1  0  0  0  0
 18 17  2  0  0  0  0
 19 20  2  0  0  0  0
 19 18  1  0  0  0  0
 20 21  1  0  0  0  0
 21 10  1  0  0  0  0
 21 22  2  0  0  0  0
 24 18  1  0  0  0  0
 25 19  1  0  0  0  0
 26  5  1  0  0  0  0
 27 26  1  0  0  0  0
 28 29  1  0  0  0  0
 28 27  2  0  0  0  0
 29 30  1  0  0  0  0
 30 26  2  0  0  0  0
 31 28  1  0  0  0  0
 33 32  1  0  0  0  0
 34 33  1  0  0  0  0
 34 29  1  0  0  0  0
 35 34  2  0  0  0  0
 36 35  1  0  0  0  0
 37 39  2  0  0  0  0
 37 35  1  0  0  0  0
 38 37  1  0  0  0  0
 39 40  1  0  0  0  0
 40 33  2  0  0  0  0
M  END
>  <minimizedAffinity>
-6.15766096

$$$$

 OpenBabel03272505493D

 40 44  0  0  0  0  0  0  0  0999 V2000
   36.0650   29.2130   32.0440 C   0  0  0  0  0  0  0  0  0  0  0  0
   36.7840   29.6410   30.9840 C   0  0  0  0  0  0  0  0  0  0  0  0
   37.7960   28.8390   30.4480 C   0  0  0  0  0  0  0  0  0  0  0  0
   38.0250   27.6020   31.0430 C   0  0  0  0  0  0  0  0  0  0  0  0
   37.2790   27.1700   32.1350 C   0  0  0  0  0  0  0  0  0  0  0  0
   36.3150   28.0100   32.5940 N   0  0  0  0  0  0  0  0  0  0  0  0
   36.5910   30.6000   30.5370 H   0  0  0  0  0  0  0  0  0  0  0  0
   38.3930   29.1480   29.5990 H   0  0  0  0  0  0  0  0  0  0  0  0
   38.7900   26.9130   30.6960 H   0  0  0  0  0  0  0  0  0  0  0  0
   34.9670   30.0720   32.6330 C   0  0  0  0  0  0  0  0  0  0  0  0
   33.7790   30.3680   31.8090 C   0  0  0  0  0  0  0  0  0  0  0  0
   33.6620   29.3910   32.9590 C   0  0  0  0  0  0  0  0  0  0  0  0
   33.2330   31.3020   31.9550 H   0  0  0  0  0  0  0  0  0  0  0  0
   33.7420   29.8960   30.7880 H   0  0  0  0  0  0  0  0  0  0  0  0
   33.1670   29.7240   33.9040 H   0  0  0  0  0  0  0  0  0  0  0  0
   33.5990   28.3190   32.7060 H   0  0  0  0  0  0  0  0  0  0  0  0
   36.3890   33.1140   34.1970 C   0  0  0  0  0  0  0  0  0  0  0  0
   36.4730   32.7450   35.5450 C   0  0  0  0  0  0  0  0  0  0  0  0
   36.0390   31.4490   35.9100 C   0  0  0  0  0  0  0  0  0  0  0  0
   35.5630   30.6190   34.9510 N   0  0  0  0  0  0  0  0  0  0  0  0
   35.4960   31.0160   33.6420 C   0  0  0  0  0  0  0  0  0  0  0  0
   35.9030   32.2500   33.2640 N   0  0  0  0  0  0  0  0  0  0  0  0
   36.6850   34.0670   33.7930 H   0  0  0  0  0  0  0  0  0  0  0  0
   36.8630   33.4800   36.2030 H   0  0  0  0  0  0  0  0  0  0  0  0
   36.1150   31.1910   36.9480 H   0  0  0  0  0  0  0  0  0  0  0  0
   37.4840   25.8850   32.7910 C   0  0  0  0  0  0  0  0  0  0  0  0
   37.3540   24.6160   32.3250 N   0  0  0  0  0  0  0  0  0  0  0  0
   37.6590   23.7540   33.3260 C   0  0  0  0  0  0  0  0  0  0  0  0
   37.9830   24.4950   34.4300 N   0  0  0  0  0  0  0  0  0  0  0  0
   37.8740   25.7710   34.0910 N   0  0  0  0  0  0  0  0  0  0  0  0
   37.6630   22.6680   33.3200 H   0  0  0  0  0  0  0  0  0  0  0  0
   40.8000   23.4520   34.4670 Cl  0  0  0  0  0  0  0  0  0  0  0  0
   39.6690   23.5620   35.7940 C   0  0  0  0  0  0  0  0  0  0  0  0
   38.3710   24.0560   35.7200 C   0  0  0  0  0  0  0  0  0  0  0  0
   37.5910   24.0820   36.8560 C   0  0  0  0  0  0  0  0  0  0  0  0
   36.5880   24.4780   36.7390 H   0  0  0  0  0  0  0  0  0  0  0  0
   38.0820   23.6250   38.0610 C   0  0  0  0  0  0  0  0  0  0  0  0
   37.4480   23.6530   38.9540 H   0  0  0  0  0  0  0  0  0  0  0  0
   39.3710   23.1280   38.1650 C   0  0  0  0  0  3  0  0  0  0  0  0
   40.1480   23.1070   37.0110 C   0  0  0  0  0  3  0  0  0  0  0  0
  1  6  1  0  0  0  0
  1 10  1  0  0  0  0
  2  1  2  0  0  0  0
  3  2  1  0  0  0  0
  3  4  2  0  0  0  0
  4  5  1  0  0  0  0
  5  6  2  0  0  0  0
  5 26  1  0  0  0  0
  7  2  1  0  0  0  0
  8  3  1  0  0  0  0
  9  4  1  0  0  0  0
 10 12  1  0  0  0  0
 10 21  1  0  0  0  0
 11 13  1  0  0  0  0
 11 10  1  0  0  0  0
 11 12  1  0  0  0  0
 12 15  1  0  0  0  0
 14 11  1  0  0  0  0
 16 12  1  0  0  0  0
 17 18  1  0  0  0  0
 18 19  2  0  0  0  0
 18 24  1  0  0  0  0
 19 25  1  0  0  0  0
 20 19  1  0  0  0  0
 21 20  2  0  0  0  0
 22 21  1  0  0  0  0
 22 17  2  0  0  0  0
 23 17  1  0  0  0  0
 26 30  2  0  0  0  0
 27 26  1  0  0  0  0
 27 28  2  0  0  0  0
 28 29  1  0  0  0  0
 29 34  1  0  0  0  0
 30 29  1  0  0  0  0
 31 28  1  0  0  0  0
 32 33  1  0  0  0  0
 33 40  1  0  0  0  0
 34 33  2  0  0  0  0
 34 35  1  0  0  0  0
 35 37  2  0  0  0  0
 36 35  1  0  0  0  0
 37 39  1  0  0  0  0
 37 38  1  0  0  0  0
 40 39  2  0  0  0  0
M  END
>  <minimizedAffinity>
-6.12356424

$$$$

 OpenBabel03272505493D

 40 44  0  0  0  0  0  0  0  0999 V2000
   35.7080   29.2390   32.8000 C   0  0  0  0  0  0  0  0  0  0  0  0
   36.0100   29.8030   31.6110 C   0  0  0  0  0  0  0  0  0  0  0  0
   36.6740   29.0630   30.6270 C   0  0  0  0  0  0  0  0  0  0  0  0
   37.0030   27.7430   30.9210 C   0  0  0  0  0  0  0  0  0  0  0  0
   36.6880   27.1710   32.1500 C   0  0  0  0  0  0  0  0  0  0  0  0
   36.0430   27.9580   33.0500 N   0  0  0  0  0  0  0  0  0  0  0  0
   35.7470   30.8240   31.4020 H   0  0  0  0  0  0  0  0  0  0  0  0
   36.9320   29.4810   29.6630 H   0  0  0  0  0  0  0  0  0  0  0  0
   37.5190   27.0930   30.2200 H   0  0  0  0  0  0  0  0  0  0  0  0
   34.9900   30.0280   33.8730 C   0  0  0  0  0  0  0  0  0  0  0  0
   35.7840   30.6280   34.9630 C   0  0  0  0  0  0  0  0  0  0  0  0
   35.2050   31.5200   33.8870 C   0  0  0  0  0  0  0  0  0  0  0  0
   35.3390   30.7650   35.9500 H   0  0  0  0  0  0  0  0  0  0  0  0
   36.9000   30.4920   34.9080 H   0  0  0  0  0  0  0  0  0  0  0  0
   34.3010   32.1360   34.1220 H   0  0  0  0  0  0  0  0  0  0  0  0
   35.9030   31.9170   33.1300 H   0  0  0  0  0  0  0  0  0  0  0  0
   31.5660   28.8050   33.1660 C   0  0  0  0  0  0  0  0  0  0  0  0
   31.0260   28.6730   34.4510 C   0  0  0  0  0  0  0  0  0  0  0  0
   31.8440   29.0060   35.5570 C   0  0  0  0  0  0  0  0  0  0  0  0
   33.1080   29.4370   35.3340 N   0  0  0  0  0  0  0  0  0  0  0  0
   33.6020   29.5540   34.0620 C   0  0  0  0  0  0  0  0  0  0  0  0
   32.8430   29.2410   32.9860 N   0  0  0  0  0  0  0  0  0  0  0  0
   31.0490   28.5850   32.2480 H   0  0  0  0  0  0  0  0  0  0  0  0
   30.0240   28.3260   34.4990 H   0  0  0  0  0  0  0  0  0  0  0  0
   31.4050   28.8960   36.5290 H   0  0  0  0  0  0  0  0  0  0  0  0
   37.0130   25.7950   32.5030 C   0  0  0  0  0  0  0  0  0  0  0  0
   37.8870   25.2910   33.4130 N   0  0  0  0  0  0  0  0  0  0  0  0
   37.8260   23.9370   33.3670 C   0  0  0  0  0  0  0  0  0  0  0  0
   36.9030   23.5930   32.4170 N   0  0  0  0  0  0  0  0  0  0  0  0
   36.4250   24.7200   31.9100 N   0  0  0  0  0  0  0  0  0  0  0  0
   38.3810   23.2050   33.9480 H   0  0  0  0  0  0  0  0  0  0  0  0
   38.7140   22.4410   30.3160 Cl  0  0  0  0  0  0  0  0  0  0  0  0
   37.2900   21.7240   31.0270 C   0  0  0  0  0  0  0  0  0  0  0  0
   36.4850   22.3050   32.0020 C   0  0  0  0  0  0  0  0  0  0  0  0
   35.3880   21.6170   32.4730 C   0  0  0  0  0  0  0  0  0  0  0  0
   34.7970   22.1180   33.2310 H   0  0  0  0  0  0  0  0  0  0  0  0
   35.0800   20.3620   31.9880 C   0  0  0  0  0  0  0  0  0  0  0  0
   34.2030   19.8290   32.3740 H   0  0  0  0  0  0  0  0  0  0  0  0
   35.8630   19.7580   31.0190 C   0  0  0  0  0  3  0  0  0  0  0  0
   36.9680   20.4640   30.5520 C   0  0  0  0  0  3  0  0  0  0  0  0
  1  6  1  0  0  0  0
  1 10  1  0  0  0  0
  2  1  2  0  0  0  0
  3  4  2  0  0  0  0
  3  2  1  0  0  0  0
  4  5  1  0  0  0  0
  5 26  1  0  0  0  0
  5  6  2  0  0  0  0
  7  2  1  0  0  0  0
  8  3  1  0  0  0  0
  9  4  1  0  0  0  0
 10 12  1  0  0  0  0
 10 21  1  0  0  0  0
 10 11  1  0  0  0  0
 11 13  1  0  0  0  0
 12 15  1  0  0  0  0
 12 11  1  0  0  0  0
 14 11  1  0  0  0  0
 16 12  1  0  0  0  0
 17 18  1  0  0  0  0
 18 24  1  0  0  0  0
 18 19  2  0  0  0  0
 19 25  1  0  0  0  0
 20 19  1  0  0  0  0
 21 20  2  0  0  0  0
 22 17  2  0  0  0  0
 22 21  1  0  0  0  0
 23 17  1  0  0  0  0
 26 27  1  0  0  0  0
 28 27  2  0  0  0  0
 28 31  1  0  0  0  0
 29 28  1  0  0  0  0
 30 29  1  0  0  0  0
 30 26  2  0  0  0  0
 32 33  1  0  0  0  0
 33 34  1  0  0  0  0
 34 29  1  0  0  0  0
 34 35  2  0  0  0  0
 35 36  1  0  0  0  0
 37 38  1  0  0  0  0
 37 35  1  0  0  0  0
 39 37  2  0  0  0  0
 40 39  1  0  0  0  0
 40 33  2  0  0  0  0
M  END
>  <minimizedAffinity>
-6.10923672

$$$$

 OpenBabel03272505493D

 40 44  0  0  0  0  0  0  0  0999 V2000
   35.4410   29.3640   31.8250 C   0  0  0  0  0  0  0  0  0  0  0  0
   36.0050   29.8740   30.7090 C   0  0  0  0  0  0  0  0  0  0  0  0
   36.9150   29.1140   29.9690 C   0  0  0  0  0  0  0  0  0  0  0  0
   37.2100   27.8320   30.4230 C   0  0  0  0  0  0  0  0  0  0  0  0
   36.6230   27.3150   31.5740 C   0  0  0  0  0  0  0  0  0  0  0  0
   35.7500   28.1180   32.2350 N   0  0  0  0  0  0  0  0  0  0  0  0
   35.7650   30.8670   30.3740 H   0  0  0  0  0  0  0  0  0  0  0  0
   37.3880   29.4880   29.0700 H   0  0  0  0  0  0  0  0  0  0  0  0
   37.9050   27.1700   29.9140 H   0  0  0  0  0  0  0  0  0  0  0  0
   34.4540   30.1760   32.6350 C   0  0  0  0  0  0  0  0  0  0  0  0
   33.1670   30.5480   32.0180 C   0  0  0  0  0  0  0  0  0  0  0  0
   33.1960   29.4780   33.0860 C   0  0  0  0  0  0  0  0  0  0  0  0
   32.6640   31.4700   32.3180 H   0  0  0  0  0  0  0  0  0  0  0  0
   32.9770   30.1670   30.9760 H   0  0  0  0  0  0  0  0  0  0  0  0
   32.8460   29.7310   34.1170 H   0  0  0  0  0  0  0  0  0  0  0  0
   33.0780   28.4310   32.7560 H   0  0  0  0  0  0  0  0  0  0  0  0
   36.1430   33.0620   34.2290 C   0  0  0  0  0  0  0  0  0  0  0  0
   36.4070   32.5780   35.5170 C   0  0  0  0  0  0  0  0  0  0  0  0
   36.0020   31.2590   35.8310 C   0  0  0  0  0  0  0  0  0  0  0  0
   35.3800   30.5180   34.8840 N   0  0  0  0  0  0  0  0  0  0  0  0
   35.1380   31.0260   33.6340 C   0  0  0  0  0  0  0  0  0  0  0  0
   35.5130   32.2840   33.3060 N   0  0  0  0  0  0  0  0  0  0  0  0
   36.3980   34.0430   33.8690 H   0  0  0  0  0  0  0  0  0  0  0  0
   36.9010   33.2520   36.1720 H   0  0  0  0  0  0  0  0  0  0  0  0
   36.2180   30.9140   36.8230 H   0  0  0  0  0  0  0  0  0  0  0  0
   36.9010   25.9800   32.0880 C   0  0  0  0  0  0  0  0  0  0  0  0
   37.6710   25.5680   33.1280 N   0  0  0  0  0  0  0  0  0  0  0  0
   37.6060   24.2150   33.2050 C   0  0  0  0  0  0  0  0  0  0  0  0
   36.7860   23.7790   32.2000 N   0  0  0  0  0  0  0  0  0  0  0  0
   36.3710   24.8510   31.5410 N   0  0  0  0  0  0  0  0  0  0  0  0
   38.0920   23.5440   33.9070 H   0  0  0  0  0  0  0  0  0  0  0  0
   38.7490   22.4750   30.3370 Cl  0  0  0  0  0  0  0  0  0  0  0  0
   37.2810   21.8050   31.0040 C   0  0  0  0  0  0  0  0  0  0  0  0
   36.4050   22.4560   31.8670 C   0  0  0  0  0  0  0  0  0  0  0  0
   35.2810   21.7970   32.3160 C   0  0  0  0  0  0  0  0  0  0  0  0
   34.6350   22.3540   32.9850 H   0  0  0  0  0  0  0  0  0  0  0  0
   35.0150   20.5030   31.9190 C   0  0  0  0  0  0  0  0  0  0  0  0
   34.1170   19.9940   32.2850 H   0  0  0  0  0  0  0  0  0  0  0  0
   35.8690   19.8290   31.0610 C   0  0  0  0  0  3  0  0  0  0  0  0
   37.0010   20.5060   30.6150 C   0  0  0  0  0  3  0  0  0  0  0  0
  1  6  1  0  0  0  0
  1 10  1  0  0  0  0
  2  1  2  0  0  0  0
  3  4  2  0  0  0  0
  3  2  1  0  0  0  0
  4  5  1  0  0  0  0
  5 26  1  0  0  0  0
  5  6  2  0  0  0  0
  7  2  1  0  0  0  0
  8  3  1  0  0  0  0
  9  4  1  0  0  0  0
 10 12  1  0  0  0  0
 10 21  1  0  0  0  0
 11 13  1  0  0  0  0
 11 10  1  0  0  0  0
 11 12  1  0  0  0  0
 12 15  1  0  0  0  0
 14 11  1  0  0  0  0
 16 12  1  0  0  0  0
 17 18  1  0  0  0  0
 18 19  2  0  0  0  0
 18 24  1  0  0  0  0
 19 25  1  0  0  0  0
 20 19  1  0  0  0  0
 21 20  2  0  0  0  0
 22 21  1  0  0  0  0
 22 17  2  0  0  0  0
 23 17  1  0  0  0  0
 26 27  1  0  0  0  0
 27 28  2  0  0  0  0
 28 31  1  0  0  0  0
 29 28  1  0  0  0  0
 30 26  2  0  0  0  0
 30 29  1  0  0  0  0
 32 33  1  0  0  0  0
 33 34  1  0  0  0  0
 34 29  1  0  0  0  0
 34 35  2  0  0  0  0
 35 36  1  0  0  0  0
 37 38  1  0  0  0  0
 37 35  1  0  0  0  0
 39 37  2  0  0  0  0
 40 33  2  0  0  0  0
 40 39  1  0  0  0  0
M  END
>  <minimizedAffinity>
-6.01520395

$$$$

 OpenBabel03272505493D

 40 44  0  0  0  0  0  0  0  0999 V2000
   38.6280   24.8700   33.8440 C   0  0  0  0  0  0  0  0  0  0  0  0
   39.8690   25.2100   33.4350 C   0  0  0  0  0  0  0  0  0  0  0  0
   40.1150   26.4830   32.9120 C   0  0  0  0  0  0  0  0  0  0  0  0
   39.0450   27.3690   32.8330 C   0  0  0  0  0  0  0  0  0  0  0  0
   37.7690   27.0090   33.2570 C   0  0  0  0  0  0  0  0  0  0  0  0
   37.6160   25.7540   33.7530 N   0  0  0  0  0  0  0  0  0  0  0  0
   40.6830   24.5110   33.5050 H   0  0  0  0  0  0  0  0  0  0  0  0
   41.0960   26.7910   32.5740 H   0  0  0  0  0  0  0  0  0  0  0  0
   39.1410   28.3770   32.4400 H   0  0  0  0  0  0  0  0  0  0  0  0
   38.3480   23.4950   34.4130 C   0  0  0  0  0  0  0  0  0  0  0  0
   37.3740   22.6280   33.7230 C   0  0  0  0  0  0  0  0  0  0  0  0
   38.8500   22.3120   33.6260 C   0  0  0  0  0  0  0  0  0  0  0  0
   36.7940   21.8990   34.2920 H   0  0  0  0  0  0  0  0  0  0  0  0
   36.9180   23.0330   32.7770 H   0  0  0  0  0  0  0  0  0  0  0  0
   39.2650   21.4690   34.2340 H   0  0  0  0  0  0  0  0  0  0  0  0
   39.3550   22.5420   32.6720 H   0  0  0  0  0  0  0  0  0  0  0  0
   39.8420   22.8270   37.7360 C   0  0  0  0  0  0  0  0  0  0  0  0
   38.9100   23.4100   38.6040 C   0  0  0  0  0  0  0  0  0  0  0  0
   37.7700   24.0310   38.0410 C   0  0  0  0  0  0  0  0  0  0  0  0
   37.6220   24.0390   36.6950 N   0  0  0  0  0  0  0  0  0  0  0  0
   38.5560   23.4590   35.8770 C   0  0  0  0  0  0  0  0  0  0  0  0
   39.6560   22.8580   36.3880 N   0  0  0  0  0  0  0  0  0  0  0  0
   40.7460   22.3270   38.0390 H   0  0  0  0  0  0  0  0  0  0  0  0
   39.1340   23.3400   39.6390 H   0  0  0  0  0  0  0  0  0  0  0  0
   37.0730   24.4680   38.7280 H   0  0  0  0  0  0  0  0  0  0  0  0
   36.6190   27.9010   33.1930 C   0  0  0  0  0  0  0  0  0  0  0  0
   35.9810   28.4590   32.1310 N   0  0  0  0  0  0  0  0  0  0  0  0
   34.9580   29.2200   32.5910 C   0  0  0  0  0  0  0  0  0  0  0  0
   34.9580   29.1370   33.9580 N   0  0  0  0  0  0  0  0  0  0  0  0
   35.9600   28.3410   34.3010 N   0  0  0  0  0  0  0  0  0  0  0  0
   34.2380   29.8120   32.0340 H   0  0  0  0  0  0  0  0  0  0  0  0
   36.1520   31.6250   35.1460 Cl  0  0  0  0  0  0  0  0  0  0  0  0
   34.5930   30.9090   35.4730 C   0  0  0  0  0  0  0  0  0  0  0  0
   34.0880   29.7510   34.8910 C   0  0  0  0  0  0  0  0  0  0  0  0
   32.8340   29.3040   35.2490 C   0  0  0  0  0  0  0  0  0  0  0  0
   32.4930   28.3970   34.7630 H   0  0  0  0  0  0  0  0  0  0  0  0
   32.0770   29.9910   36.1750 C   0  0  0  0  0  0  0  0  0  0  0  0
   31.0820   29.6220   36.4470 H   0  0  0  0  0  0  0  0  0  0  0  0
   32.5530   31.1480   36.7700 C   0  0  0  0  0  3  0  0  0  0  0  0
   33.8200   31.5880   36.4010 C   0  0  0  0  0  3  0  0  0  0  0  0
  1 10  1  0  0  0  0
  2  7  1  0  0  0  0
  2  1  2  0  0  0  0
  3  2  1  0  0  0  0
  4  3  2  0  0  0  0
  4  5  1  0  0  0  0
  5  6  2  0  0  0  0
  6  1  1  0  0  0  0
  8  3  1  0  0  0  0
  9  4  1  0  0  0  0
 10 21  1  0  0  0  0
 11 13  1  0  0  0  0
 11 10  1  0  0  0  0
 12 11  1  0  0  0  0
 12 15  1  0  0  0  0
 12 10  1  0  0  0  0
 14 11  1  0  0  0  0
 16 12  1  0  0  0  0
 17 23  1  0  0  0  0
 17 18  1  0  0  0  0
 18 24  1  0  0  0  0
 19 18  2  0  0  0  0
 19 25  1  0  0  0  0
 20 19  1  0  0  0  0
 21 22  1  0  0  0  0
 21 20  2  0  0  0  0
 22 17  2  0  0  0  0
 26  5  1  0  0  0  0
 26 30  2  0  0  0  0
 27 28  2  0  0  0  0
 27 26  1  0  0  0  0
 28 29  1  0  0  0  0
 29 30  1  0  0  0  0
 29 34  1  0  0  0  0
 31 28  1  0  0  0  0
 32 33  1  0  0  0  0
 33 40  1  0  0  0  0
 34 35  1  0  0  0  0
 34 33  2  0  0  0  0
 35 37  2  0  0  0  0
 36 35  1  0  0  0  0
 37 38  1  0  0  0  0
 37 39  1  0  0  0  0
 40 39  2  0  0  0  0
M  END
>  <minimizedAffinity>
-5.99165678

$$$$
