
 OpenBabel03272506253D

 32 34  0  0  0  0  0  0  0  0999 V2000
   38.8060   25.2350   35.2850 C   0  0  0  0  0  0  0  0  0  0  0  0
   38.5240   26.4090   35.9590 C   0  0  0  0  0  0  0  0  0  0  0  0
   37.7760   27.4610   35.4410 C   0  0  0  0  0  0  0  0  0  0  0  0
   37.2690   27.3230   34.1410 C   0  0  0  0  0  0  0  0  0  0  0  0
   37.5500   26.1530   33.4700 C   0  0  0  0  0  0  0  0  0  0  0  0
   38.2920   25.1210   33.9960 C   0  0  0  0  0  0  0  0  0  0  0  0
   38.8920   26.5720   36.9740 H   0  0  0  0  0  0  0  0  0  0  0  0
   37.5910   28.3540   36.0230 H   0  0  0  0  0  0  0  0  0  0  0  0
   36.6880   28.1290   33.7270 H   0  0  0  0  0  0  0  0  0  0  0  0
   37.1630   26.0430   32.4690 H   0  0  0  0  0  0  0  0  0  0  0  0
   40.9070   24.0420   35.5010 C   0  0  0  0  0  0  0  0  0  0  0  0
   39.5970   24.2590   35.9870 C   0  0  0  0  0  0  0  0  0  0  0  0
   39.1740   23.5270   37.0920 C   0  0  0  0  0  0  0  0  0  0  0  0
   40.0390   22.6340   37.6540 N   0  0  0  0  0  0  0  0  0  0  0  0
   41.3010   22.4380   37.1700 C   0  0  0  0  0  0  0  0  0  0  0  0
   41.7310   23.1480   36.0880 N   0  0  0  0  0  0  0  0  0  0  0  0
   41.2560   24.6000   34.6430 H   0  0  0  0  0  0  0  0  0  0  0  0
   41.9460   21.7300   37.6400 H   0  0  0  0  0  0  0  0  0  0  0  0
   37.8250   23.6530   37.7090 C   0  0  0  0  0  0  0  0  0  0  0  0
   37.7740   24.8230   38.4920 F   0  0  0  0  0  0  0  0  0  0  0  0
   36.7790   23.6640   36.8540 F   0  0  0  0  0  0  0  0  0  0  0  0
   37.6360   22.6340   38.6360 F   0  0  0  0  0  0  0  0  0  0  0  0
   38.6640   23.6130   33.1530 S   0  0  0  0  0  0  0  0  0  0  0  0
   36.6810   23.8160   30.7950 Cl  0  0  0  0  0  0  0  0  0  0  0  0
   36.4290   22.6400   32.0570 C   0  0  0  0  0  0  0  0  0  0  0  0
   37.2770   22.4870   33.1510 C   0  0  0  0  0  0  0  0  0  0  0  0
   37.0330   21.5410   34.1240 C   0  0  0  0  0  0  0  0  0  0  0  0
   37.7250   21.4830   34.9310 H   0  0  0  0  0  0  0  0  0  0  0  0
   35.9000   20.7470   33.9600 C   0  0  0  0  0  0  0  0  0  0  0  0
   35.6980   19.9990   34.7190 H   0  0  0  0  0  0  0  0  0  0  0  0
   35.0470   20.8880   32.8760 C   0  0  0  0  0  3  0  0  0  0  0  0
   35.3070   21.8400   31.9140 C   0  0  0  0  0  3  0  0  0  0  0  0
  1  2  1  0  0  0  0
  1 12  1  0  0  0  0
  2  7  1  0  0  0  0
  3  2  2  0  0  0  0
  3  8  1  0  0  0  0
  4  3  1  0  0  0  0
  5  6  1  0  0  0  0
  5  4  2  0  0  0  0
  6  1  2  0  0  0  0
  9  4  1  0  0  0  0
 10  5  1  0  0  0  0
 11 12  2  0  0  0  0
 11 16  1  0  0  0  0
 12 13  1  0  0  0  0
 13 14  2  0  0  0  0
 13 19  1  0  0  0  0
 15 18  1  0  0  0  0
 15 14  1  0  0  0  0
 16 15  2  0  0  0  0
 17 11  1  0  0  0  0
 19 20  1  0  0  0  0
 19 22  1  0  0  0  0
 21 19  1  0  0  0  0
 23  6  1  0  0  0  0
 24 25  1  0  0  0  0
 25 26  1  0  0  0  0
 26 23  1  0  0  0  0
 26 27  2  0  0  0  0
 27 28  1  0  0  0  0
 29 27  1  0  0  0  0
 29 30  1  0  0  0  0
 31 29  2  0  0  0  0
 32 25  2  0  0  0  0
 32 31  1  0  0  0  0
M  END
>  <minimizedAffinity>
-6.37620306

$$$$

 OpenBabel03272506253D

 32 34  0  0  0  0  0  0  0  0999 V2000
   37.7090   26.3780   32.5360 C   0  0  0  0  0  0  0  0  0  0  0  0
   36.8490   27.4130   32.2190 C   0  0  0  0  0  0  0  0  0  0  0  0
   36.2890   28.2880   33.1440 C   0  0  0  0  0  0  0  0  0  0  0  0
   36.6200   28.1110   34.4940 C   0  0  0  0  0  0  0  0  0  0  0  0
   37.4780   27.0800   34.8080 C   0  0  0  0  0  0  0  0  0  0  0  0
   38.0240   26.2220   33.8830 C   0  0  0  0  0  0  0  0  0  0  0  0
   36.5550   27.5990   31.1840 H   0  0  0  0  0  0  0  0  0  0  0  0
   35.6210   29.0800   32.8290 H   0  0  0  0  0  0  0  0  0  0  0  0
   36.1940   28.7820   35.2210 H   0  0  0  0  0  0  0  0  0  0  0  0
   37.7350   26.9400   35.8470 H   0  0  0  0  0  0  0  0  0  0  0  0
   39.3470   26.0410   30.7780 C   0  0  0  0  0  0  0  0  0  0  0  0
   38.1870   25.5760   31.4400 C   0  0  0  0  0  0  0  0  0  0  0  0
   37.6020   24.3960   30.9930 C   0  0  0  0  0  0  0  0  0  0  0  0
   38.1710   23.7430   29.9380 N   0  0  0  0  0  0  0  0  0  0  0  0
   39.2910   24.2080   29.3110 C   0  0  0  0  0  0  0  0  0  0  0  0
   39.8770   25.3630   29.7370 N   0  0  0  0  0  0  0  0  0  0  0  0
   39.8190   26.9560   31.1090 H   0  0  0  0  0  0  0  0  0  0  0  0
   39.7030   23.6660   28.4910 H   0  0  0  0  0  0  0  0  0  0  0  0
   36.3830   23.7910   31.5950 C   0  0  0  0  0  0  0  0  0  0  0  0
   36.7070   23.2200   32.8410 F   0  0  0  0  0  0  0  0  0  0  0  0
   35.3300   24.6190   31.7650 F   0  0  0  0  0  0  0  0  0  0  0  0
   35.9760   22.6990   30.8350 F   0  0  0  0  0  0  0  0  0  0  0  0
   39.1260   24.8930   34.2630 S   0  0  0  0  0  0  0  0  0  0  0  0
   41.2250   22.9010   35.3410 Cl  0  0  0  0  0  0  0  0  0  0  0  0
   39.9000   23.4150   36.3510 C   0  0  0  0  0  0  0  0  0  0  0  0
   38.9150   24.3090   35.9390 C   0  0  0  0  0  0  0  0  0  0  0  0
   37.8870   24.6840   36.7760 C   0  0  0  0  0  0  0  0  0  0  0  0
   37.1710   25.3710   36.3920 H   0  0  0  0  0  0  0  0  0  0  0  0
   37.8810   24.1270   38.0540 C   0  0  0  0  0  0  0  0  0  0  0  0
   37.0760   24.4150   38.7220 H   0  0  0  0  0  0  0  0  0  0  0  0
   38.8540   23.2360   38.4780 C   0  0  0  0  0  3  0  0  0  0  0  0
   39.8750   22.8720   37.6250 C   0  0  0  0  0  3  0  0  0  0  0  0
  1  6  1  0  0  0  0
  2  1  2  0  0  0  0
  2  3  1  0  0  0  0
  3  4  2  0  0  0  0
  4  5  1  0  0  0  0
  4  9  1  0  0  0  0
  5 10  1  0  0  0  0
  6 23  1  0  0  0  0
  6  5  2  0  0  0  0
  7  2  1  0  0  0  0
  8  3  1  0  0  0  0
 11 17  1  0  0  0  0
 11 12  1  0  0  0  0
 12  1  1  0  0  0  0
 13 12  2  0  0  0  0
 13 19  1  0  0  0  0
 14 13  1  0  0  0  0
 15 16  1  0  0  0  0
 15 14  2  0  0  0  0
 16 11  2  0  0  0  0
 18 15  1  0  0  0  0
 19 21  1  0  0  0  0
 19 20  1  0  0  0  0
 22 19  1  0  0  0  0
 23 26  1  0  0  0  0
 24 25  1  0  0  0  0
 25 32  1  0  0  0  0
 26 25  2  0  0  0  0
 26 27  1  0  0  0  0
 27 29  2  0  0  0  0
 28 27  1  0  0  0  0
 29 31  1  0  0  0  0
 29 30  1  0  0  0  0
 32 31  2  0  0  0  0
M  END
>  <minimizedAffinity>
-5.91005945

$$$$

 OpenBabel03272506253D

 32 34  0  0  0  0  0  0  0  0999 V2000
   38.6830   26.4830   32.7930 C   0  0  0  0  0  0  0  0  0  0  0  0
   39.6950   26.9870   31.9970 C   0  0  0  0  0  0  0  0  0  0  0  0
   40.9400   27.3950   32.4640 C   0  0  0  0  0  0  0  0  0  0  0  0
   41.1890   27.2880   33.8390 C   0  0  0  0  0  0  0  0  0  0  0  0
   40.1800   26.7840   34.6310 C   0  0  0  0  0  0  0  0  0  0  0  0
   38.9530   26.3850   34.1540 C   0  0  0  0  0  0  0  0  0  0  0  0
   39.5590   27.0940   30.9200 H   0  0  0  0  0  0  0  0  0  0  0  0
   41.6910   27.7810   31.7870 H   0  0  0  0  0  0  0  0  0  0  0  0
   42.1490   27.5990   34.2150 H   0  0  0  0  0  0  0  0  0  0  0  0
   40.3670   26.7010   35.6900 H   0  0  0  0  0  0  0  0  0  0  0  0
   37.3820   24.7840   31.6490 C   0  0  0  0  0  0  0  0  0  0  0  0
   37.4610   26.1130   32.1270 C   0  0  0  0  0  0  0  0  0  0  0  0
   36.3710   26.9520   31.9230 C   0  0  0  0  0  0  0  0  0  0  0  0
   35.2770   26.4580   31.2740 N   0  0  0  0  0  0  0  0  0  0  0  0
   35.2200   25.1720   30.8190 C   0  0  0  0  0  0  0  0  0  0  0  0
   36.2790   24.3360   31.0110 N   0  0  0  0  0  0  0  0  0  0  0  0
   38.2170   24.1140   31.7970 H   0  0  0  0  0  0  0  0  0  0  0  0
   34.3450   24.8260   30.3160 H   0  0  0  0  0  0  0  0  0  0  0  0
   36.3160   28.3700   32.3720 C   0  0  0  0  0  0  0  0  0  0  0  0
   35.0780   28.9330   32.0050 F   0  0  0  0  0  0  0  0  0  0  0  0
   36.5070   28.5840   33.6920 F   0  0  0  0  0  0  0  0  0  0  0  0
   37.2400   29.1250   31.6570 F   0  0  0  0  0  0  0  0  0  0  0  0
   37.6440   25.7370   35.1510 S   0  0  0  0  0  0  0  0  0  0  0  0
   39.3250   23.2850   34.3180 Cl  0  0  0  0  0  0  0  0  0  0  0  0
   39.0040   23.6000   36.0020 C   0  0  0  0  0  0  0  0  0  0  0  0
   38.2570   24.6830   36.4570 C   0  0  0  0  0  0  0  0  0  0  0  0
   38.0310   24.8880   37.8010 C   0  0  0  0  0  0  0  0  0  0  0  0
   37.4500   25.7370   38.0740 H   0  0  0  0  0  0  0  0  0  0  0  0
   38.5870   23.9610   38.6820 C   0  0  0  0  0  0  0  0  0  0  0  0
   38.4160   24.1130   39.7410 H   0  0  0  0  0  0  0  0  0  0  0  0
   39.3340   22.8790   38.2430 C   0  0  0  0  0  3  0  0  0  0  0  0
   39.5480   22.6900   36.8940 C   0  0  0  0  0  3  0  0  0  0  0  0
  1  6  1  0  0  0  0
  2  3  1  0  0  0  0
  2  1  2  0  0  0  0
  3  4  2  0  0  0  0
  4  9  1  0  0  0  0
  4  5  1  0  0  0  0
  5 10  1  0  0  0  0
  6  5  2  0  0  0  0
  6 23  1  0  0  0  0
  7  2  1  0  0  0  0
  8  3  1  0  0  0  0
 11 17  1  0  0  0  0
 11 12  1  0  0  0  0
 12  1  1  0  0  0  0
 13 12  2  0  0  0  0
 13 19  1  0  0  0  0
 14 13  1  0  0  0  0
 15 16  1  0  0  0  0
 15 14  2  0  0  0  0
 16 11  2  0  0  0  0
 18 15  1  0  0  0  0
 19 21  1  0  0  0  0
 20 19  1  0  0  0  0
 22 19  1  0  0  0  0
 23 26  1  0  0  0  0
 24 25  1  0  0  0  0
 25 26  2  0  0  0  0
 25 32  1  0  0  0  0
 26 27  1  0  0  0  0
 27 28  1  0  0  0  0
 27 29  2  0  0  0  0
 29 30  1  0  0  0  0
 31 29  1  0  0  0  0
 32 31  2  0  0  0  0
M  END
>  <minimizedAffinity>
-5.84307146

$$$$

 OpenBabel03272506253D

 32 34  0  0  0  0  0  0  0  0999 V2000
   39.4510   24.6890   34.7220 C   0  0  0  0  0  0  0  0  0  0  0  0
   40.7970   24.4220   34.8960 C   0  0  0  0  0  0  0  0  0  0  0  0
   41.8110   25.3680   34.8000 C   0  0  0  0  0  0  0  0  0  0  0  0
   41.4460   26.6890   34.5070 C   0  0  0  0  0  0  0  0  0  0  0  0
   40.1050   26.9550   34.3340 C   0  0  0  0  0  0  0  0  0  0  0  0
   39.1130   26.0080   34.4320 C   0  0  0  0  0  0  0  0  0  0  0  0
   41.1410   23.4110   35.1260 H   0  0  0  0  0  0  0  0  0  0  0  0
   42.8470   25.0920   34.9480 H   0  0  0  0  0  0  0  0  0  0  0  0
   42.2210   27.4330   34.4300 H   0  0  0  0  0  0  0  0  0  0  0  0
   39.8190   27.9700   34.1070 H   0  0  0  0  0  0  0  0  0  0  0  0
   38.2090   22.8880   33.6730 C   0  0  0  0  0  0  0  0  0  0  0  0
   38.5480   23.5770   34.8610 C   0  0  0  0  0  0  0  0  0  0  0  0
   37.9930   23.1380   36.0590 C   0  0  0  0  0  0  0  0  0  0  0  0
   37.1490   22.0660   36.0340 N   0  0  0  0  0  0  0  0  0  0  0  0
   36.8340   21.4130   34.8770 C   0  0  0  0  0  0  0  0  0  0  0  0
   37.3690   21.8310   33.6940 N   0  0  0  0  0  0  0  0  0  0  0  0
   38.6290   23.2120   32.7310 H   0  0  0  0  0  0  0  0  0  0  0  0
   36.1700   20.5780   34.9020 H   0  0  0  0  0  0  0  0  0  0  0  0
   38.2610   23.7660   37.3810 C   0  0  0  0  0  0  0  0  0  0  0  0
   39.5550   23.4160   37.8150 F   0  0  0  0  0  0  0  0  0  0  0  0
   38.1420   25.1110   37.4360 F   0  0  0  0  0  0  0  0  0  0  0  0
   37.4330   23.2020   38.3450 F   0  0  0  0  0  0  0  0  0  0  0  0
   37.3870   26.3260   34.2140 S   0  0  0  0  0  0  0  0  0  0  0  0
   35.9140   29.0170   34.5600 Cl  0  0  0  0  0  0  0  0  0  0  0  0
   36.3970   28.4760   32.9750 C   0  0  0  0  0  0  0  0  0  0  0  0
   37.0640   27.2780   32.7370 C   0  0  0  0  0  0  0  0  0  0  0  0
   37.4250   26.8940   31.4630 C   0  0  0  0  0  0  0  0  0  0  0  0
   37.9320   25.9650   31.3590 H   0  0  0  0  0  0  0  0  0  0  0  0
   37.0910   27.7640   30.4260 C   0  0  0  0  0  0  0  0  0  0  0  0
   37.3700   27.4730   29.4190 H   0  0  0  0  0  0  0  0  0  0  0  0
   36.4280   28.9610   30.6480 C   0  0  0  0  0  3  0  0  0  0  0  0
   36.0740   29.3260   31.9300 C   0  0  0  0  0  3  0  0  0  0  0  0
  1 12  1  0  0  0  0
  1  2  1  0  0  0  0
  2  7  1  0  0  0  0
  3  2  2  0  0  0  0
  3  8  1  0  0  0  0
  4  3  1  0  0  0  0
  5  6  1  0  0  0  0
  5  4  2  0  0  0  0
  6  1  2  0  0  0  0
  9  4  1  0  0  0  0
 10  5  1  0  0  0  0
 11 16  2  0  0  0  0
 11 12  1  0  0  0  0
 12 13  2  0  0  0  0
 13 19  1  0  0  0  0
 14 13  1  0  0  0  0
 15 18  1  0  0  0  0
 15 14  2  0  0  0  0
 16 15  1  0  0  0  0
 17 11  1  0  0  0  0
 19 21  1  0  0  0  0
 19 20  1  0  0  0  0
 19 22  1  0  0  0  0
 23  6  1  0  0  0  0
 25 24  1  0  0  0  0
 26 25  1  0  0  0  0
 26 23  1  0  0  0  0
 27 26  2  0  0  0  0
 28 27  1  0  0  0  0
 29 31  2  0  0  0  0
 29 27  1  0  0  0  0
 30 29  1  0  0  0  0
 31 32  1  0  0  0  0
 32 25  2  0  0  0  0
M  END
>  <minimizedAffinity>
-5.74762249

$$$$

 OpenBabel03272506253D

 32 34  0  0  0  0  0  0  0  0999 V2000
   37.2880   23.0160   31.9970 C   0  0  0  0  0  0  0  0  0  0  0  0
   36.2850   23.6270   31.2670 C   0  0  0  0  0  0  0  0  0  0  0  0
   35.9000   24.9560   31.4090 C   0  0  0  0  0  0  0  0  0  0  0  0
   36.5770   25.7340   32.3580 C   0  0  0  0  0  0  0  0  0  0  0  0
   37.5760   25.1240   33.0850 C   0  0  0  0  0  0  0  0  0  0  0  0
   37.9460   23.8080   32.9330 C   0  0  0  0  0  0  0  0  0  0  0  0
   35.7240   23.0710   30.5140 H   0  0  0  0  0  0  0  0  0  0  0  0
   35.1060   25.3740   30.8040 H   0  0  0  0  0  0  0  0  0  0  0  0
   36.2900   26.7650   32.4780 H   0  0  0  0  0  0  0  0  0  0  0  0
   38.0990   25.7190   33.8170 H   0  0  0  0  0  0  0  0  0  0  0  0
   38.4980   21.3600   30.7000 C   0  0  0  0  0  0  0  0  0  0  0  0
   37.5440   21.6290   31.7090 C   0  0  0  0  0  0  0  0  0  0  0  0
   36.9320   20.5510   32.3400 C   0  0  0  0  0  0  0  0  0  0  0  0
   37.2780   19.2870   31.9580 N   0  0  0  0  0  0  0  0  0  0  0  0
   38.2020   19.0480   30.9820 C   0  0  0  0  0  0  0  0  0  0  0  0
   38.8110   20.0940   30.3530 N   0  0  0  0  0  0  0  0  0  0  0  0
   38.9860   22.1830   30.1960 H   0  0  0  0  0  0  0  0  0  0  0  0
   38.4440   18.0440   30.7140 H   0  0  0  0  0  0  0  0  0  0  0  0
   35.9130   20.6850   33.4160 C   0  0  0  0  0  0  0  0  0  0  0  0
   35.4310   19.4090   33.7700 F   0  0  0  0  0  0  0  0  0  0  0  0
   36.3150   21.3160   34.5410 F   0  0  0  0  0  0  0  0  0  0  0  0
   34.7860   21.3290   32.9180 F   0  0  0  0  0  0  0  0  0  0  0  0
   39.2240   23.0050   33.8540 S   0  0  0  0  0  0  0  0  0  0  0  0
   41.4640   21.9380   35.6920 Cl  0  0  0  0  0  0  0  0  0  0  0  0
   40.0410   22.6760   36.3770 C   0  0  0  0  0  0  0  0  0  0  0  0
   38.9900   23.1810   35.6170 C   0  0  0  0  0  0  0  0  0  0  0  0
   37.8850   23.7560   36.2070 C   0  0  0  0  0  0  0  0  0  0  0  0
   37.1210   24.1190   35.5620 H   0  0  0  0  0  0  0  0  0  0  0  0
   37.8720   23.8090   37.6000 C   0  0  0  0  0  0  0  0  0  0  0  0
   37.0080   24.2590   38.0750 H   0  0  0  0  0  0  0  0  0  0  0  0
   38.9110   23.3110   38.3690 C   0  0  0  0  0  3  0  0  0  0  0  0
   40.0080   22.7390   37.7610 C   0  0  0  0  0  3  0  0  0  0  0  0
  1  6  1  0  0  0  0
  2  3  1  0  0  0  0
  2  1  2  0  0  0  0
  3  4  2  0  0  0  0
  4  9  1  0  0  0  0
  4  5  1  0  0  0  0
  5 10  1  0  0  0  0
  6  5  2  0  0  0  0
  6 23  1  0  0  0  0
  7  2  1  0  0  0  0
  8  3  1  0  0  0  0
 11 12  1  0  0  0  0
 12  1  1  0  0  0  0
 12 13  2  0  0  0  0
 13 19  1  0  0  0  0
 14 13  1  0  0  0  0
 15 14  2  0  0  0  0
 16 11  2  0  0  0  0
 16 15  1  0  0  0  0
 17 11  1  0  0  0  0
 18 15  1  0  0  0  0
 19 20  1  0  0  0  0
 19 21  1  0  0  0  0
 22 19  1  0  0  0  0
 23 26  1  0  0  0  0
 24 25  1  0  0  0  0
 25 32  1  0  0  0  0
 26 27  1  0  0  0  0
 26 25  2  0  0  0  0
 27 29  2  0  0  0  0
 28 27  1  0  0  0  0
 29 30  1  0  0  0  0
 29 31  1  0  0  0  0
 32 31  2  0  0  0  0
M  END
>  <minimizedAffinity>
-5.74295855

$$$$

 OpenBabel03272506253D

 32 34  0  0  0  0  0  0  0  0999 V2000
   39.2600   24.7050   34.9150 C   0  0  0  0  0  0  0  0  0  0  0  0
   40.6170   24.4470   34.8700 C   0  0  0  0  0  0  0  0  0  0  0  0
   41.6030   25.4180   34.7220 C   0  0  0  0  0  0  0  0  0  0  0  0
   41.1930   26.7530   34.6120 C   0  0  0  0  0  0  0  0  0  0  0  0
   39.8400   27.0090   34.6590 C   0  0  0  0  0  0  0  0  0  0  0  0
   38.8770   26.0380   34.8050 C   0  0  0  0  0  0  0  0  0  0  0  0
   40.9960   23.4260   34.9500 H   0  0  0  0  0  0  0  0  0  0  0  0
   42.6510   25.1480   34.6940 H   0  0  0  0  0  0  0  0  0  0  0  0
   41.9460   27.5150   34.4980 H   0  0  0  0  0  0  0  0  0  0  0  0
   39.5200   28.0360   34.5740 H   0  0  0  0  0  0  0  0  0  0  0  0
   37.9760   22.9220   33.8860 C   0  0  0  0  0  0  0  0  0  0  0  0
   38.3910   23.5680   35.0740 C   0  0  0  0  0  0  0  0  0  0  0  0
   37.9370   23.0670   36.2900 C   0  0  0  0  0  0  0  0  0  0  0  0
   37.1150   21.9780   36.2820 N   0  0  0  0  0  0  0  0  0  0  0  0
   36.7250   21.3680   35.1240 C   0  0  0  0  0  0  0  0  0  0  0  0
   37.1610   21.8460   33.9240 N   0  0  0  0  0  0  0  0  0  0  0  0
   38.3160   23.2950   32.9300 H   0  0  0  0  0  0  0  0  0  0  0  0
   36.0810   20.5180   35.1640 H   0  0  0  0  0  0  0  0  0  0  0  0
   38.2940   23.6450   37.6140 C   0  0  0  0  0  0  0  0  0  0  0  0
   39.6420   23.3590   37.9050 F   0  0  0  0  0  0  0  0  0  0  0  0
   38.0990   24.9740   37.7540 F   0  0  0  0  0  0  0  0  0  0  0  0
   37.5980   22.9810   38.6190 F   0  0  0  0  0  0  0  0  0  0  0  0
   37.1360   26.3440   34.8670 S   0  0  0  0  0  0  0  0  0  0  0  0
   37.4640   25.9470   31.8220 Cl  0  0  0  0  0  0  0  0  0  0  0  0
   36.8350   27.4460   32.4510 C   0  0  0  0  0  0  0  0  0  0  0  0
   36.6580   27.7010   33.8080 C   0  0  0  0  0  0  0  0  0  0  0  0
   36.1560   28.9050   34.2550 C   0  0  0  0  0  0  0  0  0  0  0  0
   36.0480   29.0270   35.3060 H   0  0  0  0  0  0  0  0  0  0  0  0
   35.8340   29.8520   33.2840 C   0  0  0  0  0  0  0  0  0  0  0  0
   35.4390   30.8030   33.6250 H   0  0  0  0  0  0  0  0  0  0  0  0
   36.0050   29.6120   31.9300 C   0  0  0  0  0  3  0  0  0  0  0  0
   36.5090   28.4020   31.5020 C   0  0  0  0  0  3  0  0  0  0  0  0
  1 12  1  0  0  0  0
  2  1  1  0  0  0  0
  2  7  1  0  0  0  0
  3  2  2  0  0  0  0
  4  5  2  0  0  0  0
  4  3  1  0  0  0  0
  5  6  1  0  0  0  0
  6 23  1  0  0  0  0
  6  1  2  0  0  0  0
  8  3  1  0  0  0  0
  9  4  1  0  0  0  0
 10  5  1  0  0  0  0
 11 16  2  0  0  0  0
 11 12  1  0  0  0  0
 12 13  2  0  0  0  0
 13 19  1  0  0  0  0
 14 13  1  0  0  0  0
 15 18  1  0  0  0  0
 15 14  2  0  0  0  0
 16 15  1  0  0  0  0
 17 11  1  0  0  0  0
 19 21  1  0  0  0  0
 19 20  1  0  0  0  0
 19 22  1  0  0  0  0
 24 25  1  0  0  0  0
 25 26  1  0  0  0  0
 26 27  2  0  0  0  0
 26 23  1  0  0  0  0
 27 28  1  0  0  0  0
 29 30  1  0  0  0  0
 29 27  1  0  0  0  0
 31 29  2  0  0  0  0
 32 31  1  0  0  0  0
 32 25  2  0  0  0  0
M  END
>  <minimizedAffinity>
-5.70439625

$$$$

 OpenBabel03272506253D

 32 34  0  0  0  0  0  0  0  0999 V2000
   38.8390   25.2140   35.1580 C   0  0  0  0  0  0  0  0  0  0  0  0
   38.5570   26.3500   35.8930 C   0  0  0  0  0  0  0  0  0  0  0  0
   37.7540   27.3980   35.4550 C   0  0  0  0  0  0  0  0  0  0  0  0
   37.1880   27.2960   34.1770 C   0  0  0  0  0  0  0  0  0  0  0  0
   37.4690   26.1620   33.4460 C   0  0  0  0  0  0  0  0  0  0  0  0
   38.2650   25.1340   33.8930 C   0  0  0  0  0  0  0  0  0  0  0  0
   38.9710   26.4850   36.8940 H   0  0  0  0  0  0  0  0  0  0  0  0
   37.5730   28.2620   36.0810 H   0  0  0  0  0  0  0  0  0  0  0  0
   36.5630   28.0990   33.8240 H   0  0  0  0  0  0  0  0  0  0  0  0
   37.0350   26.0800   32.4610 H   0  0  0  0  0  0  0  0  0  0  0  0
   39.0590   23.2900   36.6210 C   0  0  0  0  0  0  0  0  0  0  0  0
   39.6930   24.2360   35.7810 C   0  0  0  0  0  0  0  0  0  0  0  0
   41.0720   24.1540   35.6190 C   0  0  0  0  0  0  0  0  0  0  0  0
   41.7500   23.1690   36.2760 N   0  0  0  0  0  0  0  0  0  0  0  0
   41.1200   22.2650   37.0840 C   0  0  0  0  0  0  0  0  0  0  0  0
   39.7690   22.3310   37.2520 N   0  0  0  0  0  0  0  0  0  0  0  0
   37.9880   23.3350   36.7610 H   0  0  0  0  0  0  0  0  0  0  0  0
   41.6890   21.5100   37.5780 H   0  0  0  0  0  0  0  0  0  0  0  0
   41.8670   25.0800   34.7670 C   0  0  0  0  0  0  0  0  0  0  0  0
   41.6900   24.7410   33.4110 F   0  0  0  0  0  0  0  0  0  0  0  0
   41.6060   26.3970   34.9160 F   0  0  0  0  0  0  0  0  0  0  0  0
   43.2240   24.8650   34.9800 F   0  0  0  0  0  0  0  0  0  0  0  0
   38.6390   23.6720   32.9720 S   0  0  0  0  0  0  0  0  0  0  0  0
   36.5890   23.9800   30.6840 Cl  0  0  0  0  0  0  0  0  0  0  0  0
   36.3860   22.7320   31.8840 C   0  0  0  0  0  0  0  0  0  0  0  0
   37.2660   22.5290   32.9440 C   0  0  0  0  0  0  0  0  0  0  0  0
   37.0610   21.5280   33.8690 C   0  0  0  0  0  0  0  0  0  0  0  0
   37.7760   21.4330   34.6510 H   0  0  0  0  0  0  0  0  0  0  0  0
   35.9330   20.7280   33.6910 C   0  0  0  0  0  0  0  0  0  0  0  0
   35.7630   19.9360   34.4120 H   0  0  0  0  0  0  0  0  0  0  0  0
   35.0500   20.9180   32.6400 C   0  0  0  0  0  3  0  0  0  0  0  0
   35.2710   21.9260   31.7260 C   0  0  0  0  0  3  0  0  0  0  0  0
  1 12  1  0  0  0  0
  1  2  1  0  0  0  0
  2  7  1  0  0  0  0
  3  2  2  0  0  0  0
  3  8  1  0  0  0  0
  4  3  1  0  0  0  0
  5  6  1  0  0  0  0
  5  4  2  0  0  0  0
  6  1  2  0  0  0  0
  9  4  1  0  0  0  0
 10  5  1  0  0  0  0
 11 17  1  0  0  0  0
 11 16  1  0  0  0  0
 12 11  2  0  0  0  0
 13 12  1  0  0  0  0
 13 14  2  0  0  0  0
 14 15  1  0  0  0  0
 15 16  2  0  0  0  0
 15 18  1  0  0  0  0
 19 21  1  0  0  0  0
 19 22  1  0  0  0  0
 19 13  1  0  0  0  0
 20 19  1  0  0  0  0
 23  6  1  0  0  0  0
 24 25  1  0  0  0  0
 25 26  1  0  0  0  0
 26 23  1  0  0  0  0
 26 27  2  0  0  0  0
 27 28  1  0  0  0  0
 29 27  1  0  0  0  0
 29 30  1  0  0  0  0
 31 29  2  0  0  0  0
 32 25  2  0  0  0  0
 32 31  1  0  0  0  0
M  END
>  <minimizedAffinity>
-5.65233564

$$$$

 OpenBabel03272506253D

 32 34  0  0  0  0  0  0  0  0999 V2000
   38.1980   22.6570   34.1640 C   0  0  0  0  0  0  0  0  0  0  0  0
   37.5200   21.4900   33.8630 C   0  0  0  0  0  0  0  0  0  0  0  0
   36.5610   21.3670   32.8630 C   0  0  0  0  0  0  0  0  0  0  0  0
   36.2590   22.5060   32.1040 C   0  0  0  0  0  0  0  0  0  0  0  0
   36.9350   23.6680   32.4050 C   0  0  0  0  0  0  0  0  0  0  0  0
   37.8810   23.7740   33.3970 C   0  0  0  0  0  0  0  0  0  0  0  0
   37.7140   20.5720   34.4210 H   0  0  0  0  0  0  0  0  0  0  0  0
   36.0670   20.4210   32.6780 H   0  0  0  0  0  0  0  0  0  0  0  0
   35.5180   22.4240   31.3260 H   0  0  0  0  0  0  0  0  0  0  0  0
   36.7040   24.5470   31.8240 H   0  0  0  0  0  0  0  0  0  0  0  0
   40.4690   22.1950   34.8830 C   0  0  0  0  0  0  0  0  0  0  0  0
   39.1570   22.5900   35.2360 C   0  0  0  0  0  0  0  0  0  0  0  0
   38.8930   22.8810   36.5700 C   0  0  0  0  0  0  0  0  0  0  0  0
   39.9070   22.7720   37.4760 N   0  0  0  0  0  0  0  0  0  0  0  0
   41.1680   22.3890   37.1160 C   0  0  0  0  0  0  0  0  0  0  0  0
   41.4430   22.1010   35.8130 N   0  0  0  0  0  0  0  0  0  0  0  0
   40.6960   21.9650   33.8510 H   0  0  0  0  0  0  0  0  0  0  0  0
   41.9320   22.3170   37.8570 H   0  0  0  0  0  0  0  0  0  0  0  0
   37.5620   23.3080   37.0820 C   0  0  0  0  0  0  0  0  0  0  0  0
   37.5960   23.3700   38.4890 F   0  0  0  0  0  0  0  0  0  0  0  0
   37.0950   24.4860   36.6140 F   0  0  0  0  0  0  0  0  0  0  0  0
   36.6200   22.3170   36.8250 F   0  0  0  0  0  0  0  0  0  0  0  0
   38.7600   25.2550   33.8000 S   0  0  0  0  0  0  0  0  0  0  0  0
   38.6170   26.6040   31.0270 Cl  0  0  0  0  0  0  0  0  0  0  0  0
   37.7180   27.2570   32.3690 C   0  0  0  0  0  0  0  0  0  0  0  0
   37.7290   26.7070   33.6480 C   0  0  0  0  0  0  0  0  0  0  0  0
   37.0000   27.2610   34.6780 C   0  0  0  0  0  0  0  0  0  0  0  0
   37.0580   26.7860   35.6280 H   0  0  0  0  0  0  0  0  0  0  0  0
   36.2500   28.3970   34.3770 C   0  0  0  0  0  0  0  0  0  0  0  0
   35.6710   28.8420   35.1790 H   0  0  0  0  0  0  0  0  0  0  0  0
   36.2280   28.9550   33.1090 C   0  0  0  0  0  3  0  0  0  0  0  0
   36.9650   28.3870   32.0920 C   0  0  0  0  0  3  0  0  0  0  0  0
  1 12  1  0  0  0  0
  2  1  1  0  0  0  0
  2  7  1  0  0  0  0
  3  2  2  0  0  0  0
  4  5  2  0  0  0  0
  4  3  1  0  0  0  0
  5  6  1  0  0  0  0
  6 23  1  0  0  0  0
  6  1  2  0  0  0  0
  8  3  1  0  0  0  0
  9  4  1  0  0  0  0
 10  5  1  0  0  0  0
 11 12  2  0  0  0  0
 11 16  1  0  0  0  0
 12 13  1  0  0  0  0
 13 19  1  0  0  0  0
 13 14  2  0  0  0  0
 15 14  1  0  0  0  0
 15 18  1  0  0  0  0
 16 15  2  0  0  0  0
 17 11  1  0  0  0  0
 19 20  1  0  0  0  0
 21 19  1  0  0  0  0
 22 19  1  0  0  0  0
 24 25  1  0  0  0  0
 25 26  1  0  0  0  0
 26 23  1  0  0  0  0
 26 27  2  0  0  0  0
 27 28  1  0  0  0  0
 29 27  1  0  0  0  0
 29 30  1  0  0  0  0
 31 29  2  0  0  0  0
 32 25  2  0  0  0  0
 32 31  1  0  0  0  0
M  END
>  <minimizedAffinity>
-5.64316273

$$$$

 OpenBabel03272506253D

 32 34  0  0  0  0  0  0  0  0999 V2000
   38.7350   24.7390   35.6360 C   0  0  0  0  0  0  0  0  0  0  0  0
   38.5120   25.2350   36.9070 C   0  0  0  0  0  0  0  0  0  0  0  0
   37.8870   24.5320   37.9330 C   0  0  0  0  0  0  0  0  0  0  0  0
   37.4520   23.2280   37.6600 C   0  0  0  0  0  0  0  0  0  0  0  0
   37.6750   22.7350   36.3930 C   0  0  0  0  0  0  0  0  0  0  0  0
   38.2950   23.4420   35.3890 C   0  0  0  0  0  0  0  0  0  0  0  0
   38.8290   26.2440   37.1780 H   0  0  0  0  0  0  0  0  0  0  0  0
   37.7440   24.9800   38.9080 H   0  0  0  0  0  0  0  0  0  0  0  0
   36.9670   22.6730   38.4450 H   0  0  0  0  0  0  0  0  0  0  0  0
   37.3410   21.7320   36.1790 H   0  0  0  0  0  0  0  0  0  0  0  0
   40.8130   25.6000   34.7260 C   0  0  0  0  0  0  0  0  0  0  0  0
   39.3990   25.6160   34.7070 C   0  0  0  0  0  0  0  0  0  0  0  0
   38.7620   26.4640   33.8070 C   0  0  0  0  0  0  0  0  0  0  0  0
   39.5270   27.2400   32.9860 N   0  0  0  0  0  0  0  0  0  0  0  0
   40.8920   27.2100   33.0190 C   0  0  0  0  0  0  0  0  0  0  0  0
   41.5320   26.3850   33.8950 N   0  0  0  0  0  0  0  0  0  0  0  0
   41.3290   24.9480   35.4180 H   0  0  0  0  0  0  0  0  0  0  0  0
   41.4520   27.8330   32.3590 H   0  0  0  0  0  0  0  0  0  0  0  0
   37.2840   26.5830   33.6780 C   0  0  0  0  0  0  0  0  0  0  0  0
   36.9710   27.6590   32.8250 F   0  0  0  0  0  0  0  0  0  0  0  0
   36.6350   25.4840   33.2360 F   0  0  0  0  0  0  0  0  0  0  0  0
   36.7360   26.9670   34.8980 F   0  0  0  0  0  0  0  0  0  0  0  0
   38.5910   22.8300   33.7570 S   0  0  0  0  0  0  0  0  0  0  0  0
   37.6920   23.6380   30.9160 Cl  0  0  0  0  0  0  0  0  0  0  0  0
   36.8170   22.4180   31.8010 C   0  0  0  0  0  0  0  0  0  0  0  0
   37.1590   21.9990   33.0840 C   0  0  0  0  0  0  0  0  0  0  0  0
   36.4340   21.0300   33.7430 C   0  0  0  0  0  0  0  0  0  0  0  0
   36.7550   20.7610   34.7210 H   0  0  0  0  0  0  0  0  0  0  0  0
   35.3430   20.4890   33.0640 C   0  0  0  0  0  0  0  0  0  0  0  0
   34.7660   19.7250   33.5720 H   0  0  0  0  0  0  0  0  0  0  0  0
   34.9910   20.8950   31.7860 C   0  0  0  0  0  3  0  0  0  0  0  0
   35.7290   21.8670   31.1440 C   0  0  0  0  0  3  0  0  0  0  0  0
  1  2  1  0  0  0  0
  2  7  1  0  0  0  0
  2  3  2  0  0  0  0
  3  8  1  0  0  0  0
  4  3  1  0  0  0  0
  4  9  1  0  0  0  0
  5  4  2  0  0  0  0
  6  1  2  0  0  0  0
  6  5  1  0  0  0  0
 10  5  1  0  0  0  0
 11 17  1  0  0  0  0
 12 11  1  0  0  0  0
 12  1  1  0  0  0  0
 13 12  2  0  0  0  0
 14 15  2  0  0  0  0
 14 13  1  0  0  0  0
 15 16  1  0  0  0  0
 16 11  2  0  0  0  0
 18 15  1  0  0  0  0
 19 13  1  0  0  0  0
 19 22  1  0  0  0  0
 20 19  1  0  0  0  0
 21 19  1  0  0  0  0
 23  6  1  0  0  0  0
 24 25  1  0  0  0  0
 25 26  1  0  0  0  0
 26 27  2  0  0  0  0
 26 23  1  0  0  0  0
 27 28  1  0  0  0  0
 29 30  1  0  0  0  0
 29 27  1  0  0  0  0
 31 29  2  0  0  0  0
 32 31  1  0  0  0  0
 32 25  2  0  0  0  0
M  END
>  <minimizedAffinity>
-5.60196257

$$$$
