
 OpenBabel03272504413D

 45 47  0  0  0  0  0  0  0  0999 V2000
   34.5510   29.3230   48.8770 C   0  0  0  0  0  0  0  0  0  0  0  0
   33.9220   30.1680   49.2900 H   0  0  0  0  0  0  0  0  0  0  0  0
   35.4330   29.3130   49.5560 H   0  0  0  0  0  0  0  0  0  0  0  0
   37.3140   30.4160   48.6980 Cl  0  0  0  0  0  0  0  0  0  0  0  0
   36.2320   30.2390   47.3170 C   0  0  0  0  0  0  0  0  0  0  0  0
   36.6580   30.6180   46.0920 C   0  0  0  0  0  0  0  0  0  0  0  0
   35.8220   30.4850   45.0050 C   0  0  0  0  0  0  0  0  0  0  0  0
   34.5470   29.9610   45.1950 C   0  0  0  0  0  0  0  0  0  0  0  0
   34.1750   29.5900   46.5020 C   0  0  0  0  0  0  0  0  0  0  0  0
   34.9830   29.7140   47.5690 C   0  0  0  0  0  0  0  0  0  0  0  0
   36.1900   30.7990   44.0200 H   0  0  0  0  0  0  0  0  0  0  0  0
   33.9820   29.9010   44.2890 H   0  0  0  0  0  0  0  0  0  0  0  0
   33.2090   29.2340   46.4300 H   0  0  0  0  0  0  0  0  0  0  0  0
   39.6460   32.7670   46.3420 C   0  0  0  0  0  0  0  0  0  0  0  0
   40.5330   32.0860   45.4270 C   0  0  0  0  0  0  0  0  0  0  0  0
   40.0610   30.9420   44.7830 C   0  0  0  0  0  0  0  0  0  0  0  0
   38.7970   30.5100   45.0360 N   0  0  0  0  0  0  0  0  0  0  0  0
   37.9900   31.1680   45.8970 C   0  0  0  0  0  0  0  0  0  0  0  0
   38.4170   32.2720   46.5310 N   0  0  0  0  0  0  0  0  0  0  0  0
   40.0140   33.6460   46.8330 H   0  0  0  0  0  0  0  0  0  0  0  0
   41.5200   32.4460   45.2470 H   0  0  0  0  0  0  0  0  0  0  0  0
   40.9530   30.3080   43.9020 N   0  0  0  0  0  0  0  0  0  0  0  0
   40.8390   30.7300   42.9760 H   0  0  0  0  0  0  0  0  0  0  0  0
   41.6480   29.5280   44.0900 H   0  0  0  0  0  0  0  0  0  0  0  0
   33.8380   28.0530   49.0660 C   0  0  0  0  0  0  0  0  0  0  0  0
   34.1790   27.4590   49.9440 H   0  0  0  0  0  0  0  0  0  0  0  0
   34.0670   27.4030   48.1850 H   0  0  0  0  0  0  0  0  0  0  0  0
   32.4860   28.2580   49.1780 O   0  0  0  0  0  0  0  0  0  0  0  0
   32.5780   26.0940   47.7000 O   0  0  0  0  0  0  0  0  0  0  0  0
   31.6500   27.1350   48.2790 P   0  0  2  0  0  0  0  0  0  0  0  0
   30.8910   28.0060   46.9870 O   0  0  0  0  0  0  0  0  0  0  0  0
   28.6240   29.8080   46.5780 Cl  0  0  0  0  0  0  0  0  0  0  0  0
   28.8230   28.1580   45.9990 C   0  0  0  0  0  0  0  0  0  0  0  0
   29.9340   27.3530   46.2320 C   0  0  0  0  0  0  0  0  0  0  0  0
   29.9610   26.0730   45.7180 C   0  0  0  0  0  0  0  0  0  0  0  0
   30.8640   25.5260   45.9520 H   0  0  0  0  0  0  0  0  0  0  0  0
   28.8950   25.5990   44.9830 C   0  0  0  0  0  0  0  0  0  0  0  0
   28.9650   24.5950   44.6040 H   0  0  0  0  0  0  0  0  0  0  0  0
   27.7820   26.4060   44.7500 C   0  0  0  0  0  3  0  0  0  0  0  0
   27.7340   27.6930   45.2550 C   0  0  0  0  0  3  0  0  0  0  0  0
   30.4350   26.3920   49.1160 O   0  0  0  0  0  0  0  0  0  0  0  0
   29.7390   27.3120   49.8830 C   0  0  0  0  0  0  0  0  0  0  0  0
   29.2600   26.7510   51.0650 F   0  0  0  0  0  0  0  0  0  0  0  0
   30.5440   28.3610   50.2660 F   0  0  0  0  0  0  0  0  0  0  0  0
   28.6500   27.7950   49.1660 F   0  0  0  0  0  0  0  0  0  0  0  0
  1 25  1  0  0  0  0
  1  2  1  0  0  0  0
  1  3  1  0  0  0  0
  5 10  1  0  0  0  0
  5  4  1  0  0  0  0
  6  5  2  0  0  0  0
  7  8  2  0  0  0  0
  7  6  1  0  0  0  0
  8  9  1  0  0  0  0
  9 10  2  0  0  0  0
 10  1  1  0  0  0  0
 11  7  1  0  0  0  0
 12  8  1  0  0  0  0
 13  9  1  0  0  0  0
 14 19  1  0  0  0  0
 14 20  1  0  0  0  0
 15 14  2  0  0  0  0
 16 17  2  0  0  0  0
 16 15  1  0  0  0  0
 17 18  1  0  0  0  0
 18  6  1  0  0  0  0
 18 19  2  0  0  0  0
 21 15  1  0  0  0  0
 22 24  1  0  0  0  0
 22 16  1  0  0  0  0
 23 22  1  0  0  0  0
 25 28  1  0  0  0  0
 25 26  1  0  0  0  0
 27 25  1  0  0  0  0
 30 29  2  6  0  0  0
 30 41  1  0  0  0  0
 30 28  1  0  0  0  0
 31 30  1  0  0  0  0
 33 34  1  0  0  0  0
 33 32  1  0  0  0  0
 34 31  1  0  0  0  0
 35 36  1  0  0  0  0
 35 34  2  0  0  0  0
 37 35  1  0  0  0  0
 38 37  1  0  0  0  0
 39 37  2  0  0  0  0
 39 40  1  0  0  0  0
 40 33  2  0  0  0  0
 41 42  1  0  0  0  0
 42 44  1  0  0  0  0
 42 43  1  0  0  0  0
 45 42  1  0  0  0  0
M  END
>  <minimizedAffinity>
-5.96932793

>  <minimizedRMSD>
0.783260524

$$$$
