
 OpenBabel03272503293D

 34 36  0  0  1  0  0  0  0  0999 V2000
   33.7020   29.2560   47.4790 C   0  0  0  0  0  0  0  0  0  0  0  0
   33.9360   30.2370   46.5200 C   0  0  0  0  0  0  0  0  0  0  0  0
   32.9030   30.5320   45.6350 C   0  0  0  0  0  0  0  0  0  0  0  0
   31.7340   29.8290   45.7820 N   0  0  0  0  0  0  0  0  0  0  0  0
   31.5430   28.9010   46.7070 C   0  0  0  0  0  0  0  0  0  0  0  0
   32.5290   28.6050   47.5670 N   0  0  0  0  0  0  0  0  0  0  0  0
   34.8760   30.7490   46.4610 H   0  0  0  0  0  0  0  0  0  0  0  0
   32.9940   31.2640   44.8720 H   0  0  0  0  0  0  0  0  0  0  0  0
   34.7720   28.9530   48.3960 N   0  0  0  0  0  0  0  0  0  0  0  0
   36.0950   29.4970   48.3750 C   0  0  0  0  0  0  0  0  0  0  0  0
   36.4920   29.4450   49.8550 C   0  0  2  0  0  0  0  0  0  0  0  0
   35.2710   28.9460   50.5940 C   0  0  0  0  0  0  0  0  0  0  0  0
   34.7060   28.0360   49.5130 C   0  0  0  0  0  0  0  0  0  0  0  0
   36.8080   28.9620   47.7420 H   0  0  0  0  0  0  0  0  0  0  0  0
   36.1130   30.5760   48.0970 H   0  0  0  0  0  0  0  0  0  0  0  0
   37.2820   28.6550   50.0170 H   0  0  0  0  0  0  0  0  0  0  0  0
   34.6030   29.8300   50.7470 H   0  0  0  0  0  0  0  0  0  0  0  0
   35.5150   28.4060   51.5110 H   0  0  0  0  0  0  0  0  0  0  0  0
   33.6600   27.7970   49.8060 H   0  0  0  0  0  0  0  0  0  0  0  0
   35.3550   27.1660   49.4340 H   0  0  0  0  0  0  0  0  0  0  0  0
   36.9960   30.7550   50.3690 C   0  0  0  0  0  0  0  0  0  0  0  0
   36.0640   31.7070   49.9890 F   0  0  0  0  0  0  0  0  0  0  0  0
   38.1530   31.0510   49.6760 F   0  0  0  0  0  0  0  0  0  0  0  0
   37.2480   30.7710   51.7050 F   0  0  0  0  0  0  0  0  0  0  0  0
   29.9930   28.0300   46.8260 S   0  0  0  0  0  0  0  0  0  0  0  0
   29.8410   27.9960   50.0250 Cl  0  0  0  0  0  0  0  0  0  0  0  0
   28.6780   28.9230   49.1270 C   0  0  0  0  0  0  0  0  0  0  0  0
   28.7740   28.9140   47.7480 C   0  0  0  0  0  0  0  0  0  0  0  0
   27.8520   29.6500   47.0200 C   0  0  0  0  0  0  0  0  0  0  0  0
   27.8690   29.6880   45.9200 H   0  0  0  0  0  0  0  0  0  0  0  0
   26.8680   30.3680   47.6930 C   0  0  0  0  0  0  0  0  0  0  0  0
   26.1570   30.9360   47.0930 H   0  0  0  0  0  0  0  0  0  0  0  0
   26.7560   30.3870   49.0770 C   0  0  0  0  0  3  0  0  0  0  0  0
   27.6880   29.6440   49.7960 C   0  0  0  0  0  3  0  0  0  0  0  0
  1  6  1  0  0  0  0
  1  9  1  0  0  0  0
  2  1  2  0  0  0  0
  3  4  2  0  0  0  0
  3  2  1  0  0  0  0
  4  5  1  0  0  0  0
  5 25  1  0  0  0  0
  5  6  2  0  0  0  0
  7  2  1  0  0  0  0
  8  3  1  0  0  0  0
  9 13  1  0  0  0  0
 10  9  1  0  0  0  0
 10 11  1  0  0  0  0
 11 16  1  1  0  0  0
 11 21  1  0  0  0  0
 11 12  1  0  0  0  0
 12 17  1  0  0  0  0
 12 18  1  0  0  0  0
 13 19  1  0  0  0  0
 13 12  1  0  0  0  0
 14 10  1  0  0  0  0
 15 10  1  0  0  0  0
 20 13  1  0  0  0  0
 21 24  1  0  0  0  0
 22 21  1  0  0  0  0
 23 21  1  0  0  0  0
 25 28  1  0  0  0  0
 27 34  1  0  0  0  0
 27 26  1  0  0  0  0
 28 27  2  0  0  0  0
 29 31  2  0  0  0  0
 29 28  1  0  0  0  0
 30 29  1  0  0  0  0
 31 33  1  0  0  0  0
 32 31  1  0  0  0  0
 33 34  2  0  0  0  0
M  END
>  <minimizedAffinity>
-6.37331057

>  <minimizedRMSD>
2.33610201

$$$$
