
 OpenBabel03272510123D

 35 38  0  0  0  0  0  0  0  0999 V2000
   36.3350   23.6510   31.8520 C   0  0  0  0  0  0  0  0  0  0  0  0
   35.6100   24.6090   31.2350 C   0  0  0  0  0  0  0  0  0  0  0  0
   35.8130   25.9660   31.3510 C   0  0  0  0  0  0  0  0  0  0  0  0
   36.8260   26.4180   32.1510 C   0  0  0  0  0  0  0  0  0  0  0  0
   37.5780   25.4450   32.7920 C   0  0  0  0  0  0  0  0  0  0  0  0
   37.3280   24.1290   32.6350 N   0  0  0  0  0  0  0  0  0  0  0  0
   34.7810   24.3480   30.5750 H   0  0  0  0  0  0  0  0  0  0  0  0
   35.2240   26.7260   30.8500 H   0  0  0  0  0  0  0  0  0  0  0  0
   38.4010   25.7200   33.4450 H   0  0  0  0  0  0  0  0  0  0  0  0
   35.0250   21.5510   32.2970 C   0  0  0  0  0  0  0  0  0  0  0  0
   36.0990   22.2450   31.7110 C   0  0  0  0  0  0  0  0  0  0  0  0
   36.9690   21.4800   30.9480 C   0  0  0  0  0  0  0  0  0  0  0  0
   36.7490   20.1390   30.8100 N   0  0  0  0  0  0  0  0  0  0  0  0
   35.6990   19.5410   31.4010 C   0  0  0  0  0  0  0  0  0  0  0  0
   34.8210   20.2400   32.1550 N   0  0  0  0  0  0  0  0  0  0  0  0
   34.3360   22.1140   32.8920 H   0  0  0  0  0  0  0  0  0  0  0  0
   37.8290   21.9090   30.4490 H   0  0  0  0  0  0  0  0  0  0  0  0
   35.5670   18.4760   31.2630 H   0  0  0  0  0  0  0  0  0  0  0  0
   37.1740   27.7510   32.3850 O   0  0  0  0  0  0  0  0  0  0  0  0
   36.2710   28.6400   32.9580 C   0  0  0  0  0  0  0  0  0  0  0  0
   35.7950   29.6020   32.0550 C   0  0  0  0  0  0  0  0  0  0  0  0
   34.9070   30.4300   32.7320 C   0  0  0  0  0  0  0  0  0  0  0  0
   34.8770   29.9540   33.9890 N   0  0  0  0  0  0  0  0  0  0  0  0
   35.6660   28.9170   34.1250 N   0  0  0  0  0  0  0  0  0  0  0  0
   35.9600   29.8310   30.9930 H   0  0  0  0  0  0  0  0  0  0  0  0
   34.3230   31.2860   32.4180 H   0  0  0  0  0  0  0  0  0  0  0  0
   36.2620   32.0110   35.6340 Cl  0  0  0  0  0  0  0  0  0  0  0  0
   34.6590   31.3850   35.9590 C   0  0  0  0  0  0  0  0  0  0  0  0
   34.1310   30.4250   35.1080 C   0  0  0  0  0  0  0  0  0  0  0  0
   32.8660   29.9500   35.3880 C   0  0  0  0  0  0  0  0  0  0  0  0
   32.4140   29.1960   34.7450 H   0  0  0  0  0  0  0  0  0  0  0  0
   32.0870   30.3590   36.4500 C   0  0  0  0  0  0  0  0  0  0  0  0
   31.1000   29.9670   36.6390 H   0  0  0  0  0  0  0  0  0  0  0  0
   32.6560   31.3270   37.2800 C   0  0  0  0  0  3  0  0  0  0  0  0
   33.9170   31.8370   37.0500 C   0  0  0  0  0  3  0  0  0  0  0  0
  1  6  1  0  0  0  0
  2  3  1  0  0  0  0
  2  1  2  0  0  0  0
  3  4  2  0  0  0  0
  4 19  1  0  0  0  0
  4  5  1  0  0  0  0
  5  9  1  0  0  0  0
  6  5  2  0  0  0  0
  7  2  1  0  0  0  0
  8  3  1  0  0  0  0
 10 16  1  0  0  0  0
 11  1  1  0  0  0  0
 11 10  2  0  0  0  0
 12 11  1  0  0  0  0
 13 12  2  0  0  0  0
 13 14  1  0  0  0  0
 14 15  2  0  0  0  0
 15 10  1  0  0  0  0
 17 12  1  0  0  0  0
 18 14  1  0  0  0  0
 19 20  1  0  0  0  0
 20 24  2  0  0  0  0
 21 22  2  0  0  0  0
 21 20  1  0  0  0  0
 22 23  1  0  0  0  0
 23 24  1  0  0  0  0
 23 29  1  0  0  0  0
 25 21  1  0  0  0  0
 26 22  1  0  0  0  0
 27 28  1  0  0  0  0
 28 35  1  0  0  0  0
 29 30  1  0  0  0  0
 29 28  2  0  0  0  0
 30 32  2  0  0  0  0
 31 30  1  0  0  0  0
 32 33  1  0  0  0  0
 32 34  1  0  0  0  0
 35 34  2  0  0  0  0
M  END
>  <minimizedAffinity>
-6.16748142

$$$$

 OpenBabel03272510123D

 35 38  0  0  0  0  0  0  0  0999 V2000
   36.2980   23.0610   31.9840 C   0  0  0  0  0  0  0  0  0  0  0  0
   35.5250   23.9490   31.3220 C   0  0  0  0  0  0  0  0  0  0  0  0
   35.7920   25.2930   31.1800 C   0  0  0  0  0  0  0  0  0  0  0  0
   36.9270   25.8050   31.7450 C   0  0  0  0  0  0  0  0  0  0  0  0
   37.7300   24.9040   32.4290 C   0  0  0  0  0  0  0  0  0  0  0  0
   37.4120   23.5980   32.5310 N   0  0  0  0  0  0  0  0  0  0  0  0
   34.6000   23.6360   30.8370 H   0  0  0  0  0  0  0  0  0  0  0  0
   35.1640   25.9960   30.6460 H   0  0  0  0  0  0  0  0  0  0  0  0
   38.6490   25.2300   32.9060 H   0  0  0  0  0  0  0  0  0  0  0  0
   35.9170   20.7610   31.0400 C   0  0  0  0  0  0  0  0  0  0  0  0
   35.9930   21.6660   32.1140 C   0  0  0  0  0  0  0  0  0  0  0  0
   35.7520   21.1360   33.3720 C   0  0  0  0  0  0  0  0  0  0  0  0
   35.4610   19.8080   33.5030 N   0  0  0  0  0  0  0  0  0  0  0  0
   35.4040   18.9990   32.4300 C   0  0  0  0  0  0  0  0  0  0  0  0
   35.6310   19.4650   31.1810 N   0  0  0  0  0  0  0  0  0  0  0  0
   36.0980   21.1400   30.0570 H   0  0  0  0  0  0  0  0  0  0  0  0
   35.7850   21.7400   34.2700 H   0  0  0  0  0  0  0  0  0  0  0  0
   35.1690   17.9530   32.5830 H   0  0  0  0  0  0  0  0  0  0  0  0
   37.3540   27.1350   31.7020 O   0  0  0  0  0  0  0  0  0  0  0  0
   36.6070   28.1490   32.2910 C   0  0  0  0  0  0  0  0  0  0  0  0
   36.0240   29.0190   31.3580 C   0  0  0  0  0  0  0  0  0  0  0  0
   35.3070   29.9850   32.0550 C   0  0  0  0  0  0  0  0  0  0  0  0
   35.4770   29.6760   33.3520 N   0  0  0  0  0  0  0  0  0  0  0  0
   36.2300   28.6130   33.4940 N   0  0  0  0  0  0  0  0  0  0  0  0
   36.0100   29.0990   30.2620 H   0  0  0  0  0  0  0  0  0  0  0  0
   34.7160   30.8320   31.7290 H   0  0  0  0  0  0  0  0  0  0  0  0
   32.5770   29.2300   33.8530 Cl  0  0  0  0  0  0  0  0  0  0  0  0
   33.6250   30.2130   34.8550 C   0  0  0  0  0  0  0  0  0  0  0  0
   34.9620   30.3360   34.5050 C   0  0  0  0  0  0  0  0  0  0  0  0
   35.7640   31.1170   35.3120 C   0  0  0  0  0  0  0  0  0  0  0  0
   36.8200   31.2400   35.0740 H   0  0  0  0  0  0  0  0  0  0  0  0
   35.3360   31.7830   36.4410 C   0  0  0  0  0  0  0  0  0  0  0  0
   35.9920   32.3850   37.0510 H   0  0  0  0  0  0  0  0  0  0  0  0
   33.9840   31.6320   36.7580 C   0  0  0  0  0  3  0  0  0  0  0  0
   33.1350   30.8650   35.9870 C   0  0  0  0  0  3  0  0  0  0  0  0
  1 11  1  0  0  0  0
  1  6  1  0  0  0  0
  2  1  2  0  0  0  0
  3  2  1  0  0  0  0
  3  4  2  0  0  0  0
  4  5  1  0  0  0  0
  5  6  2  0  0  0  0
  5  9  1  0  0  0  0
  7  2  1  0  0  0  0
  8  3  1  0  0  0  0
 10 15  2  0  0  0  0
 10 11  1  0  0  0  0
 11 12  2  0  0  0  0
 12 13  1  0  0  0  0
 12 17  1  0  0  0  0
 14 18  1  0  0  0  0
 14 13  2  0  0  0  0
 15 14  1  0  0  0  0
 16 10  1  0  0  0  0
 19  4  1  0  0  0  0
 19 20  1  0  0  0  0
 20 24  2  0  0  0  0
 21 22  2  0  0  0  0
 21 20  1  0  0  0  0
 22 23  1  0  0  0  0
 23 24  1  0  0  0  0
 23 29  1  0  0  0  0
 25 21  1  0  0  0  0
 26 22  1  0  0  0  0
 27 28  1  0  0  0  0
 28 35  1  0  0  0  0
 29 28  2  0  0  0  0
 29 30  1  0  0  0  0
 30 32  2  0  0  0  0
 31 30  1  0  0  0  0
 32 34  1  0  0  0  0
 32 33  1  0  0  0  0
 35 34  2  0  0  0  0
M  END
>  <minimizedAffinity>
-6.15796614

$$$$

 OpenBabel03272510123D

 35 38  0  0  0  0  0  0  0  0999 V2000
   39.1280   24.8560   35.0690 C   0  0  0  0  0  0  0  0  0  0  0  0
   39.4300   26.1720   35.1200 C   0  0  0  0  0  0  0  0  0  0  0  0
   38.8320   27.1600   34.3690 C   0  0  0  0  0  0  0  0  0  0  0  0
   37.8450   26.8150   33.4860 C   0  0  0  0  0  0  0  0  0  0  0  0
   37.5260   25.4660   33.4240 C   0  0  0  0  0  0  0  0  0  0  0  0
   38.1510   24.5470   34.1880 N   0  0  0  0  0  0  0  0  0  0  0  0
   40.2020   26.5450   35.7930 H   0  0  0  0  0  0  0  0  0  0  0  0
   39.0820   28.2130   34.4180 H   0  0  0  0  0  0  0  0  0  0  0  0
   36.7540   25.1090   32.7490 H   0  0  0  0  0  0  0  0  0  0  0  0
   40.9630   23.1940   35.5120 C   0  0  0  0  0  0  0  0  0  0  0  0
   39.7700   23.8510   35.8640 C   0  0  0  0  0  0  0  0  0  0  0  0
   39.2050   23.4740   37.0730 C   0  0  0  0  0  0  0  0  0  0  0  0
   39.8110   22.5170   37.8360 N   0  0  0  0  0  0  0  0  0  0  0  0
   40.9530   21.9290   37.4360 C   0  0  0  0  0  0  0  0  0  0  0  0
   41.5450   22.2590   36.2660 N   0  0  0  0  0  0  0  0  0  0  0  0
   41.4230   23.4620   34.5850 H   0  0  0  0  0  0  0  0  0  0  0  0
   38.2880   23.9150   37.4440 H   0  0  0  0  0  0  0  0  0  0  0  0
   41.3970   21.1760   38.0740 H   0  0  0  0  0  0  0  0  0  0  0  0
   37.1340   27.6780   32.6500 O   0  0  0  0  0  0  0  0  0  0  0  0
   36.2570   28.6240   33.1720 C   0  0  0  0  0  0  0  0  0  0  0  0
   35.8340   29.5660   32.2230 C   0  0  0  0  0  0  0  0  0  0  0  0
   34.9690   30.4550   32.8520 C   0  0  0  0  0  0  0  0  0  0  0  0
   34.9000   30.0310   34.1250 N   0  0  0  0  0  0  0  0  0  0  0  0
   35.6450   28.9710   34.3160 N   0  0  0  0  0  0  0  0  0  0  0  0
   36.0250   29.7460   31.1560 H   0  0  0  0  0  0  0  0  0  0  0  0
   34.4240   31.3190   32.4940 H   0  0  0  0  0  0  0  0  0  0  0  0
   36.3650   32.0440   35.7570 Cl  0  0  0  0  0  0  0  0  0  0  0  0
   34.7180   31.5240   36.0530 C   0  0  0  0  0  0  0  0  0  0  0  0
   34.1560   30.5750   35.2120 C   0  0  0  0  0  0  0  0  0  0  0  0
   32.8580   30.1850   35.4690 C   0  0  0  0  0  0  0  0  0  0  0  0
   32.3770   29.4420   34.8330 H   0  0  0  0  0  0  0  0  0  0  0  0
   32.0770   30.6670   36.4990 C   0  0  0  0  0  0  0  0  0  0  0  0
   31.0640   30.3390   36.6710 H   0  0  0  0  0  0  0  0  0  0  0  0
   32.6830   31.6200   37.3210 C   0  0  0  0  0  3  0  0  0  0  0  0
   33.9780   32.0480   37.1120 C   0  0  0  0  0  3  0  0  0  0  0  0
  1  2  1  0  0  0  0
  1 11  1  0  0  0  0
  2  7  1  0  0  0  0
  3  8  1  0  0  0  0
  3  2  2  0  0  0  0
  4  3  1  0  0  0  0
  5  4  2  0  0  0  0
  5  6  1  0  0  0  0
  6  1  2  0  0  0  0
  9  5  1  0  0  0  0
 10 11  2  0  0  0  0
 10 15  1  0  0  0  0
 11 12  1  0  0  0  0
 12 17  1  0  0  0  0
 12 13  2  0  0  0  0
 14 13  1  0  0  0  0
 14 18  1  0  0  0  0
 15 14  2  0  0  0  0
 16 10  1  0  0  0  0
 19 20  1  0  0  0  0
 19  4  1  0  0  0  0
 20 24  2  0  0  0  0
 21 22  2  0  0  0  0
 21 20  1  0  0  0  0
 22 23  1  0  0  0  0
 23 24  1  0  0  0  0
 23 29  1  0  0  0  0
 25 21  1  0  0  0  0
 26 22  1  0  0  0  0
 27 28  1  0  0  0  0
 28 35  1  0  0  0  0
 29 30  1  0  0  0  0
 29 28  2  0  0  0  0
 30 32  2  0  0  0  0
 31 30  1  0  0  0  0
 32 33  1  0  0  0  0
 32 34  1  0  0  0  0
 35 34  2  0  0  0  0
M  END
>  <minimizedAffinity>
-6.02471161

$$$$

 OpenBabel03272510123D

 35 38  0  0  0  0  0  0  0  0999 V2000
   35.5150   29.4220   34.0340 C   0  0  0  0  0  0  0  0  0  0  0  0
   36.3920   28.4390   34.3340 C   0  0  0  0  0  0  0  0  0  0  0  0
   36.9060   27.5260   33.4410 C   0  0  0  0  0  0  0  0  0  0  0  0
   36.5170   27.5890   32.1310 C   0  0  0  0  0  0  0  0  0  0  0  0
   35.6150   28.5930   31.8100 C   0  0  0  0  0  0  0  0  0  0  0  0
   35.1490   29.4580   32.7330 N   0  0  0  0  0  0  0  0  0  0  0  0
   36.7620   28.3090   35.3510 H   0  0  0  0  0  0  0  0  0  0  0  0
   37.6100   26.7420   33.6930 H   0  0  0  0  0  0  0  0  0  0  0  0
   35.2560   28.7120   30.7920 H   0  0  0  0  0  0  0  0  0  0  0  0
   33.6320   30.5260   35.2830 C   0  0  0  0  0  0  0  0  0  0  0  0
   34.9970   30.3580   34.9870 C   0  0  0  0  0  0  0  0  0  0  0  0
   35.8730   31.1730   35.6880 C   0  0  0  0  0  0  0  0  0  0  0  0
   35.3850   32.0680   36.5980 N   0  0  0  0  0  0  0  0  0  0  0  0
   34.0640   32.1750   36.8300 C   0  0  0  0  0  0  0  0  0  0  0  0
   33.1680   31.4050   36.1740 N   0  0  0  0  0  0  0  0  0  0  0  0
   32.9300   29.9120   34.7590 H   0  0  0  0  0  0  0  0  0  0  0  0
   36.9450   31.1290   35.5420 H   0  0  0  0  0  0  0  0  0  0  0  0
   33.7260   32.8980   37.5600 H   0  0  0  0  0  0  0  0  0  0  0  0
   36.9340   26.7500   31.0950 O   0  0  0  0  0  0  0  0  0  0  0  0
   36.9470   25.3680   31.2500 C   0  0  0  0  0  0  0  0  0  0  0  0
   38.0250   24.7490   30.5990 C   0  0  0  0  0  0  0  0  0  0  0  0
   37.9360   23.3800   30.8200 C   0  0  0  0  0  0  0  0  0  0  0  0
   36.8370   23.2200   31.5770 N   0  0  0  0  0  0  0  0  0  0  0  0
   36.2600   24.3690   31.8280 N   0  0  0  0  0  0  0  0  0  0  0  0
   38.8730   25.0900   29.9890 H   0  0  0  0  0  0  0  0  0  0  0  0
   38.5530   22.5480   30.5040 H   0  0  0  0  0  0  0  0  0  0  0  0
   37.7520   22.4960   34.3150 Cl  0  0  0  0  0  0  0  0  0  0  0  0
   36.6150   21.5640   33.3620 C   0  0  0  0  0  0  0  0  0  0  0  0
   36.2740   22.0190   32.0970 C   0  0  0  0  0  0  0  0  0  0  0  0
   35.3760   21.2650   31.3690 C   0  0  0  0  0  0  0  0  0  0  0  0
   35.0810   21.5860   30.3700 H   0  0  0  0  0  0  0  0  0  0  0  0
   34.7910   20.0950   31.8050 C   0  0  0  0  0  0  0  0  0  0  0  0
   34.0910   19.5310   31.2090 H   0  0  0  0  0  0  0  0  0  0  0  0
   35.1610   19.6750   33.0850 C   0  0  0  0  0  3  0  0  0  0  0  0
   36.0550   20.3870   33.8580 C   0  0  0  0  0  3  0  0  0  0  0  0
  1  2  1  0  0  0  0
  1 11  1  0  0  0  0
  2  7  1  0  0  0  0
  3  8  1  0  0  0  0
  3  2  2  0  0  0  0
  4  3  1  0  0  0  0
  5  4  2  0  0  0  0
  5  6  1  0  0  0  0
  6  1  2  0  0  0  0
  9  5  1  0  0  0  0
 10 15  1  0  0  0  0
 11 10  2  0  0  0  0
 11 12  1  0  0  0  0
 12 13  2  0  0  0  0
 13 14  1  0  0  0  0
 14 18  1  0  0  0  0
 15 14  2  0  0  0  0
 16 10  1  0  0  0  0
 17 12  1  0  0  0  0
 19 20  1  0  0  0  0
 19  4  1  0  0  0  0
 20 24  2  0  0  0  0
 21 22  2  0  0  0  0
 21 20  1  0  0  0  0
 22 23  1  0  0  0  0
 23 24  1  0  0  0  0
 23 29  1  0  0  0  0
 25 21  1  0  0  0  0
 26 22  1  0  0  0  0
 28 35  1  0  0  0  0
 28 27  1  0  0  0  0
 29 28  2  0  0  0  0
 30 32  2  0  0  0  0
 30 29  1  0  0  0  0
 31 30  1  0  0  0  0
 32 34  1  0  0  0  0
 33 32  1  0  0  0  0
 34 35  2  0  0  0  0
M  END
>  <minimizedAffinity>
-5.89986944

$$$$

 OpenBabel03272510123D

 35 38  0  0  0  0  0  0  0  0999 V2000
   35.9510   29.2660   34.1820 C   0  0  0  0  0  0  0  0  0  0  0  0
   36.0050   29.1790   32.8350 C   0  0  0  0  0  0  0  0  0  0  0  0
   36.6020   28.1630   32.1220 C   0  0  0  0  0  0  0  0  0  0  0  0
   37.2030   27.1400   32.8040 C   0  0  0  0  0  0  0  0  0  0  0  0
   37.1550   27.2180   34.1880 C   0  0  0  0  0  0  0  0  0  0  0  0
   36.5520   28.2410   34.8260 N   0  0  0  0  0  0  0  0  0  0  0  0
   35.5540   29.9460   32.2050 H   0  0  0  0  0  0  0  0  0  0  0  0
   36.6390   28.1040   31.0410 H   0  0  0  0  0  0  0  0  0  0  0  0
   37.6080   26.4460   34.8030 H   0  0  0  0  0  0  0  0  0  0  0  0
   35.9840   31.2130   35.7740 C   0  0  0  0  0  0  0  0  0  0  0  0
   35.3200   30.3370   34.8960 C   0  0  0  0  0  0  0  0  0  0  0  0
   33.9600   30.5570   34.7350 C   0  0  0  0  0  0  0  0  0  0  0  0
   33.3540   31.5760   35.4120 N   0  0  0  0  0  0  0  0  0  0  0  0
   34.0530   32.3760   36.2370 C   0  0  0  0  0  0  0  0  0  0  0  0
   35.3800   32.2050   36.4310 N   0  0  0  0  0  0  0  0  0  0  0  0
   37.0340   31.0690   35.9190 H   0  0  0  0  0  0  0  0  0  0  0  0
   33.3500   29.9450   34.0830 H   0  0  0  0  0  0  0  0  0  0  0  0
   33.5280   33.1710   36.7530 H   0  0  0  0  0  0  0  0  0  0  0  0
   37.8530   26.0360   32.2480 O   0  0  0  0  0  0  0  0  0  0  0  0
   38.2580   24.9670   33.0410 C   0  0  0  0  0  0  0  0  0  0  0  0
   37.4820   23.8140   32.8520 C   0  0  0  0  0  0  0  0  0  0  0  0
   37.9720   22.8190   33.6890 C   0  0  0  0  0  0  0  0  0  0  0  0
   39.0020   23.3880   34.3400 N   0  0  0  0  0  0  0  0  0  0  0  0
   39.1710   24.6330   33.9680 N   0  0  0  0  0  0  0  0  0  0  0  0
   36.6210   23.5420   32.2240 H   0  0  0  0  0  0  0  0  0  0  0  0
   37.6720   21.7930   33.8570 H   0  0  0  0  0  0  0  0  0  0  0  0
   38.1860   23.8860   37.1580 Cl  0  0  0  0  0  0  0  0  0  0  0  0
   39.6030   22.9770   36.6730 C   0  0  0  0  0  0  0  0  0  0  0  0
   39.8650   22.8210   35.3210 C   0  0  0  0  0  0  0  0  0  0  0  0
   40.9880   22.1000   34.9680 C   0  0  0  0  0  0  0  0  0  0  0  0
   41.2320   21.9530   33.9160 H   0  0  0  0  0  0  0  0  0  0  0  0
   41.8680   21.5230   35.8600 C   0  0  0  0  0  0  0  0  0  0  0  0
   42.7370   20.9640   35.5490 H   0  0  0  0  0  0  0  0  0  0  0  0
   41.5650   21.7040   37.2110 C   0  0  0  0  0  3  0  0  0  0  0  0
   40.4570   22.4160   37.6220 C   0  0  0  0  0  3  0  0  0  0  0  0
  1  6  1  0  0  0  0
  1 11  1  0  0  0  0
  2  1  2  0  0  0  0
  3  4  2  0  0  0  0
  3  2  1  0  0  0  0
  4  5  1  0  0  0  0
  5  9  1  0  0  0  0
  5  6  2  0  0  0  0
  7  2  1  0  0  0  0
  8  3  1  0  0  0  0
 10 16  1  0  0  0  0
 10 15  1  0  0  0  0
 11 10  2  0  0  0  0
 12 11  1  0  0  0  0
 12 13  2  0  0  0  0
 13 14  1  0  0  0  0
 14 15  2  0  0  0  0
 14 18  1  0  0  0  0
 17 12  1  0  0  0  0
 19  4  1  0  0  0  0
 19 20  1  0  0  0  0
 20 24  2  0  0  0  0
 21 20  1  0  0  0  0
 21 22  2  0  0  0  0
 22 26  1  0  0  0  0
 22 23  1  0  0  0  0
 23 29  1  0  0  0  0
 24 23  1  0  0  0  0
 25 21  1  0  0  0  0
 28 27  1  0  0  0  0
 28 35  1  0  0  0  0
 29 28  2  0  0  0  0
 30 29  1  0  0  0  0
 30 32  2  0  0  0  0
 31 30  1  0  0  0  0
 32 34  1  0  0  0  0
 33 32  1  0  0  0  0
 34 35  2  0  0  0  0
M  END
>  <minimizedAffinity>
-5.5693264

$$$$

 OpenBabel03272510123D

 35 38  0  0  0  0  0  0  0  0999 V2000
   36.6590   24.0960   31.8700 C   0  0  0  0  0  0  0  0  0  0  0  0
   35.7230   24.8290   31.2300 C   0  0  0  0  0  0  0  0  0  0  0  0
   35.7290   26.2000   31.1040 C   0  0  0  0  0  0  0  0  0  0  0  0
   36.7540   26.9120   31.6630 C   0  0  0  0  0  0  0  0  0  0  0  0
   37.7230   26.1710   32.3250 C   0  0  0  0  0  0  0  0  0  0  0  0
   37.6590   24.8270   32.4120 N   0  0  0  0  0  0  0  0  0  0  0  0
   34.8670   24.3520   30.7510 H   0  0  0  0  0  0  0  0  0  0  0  0
   34.9720   26.7780   30.5870 H   0  0  0  0  0  0  0  0  0  0  0  0
   38.5700   26.6600   32.7960 H   0  0  0  0  0  0  0  0  0  0  0  0
   37.7240   21.8680   32.3490 C   0  0  0  0  0  0  0  0  0  0  0  0
   36.6250   22.6670   31.9850 C   0  0  0  0  0  0  0  0  0  0  0  0
   35.4430   21.9900   31.7280 C   0  0  0  0  0  0  0  0  0  0  0  0
   35.4040   20.6290   31.8350 N   0  0  0  0  0  0  0  0  0  0  0  0
   36.4960   19.9280   32.1890 C   0  0  0  0  0  0  0  0  0  0  0  0
   37.6740   20.5380   32.4500 N   0  0  0  0  0  0  0  0  0  0  0  0
   38.6510   22.3610   32.5540 H   0  0  0  0  0  0  0  0  0  0  0  0
   34.5340   22.5040   31.4410 H   0  0  0  0  0  0  0  0  0  0  0  0
   36.4170   18.8510   32.2600 H   0  0  0  0  0  0  0  0  0  0  0  0
   36.9210   28.2990   31.6330 O   0  0  0  0  0  0  0  0  0  0  0  0
   36.1050   29.1370   32.3850 C   0  0  0  0  0  0  0  0  0  0  0  0
   35.4710   30.1240   31.6170 C   0  0  0  0  0  0  0  0  0  0  0  0
   34.6880   30.8980   32.4660 C   0  0  0  0  0  0  0  0  0  0  0  0
   34.8710   30.3670   33.6880 N   0  0  0  0  0  0  0  0  0  0  0  0
   35.6920   29.3470   33.6460 N   0  0  0  0  0  0  0  0  0  0  0  0
   35.4570   30.4030   30.5540 H   0  0  0  0  0  0  0  0  0  0  0  0
   34.0440   31.7500   32.2910 H   0  0  0  0  0  0  0  0  0  0  0  0
   32.1880   29.2190   34.2710 Cl  0  0  0  0  0  0  0  0  0  0  0  0
   33.0610   30.3080   35.3300 C   0  0  0  0  0  0  0  0  0  0  0  0
   34.3070   30.7690   34.9330 C   0  0  0  0  0  0  0  0  0  0  0  0
   34.9720   31.6260   35.7870 C   0  0  0  0  0  0  0  0  0  0  0  0
   35.9540   32.0120   35.5140 H   0  0  0  0  0  0  0  0  0  0  0  0
   34.4900   32.0570   37.0050 C   0  0  0  0  0  0  0  0  0  0  0  0
   35.0380   32.7270   37.6490 H   0  0  0  0  0  0  0  0  0  0  0  0
   33.2330   31.5680   37.3650 C   0  0  0  0  0  3  0  0  0  0  0  0
   32.5220   30.7100   36.5520 C   0  0  0  0  0  3  0  0  0  0  0  0
  1 11  1  0  0  0  0
  1  6  1  0  0  0  0
  2  1  2  0  0  0  0
  3  2  1  0  0  0  0
  3  4  2  0  0  0  0
  4  5  1  0  0  0  0
  5  6  2  0  0  0  0
  5  9  1  0  0  0  0
  7  2  1  0  0  0  0
  8  3  1  0  0  0  0
 10 15  1  0  0  0  0
 10 16  1  0  0  0  0
 11 10  2  0  0  0  0
 12 13  2  0  0  0  0
 12 11  1  0  0  0  0
 13 14  1  0  0  0  0
 14 18  1  0  0  0  0
 14 15  2  0  0  0  0
 17 12  1  0  0  0  0
 19  4  1  0  0  0  0
 19 20  1  0  0  0  0
 20 24  2  0  0  0  0
 21 20  1  0  0  0  0
 21 22  2  0  0  0  0
 22 23  1  0  0  0  0
 23 29  1  0  0  0  0
 24 23  1  0  0  0  0
 25 21  1  0  0  0  0
 26 22  1  0  0  0  0
 27 28  1  0  0  0  0
 28 35  1  0  0  0  0
 29 28  2  0  0  0  0
 29 30  1  0  0  0  0
 30 32  2  0  0  0  0
 31 30  1  0  0  0  0
 32 34  1  0  0  0  0
 32 33  1  0  0  0  0
 35 34  2  0  0  0  0
M  END
>  <minimizedAffinity>
-5.56720781

$$$$

 OpenBabel03272510123D

 35 38  0  0  0  0  0  0  0  0999 V2000
   40.1590   25.8330   34.3330 C   0  0  0  0  0  0  0  0  0  0  0  0
   39.3080   26.6210   35.0250 C   0  0  0  0  0  0  0  0  0  0  0  0
   38.2070   27.2620   34.5020 C   0  0  0  0  0  0  0  0  0  0  0  0
   37.9220   27.1110   33.1730 C   0  0  0  0  0  0  0  0  0  0  0  0
   38.7900   26.3040   32.4500 C   0  0  0  0  0  0  0  0  0  0  0  0
   39.8510   25.7030   33.0230 N   0  0  0  0  0  0  0  0  0  0  0  0
   39.4510   26.8010   36.0910 H   0  0  0  0  0  0  0  0  0  0  0  0
   37.5310   27.8920   35.0670 H   0  0  0  0  0  0  0  0  0  0  0  0
   38.6340   26.1330   31.3890 H   0  0  0  0  0  0  0  0  0  0  0  0
   42.6100   25.6860   34.8810 C   0  0  0  0  0  0  0  0  0  0  0  0
   41.2980   25.1780   34.9060 C   0  0  0  0  0  0  0  0  0  0  0  0
   41.1350   23.9560   35.5410 C   0  0  0  0  0  0  0  0  0  0  0  0
   42.2160   23.3270   36.0900 N   0  0  0  0  0  0  0  0  0  0  0  0
   43.4440   23.8720   36.0270 C   0  0  0  0  0  0  0  0  0  0  0  0
   43.6580   25.0610   35.4200 N   0  0  0  0  0  0  0  0  0  0  0  0
   42.7690   26.6270   34.3980 H   0  0  0  0  0  0  0  0  0  0  0  0
   40.1690   23.4710   35.6210 H   0  0  0  0  0  0  0  0  0  0  0  0
   44.2700   23.3370   36.4760 H   0  0  0  0  0  0  0  0  0  0  0  0
   36.8540   27.6830   32.4780 O   0  0  0  0  0  0  0  0  0  0  0  0
   36.0770   28.6840   33.0510 C   0  0  0  0  0  0  0  0  0  0  0  0
   35.8780   29.7830   32.2030 C   0  0  0  0  0  0  0  0  0  0  0  0
   35.0950   30.7140   32.8750 C   0  0  0  0  0  0  0  0  0  0  0  0
   34.8530   30.1610   34.0770 N   0  0  0  0  0  0  0  0  0  0  0  0
   35.4210   28.9860   34.1840 N   0  0  0  0  0  0  0  0  0  0  0  0
   36.1870   30.0530   31.1830 H   0  0  0  0  0  0  0  0  0  0  0  0
   34.7120   31.6860   32.5920 H   0  0  0  0  0  0  0  0  0  0  0  0
   36.3680   31.9790   35.8830 Cl  0  0  0  0  0  0  0  0  0  0  0  0
   34.6830   31.5430   36.0860 C   0  0  0  0  0  0  0  0  0  0  0  0
   34.1000   30.6840   35.1670 C   0  0  0  0  0  0  0  0  0  0  0  0
   32.7720   30.3580   35.3530 C   0  0  0  0  0  0  0  0  0  0  0  0
   32.2740   29.6860   34.6540 H   0  0  0  0  0  0  0  0  0  0  0  0
   31.9810   30.8240   36.3820 C   0  0  0  0  0  0  0  0  0  0  0  0
   30.9440   30.5500   36.4960 H   0  0  0  0  0  0  0  0  0  0  0  0
   32.6080   31.6870   37.2830 C   0  0  0  0  0  3  0  0  0  0  0  0
   33.9330   32.0470   37.1490 C   0  0  0  0  0  3  0  0  0  0  0  0
  1 11  1  0  0  0  0
  1  2  1  0  0  0  0
  2  7  1  0  0  0  0
  3  2  2  0  0  0  0
  3  8  1  0  0  0  0
  4  3  1  0  0  0  0
  5  6  1  0  0  0  0
  5  4  2  0  0  0  0
  6  1  2  0  0  0  0
  9  5  1  0  0  0  0
 10 11  2  0  0  0  0
 10 15  1  0  0  0  0
 11 12  1  0  0  0  0
 12 17  1  0  0  0  0
 12 13  2  0  0  0  0
 14 13  1  0  0  0  0
 14 18  1  0  0  0  0
 15 14  2  0  0  0  0
 16 10  1  0  0  0  0
 19 20  1  0  0  0  0
 19  4  1  0  0  0  0
 20 24  2  0  0  0  0
 21 22  2  0  0  0  0
 21 20  1  0  0  0  0
 22 23  1  0  0  0  0
 23 24  1  0  0  0  0
 23 29  1  0  0  0  0
 25 21  1  0  0  0  0
 26 22  1  0  0  0  0
 27 28  1  0  0  0  0
 28 35  1  0  0  0  0
 29 30  1  0  0  0  0
 29 28  2  0  0  0  0
 30 32  2  0  0  0  0
 31 30  1  0  0  0  0
 32 33  1  0  0  0  0
 32 34  1  0  0  0  0
 35 34  2  0  0  0  0
M  END
>  <minimizedAffinity>
-5.47197866

$$$$

 OpenBabel03272510123D

 35 38  0  0  0  0  0  0  0  0999 V2000
   36.8470   28.1600   30.6540 C   0  0  0  0  0  0  0  0  0  0  0  0
   35.8980   27.3460   31.1650 C   0  0  0  0  0  0  0  0  0  0  0  0
   36.0600   26.0080   31.4490 C   0  0  0  0  0  0  0  0  0  0  0  0
   37.2710   25.4210   31.2030 C   0  0  0  0  0  0  0  0  0  0  0  0
   38.2540   26.2460   30.6760 C   0  0  0  0  0  0  0  0  0  0  0  0
   38.0310   27.5510   30.4220 N   0  0  0  0  0  0  0  0  0  0  0  0
   34.9010   27.7220   31.3960 H   0  0  0  0  0  0  0  0  0  0  0  0
   35.2910   25.3640   31.8600 H   0  0  0  0  0  0  0  0  0  0  0  0
   39.2430   25.8570   30.4530 H   0  0  0  0  0  0  0  0  0  0  0  0
   35.7620   30.3910   31.0680 C   0  0  0  0  0  0  0  0  0  0  0  0
   36.6480   29.5510   30.3690 C   0  0  0  0  0  0  0  0  0  0  0  0
   37.3620   30.1460   29.3400 C   0  0  0  0  0  0  0  0  0  0  0  0
   37.1770   31.4700   29.0640 N   0  0  0  0  0  0  0  0  0  0  0  0
   36.3110   32.2150   29.7760 C   0  0  0  0  0  0  0  0  0  0  0  0
   35.5900   31.6840   30.7890 N   0  0  0  0  0  0  0  0  0  0  0  0
   35.1970   29.9620   31.8680 H   0  0  0  0  0  0  0  0  0  0  0  0
   38.0730   29.5940   28.7370 H   0  0  0  0  0  0  0  0  0  0  0  0
   36.1990   33.2600   29.5200 H   0  0  0  0  0  0  0  0  0  0  0  0
   37.6120   24.0850   31.4280 O   0  0  0  0  0  0  0  0  0  0  0  0
   37.7320   23.5810   32.7190 C   0  0  0  0  0  0  0  0  0  0  0  0
   37.2760   22.2610   32.8410 C   0  0  0  0  0  0  0  0  0  0  0  0
   37.4420   21.8650   34.1640 C   0  0  0  0  0  0  0  0  0  0  0  0
   37.9780   22.9320   34.7810 N   0  0  0  0  0  0  0  0  0  0  0  0
   38.1470   23.9290   33.9480 N   0  0  0  0  0  0  0  0  0  0  0  0
   36.8420   21.5140   32.1610 H   0  0  0  0  0  0  0  0  0  0  0  0
   37.2250   20.9400   34.6810 H   0  0  0  0  0  0  0  0  0  0  0  0
   40.7540   22.0640   35.4140 Cl  0  0  0  0  0  0  0  0  0  0  0  0
   39.6190   22.7150   36.5790 C   0  0  0  0  0  0  0  0  0  0  0  0
   38.3540   23.0820   36.1470 C   0  0  0  0  0  0  0  0  0  0  0  0
   37.4810   23.5920   37.0870 C   0  0  0  0  0  0  0  0  0  0  0  0
   36.4770   23.8920   36.7900 H   0  0  0  0  0  0  0  0  0  0  0  0
   37.7740   23.7650   38.4240 C   0  0  0  0  0  0  0  0  0  0  0  0
   37.0670   24.1690   39.1320 H   0  0  0  0  0  0  0  0  0  0  0  0
   39.0590   23.3850   38.8150 C   0  0  0  0  0  3  0  0  0  0  0  0
   39.9730   22.8680   37.9200 C   0  0  0  0  0  3  0  0  0  0  0  0
  1  2  1  0  0  0  0
  2  7  1  0  0  0  0
  2  3  2  0  0  0  0
  3  8  1  0  0  0  0
  4 19  1  0  0  0  0
  4  3  1  0  0  0  0
  5  4  2  0  0  0  0
  6  1  2  0  0  0  0
  6  5  1  0  0  0  0
  9  5  1  0  0  0  0
 10 16  1  0  0  0  0
 11  1  1  0  0  0  0
 11 10  2  0  0  0  0
 12 11  1  0  0  0  0
 13 12  2  0  0  0  0
 13 14  1  0  0  0  0
 14 15  2  0  0  0  0
 15 10  1  0  0  0  0
 17 12  1  0  0  0  0
 18 14  1  0  0  0  0
 19 20  1  0  0  0  0
 20 21  1  0  0  0  0
 20 24  2  0  0  0  0
 21 22  2  0  0  0  0
 22 26  1  0  0  0  0
 22 23  1  0  0  0  0
 23 29  1  0  0  0  0
 24 23  1  0  0  0  0
 25 21  1  0  0  0  0
 27 28  1  0  0  0  0
 28 35  1  0  0  0  0
 29 28  2  0  0  0  0
 29 30  1  0  0  0  0
 30 32  2  0  0  0  0
 31 30  1  0  0  0  0
 32 34  1  0  0  0  0
 32 33  1  0  0  0  0
 35 34  2  0  0  0  0
M  END
>  <minimizedAffinity>
-5.42727041

$$$$

 OpenBabel03272510123D

 35 38  0  0  0  0  0  0  0  0999 V2000
   35.9180   28.8160   33.8350 C   0  0  0  0  0  0  0  0  0  0  0  0
   36.6600   28.3260   34.8520 C   0  0  0  0  0  0  0  0  0  0  0  0
   37.5650   27.2920   34.7560 C   0  0  0  0  0  0  0  0  0  0  0  0
   37.7520   26.6860   33.5440 C   0  0  0  0  0  0  0  0  0  0  0  0
   36.9950   27.1790   32.4910 C   0  0  0  0  0  0  0  0  0  0  0  0
   36.1260   28.1970   32.6520 N   0  0  0  0  0  0  0  0  0  0  0  0
   36.5820   28.7440   35.8560 H   0  0  0  0  0  0  0  0  0  0  0  0
   38.1550   26.9070   35.5790 H   0  0  0  0  0  0  0  0  0  0  0  0
   37.0850   26.7540   31.4960 H   0  0  0  0  0  0  0  0  0  0  0  0
   33.6520   29.7520   34.3970 C   0  0  0  0  0  0  0  0  0  0  0  0
   34.9840   29.8950   33.9660 C   0  0  0  0  0  0  0  0  0  0  0  0
   35.3850   31.1860   33.6570 C   0  0  0  0  0  0  0  0  0  0  0  0
   34.5000   32.2190   33.7800 N   0  0  0  0  0  0  0  0  0  0  0  0
   33.2380   32.0080   34.1990 C   0  0  0  0  0  0  0  0  0  0  0  0
   32.7960   30.7690   34.5120 N   0  0  0  0  0  0  0  0  0  0  0  0
   33.3130   28.7680   34.6430 H   0  0  0  0  0  0  0  0  0  0  0  0
   36.3880   31.4140   33.3170 H   0  0  0  0  0  0  0  0  0  0  0  0
   32.5730   32.8570   34.2800 H   0  0  0  0  0  0  0  0  0  0  0  0
   38.6220   25.6290   33.2650 O   0  0  0  0  0  0  0  0  0  0  0  0
   38.1960   24.3080   33.3400 C   0  0  0  0  0  0  0  0  0  0  0  0
   38.6560   23.6440   34.4860 C   0  0  0  0  0  0  0  0  0  0  0  0
   38.1730   22.3400   34.4560 C   0  0  0  0  0  0  0  0  0  0  0  0
   37.4560   22.2620   33.3210 N   0  0  0  0  0  0  0  0  0  0  0  0
   37.4670   23.3990   32.6710 N   0  0  0  0  0  0  0  0  0  0  0  0
   39.2780   23.9120   35.3520 H   0  0  0  0  0  0  0  0  0  0  0  0
   38.2860   21.5040   35.1330 H   0  0  0  0  0  0  0  0  0  0  0  0
   35.6860   20.8740   35.2700 Cl  0  0  0  0  0  0  0  0  0  0  0  0
   35.8770   20.4150   33.5900 C   0  0  0  0  0  0  0  0  0  0  0  0
   36.7370   21.1520   32.7900 C   0  0  0  0  0  0  0  0  0  0  0  0
   36.8680   20.7680   31.4710 C   0  0  0  0  0  0  0  0  0  0  0  0
   37.5340   21.3200   30.8080 H   0  0  0  0  0  0  0  0  0  0  0  0
   36.2070   19.7080   30.8890 C   0  0  0  0  0  0  0  0  0  0  0  0
   36.3320   19.4360   29.8520 H   0  0  0  0  0  0  0  0  0  0  0  0
   35.3500   18.9940   31.7290 C   0  0  0  0  0  3  0  0  0  0  0  0
   35.1800   19.3310   33.0560 C   0  0  0  0  0  3  0  0  0  0  0  0
  1 11  1  0  0  0  0
  1  2  1  0  0  0  0
  2  7  1  0  0  0  0
  3  2  2  0  0  0  0
  3  8  1  0  0  0  0
  4  3  1  0  0  0  0
  5  6  1  0  0  0  0
  5  4  2  0  0  0  0
  6  1  2  0  0  0  0
  9  5  1  0  0  0  0
 10 15  1  0  0  0  0
 10 16  1  0  0  0  0
 11 10  2  0  0  0  0
 12 13  2  0  0  0  0
 12 11  1  0  0  0  0
 13 14  1  0  0  0  0
 14 18  1  0  0  0  0
 14 15  2  0  0  0  0
 17 12  1  0  0  0  0
 19 20  1  0  0  0  0
 19  4  1  0  0  0  0
 20 21  1  0  0  0  0
 21 25  1  0  0  0  0
 22 21  2  0  0  0  0
 22 26  1  0  0  0  0
 23 22  1  0  0  0  0
 24 23  1  0  0  0  0
 24 20  2  0  0  0  0
 28 27  1  0  0  0  0
 29 23  1  0  0  0  0
 29 28  2  0  0  0  0
 30 29  1  0  0  0  0
 31 30  1  0  0  0  0
 32 30  2  0  0  0  0
 32 34  1  0  0  0  0
 33 32  1  0  0  0  0
 34 35  2  0  0  0  0
 35 28  1  0  0  0  0
M  END
>  <minimizedAffinity>
-5.41210461

$$$$
