
 OpenBabel03272507523D

 32 34  0  0  0  0  0  0  0  0999 V2000
   37.1360   31.2440   47.6450 N   0  0  0  0  0  0  0  0  0  0  0  0
   37.7310   32.1430   48.4210 C   0  0  0  0  0  0  0  0  0  0  0  0
   38.8130   32.8800   47.9420 C   0  0  0  0  0  0  0  0  0  0  0  0
   39.1710   32.5850   46.6520 C   0  0  0  0  0  0  0  0  0  0  0  0
   40.1590   33.2650   46.2310 O   0  0  0  0  0  0  0  0  0  0  0  0
   38.5990   31.6890   45.8380 N   0  0  0  0  0  0  0  0  0  0  0  0
   37.5590   31.0140   46.3690 C   0  0  0  0  0  0  0  0  0  0  0  0
   37.0070   30.1630   45.6130 O   0  0  0  0  0  0  0  0  0  0  0  0
   37.3790   32.3120   49.4340 H   0  0  0  0  0  0  0  0  0  0  0  0
   39.3080   33.6100   48.5490 H   0  0  0  0  0  0  0  0  0  0  0  0
   36.9520   32.8210   43.5550 Cl  0  0  0  0  0  0  0  0  0  0  0  0
   38.4270   31.8980   43.3580 C   0  0  0  0  0  0  0  0  0  0  0  0
   39.0500   31.4580   44.5090 C   0  0  0  0  0  0  0  0  0  0  0  0
   40.2170   30.7240   44.4580 C   0  0  0  0  0  0  0  0  0  0  0  0
   40.7580   30.3480   45.3170 H   0  0  0  0  0  0  0  0  0  0  0  0
   40.7760   30.4220   43.2200 C   0  0  0  0  0  0  0  0  0  0  0  0
   41.7050   29.8400   43.1270 H   0  0  0  0  0  0  0  0  0  0  0  0
   40.1610   30.8570   42.0440 C   0  0  0  0  0  3  0  0  0  0  0  0
   38.9780   31.6010   42.1090 C   0  0  0  0  0  3  0  0  0  0  0  0
   35.8820   30.2480   49.4700 C   0  0  0  0  0  0  0  0  0  0  0  0
   36.0220   30.4550   48.0880 C   0  0  0  0  0  0  0  0  0  0  0  0
   35.0850   29.8880   47.2060 C   0  0  0  0  0  0  0  0  0  0  0  0
   34.0810   29.1620   47.7590 N   0  0  0  0  0  0  0  0  0  0  0  0
   33.9470   28.9650   49.0590 C   0  0  0  0  0  0  0  0  0  0  0  0
   34.8420   29.5030   49.9090 N   0  0  0  0  0  0  0  0  0  0  0  0
   35.2830   30.1070   46.1830 H   0  0  0  0  0  0  0  0  0  0  0  0
   33.1240   28.3740   49.4450 H   0  0  0  0  0  0  0  0  0  0  0  0
   37.5690   30.1700   51.4590 C   0  0  0  0  0  0  0  0  0  0  0  0
   37.5560   28.9320   51.6540 O   0  0  0  0  0  0  0  0  0  0  0  0
   36.7600   30.7810   50.4380 N   0  0  0  0  0  0  0  0  0  0  0  0
   38.2200   30.7410   52.1000 H   0  0  0  0  0  0  0  0  0  0  0  0
   36.8910   31.8400   50.4610 H   0  0  0  0  0  0  0  0  0  0  0  0
  1 21  1  0  0  0  0
  1  2  1  0  0  0  0
  2  9  1  0  0  0  0
  3  2  2  0  0  0  0
  3 10  1  0  0  0  0
  4  3  1  0  0  0  0
  5  4  2  0  0  0  0
  6  7  1  0  0  0  0
  6  4  1  0  0  0  0
  7  1  1  0  0  0  0
  8  7  2  0  0  0  0
 12 11  1  0  0  0  0
 12 13  1  0  0  0  0
 13  6  1  0  0  0  0
 14 13  2  0  0  0  0
 14 15  1  0  0  0  0
 16 14  1  0  0  0  0
 17 16  1  0  0  0  0
 18 19  1  0  0  0  0
 18 16  2  0  0  0  0
 19 12  2  0  0  0  0
 20 25  1  0  0  0  0
 20 30  1  0  0  0  0
 21 20  2  0  0  0  0
 22 23  2  0  0  0  0
 22 21  1  0  0  0  0
 23 24  1  0  0  0  0
 24 27  1  0  0  0  0
 24 25  2  0  0  0  0
 26 22  1  0  0  0  0
 28 29  2  0  0  0  0
 28 31  1  0  0  0  0
 30 32  1  0  0  0  0
 30 28  1  0  0  0  0
M  END
>  <minimizedAffinity>
-5.91066599

>  <minimizedRMSD>
2.56258607

$$$$
