
 OpenBabel03272500453D

 25 27  0  0  0  0  0  0  0  0999 V2000
   37.4070   25.6310   33.1470 C   0  0  0  0  0  0  0  0  0  0  0  0
   37.4650   24.3720   32.5470 C   0  0  0  0  0  0  0  0  0  0  0  0
   37.8560   23.4620   33.5180 C   0  0  0  0  0  0  0  0  0  0  0  0
   38.0220   24.1670   34.6560 N   0  0  0  0  0  0  0  0  0  0  0  0
   37.7510   25.4360   34.4040 N   0  0  0  0  0  0  0  0  0  0  0  0
   37.2670   24.0400   31.5320 H   0  0  0  0  0  0  0  0  0  0  0  0
   38.0290   22.4110   33.5160 H   0  0  0  0  0  0  0  0  0  0  0  0
   37.0030   26.8840   31.0110 C   0  0  0  0  0  0  0  0  0  0  0  0
   37.0300   26.8300   32.4200 C   0  0  0  0  0  0  0  0  0  0  0  0
   36.6790   27.9760   33.1190 C   0  0  0  0  0  0  0  0  0  0  0  0
   36.3290   29.0920   32.4180 N   0  0  0  0  0  0  0  0  0  0  0  0
   36.3160   29.0990   31.0550 C   0  0  0  0  0  0  0  0  0  0  0  0
   36.6510   28.0040   30.3580 N   0  0  0  0  0  0  0  0  0  0  0  0
   37.2910   25.9430   30.5570 H   0  0  0  0  0  0  0  0  0  0  0  0
   36.6710   28.0290   34.2090 H   0  0  0  0  0  0  0  0  0  0  0  0
   36.0330   30.0010   30.5080 H   0  0  0  0  0  0  0  0  0  0  0  0
   40.6840   22.8810   34.8570 Cl  0  0  0  0  0  0  0  0  0  0  0  0
   39.6460   23.2440   36.2010 C   0  0  0  0  0  0  0  0  0  0  0  0
   38.4050   23.8550   35.9910 C   0  0  0  0  0  0  0  0  0  0  0  0
   37.5410   24.1650   37.0240 C   0  0  0  0  0  0  0  0  0  0  0  0
   36.5870   24.6360   36.8420 H   0  0  0  0  0  0  0  0  0  0  0  0
   37.9450   23.8450   38.3180 C   0  0  0  0  0  0  0  0  0  0  0  0
   37.2490   24.0980   39.1250 H   0  0  0  0  0  0  0  0  0  0  0  0
   39.1660   23.2410   38.5710 C   0  0  0  0  0  3  0  0  0  0  0  0
   40.0250   22.9360   37.5130 C   0  0  0  0  0  3  0  0  0  0  0  0
  1  5  2  0  0  0  0
  2  1  1  0  0  0  0
  2  3  2  0  0  0  0
  3  4  1  0  0  0  0
  4 19  1  0  0  0  0
  5  4  1  0  0  0  0
  6  2  1  0  0  0  0
  7  3  1  0  0  0  0
  8  9  1  0  0  0  0
  9 10  2  0  0  0  0
  9  1  1  0  0  0  0
 10 15  1  0  0  0  0
 11 10  1  0  0  0  0
 12 11  2  0  0  0  0
 13  8  2  0  0  0  0
 13 12  1  0  0  0  0
 14  8  1  0  0  0  0
 16 12  1  0  0  0  0
 17 18  1  0  0  0  0
 18 25  1  0  0  0  0
 19 18  2  0  0  0  0
 19 20  1  0  0  0  0
 20 22  2  0  0  0  0
 21 20  1  0  0  0  0
 22 24  1  0  0  0  0
 22 23  1  0  0  0  0
 25 24  2  0  0  0  0
M  END
>  <minimizedAffinity>
-4.9025259

$$$$

 OpenBabel03272500453D

 25 27  0  0  0  0  0  0  0  0999 V2000
   36.3650   28.2670   33.0160 C   0  0  0  0  0  0  0  0  0  0  0  0
   36.2900   29.2670   32.0450 C   0  0  0  0  0  0  0  0  0  0  0  0
   35.6910   30.3750   32.6270 C   0  0  0  0  0  0  0  0  0  0  0  0
   35.4230   30.0340   33.9050 N   0  0  0  0  0  0  0  0  0  0  0  0
   35.8300   28.7920   34.1000 N   0  0  0  0  0  0  0  0  0  0  0  0
   36.6020   29.2960   31.0040 H   0  0  0  0  0  0  0  0  0  0  0  0
   35.4350   31.3460   32.2730 H   0  0  0  0  0  0  0  0  0  0  0  0
   37.3610   26.0960   33.7850 C   0  0  0  0  0  0  0  0  0  0  0  0
   36.9390   26.9600   32.7530 C   0  0  0  0  0  0  0  0  0  0  0  0
   37.0860   26.5230   31.4440 C   0  0  0  0  0  0  0  0  0  0  0  0
   37.6280   25.2930   31.2180 N   0  0  0  0  0  0  0  0  0  0  0  0
   38.0210   24.4910   32.2470 C   0  0  0  0  0  0  0  0  0  0  0  0
   37.8890   24.8910   33.5210 N   0  0  0  0  0  0  0  0  0  0  0  0
   37.2050   26.5240   34.7690 H   0  0  0  0  0  0  0  0  0  0  0  0
   36.7890   27.1220   30.5810 H   0  0  0  0  0  0  0  0  0  0  0  0
   38.4530   23.5080   32.0500 H   0  0  0  0  0  0  0  0  0  0  0  0
   32.5320   29.4640   34.2160 Cl  0  0  0  0  0  0  0  0  0  0  0  0
   33.4660   30.4880   35.2610 C   0  0  0  0  0  0  0  0  0  0  0  0
   34.8290   30.6880   35.0210 C   0  0  0  0  0  0  0  0  0  0  0  0
   35.6190   31.4930   35.8210 C   0  0  0  0  0  0  0  0  0  0  0  0
   36.6690   31.6360   35.6200 H   0  0  0  0  0  0  0  0  0  0  0  0
   35.0070   32.1190   36.9040 C   0  0  0  0  0  0  0  0  0  0  0  0
   35.6470   32.7530   37.5290 H   0  0  0  0  0  0  0  0  0  0  0  0
   33.6600   31.9470   37.1800 C   0  0  0  0  0  3  0  0  0  0  0  0
   32.8800   31.1300   36.3590 C   0  0  0  0  0  3  0  0  0  0  0  0
  1  5  2  0  0  0  0
  2  3  2  0  0  0  0
  2  1  1  0  0  0  0
  3  4  1  0  0  0  0
  4  5  1  0  0  0  0
  4 19  1  0  0  0  0
  6  2  1  0  0  0  0
  7  3  1  0  0  0  0
  8 14  1  0  0  0  0
  9  1  1  0  0  0  0
  9  8  2  0  0  0  0
 10  9  1  0  0  0  0
 11 10  2  0  0  0  0
 11 12  1  0  0  0  0
 12 13  2  0  0  0  0
 13  8  1  0  0  0  0
 15 10  1  0  0  0  0
 16 12  1  0  0  0  0
 17 18  1  0  0  0  0
 18 25  1  0  0  0  0
 19 18  2  0  0  0  0
 19 20  1  0  0  0  0
 20 22  2  0  0  0  0
 21 20  1  0  0  0  0
 22 24  1  0  0  0  0
 22 23  1  0  0  0  0
 25 24  2  0  0  0  0
M  END
>  <minimizedAffinity>
-4.77148867

$$$$

 OpenBabel03272500453D

 25 27  0  0  0  0  0  0  0  0999 V2000
   36.4560   29.5480   31.8910 C   0  0  0  0  0  0  0  0  0  0  0  0
   36.6150   28.3220   32.5380 C   0  0  0  0  0  0  0  0  0  0  0  0
   36.0970   28.4520   33.8180 C   0  0  0  0  0  0  0  0  0  0  0  0
   35.6460   29.7190   33.9190 N   0  0  0  0  0  0  0  0  0  0  0  0
   35.8710   30.3360   32.7720 N   0  0  0  0  0  0  0  0  0  0  0  0
   37.0440   27.3780   32.2130 H   0  0  0  0  0  0  0  0  0  0  0  0
   36.0060   27.7890   34.6470 H   0  0  0  0  0  0  0  0  0  0  0  0
   36.8900   31.0580   29.9340 C   0  0  0  0  0  0  0  0  0  0  0  0
   36.8900   29.7770   30.5250 C   0  0  0  0  0  0  0  0  0  0  0  0
   37.3250   28.7090   29.7530 C   0  0  0  0  0  0  0  0  0  0  0  0
   37.7280   28.9440   28.4720 N   0  0  0  0  0  0  0  0  0  0  0  0
   37.7120   30.1990   27.9420 C   0  0  0  0  0  0  0  0  0  0  0  0
   37.2960   31.2480   28.6680 N   0  0  0  0  0  0  0  0  0  0  0  0
   36.5350   31.8250   30.6130 H   0  0  0  0  0  0  0  0  0  0  0  0
   37.3590   27.6830   30.1240 H   0  0  0  0  0  0  0  0  0  0  0  0
   38.0380   30.3720   26.9140 H   0  0  0  0  0  0  0  0  0  0  0  0
   32.7110   29.3370   34.0530 Cl  0  0  0  0  0  0  0  0  0  0  0  0
   33.6300   30.3840   35.0880 C   0  0  0  0  0  0  0  0  0  0  0  0
   35.0160   30.4890   34.9380 C   0  0  0  0  0  0  0  0  0  0  0  0
   35.7950   31.3070   35.7340 C   0  0  0  0  0  0  0  0  0  0  0  0
   36.8640   31.3760   35.6030 H   0  0  0  0  0  0  0  0  0  0  0  0
   35.1480   32.0470   36.7210 C   0  0  0  0  0  0  0  0  0  0  0  0
   35.7790   32.6900   37.3440 H   0  0  0  0  0  0  0  0  0  0  0  0
   33.7760   31.9730   36.9060 C   0  0  0  0  0  3  0  0  0  0  0  0
   33.0080   31.1400   36.0900 C   0  0  0  0  0  3  0  0  0  0  0  0
  1  2  1  0  0  0  0
  1  5  2  0  0  0  0
  2  3  2  0  0  0  0
  3  4  1  0  0  0  0
  3  7  1  0  0  0  0
  4 19  1  0  0  0  0
  5  4  1  0  0  0  0
  6  2  1  0  0  0  0
  8  9  1  0  0  0  0
  8 14  1  0  0  0  0
  9  1  1  0  0  0  0
 10 15  1  0  0  0  0
 10  9  2  0  0  0  0
 11 10  1  0  0  0  0
 12 11  2  0  0  0  0
 12 13  1  0  0  0  0
 13  8  2  0  0  0  0
 16 12  1  0  0  0  0
 17 18  1  0  0  0  0
 18 25  1  0  0  0  0
 19 18  2  0  0  0  0
 19 20  1  0  0  0  0
 20 22  2  0  0  0  0
 21 20  1  0  0  0  0
 22 24  1  0  0  0  0
 22 23  1  0  0  0  0
 25 24  2  0  0  0  0
M  END
>  <minimizedAffinity>
-4.76998711

$$$$

 OpenBabel03272500453D

 25 27  0  0  0  0  0  0  0  0999 V2000
   38.1470   25.2380   33.6270 C   0  0  0  0  0  0  0  0  0  0  0  0
   38.7060   26.3910   34.1800 C   0  0  0  0  0  0  0  0  0  0  0  0
   39.6900   25.9930   35.0740 C   0  0  0  0  0  0  0  0  0  0  0  0
   39.7080   24.6450   35.0440 N   0  0  0  0  0  0  0  0  0  0  0  0
   38.7910   24.2330   34.1860 N   0  0  0  0  0  0  0  0  0  0  0  0
   38.4990   27.4470   34.0260 H   0  0  0  0  0  0  0  0  0  0  0  0
   40.3630   26.5180   35.7110 H   0  0  0  0  0  0  0  0  0  0  0  0
   36.5440   24.1130   32.0580 C   0  0  0  0  0  0  0  0  0  0  0  0
   37.0780   25.2790   32.6450 C   0  0  0  0  0  0  0  0  0  0  0  0
   36.5470   26.5000   32.2550 C   0  0  0  0  0  0  0  0  0  0  0  0
   35.5450   26.5170   31.3310 N   0  0  0  0  0  0  0  0  0  0  0  0
   35.0580   25.3650   30.7910 C   0  0  0  0  0  0  0  0  0  0  0  0
   35.5550   24.1720   31.1520 N   0  0  0  0  0  0  0  0  0  0  0  0
   37.0210   23.2110   32.4260 H   0  0  0  0  0  0  0  0  0  0  0  0
   36.8970   27.4550   32.6530 H   0  0  0  0  0  0  0  0  0  0  0  0
   34.2550   25.3940   30.0520 H   0  0  0  0  0  0  0  0  0  0  0  0
   38.4400   23.6530   37.5310 Cl  0  0  0  0  0  0  0  0  0  0  0  0
   39.9510   23.0900   36.8880 C   0  0  0  0  0  0  0  0  0  0  0  0
   40.4590   23.6300   35.7010 C   0  0  0  0  0  0  0  0  0  0  0  0
   41.6560   23.2190   35.1460 C   0  0  0  0  0  0  0  0  0  0  0  0
   42.0330   23.6470   34.2300 H   0  0  0  0  0  0  0  0  0  0  0  0
   42.3670   22.2250   35.8140 C   0  0  0  0  0  0  0  0  0  0  0  0
   43.3130   21.9100   35.3610 H   0  0  0  0  0  0  0  0  0  0  0  0
   41.9000   21.6620   36.9910 C   0  0  0  0  0  3  0  0  0  0  0  0
   40.6880   22.0920   37.5360 C   0  0  0  0  0  3  0  0  0  0  0  0
  1  2  1  0  0  0  0
  1  5  2  0  0  0  0
  2  3  2  0  0  0  0
  3  7  1  0  0  0  0
  4  3  1  0  0  0  0
  4 19  1  0  0  0  0
  5  4  1  0  0  0  0
  6  2  1  0  0  0  0
  8 14  1  0  0  0  0
  8  9  1  0  0  0  0
  9  1  1  0  0  0  0
 10  9  2  0  0  0  0
 10 15  1  0  0  0  0
 11 10  1  0  0  0  0
 12 13  1  0  0  0  0
 12 11  2  0  0  0  0
 13  8  2  0  0  0  0
 16 12  1  0  0  0  0
 18 17  1  0  0  0  0
 18 25  1  0  0  0  0
 19 18  2  0  0  0  0
 20 19  1  0  0  0  0
 20 22  2  0  0  0  0
 21 20  1  0  0  0  0
 22 24  1  0  0  0  0
 23 22  1  0  0  0  0
 24 25  2  0  0  0  0
M  END
>  <minimizedAffinity>
-4.75935459

$$$$

 OpenBabel03272500453D

 25 27  0  0  0  0  0  0  0  0999 V2000
   36.4610   22.7320   32.1700 C   0  0  0  0  0  0  0  0  0  0  0  0
   35.9340   23.6720   31.2840 C   0  0  0  0  0  0  0  0  0  0  0  0
   36.4110   24.9190   31.6620 C   0  0  0  0  0  0  0  0  0  0  0  0
   37.1970   24.7150   32.7390 N   0  0  0  0  0  0  0  0  0  0  0  0
   37.2050   23.4220   33.0110 N   0  0  0  0  0  0  0  0  0  0  0  0
   35.2700   23.5750   30.4300 H   0  0  0  0  0  0  0  0  0  0  0  0
   36.2750   25.9060   31.2840 H   0  0  0  0  0  0  0  0  0  0  0  0
   35.6820   20.5640   33.1650 C   0  0  0  0  0  0  0  0  0  0  0  0
   36.1690   21.3130   32.0740 C   0  0  0  0  0  0  0  0  0  0  0  0
   36.3690   20.6490   30.8720 C   0  0  0  0  0  0  0  0  0  0  0  0
   36.0900   19.3170   30.8020 N   0  0  0  0  0  0  0  0  0  0  0  0
   35.6200   18.6320   31.8820 C   0  0  0  0  0  0  0  0  0  0  0  0
   35.4180   19.2520   33.0540 N   0  0  0  0  0  0  0  0  0  0  0  0
   35.5580   21.1680   34.0560 H   0  0  0  0  0  0  0  0  0  0  0  0
   36.7440   21.1450   29.9740 H   0  0  0  0  0  0  0  0  0  0  0  0
   35.4000   17.5650   31.8100 H   0  0  0  0  0  0  0  0  0  0  0  0
   39.9930   25.0720   31.8280 Cl  0  0  0  0  0  0  0  0  0  0  0  0
   39.3110   25.7820   33.2570 C   0  0  0  0  0  0  0  0  0  0  0  0
   37.9740   25.5470   33.5940 C   0  0  0  0  0  0  0  0  0  0  0  0
   37.3810   26.0860   34.7200 C   0  0  0  0  0  0  0  0  0  0  0  0
   36.3480   25.8930   34.9640 H   0  0  0  0  0  0  0  0  0  0  0  0
   38.1690   26.8940   35.5360 C   0  0  0  0  0  0  0  0  0  0  0  0
   37.6840   27.3150   36.4240 H   0  0  0  0  0  0  0  0  0  0  0  0
   39.4970   27.1550   35.2390 C   0  0  0  0  0  3  0  0  0  0  0  0
   40.0770   26.6000   34.0960 C   0  0  0  0  0  3  0  0  0  0  0  0
  1  5  2  0  0  0  0
  2  3  2  0  0  0  0
  2  1  1  0  0  0  0
  3  4  1  0  0  0  0
  4  5  1  0  0  0  0
  4 19  1  0  0  0  0
  6  2  1  0  0  0  0
  7  3  1  0  0  0  0
  8 14  1  0  0  0  0
  9  1  1  0  0  0  0
  9  8  2  0  0  0  0
 10  9  1  0  0  0  0
 11 10  2  0  0  0  0
 11 12  1  0  0  0  0
 12 13  2  0  0  0  0
 13  8  1  0  0  0  0
 15 10  1  0  0  0  0
 16 12  1  0  0  0  0
 17 18  1  0  0  0  0
 18 19  2  0  0  0  0
 18 25  1  0  0  0  0
 19 20  1  0  0  0  0
 20 21  1  0  0  0  0
 20 22  2  0  0  0  0
 22 23  1  0  0  0  0
 24 22  1  0  0  0  0
 25 24  2  0  0  0  0
M  END
>  <minimizedAffinity>
-4.70130491

$$$$

 OpenBabel03272500453D

 25 27  0  0  0  0  0  0  0  0999 V2000
   36.2480   28.7480   32.9900 C   0  0  0  0  0  0  0  0  0  0  0  0
   35.9280   29.7580   32.0820 C   0  0  0  0  0  0  0  0  0  0  0  0
   35.0790   30.6470   32.7240 C   0  0  0  0  0  0  0  0  0  0  0  0
   34.9060   30.1720   33.9750 N   0  0  0  0  0  0  0  0  0  0  0  0
   35.6050   29.0570   34.0990 N   0  0  0  0  0  0  0  0  0  0  0  0
   36.2210   29.9270   31.0490 H   0  0  0  0  0  0  0  0  0  0  0  0
   34.5920   31.5460   32.4270 H   0  0  0  0  0  0  0  0  0  0  0  0
   37.0690   26.4000   33.3280 C   0  0  0  0  0  0  0  0  0  0  0  0
   37.1230   27.6390   32.6550 C   0  0  0  0  0  0  0  0  0  0  0  0
   38.0550   27.7810   31.6370 C   0  0  0  0  0  0  0  0  0  0  0  0
   38.8680   26.7290   31.3380 N   0  0  0  0  0  0  0  0  0  0  0  0
   38.7800   25.5490   32.0140 C   0  0  0  0  0  0  0  0  0  0  0  0
   37.8870   25.3870   33.0020 N   0  0  0  0  0  0  0  0  0  0  0  0
   36.3120   26.3860   34.1030 H   0  0  0  0  0  0  0  0  0  0  0  0
   38.1710   28.7020   31.0610 H   0  0  0  0  0  0  0  0  0  0  0  0
   39.4380   24.7150   31.7620 H   0  0  0  0  0  0  0  0  0  0  0  0
   36.3520   32.1400   35.6520 Cl  0  0  0  0  0  0  0  0  0  0  0  0
   34.7650   31.5190   35.9840 C   0  0  0  0  0  0  0  0  0  0  0  0
   34.1740   30.5900   35.1220 C   0  0  0  0  0  0  0  0  0  0  0  0
   32.9150   30.0650   35.3390 C   0  0  0  0  0  0  0  0  0  0  0  0
   32.4750   29.3480   34.6630 H   0  0  0  0  0  0  0  0  0  0  0  0
   32.2260   30.4940   36.4710 C   0  0  0  0  0  0  0  0  0  0  0  0
   31.2280   30.0680   36.6280 H   0  0  0  0  0  0  0  0  0  0  0  0
   32.7730   31.4140   37.3510 C   0  0  0  0  0  3  0  0  0  0  0  0
   34.0470   31.9330   37.1130 C   0  0  0  0  0  3  0  0  0  0  0  0
  1  5  2  0  0  0  0
  2  3  2  0  0  0  0
  2  1  1  0  0  0  0
  3  4  1  0  0  0  0
  4  5  1  0  0  0  0
  4 19  1  0  0  0  0
  6  2  1  0  0  0  0
  7  3  1  0  0  0  0
  8 14  1  0  0  0  0
  9  1  1  0  0  0  0
  9  8  2  0  0  0  0
 10  9  1  0  0  0  0
 11 10  2  0  0  0  0
 11 12  1  0  0  0  0
 12 13  2  0  0  0  0
 13  8  1  0  0  0  0
 15 10  1  0  0  0  0
 16 12  1  0  0  0  0
 17 18  1  0  0  0  0
 18 25  1  0  0  0  0
 19 20  1  0  0  0  0
 19 18  2  0  0  0  0
 20 22  2  0  0  0  0
 21 20  1  0  0  0  0
 22 23  1  0  0  0  0
 22 24  1  0  0  0  0
 25 24  2  0  0  0  0
M  END
>  <minimizedAffinity>
-4.70084333

$$$$

 OpenBabel03272500453D

 25 27  0  0  0  0  0  0  0  0999 V2000
   37.1740   26.5380   33.4960 C   0  0  0  0  0  0  0  0  0  0  0  0
   37.0670   25.4580   32.6180 C   0  0  0  0  0  0  0  0  0  0  0  0
   37.5870   24.3430   33.2580 C   0  0  0  0  0  0  0  0  0  0  0  0
   37.9870   24.7570   34.4790 N   0  0  0  0  0  0  0  0  0  0  0  0
   37.7310   26.0490   34.5860 N   0  0  0  0  0  0  0  0  0  0  0  0
   36.6760   25.3780   31.6070 H   0  0  0  0  0  0  0  0  0  0  0  0
   37.7110   23.3230   32.9780 H   0  0  0  0  0  0  0  0  0  0  0  0
   36.9760   28.4600   31.8940 C   0  0  0  0  0  0  0  0  0  0  0  0
   36.7250   27.8750   33.1530 C   0  0  0  0  0  0  0  0  0  0  0  0
   36.0190   28.6250   34.0840 C   0  0  0  0  0  0  0  0  0  0  0  0
   35.6070   29.8780   33.7430 N   0  0  0  0  0  0  0  0  0  0  0  0
   35.8720   30.4030   32.5140 C   0  0  0  0  0  0  0  0  0  0  0  0
   36.5520   29.6980   31.5970 N   0  0  0  0  0  0  0  0  0  0  0  0
   37.5310   27.7990   31.2370 H   0  0  0  0  0  0  0  0  0  0  0  0
   35.7790   28.2570   35.0830 H   0  0  0  0  0  0  0  0  0  0  0  0
   35.5350   31.4090   32.2550 H   0  0  0  0  0  0  0  0  0  0  0  0
   40.7830   23.9000   34.0090 Cl  0  0  0  0  0  0  0  0  0  0  0  0
   39.9120   23.6920   35.4960 C   0  0  0  0  0  0  0  0  0  0  0  0
   38.5900   24.1360   35.6080 C   0  0  0  0  0  0  0  0  0  0  0  0
   37.8510   23.9950   36.7670 C   0  0  0  0  0  0  0  0  0  0  0  0
   36.8320   24.3440   36.8360 H   0  0  0  0  0  0  0  0  0  0  0  0
   38.4700   23.3830   37.8540 C   0  0  0  0  0  0  0  0  0  0  0  0
   37.8710   23.2790   38.7650 H   0  0  0  0  0  0  0  0  0  0  0  0
   39.7780   22.9290   37.7860 C   0  0  0  0  0  3  0  0  0  0  0  0
   40.5070   23.0810   36.6050 C   0  0  0  0  0  3  0  0  0  0  0  0
  1  5  2  0  0  0  0
  2  3  2  0  0  0  0
  2  1  1  0  0  0  0
  3  4  1  0  0  0  0
  4  5  1  0  0  0  0
  4 19  1  0  0  0  0
  6  2  1  0  0  0  0
  7  3  1  0  0  0  0
  8  9  1  0  0  0  0
  9  1  1  0  0  0  0
  9 10  2  0  0  0  0
 10 15  1  0  0  0  0
 11 10  1  0  0  0  0
 12 11  2  0  0  0  0
 13  8  2  0  0  0  0
 13 12  1  0  0  0  0
 14  8  1  0  0  0  0
 16 12  1  0  0  0  0
 17 18  1  0  0  0  0
 18 19  2  0  0  0  0
 18 25  1  0  0  0  0
 19 20  1  0  0  0  0
 20 21  1  0  0  0  0
 20 22  2  0  0  0  0
 22 23  1  0  0  0  0
 24 22  1  0  0  0  0
 25 24  2  0  0  0  0
M  END
>  <minimizedAffinity>
-4.67017078

$$$$

 OpenBabel03272500453D

 25 27  0  0  0  0  0  0  0  0999 V2000
   37.1140   24.7840   32.8870 C   0  0  0  0  0  0  0  0  0  0  0  0
   36.3890   25.2690   31.7970 C   0  0  0  0  0  0  0  0  0  0  0  0
   35.8950   24.1760   31.1000 C   0  0  0  0  0  0  0  0  0  0  0  0
   36.3160   23.0800   31.7640 N   0  0  0  0  0  0  0  0  0  0  0  0
   37.0290   23.4710   32.8060 N   0  0  0  0  0  0  0  0  0  0  0  0
   36.1810   26.2790   31.4530 H   0  0  0  0  0  0  0  0  0  0  0  0
   35.3010   24.0680   30.2230 H   0  0  0  0  0  0  0  0  0  0  0  0
   37.1190   26.7350   34.4640 C   0  0  0  0  0  0  0  0  0  0  0  0
   37.7770   25.6560   33.8390 C   0  0  0  0  0  0  0  0  0  0  0  0
   39.1090   25.4370   34.1600 C   0  0  0  0  0  0  0  0  0  0  0  0
   39.7150   26.2680   35.0550 N   0  0  0  0  0  0  0  0  0  0  0  0
   39.0390   27.2980   35.6370 C   0  0  0  0  0  0  0  0  0  0  0  0
   37.7510   27.5300   35.3430 N   0  0  0  0  0  0  0  0  0  0  0  0
   36.0850   26.8240   34.1510 H   0  0  0  0  0  0  0  0  0  0  0  0
   39.7000   24.6280   33.7260 H   0  0  0  0  0  0  0  0  0  0  0  0
   39.5380   27.9550   36.3530 H   0  0  0  0  0  0  0  0  0  0  0  0
   38.4910   21.8410   30.1780 Cl  0  0  0  0  0  0  0  0  0  0  0  0
   37.1400   20.9880   30.8570 C   0  0  0  0  0  0  0  0  0  0  0  0
   36.1670   21.6750   31.5910 C   0  0  0  0  0  0  0  0  0  0  0  0
   35.0720   21.0450   32.1520 C   0  0  0  0  0  0  0  0  0  0  0  0
   34.3310   21.5920   32.7150 H   0  0  0  0  0  0  0  0  0  0  0  0
   34.9550   19.6700   31.9640 C   0  0  0  0  0  0  0  0  0  0  0  0
   34.0820   19.1870   32.4160 H   0  0  0  0  0  0  0  0  0  0  0  0
   35.8960   18.9510   31.2450 C   0  0  0  0  0  3  0  0  0  0  0  0
   36.9950   19.6060   30.6860 C   0  0  0  0  0  3  0  0  0  0  0  0
  1  9  1  0  0  0  0
  2  1  1  0  0  0  0
  3  4  1  0  0  0  0
  3  2  2  0  0  0  0
  4  5  1  0  0  0  0
  5  1  2  0  0  0  0
  6  2  1  0  0  0  0
  7  3  1  0  0  0  0
  8 13  1  0  0  0  0
  9 10  1  0  0  0  0
  9  8  2  0  0  0  0
 10 11  2  0  0  0  0
 11 12  1  0  0  0  0
 12 16  1  0  0  0  0
 13 12  2  0  0  0  0
 14  8  1  0  0  0  0
 15 10  1  0  0  0  0
 17 18  1  0  0  0  0
 18 19  1  0  0  0  0
 19  4  1  0  0  0  0
 19 20  2  0  0  0  0
 20 21  1  0  0  0  0
 22 20  1  0  0  0  0
 22 23  1  0  0  0  0
 24 22  2  0  0  0  0
 25 18  2  0  0  0  0
 25 24  1  0  0  0  0
M  END
>  <minimizedAffinity>
-4.585361

$$$$

 OpenBabel03272500453D

 25 27  0  0  0  0  0  0  0  0999 V2000
   38.7770   25.5730   35.4490 C   0  0  0  0  0  0  0  0  0  0  0  0
   38.4140   26.7110   36.1700 C   0  0  0  0  0  0  0  0  0  0  0  0
   37.9070   27.6360   35.2690 C   0  0  0  0  0  0  0  0  0  0  0  0
   37.9710   27.0550   34.0520 N   0  0  0  0  0  0  0  0  0  0  0  0
   38.4860   25.8460   34.1930 N   0  0  0  0  0  0  0  0  0  0  0  0
   38.4680   26.9500   37.2290 H   0  0  0  0  0  0  0  0  0  0  0  0
   37.5180   28.6220   35.3650 H   0  0  0  0  0  0  0  0  0  0  0  0
   40.5090   23.7620   35.5850 C   0  0  0  0  0  0  0  0  0  0  0  0
   39.3490   24.3960   36.0780 C   0  0  0  0  0  0  0  0  0  0  0  0
   38.7480   23.8570   37.2070 C   0  0  0  0  0  0  0  0  0  0  0  0
   39.3000   22.7510   37.7810 N   0  0  0  0  0  0  0  0  0  0  0  0
   40.4230   22.1720   37.2720 C   0  0  0  0  0  0  0  0  0  0  0  0
   41.0220   22.6740   36.1820 N   0  0  0  0  0  0  0  0  0  0  0  0
   40.9040   24.2540   34.7040 H   0  0  0  0  0  0  0  0  0  0  0  0
   37.8480   24.2780   37.6590 H   0  0  0  0  0  0  0  0  0  0  0  0
   40.8540   21.2860   37.7440 H   0  0  0  0  0  0  0  0  0  0  0  0
   40.2960   27.2800   32.2310 Cl  0  0  0  0  0  0  0  0  0  0  0  0
   38.6460   27.5810   31.7850 C   0  0  0  0  0  0  0  0  0  0  0  0
   37.6230   27.4440   32.7280 C   0  0  0  0  0  0  0  0  0  0  0  0
   36.2930   27.6720   32.4260 C   0  0  0  0  0  0  0  0  0  0  0  0
   35.5170   27.5620   33.1680 H   0  0  0  0  0  0  0  0  0  0  0  0
   35.9860   28.0510   31.1220 C   0  0  0  0  0  0  0  0  0  0  0  0
   34.9280   28.2270   30.8990 H   0  0  0  0  0  0  0  0  0  0  0  0
   36.9690   28.1970   30.1560 C   0  0  0  0  0  3  0  0  0  0  0  0
   38.3060   27.9630   30.4820 C   0  0  0  0  0  3  0  0  0  0  0  0
  1  9  1  0  0  0  0
  1  2  1  0  0  0  0
  2  6  1  0  0  0  0
  3  7  1  0  0  0  0
  3  2  2  0  0  0  0
  4  5  1  0  0  0  0
  4  3  1  0  0  0  0
  5  1  2  0  0  0  0
  8  9  2  0  0  0  0
  8 13  1  0  0  0  0
  9 10  1  0  0  0  0
 10 15  1  0  0  0  0
 10 11  2  0  0  0  0
 12 16  1  0  0  0  0
 12 11  1  0  0  0  0
 13 12  2  0  0  0  0
 14  8  1  0  0  0  0
 18 17  1  0  0  0  0
 18 19  1  0  0  0  0
 19  4  1  0  0  0  0
 20 19  2  0  0  0  0
 20 21  1  0  0  0  0
 22 20  1  0  0  0  0
 23 22  1  0  0  0  0
 24 25  1  0  0  0  0
 24 22  2  0  0  0  0
 25 18  2  0  0  0  0
M  END
>  <minimizedAffinity>
-4.54123163

$$$$
