
 OpenBabel03272507523D

 32 34  0  0  0  0  0  0  0  0999 V2000
   36.3430   31.1810   48.8710 N   0  0  0  0  0  0  0  0  0  0  0  0
   36.5060   32.0440   49.8680 C   0  0  0  0  0  0  0  0  0  0  0  0
   37.5830   32.9290   49.8650 C   0  0  0  0  0  0  0  0  0  0  0  0
   38.4070   32.8120   48.7750 C   0  0  0  0  0  0  0  0  0  0  0  0
   39.3840   33.6260   48.7880 O   0  0  0  0  0  0  0  0  0  0  0  0
   38.2800   31.9580   47.7520 N   0  0  0  0  0  0  0  0  0  0  0  0
   37.2150   31.1330   47.8230 C   0  0  0  0  0  0  0  0  0  0  0  0
   37.0790   30.3200   46.8640 O   0  0  0  0  0  0  0  0  0  0  0  0
   35.8010   32.0670   50.6930 H   0  0  0  0  0  0  0  0  0  0  0  0
   37.7340   33.6330   50.6570 H   0  0  0  0  0  0  0  0  0  0  0  0
   39.9150   34.4460   47.1680 Cl  0  0  0  0  0  0  0  0  0  0  0  0
   40.0150   32.9520   46.2600 C   0  0  0  0  0  0  0  0  0  0  0  0
   39.1950   31.9180   46.6640 C   0  0  0  0  0  0  0  0  0  0  0  0
   39.2000   30.7010   46.0130 C   0  0  0  0  0  0  0  0  0  0  0  0
   38.5870   29.8490   46.2750 H   0  0  0  0  0  0  0  0  0  0  0  0
   40.0500   30.5150   44.9260 C   0  0  0  0  0  0  0  0  0  0  0  0
   40.0910   29.5650   44.3740 H   0  0  0  0  0  0  0  0  0  0  0  0
   40.8860   31.5500   44.5020 C   0  0  0  0  0  3  0  0  0  0  0  0
   40.8710   32.7790   45.1700 C   0  0  0  0  0  3  0  0  0  0  0  0
   35.0630   29.4210   49.9470 C   0  0  0  0  0  0  0  0  0  0  0  0
   35.2570   30.2450   48.8260 C   0  0  0  0  0  0  0  0  0  0  0  0
   34.3960   30.1220   47.7210 C   0  0  0  0  0  0  0  0  0  0  0  0
   33.4110   29.1930   47.8100 N   0  0  0  0  0  0  0  0  0  0  0  0
   33.2270   28.4160   48.8630 C   0  0  0  0  0  0  0  0  0  0  0  0
   34.0480   28.5290   49.9240 N   0  0  0  0  0  0  0  0  0  0  0  0
   34.6300   30.7920   46.9280 H   0  0  0  0  0  0  0  0  0  0  0  0
   32.4210   27.6910   48.8790 H   0  0  0  0  0  0  0  0  0  0  0  0
   37.2380   29.1300   51.3590 C   0  0  0  0  0  0  0  0  0  0  0  0
   37.9680   28.6460   50.4630 O   0  0  0  0  0  0  0  0  0  0  0  0
   35.8630   29.4740   51.1090 N   0  0  0  0  0  0  0  0  0  0  0  0
   37.7040   29.2700   52.3210 H   0  0  0  0  0  0  0  0  0  0  0  0
   35.4130   29.8340   52.0070 H   0  0  0  0  0  0  0  0  0  0  0  0
  1  2  1  0  0  0  0
  2  9  1  0  0  0  0
  3  2  2  0  0  0  0
  3 10  1  0  0  0  0
  4  5  2  0  0  0  0
  4  3  1  0  0  0  0
  6  7  1  0  0  0  0
  6  4  1  0  0  0  0
  7  1  1  0  0  0  0
  8  7  2  0  0  0  0
 12 13  1  0  0  0  0
 12 11  1  0  0  0  0
 13  6  1  0  0  0  0
 14 15  1  0  0  0  0
 14 13  2  0  0  0  0
 16 14  1  0  0  0  0
 17 16  1  0  0  0  0
 18 16  2  0  0  0  0
 18 19  1  0  0  0  0
 19 12  2  0  0  0  0
 20 30  1  0  0  0  0
 21  1  1  0  0  0  0
 21 20  2  0  0  0  0
 22 23  2  0  0  0  0
 22 21  1  0  0  0  0
 23 24  1  0  0  0  0
 24 27  1  0  0  0  0
 24 25  2  0  0  0  0
 25 20  1  0  0  0  0
 26 22  1  0  0  0  0
 28 31  1  0  0  0  0
 29 28  2  0  0  0  0
 30 28  1  0  0  0  0
 30 32  1  0  0  0  0
M  END
>  <minimizedAffinity>
-6.10822487

>  <minimizedRMSD>
1.11889434

$$$$
