
 OpenBabel03272510113D

 35 38  0  0  0  0  0  0  0  0999 V2000
   32.3810   28.0560   49.1010 C   0  0  0  0  0  0  0  0  0  0  0  0
   32.7960   28.9590   50.0160 C   0  0  0  0  0  0  0  0  0  0  0  0
   34.1040   29.3270   50.2400 C   0  0  0  0  0  0  0  0  0  0  0  0
   35.0920   28.7500   49.4900 C   0  0  0  0  0  0  0  0  0  0  0  0
   34.6790   27.8210   48.5470 C   0  0  0  0  0  0  0  0  0  0  0  0
   33.3800   27.5040   48.3770 N   0  0  0  0  0  0  0  0  0  0  0  0
   32.0830   29.4730   50.6600 H   0  0  0  0  0  0  0  0  0  0  0  0
   34.4260   30.0530   50.9770 H   0  0  0  0  0  0  0  0  0  0  0  0
   35.4010   27.3170   47.9110 H   0  0  0  0  0  0  0  0  0  0  0  0
   29.9880   27.8440   49.8460 C   0  0  0  0  0  0  0  0  0  0  0  0
   31.0100   27.6930   48.8910 C   0  0  0  0  0  0  0  0  0  0  0  0
   30.6260   27.1530   47.6730 C   0  0  0  0  0  0  0  0  0  0  0  0
   29.3220   26.8050   47.4670 N   0  0  0  0  0  0  0  0  0  0  0  0
   28.3960   26.9770   48.4270 C   0  0  0  0  0  0  0  0  0  0  0  0
   28.7170   27.4990   49.6320 N   0  0  0  0  0  0  0  0  0  0  0  0
   30.2530   28.2580   50.7960 H   0  0  0  0  0  0  0  0  0  0  0  0
   31.3290   26.9930   46.8650 H   0  0  0  0  0  0  0  0  0  0  0  0
   27.3750   26.6860   48.2180 H   0  0  0  0  0  0  0  0  0  0  0  0
   36.4630   29.0030   49.5800 O   0  0  0  0  0  0  0  0  0  0  0  0
   37.0460   30.0610   48.8910 C   0  0  0  0  0  0  0  0  0  0  0  0
   37.1210   31.2390   49.6480 C   0  0  0  0  0  0  0  0  0  0  0  0
   37.7150   32.2210   48.8640 C   0  0  0  0  0  0  0  0  0  0  0  0
   37.9730   31.6200   47.6900 N   0  0  0  0  0  0  0  0  0  0  0  0
   37.5860   30.3690   47.7000 N   0  0  0  0  0  0  0  0  0  0  0  0
   36.8300   31.5370   50.6650 H   0  0  0  0  0  0  0  0  0  0  0  0
   37.9590   33.2580   49.0550 H   0  0  0  0  0  0  0  0  0  0  0  0
   36.5550   30.9970   45.1470 Cl  0  0  0  0  0  0  0  0  0  0  0  0
   38.0210   31.9490   45.2670 C   0  0  0  0  0  0  0  0  0  0  0  0
   38.5770   32.1630   46.5200 C   0  0  0  0  0  0  0  0  0  0  0  0
   39.7310   32.9170   46.5840 C   0  0  0  0  0  0  0  0  0  0  0  0
   40.2020   33.1100   47.5480 H   0  0  0  0  0  0  0  0  0  0  0  0
   40.3720   33.4740   45.4970 C   0  0  0  0  0  0  0  0  0  0  0  0
   41.2740   34.0600   45.5830 H   0  0  0  0  0  0  0  0  0  0  0  0
   39.7780   33.2340   44.2560 C   0  0  0  0  0  3  0  0  0  0  0  0
   38.6250   32.4870   44.1310 C   0  0  0  0  0  3  0  0  0  0  0  0
  1  2  1  0  0  0  0
  2  3  2  0  0  0  0
  2  7  1  0  0  0  0
  3  8  1  0  0  0  0
  4 19  1  0  0  0  0
  4  3  1  0  0  0  0
  5  4  2  0  0  0  0
  6  5  1  0  0  0  0
  6  1  2  0  0  0  0
  9  5  1  0  0  0  0
 10 16  1  0  0  0  0
 11  1  1  0  0  0  0
 11 10  2  0  0  0  0
 12 11  1  0  0  0  0
 13 12  2  0  0  0  0
 13 14  1  0  0  0  0
 14 15  2  0  0  0  0
 15 10  1  0  0  0  0
 17 12  1  0  0  0  0
 18 14  1  0  0  0  0
 20 19  1  0  0  0  0
 20 21  1  0  0  0  0
 21 25  1  0  0  0  0
 22 26  1  0  0  0  0
 22 21  2  0  0  0  0
 23 24  1  0  0  0  0
 23 22  1  0  0  0  0
 24 20  2  0  0  0  0
 27 28  1  0  0  0  0
 28 29  1  0  0  0  0
 29 30  2  0  0  0  0
 29 23  1  0  0  0  0
 30 31  1  0  0  0  0
 32 33  1  0  0  0  0
 32 30  1  0  0  0  0
 34 32  2  0  0  0  0
 35 34  1  0  0  0  0
 35 28  2  0  0  0  0
M  END
>  <minimizedAffinity>
-5.99157047

>  <minimizedRMSD>
2.11498237

$$$$
