
 OpenBabel03272507533D

 32 34  0  0  0  0  0  0  0  0999 V2000
   38.2900   23.5650   34.8190 N   0  0  0  0  0  0  0  0  0  0  0  0
   38.7100   24.5160   33.9910 C   0  0  0  0  0  0  0  0  0  0  0  0
   38.4950   24.3990   32.6190 C   0  0  0  0  0  0  0  0  0  0  0  0
   37.8380   23.2550   32.2450 C   0  0  0  0  0  0  0  0  0  0  0  0
   37.6510   23.1650   30.9910 O   0  0  0  0  0  0  0  0  0  0  0  0
   37.4000   22.2750   33.0450 N   0  0  0  0  0  0  0  0  0  0  0  0
   37.6430   22.4560   34.3590 C   0  0  0  0  0  0  0  0  0  0  0  0
   37.2360   21.5400   35.1290 O   0  0  0  0  0  0  0  0  0  0  0  0
   39.2220   25.3910   34.3770 H   0  0  0  0  0  0  0  0  0  0  0  0
   38.8240   25.1530   31.9330 H   0  0  0  0  0  0  0  0  0  0  0  0
   39.0800   19.9180   32.1320 Cl  0  0  0  0  0  0  0  0  0  0  0  0
   37.3290   19.9680   32.0990 C   0  0  0  0  0  0  0  0  0  0  0  0
   36.7260   21.1230   32.5530 C   0  0  0  0  0  0  0  0  0  0  0  0
   35.3530   21.2590   32.5670 C   0  0  0  0  0  0  0  0  0  0  0  0
   34.8140   22.1330   32.9080 H   0  0  0  0  0  0  0  0  0  0  0  0
   34.5620   20.2070   32.1130 C   0  0  0  0  0  0  0  0  0  0  0  0
   33.4630   20.2670   32.1040 H   0  0  0  0  0  0  0  0  0  0  0  0
   35.1540   19.0290   31.6500 C   0  0  0  0  0  3  0  0  0  0  0  0
   36.5470   18.9060   31.6410 C   0  0  0  0  0  3  0  0  0  0  0  0
   39.5490   22.8850   36.7810 C   0  0  0  0  0  0  0  0  0  0  0  0
   38.4890   23.6310   36.2380 C   0  0  0  0  0  0  0  0  0  0  0  0
   37.6770   24.3990   37.0920 C   0  0  0  0  0  0  0  0  0  0  0  0
   37.9750   24.3690   38.4150 N   0  0  0  0  0  0  0  0  0  0  0  0
   38.9700   23.6670   38.9280 C   0  0  0  0  0  0  0  0  0  0  0  0
   39.7520   22.9300   38.1170 N   0  0  0  0  0  0  0  0  0  0  0  0
   36.9060   24.9250   36.5790 H   0  0  0  0  0  0  0  0  0  0  0  0
   39.1620   23.6810   39.9950 H   0  0  0  0  0  0  0  0  0  0  0  0
   41.6370   22.4010   35.2930 C   0  0  0  0  0  0  0  0  0  0  0  0
   42.0870   23.5690   35.2350 O   0  0  0  0  0  0  0  0  0  0  0  0
   40.4270   22.0930   36.0100 N   0  0  0  0  0  0  0  0  0  0  0  0
   42.2090   21.6490   34.7750 H   0  0  0  0  0  0  0  0  0  0  0  0
   40.2010   21.0550   35.9060 H   0  0  0  0  0  0  0  0  0  0  0  0
  1 21  1  0  0  0  0
  2  9  1  0  0  0  0
  2  1  1  0  0  0  0
  3  2  2  0  0  0  0
  4  3  1  0  0  0  0
  4  6  1  0  0  0  0
  5  4  2  0  0  0  0
  6  7  1  0  0  0  0
  7  1  1  0  0  0  0
  7  8  2  0  0  0  0
 10  3  1  0  0  0  0
 12 11  1  0  0  0  0
 12 13  1  0  0  0  0
 13 14  2  0  0  0  0
 13  6  1  0  0  0  0
 14 15  1  0  0  0  0
 16 14  1  0  0  0  0
 17 16  1  0  0  0  0
 18 16  2  0  0  0  0
 19 18  1  0  0  0  0
 19 12  2  0  0  0  0
 20 25  1  0  0  0  0
 21 20  2  0  0  0  0
 21 22  1  0  0  0  0
 22 23  2  0  0  0  0
 23 24  1  0  0  0  0
 24 27  1  0  0  0  0
 25 24  2  0  0  0  0
 26 22  1  0  0  0  0
 28 30  1  0  0  0  0
 29 28  2  0  0  0  0
 30 20  1  0  0  0  0
 31 28  1  0  0  0  0
 32 30  1  0  0  0  0
M  END
>  <minimizedAffinity>
-5.45350456

$$$$

 OpenBabel03272507533D

 32 34  0  0  0  0  0  0  0  0999 V2000
   38.6900   22.5760   33.9940 N   0  0  0  0  0  0  0  0  0  0  0  0
   37.8010   21.6780   33.5820 C   0  0  0  0  0  0  0  0  0  0  0  0
   36.8000   22.0400   32.6820 C   0  0  0  0  0  0  0  0  0  0  0  0
   36.8370   23.3550   32.2950 C   0  0  0  0  0  0  0  0  0  0  0  0
   35.9170   23.6680   31.4750 O   0  0  0  0  0  0  0  0  0  0  0  0
   37.7120   24.2900   32.6860 N   0  0  0  0  0  0  0  0  0  0  0  0
   38.6520   23.8670   33.5560 C   0  0  0  0  0  0  0  0  0  0  0  0
   39.4870   24.7370   33.9350 O   0  0  0  0  0  0  0  0  0  0  0  0
   37.8490   20.6550   33.9420 H   0  0  0  0  0  0  0  0  0  0  0  0
   36.0740   21.3340   32.3360 H   0  0  0  0  0  0  0  0  0  0  0  0
   39.1400   24.9580   30.0930 Cl  0  0  0  0  0  0  0  0  0  0  0  0
   38.2530   26.1100   31.0690 C   0  0  0  0  0  0  0  0  0  0  0  0
   37.6630   25.6330   32.2210 C   0  0  0  0  0  0  0  0  0  0  0  0
   36.9420   26.4630   33.0560 C   0  0  0  0  0  0  0  0  0  0  0  0
   36.4550   26.1580   33.9730 H   0  0  0  0  0  0  0  0  0  0  0  0
   36.8100   27.8090   32.7260 C   0  0  0  0  0  0  0  0  0  0  0  0
   36.2450   28.5100   33.3590 H   0  0  0  0  0  0  0  0  0  0  0  0
   37.3990   28.3110   31.5630 C   0  0  0  0  0  3  0  0  0  0  0  0
   38.1270   27.4580   30.7270 C   0  0  0  0  0  3  0  0  0  0  0  0
   39.4250   22.3000   36.2920 C   0  0  0  0  0  0  0  0  0  0  0  0
   39.7370   22.2590   34.9220 C   0  0  0  0  0  0  0  0  0  0  0  0
   41.0410   21.9190   34.5210 C   0  0  0  0  0  0  0  0  0  0  0  0
   41.9350   21.6450   35.5040 N   0  0  0  0  0  0  0  0  0  0  0  0
   41.6450   21.6830   36.7920 C   0  0  0  0  0  0  0  0  0  0  0  0
   40.3990   22.0090   37.1840 N   0  0  0  0  0  0  0  0  0  0  0  0
   41.1690   21.9170   33.4640 H   0  0  0  0  0  0  0  0  0  0  0  0
   42.4010   21.4540   37.5350 H   0  0  0  0  0  0  0  0  0  0  0  0
   37.5270   23.8660   37.1590 C   0  0  0  0  0  0  0  0  0  0  0  0
   38.1490   24.9520   37.0910 O   0  0  0  0  0  0  0  0  0  0  0  0
   38.1460   22.6180   36.7970 N   0  0  0  0  0  0  0  0  0  0  0  0
   36.5080   23.9280   37.5030 H   0  0  0  0  0  0  0  0  0  0  0  0
   37.4620   21.8160   36.9600 H   0  0  0  0  0  0  0  0  0  0  0  0
  1 21  1  0  0  0  0
  2  9  1  0  0  0  0
  2  1  1  0  0  0  0
  3  2  2  0  0  0  0
  4  3  1  0  0  0  0
  4  6  1  0  0  0  0
  5  4  2  0  0  0  0
  6  7  1  0  0  0  0
  7  8  2  0  0  0  0
  7  1  1  0  0  0  0
 10  3  1  0  0  0  0
 11 12  1  0  0  0  0
 12 13  1  0  0  0  0
 13  6  1  0  0  0  0
 13 14  2  0  0  0  0
 14 15  1  0  0  0  0
 16 14  1  0  0  0  0
 16 17  1  0  0  0  0
 18 16  2  0  0  0  0
 19 12  2  0  0  0  0
 19 18  1  0  0  0  0
 20 30  1  0  0  0  0
 20 25  1  0  0  0  0
 21 20  2  0  0  0  0
 22 21  1  0  0  0  0
 22 23  2  0  0  0  0
 23 24  1  0  0  0  0
 24 25  2  0  0  0  0
 24 27  1  0  0  0  0
 26 22  1  0  0  0  0
 28 31  1  0  0  0  0
 29 28  2  0  0  0  0
 30 32  1  0  0  0  0
 30 28  1  0  0  0  0
M  END
>  <minimizedAffinity>
-5.3647089

$$$$

 OpenBabel03272507533D

 32 34  0  0  0  0  0  0  0  0999 V2000
   37.1580   28.5420   31.7510 N   0  0  0  0  0  0  0  0  0  0  0  0
   37.1640   29.2970   30.6580 C   0  0  0  0  0  0  0  0  0  0  0  0
   36.4260   30.4790   30.6160 C   0  0  0  0  0  0  0  0  0  0  0  0
   35.7340   30.7550   31.7670 C   0  0  0  0  0  0  0  0  0  0  0  0
   35.0680   31.8360   31.7110 O   0  0  0  0  0  0  0  0  0  0  0  0
   35.7020   30.0230   32.8870 N   0  0  0  0  0  0  0  0  0  0  0  0
   36.4390   28.8930   32.8550 C   0  0  0  0  0  0  0  0  0  0  0  0
   36.4190   28.1890   33.9050 O   0  0  0  0  0  0  0  0  0  0  0  0
   37.7430   29.0000   29.7890 H   0  0  0  0  0  0  0  0  0  0  0  0
   36.4160   31.1040   29.7460 H   0  0  0  0  0  0  0  0  0  0  0  0
   32.8110   29.1170   33.0550 Cl  0  0  0  0  0  0  0  0  0  0  0  0
   33.6280   30.0770   34.2710 C   0  0  0  0  0  0  0  0  0  0  0  0
   34.9480   30.4000   34.0320 C   0  0  0  0  0  0  0  0  0  0  0  0
   35.6770   31.1520   34.9300 C   0  0  0  0  0  0  0  0  0  0  0  0
   36.7120   31.4420   34.8080 H   0  0  0  0  0  0  0  0  0  0  0  0
   35.0660   31.5930   36.1000 C   0  0  0  0  0  0  0  0  0  0  0  0
   35.6050   32.1950   36.8480 H   0  0  0  0  0  0  0  0  0  0  0  0
   33.7310   31.2760   36.3610 C   0  0  0  0  0  3  0  0  0  0  0  0
   33.0030   30.5140   35.4420 C   0  0  0  0  0  3  0  0  0  0  0  0
   37.3100   26.1620   31.2930 C   0  0  0  0  0  0  0  0  0  0  0  0
   37.8940   27.3130   31.8470 C   0  0  0  0  0  0  0  0  0  0  0  0
   39.1520   27.2200   32.4670 C   0  0  0  0  0  0  0  0  0  0  0  0
   39.7370   25.9960   32.4900 N   0  0  0  0  0  0  0  0  0  0  0  0
   39.1900   24.9110   31.9710 C   0  0  0  0  0  0  0  0  0  0  0  0
   37.9850   24.9930   31.3770 N   0  0  0  0  0  0  0  0  0  0  0  0
   39.5020   28.1490   32.8520 H   0  0  0  0  0  0  0  0  0  0  0  0
   39.7040   23.9570   32.0190 H   0  0  0  0  0  0  0  0  0  0  0  0
   34.9110   25.2910   30.7530 C   0  0  0  0  0  0  0  0  0  0  0  0
   34.9050   24.2990   31.5200 O   0  0  0  0  0  0  0  0  0  0  0  0
   36.0590   26.1520   30.6410 N   0  0  0  0  0  0  0  0  0  0  0  0
   34.0070   25.4540   30.1890 H   0  0  0  0  0  0  0  0  0  0  0  0
   35.8710   26.9090   29.9120 H   0  0  0  0  0  0  0  0  0  0  0  0
  1 21  1  0  0  0  0
  1  7  1  0  0  0  0
  2  1  1  0  0  0  0
  3  2  2  0  0  0  0
  3  4  1  0  0  0  0
  4  6  1  0  0  0  0
  5  4  2  0  0  0  0
  6 13  1  0  0  0  0
  7  6  1  0  0  0  0
  7  8  2  0  0  0  0
  9  2  1  0  0  0  0
 10  3  1  0  0  0  0
 11 12  1  0  0  0  0
 12 19  1  0  0  0  0
 13 12  2  0  0  0  0
 13 14  1  0  0  0  0
 14 16  2  0  0  0  0
 15 14  1  0  0  0  0
 16 18  1  0  0  0  0
 16 17  1  0  0  0  0
 19 18  2  0  0  0  0
 20 25  2  0  0  0  0
 20 21  1  0  0  0  0
 21 22  2  0  0  0  0
 22 23  1  0  0  0  0
 22 26  1  0  0  0  0
 24 27  1  0  0  0  0
 24 23  2  0  0  0  0
 25 24  1  0  0  0  0
 28 29  2  0  0  0  0
 30 28  1  0  0  0  0
 30 20  1  0  0  0  0
 31 28  1  0  0  0  0
 32 30  1  0  0  0  0
M  END
>  <minimizedAffinity>
-5.36242962

$$$$

 OpenBabel03272507533D

 32 34  0  0  0  0  0  0  0  0999 V2000
   39.1380   23.7970   34.2860 N   0  0  0  0  0  0  0  0  0  0  0  0
   38.6960   25.0330   34.0810 C   0  0  0  0  0  0  0  0  0  0  0  0
   37.6090   25.2600   33.2380 C   0  0  0  0  0  0  0  0  0  0  0  0
   37.0810   24.1260   32.6780 C   0  0  0  0  0  0  0  0  0  0  0  0
   36.0920   24.3510   31.9120 O   0  0  0  0  0  0  0  0  0  0  0  0
   37.4970   22.8660   32.8580 N   0  0  0  0  0  0  0  0  0  0  0  0
   38.5520   22.7230   33.6860 C   0  0  0  0  0  0  0  0  0  0  0  0
   38.9570   21.5390   33.8670 O   0  0  0  0  0  0  0  0  0  0  0  0
   39.1760   25.8760   34.5680 H   0  0  0  0  0  0  0  0  0  0  0  0
   37.2350   26.2470   33.0580 H   0  0  0  0  0  0  0  0  0  0  0  0
   38.5760   21.9650   30.1690 Cl  0  0  0  0  0  0  0  0  0  0  0  0
   37.2360   21.2120   31.0090 C   0  0  0  0  0  0  0  0  0  0  0  0
   36.8760   21.7530   32.2260 C   0  0  0  0  0  0  0  0  0  0  0  0
   35.8340   21.2300   32.9640 C   0  0  0  0  0  0  0  0  0  0  0  0
   35.4980   21.6020   33.9230 H   0  0  0  0  0  0  0  0  0  0  0  0
   35.1320   20.1350   32.4670 C   0  0  0  0  0  0  0  0  0  0  0  0
   34.2940   19.6820   33.0180 H   0  0  0  0  0  0  0  0  0  0  0  0
   35.4820   19.5730   31.2380 C   0  0  0  0  0  3  0  0  0  0  0  0
   36.5400   20.1130   30.5000 C   0  0  0  0  0  3  0  0  0  0  0  0
   39.9830   22.9610   36.4040 C   0  0  0  0  0  0  0  0  0  0  0  0
   40.2560   23.5070   35.1380 C   0  0  0  0  0  0  0  0  0  0  0  0
   41.5890   23.7460   34.7630 C   0  0  0  0  0  0  0  0  0  0  0  0
   42.5490   23.4270   35.6670 N   0  0  0  0  0  0  0  0  0  0  0  0
   42.2950   22.9140   36.8580 C   0  0  0  0  0  0  0  0  0  0  0  0
   41.0200   22.6830   37.2240 N   0  0  0  0  0  0  0  0  0  0  0  0
   41.6840   24.1600   33.7870 H   0  0  0  0  0  0  0  0  0  0  0  0
   43.1040   22.6780   37.5400 H   0  0  0  0  0  0  0  0  0  0  0  0
   37.7410   23.4270   37.6560 C   0  0  0  0  0  0  0  0  0  0  0  0
   38.0220   24.5630   38.1040 O   0  0  0  0  0  0  0  0  0  0  0  0
   38.6820   22.6720   36.8710 N   0  0  0  0  0  0  0  0  0  0  0  0
   36.7580   23.0560   37.8960 H   0  0  0  0  0  0  0  0  0  0  0  0
   38.2620   21.7230   36.6210 H   0  0  0  0  0  0  0  0  0  0  0  0
  1 21  1  0  0  0  0
  2  1  1  0  0  0  0
  2  9  1  0  0  0  0
  3  2  2  0  0  0  0
  4  6  1  0  0  0  0
  4  3  1  0  0  0  0
  5  4  2  0  0  0  0
  6  7  1  0  0  0  0
  7  8  2  0  0  0  0
  7  1  1  0  0  0  0
 10  3  1  0  0  0  0
 11 12  1  0  0  0  0
 12 13  1  0  0  0  0
 13  6  1  0  0  0  0
 13 14  2  0  0  0  0
 14 15  1  0  0  0  0
 16 14  1  0  0  0  0
 16 17  1  0  0  0  0
 18 16  2  0  0  0  0
 19 12  2  0  0  0  0
 19 18  1  0  0  0  0
 20 30  1  0  0  0  0
 20 25  1  0  0  0  0
 21 20  2  0  0  0  0
 22 21  1  0  0  0  0
 22 23  2  0  0  0  0
 23 24  1  0  0  0  0
 24 25  2  0  0  0  0
 24 27  1  0  0  0  0
 26 22  1  0  0  0  0
 28 31  1  0  0  0  0
 28 29  2  0  0  0  0
 30 28  1  0  0  0  0
 32 30  1  0  0  0  0
M  END
>  <minimizedAffinity>
-5.33976889

$$$$

 OpenBabel03272507533D

 32 34  0  0  0  0  0  0  0  0999 V2000
   36.2760   28.7940   32.2470 N   0  0  0  0  0  0  0  0  0  0  0  0
   36.7260   29.5930   31.2860 C   0  0  0  0  0  0  0  0  0  0  0  0
   36.5550   30.9740   31.3800 C   0  0  0  0  0  0  0  0  0  0  0  0
   35.9050   31.3860   32.5150 C   0  0  0  0  0  0  0  0  0  0  0  0
   35.7580   32.6470   32.5850 O   0  0  0  0  0  0  0  0  0  0  0  0
   35.4370   30.6160   33.5040 N   0  0  0  0  0  0  0  0  0  0  0  0
   35.6390   29.2920   33.3450 C   0  0  0  0  0  0  0  0  0  0  0  0
   35.2020   28.5500   34.2710 O   0  0  0  0  0  0  0  0  0  0  0  0
   37.2320   29.1780   30.4190 H   0  0  0  0  0  0  0  0  0  0  0  0
   36.9100   31.6370   30.6180 H   0  0  0  0  0  0  0  0  0  0  0  0
   32.4150   30.8740   33.4090 Cl  0  0  0  0  0  0  0  0  0  0  0  0
   33.4130   31.3330   34.7730 C   0  0  0  0  0  0  0  0  0  0  0  0
   34.7740   31.1470   34.6450 C   0  0  0  0  0  0  0  0  0  0  0  0
   35.6430   31.4770   35.6650 C   0  0  0  0  0  0  0  0  0  0  0  0
   36.7180   31.3590   35.6330 H   0  0  0  0  0  0  0  0  0  0  0  0
   35.1330   32.0100   36.8460 C   0  0  0  0  0  0  0  0  0  0  0  0
   35.7850   32.2890   37.6880 H   0  0  0  0  0  0  0  0  0  0  0  0
   33.7580   32.2040   36.9950 C   0  0  0  0  0  3  0  0  0  0  0  0
   32.8890   31.8660   35.9530 C   0  0  0  0  0  3  0  0  0  0  0  0
   37.3940   26.7840   33.0260 C   0  0  0  0  0  0  0  0  0  0  0  0
   36.4200   27.3680   32.1980 C   0  0  0  0  0  0  0  0  0  0  0  0
   35.6390   26.5460   31.3670 C   0  0  0  0  0  0  0  0  0  0  0  0
   35.8810   25.2120   31.4180 N   0  0  0  0  0  0  0  0  0  0  0  0
   36.7960   24.6610   32.1950 C   0  0  0  0  0  0  0  0  0  0  0  0
   37.5480   25.4420   32.9930 N   0  0  0  0  0  0  0  0  0  0  0  0
   34.9320   27.0880   30.7830 H   0  0  0  0  0  0  0  0  0  0  0  0
   36.9460   23.5870   32.1940 H   0  0  0  0  0  0  0  0  0  0  0  0
   38.5100   27.3820   35.3080 C   0  0  0  0  0  0  0  0  0  0  0  0
   37.9610   26.5010   36.0100 O   0  0  0  0  0  0  0  0  0  0  0  0
   38.2200   27.5180   33.9040 N   0  0  0  0  0  0  0  0  0  0  0  0
   39.2060   28.0260   35.8190 H   0  0  0  0  0  0  0  0  0  0  0  0
   38.7610   28.3460   33.5040 H   0  0  0  0  0  0  0  0  0  0  0  0
  1  7  1  0  0  0  0
  2  3  2  0  0  0  0
  2  1  1  0  0  0  0
  3  4  1  0  0  0  0
  4  5  2  0  0  0  0
  4  6  1  0  0  0  0
  6 13  1  0  0  0  0
  7  6  1  0  0  0  0
  7  8  2  0  0  0  0
  9  2  1  0  0  0  0
 10  3  1  0  0  0  0
 11 12  1  0  0  0  0
 12 19  1  0  0  0  0
 13 12  2  0  0  0  0
 13 14  1  0  0  0  0
 14 16  2  0  0  0  0
 15 14  1  0  0  0  0
 16 18  1  0  0  0  0
 16 17  1  0  0  0  0
 19 18  2  0  0  0  0
 20 30  1  0  0  0  0
 21  1  1  0  0  0  0
 21 20  2  0  0  0  0
 22 23  2  0  0  0  0
 22 21  1  0  0  0  0
 23 24  1  0  0  0  0
 24 25  2  0  0  0  0
 25 20  1  0  0  0  0
 26 22  1  0  0  0  0
 27 24  1  0  0  0  0
 28 31  1  0  0  0  0
 28 29  2  0  0  0  0
 30 28  1  0  0  0  0
 32 30  1  0  0  0  0
M  END
>  <minimizedAffinity>
-5.21522903

$$$$

 OpenBabel03272507533D

 32 34  0  0  0  0  0  0  0  0999 V2000
   38.3340   23.1000   32.4410 N   0  0  0  0  0  0  0  0  0  0  0  0
   38.7410   24.2380   31.8890 C   0  0  0  0  0  0  0  0  0  0  0  0
   39.2540   25.2620   32.6840 C   0  0  0  0  0  0  0  0  0  0  0  0
   39.2870   24.9740   34.0240 C   0  0  0  0  0  0  0  0  0  0  0  0
   39.7570   25.9170   34.7340 O   0  0  0  0  0  0  0  0  0  0  0  0
   38.8860   23.8430   34.6190 N   0  0  0  0  0  0  0  0  0  0  0  0
   38.4020   22.8980   33.7870 C   0  0  0  0  0  0  0  0  0  0  0  0
   38.0190   21.8230   34.3330 O   0  0  0  0  0  0  0  0  0  0  0  0
   38.6790   24.3790   30.8140 H   0  0  0  0  0  0  0  0  0  0  0  0
   39.5890   26.1870   32.2620 H   0  0  0  0  0  0  0  0  0  0  0  0
   41.3310   22.4290   35.7290 Cl  0  0  0  0  0  0  0  0  0  0  0  0
   39.9970   23.0230   36.6970 C   0  0  0  0  0  0  0  0  0  0  0  0
   38.9630   23.6440   36.0260 C   0  0  0  0  0  0  0  0  0  0  0  0
   37.8680   24.1460   36.6990 C   0  0  0  0  0  0  0  0  0  0  0  0
   37.0250   24.6420   36.2380 H   0  0  0  0  0  0  0  0  0  0  0  0
   37.8080   24.0210   38.0840 C   0  0  0  0  0  0  0  0  0  0  0  0
   36.9560   24.4050   38.6660 H   0  0  0  0  0  0  0  0  0  0  0  0
   38.8440   23.3970   38.7820 C   0  0  0  0  0  3  0  0  0  0  0  0
   39.9480   22.8930   38.0860 C   0  0  0  0  0  3  0  0  0  0  0  0
   36.4020   21.9930   31.4690 C   0  0  0  0  0  0  0  0  0  0  0  0
   37.7930   22.0160   31.6710 C   0  0  0  0  0  0  0  0  0  0  0  0
   38.5870   20.9940   31.1230 C   0  0  0  0  0  0  0  0  0  0  0  0
   37.9450   20.0280   30.4190 N   0  0  0  0  0  0  0  0  0  0  0  0
   36.6380   20.0030   30.2280 C   0  0  0  0  0  0  0  0  0  0  0  0
   35.8720   20.9790   30.7500 N   0  0  0  0  0  0  0  0  0  0  0  0
   39.6240   21.1070   31.3350 H   0  0  0  0  0  0  0  0  0  0  0  0
   36.1790   19.2050   29.6560 H   0  0  0  0  0  0  0  0  0  0  0  0
   35.1410   24.2780   31.4790 C   0  0  0  0  0  0  0  0  0  0  0  0
   35.6460   24.7630   30.4400 O   0  0  0  0  0  0  0  0  0  0  0  0
   35.5200   22.9780   31.9660 N   0  0  0  0  0  0  0  0  0  0  0  0
   34.4120   24.8930   31.9800 H   0  0  0  0  0  0  0  0  0  0  0  0
   35.0050   22.7700   32.8770 H   0  0  0  0  0  0  0  0  0  0  0  0
  1  7  1  0  0  0  0
  2  1  1  0  0  0  0
  2  3  2  0  0  0  0
  3  4  1  0  0  0  0
  4  6  1  0  0  0  0
  4  5  2  0  0  0  0
  6 13  1  0  0  0  0
  7  8  2  0  0  0  0
  7  6  1  0  0  0  0
  9  2  1  0  0  0  0
 10  3  1  0  0  0  0
 11 12  1  0  0  0  0
 12 19  1  0  0  0  0
 13 12  2  0  0  0  0
 13 14  1  0  0  0  0
 14 16  2  0  0  0  0
 15 14  1  0  0  0  0
 16 17  1  0  0  0  0
 16 18  1  0  0  0  0
 19 18  2  0  0  0  0
 20 21  1  0  0  0  0
 20 30  1  0  0  0  0
 21  1  1  0  0  0  0
 22 26  1  0  0  0  0
 22 21  2  0  0  0  0
 23 22  1  0  0  0  0
 24 23  2  0  0  0  0
 24 25  1  0  0  0  0
 25 20  2  0  0  0  0
 27 24  1  0  0  0  0
 28 30  1  0  0  0  0
 28 31  1  0  0  0  0
 29 28  2  0  0  0  0
 30 32  1  0  0  0  0
M  END
>  <minimizedAffinity>
-5.1632781

$$$$

 OpenBabel03272507533D

 32 34  0  0  0  0  0  0  0  0999 V2000
   38.0810   23.8470   34.3640 N   0  0  0  0  0  0  0  0  0  0  0  0
   37.8370   25.0750   33.9180 C   0  0  0  0  0  0  0  0  0  0  0  0
   37.4390   25.2780   32.5980 C   0  0  0  0  0  0  0  0  0  0  0  0
   37.3360   24.1300   31.8560 C   0  0  0  0  0  0  0  0  0  0  0  0
   36.9730   24.3330   30.6540 O   0  0  0  0  0  0  0  0  0  0  0  0
   37.5740   22.8770   32.2650 N   0  0  0  0  0  0  0  0  0  0  0  0
   37.9540   22.7580   33.5540 C   0  0  0  0  0  0  0  0  0  0  0  0
   38.1820   21.5810   33.9570 O   0  0  0  0  0  0  0  0  0  0  0  0
   37.9430   25.9290   34.5790 H   0  0  0  0  0  0  0  0  0  0  0  0
   37.2360   26.2580   32.2170 H   0  0  0  0  0  0  0  0  0  0  0  0
   34.9270   21.3940   32.2720 Cl  0  0  0  0  0  0  0  0  0  0  0  0
   36.3090   20.9620   31.2880 C   0  0  0  0  0  0  0  0  0  0  0  0
   37.4370   21.7490   31.4100 C   0  0  0  0  0  0  0  0  0  0  0  0
   38.5760   21.4900   30.6770 C   0  0  0  0  0  0  0  0  0  0  0  0
   39.4930   22.0630   30.7230 H   0  0  0  0  0  0  0  0  0  0  0  0
   38.5870   20.4120   29.7960 C   0  0  0  0  0  0  0  0  0  0  0  0
   39.4710   20.1650   29.1890 H   0  0  0  0  0  0  0  0  0  0  0  0
   37.4560   19.6050   29.6570 C   0  0  0  0  0  3  0  0  0  0  0  0
   36.3070   19.8780   30.4070 C   0  0  0  0  0  3  0  0  0  0  0  0
   39.8630   23.3280   35.9310 C   0  0  0  0  0  0  0  0  0  0  0  0
   38.4980   23.5810   35.7110 C   0  0  0  0  0  0  0  0  0  0  0  0
   37.6080   23.5620   36.7990 C   0  0  0  0  0  0  0  0  0  0  0  0
   38.1360   23.2940   38.0200 N   0  0  0  0  0  0  0  0  0  0  0  0
   39.4190   23.0550   38.2300 C   0  0  0  0  0  0  0  0  0  0  0  0
   40.2760   23.0710   37.1920 N   0  0  0  0  0  0  0  0  0  0  0  0
   36.6010   23.7670   36.5230 H   0  0  0  0  0  0  0  0  0  0  0  0
   39.7850   22.8460   39.2290 H   0  0  0  0  0  0  0  0  0  0  0  0
   41.6950   24.3690   34.3930 C   0  0  0  0  0  0  0  0  0  0  0  0
   41.6420   25.5450   34.8250 O   0  0  0  0  0  0  0  0  0  0  0  0
   40.8370   23.3360   34.9090 N   0  0  0  0  0  0  0  0  0  0  0  0
   42.4190   24.1860   33.6160 H   0  0  0  0  0  0  0  0  0  0  0  0
   41.0160   22.4240   34.3850 H   0  0  0  0  0  0  0  0  0  0  0  0
  1 21  1  0  0  0  0
  2  1  1  0  0  0  0
  2  9  1  0  0  0  0
  3  2  2  0  0  0  0
  4  6  1  0  0  0  0
  4  3  1  0  0  0  0
  5  4  2  0  0  0  0
  6  7  1  0  0  0  0
  7  8  2  0  0  0  0
  7  1  1  0  0  0  0
 10  3  1  0  0  0  0
 12 13  1  0  0  0  0
 12 11  1  0  0  0  0
 13  6  1  0  0  0  0
 14 15  1  0  0  0  0
 14 13  2  0  0  0  0
 16 14  1  0  0  0  0
 17 16  1  0  0  0  0
 18 16  2  0  0  0  0
 18 19  1  0  0  0  0
 19 12  2  0  0  0  0
 20 25  1  0  0  0  0
 21 20  2  0  0  0  0
 21 22  1  0  0  0  0
 22 23  2  0  0  0  0
 23 24  1  0  0  0  0
 24 27  1  0  0  0  0
 25 24  2  0  0  0  0
 26 22  1  0  0  0  0
 28 29  2  0  0  0  0
 28 30  1  0  0  0  0
 30 20  1  0  0  0  0
 31 28  1  0  0  0  0
 32 30  1  0  0  0  0
M  END
>  <minimizedAffinity>
-5.16155291

$$$$

 OpenBabel03272507533D

 32 34  0  0  0  0  0  0  0  0999 V2000
   36.1590   26.4800   31.7000 N   0  0  0  0  0  0  0  0  0  0  0  0
   35.4380   25.5450   31.0910 C   0  0  0  0  0  0  0  0  0  0  0  0
   35.7140   24.1950   31.3010 C   0  0  0  0  0  0  0  0  0  0  0  0
   36.7570   23.9580   32.1600 C   0  0  0  0  0  0  0  0  0  0  0  0
   36.9950   22.7230   32.3390 O   0  0  0  0  0  0  0  0  0  0  0  0
   37.5070   24.8690   32.7920 N   0  0  0  0  0  0  0  0  0  0  0  0
   37.1820   26.1540   32.5410 C   0  0  0  0  0  0  0  0  0  0  0  0
   37.8810   27.0270   33.1310 O   0  0  0  0  0  0  0  0  0  0  0  0
   34.6280   25.8260   30.4260 H   0  0  0  0  0  0  0  0  0  0  0  0
   35.1460   23.4250   30.8210 H   0  0  0  0  0  0  0  0  0  0  0  0
   40.2880   24.5800   31.6140 Cl  0  0  0  0  0  0  0  0  0  0  0  0
   39.8910   24.3430   33.3040 C   0  0  0  0  0  0  0  0  0  0  0  0
   38.5710   24.5160   33.6670 C   0  0  0  0  0  0  0  0  0  0  0  0
   38.1590   24.3520   34.9740 C   0  0  0  0  0  0  0  0  0  0  0  0
   37.1440   24.4710   35.3290 H   0  0  0  0  0  0  0  0  0  0  0  0
   39.0960   24.0050   35.9430 C   0  0  0  0  0  0  0  0  0  0  0  0
   38.8160   23.8640   36.9980 H   0  0  0  0  0  0  0  0  0  0  0  0
   40.4370   23.8270   35.5950 C   0  0  0  0  0  3  0  0  0  0  0  0
   40.8410   23.9950   34.2670 C   0  0  0  0  0  3  0  0  0  0  0  0
   36.5680   28.5160   30.4400 C   0  0  0  0  0  0  0  0  0  0  0  0
   35.9230   27.8830   31.5160 C   0  0  0  0  0  0  0  0  0  0  0  0
   35.0870   28.6370   32.3590 C   0  0  0  0  0  0  0  0  0  0  0  0
   34.9530   29.9560   32.0730 N   0  0  0  0  0  0  0  0  0  0  0  0
   35.5590   30.5540   31.0620 C   0  0  0  0  0  0  0  0  0  0  0  0
   36.3620   29.8380   30.2510 N   0  0  0  0  0  0  0  0  0  0  0  0
   34.6480   28.0620   33.1400 H   0  0  0  0  0  0  0  0  0  0  0  0
   35.4150   31.6130   30.8800 H   0  0  0  0  0  0  0  0  0  0  0  0
   38.8350   27.6010   29.5270 C   0  0  0  0  0  0  0  0  0  0  0  0
   39.5810   28.0420   30.4310 O   0  0  0  0  0  0  0  0  0  0  0  0
   37.4170   27.8470   29.5310 N   0  0  0  0  0  0  0  0  0  0  0  0
   39.3200   27.0310   28.7520 H   0  0  0  0  0  0  0  0  0  0  0  0
   36.9740   27.4190   28.6590 H   0  0  0  0  0  0  0  0  0  0  0  0
  1  7  1  0  0  0  0
  2  3  2  0  0  0  0
  2  1  1  0  0  0  0
  3  4  1  0  0  0  0
  4  5  2  0  0  0  0
  4  6  1  0  0  0  0
  6 13  1  0  0  0  0
  7  6  1  0  0  0  0
  7  8  2  0  0  0  0
  9  2  1  0  0  0  0
 10  3  1  0  0  0  0
 11 12  1  0  0  0  0
 12 13  2  0  0  0  0
 12 19  1  0  0  0  0
 13 14  1  0  0  0  0
 14 15  1  0  0  0  0
 14 16  2  0  0  0  0
 16 17  1  0  0  0  0
 18 16  1  0  0  0  0
 19 18  2  0  0  0  0
 20 21  1  0  0  0  0
 21  1  1  0  0  0  0
 21 22  2  0  0  0  0
 22 26  1  0  0  0  0
 23 22  1  0  0  0  0
 24 23  2  0  0  0  0
 25 20  2  0  0  0  0
 25 24  1  0  0  0  0
 27 24  1  0  0  0  0
 28 30  1  0  0  0  0
 28 29  2  0  0  0  0
 30 20  1  0  0  0  0
 31 28  1  0  0  0  0
 32 30  1  0  0  0  0
M  END
>  <minimizedAffinity>
-5.15072823

$$$$

 OpenBabel03272507533D

 32 34  0  0  0  0  0  0  0  0999 V2000
   36.2410   22.9410   31.9550 N   0  0  0  0  0  0  0  0  0  0  0  0
   35.4710   23.5600   31.0660 C   0  0  0  0  0  0  0  0  0  0  0  0
   35.4870   24.9500   30.9670 C   0  0  0  0  0  0  0  0  0  0  0  0
   36.3390   25.5690   31.8440 C   0  0  0  0  0  0  0  0  0  0  0  0
   36.3410   26.8360   31.7410 O   0  0  0  0  0  0  0  0  0  0  0  0
   37.1290   24.9850   32.7540 N   0  0  0  0  0  0  0  0  0  0  0  0
   37.0620   23.6390   32.7920 C   0  0  0  0  0  0  0  0  0  0  0  0
   37.8020   23.0710   33.6450 O   0  0  0  0  0  0  0  0  0  0  0  0
   34.8250   22.9870   30.4080 H   0  0  0  0  0  0  0  0  0  0  0  0
   34.8750   25.4690   30.2580 H   0  0  0  0  0  0  0  0  0  0  0  0
   39.9930   25.4650   31.8720 Cl  0  0  0  0  0  0  0  0  0  0  0  0
   39.3050   26.0320   33.3800 C   0  0  0  0  0  0  0  0  0  0  0  0
   37.9820   25.7240   33.6210 C   0  0  0  0  0  0  0  0  0  0  0  0
   37.3500   26.1260   34.7790 C   0  0  0  0  0  0  0  0  0  0  0  0
   36.3180   25.9200   35.0330 H   0  0  0  0  0  0  0  0  0  0  0  0
   38.0640   26.8590   35.7230 C   0  0  0  0  0  0  0  0  0  0  0  0
   37.6050   27.2040   36.6620 H   0  0  0  0  0  0  0  0  0  0  0  0
   39.4040   27.1830   35.4970 C   0  0  0  0  0  3  0  0  0  0  0  0
   40.0320   26.7670   34.3180 C   0  0  0  0  0  3  0  0  0  0  0  0
   37.1640   20.7910   31.3060 C   0  0  0  0  0  0  0  0  0  0  0  0
   36.2610   21.5140   32.1030 C   0  0  0  0  0  0  0  0  0  0  0  0
   35.4240   20.8250   32.9980 C   0  0  0  0  0  0  0  0  0  0  0  0
   35.5440   19.4740   33.0360 N   0  0  0  0  0  0  0  0  0  0  0  0
   36.3920   18.7910   32.2870 C   0  0  0  0  0  0  0  0  0  0  0  0
   37.1960   19.4450   31.4270 N   0  0  0  0  0  0  0  0  0  0  0  0
   34.7800   21.4670   33.5530 H   0  0  0  0  0  0  0  0  0  0  0  0
   36.4450   17.7100   32.3590 H   0  0  0  0  0  0  0  0  0  0  0  0
   39.4230   21.8170   30.4990 C   0  0  0  0  0  0  0  0  0  0  0  0
   40.0530   21.7290   31.5780 O   0  0  0  0  0  0  0  0  0  0  0  0
   38.0540   21.3880   30.3870 N   0  0  0  0  0  0  0  0  0  0  0  0
   39.9690   22.2310   29.6670 H   0  0  0  0  0  0  0  0  0  0  0  0
   37.6950   21.5820   29.4010 H   0  0  0  0  0  0  0  0  0  0  0  0
  1 21  1  0  0  0  0
  1  7  1  0  0  0  0
  2  1  1  0  0  0  0
  3  2  2  0  0  0  0
  3  4  1  0  0  0  0
  4  6  1  0  0  0  0
  5  4  2  0  0  0  0
  6  7  1  0  0  0  0
  6 13  1  0  0  0  0
  7  8  2  0  0  0  0
  9  2  1  0  0  0  0
 10  3  1  0  0  0  0
 11 12  1  0  0  0  0
 12 13  2  0  0  0  0
 12 19  1  0  0  0  0
 13 14  1  0  0  0  0
 14 15  1  0  0  0  0
 14 16  2  0  0  0  0
 16 17  1  0  0  0  0
 18 16  1  0  0  0  0
 19 18  2  0  0  0  0
 20 25  2  0  0  0  0
 20 21  1  0  0  0  0
 21 22  2  0  0  0  0
 22 23  1  0  0  0  0
 22 26  1  0  0  0  0
 24 27  1  0  0  0  0
 24 23  2  0  0  0  0
 25 24  1  0  0  0  0
 28 29  2  0  0  0  0
 30 28  1  0  0  0  0
 30 20  1  0  0  0  0
 31 28  1  0  0  0  0
 32 30  1  0  0  0  0
M  END
>  <minimizedAffinity>
-5.14443684

$$$$
