
 OpenBabel03272504413D

 45 47  0  0  0  0  0  0  0  0999 V2000
   34.3170   29.3590   48.9030 C   0  0  0  0  0  0  0  0  0  0  0  0
   33.6560   30.2050   49.2590 H   0  0  0  0  0  0  0  0  0  0  0  0
   35.1700   29.3890   49.6180 H   0  0  0  0  0  0  0  0  0  0  0  0
   37.0830   30.4550   48.7960 Cl  0  0  0  0  0  0  0  0  0  0  0  0
   36.0540   30.2360   47.3810 C   0  0  0  0  0  0  0  0  0  0  0  0
   36.5250   30.5800   46.1620 C   0  0  0  0  0  0  0  0  0  0  0  0
   35.7310   30.4140   45.0490 C   0  0  0  0  0  0  0  0  0  0  0  0
   34.4510   29.8910   45.2060 C   0  0  0  0  0  0  0  0  0  0  0  0
   34.0310   29.5560   46.5080 C   0  0  0  0  0  0  0  0  0  0  0  0
   34.7970   29.7140   47.6010 C   0  0  0  0  0  0  0  0  0  0  0  0
   36.1360   30.7000   44.0700 H   0  0  0  0  0  0  0  0  0  0  0  0
   33.9210   29.8030   44.2810 H   0  0  0  0  0  0  0  0  0  0  0  0
   33.0690   29.1950   46.4100 H   0  0  0  0  0  0  0  0  0  0  0  0
   39.5220   32.7010   46.5230 C   0  0  0  0  0  0  0  0  0  0  0  0
   40.4160   32.0480   45.5930 C   0  0  0  0  0  0  0  0  0  0  0  0
   39.9450   30.9310   44.9030 C   0  0  0  0  0  0  0  0  0  0  0  0
   38.6750   30.4980   45.1260 N   0  0  0  0  0  0  0  0  0  0  0  0
   37.8620   31.1290   46.0020 C   0  0  0  0  0  0  0  0  0  0  0  0
   38.2890   32.2070   46.6800 N   0  0  0  0  0  0  0  0  0  0  0  0
   39.8900   33.5590   47.0490 H   0  0  0  0  0  0  0  0  0  0  0  0
   41.4060   32.4090   45.4370 H   0  0  0  0  0  0  0  0  0  0  0  0
   40.8430   30.3240   44.0090 N   0  0  0  0  0  0  0  0  0  0  0  0
   40.7410   30.7800   43.0980 H   0  0  0  0  0  0  0  0  0  0  0  0
   41.5310   29.5330   44.1760 H   0  0  0  0  0  0  0  0  0  0  0  0
   33.6210   28.0830   49.1050 C   0  0  0  0  0  0  0  0  0  0  0  0
   34.0260   27.4630   49.9380 H   0  0  0  0  0  0  0  0  0  0  0  0
   33.7840   27.4590   48.1910 H   0  0  0  0  0  0  0  0  0  0  0  0
   32.2800   28.2810   49.3220 O   0  0  0  0  0  0  0  0  0  0  0  0
   32.2580   26.4260   47.4700 O   0  0  0  0  0  0  0  0  0  0  0  0
   31.3770   27.3170   48.3110 P   0  0  2  0  0  0  0  0  0  0  0  0
   30.4900   28.3870   47.2760 O   0  0  0  0  0  0  0  0  0  0  0  0
   27.9820   29.8700   47.5190 Cl  0  0  0  0  0  0  0  0  0  0  0  0
   28.3410   28.5010   46.4750 C   0  0  0  0  0  0  0  0  0  0  0  0
   29.5630   27.8380   46.4090 C   0  0  0  0  0  0  0  0  0  0  0  0
   29.7100   26.7740   45.5420 C   0  0  0  0  0  0  0  0  0  0  0  0
   30.6940   26.3260   45.5640 H   0  0  0  0  0  0  0  0  0  0  0  0
   28.6530   26.3750   44.7520 C   0  0  0  0  0  0  0  0  0  0  0  0
   28.8190   25.5410   44.0940 H   0  0  0  0  0  0  0  0  0  0  0  0
   27.4290   27.0370   44.8170 C   0  0  0  0  0  3  0  0  0  0  0  0
   27.2590   28.1080   45.6790 C   0  0  0  0  0  3  0  0  0  0  0  0
   30.2540   26.4000   49.1030 O   0  0  0  0  0  0  0  0  0  0  0  0
   29.4840   27.1890   49.9430 C   0  0  0  0  0  0  0  0  0  0  0  0
   29.3240   26.6120   51.2000 F   0  0  0  0  0  0  0  0  0  0  0  0
   30.0740   28.4130   50.1650 F   0  0  0  0  0  0  0  0  0  0  0  0
   28.2220   27.3710   49.3900 F   0  0  0  0  0  0  0  0  0  0  0  0
  1 25  1  0  0  0  0
  1  2  1  0  0  0  0
  1  3  1  0  0  0  0
  5 10  1  0  0  0  0
  5  4  1  0  0  0  0
  6  5  2  0  0  0  0
  7  8  2  0  0  0  0
  7  6  1  0  0  0  0
  8  9  1  0  0  0  0
  9 10  2  0  0  0  0
 10  1  1  0  0  0  0
 11  7  1  0  0  0  0
 12  8  1  0  0  0  0
 13  9  1  0  0  0  0
 14 19  1  0  0  0  0
 14 20  1  0  0  0  0
 15 14  2  0  0  0  0
 16 17  2  0  0  0  0
 16 15  1  0  0  0  0
 17 18  1  0  0  0  0
 18  6  1  0  0  0  0
 18 19  2  0  0  0  0
 21 15  1  0  0  0  0
 22 24  1  0  0  0  0
 22 16  1  0  0  0  0
 23 22  1  0  0  0  0
 25 28  1  0  0  0  0
 25 26  1  0  0  0  0
 27 25  1  0  0  0  0
 30 29  2  6  0  0  0
 30 41  1  0  0  0  0
 30 28  1  0  0  0  0
 31 30  1  0  0  0  0
 33 32  1  0  0  0  0
 34 33  1  0  0  0  0
 34 31  1  0  0  0  0
 35 36  1  0  0  0  0
 35 34  2  0  0  0  0
 37 39  2  0  0  0  0
 37 35  1  0  0  0  0
 38 37  1  0  0  0  0
 39 40  1  0  0  0  0
 40 33  2  0  0  0  0
 41 42  1  0  0  0  0
 42 44  1  0  0  0  0
 42 43  1  0  0  0  0
 45 42  1  0  0  0  0
M  END
>  <minimizedAffinity>
-5.96280956

>  <minimizedRMSD>
0.689616799

$$$$
