
 OpenBabel03272507523D

 32 34  0  0  0  0  0  0  0  0999 V2000
   36.8200   31.2910   48.4790 N   0  0  0  0  0  0  0  0  0  0  0  0
   37.1930   32.2700   49.2970 C   0  0  0  0  0  0  0  0  0  0  0  0
   38.2580   33.1030   48.9580 C   0  0  0  0  0  0  0  0  0  0  0  0
   38.8420   32.8110   47.7520 C   0  0  0  0  0  0  0  0  0  0  0  0
   39.8110   33.5800   47.4590 O   0  0  0  0  0  0  0  0  0  0  0  0
   38.4990   31.8360   46.9010 N   0  0  0  0  0  0  0  0  0  0  0  0
   37.4600   31.0710   47.2950 C   0  0  0  0  0  0  0  0  0  0  0  0
   37.1220   30.1450   46.5030 O   0  0  0  0  0  0  0  0  0  0  0  0
   36.6700   32.4290   50.2350 H   0  0  0  0  0  0  0  0  0  0  0  0
   38.5750   33.8980   49.6010 H   0  0  0  0  0  0  0  0  0  0  0  0
   37.0860   32.6340   44.3380 Cl  0  0  0  0  0  0  0  0  0  0  0  0
   38.6830   31.9180   44.4150 C   0  0  0  0  0  0  0  0  0  0  0  0
   39.1740   31.6170   45.6690 C   0  0  0  0  0  0  0  0  0  0  0  0
   40.4210   31.0510   45.8350 C   0  0  0  0  0  0  0  0  0  0  0  0
   40.8690   30.7890   46.7850 H   0  0  0  0  0  0  0  0  0  0  0  0
   41.1990   30.7790   44.7130 C   0  0  0  0  0  0  0  0  0  0  0  0
   42.1990   30.3280   44.7920 H   0  0  0  0  0  0  0  0  0  0  0  0
   40.7190   31.0770   43.4350 C   0  0  0  0  0  3  0  0  0  0  0  0
   39.4520   31.6510   43.2810 C   0  0  0  0  0  3  0  0  0  0  0  0
   35.6550   29.8940   50.0880 C   0  0  0  0  0  0  0  0  0  0  0  0
   35.7350   30.4010   48.7800 C   0  0  0  0  0  0  0  0  0  0  0  0
   34.7690   30.0220   47.8320 C   0  0  0  0  0  0  0  0  0  0  0  0
   33.7980   29.1710   48.2500 N   0  0  0  0  0  0  0  0  0  0  0  0
   33.7210   28.6920   49.4790 C   0  0  0  0  0  0  0  0  0  0  0  0
   34.6430   29.0510   50.3920 N   0  0  0  0  0  0  0  0  0  0  0  0
   34.9220   30.4620   46.8750 H   0  0  0  0  0  0  0  0  0  0  0  0
   32.9210   28.0150   49.7580 H   0  0  0  0  0  0  0  0  0  0  0  0
   37.6750   29.5090   51.6950 C   0  0  0  0  0  0  0  0  0  0  0  0
   37.9720   28.3480   51.3310 O   0  0  0  0  0  0  0  0  0  0  0  0
   36.5670   30.2220   51.1150 N   0  0  0  0  0  0  0  0  0  0  0  0
   38.2970   29.9350   52.4650 H   0  0  0  0  0  0  0  0  0  0  0  0
   36.4630   31.1730   51.5880 H   0  0  0  0  0  0  0  0  0  0  0  0
  1 21  1  0  0  0  0
  1  2  1  0  0  0  0
  2  9  1  0  0  0  0
  3  2  2  0  0  0  0
  3 10  1  0  0  0  0
  4  3  1  0  0  0  0
  5  4  2  0  0  0  0
  6  7  1  0  0  0  0
  6  4  1  0  0  0  0
  7  1  1  0  0  0  0
  8  7  2  0  0  0  0
 11 12  1  0  0  0  0
 12 13  1  0  0  0  0
 13 14  2  0  0  0  0
 13  6  1  0  0  0  0
 14 15  1  0  0  0  0
 16 17  1  0  0  0  0
 16 14  1  0  0  0  0
 18 16  2  0  0  0  0
 19 18  1  0  0  0  0
 19 12  2  0  0  0  0
 20 25  1  0  0  0  0
 20 30  1  0  0  0  0
 21 20  2  0  0  0  0
 22 23  2  0  0  0  0
 22 21  1  0  0  0  0
 23 24  1  0  0  0  0
 24 27  1  0  0  0  0
 24 25  2  0  0  0  0
 26 22  1  0  0  0  0
 28 31  1  0  0  0  0
 29 28  2  0  0  0  0
 30 32  1  0  0  0  0
 30 28  1  0  0  0  0
M  END
>  <minimizedAffinity>
-5.26405764

>  <minimizedRMSD>
1.71291232

$$$$
