
 OpenBabel03272510113D

 35 38  0  0  0  0  0  0  0  0999 V2000
   33.4210   28.4610   48.4060 C   0  0  0  0  0  0  0  0  0  0  0  0
   34.3170   28.0240   49.3170 C   0  0  0  0  0  0  0  0  0  0  0  0
   35.5190   28.6290   49.6110 C   0  0  0  0  0  0  0  0  0  0  0  0
   35.8670   29.7700   48.9430 C   0  0  0  0  0  0  0  0  0  0  0  0
   34.9550   30.2300   48.0040 C   0  0  0  0  0  0  0  0  0  0  0  0
   33.7930   29.5900   47.7630 N   0  0  0  0  0  0  0  0  0  0  0  0
   34.1300   27.1220   49.9010 H   0  0  0  0  0  0  0  0  0  0  0  0
   36.2310   28.2690   50.3450 H   0  0  0  0  0  0  0  0  0  0  0  0
   35.1550   31.1300   47.4300 H   0  0  0  0  0  0  0  0  0  0  0  0
   31.1290   27.6460   49.0470 C   0  0  0  0  0  0  0  0  0  0  0  0
   32.1770   27.8080   48.1220 C   0  0  0  0  0  0  0  0  0  0  0  0
   31.9520   27.2870   46.8570 C   0  0  0  0  0  0  0  0  0  0  0  0
   30.7690   26.6650   46.5800 N   0  0  0  0  0  0  0  0  0  0  0  0
   29.8100   26.5460   47.5160 C   0  0  0  0  0  0  0  0  0  0  0  0
   29.9770   27.0350   48.7650 N   0  0  0  0  0  0  0  0  0  0  0  0
   31.2720   28.0370   50.0330 H   0  0  0  0  0  0  0  0  0  0  0  0
   32.6890   27.3560   46.0660 H   0  0  0  0  0  0  0  0  0  0  0  0
   28.8890   26.0440   47.2490 H   0  0  0  0  0  0  0  0  0  0  0  0
   37.0380   30.5120   49.1110 O   0  0  0  0  0  0  0  0  0  0  0  0
   37.6640   31.1220   48.0300 C   0  0  0  0  0  0  0  0  0  0  0  0
   38.5040   32.1820   48.4030 C   0  0  0  0  0  0  0  0  0  0  0  0
   39.0710   32.7130   47.2500 C   0  0  0  0  0  0  0  0  0  0  0  0
   38.5680   31.9770   46.2440 N   0  0  0  0  0  0  0  0  0  0  0  0
   37.7520   31.0540   46.6910 N   0  0  0  0  0  0  0  0  0  0  0  0
   38.7950   32.6560   49.3510 H   0  0  0  0  0  0  0  0  0  0  0  0
   39.7650   33.5270   47.0870 H   0  0  0  0  0  0  0  0  0  0  0  0
   41.2720   31.0900   45.3740 Cl  0  0  0  0  0  0  0  0  0  0  0  0
   40.0310   31.7090   44.3040 C   0  0  0  0  0  0  0  0  0  0  0  0
   38.8110   32.0870   44.8450 C   0  0  0  0  0  0  0  0  0  0  0  0
   37.8520   32.5710   43.9780 C   0  0  0  0  0  0  0  0  0  0  0  0
   36.8790   32.8790   44.3610 H   0  0  0  0  0  0  0  0  0  0  0  0
   38.0150   32.7050   42.6160 C   0  0  0  0  0  0  0  0  0  0  0  0
   37.2420   33.0870   41.9670 H   0  0  0  0  0  0  0  0  0  0  0  0
   39.2570   32.3120   42.1140 C   0  0  0  0  0  0  0  0  0  0  0  0
   40.2540   31.8220   42.9320 C   0  0  0  0  0  0  0  0  0  0  0  0
  1  2  1  0  0  0  0
  2  3  2  0  0  0  0
  2  7  1  0  0  0  0
  3  8  1  0  0  0  0
  4 19  1  0  0  0  0
  4  3  1  0  0  0  0
  5  4  2  0  0  0  0
  6  5  1  0  0  0  0
  6  1  2  0  0  0  0
  9  5  1  0  0  0  0
 10 16  1  0  0  0  0
 11  1  1  0  0  0  0
 11 10  2  0  0  0  0
 12 11  1  0  0  0  0
 13 12  2  0  0  0  0
 13 14  1  0  0  0  0
 14 15  2  0  0  0  0
 15 10  1  0  0  0  0
 17 12  1  0  0  0  0
 18 14  1  0  0  0  0
 20 21  1  0  0  0  0
 20 19  1  0  0  0  0
 21 25  1  0  0  0  0
 22 21  2  0  0  0  0
 23 24  1  0  0  0  0
 23 22  1  0  0  0  0
 24 20  2  0  0  0  0
 26 22  1  0  0  0  0
 28 29  1  0  0  0  0
 28 27  1  0  0  0  0
 29 23  1  0  0  0  0
 30 31  1  0  0  0  0
 30 29  2  0  0  0  0
 32 30  1  0  0  0  0
 33 32  1  0  0  0  0
 34 32  2  0  0  0  0
 34 35  1  0  0  0  0
 35 28  2  0  0  0  0
M  END
>  <minimizedAffinity>
-6.03972435

>  <minimizedRMSD>
2.61892915

$$$$
