
 OpenBabel03272502273D

 40 43  0  0  0  0  0  0  0  0999 V2000
   36.1350   24.8730   31.3050 C   0  0  0  0  0  0  0  0  0  0  0  0
   36.7390   24.0550   32.2670 C   0  0  0  0  0  0  0  0  0  0  0  0
   37.5270   24.6630   33.2210 C   0  0  0  0  0  0  0  0  0  0  0  0
   37.6630   25.9950   33.1680 N   0  0  0  0  0  0  0  0  0  0  0  0
   37.0800   26.7770   32.2400 C   0  0  0  0  0  0  0  0  0  0  0  0
   36.3160   26.2080   31.3100 N   0  0  0  0  0  0  0  0  0  0  0  0
   35.5070   24.4390   30.5340 H   0  0  0  0  0  0  0  0  0  0  0  0
   36.6030   22.9840   32.2740 H   0  0  0  0  0  0  0  0  0  0  0  0
   38.2000   23.9270   34.2740 C   0  0  0  0  0  0  0  0  0  0  0  0
   39.1310   22.9380   33.9650 C   0  0  0  0  0  0  0  0  0  0  0  0
   39.8020   22.2130   34.9240 C   0  0  0  0  0  0  0  0  0  0  0  0
   39.5460   22.4730   36.2320 N   0  0  0  0  0  0  0  0  0  0  0  0
   38.6460   23.4290   36.5110 C   0  0  0  0  0  0  0  0  0  0  0  0
   37.9790   24.1500   35.5890 N   0  0  0  0  0  0  0  0  0  0  0  0
   39.3110   22.7580   32.9130 H   0  0  0  0  0  0  0  0  0  0  0  0
   40.5140   21.4570   34.6210 H   0  0  0  0  0  0  0  0  0  0  0  0
   38.3540   23.7250   37.9320 C   0  0  0  0  0  0  0  0  0  0  0  0
   39.4870   23.3260   38.6780 F   0  0  0  0  0  0  0  0  0  0  0  0
   38.0530   25.0380   38.1300 F   0  0  0  0  0  0  0  0  0  0  0  0
   37.3370   22.9250   38.4260 F   0  0  0  0  0  0  0  0  0  0  0  0
   37.3290   28.1410   32.3330 O   0  0  0  0  0  0  0  0  0  0  0  0
   34.7190   30.5290   31.3680 N   0  0  0  0  0  0  0  0  0  0  0  0
   35.7310   29.6650   31.1930 C   0  0  0  0  0  0  0  0  0  0  0  0
   36.3010   29.0440   32.2800 C   0  0  0  0  0  0  0  0  0  0  0  0
   35.7970   29.3390   33.5550 C   0  0  0  0  0  0  0  0  0  0  0  0
   36.1570   28.8960   34.6840 O   0  0  0  0  0  0  0  0  0  0  0  0
   34.7670   30.2260   33.6630 N   0  0  0  0  0  0  0  0  0  0  0  0
   34.2360   30.8130   32.5790 C   0  0  0  0  0  0  0  0  0  0  0  0
   33.2790   31.6400   32.6440 O   0  0  0  0  0  0  0  0  0  0  0  0
   34.3680   30.9370   30.4710 H   0  0  0  0  0  0  0  0  0  0  0  0
   36.1730   29.3860   30.2470 H   0  0  0  0  0  0  0  0  0  0  0  0
   36.0160   32.4160   35.3590 Cl  0  0  0  0  0  0  0  0  0  0  0  0
   34.5750   31.5520   35.8070 C   0  0  0  0  0  0  0  0  0  0  0  0
   34.1760   30.6010   34.9010 C   0  0  0  0  0  0  0  0  0  0  0  0
   33.0270   29.8500   35.1690 C   0  0  0  0  0  0  0  0  0  0  0  0
   32.6150   29.0790   34.5390 H   0  0  0  0  0  0  0  0  0  0  0  0
   32.2820   30.0410   36.3230 C   0  0  0  0  0  0  0  0  0  0  0  0
   31.3960   29.4890   36.5690 H   0  0  0  0  0  0  0  0  0  0  0  0
   32.6980   31.0080   37.2330 C   0  0  0  0  0  3  0  0  0  0  0  0
   33.8350   31.7430   36.9550 C   0  0  0  0  0  3  0  0  0  0  0  0
  1  6  2  0  0  0  0
  1  2  1  0  0  0  0
  2  8  1  0  0  0  0
  2  3  2  0  0  0  0
  3  9  1  0  0  0  0
  4  3  1  0  0  0  0
  5 21  1  0  0  0  0
  5  4  2  0  0  0  0
  6  5  1  0  0  0  0
  7  1  1  0  0  0  0
  9 14  1  0  0  0  0
 10  9  2  0  0  0  0
 10 11  1  0  0  0  0
 11 12  2  0  0  0  0
 12 13  1  0  0  0  0
 13 17  1  0  0  0  0
 14 13  2  0  0  0  0
 15 10  1  0  0  0  0
 16 11  1  0  0  0  0
 17 19  1  0  0  0  0
 17 20  1  0  0  0  0
 17 18  1  0  0  0  0
 22 28  1  0  0  0  0
 23 22  1  0  0  0  0
 23 24  2  0  0  0  0
 24 21  1  0  0  0  0
 24 25  1  0  0  0  0
 25 27  1  0  0  0  0
 25 26  2  0  0  0  0
 27 34  1  0  0  0  0
 28 29  2  0  0  0  0
 28 27  1  0  0  0  0
 30 22  1  0  0  0  0
 31 23  1  0  0  0  0
 32 33  1  0  0  0  0
 33 40  1  0  0  0  0
 34 35  1  0  0  0  0
 34 33  2  0  0  0  0
 35 37  2  0  0  0  0
 36 35  1  0  0  0  0
 37 38  1  0  0  0  0
 37 39  1  0  0  0  0
 40 39  2  0  0  0  0
M  END
>  <minimizedAffinity>
-7.15658474

$$$$

 OpenBabel03272502273D

 40 43  0  0  0  0  0  0  0  0999 V2000
   35.4760   20.7150   33.0330 C   0  0  0  0  0  0  0  0  0  0  0  0
   36.3250   20.9310   34.1230 C   0  0  0  0  0  0  0  0  0  0  0  0
   37.2680   21.9300   34.0140 C   0  0  0  0  0  0  0  0  0  0  0  0
   37.3110   22.6310   32.8720 N   0  0  0  0  0  0  0  0  0  0  0  0
   36.4920   22.4190   31.8250 C   0  0  0  0  0  0  0  0  0  0  0  0
   35.5750   21.4580   31.9130 N   0  0  0  0  0  0  0  0  0  0  0  0
   34.7190   19.9390   33.0740 H   0  0  0  0  0  0  0  0  0  0  0  0
   36.2570   20.3430   35.0270 H   0  0  0  0  0  0  0  0  0  0  0  0
   38.2000   22.2560   35.0750 C   0  0  0  0  0  0  0  0  0  0  0  0
   39.5710   22.0730   34.8980 C   0  0  0  0  0  0  0  0  0  0  0  0
   40.5000   22.3700   35.8700 C   0  0  0  0  0  0  0  0  0  0  0  0
   40.0620   22.8650   37.0570 N   0  0  0  0  0  0  0  0  0  0  0  0
   38.7390   23.0340   37.2100 C   0  0  0  0  0  0  0  0  0  0  0  0
   37.8140   22.7510   36.2730 N   0  0  0  0  0  0  0  0  0  0  0  0
   39.8830   21.6790   33.9400 H   0  0  0  0  0  0  0  0  0  0  0  0
   41.5500   22.2070   35.6730 H   0  0  0  0  0  0  0  0  0  0  0  0
   38.2450   23.5720   38.4980 C   0  0  0  0  0  0  0  0  0  0  0  0
   37.7760   24.8820   38.2470 F   0  0  0  0  0  0  0  0  0  0  0  0
   37.2790   22.7830   39.0450 F   0  0  0  0  0  0  0  0  0  0  0  0
   39.2740   23.7590   39.4060 F   0  0  0  0  0  0  0  0  0  0  0  0
   36.6740   23.2380   30.7180 O   0  0  0  0  0  0  0  0  0  0  0  0
   39.3690   25.7230   30.6500 N   0  0  0  0  0  0  0  0  0  0  0  0
   38.7900   24.5220   30.4960 C   0  0  0  0  0  0  0  0  0  0  0  0
   37.4590   24.3580   30.7980 C   0  0  0  0  0  0  0  0  0  0  0  0
   36.7400   25.4680   31.2660 C   0  0  0  0  0  0  0  0  0  0  0  0
   35.5240   25.5550   31.6030 O   0  0  0  0  0  0  0  0  0  0  0  0
   37.3900   26.6590   31.4000 N   0  0  0  0  0  0  0  0  0  0  0  0
   38.6900   26.7810   31.0950 C   0  0  0  0  0  0  0  0  0  0  0  0
   39.3230   27.8730   31.2070 O   0  0  0  0  0  0  0  0  0  0  0  0
   40.3830   25.7250   30.3890 H   0  0  0  0  0  0  0  0  0  0  0  0
   39.2730   23.6230   30.1420 H   0  0  0  0  0  0  0  0  0  0  0  0
   37.0780   27.1690   34.3790 Cl  0  0  0  0  0  0  0  0  0  0  0  0
   36.5270   28.2680   33.1490 C   0  0  0  0  0  0  0  0  0  0  0  0
   36.7650   27.8490   31.8640 C   0  0  0  0  0  0  0  0  0  0  0  0
   36.3590   28.6630   30.8010 C   0  0  0  0  0  0  0  0  0  0  0  0
   36.4890   28.4460   29.7530 H   0  0  0  0  0  0  0  0  0  0  0  0
   35.7250   29.8790   31.0110 C   0  0  0  0  0  0  0  0  0  0  0  0
   35.3980   30.5330   30.2280 H   0  0  0  0  0  0  0  0  0  0  0  0
   35.4910   30.2900   32.3200 C   0  0  0  0  0  3  0  0  0  0  0  0
   35.8970   29.4770   33.3600 C   0  0  0  0  0  3  0  0  0  0  0  0
  1  7  1  0  0  0  0
  1  2  1  0  0  0  0
  2  8  1  0  0  0  0
  3  2  2  0  0  0  0
  3  9  1  0  0  0  0
  4  3  1  0  0  0  0
  5  6  1  0  0  0  0
  5  4  2  0  0  0  0
  6  1  2  0  0  0  0
  9 14  1  0  0  0  0
 10  9  2  0  0  0  0
 10 11  1  0  0  0  0
 11 12  2  0  0  0  0
 12 13  1  0  0  0  0
 13 17  1  0  0  0  0
 14 13  2  0  0  0  0
 15 10  1  0  0  0  0
 16 11  1  0  0  0  0
 17 19  1  0  0  0  0
 17 20  1  0  0  0  0
 18 17  1  0  0  0  0
 21 24  1  0  0  0  0
 21  5  1  0  0  0  0
 22 28  1  0  0  0  0
 23 22  1  0  0  0  0
 23 24  2  0  0  0  0
 24 25  1  0  0  0  0
 25 27  1  0  0  0  0
 25 26  2  0  0  0  0
 27 34  1  0  0  0  0
 28 29  2  0  0  0  0
 28 27  1  0  0  0  0
 30 22  1  0  0  0  0
 31 23  1  0  0  0  0
 33 40  1  0  0  0  0
 33 32  1  0  0  0  0
 34 33  2  0  0  0  0
 35 37  2  0  0  0  0
 35 34  1  0  0  0  0
 36 35  1  0  0  0  0
 37 39  1  0  0  0  0
 38 37  1  0  0  0  0
 39 40  2  0  0  0  0
M  END
>  <minimizedAffinity>
-7.13241768

$$$$

 OpenBabel03272502273D

 40 43  0  0  0  0  0  0  0  0999 V2000
   40.2160   27.0660   32.3970 C   0  0  0  0  0  0  0  0  0  0  0  0
   40.4320   26.0980   33.3850 C   0  0  0  0  0  0  0  0  0  0  0  0
   39.3270   25.4760   33.9260 C   0  0  0  0  0  0  0  0  0  0  0  0
   38.1180   25.8360   33.4720 N   0  0  0  0  0  0  0  0  0  0  0  0
   37.9160   26.7680   32.5220 C   0  0  0  0  0  0  0  0  0  0  0  0
   38.9710   27.3800   31.9890 N   0  0  0  0  0  0  0  0  0  0  0  0
   41.0560   27.5820   31.9440 H   0  0  0  0  0  0  0  0  0  0  0  0
   41.4240   25.8370   33.7230 H   0  0  0  0  0  0  0  0  0  0  0  0
   39.4190   24.4530   34.9490 C   0  0  0  0  0  0  0  0  0  0  0  0
   40.1080   23.2660   34.7050 C   0  0  0  0  0  0  0  0  0  0  0  0
   40.2300   22.2630   35.6420 C   0  0  0  0  0  0  0  0  0  0  0  0
   39.6540   22.4380   36.8590 N   0  0  0  0  0  0  0  0  0  0  0  0
   38.9950   23.5870   37.0750 C   0  0  0  0  0  0  0  0  0  0  0  0
   38.8640   24.5800   36.1740 N   0  0  0  0  0  0  0  0  0  0  0  0
   40.5550   23.1610   33.7250 H   0  0  0  0  0  0  0  0  0  0  0  0
   40.7780   21.3650   35.3940 H   0  0  0  0  0  0  0  0  0  0  0  0
   38.3600   23.7940   38.3970 C   0  0  0  0  0  0  0  0  0  0  0  0
   37.9600   25.1490   38.4560 F   0  0  0  0  0  0  0  0  0  0  0  0
   37.3130   22.9470   38.6000 F   0  0  0  0  0  0  0  0  0  0  0  0
   39.2740   23.6750   39.4310 F   0  0  0  0  0  0  0  0  0  0  0  0
   36.5950   27.0190   32.1710 O   0  0  0  0  0  0  0  0  0  0  0  0
   35.5220   30.3610   31.1110 N   0  0  0  0  0  0  0  0  0  0  0  0
   36.0110   29.1190   30.9770 C   0  0  0  0  0  0  0  0  0  0  0  0
   36.1290   28.3040   32.0780 C   0  0  0  0  0  0  0  0  0  0  0  0
   35.7280   28.8060   33.3250 C   0  0  0  0  0  0  0  0  0  0  0  0
   35.7440   28.2480   34.4600 O   0  0  0  0  0  0  0  0  0  0  0  0
   35.2400   30.0780   33.3910 N   0  0  0  0  0  0  0  0  0  0  0  0
   35.1390   30.8440   32.2950 C   0  0  0  0  0  0  0  0  0  0  0  0
   34.6900   32.0280   32.3220 O   0  0  0  0  0  0  0  0  0  0  0  0
   35.4800   30.8850   30.2070 H   0  0  0  0  0  0  0  0  0  0  0  0
   36.3390   28.6600   30.0550 H   0  0  0  0  0  0  0  0  0  0  0  0
   32.3980   29.6670   34.3850 Cl  0  0  0  0  0  0  0  0  0  0  0  0
   33.5790   30.6360   35.2140 C   0  0  0  0  0  0  0  0  0  0  0  0
   34.8040   30.6920   34.5970 C   0  0  0  0  0  0  0  0  0  0  0  0
   35.8240   31.4470   35.1850 C   0  0  0  0  0  0  0  0  0  0  0  0
   36.8240   31.5690   34.8000 H   0  0  0  0  0  0  0  0  0  0  0  0
   35.6300   32.1390   36.3730 C   0  0  0  0  0  0  0  0  0  0  0  0
   36.3830   32.7280   36.8580 H   0  0  0  0  0  0  0  0  0  0  0  0
   34.3840   32.0720   36.9860 C   0  0  0  0  0  3  0  0  0  0  0  0
   33.3850   31.3230   36.3950 C   0  0  0  0  0  3  0  0  0  0  0  0
  1  2  1  0  0  0  0
  2  8  1  0  0  0  0
  2  3  2  0  0  0  0
  3  9  1  0  0  0  0
  4  3  1  0  0  0  0
  5  4  2  0  0  0  0
  6  1  2  0  0  0  0
  6  5  1  0  0  0  0
  7  1  1  0  0  0  0
  9 14  1  0  0  0  0
 10  9  2  0  0  0  0
 10 11  1  0  0  0  0
 11 12  2  0  0  0  0
 12 13  1  0  0  0  0
 13 17  1  0  0  0  0
 14 13  2  0  0  0  0
 15 10  1  0  0  0  0
 16 11  1  0  0  0  0
 17 18  1  0  0  0  0
 17 19  1  0  0  0  0
 17 20  1  0  0  0  0
 21  5  1  0  0  0  0
 22 28  1  0  0  0  0
 23 22  1  0  0  0  0
 23 24  2  0  0  0  0
 24 21  1  0  0  0  0
 24 25  1  0  0  0  0
 25 27  1  0  0  0  0
 25 26  2  0  0  0  0
 27 34  1  0  0  0  0
 28 29  2  0  0  0  0
 28 27  1  0  0  0  0
 30 22  1  0  0  0  0
 31 23  1  0  0  0  0
 32 33  1  0  0  0  0
 33 40  1  0  0  0  0
 34 35  1  0  0  0  0
 34 33  2  0  0  0  0
 35 37  2  0  0  0  0
 36 35  1  0  0  0  0
 37 38  1  0  0  0  0
 37 39  1  0  0  0  0
 40 39  2  0  0  0  0
M  END
>  <minimizedAffinity>
-7.05143309

$$$$

 OpenBabel03272502273D

 40 43  0  0  0  0  0  0  0  0999 V2000
   36.9910   28.7630   29.9050 C   0  0  0  0  0  0  0  0  0  0  0  0
   36.0680   29.3710   30.7630 C   0  0  0  0  0  0  0  0  0  0  0  0
   36.1270   29.0470   32.1010 C   0  0  0  0  0  0  0  0  0  0  0  0
   37.0620   28.1720   32.4960 N   0  0  0  0  0  0  0  0  0  0  0  0
   37.9480   27.5890   31.6660 C   0  0  0  0  0  0  0  0  0  0  0  0
   37.9050   27.8900   30.3700 N   0  0  0  0  0  0  0  0  0  0  0  0
   36.9810   28.9870   28.8430 H   0  0  0  0  0  0  0  0  0  0  0  0
   35.3280   30.0720   30.4050 H   0  0  0  0  0  0  0  0  0  0  0  0
   35.2320   29.6140   33.0910 C   0  0  0  0  0  0  0  0  0  0  0  0
   33.8810   29.2690   33.1090 C   0  0  0  0  0  0  0  0  0  0  0  0
   32.9890   29.7740   34.0280 C   0  0  0  0  0  0  0  0  0  0  0  0
   33.4450   30.6490   34.9620 N   0  0  0  0  0  0  0  0  0  0  0  0
   34.7480   30.9690   34.9300 C   0  0  0  0  0  0  0  0  0  0  0  0
   35.6370   30.4870   34.0400 N   0  0  0  0  0  0  0  0  0  0  0  0
   33.5540   28.5700   32.3500 H   0  0  0  0  0  0  0  0  0  0  0  0
   31.9530   29.4680   33.9900 H   0  0  0  0  0  0  0  0  0  0  0  0
   35.2610   31.9220   35.9410 C   0  0  0  0  0  0  0  0  0  0  0  0
   36.6530   31.6990   36.0500 F   0  0  0  0  0  0  0  0  0  0  0  0
   34.9780   33.2140   35.6180 F   0  0  0  0  0  0  0  0  0  0  0  0
   34.7820   31.6340   37.2090 F   0  0  0  0  0  0  0  0  0  0  0  0
   38.8500   26.7040   32.2430 O   0  0  0  0  0  0  0  0  0  0  0  0
   37.4500   23.3440   32.6800 N   0  0  0  0  0  0  0  0  0  0  0  0
   37.7620   24.4800   32.0370 C   0  0  0  0  0  0  0  0  0  0  0  0
   38.4360   25.4800   32.6970 C   0  0  0  0  0  0  0  0  0  0  0  0
   38.7790   25.2770   34.0420 C   0  0  0  0  0  0  0  0  0  0  0  0
   39.3900   26.0440   34.8410 O   0  0  0  0  0  0  0  0  0  0  0  0
   38.4300   24.1000   34.6350 N   0  0  0  0  0  0  0  0  0  0  0  0
   37.7730   23.1460   33.9590 C   0  0  0  0  0  0  0  0  0  0  0  0
   37.4350   22.0420   34.4800 O   0  0  0  0  0  0  0  0  0  0  0  0
   36.9390   22.6590   32.0760 H   0  0  0  0  0  0  0  0  0  0  0  0
   37.5340   24.7110   31.0060 H   0  0  0  0  0  0  0  0  0  0  0  0
   40.9610   22.5730   35.3420 Cl  0  0  0  0  0  0  0  0  0  0  0  0
   39.7980   23.1100   36.5180 C   0  0  0  0  0  0  0  0  0  0  0  0
   38.7240   23.7830   35.9900 C   0  0  0  0  0  0  0  0  0  0  0  0
   37.7320   24.2570   36.8540 C   0  0  0  0  0  0  0  0  0  0  0  0
   36.8450   24.7970   36.5630 H   0  0  0  0  0  0  0  0  0  0  0  0
   37.8040   24.0660   38.2260 C   0  0  0  0  0  0  0  0  0  0  0  0
   37.0680   24.4120   38.9250 H   0  0  0  0  0  0  0  0  0  0  0  0
   38.8990   23.3820   38.7470 C   0  0  0  0  0  3  0  0  0  0  0  0
   39.8720   22.9190   37.8820 C   0  0  0  0  0  3  0  0  0  0  0  0
  1  6  2  0  0  0  0
  1  2  1  0  0  0  0
  2  3  2  0  0  0  0
  3  4  1  0  0  0  0
  3  9  1  0  0  0  0
  5 21  1  0  0  0  0
  5  4  2  0  0  0  0
  6  5  1  0  0  0  0
  7  1  1  0  0  0  0
  8  2  1  0  0  0  0
  9 10  2  0  0  0  0
  9 14  1  0  0  0  0
 10 11  1  0  0  0  0
 11 12  2  0  0  0  0
 13 12  1  0  0  0  0
 13 17  1  0  0  0  0
 14 13  2  0  0  0  0
 15 10  1  0  0  0  0
 16 11  1  0  0  0  0
 17 18  1  0  0  0  0
 17 20  1  0  0  0  0
 19 17  1  0  0  0  0
 21 24  1  0  0  0  0
 22 28  1  0  0  0  0
 23 22  1  0  0  0  0
 23 24  2  0  0  0  0
 24 25  1  0  0  0  0
 25 27  1  0  0  0  0
 25 26  2  0  0  0  0
 27 34  1  0  0  0  0
 28 29  2  0  0  0  0
 28 27  1  0  0  0  0
 30 22  1  0  0  0  0
 31 23  1  0  0  0  0
 32 33  1  0  0  0  0
 33 40  1  0  0  0  0
 34 33  2  0  0  0  0
 34 35  1  0  0  0  0
 35 37  2  0  0  0  0
 36 35  1  0  0  0  0
 37 39  1  0  0  0  0
 37 38  1  0  0  0  0
 40 39  2  0  0  0  0
M  END
>  <minimizedAffinity>
-7.00199366

$$$$

 OpenBabel03272502273D

 40 43  0  0  0  0  0  0  0  0999 V2000
   37.3140   28.8100   29.8640 C   0  0  0  0  0  0  0  0  0  0  0  0
   36.2760   29.3020   30.6630 C   0  0  0  0  0  0  0  0  0  0  0  0
   36.2050   28.8590   31.9660 C   0  0  0  0  0  0  0  0  0  0  0  0
   37.1330   27.9870   32.3850 N   0  0  0  0  0  0  0  0  0  0  0  0
   38.1300   27.5170   31.6130 C   0  0  0  0  0  0  0  0  0  0  0  0
   38.2140   27.9340   30.3510 N   0  0  0  0  0  0  0  0  0  0  0  0
   37.4090   29.1310   28.8320 H   0  0  0  0  0  0  0  0  0  0  0  0
   35.5470   30.0040   30.2860 H   0  0  0  0  0  0  0  0  0  0  0  0
   35.1820   29.2990   32.8950 C   0  0  0  0  0  0  0  0  0  0  0  0
   35.5180   30.0640   34.0100 C   0  0  0  0  0  0  0  0  0  0  0  0
   34.5870   30.5120   34.9210 C   0  0  0  0  0  0  0  0  0  0  0  0
   33.2810   30.1940   34.7250 N   0  0  0  0  0  0  0  0  0  0  0  0
   32.9770   29.4570   33.6450 C   0  0  0  0  0  0  0  0  0  0  0  0
   33.8700   29.0090   32.7420 N   0  0  0  0  0  0  0  0  0  0  0  0
   36.5670   30.2980   34.1350 H   0  0  0  0  0  0  0  0  0  0  0  0
   34.9090   31.1020   35.7680 H   0  0  0  0  0  0  0  0  0  0  0  0
   31.5570   29.1010   33.4160 C   0  0  0  0  0  0  0  0  0  0  0  0
   30.9800   28.8660   34.6850 F   0  0  0  0  0  0  0  0  0  0  0  0
   30.8920   30.0690   32.7270 F   0  0  0  0  0  0  0  0  0  0  0  0
   31.4300   27.8840   32.7660 F   0  0  0  0  0  0  0  0  0  0  0  0
   39.0060   26.6190   32.2080 O   0  0  0  0  0  0  0  0  0  0  0  0
   37.5250   23.2970   32.6730 N   0  0  0  0  0  0  0  0  0  0  0  0
   37.8710   24.4170   32.0190 C   0  0  0  0  0  0  0  0  0  0  0  0
   38.5590   25.4110   32.6730 C   0  0  0  0  0  0  0  0  0  0  0  0
   38.8810   25.2190   34.0250 C   0  0  0  0  0  0  0  0  0  0  0  0
   39.5000   25.9830   34.8210 O   0  0  0  0  0  0  0  0  0  0  0  0
   38.4990   24.0580   34.6300 N   0  0  0  0  0  0  0  0  0  0  0  0
   37.8280   23.1100   33.9590 C   0  0  0  0  0  0  0  0  0  0  0  0
   37.4590   22.0210   34.4910 O   0  0  0  0  0  0  0  0  0  0  0  0
   37.0060   22.6150   32.0730 H   0  0  0  0  0  0  0  0  0  0  0  0
   37.6610   24.6380   30.9820 H   0  0  0  0  0  0  0  0  0  0  0  0
   40.9960   22.5040   35.3910 Cl  0  0  0  0  0  0  0  0  0  0  0  0
   39.8260   23.0730   36.5440 C   0  0  0  0  0  0  0  0  0  0  0  0
   38.7690   23.7540   35.9930 C   0  0  0  0  0  0  0  0  0  0  0  0
   37.7710   24.2530   36.8370 C   0  0  0  0  0  0  0  0  0  0  0  0
   36.8970   24.8020   36.5270 H   0  0  0  0  0  0  0  0  0  0  0  0
   37.8210   24.0770   38.2120 C   0  0  0  0  0  0  0  0  0  0  0  0
   37.0800   24.4420   38.8960 H   0  0  0  0  0  0  0  0  0  0  0  0
   38.8990   23.3840   38.7560 C   0  0  0  0  0  3  0  0  0  0  0  0
   39.8770   22.8970   37.9110 C   0  0  0  0  0  3  0  0  0  0  0  0
  1  6  2  0  0  0  0
  1  2  1  0  0  0  0
  2  3  2  0  0  0  0
  3  4  1  0  0  0  0
  3  9  1  0  0  0  0
  5 21  1  0  0  0  0
  5  4  2  0  0  0  0
  6  5  1  0  0  0  0
  7  1  1  0  0  0  0
  8  2  1  0  0  0  0
  9 10  1  0  0  0  0
 10 15  1  0  0  0  0
 10 11  2  0  0  0  0
 11 16  1  0  0  0  0
 12 11  1  0  0  0  0
 13 12  2  0  0  0  0
 14  9  2  0  0  0  0
 14 13  1  0  0  0  0
 17 13  1  0  0  0  0
 17 18  1  0  0  0  0
 19 17  1  0  0  0  0
 20 17  1  0  0  0  0
 21 24  1  0  0  0  0
 22 28  1  0  0  0  0
 23 24  2  0  0  0  0
 23 22  1  0  0  0  0
 24 25  1  0  0  0  0
 25 27  1  0  0  0  0
 25 26  2  0  0  0  0
 27 34  1  0  0  0  0
 28 29  2  0  0  0  0
 28 27  1  0  0  0  0
 30 22  1  0  0  0  0
 31 23  1  0  0  0  0
 32 33  1  0  0  0  0
 33 40  1  0  0  0  0
 34 33  2  0  0  0  0
 34 35  1  0  0  0  0
 35 37  2  0  0  0  0
 36 35  1  0  0  0  0
 37 39  1  0  0  0  0
 37 38  1  0  0  0  0
 40 39  2  0  0  0  0
M  END
>  <minimizedAffinity>
-6.85973978

$$$$

 OpenBabel03272502273D

 40 43  0  0  0  0  0  0  0  0999 V2000
   40.4770   27.1210   32.8670 C   0  0  0  0  0  0  0  0  0  0  0  0
   40.6630   26.2180   33.9200 C   0  0  0  0  0  0  0  0  0  0  0  0
   39.5520   25.5600   34.4020 C   0  0  0  0  0  0  0  0  0  0  0  0
   38.3670   25.8250   33.8340 N   0  0  0  0  0  0  0  0  0  0  0  0
   38.1950   26.6950   32.8210 C   0  0  0  0  0  0  0  0  0  0  0  0
   39.2560   27.3400   32.3430 N   0  0  0  0  0  0  0  0  0  0  0  0
   41.3230   27.6620   32.4550 H   0  0  0  0  0  0  0  0  0  0  0  0
   41.6360   26.0320   34.3500 H   0  0  0  0  0  0  0  0  0  0  0  0
   39.6140   24.5950   35.4840 C   0  0  0  0  0  0  0  0  0  0  0  0
   38.5670   24.4850   36.3970 C   0  0  0  0  0  0  0  0  0  0  0  0
   38.5710   23.5850   37.4390 C   0  0  0  0  0  0  0  0  0  0  0  0
   39.6450   22.7650   37.5850 N   0  0  0  0  0  0  0  0  0  0  0  0
   40.6440   22.8860   36.6960 C   0  0  0  0  0  0  0  0  0  0  0  0
   40.6590   23.7590   35.6700 N   0  0  0  0  0  0  0  0  0  0  0  0
   37.7280   25.1530   36.2500 H   0  0  0  0  0  0  0  0  0  0  0  0
   37.7290   23.5460   38.1160 H   0  0  0  0  0  0  0  0  0  0  0  0
   41.8220   22.0000   36.8400 C   0  0  0  0  0  0  0  0  0  0  0  0
   41.8180   21.1240   35.7310 F   0  0  0  0  0  0  0  0  0  0  0  0
   42.9840   22.7050   36.9270 F   0  0  0  0  0  0  0  0  0  0  0  0
   41.6990   21.1530   37.9290 F   0  0  0  0  0  0  0  0  0  0  0  0
   36.8970   26.8500   32.3510 O   0  0  0  0  0  0  0  0  0  0  0  0
   35.6410   30.0640   31.1120 N   0  0  0  0  0  0  0  0  0  0  0  0
   36.2030   28.8470   31.0460 C   0  0  0  0  0  0  0  0  0  0  0  0
   36.3570   28.0980   32.1880 C   0  0  0  0  0  0  0  0  0  0  0  0
   35.9140   28.6390   33.4040 C   0  0  0  0  0  0  0  0  0  0  0  0
   35.9510   28.1420   34.5670 O   0  0  0  0  0  0  0  0  0  0  0  0
   35.3520   29.8820   33.4010 N   0  0  0  0  0  0  0  0  0  0  0  0
   35.2180   30.5830   32.2650 C   0  0  0  0  0  0  0  0  0  0  0  0
   34.7000   31.7390   32.2280 O   0  0  0  0  0  0  0  0  0  0  0  0
   35.5780   30.5370   30.1800 H   0  0  0  0  0  0  0  0  0  0  0  0
   36.5680   28.3620   30.1510 H   0  0  0  0  0  0  0  0  0  0  0  0
   32.4930   29.4410   34.3300 Cl  0  0  0  0  0  0  0  0  0  0  0  0
   33.6270   30.4690   35.1550 C   0  0  0  0  0  0  0  0  0  0  0  0
   34.8680   30.5310   34.5700 C   0  0  0  0  0  0  0  0  0  0  0  0
   35.8540   31.3320   35.1570 C   0  0  0  0  0  0  0  0  0  0  0  0
   36.8610   31.4620   34.7950 H   0  0  0  0  0  0  0  0  0  0  0  0
   35.6100   32.0620   36.3110 C   0  0  0  0  0  0  0  0  0  0  0  0
   36.3350   32.6870   36.7940 H   0  0  0  0  0  0  0  0  0  0  0  0
   34.3480   31.9890   36.8920 C   0  0  0  0  0  3  0  0  0  0  0  0
   33.3840   31.1950   36.3020 C   0  0  0  0  0  3  0  0  0  0  0  0
  1  2  1  0  0  0  0
  2  8  1  0  0  0  0
  2  3  2  0  0  0  0
  3  9  1  0  0  0  0
  4  3  1  0  0  0  0
  5  4  2  0  0  0  0
  6  5  1  0  0  0  0
  6  1  2  0  0  0  0
  7  1  1  0  0  0  0
  9 14  2  0  0  0  0
  9 10  1  0  0  0  0
 10 11  2  0  0  0  0
 11 12  1  0  0  0  0
 11 16  1  0  0  0  0
 13 17  1  0  0  0  0
 13 12  2  0  0  0  0
 14 13  1  0  0  0  0
 15 10  1  0  0  0  0
 17 19  1  0  0  0  0
 17 20  1  0  0  0  0
 18 17  1  0  0  0  0
 21  5  1  0  0  0  0
 22 28  1  0  0  0  0
 23 22  1  0  0  0  0
 23 24  2  0  0  0  0
 24 21  1  0  0  0  0
 24 25  1  0  0  0  0
 25 26  2  0  0  0  0
 27 25  1  0  0  0  0
 27 34  1  0  0  0  0
 28 27  1  0  0  0  0
 29 28  2  0  0  0  0
 30 22  1  0  0  0  0
 31 23  1  0  0  0  0
 32 33  1  0  0  0  0
 33 40  1  0  0  0  0
 34 33  2  0  0  0  0
 34 35  1  0  0  0  0
 35 37  2  0  0  0  0
 36 35  1  0  0  0  0
 37 38  1  0  0  0  0
 37 39  1  0  0  0  0
 40 39  2  0  0  0  0
M  END
>  <minimizedAffinity>
-6.7967906

$$$$

 OpenBabel03272502273D

 40 43  0  0  0  0  0  0  0  0999 V2000
   36.9000   29.0930   30.2900 C   0  0  0  0  0  0  0  0  0  0  0  0
   36.2650   29.8260   31.2990 C   0  0  0  0  0  0  0  0  0  0  0  0
   35.4910   29.1320   32.2040 C   0  0  0  0  0  0  0  0  0  0  0  0
   35.3960   27.8020   32.0620 N   0  0  0  0  0  0  0  0  0  0  0  0
   36.0090   27.1020   31.0890 C   0  0  0  0  0  0  0  0  0  0  0  0
   36.7600   27.7560   30.2050 N   0  0  0  0  0  0  0  0  0  0  0  0
   37.5180   29.5970   29.5540 H   0  0  0  0  0  0  0  0  0  0  0  0
   36.3670   30.8980   31.3790 H   0  0  0  0  0  0  0  0  0  0  0  0
   34.7890   29.7740   33.2990 C   0  0  0  0  0  0  0  0  0  0  0  0
   33.4240   29.5640   33.4870 C   0  0  0  0  0  0  0  0  0  0  0  0
   32.7100   30.1440   34.5110 C   0  0  0  0  0  0  0  0  0  0  0  0
   33.3640   30.9600   35.3790 N   0  0  0  0  0  0  0  0  0  0  0  0
   34.6780   31.1510   35.1810 C   0  0  0  0  0  0  0  0  0  0  0  0
   35.3960   30.5930   34.1870 N   0  0  0  0  0  0  0  0  0  0  0  0
   32.9360   28.9080   32.7780 H   0  0  0  0  0  0  0  0  0  0  0  0
   31.6520   29.9420   34.6060 H   0  0  0  0  0  0  0  0  0  0  0  0
   35.4070   32.0370   36.1170 C   0  0  0  0  0  0  0  0  0  0  0  0
   34.8480   31.8330   37.4000 F   0  0  0  0  0  0  0  0  0  0  0  0
   36.7480   31.8030   36.1050 F   0  0  0  0  0  0  0  0  0  0  0  0
   35.1560   33.3750   35.8590 F   0  0  0  0  0  0  0  0  0  0  0  0
   35.8020   25.7290   31.0880 O   0  0  0  0  0  0  0  0  0  0  0  0
   37.9960   24.2720   33.6390 N   0  0  0  0  0  0  0  0  0  0  0  0
   37.4030   25.2410   32.9250 C   0  0  0  0  0  0  0  0  0  0  0  0
   36.5140   24.9140   31.9290 C   0  0  0  0  0  0  0  0  0  0  0  0
   36.2520   23.5570   31.6880 C   0  0  0  0  0  0  0  0  0  0  0  0
   35.4830   23.0250   30.8360 O   0  0  0  0  0  0  0  0  0  0  0  0
   36.8900   22.6230   32.4490 N   0  0  0  0  0  0  0  0  0  0  0  0
   37.7520   22.9800   33.4130 C   0  0  0  0  0  0  0  0  0  0  0  0
   38.3600   22.1380   34.1380 O   0  0  0  0  0  0  0  0  0  0  0  0
   38.6510   24.6410   34.3670 H   0  0  0  0  0  0  0  0  0  0  0  0
   37.5500   26.3050   33.0500 H   0  0  0  0  0  0  0  0  0  0  0  0
   38.6000   21.0540   30.4880 Cl  0  0  0  0  0  0  0  0  0  0  0  0
   37.3620   20.3370   31.4760 C   0  0  0  0  0  0  0  0  0  0  0  0
   36.7050   21.2220   32.2950 C   0  0  0  0  0  0  0  0  0  0  0  0
   35.6890   20.7440   33.1310 C   0  0  0  0  0  0  0  0  0  0  0  0
   35.1030   21.3350   33.8150 H   0  0  0  0  0  0  0  0  0  0  0  0
   35.3300   19.4040   33.1530 C   0  0  0  0  0  0  0  0  0  0  0  0
   34.5600   18.9950   33.7760 H   0  0  0  0  0  0  0  0  0  0  0  0
   36.0050   18.5200   32.3170 C   0  0  0  0  0  3  0  0  0  0  0  0
   37.0060   19.0050   31.4970 C   0  0  0  0  0  3  0  0  0  0  0  0
  1  2  1  0  0  0  0
  2  8  1  0  0  0  0
  2  3  2  0  0  0  0
  3  9  1  0  0  0  0
  4  3  1  0  0  0  0
  5  4  2  0  0  0  0
  6  1  2  0  0  0  0
  6  5  1  0  0  0  0
  7  1  1  0  0  0  0
  9 10  2  0  0  0  0
  9 14  1  0  0  0  0
 10 11  1  0  0  0  0
 11 16  1  0  0  0  0
 11 12  2  0  0  0  0
 13 12  1  0  0  0  0
 13 17  1  0  0  0  0
 14 13  2  0  0  0  0
 15 10  1  0  0  0  0
 17 18  1  0  0  0  0
 19 17  1  0  0  0  0
 20 17  1  0  0  0  0
 21  5  1  0  0  0  0
 21 24  1  0  0  0  0
 22 30  1  0  0  0  0
 23 31  1  0  0  0  0
 23 22  1  0  0  0  0
 24 23  2  0  0  0  0
 25 24  1  0  0  0  0
 25 27  1  0  0  0  0
 26 25  2  0  0  0  0
 27 28  1  0  0  0  0
 28 22  1  0  0  0  0
 28 29  2  0  0  0  0
 32 33  1  0  0  0  0
 33 40  2  0  0  0  0
 33 34  1  0  0  0  0
 34 27  1  0  0  0  0
 34 35  2  0  0  0  0
 35 37  1  0  0  0  0
 35 36  1  0  0  0  0
 37 38  1  0  0  0  0
 39 37  2  0  0  0  0
 40 39  1  0  0  0  0
M  END
>  <minimizedAffinity>
-6.78412008

$$$$

 OpenBabel03272502273D

 40 43  0  0  0  0  0  0  0  0999 V2000
   36.6840   26.5250   31.7880 C   0  0  0  0  0  0  0  0  0  0  0  0
   37.1980   25.4350   32.4980 C   0  0  0  0  0  0  0  0  0  0  0  0
   37.4450   25.6060   33.8440 C   0  0  0  0  0  0  0  0  0  0  0  0
   37.1760   26.8030   34.3850 N   0  0  0  0  0  0  0  0  0  0  0  0
   36.6810   27.8480   33.6960 C   0  0  0  0  0  0  0  0  0  0  0  0
   36.4380   27.7010   32.3960 N   0  0  0  0  0  0  0  0  0  0  0  0
   36.4750   26.4370   30.7260 H   0  0  0  0  0  0  0  0  0  0  0  0
   37.4010   24.4860   32.0240 H   0  0  0  0  0  0  0  0  0  0  0  0
   37.9700   24.5520   34.6900 C   0  0  0  0  0  0  0  0  0  0  0  0
   38.5920   23.4370   34.1320 C   0  0  0  0  0  0  0  0  0  0  0  0
   39.1120   22.4100   34.8890 C   0  0  0  0  0  0  0  0  0  0  0  0
   39.0150   22.4870   36.2420 N   0  0  0  0  0  0  0  0  0  0  0  0
   38.4120   23.5690   36.7610 C   0  0  0  0  0  0  0  0  0  0  0  0
   37.8980   24.5830   36.0400 N   0  0  0  0  0  0  0  0  0  0  0  0
   38.6520   23.4100   33.0520 H   0  0  0  0  0  0  0  0  0  0  0  0
   39.5830   21.5710   34.3970 H   0  0  0  0  0  0  0  0  0  0  0  0
   38.2980   23.6680   38.2340 C   0  0  0  0  0  0  0  0  0  0  0  0
   39.4770   23.1090   38.7790 F   0  0  0  0  0  0  0  0  0  0  0  0
   38.1070   24.9510   38.6470 F   0  0  0  0  0  0  0  0  0  0  0  0
   37.2900   22.8560   38.7280 F   0  0  0  0  0  0  0  0  0  0  0  0
   36.4620   29.0170   34.4140 O   0  0  0  0  0  0  0  0  0  0  0  0
   32.9850   30.0350   33.8520 N   0  0  0  0  0  0  0  0  0  0  0  0
   34.0700   29.2480   33.7840 C   0  0  0  0  0  0  0  0  0  0  0  0
   35.2490   29.6510   34.3640 C   0  0  0  0  0  0  0  0  0  0  0  0
   35.2790   30.8920   35.0180 C   0  0  0  0  0  0  0  0  0  0  0  0
   36.2370   31.4630   35.6150 O   0  0  0  0  0  0  0  0  0  0  0  0
   34.1410   31.6420   35.0500 N   0  0  0  0  0  0  0  0  0  0  0  0
   33.0080   31.2150   34.4730 C   0  0  0  0  0  0  0  0  0  0  0  0
   31.9350   31.8870   34.4850 O   0  0  0  0  0  0  0  0  0  0  0  0
   32.1490   29.6230   33.3760 H   0  0  0  0  0  0  0  0  0  0  0  0
   34.1260   28.2820   33.3010 H   0  0  0  0  0  0  0  0  0  0  0  0
   34.5700   34.1880   33.4470 Cl  0  0  0  0  0  0  0  0  0  0  0  0
   34.2110   34.1680   35.1480 C   0  0  0  0  0  0  0  0  0  0  0  0
   34.0540   32.9130   35.6820 C   0  0  0  0  0  0  0  0  0  0  0  0
   33.7630   32.7880   37.0450 C   0  0  0  0  0  0  0  0  0  0  0  0
   33.6170   31.8630   37.5790 H   0  0  0  0  0  0  0  0  0  0  0  0
   33.6300   33.8970   37.8680 C   0  0  0  0  0  0  0  0  0  0  0  0
   33.4070   33.8480   38.9160 H   0  0  0  0  0  0  0  0  0  0  0  0
   33.7910   35.1630   37.3130 C   0  0  0  0  0  3  0  0  0  0  0  0
   34.0790   35.2710   35.9660 C   0  0  0  0  0  3  0  0  0  0  0  0
  1  6  2  0  0  0  0
  1  2  1  0  0  0  0
  2  3  2  0  0  0  0
  3  4  1  0  0  0  0
  3  9  1  0  0  0  0
  5  4  2  0  0  0  0
  5 21  1  0  0  0  0
  6  5  1  0  0  0  0
  7  1  1  0  0  0  0
  8  2  1  0  0  0  0
  9 14  1  0  0  0  0
 10  9  2  0  0  0  0
 10 11  1  0  0  0  0
 11 12  2  0  0  0  0
 12 13  1  0  0  0  0
 13 17  1  0  0  0  0
 14 13  2  0  0  0  0
 15 10  1  0  0  0  0
 16 11  1  0  0  0  0
 17 19  1  0  0  0  0
 17 20  1  0  0  0  0
 17 18  1  0  0  0  0
 22 28  1  0  0  0  0
 23 22  1  0  0  0  0
 23 24  2  0  0  0  0
 24 21  1  0  0  0  0
 24 25  1  0  0  0  0
 25 27  1  0  0  0  0
 25 26  2  0  0  0  0
 27 34  1  0  0  0  0
 28 29  2  0  0  0  0
 28 27  1  0  0  0  0
 30 22  1  0  0  0  0
 31 23  1  0  0  0  0
 32 33  1  0  0  0  0
 33 34  2  0  0  0  0
 33 40  1  0  0  0  0
 34 35  1  0  0  0  0
 35 36  1  0  0  0  0
 35 37  2  0  0  0  0
 37 38  1  0  0  0  0
 39 37  1  0  0  0  0
 40 39  2  0  0  0  0
M  END
>  <minimizedAffinity>
-6.61068201

$$$$

 OpenBabel03272502273D

 40 43  0  0  0  0  0  0  0  0999 V2000
   36.9450   24.5210   32.0060 C   0  0  0  0  0  0  0  0  0  0  0  0
   37.3770   23.9010   33.1830 C   0  0  0  0  0  0  0  0  0  0  0  0
   37.8790   24.7040   34.1840 C   0  0  0  0  0  0  0  0  0  0  0  0
   37.9210   26.0270   33.9670 N   0  0  0  0  0  0  0  0  0  0  0  0
   37.5050   26.6180   32.8320 C   0  0  0  0  0  0  0  0  0  0  0  0
   37.0170   25.8580   31.8540 N   0  0  0  0  0  0  0  0  0  0  0  0
   36.5430   23.9280   31.1900 H   0  0  0  0  0  0  0  0  0  0  0  0
   37.3250   22.8300   33.3190 H   0  0  0  0  0  0  0  0  0  0  0  0
   38.3510   24.1840   35.4520 C   0  0  0  0  0  0  0  0  0  0  0  0
   37.6230   24.3970   36.6220 C   0  0  0  0  0  0  0  0  0  0  0  0
   38.0220   23.9220   37.8510 C   0  0  0  0  0  0  0  0  0  0  0  0
   39.1780   23.2130   37.9300 N   0  0  0  0  0  0  0  0  0  0  0  0
   39.8650   23.0180   36.7930 C   0  0  0  0  0  0  0  0  0  0  0  0
   39.4930   23.4730   35.5810 N   0  0  0  0  0  0  0  0  0  0  0  0
   36.7080   24.9650   36.5220 H   0  0  0  0  0  0  0  0  0  0  0  0
   37.4140   24.1200   38.7230 H   0  0  0  0  0  0  0  0  0  0  0  0
   41.1280   22.2470   36.8600 C   0  0  0  0  0  0  0  0  0  0  0  0
   42.1860   23.1850   36.8460 F   0  0  0  0  0  0  0  0  0  0  0  0
   41.1780   21.4410   37.9560 F   0  0  0  0  0  0  0  0  0  0  0  0
   41.3370   21.4990   35.7120 F   0  0  0  0  0  0  0  0  0  0  0  0
   37.6210   28.0010   32.7740 O   0  0  0  0  0  0  0  0  0  0  0  0
   34.8190   29.9720   31.4660 N   0  0  0  0  0  0  0  0  0  0  0  0
   35.9090   29.1900   31.4210 C   0  0  0  0  0  0  0  0  0  0  0  0
   36.5160   28.7890   32.5870 C   0  0  0  0  0  0  0  0  0  0  0  0
   35.9680   29.2170   33.8060 C   0  0  0  0  0  0  0  0  0  0  0  0
   36.3490   28.9790   34.9870 O   0  0  0  0  0  0  0  0  0  0  0  0
   34.8600   30.0120   33.7800 N   0  0  0  0  0  0  0  0  0  0  0  0
   34.2950   30.3830   32.6220 C   0  0  0  0  0  0  0  0  0  0  0  0
   33.2650   31.1200   32.5640 O   0  0  0  0  0  0  0  0  0  0  0  0
   34.4470   30.2120   30.5180 H   0  0  0  0  0  0  0  0  0  0  0  0
   36.3890   28.8180   30.5260 H   0  0  0  0  0  0  0  0  0  0  0  0
   32.2340   28.8060   34.7190 Cl  0  0  0  0  0  0  0  0  0  0  0  0
   33.0440   30.1080   35.5370 C   0  0  0  0  0  0  0  0  0  0  0  0
   34.2190   30.5070   34.9490 C   0  0  0  0  0  0  0  0  0  0  0  0
   34.9470   31.5500   35.5310 C   0  0  0  0  0  0  0  0  0  0  0  0
   35.8790   31.9510   35.1660 H   0  0  0  0  0  0  0  0  0  0  0  0
   34.5150   32.1900   36.6840 C   0  0  0  0  0  0  0  0  0  0  0  0
   35.0410   32.9910   37.1630 H   0  0  0  0  0  0  0  0  0  0  0  0
   33.3230   31.7740   37.2690 C   0  0  0  0  0  3  0  0  0  0  0  0
   32.6130   30.7440   36.6830 C   0  0  0  0  0  3  0  0  0  0  0  0
  1  2  1  0  0  0  0
  2  8  1  0  0  0  0
  2  3  2  0  0  0  0
  3  9  1  0  0  0  0
  4  3  1  0  0  0  0
  5  4  2  0  0  0  0
  6  1  2  0  0  0  0
  6  5  1  0  0  0  0
  7  1  1  0  0  0  0
  9 14  2  0  0  0  0
  9 10  1  0  0  0  0
 10 11  2  0  0  0  0
 11 12  1  0  0  0  0
 11 16  1  0  0  0  0
 13 17  1  0  0  0  0
 13 12  2  0  0  0  0
 14 13  1  0  0  0  0
 15 10  1  0  0  0  0
 17 19  1  0  0  0  0
 18 17  1  0  0  0  0
 20 17  1  0  0  0  0
 21  5  1  0  0  0  0
 22 28  1  0  0  0  0
 23 22  1  0  0  0  0
 23 24  2  0  0  0  0
 24 21  1  0  0  0  0
 24 25  1  0  0  0  0
 25 26  2  0  0  0  0
 27 25  1  0  0  0  0
 27 34  1  0  0  0  0
 28 27  1  0  0  0  0
 29 28  2  0  0  0  0
 30 22  1  0  0  0  0
 31 23  1  0  0  0  0
 32 33  1  0  0  0  0
 33 40  1  0  0  0  0
 34 35  1  0  0  0  0
 34 33  2  0  0  0  0
 35 37  2  0  0  0  0
 36 35  1  0  0  0  0
 37 38  1  0  0  0  0
 37 39  1  0  0  0  0
 40 39  2  0  0  0  0
M  END
>  <minimizedAffinity>
-6.60459137

$$$$
