
 OpenBabel03272504013D

 31 33  0  0  0  0  0  0  0  0999 V2000
   37.9160   24.0940   32.5100 C   0  0  0  0  0  0  0  0  0  0  0  0
   38.8690   25.0990   32.5600 C   0  0  0  0  0  0  0  0  0  0  0  0
   39.2610   25.2490   33.8640 C   0  0  0  0  0  0  0  0  0  0  0  0
   38.5610   24.3580   34.5700 N   0  0  0  0  0  0  0  0  0  0  0  0
   37.7780   23.6850   33.7760 N   0  0  0  0  0  0  0  0  0  0  0  0
   39.2700   25.6940   31.7470 H   0  0  0  0  0  0  0  0  0  0  0  0
   39.9830   25.9420   34.2450 H   0  0  0  0  0  0  0  0  0  0  0  0
   40.6610   22.4170   35.1850 Cl  0  0  0  0  0  0  0  0  0  0  0  0
   39.5700   23.1860   36.3260 C   0  0  0  0  0  0  0  0  0  0  0  0
   38.5900   24.1030   35.9710 C   0  0  0  0  0  0  0  0  0  0  0  0
   37.7960   24.6360   36.9650 C   0  0  0  0  0  0  0  0  0  0  0  0
   37.0630   25.3400   36.5960 H   0  0  0  0  0  0  0  0  0  0  0  0
   37.9900   24.2520   38.2750 C   0  0  0  0  0  0  0  0  0  0  0  0
   37.3320   24.7130   38.9860 H   0  0  0  0  0  0  0  0  0  0  0  0
   38.9670   23.3390   38.6250 C   0  0  0  0  0  3  0  0  0  0  0  0
   39.7570   22.8070   37.6400 C   0  0  0  0  0  3  0  0  0  0  0  0
   37.2900   23.7040   31.2290 C   0  0  0  0  0  0  0  0  0  0  0  0
   37.1180   24.6060   30.5790 H   0  0  0  0  0  0  0  0  0  0  0  0
   38.0570   23.1490   30.6720 H   0  0  0  0  0  0  0  0  0  0  0  0
   35.9660   23.0630   31.4060 C   0  0  0  0  0  0  0  0  0  0  0  0
   35.5660   23.4220   32.4030 H   0  0  0  0  0  0  0  0  0  0  0  0
   35.1880   23.4630   30.6870 H   0  0  0  0  0  0  0  0  0  0  0  0
   35.8830   21.6300   31.4120 C   0  0  0  0  0  0  0  0  0  0  0  0
   34.9440   20.9800   32.1630 C   0  0  0  0  0  0  0  0  0  0  0  0
   34.8730   19.5670   32.1670 C   0  0  0  0  0  0  0  0  0  0  0  0
   35.8080   18.9260   31.3690 N   0  0  0  0  0  0  0  0  0  0  0  0
   36.7180   19.6120   30.6440 C   0  0  0  0  0  0  0  0  0  0  0  0
   36.7510   20.9650   30.6690 N   0  0  0  0  0  0  0  0  0  0  0  0
   34.1750   21.3630   32.8090 H   0  0  0  0  0  0  0  0  0  0  0  0
   34.1850   18.9630   32.7120 H   0  0  0  0  0  0  0  0  0  0  0  0
   37.4150   19.0370   30.0440 H   0  0  0  0  0  0  0  0  0  0  0  0
  1  2  1  0  0  0  0
  1  5  2  0  0  0  0
  2  3  2  0  0  0  0
  3  7  1  0  0  0  0
  3  4  1  0  0  0  0
  4 10  1  0  0  0  0
  5  4  1  0  0  0  0
  6  2  1  0  0  0  0
  8  9  1  0  0  0  0
  9 16  1  0  0  0  0
 10  9  2  0  0  0  0
 10 11  1  0  0  0  0
 11 13  2  0  0  0  0
 12 11  1  0  0  0  0
 13 15  1  0  0  0  0
 13 14  1  0  0  0  0
 16 15  2  0  0  0  0
 17 20  1  0  0  0  0
 17  1  1  0  0  0  0
 18 17  1  0  0  0  0
 19 17  1  0  0  0  0
 20 23  1  0  0  0  0
 20 21  1  0  0  0  0
 22 20  1  0  0  0  0
 23 24  1  0  0  0  0
 24 25  2  0  0  0  0
 24 29  1  0  0  0  0
 25 30  1  0  0  0  0
 26 25  1  0  0  0  0
 27 28  1  0  0  0  0
 27 26  2  0  0  0  0
 28 23  2  0  0  0  0
 31 27  1  0  0  0  0
M  END
>  <minimizedAffinity>
-5.17082357

$$$$

 OpenBabel03272504013D

 31 33  0  0  0  0  0  0  0  0999 V2000
   36.4620   28.1970   33.1400 C   0  0  0  0  0  0  0  0  0  0  0  0
   36.2490   29.1680   32.1740 C   0  0  0  0  0  0  0  0  0  0  0  0
   35.6770   30.2530   32.7830 C   0  0  0  0  0  0  0  0  0  0  0  0
   35.5520   29.9360   34.0740 N   0  0  0  0  0  0  0  0  0  0  0  0
   36.0130   28.7350   34.2780 N   0  0  0  0  0  0  0  0  0  0  0  0
   36.4750   29.1310   31.1140 H   0  0  0  0  0  0  0  0  0  0  0  0
   35.3850   31.1740   32.3190 H   0  0  0  0  0  0  0  0  0  0  0  0
   32.6970   29.3770   34.3770 Cl  0  0  0  0  0  0  0  0  0  0  0  0
   33.6600   30.4920   35.3330 C   0  0  0  0  0  0  0  0  0  0  0  0
   35.0160   30.7150   35.1400 C   0  0  0  0  0  0  0  0  0  0  0  0
   35.6590   31.6190   35.9600 C   0  0  0  0  0  0  0  0  0  0  0  0
   36.7110   31.7260   35.7360 H   0  0  0  0  0  0  0  0  0  0  0  0
   34.9490   32.2740   36.9440 C   0  0  0  0  0  0  0  0  0  0  0  0
   35.5230   32.9590   37.5370 H   0  0  0  0  0  0  0  0  0  0  0  0
   33.5980   32.0500   37.1340 C   0  0  0  0  0  3  0  0  0  0  0  0
   32.9570   31.1530   36.3200 C   0  0  0  0  0  3  0  0  0  0  0  0
   37.0640   26.8930   32.7860 C   0  0  0  0  0  0  0  0  0  0  0  0
   36.3300   26.0570   32.9520 H   0  0  0  0  0  0  0  0  0  0  0  0
   37.1800   26.8980   31.6940 H   0  0  0  0  0  0  0  0  0  0  0  0
   38.2550   26.5660   33.6050 C   0  0  0  0  0  0  0  0  0  0  0  0
   39.0860   26.3160   32.8770 H   0  0  0  0  0  0  0  0  0  0  0  0
   38.6780   27.4700   34.1390 H   0  0  0  0  0  0  0  0  0  0  0  0
   38.1760   25.4810   34.5420 C   0  0  0  0  0  0  0  0  0  0  0  0
   37.9980   25.7130   35.8770 C   0  0  0  0  0  0  0  0  0  0  0  0
   37.9270   24.6380   36.7940 C   0  0  0  0  0  0  0  0  0  0  0  0
   38.0490   23.3760   36.2360 N   0  0  0  0  0  0  0  0  0  0  0  0
   38.2230   23.1960   34.9080 C   0  0  0  0  0  0  0  0  0  0  0  0
   38.2860   24.2540   34.0660 N   0  0  0  0  0  0  0  0  0  0  0  0
   37.8890   26.6350   36.4200 H   0  0  0  0  0  0  0  0  0  0  0  0
   37.7910   24.7050   37.8490 H   0  0  0  0  0  0  0  0  0  0  0  0
   38.3090   22.1770   34.5490 H   0  0  0  0  0  0  0  0  0  0  0  0
  1  5  2  0  0  0  0
  2  3  2  0  0  0  0
  2  1  1  0  0  0  0
  3  4  1  0  0  0  0
  4  5  1  0  0  0  0
  4 10  1  0  0  0  0
  6  2  1  0  0  0  0
  7  3  1  0  0  0  0
  8  9  1  0  0  0  0
  9 16  1  0  0  0  0
 10  9  2  0  0  0  0
 10 11  1  0  0  0  0
 11 13  2  0  0  0  0
 12 11  1  0  0  0  0
 13 15  1  0  0  0  0
 13 14  1  0  0  0  0
 16 15  2  0  0  0  0
 17 18  1  0  0  0  0
 17  1  1  0  0  0  0
 17 20  1  0  0  0  0
 19 17  1  0  0  0  0
 20 22  1  0  0  0  0
 20 23  1  0  0  0  0
 21 20  1  0  0  0  0
 23 24  1  0  0  0  0
 24 29  1  0  0  0  0
 24 25  2  0  0  0  0
 25 30  1  0  0  0  0
 26 25  1  0  0  0  0
 27 26  2  0  0  0  0
 28 23  2  0  0  0  0
 28 27  1  0  0  0  0
 31 27  1  0  0  0  0
M  END
>  <minimizedAffinity>
-5.14952898

$$$$

 OpenBabel03272504013D

 31 33  0  0  0  0  0  0  0  0999 V2000
   37.5150   24.9860   33.0970 C   0  0  0  0  0  0  0  0  0  0  0  0
   36.6450   25.4970   32.1460 C   0  0  0  0  0  0  0  0  0  0  0  0
   36.0170   24.4440   31.5360 C   0  0  0  0  0  0  0  0  0  0  0  0
   36.5000   23.3380   32.1070 N   0  0  0  0  0  0  0  0  0  0  0  0
   37.3730   23.6590   33.0180 N   0  0  0  0  0  0  0  0  0  0  0  0
   36.4540   26.5330   31.8890 H   0  0  0  0  0  0  0  0  0  0  0  0
   35.2840   24.4940   30.7560 H   0  0  0  0  0  0  0  0  0  0  0  0
   38.4780   22.1900   30.2830 Cl  0  0  0  0  0  0  0  0  0  0  0  0
   37.0840   21.3750   30.9740 C   0  0  0  0  0  0  0  0  0  0  0  0
   36.1780   21.9770   31.8370 C   0  0  0  0  0  0  0  0  0  0  0  0
   35.1220   21.2260   32.3120 C   0  0  0  0  0  0  0  0  0  0  0  0
   34.4710   21.7770   32.9760 H   0  0  0  0  0  0  0  0  0  0  0  0
   34.9900   19.9090   31.9240 C   0  0  0  0  0  0  0  0  0  0  0  0
   34.1440   19.3970   32.3380 H   0  0  0  0  0  0  0  0  0  0  0  0
   35.8950   19.3130   31.0640 C   0  0  0  0  0  3  0  0  0  0  0  0
   36.9440   20.0570   30.5910 C   0  0  0  0  0  3  0  0  0  0  0  0
   38.3510   25.8850   33.9220 C   0  0  0  0  0  0  0  0  0  0  0  0
   39.4350   25.5920   33.8550 H   0  0  0  0  0  0  0  0  0  0  0  0
   38.3340   26.8620   33.4210 H   0  0  0  0  0  0  0  0  0  0  0  0
   37.9990   25.8400   35.3600 C   0  0  0  0  0  0  0  0  0  0  0  0
   38.3350   26.8270   35.8030 H   0  0  0  0  0  0  0  0  0  0  0  0
   36.8820   25.8750   35.5380 H   0  0  0  0  0  0  0  0  0  0  0  0
   38.5560   24.8010   36.1800 C   0  0  0  0  0  0  0  0  0  0  0  0
   37.9740   24.4470   37.3650 C   0  0  0  0  0  0  0  0  0  0  0  0
   38.5320   23.4250   38.1680 C   0  0  0  0  0  0  0  0  0  0  0  0
   39.6810   22.8380   37.6620 N   0  0  0  0  0  0  0  0  0  0  0  0
   40.2200   23.2210   36.4840 C   0  0  0  0  0  0  0  0  0  0  0  0
   39.6530   24.2040   35.7470 N   0  0  0  0  0  0  0  0  0  0  0  0
   37.0930   24.8240   37.8530 H   0  0  0  0  0  0  0  0  0  0  0  0
   38.1630   23.0730   39.1030 H   0  0  0  0  0  0  0  0  0  0  0  0
   41.1200   22.7110   36.1570 H   0  0  0  0  0  0  0  0  0  0  0  0
  1 17  1  0  0  0  0
  2  1  1  0  0  0  0
  3  4  1  0  0  0  0
  3  2  2  0  0  0  0
  4  5  1  0  0  0  0
  5  1  2  0  0  0  0
  6  2  1  0  0  0  0
  7  3  1  0  0  0  0
  8  9  1  0  0  0  0
  9 10  1  0  0  0  0
 10  4  1  0  0  0  0
 10 11  2  0  0  0  0
 11 12  1  0  0  0  0
 13 11  1  0  0  0  0
 13 14  1  0  0  0  0
 15 13  2  0  0  0  0
 16  9  2  0  0  0  0
 16 15  1  0  0  0  0
 17 20  1  0  0  0  0
 18 17  1  0  0  0  0
 19 17  1  0  0  0  0
 20 22  1  0  0  0  0
 20 21  1  0  0  0  0
 20 23  1  0  0  0  0
 23 24  1  0  0  0  0
 24 29  1  0  0  0  0
 24 25  2  0  0  0  0
 25 30  1  0  0  0  0
 26 25  1  0  0  0  0
 27 26  2  0  0  0  0
 28 23  2  0  0  0  0
 28 27  1  0  0  0  0
 31 27  1  0  0  0  0
M  END
>  <minimizedAffinity>
-5.08759356

$$$$

 OpenBabel03272504013D

 31 33  0  0  0  0  0  0  0  0999 V2000
   36.3470   28.7280   32.6260 C   0  0  0  0  0  0  0  0  0  0  0  0
   35.9790   29.7810   31.8050 C   0  0  0  0  0  0  0  0  0  0  0  0
   35.3690   30.7310   32.5800 C   0  0  0  0  0  0  0  0  0  0  0  0
   35.3720   30.2550   33.8270 N   0  0  0  0  0  0  0  0  0  0  0  0
   35.9460   29.0860   33.8490 N   0  0  0  0  0  0  0  0  0  0  0  0
   36.1230   29.8900   30.7350 H   0  0  0  0  0  0  0  0  0  0  0  0
   34.9660   31.6690   32.2530 H   0  0  0  0  0  0  0  0  0  0  0  0
   32.5910   29.4420   34.2270 Cl  0  0  0  0  0  0  0  0  0  0  0  0
   33.5380   30.5010   35.2590 C   0  0  0  0  0  0  0  0  0  0  0  0
   34.8590   30.8510   35.0150 C   0  0  0  0  0  0  0  0  0  0  0  0
   35.4930   31.6940   35.9040 C   0  0  0  0  0  0  0  0  0  0  0  0
   36.5160   31.9100   35.6330 H   0  0  0  0  0  0  0  0  0  0  0  0
   34.8090   32.1650   37.0050 C   0  0  0  0  0  0  0  0  0  0  0  0
   35.3730   32.8140   37.6460 H   0  0  0  0  0  0  0  0  0  0  0  0
   33.4930   31.8140   37.2460 C   0  0  0  0  0  3  0  0  0  0  0  0
   32.8620   30.9780   36.3640 C   0  0  0  0  0  3  0  0  0  0  0  0
   37.0260   27.5350   32.0740 C   0  0  0  0  0  0  0  0  0  0  0  0
   37.7260   27.8250   31.2420 H   0  0  0  0  0  0  0  0  0  0  0  0
   37.7130   27.1870   32.8560 H   0  0  0  0  0  0  0  0  0  0  0  0
   36.0820   26.5510   31.4950 C   0  0  0  0  0  0  0  0  0  0  0  0
   35.0550   26.8190   31.8930 H   0  0  0  0  0  0  0  0  0  0  0  0
   35.9400   26.6860   30.3800 H   0  0  0  0  0  0  0  0  0  0  0  0
   36.2840   25.1550   31.7610 C   0  0  0  0  0  0  0  0  0  0  0  0
   35.4950   24.2030   31.1790 C   0  0  0  0  0  0  0  0  0  0  0  0
   35.6980   22.8300   31.4500 C   0  0  0  0  0  0  0  0  0  0  0  0
   36.7330   22.5490   32.3280 N   0  0  0  0  0  0  0  0  0  0  0  0
   37.4870   23.5240   32.8790 C   0  0  0  0  0  0  0  0  0  0  0  0
   37.2580   24.8270   32.5920 N   0  0  0  0  0  0  0  0  0  0  0  0
   34.6750   24.2980   30.4890 H   0  0  0  0  0  0  0  0  0  0  0  0
   35.1450   22.0110   31.0540 H   0  0  0  0  0  0  0  0  0  0  0  0
   38.2790   23.2220   33.5560 H   0  0  0  0  0  0  0  0  0  0  0  0
  1  5  2  0  0  0  0
  2  3  2  0  0  0  0
  2  1  1  0  0  0  0
  3  4  1  0  0  0  0
  4  5  1  0  0  0  0
  4 10  1  0  0  0  0
  6  2  1  0  0  0  0
  7  3  1  0  0  0  0
  8  9  1  0  0  0  0
  9 16  1  0  0  0  0
 10  9  2  0  0  0  0
 10 11  1  0  0  0  0
 11 13  2  0  0  0  0
 12 11  1  0  0  0  0
 13 15  1  0  0  0  0
 13 14  1  0  0  0  0
 16 15  2  0  0  0  0
 17  1  1  0  0  0  0
 17 19  1  0  0  0  0
 18 17  1  0  0  0  0
 20 23  1  0  0  0  0
 20 21  1  0  0  0  0
 20 17  1  0  0  0  0
 22 20  1  0  0  0  0
 23 28  1  0  0  0  0
 24 25  1  0  0  0  0
 24 23  2  0  0  0  0
 25 26  2  0  0  0  0
 26 27  1  0  0  0  0
 27 31  1  0  0  0  0
 28 27  2  0  0  0  0
 29 24  1  0  0  0  0
 30 25  1  0  0  0  0
M  END
>  <minimizedAffinity>
-5.01770592

$$$$

 OpenBabel03272504013D

 31 33  0  0  0  0  0  0  0  0999 V2000
   36.3120   28.5270   33.2260 C   0  0  0  0  0  0  0  0  0  0  0  0
   35.9940   29.5300   32.3250 C   0  0  0  0  0  0  0  0  0  0  0  0
   35.1030   30.3770   32.9290 C   0  0  0  0  0  0  0  0  0  0  0  0
   34.8970   29.8910   34.1550 N   0  0  0  0  0  0  0  0  0  0  0  0
   35.6060   28.8110   34.3250 N   0  0  0  0  0  0  0  0  0  0  0  0
   36.3540   29.6710   31.3110 H   0  0  0  0  0  0  0  0  0  0  0  0
   34.6580   31.2550   32.5050 H   0  0  0  0  0  0  0  0  0  0  0  0
   36.3490   31.8810   35.7330 Cl  0  0  0  0  0  0  0  0  0  0  0  0
   34.6940   31.3480   35.9750 C   0  0  0  0  0  0  0  0  0  0  0  0
   34.0580   30.3960   35.1900 C   0  0  0  0  0  0  0  0  0  0  0  0
   32.7520   30.0630   35.4840 C   0  0  0  0  0  0  0  0  0  0  0  0
   32.3410   29.3160   34.8210 H   0  0  0  0  0  0  0  0  0  0  0  0
   32.1120   30.6770   36.5410 C   0  0  0  0  0  0  0  0  0  0  0  0
   31.1000   30.3620   36.7030 H   0  0  0  0  0  0  0  0  0  0  0  0
   32.7480   31.6250   37.3220 C   0  0  0  0  0  3  0  0  0  0  0  0
   34.0450   31.9560   37.0310 C   0  0  0  0  0  3  0  0  0  0  0  0
   37.2520   27.4460   32.8590 C   0  0  0  0  0  0  0  0  0  0  0  0
   36.7020   26.4790   32.6950 H   0  0  0  0  0  0  0  0  0  0  0  0
   37.6170   27.6890   31.8520 H   0  0  0  0  0  0  0  0  0  0  0  0
   38.2590   27.1750   33.9110 C   0  0  0  0  0  0  0  0  0  0  0  0
   39.2720   27.2080   33.4020 H   0  0  0  0  0  0  0  0  0  0  0  0
   38.3480   28.0210   34.6580 H   0  0  0  0  0  0  0  0  0  0  0  0
   38.1920   25.9370   34.6350 C   0  0  0  0  0  0  0  0  0  0  0  0
   38.0890   25.9200   35.9970 C   0  0  0  0  0  0  0  0  0  0  0  0
   38.0280   24.6950   36.7020 C   0  0  0  0  0  0  0  0  0  0  0  0
   38.0810   23.5570   35.9140 N   0  0  0  0  0  0  0  0  0  0  0  0
   38.1840   23.6230   34.5690 C   0  0  0  0  0  0  0  0  0  0  0  0
   38.2390   24.8170   33.9340 N   0  0  0  0  0  0  0  0  0  0  0  0
   38.0360   26.7260   36.7070 H   0  0  0  0  0  0  0  0  0  0  0  0
   37.9470   24.5680   37.7570 H   0  0  0  0  0  0  0  0  0  0  0  0
   38.2190   22.6870   34.0230 H   0  0  0  0  0  0  0  0  0  0  0  0
  1  5  2  0  0  0  0
  2  3  2  0  0  0  0
  2  1  1  0  0  0  0
  3  4  1  0  0  0  0
  4  5  1  0  0  0  0
  4 10  1  0  0  0  0
  6  2  1  0  0  0  0
  7  3  1  0  0  0  0
  8  9  1  0  0  0  0
  9 16  1  0  0  0  0
 10 11  1  0  0  0  0
 10  9  2  0  0  0  0
 11 13  2  0  0  0  0
 12 11  1  0  0  0  0
 13 14  1  0  0  0  0
 13 15  1  0  0  0  0
 16 15  2  0  0  0  0
 17  1  1  0  0  0  0
 17 20  1  0  0  0  0
 18 17  1  0  0  0  0
 19 17  1  0  0  0  0
 20 23  1  0  0  0  0
 20 22  1  0  0  0  0
 21 20  1  0  0  0  0
 23 24  1  0  0  0  0
 24 25  2  0  0  0  0
 24 29  1  0  0  0  0
 25 30  1  0  0  0  0
 26 25  1  0  0  0  0
 27 26  2  0  0  0  0
 28 27  1  0  0  0  0
 28 23  2  0  0  0  0
 31 27  1  0  0  0  0
M  END
>  <minimizedAffinity>
-5.01237679

$$$$

 OpenBabel03272504013D

 31 33  0  0  0  0  0  0  0  0999 V2000
   36.4590   28.3060   33.1150 C   0  0  0  0  0  0  0  0  0  0  0  0
   36.2310   29.2900   32.1660 C   0  0  0  0  0  0  0  0  0  0  0  0
   35.6470   30.3580   32.7940 C   0  0  0  0  0  0  0  0  0  0  0  0
   35.5300   30.0190   34.0800 N   0  0  0  0  0  0  0  0  0  0  0  0
   36.0060   28.8200   34.2630 N   0  0  0  0  0  0  0  0  0  0  0  0
   36.4540   29.2740   31.1050 H   0  0  0  0  0  0  0  0  0  0  0  0
   35.3420   31.2820   32.3460 H   0  0  0  0  0  0  0  0  0  0  0  0
   32.6880   29.4010   34.3960 Cl  0  0  0  0  0  0  0  0  0  0  0  0
   33.6360   30.5220   35.3600 C   0  0  0  0  0  0  0  0  0  0  0  0
   34.9870   30.7730   35.1600 C   0  0  0  0  0  0  0  0  0  0  0  0
   35.6190   31.6790   35.9860 C   0  0  0  0  0  0  0  0  0  0  0  0
   36.6660   31.8090   35.7570 H   0  0  0  0  0  0  0  0  0  0  0  0
   34.9040   32.3080   36.9840 C   0  0  0  0  0  0  0  0  0  0  0  0
   35.4680   32.9960   37.5820 H   0  0  0  0  0  0  0  0  0  0  0  0
   33.5580   32.0550   37.1810 C   0  0  0  0  0  3  0  0  0  0  0  0
   32.9290   31.1560   36.3610 C   0  0  0  0  0  3  0  0  0  0  0  0
   37.0770   27.0170   32.7390 C   0  0  0  0  0  0  0  0  0  0  0  0
   36.3730   26.4080   32.1050 H   0  0  0  0  0  0  0  0  0  0  0  0
   37.8840   27.2600   32.0350 H   0  0  0  0  0  0  0  0  0  0  0  0
   37.4110   26.1730   33.9100 C   0  0  0  0  0  0  0  0  0  0  0  0
   36.9340   26.6700   34.8100 H   0  0  0  0  0  0  0  0  0  0  0  0
   36.8840   25.1720   33.8920 H   0  0  0  0  0  0  0  0  0  0  0  0
   38.7920   25.9530   34.2350 C   0  0  0  0  0  0  0  0  0  0  0  0
   39.7120   26.9590   34.1290 C   0  0  0  0  0  0  0  0  0  0  0  0
   41.0710   26.7320   34.4470 C   0  0  0  0  0  0  0  0  0  0  0  0
   41.3740   25.4440   34.8600 N   0  0  0  0  0  0  0  0  0  0  0  0
   40.4300   24.4820   34.9490 C   0  0  0  0  0  0  0  0  0  0  0  0
   39.1400   24.7430   34.6350 N   0  0  0  0  0  0  0  0  0  0  0  0
   39.5970   27.9850   33.8280 H   0  0  0  0  0  0  0  0  0  0  0  0
   41.8660   27.4400   34.4000 H   0  0  0  0  0  0  0  0  0  0  0  0
   40.7470   23.4990   35.2810 H   0  0  0  0  0  0  0  0  0  0  0  0
  1  5  2  0  0  0  0
  2  3  2  0  0  0  0
  2  1  1  0  0  0  0
  3  4  1  0  0  0  0
  4  5  1  0  0  0  0
  4 10  1  0  0  0  0
  6  2  1  0  0  0  0
  7  3  1  0  0  0  0
  8  9  1  0  0  0  0
  9 16  1  0  0  0  0
 10  9  2  0  0  0  0
 10 11  1  0  0  0  0
 11 13  2  0  0  0  0
 12 11  1  0  0  0  0
 13 15  1  0  0  0  0
 13 14  1  0  0  0  0
 16 15  2  0  0  0  0
 17  1  1  0  0  0  0
 17 20  1  0  0  0  0
 18 17  1  0  0  0  0
 19 17  1  0  0  0  0
 20 23  1  0  0  0  0
 20 21  1  0  0  0  0
 22 20  1  0  0  0  0
 23 28  1  0  0  0  0
 24 23  2  0  0  0  0
 24 25  1  0  0  0  0
 25 26  2  0  0  0  0
 26 27  1  0  0  0  0
 27 31  1  0  0  0  0
 28 27  2  0  0  0  0
 29 24  1  0  0  0  0
 30 25  1  0  0  0  0
M  END
>  <minimizedAffinity>
-4.92865992

$$$$

 OpenBabel03272504013D

 31 33  0  0  0  0  0  0  0  0999 V2000
   38.4160   24.0170   33.2220 C   0  0  0  0  0  0  0  0  0  0  0  0
   39.4960   24.7780   32.8040 C   0  0  0  0  0  0  0  0  0  0  0  0
   39.0740   26.0740   32.6680 C   0  0  0  0  0  0  0  0  0  0  0  0
   37.7800   26.0830   32.9950 N   0  0  0  0  0  0  0  0  0  0  0  0
   37.4000   24.8800   33.3190 N   0  0  0  0  0  0  0  0  0  0  0  0
   40.5140   24.4600   32.6050 H   0  0  0  0  0  0  0  0  0  0  0  0
   39.6620   26.9150   32.3600 H   0  0  0  0  0  0  0  0  0  0  0  0
   37.8850   27.4060   35.6020 Cl  0  0  0  0  0  0  0  0  0  0  0  0
   36.8740   27.8480   34.2360 C   0  0  0  0  0  0  0  0  0  0  0  0
   36.8700   27.1790   33.0200 C   0  0  0  0  0  0  0  0  0  0  0  0
   36.0270   27.6260   32.0240 C   0  0  0  0  0  0  0  0  0  0  0  0
   36.0920   27.0450   31.1150 H   0  0  0  0  0  0  0  0  0  0  0  0
   35.2160   28.7180   32.2540 C   0  0  0  0  0  0  0  0  0  0  0  0
   34.5920   29.0020   31.4290 H   0  0  0  0  0  0  0  0  0  0  0  0
   35.2230   29.3830   33.4670 C   0  0  0  0  0  3  0  0  0  0  0  0
   36.0590   28.9400   34.4580 C   0  0  0  0  0  3  0  0  0  0  0  0
   38.5560   22.5620   33.4500 C   0  0  0  0  0  0  0  0  0  0  0  0
   38.1230   21.9810   32.5890 H   0  0  0  0  0  0  0  0  0  0  0  0
   39.6290   22.3430   33.3720 H   0  0  0  0  0  0  0  0  0  0  0  0
   37.8420   22.0970   34.6620 C   0  0  0  0  0  0  0  0  0  0  0  0
   36.7850   22.4990   34.5860 H   0  0  0  0  0  0  0  0  0  0  0  0
   37.6650   20.9790   34.6620 H   0  0  0  0  0  0  0  0  0  0  0  0
   38.3450   22.4770   35.9520 C   0  0  0  0  0  0  0  0  0  0  0  0
   39.6470   22.2460   36.2980 C   0  0  0  0  0  0  0  0  0  0  0  0
   40.1330   22.6200   37.5730 C   0  0  0  0  0  0  0  0  0  0  0  0
   39.2020   23.2170   38.4090 N   0  0  0  0  0  0  0  0  0  0  0  0
   37.9240   23.4240   38.0220 C   0  0  0  0  0  0  0  0  0  0  0  0
   37.5010   23.0510   36.7910 N   0  0  0  0  0  0  0  0  0  0  0  0
   40.4520   21.8000   35.7430 H   0  0  0  0  0  0  0  0  0  0  0  0
   41.1220   22.4870   37.9440 H   0  0  0  0  0  0  0  0  0  0  0  0
   37.2570   23.8990   38.7330 H   0  0  0  0  0  0  0  0  0  0  0  0
  1  5  2  0  0  0  0
  1 17  1  0  0  0  0
  2  1  1  0  0  0  0
  3  2  2  0  0  0  0
  3  4  1  0  0  0  0
  4 10  1  0  0  0  0
  4  5  1  0  0  0  0
  6  2  1  0  0  0  0
  7  3  1  0  0  0  0
  9 16  1  0  0  0  0
  9  8  1  0  0  0  0
 10  9  2  0  0  0  0
 11 13  2  0  0  0  0
 11 10  1  0  0  0  0
 12 11  1  0  0  0  0
 13 15  1  0  0  0  0
 14 13  1  0  0  0  0
 15 16  2  0  0  0  0
 17 20  1  0  0  0  0
 18 17  1  0  0  0  0
 19 17  1  0  0  0  0
 20 22  1  0  0  0  0
 20 23  1  0  0  0  0
 21 20  1  0  0  0  0
 23 24  2  0  0  0  0
 23 28  1  0  0  0  0
 24 25  1  0  0  0  0
 25 30  1  0  0  0  0
 25 26  2  0  0  0  0
 27 26  1  0  0  0  0
 27 31  1  0  0  0  0
 28 27  2  0  0  0  0
 29 24  1  0  0  0  0
M  END
>  <minimizedAffinity>
-4.91375017

$$$$

 OpenBabel03272504013D

 31 33  0  0  0  0  0  0  0  0999 V2000
   37.1040   27.0520   34.1250 C   0  0  0  0  0  0  0  0  0  0  0  0
   37.6850   27.9850   34.9690 C   0  0  0  0  0  0  0  0  0  0  0  0
   38.3160   27.3100   35.9790 C   0  0  0  0  0  0  0  0  0  0  0  0
   38.1160   26.0110   35.7430 N   0  0  0  0  0  0  0  0  0  0  0  0
   37.4080   25.8660   34.6590 N   0  0  0  0  0  0  0  0  0  0  0  0
   37.6750   29.0680   34.8930 H   0  0  0  0  0  0  0  0  0  0  0  0
   38.8620   27.7350   36.7970 H   0  0  0  0  0  0  0  0  0  0  0  0
   40.3870   24.7520   34.3970 Cl  0  0  0  0  0  0  0  0  0  0  0  0
   39.6410   24.2440   35.9030 C   0  0  0  0  0  0  0  0  0  0  0  0
   38.5610   24.8850   36.4940 C   0  0  0  0  0  0  0  0  0  0  0  0
   38.0650   24.3860   37.6810 C   0  0  0  0  0  0  0  0  0  0  0  0
   37.2270   24.9490   38.0650 H   0  0  0  0  0  0  0  0  0  0  0  0
   38.6470   23.2720   38.2490 C   0  0  0  0  0  0  0  0  0  0  0  0
   38.2030   22.9480   39.1700 H   0  0  0  0  0  0  0  0  0  0  0  0
   39.7230   22.6350   37.6590 C   0  0  0  0  0  3  0  0  0  0  0  0
   40.2170   23.1290   36.4800 C   0  0  0  0  0  3  0  0  0  0  0  0
   36.3370   27.4780   32.9350 C   0  0  0  0  0  0  0  0  0  0  0  0
   35.2860   27.0780   32.9750 H   0  0  0  0  0  0  0  0  0  0  0  0
   36.1860   28.5610   33.0420 H   0  0  0  0  0  0  0  0  0  0  0  0
   36.9190   26.9840   31.6650 C   0  0  0  0  0  0  0  0  0  0  0  0
   36.3610   27.5100   30.8310 H   0  0  0  0  0  0  0  0  0  0  0  0
   37.9780   27.3470   31.5010 H   0  0  0  0  0  0  0  0  0  0  0  0
   36.8720   25.5770   31.3810 C   0  0  0  0  0  0  0  0  0  0  0  0
   37.9840   24.9050   30.9570 C   0  0  0  0  0  0  0  0  0  0  0  0
   37.9280   23.5200   30.6750 C   0  0  0  0  0  0  0  0  0  0  0  0
   36.6880   22.9300   30.8600 N   0  0  0  0  0  0  0  0  0  0  0  0
   35.6160   23.6360   31.2820 C   0  0  0  0  0  0  0  0  0  0  0  0
   35.7140   24.9600   31.5410 N   0  0  0  0  0  0  0  0  0  0  0  0
   38.9870   25.2500   30.7810 H   0  0  0  0  0  0  0  0  0  0  0  0
   38.7280   22.9030   30.3400 H   0  0  0  0  0  0  0  0  0  0  0  0
   34.6810   23.1000   31.4040 H   0  0  0  0  0  0  0  0  0  0  0  0
  1  5  2  0  0  0  0
  1  2  1  0  0  0  0
  2  3  2  0  0  0  0
  3  7  1  0  0  0  0
  4  3  1  0  0  0  0
  4 10  1  0  0  0  0
  5  4  1  0  0  0  0
  6  2  1  0  0  0  0
  8  9  1  0  0  0  0
  9 16  2  0  0  0  0
  9 10  1  0  0  0  0
 10 11  2  0  0  0  0
 11 12  1  0  0  0  0
 11 13  1  0  0  0  0
 13 14  1  0  0  0  0
 15 13  2  0  0  0  0
 16 15  1  0  0  0  0
 17 18  1  0  0  0  0
 17 19  1  0  0  0  0
 17  1  1  0  0  0  0
 20 17  1  0  0  0  0
 21 20  1  0  0  0  0
 22 20  1  0  0  0  0
 23 28  1  0  0  0  0
 23 20  1  0  0  0  0
 24 23  2  0  0  0  0
 25 26  2  0  0  0  0
 25 24  1  0  0  0  0
 26 27  1  0  0  0  0
 27 31  1  0  0  0  0
 27 28  2  0  0  0  0
 29 24  1  0  0  0  0
 30 25  1  0  0  0  0
M  END
>  <minimizedAffinity>
-4.91091585

$$$$

 OpenBabel03272504013D

 31 33  0  0  0  0  0  0  0  0999 V2000
   36.2330   28.6810   33.0790 C   0  0  0  0  0  0  0  0  0  0  0  0
   35.8810   29.7080   32.2180 C   0  0  0  0  0  0  0  0  0  0  0  0
   35.0110   30.5350   32.8770 C   0  0  0  0  0  0  0  0  0  0  0  0
   34.8490   30.0140   34.0960 N   0  0  0  0  0  0  0  0  0  0  0  0
   35.5660   28.9320   34.2090 N   0  0  0  0  0  0  0  0  0  0  0  0
   36.2050   29.8780   31.1970 H   0  0  0  0  0  0  0  0  0  0  0  0
   34.5490   31.4230   32.4940 H   0  0  0  0  0  0  0  0  0  0  0  0
   36.3520   31.9630   35.6770 Cl  0  0  0  0  0  0  0  0  0  0  0  0
   34.7070   31.4190   35.9620 C   0  0  0  0  0  0  0  0  0  0  0  0
   34.0460   30.4870   35.1730 C   0  0  0  0  0  0  0  0  0  0  0  0
   32.7520   30.1420   35.5040 C   0  0  0  0  0  0  0  0  0  0  0  0
   32.3190   29.4130   34.8350 H   0  0  0  0  0  0  0  0  0  0  0  0
   32.1490   30.7240   36.6000 C   0  0  0  0  0  0  0  0  0  0  0  0
   31.1430   30.4020   36.7880 H   0  0  0  0  0  0  0  0  0  0  0  0
   32.8100   31.6510   37.3840 C   0  0  0  0  0  3  0  0  0  0  0  0
   34.0950   31.9950   37.0570 C   0  0  0  0  0  3  0  0  0  0  0  0
   37.1620   27.6140   32.6490 C   0  0  0  0  0  0  0  0  0  0  0  0
   38.0780   28.0540   32.1660 H   0  0  0  0  0  0  0  0  0  0  0  0
   37.5640   27.1710   33.5690 H   0  0  0  0  0  0  0  0  0  0  0  0
   36.5660   26.7000   31.6460 C   0  0  0  0  0  0  0  0  0  0  0  0
   35.4780   27.0010   31.5460 H   0  0  0  0  0  0  0  0  0  0  0  0
   36.9550   26.8880   30.6000 H   0  0  0  0  0  0  0  0  0  0  0  0
   36.5910   25.2860   31.8930 C   0  0  0  0  0  0  0  0  0  0  0  0
   37.5340   24.7290   32.7100 C   0  0  0  0  0  0  0  0  0  0  0  0
   37.5540   23.3340   32.9440 C   0  0  0  0  0  0  0  0  0  0  0  0
   36.5670   22.6110   32.2930 N   0  0  0  0  0  0  0  0  0  0  0  0
   35.6540   23.2080   31.4950 C   0  0  0  0  0  0  0  0  0  0  0  0
   35.6720   24.5460   31.2980 N   0  0  0  0  0  0  0  0  0  0  0  0
   38.3370   25.1810   33.2640 H   0  0  0  0  0  0  0  0  0  0  0  0
   38.2400   22.7990   33.5580 H   0  0  0  0  0  0  0  0  0  0  0  0
   34.9130   22.5730   31.0220 H   0  0  0  0  0  0  0  0  0  0  0  0
  1  5  2  0  0  0  0
  2  3  2  0  0  0  0
  2  1  1  0  0  0  0
  3  4  1  0  0  0  0
  4  5  1  0  0  0  0
  4 10  1  0  0  0  0
  6  2  1  0  0  0  0
  7  3  1  0  0  0  0
  8  9  1  0  0  0  0
  9 16  1  0  0  0  0
 10 11  1  0  0  0  0
 10  9  2  0  0  0  0
 11 13  2  0  0  0  0
 12 11  1  0  0  0  0
 13 14  1  0  0  0  0
 13 15  1  0  0  0  0
 16 15  2  0  0  0  0
 17  1  1  0  0  0  0
 17 19  1  0  0  0  0
 18 17  1  0  0  0  0
 20 23  1  0  0  0  0
 20 17  1  0  0  0  0
 21 20  1  0  0  0  0
 22 20  1  0  0  0  0
 23 24  1  0  0  0  0
 24 25  2  0  0  0  0
 24 29  1  0  0  0  0
 25 30  1  0  0  0  0
 26 25  1  0  0  0  0
 27 26  2  0  0  0  0
 28 27  1  0  0  0  0
 28 23  2  0  0  0  0
 31 27  1  0  0  0  0
M  END
>  <minimizedAffinity>
-4.90782881

$$$$
