
 OpenBabel03272502263D

 40 43  0  0  0  0  0  0  0  0999 V2000
   37.6210   30.2740   50.9490 C   0  0  0  0  0  0  0  0  0  0  0  0
   38.1250   30.8020   49.7550 C   0  0  0  0  0  0  0  0  0  0  0  0
   37.3780   30.6220   48.6100 C   0  0  0  0  0  0  0  0  0  0  0  0
   36.2200   29.9550   48.7120 N   0  0  0  0  0  0  0  0  0  0  0  0
   35.7410   29.4480   49.8640 C   0  0  0  0  0  0  0  0  0  0  0  0
   36.4490   29.6120   50.9800 N   0  0  0  0  0  0  0  0  0  0  0  0
   38.1750   30.3910   51.8750 H   0  0  0  0  0  0  0  0  0  0  0  0
   39.0640   31.3350   49.7150 H   0  0  0  0  0  0  0  0  0  0  0  0
   37.7870   31.1280   47.3130 C   0  0  0  0  0  0  0  0  0  0  0  0
   37.0840   30.7790   46.1620 C   0  0  0  0  0  0  0  0  0  0  0  0
   37.4260   31.2330   44.9070 C   0  0  0  0  0  0  0  0  0  0  0  0
   38.4960   32.0600   44.7850 N   0  0  0  0  0  0  0  0  0  0  0  0
   39.1610   32.3850   45.9050 C   0  0  0  0  0  0  0  0  0  0  0  0
   38.8440   31.9530   47.1410 N   0  0  0  0  0  0  0  0  0  0  0  0
   36.2370   30.1190   46.2970 H   0  0  0  0  0  0  0  0  0  0  0  0
   36.8410   30.9270   44.0510 H   0  0  0  0  0  0  0  0  0  0  0  0
   40.3310   33.2860   45.7910 C   0  0  0  0  0  0  0  0  0  0  0  0
   40.4090   34.0170   46.9980 F   0  0  0  0  0  0  0  0  0  0  0  0
   41.4800   32.6020   45.5350 F   0  0  0  0  0  0  0  0  0  0  0  0
   40.1360   34.2630   44.8270 F   0  0  0  0  0  0  0  0  0  0  0  0
   34.5240   28.7830   49.7900 O   0  0  0  0  0  0  0  0  0  0  0  0
   33.6190   26.5940   46.9920 N   0  0  0  0  0  0  0  0  0  0  0  0
   34.0860   26.9180   48.2080 C   0  0  0  0  0  0  0  0  0  0  0  0
   34.0980   28.2330   48.6110 C   0  0  0  0  0  0  0  0  0  0  0  0
   33.6140   29.2060   47.7240 C   0  0  0  0  0  0  0  0  0  0  0  0
   33.5280   30.4590   47.8740 O   0  0  0  0  0  0  0  0  0  0  0  0
   33.1540   28.8080   46.5030 N   0  0  0  0  0  0  0  0  0  0  0  0
   33.1580   27.5150   46.1450 C   0  0  0  0  0  0  0  0  0  0  0  0
   32.7380   27.1120   45.0200 O   0  0  0  0  0  0  0  0  0  0  0  0
   33.6600   25.5660   46.7980 H   0  0  0  0  0  0  0  0  0  0  0  0
   34.4740   26.2300   48.9450 H   0  0  0  0  0  0  0  0  0  0  0  0
   30.1840   29.4410   46.4080 Cl  0  0  0  0  0  0  0  0  0  0  0  0
   31.3500   30.1180   45.3110 C   0  0  0  0  0  0  0  0  0  0  0  0
   32.6410   29.7030   45.5250 C   0  0  0  0  0  0  0  0  0  0  0  0
   33.6560   30.1890   44.6950 C   0  0  0  0  0  0  0  0  0  0  0  0
   34.7020   29.9400   44.7600 H   0  0  0  0  0  0  0  0  0  0  0  0
   33.3930   31.0800   43.6630 C   0  0  0  0  0  0  0  0  0  0  0  0
   34.1380   31.4790   43.0040 H   0  0  0  0  0  0  0  0  0  0  0  0
   32.0800   31.4930   43.4590 C   0  0  0  0  0  3  0  0  0  0  0  0
   31.0870   31.0040   44.2860 C   0  0  0  0  0  3  0  0  0  0  0  0
  1  6  1  0  0  0  0
  1  7  1  0  0  0  0
  2  1  2  0  0  0  0
  3  4  2  0  0  0  0
  3  2  1  0  0  0  0
  4  5  1  0  0  0  0
  5  6  2  0  0  0  0
  8  2  1  0  0  0  0
  9  3  1  0  0  0  0
 10 15  1  0  0  0  0
 10  9  2  0  0  0  0
 11 10  1  0  0  0  0
 12 11  2  0  0  0  0
 12 13  1  0  0  0  0
 13 14  2  0  0  0  0
 14  9  1  0  0  0  0
 16 11  1  0  0  0  0
 17 13  1  0  0  0  0
 17 18  1  0  0  0  0
 19 17  1  0  0  0  0
 20 17  1  0  0  0  0
 21  5  1  0  0  0  0
 22 23  1  0  0  0  0
 23 24  2  0  0  0  0
 23 31  1  0  0  0  0
 24 21  1  0  0  0  0
 25 26  2  0  0  0  0
 25 24  1  0  0  0  0
 27 25  1  0  0  0  0
 28 27  1  0  0  0  0
 28 22  1  0  0  0  0
 29 28  2  0  0  0  0
 30 22  1  0  0  0  0
 33 34  1  0  0  0  0
 33 32  1  0  0  0  0
 34 27  1  0  0  0  0
 35 36  1  0  0  0  0
 35 34  2  0  0  0  0
 37 35  1  0  0  0  0
 38 37  1  0  0  0  0
 39 37  2  0  0  0  0
 39 40  1  0  0  0  0
 40 33  2  0  0  0  0
M  END
>  <minimizedAffinity>
-6.67358589

>  <minimizedRMSD>
1.51218367

$$$$
