
 OpenBabel03272505443D

 24 25  0  0  0  0  0  0  0  0999 V2000
   39.4650   27.3470   33.6900 O   0  0  0  0  0  0  0  0  0  0  0  0
   38.5030   26.7550   34.7240 P   0  0  2  0  0  0  0  0  0  0  0  0
   38.7710   27.5890   36.1530 O   0  0  0  0  0  0  0  0  0  0  0  0
   38.0490   28.2520   36.2720 H   0  0  0  0  0  0  0  0  0  0  0  0
   38.8920   25.1000   34.8690 O   0  0  0  0  0  0  0  0  0  0  0  0
   39.7770   22.8650   37.6150 C   0  0  0  0  0  0  0  0  0  0  0  0
   38.8210   23.2750   38.5910 C   0  0  0  0  0  0  0  0  0  0  0  0
   37.9360   24.2980   38.2250 C   0  0  0  0  0  0  0  0  0  0  0  0
   38.0440   24.8280   36.9820 N   0  0  0  0  0  0  0  0  0  0  0  0
   38.9600   24.4200   36.0750 C   0  0  0  0  0  0  0  0  0  0  0  0
   39.8310   23.4370   36.3910 N   0  0  0  0  0  0  0  0  0  0  0  0
   40.4700   22.0740   37.8790 H   0  0  0  0  0  0  0  0  0  0  0  0
   38.8120   22.7920   39.5590 H   0  0  0  0  0  0  0  0  0  0  0  0
   37.2040   24.6310   38.9370 H   0  0  0  0  0  0  0  0  0  0  0  0
   36.9500   27.0240   34.1880 O   0  0  0  0  0  0  0  0  0  0  0  0
   35.9270   29.6980   34.6830 Cl  0  0  0  0  0  0  0  0  0  0  0  0
   36.2230   28.9460   33.1260 C   0  0  0  0  0  0  0  0  0  0  0  0
   36.7180   27.6510   32.9730 C   0  0  0  0  0  0  0  0  0  0  0  0
   36.9340   27.1040   31.7270 C   0  0  0  0  0  0  0  0  0  0  0  0
   37.3180   26.0980   31.6830 H   0  0  0  0  0  0  0  0  0  0  0  0
   36.6430   27.8830   30.6110 C   0  0  0  0  0  0  0  0  0  0  0  0
   36.8150   27.4480   29.6180 H   0  0  0  0  0  0  0  0  0  0  0  0
   36.1530   29.1670   30.7720 C   0  0  0  0  0  3  0  0  0  0  0  0
   35.9310   29.7290   32.0180 C   0  0  0  0  0  3  0  0  0  0  0  0
  2  1  2  6  0  0  0
  2  5  1  0  0  0  0
  2  3  1  0  0  0  0
  3  4  1  0  0  0  0
  5 10  1  0  0  0  0
  6 12  1  0  0  0  0
  6  7  1  0  0  0  0
  7 13  1  0  0  0  0
  8  7  2  0  0  0  0
  8 14  1  0  0  0  0
  9  8  1  0  0  0  0
 10 11  1  0  0  0  0
 10  9  2  0  0  0  0
 11  6  2  0  0  0  0
 15  2  1  0  0  0  0
 17 16  1  0  0  0  0
 18 17  1  0  0  0  0
 18 15  1  0  0  0  0
 19 18  2  0  0  0  0
 20 19  1  0  0  0  0
 21 23  2  0  0  0  0
 21 19  1  0  0  0  0
 22 21  1  0  0  0  0
 23 24  1  0  0  0  0
 24 17  2  0  0  0  0
M  END
>  <minimizedAffinity>
-4.98709965

$$$$

 OpenBabel03272505443D

 24 25  0  0  0  0  0  0  0  0999 V2000
   39.6560   27.3070   33.6100 O   0  0  0  0  0  0  0  0  0  0  0  0
   38.7010   26.6640   34.6210 P   0  0  2  0  0  0  0  0  0  0  0  0
   38.8040   27.5810   36.0200 O   0  0  0  0  0  0  0  0  0  0  0  0
   38.0140   28.1720   36.0700 H   0  0  0  0  0  0  0  0  0  0  0  0
   39.2440   25.0640   34.8650 O   0  0  0  0  0  0  0  0  0  0  0  0
   39.7640   22.8230   37.6970 C   0  0  0  0  0  0  0  0  0  0  0  0
   38.7270   23.2740   38.5680 C   0  0  0  0  0  0  0  0  0  0  0  0
   37.9210   24.3240   38.1090 C   0  0  0  0  0  0  0  0  0  0  0  0
   38.1740   24.8400   36.8800 N   0  0  0  0  0  0  0  0  0  0  0  0
   39.1640   24.3930   36.0750 C   0  0  0  0  0  0  0  0  0  0  0  0
   39.9620   23.3830   36.4830 N   0  0  0  0  0  0  0  0  0  0  0  0
   40.3970   22.0110   38.0350 H   0  0  0  0  0  0  0  0  0  0  0  0
   38.6020   22.7990   39.5330 H   0  0  0  0  0  0  0  0  0  0  0  0
   37.1320   24.6870   38.7400 H   0  0  0  0  0  0  0  0  0  0  0  0
   37.1610   26.7510   33.9930 O   0  0  0  0  0  0  0  0  0  0  0  0
   37.3400   27.0000   31.1040 Cl  0  0  0  0  0  0  0  0  0  0  0  0
   36.6670   28.1640   32.2300 C   0  0  0  0  0  0  0  0  0  0  0  0
   36.6190   27.9680   33.6100 C   0  0  0  0  0  0  0  0  0  0  0  0
   36.0800   28.9140   34.4550 C   0  0  0  0  0  0  0  0  0  0  0  0
   36.0760   28.6960   35.5100 H   0  0  0  0  0  0  0  0  0  0  0  0
   35.5790   30.0840   33.8920 C   0  0  0  0  0  0  0  0  0  0  0  0
   35.1500   30.8380   34.5640 H   0  0  0  0  0  0  0  0  0  0  0  0
   35.6300   30.2710   32.5220 C   0  0  0  0  0  3  0  0  0  0  0  0
   36.1690   29.3280   31.6620 C   0  0  0  0  0  3  0  0  0  0  0  0
  2  1  2  6  0  0  0
  2  5  1  0  0  0  0
  2  3  1  0  0  0  0
  3  4  1  0  0  0  0
  5 10  1  0  0  0  0
  6 12  1  0  0  0  0
  6  7  1  0  0  0  0
  7 13  1  0  0  0  0
  8  7  2  0  0  0  0
  8 14  1  0  0  0  0
  9  8  1  0  0  0  0
 10 11  1  0  0  0  0
 10  9  2  0  0  0  0
 11  6  2  0  0  0  0
 15  2  1  0  0  0  0
 16 17  1  0  0  0  0
 17 18  1  0  0  0  0
 18 15  1  0  0  0  0
 18 19  2  0  0  0  0
 19 20  1  0  0  0  0
 21 19  1  0  0  0  0
 21 22  1  0  0  0  0
 23 21  2  0  0  0  0
 24 17  2  0  0  0  0
 24 23  1  0  0  0  0
M  END
>  <minimizedAffinity>
-4.89614964

$$$$

 OpenBabel03272505443D

 24 25  0  0  0  0  0  0  0  0999 V2000
   37.0240   27.4470   35.1670 O   0  0  0  0  0  0  0  0  0  0  0  0
   38.1580   26.4310   35.0000 P   0  0  2  0  0  0  0  0  0  0  0  0
   39.5380   27.1550   35.6170 O   0  0  0  0  0  0  0  0  0  0  0  0
   39.7130   26.7840   36.5160 H   0  0  0  0  0  0  0  0  0  0  0  0
   38.2960   26.1160   33.3280 O   0  0  0  0  0  0  0  0  0  0  0  0
   36.0310   23.8010   31.6470 C   0  0  0  0  0  0  0  0  0  0  0  0
   35.2060   24.7250   30.9400 C   0  0  0  0  0  0  0  0  0  0  0  0
   35.4950   26.0870   31.0980 C   0  0  0  0  0  0  0  0  0  0  0  0
   36.5290   26.4370   31.9030 N   0  0  0  0  0  0  0  0  0  0  0  0
   37.2960   25.5390   32.5610 C   0  0  0  0  0  0  0  0  0  0  0  0
   37.0480   24.2170   32.4340 N   0  0  0  0  0  0  0  0  0  0  0  0
   35.8230   22.7430   31.5370 H   0  0  0  0  0  0  0  0  0  0  0  0
   34.4010   24.3510   30.3200 H   0  0  0  0  0  0  0  0  0  0  0  0
   34.8920   26.8090   30.5800 H   0  0  0  0  0  0  0  0  0  0  0  0
   37.7690   25.0820   35.8960 O   0  0  0  0  0  0  0  0  0  0  0  0
   37.9440   24.5500   38.7460 Cl  0  0  0  0  0  0  0  0  0  0  0  0
   38.8460   23.7660   37.4630 C   0  0  0  0  0  0  0  0  0  0  0  0
   38.7030   24.0810   36.1110 C   0  0  0  0  0  0  0  0  0  0  0  0
   39.4350   23.4370   35.1390 C   0  0  0  0  0  0  0  0  0  0  0  0
   39.2740   23.7310   34.1150 H   0  0  0  0  0  0  0  0  0  0  0  0
   40.3320   22.4510   35.5410 C   0  0  0  0  0  0  0  0  0  0  0  0
   40.9160   21.9360   34.7670 H   0  0  0  0  0  0  0  0  0  0  0  0
   40.4680   22.1440   36.8830 C   0  0  0  0  0  3  0  0  0  0  0  0
   39.7380   22.7840   37.8710 C   0  0  0  0  0  3  0  0  0  0  0  0
  2  1  2  1  0  0  0
  2  3  1  0  0  0  0
  2 15  1  0  0  0  0
  3  4  1  0  0  0  0
  5  2  1  0  0  0  0
  6 11  1  0  0  0  0
  7  8  1  0  0  0  0
  7  6  2  0  0  0  0
  8  9  2  0  0  0  0
  9 10  1  0  0  0  0
 10  5  1  0  0  0  0
 11 10  2  0  0  0  0
 12  6  1  0  0  0  0
 13  7  1  0  0  0  0
 14  8  1  0  0  0  0
 15 18  1  0  0  0  0
 17 24  1  0  0  0  0
 17 16  1  0  0  0  0
 18 17  2  0  0  0  0
 19 21  2  0  0  0  0
 19 18  1  0  0  0  0
 20 19  1  0  0  0  0
 21 23  1  0  0  0  0
 22 21  1  0  0  0  0
 23 24  2  0  0  0  0
M  END
>  <minimizedAffinity>
-4.87277508

$$$$

 OpenBabel03272505443D

 24 25  0  0  0  0  0  0  0  0999 V2000
   39.3080   27.2660   35.3770 O   0  0  0  0  0  0  0  0  0  0  0  0
   37.9480   26.8500   34.8110 P   0  0  2  0  0  0  0  0  0  0  0  0
   36.9360   28.1740   34.9860 O   0  0  0  0  0  0  0  0  0  0  0  0
   36.8500   28.6240   34.1100 H   0  0  0  0  0  0  0  0  0  0  0  0
   37.4170   25.5150   35.7330 O   0  0  0  0  0  0  0  0  0  0  0  0
   40.0580   23.1030   36.4550 C   0  0  0  0  0  0  0  0  0  0  0  0
   39.7620   22.8070   37.8190 C   0  0  0  0  0  0  0  0  0  0  0  0
   38.6660   23.4670   38.3910 C   0  0  0  0  0  0  0  0  0  0  0  0
   37.9630   24.3340   37.6210 N   0  0  0  0  0  0  0  0  0  0  0  0
   38.2660   24.5960   36.3290 C   0  0  0  0  0  0  0  0  0  0  0  0
   39.3160   23.9800   35.7440 N   0  0  0  0  0  0  0  0  0  0  0  0
   40.9030   22.6030   35.9960 H   0  0  0  0  0  0  0  0  0  0  0  0
   40.3820   22.0990   38.3540 H   0  0  0  0  0  0  0  0  0  0  0  0
   38.4160   23.2670   39.4160 H   0  0  0  0  0  0  0  0  0  0  0  0
   38.1540   26.4970   33.1970 O   0  0  0  0  0  0  0  0  0  0  0  0
   36.1640   27.9770   31.6840 Cl  0  0  0  0  0  0  0  0  0  0  0  0
   36.3280   26.2340   31.8020 C   0  0  0  0  0  0  0  0  0  0  0  0
   37.3160   25.5990   32.5540 C   0  0  0  0  0  0  0  0  0  0  0  0
   37.4040   24.2260   32.6170 C   0  0  0  0  0  0  0  0  0  0  0  0
   38.1930   23.8020   33.2170 H   0  0  0  0  0  0  0  0  0  0  0  0
   36.4720   23.4780   31.9030 C   0  0  0  0  0  0  0  0  0  0  0  0
   36.5410   22.3830   31.9520 H   0  0  0  0  0  0  0  0  0  0  0  0
   35.4950   24.1150   31.1590 C   0  0  0  0  0  3  0  0  0  0  0  0
   35.3950   25.4950   31.0890 C   0  0  0  0  0  3  0  0  0  0  0  0
  2  3  1  0  0  0  0
  2  1  2  1  0  0  0
  2  5  1  0  0  0  0
  4  3  1  0  0  0  0
  5 10  1  0  0  0  0
  6  7  1  0  0  0  0
  7 13  1  0  0  0  0
  7  8  2  0  0  0  0
  8 14  1  0  0  0  0
  9  8  1  0  0  0  0
 10  9  2  0  0  0  0
 11 10  1  0  0  0  0
 11  6  2  0  0  0  0
 12  6  1  0  0  0  0
 15  2  1  0  0  0  0
 16 17  1  0  0  0  0
 17 18  1  0  0  0  0
 18 19  2  0  0  0  0
 18 15  1  0  0  0  0
 19 20  1  0  0  0  0
 21 22  1  0  0  0  0
 21 19  1  0  0  0  0
 23 21  2  0  0  0  0
 24 23  1  0  0  0  0
 24 17  2  0  0  0  0
M  END
>  <minimizedAffinity>
-4.81617737

$$$$

 OpenBabel03272505443D

 24 25  0  0  0  0  0  0  0  0999 V2000
   38.3480   22.2640   32.1780 O   0  0  0  0  0  0  0  0  0  0  0  0
   38.9710   22.9670   33.3870 P   0  0  2  0  0  0  0  0  0  0  0  0
   40.4500   22.2280   33.6570 O   0  0  0  0  0  0  0  0  0  0  0  0
   41.1640   22.8110   33.3010 H   0  0  0  0  0  0  0  0  0  0  0  0
   37.8970   22.7430   34.6950 O   0  0  0  0  0  0  0  0  0  0  0  0
   37.8900   23.8880   38.1600 C   0  0  0  0  0  0  0  0  0  0  0  0
   39.1560   23.3920   38.5910 C   0  0  0  0  0  0  0  0  0  0  0  0
   39.9230   22.6960   37.6470 C   0  0  0  0  0  0  0  0  0  0  0  0
   39.4190   22.5390   36.3980 N   0  0  0  0  0  0  0  0  0  0  0  0
   38.2140   23.0190   36.0160 C   0  0  0  0  0  0  0  0  0  0  0  0
   37.4460   23.6950   36.8980 N   0  0  0  0  0  0  0  0  0  0  0  0
   37.2830   24.4300   38.8760 H   0  0  0  0  0  0  0  0  0  0  0  0
   39.4740   23.5670   39.6110 H   0  0  0  0  0  0  0  0  0  0  0  0
   40.8810   22.3100   37.9400 H   0  0  0  0  0  0  0  0  0  0  0  0
   39.1960   24.5680   32.9850 O   0  0  0  0  0  0  0  0  0  0  0  0
   36.5150   25.4720   32.3260 Cl  0  0  0  0  0  0  0  0  0  0  0  0
   37.5500   26.0670   33.6110 C   0  0  0  0  0  0  0  0  0  0  0  0
   38.8320   25.5770   33.8630 C   0  0  0  0  0  0  0  0  0  0  0  0
   39.6080   26.0780   34.8840 C   0  0  0  0  0  0  0  0  0  0  0  0
   40.5890   25.6530   35.0220 H   0  0  0  0  0  0  0  0  0  0  0  0
   39.0770   27.0970   35.6700 C   0  0  0  0  0  0  0  0  0  0  0  0
   39.6940   27.4970   36.4850 H   0  0  0  0  0  0  0  0  0  0  0  0
   37.8050   27.5770   35.4140 C   0  0  0  0  0  3  0  0  0  0  0  0
   37.0150   27.0830   34.3900 C   0  0  0  0  0  3  0  0  0  0  0  0
  2  1  2  6  0  0  0
  2  3  1  0  0  0  0
  2  5  1  0  0  0  0
  4  3  1  0  0  0  0
  5 10  1  0  0  0  0
  6  7  1  0  0  0  0
  6 12  1  0  0  0  0
  7 13  1  0  0  0  0
  8 14  1  0  0  0  0
  8  7  2  0  0  0  0
  9  8  1  0  0  0  0
 10  9  2  0  0  0  0
 10 11  1  0  0  0  0
 11  6  2  0  0  0  0
 15  2  1  0  0  0  0
 15 18  1  0  0  0  0
 16 17  1  0  0  0  0
 17 18  2  0  0  0  0
 17 24  1  0  0  0  0
 18 19  1  0  0  0  0
 19 20  1  0  0  0  0
 19 21  2  0  0  0  0
 21 22  1  0  0  0  0
 23 21  1  0  0  0  0
 24 23  2  0  0  0  0
M  END
>  <minimizedAffinity>
-4.6687007

$$$$

 OpenBabel03272505443D

 24 25  0  0  0  0  0  0  0  0999 V2000
   37.0290   21.4580   33.8880 O   0  0  0  0  0  0  0  0  0  0  0  0
   38.1660   22.4410   33.5930 P   0  0  2  0  0  0  0  0  0  0  0  0
   39.5930   21.5710   33.7260 O   0  0  0  0  0  0  0  0  0  0  0  0
   39.9170   21.3550   32.8190 H   0  0  0  0  0  0  0  0  0  0  0  0
   38.0630   23.6800   34.7620 O   0  0  0  0  0  0  0  0  0  0  0  0
   39.8400   22.8430   37.8370 C   0  0  0  0  0  0  0  0  0  0  0  0
   38.9810   23.4530   38.7980 C   0  0  0  0  0  0  0  0  0  0  0  0
   37.8450   24.1120   38.3090 C   0  0  0  0  0  0  0  0  0  0  0  0
   37.6360   24.1270   36.9700 N   0  0  0  0  0  0  0  0  0  0  0  0
   38.4680   23.5400   36.0800 C   0  0  0  0  0  0  0  0  0  0  0  0
   39.5740   22.8960   36.5130 N   0  0  0  0  0  0  0  0  0  0  0  0
   40.7240   22.3290   38.1960 H   0  0  0  0  0  0  0  0  0  0  0  0
   39.2310   23.3880   39.8490 H   0  0  0  0  0  0  0  0  0  0  0  0
   37.1770   24.5820   39.0070 H   0  0  0  0  0  0  0  0  0  0  0  0
   37.9740   22.9880   32.0320 O   0  0  0  0  0  0  0  0  0  0  0  0
   35.3900   22.1260   31.0210 Cl  0  0  0  0  0  0  0  0  0  0  0  0
   35.9360   23.7740   31.2710 C   0  0  0  0  0  0  0  0  0  0  0  0
   37.1990   24.1060   31.7620 C   0  0  0  0  0  0  0  0  0  0  0  0
   37.5830   25.4160   31.9410 C   0  0  0  0  0  0  0  0  0  0  0  0
   38.5730   25.5990   32.3250 H   0  0  0  0  0  0  0  0  0  0  0  0
   36.6690   26.4150   31.6160 C   0  0  0  0  0  0  0  0  0  0  0  0
   36.9730   27.4600   31.7580 H   0  0  0  0  0  0  0  0  0  0  0  0
   35.4180   26.0780   31.1300 C   0  0  0  0  0  3  0  0  0  0  0  0
   35.0210   24.7650   30.9450 C   0  0  0  0  0  3  0  0  0  0  0  0
  2  3  1  0  0  0  0
  2  1  2  1  0  0  0
  2  5  1  0  0  0  0
  4  3  1  0  0  0  0
  5 10  1  0  0  0  0
  6 12  1  0  0  0  0
  6  7  1  0  0  0  0
  7 13  1  0  0  0  0
  8  7  2  0  0  0  0
  8 14  1  0  0  0  0
  9  8  1  0  0  0  0
 10 11  1  0  0  0  0
 10  9  2  0  0  0  0
 11  6  2  0  0  0  0
 15  2  1  0  0  0  0
 16 17  1  0  0  0  0
 17 18  1  0  0  0  0
 18 19  2  0  0  0  0
 18 15  1  0  0  0  0
 19 20  1  0  0  0  0
 21 22  1  0  0  0  0
 21 19  1  0  0  0  0
 23 21  2  0  0  0  0
 24 23  1  0  0  0  0
 24 17  2  0  0  0  0
M  END
>  <minimizedAffinity>
-4.62001991

$$$$

 OpenBabel03272505443D

 24 25  0  0  0  0  0  0  0  0999 V2000
   37.6670   22.6150   32.0790 O   0  0  0  0  0  0  0  0  0  0  0  0
   38.6160   23.0030   33.2160 P   0  0  2  0  0  0  0  0  0  0  0  0
   39.9490   21.9950   33.0870 O   0  0  0  0  0  0  0  0  0  0  0  0
   40.6890   22.5010   32.6700 H   0  0  0  0  0  0  0  0  0  0  0  0
   37.7670   22.7540   34.6750 O   0  0  0  0  0  0  0  0  0  0  0  0
   39.9530   22.6470   37.5950 C   0  0  0  0  0  0  0  0  0  0  0  0
   39.1480   23.3540   38.5370 C   0  0  0  0  0  0  0  0  0  0  0  0
   37.9030   23.8180   38.0910 C   0  0  0  0  0  0  0  0  0  0  0  0
   37.5460   23.5680   36.8070 N   0  0  0  0  0  0  0  0  0  0  0  0
   38.3290   22.8940   35.9340 C   0  0  0  0  0  0  0  0  0  0  0  0
   39.5360   22.4330   36.3270 N   0  0  0  0  0  0  0  0  0  0  0  0
   40.9190   22.2810   37.9220 H   0  0  0  0  0  0  0  0  0  0  0  0
   39.5190   23.5060   39.5430 H   0  0  0  0  0  0  0  0  0  0  0  0
   37.2730   24.3540   38.7760 H   0  0  0  0  0  0  0  0  0  0  0  0
   39.0730   24.5880   32.9790 O   0  0  0  0  0  0  0  0  0  0  0  0
   41.1250   25.3750   34.8790 Cl  0  0  0  0  0  0  0  0  0  0  0  0
   39.5050   26.0320   34.7330 C   0  0  0  0  0  0  0  0  0  0  0  0
   38.5750   25.5970   33.7890 C   0  0  0  0  0  0  0  0  0  0  0  0
   37.3130   26.1450   33.7130 C   0  0  0  0  0  0  0  0  0  0  0  0
   36.6460   25.7610   32.9600 H   0  0  0  0  0  0  0  0  0  0  0  0
   36.9850   27.1560   34.6120 C   0  0  0  0  0  0  0  0  0  0  0  0
   35.9790   27.5940   34.5530 H   0  0  0  0  0  0  0  0  0  0  0  0
   37.9130   27.5820   35.5450 C   0  0  0  0  0  3  0  0  0  0  0  0
   39.1840   27.0390   35.6320 C   0  0  0  0  0  3  0  0  0  0  0  0
  2  1  2  6  0  0  0
  2  5  1  0  0  0  0
  3  2  1  0  0  0  0
  4  3  1  0  0  0  0
  5 10  1  0  0  0  0
  6 12  1  0  0  0  0
  6  7  1  0  0  0  0
  7 13  1  0  0  0  0
  8  7  2  0  0  0  0
  8 14  1  0  0  0  0
  9  8  1  0  0  0  0
 10 11  1  0  0  0  0
 10  9  2  0  0  0  0
 11  6  2  0  0  0  0
 15  2  1  0  0  0  0
 15 18  1  0  0  0  0
 17 16  1  0  0  0  0
 17 24  1  0  0  0  0
 18 17  2  0  0  0  0
 19 18  1  0  0  0  0
 19 21  2  0  0  0  0
 20 19  1  0  0  0  0
 21 23  1  0  0  0  0
 22 21  1  0  0  0  0
 23 24  2  0  0  0  0
M  END
>  <minimizedAffinity>
-4.61882448

$$$$

 OpenBabel03272505443D

 24 25  0  0  0  0  0  0  0  0999 V2000
   38.3450   27.2820   36.4750 O   0  0  0  0  0  0  0  0  0  0  0  0
   38.1330   26.7930   35.0390 P   0  0  2  0  0  0  0  0  0  0  0  0
   39.5310   27.1730   34.1970 O   0  0  0  0  0  0  0  0  0  0  0  0
   40.0740   26.3530   34.1000 H   0  0  0  0  0  0  0  0  0  0  0  0
   36.7740   27.6260   34.4290 O   0  0  0  0  0  0  0  0  0  0  0  0
   35.9320   29.4280   31.3700 C   0  0  0  0  0  0  0  0  0  0  0  0
   36.6110   28.6220   30.4080 C   0  0  0  0  0  0  0  0  0  0  0  0
   37.3130   27.5100   30.8910 C   0  0  0  0  0  0  0  0  0  0  0  0
   37.3030   27.2720   32.2260 N   0  0  0  0  0  0  0  0  0  0  0  0
   36.6500   28.0530   33.1160 C   0  0  0  0  0  0  0  0  0  0  0  0
   35.9630   29.1350   32.6880 N   0  0  0  0  0  0  0  0  0  0  0  0
   35.3840   30.2930   31.0150 H   0  0  0  0  0  0  0  0  0  0  0  0
   36.5630   28.8920   29.3610 H   0  0  0  0  0  0  0  0  0  0  0  0
   37.8350   26.8820   30.1930 H   0  0  0  0  0  0  0  0  0  0  0  0
   37.9270   25.1410   35.0900 O   0  0  0  0  0  0  0  0  0  0  0  0
   40.3770   23.8750   34.1760 Cl  0  0  0  0  0  0  0  0  0  0  0  0
   39.6460   23.7490   35.7650 C   0  0  0  0  0  0  0  0  0  0  0  0
   38.4610   24.3910   36.1270 C   0  0  0  0  0  0  0  0  0  0  0  0
   37.9260   24.2610   37.3890 C   0  0  0  0  0  0  0  0  0  0  0  0
   37.0090   24.7860   37.5990 H   0  0  0  0  0  0  0  0  0  0  0  0
   38.6030   23.4630   38.3070 C   0  0  0  0  0  0  0  0  0  0  0  0
   38.1770   23.3580   39.3140 H   0  0  0  0  0  0  0  0  0  0  0  0
   39.7770   22.8290   37.9410 C   0  0  0  0  0  3  0  0  0  0  0  0
   40.3250   22.9520   36.6760 C   0  0  0  0  0  3  0  0  0  0  0  0
  2 15  1  0  0  0  0
  2  1  2  1  0  0  0
  3  2  1  0  0  0  0
  4  3  1  0  0  0  0
  5  2  1  0  0  0  0
  6 11  1  0  0  0  0
  7  8  1  0  0  0  0
  7  6  2  0  0  0  0
  8  9  2  0  0  0  0
  9 10  1  0  0  0  0
 10  5  1  0  0  0  0
 11 10  2  0  0  0  0
 12  6  1  0  0  0  0
 13  7  1  0  0  0  0
 14  8  1  0  0  0  0
 15 18  1  0  0  0  0
 16 17  1  0  0  0  0
 17 18  2  0  0  0  0
 17 24  1  0  0  0  0
 18 19  1  0  0  0  0
 19 20  1  0  0  0  0
 19 21  2  0  0  0  0
 21 22  1  0  0  0  0
 23 21  1  0  0  0  0
 24 23  2  0  0  0  0
M  END
>  <minimizedAffinity>
-4.60485888

$$$$

 OpenBabel03272505443D

 24 25  0  0  0  0  0  0  0  0999 V2000
   39.7730   27.2980   34.0770 O   0  0  0  0  0  0  0  0  0  0  0  0
   38.7640   26.7200   35.0730 P   0  0  2  0  0  0  0  0  0  0  0  0
   38.6760   27.8060   36.3460 O   0  0  0  0  0  0  0  0  0  0  0  0
   37.8520   28.3420   36.2480 H   0  0  0  0  0  0  0  0  0  0  0  0
   39.3720   25.2040   35.5680 O   0  0  0  0  0  0  0  0  0  0  0  0
   37.8360   22.0580   34.5410 C   0  0  0  0  0  0  0  0  0  0  0  0
   37.1170   21.7290   35.7290 C   0  0  0  0  0  0  0  0  0  0  0  0
   37.2170   22.6250   36.8020 C   0  0  0  0  0  0  0  0  0  0  0  0
   37.9820   23.7330   36.6460 N   0  0  0  0  0  0  0  0  0  0  0  0
   38.6530   24.0210   35.5080 C   0  0  0  0  0  0  0  0  0  0  0  0
   38.5810   23.1810   34.4520 N   0  0  0  0  0  0  0  0  0  0  0  0
   37.7700   21.3770   33.7000 H   0  0  0  0  0  0  0  0  0  0  0  0
   36.5320   20.8190   35.7590 H   0  0  0  0  0  0  0  0  0  0  0  0
   36.6890   22.4060   37.7110 H   0  0  0  0  0  0  0  0  0  0  0  0
   37.2900   26.6200   34.3040 O   0  0  0  0  0  0  0  0  0  0  0  0
   37.6980   26.3670   31.4390 Cl  0  0  0  0  0  0  0  0  0  0  0  0
   36.9000   27.6800   32.2860 C   0  0  0  0  0  0  0  0  0  0  0  0
   36.7440   27.7260   33.6710 C   0  0  0  0  0  0  0  0  0  0  0  0
   36.1090   28.7800   34.2910 C   0  0  0  0  0  0  0  0  0  0  0  0
   36.0240   28.7510   35.3650 H   0  0  0  0  0  0  0  0  0  0  0  0
   35.6210   29.8100   33.4920 C   0  0  0  0  0  0  0  0  0  0  0  0
   35.1150   30.6510   33.9850 H   0  0  0  0  0  0  0  0  0  0  0  0
   35.7790   29.7570   32.1190 C   0  0  0  0  0  3  0  0  0  0  0  0
   36.4150   28.7030   31.4840 C   0  0  0  0  0  3  0  0  0  0  0  0
  2  1  2  6  0  0  0
  2  5  1  0  0  0  0
  2  3  1  0  0  0  0
  4  3  1  0  0  0  0
  6  7  1  0  0  0  0
  7 13  1  0  0  0  0
  7  8  2  0  0  0  0
  8 14  1  0  0  0  0
  9  8  1  0  0  0  0
 10  5  1  0  0  0  0
 10  9  2  0  0  0  0
 11  6  2  0  0  0  0
 11 10  1  0  0  0  0
 12  6  1  0  0  0  0
 15  2  1  0  0  0  0
 16 17  1  0  0  0  0
 17 18  1  0  0  0  0
 18 19  2  0  0  0  0
 18 15  1  0  0  0  0
 19 20  1  0  0  0  0
 21 22  1  0  0  0  0
 21 19  1  0  0  0  0
 23 21  2  0  0  0  0
 24 23  1  0  0  0  0
 24 17  2  0  0  0  0
M  END
>  <minimizedAffinity>
-4.56365728

$$$$
