
 OpenBabel03272505433D

 24 25  0  0  0  0  0  0  0  0999 V2000
   32.3760   28.0030   48.8720 O   0  0  0  0  0  0  0  0  0  0  0  0
   33.8090   28.2900   48.4150 P   0  0  2  0  0  0  0  0  0  0  0  0
   34.1750   27.1410   47.2520 O   0  0  0  0  0  0  0  0  0  0  0  0
   34.1030   27.5600   46.3600 H   0  0  0  0  0  0  0  0  0  0  0  0
   34.8050   28.1430   49.7930 O   0  0  0  0  0  0  0  0  0  0  0  0
   37.2440   30.3020   51.4380 C   0  0  0  0  0  0  0  0  0  0  0  0
   38.0330   30.6910   50.3150 C   0  0  0  0  0  0  0  0  0  0  0  0
   37.6610   30.1760   49.0660 C   0  0  0  0  0  0  0  0  0  0  0  0
   36.5880   29.3500   49.0040 N   0  0  0  0  0  0  0  0  0  0  0  0
   35.8570   28.9970   50.0850 C   0  0  0  0  0  0  0  0  0  0  0  0
   36.1850   29.4730   51.3060 N   0  0  0  0  0  0  0  0  0  0  0  0
   37.5170   30.6910   52.4120 H   0  0  0  0  0  0  0  0  0  0  0  0
   38.8740   31.3560   50.4630 H   0  0  0  0  0  0  0  0  0  0  0  0
   38.2350   30.4500   48.2000 H   0  0  0  0  0  0  0  0  0  0  0  0
   33.8330   29.8130   47.7420 O   0  0  0  0  0  0  0  0  0  0  0  0
   31.4420   30.0020   46.1020 Cl  0  0  0  0  0  0  0  0  0  0  0  0
   33.1090   30.0990   45.5640 C   0  0  0  0  0  0  0  0  0  0  0  0
   34.2060   29.9980   46.4190 C   0  0  0  0  0  0  0  0  0  0  0  0
   35.4980   30.0800   45.9480 C   0  0  0  0  0  0  0  0  0  0  0  0
   36.2980   29.9940   46.6650 H   0  0  0  0  0  0  0  0  0  0  0  0
   35.6850   30.2680   44.5820 C   0  0  0  0  0  0  0  0  0  0  0  0
   36.7140   30.3330   44.2050 H   0  0  0  0  0  0  0  0  0  0  0  0
   34.5910   30.3670   43.7400 C   0  0  0  0  0  0  0  0  0  0  0  0
   33.2880   30.2860   44.2010 C   0  0  0  0  0  0  0  0  0  0  0  0
  2  1  2  1  0  0  0
  2  5  1  0  0  0  0
  3  2  1  0  0  0  0
  4  3  1  0  0  0  0
  5 10  1  0  0  0  0
  6 12  1  0  0  0  0
  7 13  1  0  0  0  0
  7  6  2  0  0  0  0
  8  7  1  0  0  0  0
  9  8  2  0  0  0  0
  9 10  1  0  0  0  0
 10 11  2  0  0  0  0
 11  6  1  0  0  0  0
 14  8  1  0  0  0  0
 15  2  1  0  0  0  0
 17 16  1  0  0  0  0
 17 18  1  0  0  0  0
 18 15  1  0  0  0  0
 19 18  2  0  0  0  0
 19 20  1  0  0  0  0
 21 19  1  0  0  0  0
 22 21  1  0  0  0  0
 23 24  1  0  0  0  0
 23 21  2  0  0  0  0
 24 17  2  0  0  0  0
M  END
>  <minimizedAffinity>
-4.38230848

>  <minimizedRMSD>
2.18750572

$$$$
