
 OpenBabel03272503403D

 41 44  0  0  1  0  0  0  0  0999 V2000
   39.7670   31.4710   41.7790 C   0  0  2  0  0  0  0  0  0  0  0  0
   39.4040   32.5740   42.8000 C   0  0  1  0  0  0  0  0  0  0  0  0
   38.1650   33.0940   42.1510 C   0  0  0  0  0  0  0  0  0  0  0  0
   38.3530   33.0390   40.7910 O   0  0  0  0  0  0  0  0  0  0  0  0
   39.4540   32.2930   40.5070 C   0  0  0  0  0  0  0  0  0  0  0  0
   40.8290   31.2370   41.8330 H   0  0  0  0  0  0  0  0  0  0  0  0
   40.1590   33.3530   42.8580 H   0  0  0  0  0  0  0  0  0  0  0  0
   37.3500   32.3570   42.3890 H   0  0  0  0  0  0  0  0  0  0  0  0
   37.9070   34.1260   42.4790 H   0  0  0  0  0  0  0  0  0  0  0  0
   39.2630   31.5260   39.7330 H   0  0  0  0  0  0  0  0  0  0  0  0
   40.3480   32.8860   40.2220 H   0  0  0  0  0  0  0  0  0  0  0  0
   38.2260   31.2180   45.9200 C   0  0  0  0  0  0  0  0  0  0  0  0
   39.5650   31.0120   46.0620 C   0  0  0  0  0  0  0  0  0  0  0  0
   40.1240   31.5100   44.8870 C   0  0  0  0  0  0  0  0  0  0  0  0
   39.1490   31.9860   44.0960 N   0  0  0  0  0  0  0  0  0  0  0  0
   37.9840   31.8090   44.7250 N   0  0  0  0  0  0  0  0  0  0  0  0
   40.0400   30.5620   46.9090 H   0  0  0  0  0  0  0  0  0  0  0  0
   41.1940   31.4890   44.6990 H   0  0  0  0  0  0  0  0  0  0  0  0
   36.3940   30.6110   49.1300 C   0  0  0  0  0  0  0  0  0  0  0  0
   37.4020   30.9570   48.2530 C   0  0  0  0  0  0  0  0  0  0  0  0
   37.1990   30.8670   46.8880 C   0  0  0  0  0  0  0  0  0  0  0  0
   35.9950   30.4330   46.4630 N   0  0  0  0  0  0  0  0  0  0  0  0
   35.0160   30.0960   47.3470 C   0  0  0  0  0  0  0  0  0  0  0  0
   35.1960   30.1770   48.6530 N   0  0  0  0  0  0  0  0  0  0  0  0
   38.3840   31.3110   48.5450 H   0  0  0  0  0  0  0  0  0  0  0  0
   34.0490   29.7460   46.9980 H   0  0  0  0  0  0  0  0  0  0  0  0
   36.7680   30.7620   50.4690 O   0  0  0  0  0  0  0  0  0  0  0  0
   36.8340   29.6840   51.3720 C   0  0  0  0  0  0  0  0  0  0  0  0
   35.5820   29.1880   51.7010 F   0  0  0  0  0  0  0  0  0  0  0  0
   37.5160   30.1070   52.4880 F   0  0  0  0  0  0  0  0  0  0  0  0
   37.5810   28.6810   50.7820 F   0  0  0  0  0  0  0  0  0  0  0  0
   38.8380   30.4940   41.9190 O   0  0  0  0  0  0  0  0  0  0  0  0
   41.5060   28.8450   41.9820 Cl  0  0  0  0  0  0  0  0  0  0  0  0
   39.9130   28.2260   42.2890 C   0  0  0  0  0  0  0  0  0  0  0  0
   38.9240   29.1650   42.1950 C   0  0  0  0  0  0  0  0  0  0  0  0
   37.6220   28.6990   42.4370 C   0  0  0  0  0  0  0  0  0  0  0  0
   36.6690   29.2430   42.4240 H   0  0  0  0  0  0  0  0  0  0  0  0
   37.3610   27.3590   42.7520 C   0  0  0  0  0  0  0  0  0  0  0  0
   36.4020   26.9250   42.9500 H   0  0  0  0  0  0  0  0  0  0  0  0
   38.4060   26.4640   42.8310 C   0  0  0  0  0  3  0  0  0  0  0  0
   39.6860   26.9050   42.5970 C   0  0  0  0  0  3  0  0  0  0  0  0
  1  6  1  1  0  0  0
  1 32  1  0  0  0  0
  1  2  1  0  0  0  0
  2  7  1  1  0  0  0
  2 15  1  0  0  0  0
  3  8  1  0  0  0  0
  3  9  1  0  0  0  0
  3  2  1  0  0  0  0
  4  3  1  0  0  0  0
  5  4  1  0  0  0  0
  5  1  1  0  0  0  0
 10  5  1  0  0  0  0
 11  5  1  0  0  0  0
 12 13  1  0  0  0  0
 12 21  1  0  0  0  0
 13 17  1  0  0  0  0
 14 13  2  0  0  0  0
 15 16  1  0  0  0  0
 15 14  1  0  0  0  0
 16 12  2  0  0  0  0
 18 14  1  0  0  0  0
 19 27  1  0  0  0  0
 20 25  1  0  0  0  0
 20 19  2  0  0  0  0
 21 20  1  0  0  0  0
 22 21  2  0  0  0  0
 22 23  1  0  0  0  0
 23 24  2  0  0  0  0
 24 19  1  0  0  0  0
 26 23  1  0  0  0  0
 27 28  1  0  0  0  0
 28 29  1  0  0  0  0
 28 30  1  0  0  0  0
 31 28  1  0  0  0  0
 32 35  1  0  0  0  0
 33 34  1  0  0  0  0
 34 41  1  0  0  0  0
 35 34  2  0  0  0  0
 35 36  1  0  0  0  0
 36 38  2  0  0  0  0
 37 36  1  0  0  0  0
 38 40  1  0  0  0  0
 38 39  1  0  0  0  0
 41 40  2  0  0  0  0
M  END
>  <minimizedAffinity>
-6.52174282

>  <minimizedRMSD>
0.676241398

$$$$
