
 OpenBabel03272510243D

 32 35  0  0  0  0  0  0  0  0999 V2000
   35.9430   30.1200   46.9480 C   0  0  0  0  0  0  0  0  0  0  0  0
   36.9060   30.6210   47.8100 C   0  0  0  0  0  0  0  0  0  0  0  0
   37.9280   31.4300   47.3430 C   0  0  0  0  0  0  0  0  0  0  0  0
   37.9180   31.6990   45.9680 C   0  0  0  0  0  0  0  0  0  0  0  0
   38.8270   32.4710   45.2870 N   0  0  0  0  0  0  0  0  0  0  0  0
   38.4230   32.4450   44.0110 C   0  0  0  0  0  0  0  0  0  0  0  0
   37.3320   31.7090   43.8660 N   0  0  0  0  0  0  0  0  0  0  0  0
   36.9810   31.2210   45.0800 C   0  0  0  0  0  0  0  0  0  0  0  0
   35.9770   30.4150   45.5930 C   0  0  0  0  0  0  0  0  0  0  0  0
   35.1510   29.4890   47.3240 H   0  0  0  0  0  0  0  0  0  0  0  0
   38.6780   31.8240   47.9970 H   0  0  0  0  0  0  0  0  0  0  0  0
   39.6650   32.9790   45.6830 H   0  0  0  0  0  0  0  0  0  0  0  0
   35.2350   30.0340   44.9040 H   0  0  0  0  0  0  0  0  0  0  0  0
   37.5150   30.1260   51.4870 C   0  0  0  0  0  0  0  0  0  0  0  0
   37.7560   30.5280   50.1770 C   0  0  0  0  0  0  0  0  0  0  0  0
   36.7980   30.2650   49.2140 C   0  0  0  0  0  0  0  0  0  0  0  0
   35.6780   29.6230   49.6300 N   0  0  0  0  0  0  0  0  0  0  0  0
   35.4530   29.2370   50.9050 C   0  0  0  0  0  0  0  0  0  0  0  0
   36.3750   29.4930   51.8150 N   0  0  0  0  0  0  0  0  0  0  0  0
   38.3390   30.3870   52.1550 H   0  0  0  0  0  0  0  0  0  0  0  0
   38.6500   31.0410   49.8390 H   0  0  0  0  0  0  0  0  0  0  0  0
   34.5390   28.7270   51.1760 H   0  0  0  0  0  0  0  0  0  0  0  0
   39.1020   33.1220   43.0000 O   0  0  0  0  0  0  0  0  0  0  0  0
   37.7430   34.1330   40.5000 Cl  0  0  0  0  0  0  0  0  0  0  0  0
   38.8250   32.7570   40.5850 C   0  0  0  0  0  0  0  0  0  0  0  0
   39.3550   32.4390   41.8150 C   0  0  0  0  0  0  0  0  0  0  0  0
   40.2140   31.3720   41.9670 C   0  0  0  0  0  0  0  0  0  0  0  0
   40.6770   31.0540   42.9120 H   0  0  0  0  0  0  0  0  0  0  0  0
   40.5700   30.5880   40.8880 C   0  0  0  0  0  0  0  0  0  0  0  0
   41.2330   29.7450   40.9420 H   0  0  0  0  0  0  0  0  0  0  0  0
   40.0400   30.9030   39.6500 C   0  0  0  0  0  3  0  0  0  0  0  0
   39.1860   31.9690   39.5130 C   0  0  0  0  0  3  0  0  0  0  0  0
  1 10  1  0  0  0  0
  1  2  1  0  0  0  0
  2 16  1  0  0  0  0
  3  2  2  0  0  0  0
  3 11  1  0  0  0  0
  4  3  1  0  0  0  0
  5 12  1  0  0  0  0
  5  4  1  0  0  0  0
  6  5  1  0  0  0  0
  7  6  2  0  0  0  0
  7  8  1  0  0  0  0
  8  9  1  0  0  0  0
  8  4  2  0  0  0  0
  9  1  2  0  0  0  0
 13  9  1  0  0  0  0
 14 19  1  0  0  0  0
 14 20  1  0  0  0  0
 15 14  2  0  0  0  0
 16 17  2  0  0  0  0
 16 15  1  0  0  0  0
 17 18  1  0  0  0  0
 18 22  1  0  0  0  0
 18 19  2  0  0  0  0
 21 15  1  0  0  0  0
 23  6  1  0  0  0  0
 24 25  1  0  0  0  0
 25 26  1  0  0  0  0
 26 27  2  0  0  0  0
 26 23  1  0  0  0  0
 27 28  1  0  0  0  0
 29 30  1  0  0  0  0
 29 27  1  0  0  0  0
 31 29  2  0  0  0  0
 32 31  1  0  0  0  0
 32 25  2  0  0  0  0
M  END
>  <minimizedAffinity>
-5.64649534

>  <minimizedRMSD>
2.15238357

$$$$
