
 OpenBabel03272503413D

 41 44  0  0  1  0  0  0  0  0999 V2000
   40.0440   30.9030   41.7730 C   0  0  2  0  0  0  0  0  0  0  0  0
   39.7800   32.1250   42.6820 C   0  0  1  0  0  0  0  0  0  0  0  0
   38.5950   32.6910   41.9730 C   0  0  0  0  0  0  0  0  0  0  0  0
   38.7820   32.4920   40.6270 O   0  0  0  0  0  0  0  0  0  0  0  0
   39.8110   31.6260   40.4260 C   0  0  0  0  0  0  0  0  0  0  0  0
   41.0810   30.5800   41.8600 H   0  0  0  0  0  0  0  0  0  0  0  0
   40.6020   32.8340   42.6770 H   0  0  0  0  0  0  0  0  0  0  0  0
   37.7170   32.0560   42.2690 H   0  0  0  0  0  0  0  0  0  0  0  0
   38.4310   33.7680   42.2010 H   0  0  0  0  0  0  0  0  0  0  0  0
   39.5530   30.8100   39.7250 H   0  0  0  0  0  0  0  0  0  0  0  0
   40.7560   32.1080   40.0980 H   0  0  0  0  0  0  0  0  0  0  0  0
   38.4660   31.0970   45.8720 C   0  0  0  0  0  0  0  0  0  0  0  0
   39.8010   30.9830   46.1170 C   0  0  0  0  0  0  0  0  0  0  0  0
   40.4110   31.3650   44.9250 C   0  0  0  0  0  0  0  0  0  0  0  0
   39.4690   31.6860   44.0250 N   0  0  0  0  0  0  0  0  0  0  0  0
   38.2750   31.5230   44.6000 N   0  0  0  0  0  0  0  0  0  0  0  0
   40.2400   30.6670   47.0410 H   0  0  0  0  0  0  0  0  0  0  0  0
   41.4920   31.3800   44.8050 H   0  0  0  0  0  0  0  0  0  0  0  0
   36.5170   30.6200   49.0360 C   0  0  0  0  0  0  0  0  0  0  0  0
   37.5660   30.9030   48.1840 C   0  0  0  0  0  0  0  0  0  0  0  0
   37.3960   30.8100   46.8140 C   0  0  0  0  0  0  0  0  0  0  0  0
   36.1830   30.4360   46.3600 N   0  0  0  0  0  0  0  0  0  0  0  0
   35.1630   30.1600   47.2200 C   0  0  0  0  0  0  0  0  0  0  0  0
   35.3110   30.2450   48.5290 N   0  0  0  0  0  0  0  0  0  0  0  0
   38.5570   31.2080   48.4990 H   0  0  0  0  0  0  0  0  0  0  0  0
   34.1890   29.8590   46.8460 H   0  0  0  0  0  0  0  0  0  0  0  0
   36.8610   30.7640   50.3830 O   0  0  0  0  0  0  0  0  0  0  0  0
   36.8920   29.6850   51.2860 C   0  0  0  0  0  0  0  0  0  0  0  0
   35.6240   29.2440   51.6300 F   0  0  0  0  0  0  0  0  0  0  0  0
   37.6040   30.0780   52.3940 F   0  0  0  0  0  0  0  0  0  0  0  0
   37.5880   28.6510   50.6880 F   0  0  0  0  0  0  0  0  0  0  0  0
   39.0310   30.0300   41.9930 O   0  0  0  0  0  0  0  0  0  0  0  0
   38.1670   28.6470   39.3140 Cl  0  0  0  0  0  0  0  0  0  0  0  0
   38.5630   27.8410   40.8000 C   0  0  0  0  0  0  0  0  0  0  0  0
   38.9080   28.6880   41.8170 C   0  0  0  0  0  0  0  0  0  0  0  0
   39.2330   28.0690   43.0330 C   0  0  0  0  0  0  0  0  0  0  0  0
   39.5390   28.5180   43.9880 H   0  0  0  0  0  0  0  0  0  0  0  0
   39.2060   26.6770   43.1900 C   0  0  0  0  0  0  0  0  0  0  0  0
   39.4390   26.1300   44.0810 H   0  0  0  0  0  0  0  0  0  0  0  0
   38.8490   25.8820   42.1220 C   0  0  0  0  0  3  0  0  0  0  0  0
   38.5260   26.4720   40.9250 C   0  0  0  0  0  3  0  0  0  0  0  0
  1  6  1  1  0  0  0
  1 32  1  0  0  0  0
  1  2  1  0  0  0  0
  2  7  1  6  0  0  0
  2 15  1  0  0  0  0
  3  9  1  0  0  0  0
  3  8  1  0  0  0  0
  3  2  1  0  0  0  0
  4  3  1  0  0  0  0
  5  4  1  0  0  0  0
  5  1  1  0  0  0  0
 10  5  1  0  0  0  0
 11  5  1  0  0  0  0
 12 13  1  0  0  0  0
 12 21  1  0  0  0  0
 13 17  1  0  0  0  0
 14 13  2  0  0  0  0
 15 16  1  0  0  0  0
 15 14  1  0  0  0  0
 16 12  2  0  0  0  0
 18 14  1  0  0  0  0
 19 27  1  0  0  0  0
 20 25  1  0  0  0  0
 20 19  2  0  0  0  0
 21 20  1  0  0  0  0
 22 21  2  0  0  0  0
 22 23  1  0  0  0  0
 23 24  2  0  0  0  0
 24 19  1  0  0  0  0
 26 23  1  0  0  0  0
 27 28  1  0  0  0  0
 28 29  1  0  0  0  0
 28 30  1  0  0  0  0
 31 28  1  0  0  0  0
 33 34  1  0  0  0  0
 34 41  2  0  0  0  0
 34 35  1  0  0  0  0
 35 32  1  0  0  0  0
 35 36  2  0  0  0  0
 36 38  1  0  0  0  0
 36 37  1  0  0  0  0
 38 39  1  0  0  0  0
 40 38  2  0  0  0  0
 41 40  1  0  0  0  0
M  END
>  <minimizedAffinity>
-6.26267624

>  <minimizedRMSD>
0.801698327

$$$$
