
 OpenBabel03272503413D

 41 44  0  0  1  0  0  0  0  0999 V2000
   40.4720   30.2660   41.9380 C   0  0  2  0  0  0  0  0  0  0  0  0
   40.1090   31.5700   42.6870 C   0  0  1  0  0  0  0  0  0  0  0  0
   39.1440   32.1430   41.7030 C   0  0  0  0  0  0  0  0  0  0  0  0
   39.5960   31.8270   40.4450 O   0  0  0  0  0  0  0  0  0  0  0  0
   40.5800   30.8920   40.5280 C   0  0  0  0  0  0  0  0  0  0  0  0
   41.4410   29.8950   42.2680 H   0  0  0  0  0  0  0  0  0  0  0  0
   40.9630   32.2300   42.8120 H   0  0  0  0  0  0  0  0  0  0  0  0
   38.1800   31.5830   41.8440 H   0  0  0  0  0  0  0  0  0  0  0  0
   39.0130   33.2420   41.8190 H   0  0  0  0  0  0  0  0  0  0  0  0
   40.4180   30.0390   39.8430 H   0  0  0  0  0  0  0  0  0  0  0  0
   41.6050   31.2930   40.3800 H   0  0  0  0  0  0  0  0  0  0  0  0
   38.0840   30.8050   45.5630 C   0  0  0  0  0  0  0  0  0  0  0  0
   39.3200   30.8050   46.1350 C   0  0  0  0  0  0  0  0  0  0  0  0
   40.1930   31.0950   45.0900 C   0  0  0  0  0  0  0  0  0  0  0  0
   39.4910   31.2580   43.9560 N   0  0  0  0  0  0  0  0  0  0  0  0
   38.1990   31.0800   44.2410 N   0  0  0  0  0  0  0  0  0  0  0  0
   39.5280   30.6170   47.1690 H   0  0  0  0  0  0  0  0  0  0  0  0
   41.2680   31.1670   45.2330 H   0  0  0  0  0  0  0  0  0  0  0  0
   35.4820   30.3580   48.2210 C   0  0  0  0  0  0  0  0  0  0  0  0
   36.7010   30.6070   47.6210 C   0  0  0  0  0  0  0  0  0  0  0  0
   36.8250   30.5520   46.2450 C   0  0  0  0  0  0  0  0  0  0  0  0
   35.7230   30.2470   45.5300 N   0  0  0  0  0  0  0  0  0  0  0  0
   34.5310   30.0040   46.1440 C   0  0  0  0  0  0  0  0  0  0  0  0
   34.3980   30.0550   47.4560 N   0  0  0  0  0  0  0  0  0  0  0  0
   37.6140   30.8560   48.1510 H   0  0  0  0  0  0  0  0  0  0  0  0
   33.6480   29.7600   45.5610 H   0  0  0  0  0  0  0  0  0  0  0  0
   35.5350   30.4570   49.6140 O   0  0  0  0  0  0  0  0  0  0  0  0
   35.0560   29.4490   50.4720 C   0  0  0  0  0  0  0  0  0  0  0  0
   33.7180   29.6160   50.7930 F   0  0  0  0  0  0  0  0  0  0  0  0
   35.8450   29.4400   51.5980 F   0  0  0  0  0  0  0  0  0  0  0  0
   35.2240   28.2340   49.8350 F   0  0  0  0  0  0  0  0  0  0  0  0
   39.3750   29.4720   41.9910 O   0  0  0  0  0  0  0  0  0  0  0  0
   38.9560   28.0470   39.2290 Cl  0  0  0  0  0  0  0  0  0  0  0  0
   38.9880   27.2750   40.7840 C   0  0  0  0  0  0  0  0  0  0  0  0
   39.1890   28.1360   41.8280 C   0  0  0  0  0  0  0  0  0  0  0  0
   39.2200   27.5450   43.1000 C   0  0  0  0  0  0  0  0  0  0  0  0
   39.3640   28.0080   44.0840 H   0  0  0  0  0  0  0  0  0  0  0  0
   39.0580   26.1640   43.2830 C   0  0  0  0  0  0  0  0  0  0  0  0
   39.0690   25.6380   44.2150 H   0  0  0  0  0  0  0  0  0  0  0  0
   38.8600   25.3540   42.1860 C   0  0  0  0  0  3  0  0  0  0  0  0
   38.8250   25.9180   40.9340 C   0  0  0  0  0  3  0  0  0  0  0  0
  1 32  1  0  0  0  0
  1  6  1  1  0  0  0
  1  2  1  0  0  0  0
  2  7  1  1  0  0  0
  2 15  1  0  0  0  0
  3  9  1  0  0  0  0
  3  8  1  0  0  0  0
  3  2  1  0  0  0  0
  4  5  1  0  0  0  0
  4  3  1  0  0  0  0
  5  1  1  0  0  0  0
 10  5  1  0  0  0  0
 11  5  1  0  0  0  0
 12 13  1  0  0  0  0
 12 21  1  0  0  0  0
 13 17  1  0  0  0  0
 14 18  1  0  0  0  0
 14 13  2  0  0  0  0
 15 16  1  0  0  0  0
 15 14  1  0  0  0  0
 16 12  2  0  0  0  0
 19 27  1  0  0  0  0
 20 25  1  0  0  0  0
 20 19  1  0  0  0  0
 21 20  2  0  0  0  0
 22 23  2  0  0  0  0
 22 21  1  0  0  0  0
 23 24  1  0  0  0  0
 24 19  2  0  0  0  0
 26 23  1  0  0  0  0
 27 28  1  0  0  0  0
 28 29  1  0  0  0  0
 28 30  1  0  0  0  0
 31 28  1  0  0  0  0
 33 34  1  0  0  0  0
 34 41  2  0  0  0  0
 34 35  1  0  0  0  0
 35 32  1  0  0  0  0
 35 36  2  0  0  0  0
 36 38  1  0  0  0  0
 36 37  1  0  0  0  0
 38 39  1  0  0  0  0
 40 38  2  0  0  0  0
 41 40  1  0  0  0  0
M  END
>  <minimizedAffinity>
-5.8776722

>  <minimizedRMSD>
1.43631268

$$$$
