
 OpenBabel03272504003D

 31 33  0  0  0  0  0  0  0  0999 V2000
   35.9870   30.3910   45.3990 C   0  0  0  0  0  0  0  0  0  0  0  0
   34.6760   30.0730   45.7170 C   0  0  0  0  0  0  0  0  0  0  0  0
   34.5950   29.9080   47.0740 C   0  0  0  0  0  0  0  0  0  0  0  0
   35.8240   30.1210   47.5500 N   0  0  0  0  0  0  0  0  0  0  0  0
   36.6330   30.4030   46.5690 N   0  0  0  0  0  0  0  0  0  0  0  0
   33.8250   29.9630   45.0530 H   0  0  0  0  0  0  0  0  0  0  0  0
   33.7230   29.6570   47.6430 H   0  0  0  0  0  0  0  0  0  0  0  0
   38.0340   32.0020   47.9180 Cl  0  0  0  0  0  0  0  0  0  0  0  0
   37.3360   30.9460   49.1350 C   0  0  0  0  0  0  0  0  0  0  0  0
   36.2840   30.0720   48.8980 C   0  0  0  0  0  0  0  0  0  0  0  0
   35.8250   29.2930   49.9410 C   0  0  0  0  0  0  0  0  0  0  0  0
   35.0060   28.6460   49.6630 H   0  0  0  0  0  0  0  0  0  0  0  0
   36.4150   29.4000   51.1830 C   0  0  0  0  0  0  0  0  0  0  0  0
   36.0000   28.7610   51.9380 H   0  0  0  0  0  0  0  0  0  0  0  0
   37.4620   30.2720   51.4160 C   0  0  0  0  0  0  0  0  0  0  0  0
   37.9190   31.0450   50.3820 C   0  0  0  0  0  0  0  0  0  0  0  0
   36.3940   30.6220   43.9970 C   0  0  0  0  0  0  0  0  0  0  0  0
   35.7930   29.9790   43.2970 H   0  0  0  0  0  0  0  0  0  0  0  0
   36.0530   31.6350   43.7440 H   0  0  0  0  0  0  0  0  0  0  0  0
   37.8150   30.2890   43.7470 C   0  0  0  0  0  0  0  0  0  0  0  0
   37.9860   29.2590   44.1860 H   0  0  0  0  0  0  0  0  0  0  0  0
   38.0360   30.1130   42.6510 H   0  0  0  0  0  0  0  0  0  0  0  0
   38.8340   31.1480   44.2810 C   0  0  0  0  0  0  0  0  0  0  0  0
   38.7710   32.5040   44.1210 C   0  0  0  0  0  0  0  0  0  0  0  0
   39.7820   33.3420   44.6480 C   0  0  0  0  0  0  0  0  0  0  0  0
   40.8040   32.6870   45.3140 N   0  0  0  0  0  0  0  0  0  0  0  0
   40.8240   31.3430   45.4470 C   0  0  0  0  0  0  0  0  0  0  0  0
   39.8360   30.5780   44.9280 N   0  0  0  0  0  0  0  0  0  0  0  0
   38.0360   33.1190   43.6330 H   0  0  0  0  0  0  0  0  0  0  0  0
   39.8310   34.4040   44.5810 H   0  0  0  0  0  0  0  0  0  0  0  0
   41.6590   30.9050   45.9850 H   0  0  0  0  0  0  0  0  0  0  0  0
  1  2  1  0  0  0  0
  1  5  2  0  0  0  0
  2  3  2  0  0  0  0
  3  4  1  0  0  0  0
  3  7  1  0  0  0  0
  4 10  1  0  0  0  0
  5  4  1  0  0  0  0
  6  2  1  0  0  0  0
  8  9  1  0  0  0  0
  9 16  1  0  0  0  0
 10  9  2  0  0  0  0
 10 11  1  0  0  0  0
 11 13  2  0  0  0  0
 12 11  1  0  0  0  0
 13 15  1  0  0  0  0
 13 14  1  0  0  0  0
 16 15  2  0  0  0  0
 17  1  1  0  0  0  0
 18 17  1  0  0  0  0
 19 17  1  0  0  0  0
 20 17  1  0  0  0  0
 20 21  1  0  0  0  0
 20 23  1  0  0  0  0
 22 20  1  0  0  0  0
 23 28  1  0  0  0  0
 24 23  2  0  0  0  0
 24 25  1  0  0  0  0
 25 26  2  0  0  0  0
 26 27  1  0  0  0  0
 27 31  1  0  0  0  0
 28 27  2  0  0  0  0
 29 24  1  0  0  0  0
 30 25  1  0  0  0  0
M  END
>  <minimizedAffinity>
-5.85455132

>  <minimizedRMSD>
3.76893425

$$$$
