
 OpenBabel03272508083D

 24 25  0  0  0  0  0  0  0  0999 V2000
   38.1160   32.7030   47.6870 O   0  0  0  0  0  0  0  0  0  0  0  0
   38.0060   31.3860   47.0060 P   0  0  2  0  0  0  0  0  0  0  0  0
   36.5580   31.3360   46.0950 O   0  0  0  0  0  0  0  0  0  0  0  0
   36.3780   30.3870   45.8660 H   0  0  0  0  0  0  0  0  0  0  0  0
   38.0530   30.0520   48.0530 O   0  0  0  0  0  0  0  0  0  0  0  0
   37.0070   29.9290   51.6030 C   0  0  0  0  0  0  0  0  0  0  0  0
   37.8620   30.2050   50.5190 C   0  0  0  0  0  0  0  0  0  0  0  0
   37.4240   29.8860   49.2350 C   0  0  0  0  0  0  0  0  0  0  0  0
   36.1810   29.3220   49.1000 N   0  0  0  0  0  0  0  0  0  0  0  0
   35.3940   29.0750   50.1640 C   0  0  0  0  0  0  0  0  0  0  0  0
   35.8100   29.3800   51.4050 N   0  0  0  0  0  0  0  0  0  0  0  0
   37.4450   30.2160   52.5570 H   0  0  0  0  0  0  0  0  0  0  0  0
   38.8420   30.6420   50.5480 H   0  0  0  0  0  0  0  0  0  0  0  0
   34.4070   28.6250   50.0410 H   0  0  0  0  0  0  0  0  0  0  0  0
   39.2380   31.2360   45.8760 O   0  0  0  0  0  0  0  0  0  0  0  0
   39.0400   28.9730   44.0580 Cl  0  0  0  0  0  0  0  0  0  0  0  0
   39.2120   30.6890   43.6500 C   0  0  0  0  0  0  0  0  0  0  0  0
   39.3000   31.7140   44.5960 C   0  0  0  0  0  0  0  0  0  0  0  0
   39.4320   33.0080   44.1260 C   0  0  0  0  0  0  0  0  0  0  0  0
   39.4930   33.7370   44.9230 H   0  0  0  0  0  0  0  0  0  0  0  0
   39.4730   33.2660   42.7700 C   0  0  0  0  0  0  0  0  0  0  0  0
   39.5810   34.3300   42.5070 H   0  0  0  0  0  0  0  0  0  0  0  0
   39.3880   32.2750   41.8370 C   0  0  0  0  0  3  0  0  0  0  0  0
   39.2580   30.9900   42.2870 C   0  0  0  0  0  3  0  0  0  0  0  0
  2  1  2  1  0  0  0
  2  5  1  0  0  0  0
  3  2  1  0  0  0  0
  4  3  1  0  0  0  0
  5  8  1  0  0  0  0
  6 12  1  0  0  0  0
  7 13  1  0  0  0  0
  7  6  2  0  0  0  0
  8  7  1  0  0  0  0
  9  8  2  0  0  0  0
  9 10  1  0  0  0  0
 10 11  2  0  0  0  0
 11  6  1  0  0  0  0
 14 10  1  0  0  0  0
 15  2  1  0  0  0  0
 17 16  1  0  0  0  0
 17 18  1  0  0  0  0
 18 15  1  0  0  0  0
 19 18  2  0  0  0  0
 19 20  1  0  0  0  0
 21 19  1  0  0  0  0
 22 21  1  0  0  0  0
 23 24  1  0  0  0  0
 23 21  2  0  0  0  0
 24 17  2  0  0  0  0
M  END
>  <minimizedAffinity>
-4.74914789

>  <minimizedRMSD>
2.80108142

$$$$
