
 OpenBabel03272508083D

 24 25  0  0  0  0  0  0  0  0999 V2000
   39.4440   32.4810   47.0980 O   0  0  0  0  0  0  0  0  0  0  0  0
   38.3060   31.8220   46.4060 P   0  0  2  0  0  0  0  0  0  0  0  0
   37.7200   32.8490   45.1700 O   0  0  0  0  0  0  0  0  0  0  0  0
   36.8250   32.5180   44.9000 H   0  0  0  0  0  0  0  0  0  0  0  0
   37.0220   31.3900   47.4280 O   0  0  0  0  0  0  0  0  0  0  0  0
   37.6110   30.5310   50.9810 C   0  0  0  0  0  0  0  0  0  0  0  0
   37.7050   31.3040   49.8080 C   0  0  0  0  0  0  0  0  0  0  0  0
   37.0740   30.8370   48.6570 C   0  0  0  0  0  0  0  0  0  0  0  0
   36.3950   29.6470   48.7330 N   0  0  0  0  0  0  0  0  0  0  0  0
   36.3280   28.9390   49.8750 C   0  0  0  0  0  0  0  0  0  0  0  0
   36.9350   29.3840   50.9900 N   0  0  0  0  0  0  0  0  0  0  0  0
   38.1370   30.9860   51.8180 H   0  0  0  0  0  0  0  0  0  0  0  0
   38.2170   32.2380   49.6750 H   0  0  0  0  0  0  0  0  0  0  0  0
   35.7840   27.9930   49.9210 H   0  0  0  0  0  0  0  0  0  0  0  0
   38.8550   30.4500   45.6100 O   0  0  0  0  0  0  0  0  0  0  0  0
   36.6230   29.4490   44.0340 Cl  0  0  0  0  0  0  0  0  0  0  0  0
   38.2640   29.8320   43.4830 C   0  0  0  0  0  0  0  0  0  0  0  0
   39.2770   30.3120   44.3170 C   0  0  0  0  0  0  0  0  0  0  0  0
   40.5100   30.5670   43.7430 C   0  0  0  0  0  0  0  0  0  0  0  0
   41.2350   30.9340   44.4580 H   0  0  0  0  0  0  0  0  0  0  0  0
   40.7190   30.3530   42.3950 C   0  0  0  0  0  0  0  0  0  0  0  0
   41.7350   30.5890   42.0440 H   0  0  0  0  0  0  0  0  0  0  0  0
   39.7380   29.8860   41.5710 C   0  0  0  0  0  3  0  0  0  0  0  0
   38.5140   29.6280   42.1240 C   0  0  0  0  0  3  0  0  0  0  0  0
  2  1  2  1  0  0  0
  2  5  1  0  0  0  0
  3  2  1  0  0  0  0
  4  3  1  0  0  0  0
  5  8  1  0  0  0  0
  6 11  1  0  0  0  0
  6 12  1  0  0  0  0
  7  6  2  0  0  0  0
  8  9  2  0  0  0  0
  8  7  1  0  0  0  0
  9 10  1  0  0  0  0
 10 14  1  0  0  0  0
 10 11  2  0  0  0  0
 13  7  1  0  0  0  0
 15  2  1  0  0  0  0
 17 16  1  0  0  0  0
 17 18  1  0  0  0  0
 18 15  1  0  0  0  0
 19 18  2  0  0  0  0
 19 20  1  0  0  0  0
 21 19  1  0  0  0  0
 22 21  1  0  0  0  0
 23 24  1  0  0  0  0
 23 21  2  0  0  0  0
 24 17  2  0  0  0  0
M  END
>  <minimizedAffinity>
-4.81352997

>  <minimizedRMSD>
3.29872632

$$$$
