
 OpenBabel03272505243D

 28 30  0  0  0  0  0  0  0  0999 V2000
   37.2360   30.6990   49.3390 C   0  0  0  0  0  0  0  0  0  0  0  0
   37.1390   30.4900   47.9430 C   0  0  0  0  0  0  0  0  0  0  0  0
   35.8940   30.3160   47.3620 C   0  0  0  0  0  0  0  0  0  0  0  0
   34.8240   30.3580   48.1750 N   0  0  0  0  0  0  0  0  0  0  0  0
   34.8910   30.5550   49.5060 C   0  0  0  0  0  0  0  0  0  0  0  0
   36.1010   30.7260   50.0840 N   0  0  0  0  0  0  0  0  0  0  0  0
   35.7480   30.1060   45.9690 N   0  0  0  0  0  0  0  0  0  0  0  0
   34.7630   29.3300   45.4730 C   0  0  0  0  0  0  0  0  0  0  0  0
   34.6410   29.1310   44.0940 C   0  0  0  0  0  0  0  0  0  0  0  0
   35.5740   29.7610   43.2520 C   0  0  0  0  0  0  0  0  0  0  0  0
   35.4990   29.6060   42.0130 O   0  0  0  0  0  0  0  0  0  0  0  0
   36.5620   30.5420   43.7820 N   0  0  0  0  0  0  0  0  0  0  0  0
   36.5930   30.6700   45.1120 C   0  0  0  0  0  0  0  0  0  0  0  0
   37.5200   31.4020   45.5520 O   0  0  0  0  0  0  0  0  0  0  0  0
   38.1780   30.8420   49.8530 H   0  0  0  0  0  0  0  0  0  0  0  0
   38.0900   30.4770   47.4820 H   0  0  0  0  0  0  0  0  0  0  0  0
   34.0140   30.5840   50.1410 H   0  0  0  0  0  0  0  0  0  0  0  0
   34.0570   28.8520   46.1140 H   0  0  0  0  0  0  0  0  0  0  0  0
   33.8470   28.5060   43.7130 H   0  0  0  0  0  0  0  0  0  0  0  0
   35.4420   33.0610   42.8140 Cl  0  0  0  0  0  0  0  0  0  0  0  0
   37.0150   32.3930   42.4360 C   0  0  0  0  0  0  0  0  0  0  0  0
   37.5040   31.1790   42.9280 C   0  0  0  0  0  0  0  0  0  0  0  0
   38.7570   30.7750   42.5500 C   0  0  0  0  0  0  0  0  0  0  0  0
   39.0470   29.8280   42.9800 H   0  0  0  0  0  0  0  0  0  0  0  0
   39.5080   31.5620   41.7020 C   0  0  0  0  0  0  0  0  0  0  0  0
   40.4970   31.1770   41.4450 H   0  0  0  0  0  0  0  0  0  0  0  0
   39.0400   32.7620   41.2070 C   0  0  0  0  0  3  0  0  0  0  0  0
   37.7740   33.1710   41.5890 C   0  0  0  0  0  3  0  0  0  0  0  0
  1 15  1  0  0  0  0
  1  6  1  0  0  0  0
  2  1  2  0  0  0  0
  3  2  1  0  0  0  0
  3  4  2  0  0  0  0
  4  5  1  0  0  0  0
  5  6  2  0  0  0  0
  5 17  1  0  0  0  0
  7  3  1  0  0  0  0
  8  7  1  0  0  0  0
  8 18  1  0  0  0  0
  9  8  2  0  0  0  0
 10 12  1  0  0  0  0
 10  9  1  0  0  0  0
 11 10  2  0  0  0  0
 12 13  1  0  0  0  0
 13 14  2  0  0  0  0
 13  7  1  0  0  0  0
 16  2  1  0  0  0  0
 19  9  1  0  0  0  0
 21 20  1  0  0  0  0
 21 22  1  0  0  0  0
 22 12  1  0  0  0  0
 23 22  2  0  0  0  0
 23 24  1  0  0  0  0
 25 23  1  0  0  0  0
 26 25  1  0  0  0  0
 27 28  1  0  0  0  0
 27 25  2  0  0  0  0
 28 21  2  0  0  0  0
M  END
>  <minimizedAffinity>
-4.43809462

>  <minimizedRMSD>
5.17161846

$$$$
