
 OpenBabel03272505433D

 24 25  0  0  0  0  0  0  0  0999 V2000
   32.1310   28.1420   48.1330 O   0  0  0  0  0  0  0  0  0  0  0  0
   33.6610   28.1060   48.1610 P   0  0  2  0  0  0  0  0  0  0  0  0
   34.1010   26.4970   48.0050 O   0  0  0  0  0  0  0  0  0  0  0  0
   34.3920   26.3370   47.0740 H   0  0  0  0  0  0  0  0  0  0  0  0
   34.1430   28.7560   49.6640 O   0  0  0  0  0  0  0  0  0  0  0  0
   36.5610   31.4830   49.8460 C   0  0  0  0  0  0  0  0  0  0  0  0
   37.7040   30.7750   50.3230 C   0  0  0  0  0  0  0  0  0  0  0  0
   37.5530   29.4000   50.5460 C   0  0  0  0  0  0  0  0  0  0  0  0
   36.3450   28.8360   50.2980 N   0  0  0  0  0  0  0  0  0  0  0  0
   35.2770   29.5320   49.8470 C   0  0  0  0  0  0  0  0  0  0  0  0
   35.3840   30.8590   49.6200 N   0  0  0  0  0  0  0  0  0  0  0  0
   36.6590   32.5480   49.6670 H   0  0  0  0  0  0  0  0  0  0  0  0
   38.6280   31.3120   50.4920 H   0  0  0  0  0  0  0  0  0  0  0  0
   38.3940   28.8370   50.9050 H   0  0  0  0  0  0  0  0  0  0  0  0
   34.2150   28.9800   46.8550 O   0  0  0  0  0  0  0  0  0  0  0  0
   32.3590   31.0500   46.0120 Cl  0  0  0  0  0  0  0  0  0  0  0  0
   32.8740   29.6470   45.0940 C   0  0  0  0  0  0  0  0  0  0  0  0
   33.7740   28.6940   45.5730 C   0  0  0  0  0  0  0  0  0  0  0  0
   34.1480   27.6080   44.8110 C   0  0  0  0  0  0  0  0  0  0  0  0
   34.8460   26.9120   45.2460 H   0  0  0  0  0  0  0  0  0  0  0  0
   33.6010   27.4830   43.5390 C   0  0  0  0  0  0  0  0  0  0  0  0
   33.8970   26.6170   42.9310 H   0  0  0  0  0  0  0  0  0  0  0  0
   32.7090   28.4310   43.0710 C   0  0  0  0  0  3  0  0  0  0  0  0
   32.3240   29.5270   43.8250 C   0  0  0  0  0  3  0  0  0  0  0  0
  2  1  2  6  0  0  0
  2  5  1  0  0  0  0
  3  2  1  0  0  0  0
  4  3  1  0  0  0  0
  5 10  1  0  0  0  0
  6  7  1  0  0  0  0
  7 13  1  0  0  0  0
  7  8  2  0  0  0  0
  8 14  1  0  0  0  0
  9  8  1  0  0  0  0
 10  9  2  0  0  0  0
 11  6  2  0  0  0  0
 11 10  1  0  0  0  0
 12  6  1  0  0  0  0
 15  2  1  0  0  0  0
 17 18  1  0  0  0  0
 17 16  1  0  0  0  0
 18 15  1  0  0  0  0
 19 20  1  0  0  0  0
 19 18  2  0  0  0  0
 21 19  1  0  0  0  0
 22 21  1  0  0  0  0
 23 21  2  0  0  0  0
 23 24  1  0  0  0  0
 24 17  2  0  0  0  0
M  END
>  <minimizedAffinity>
-3.67070007

>  <minimizedRMSD>
2.73353148

$$$$
