
 OpenBabel03272500573D

 33 35  0  0  0  0  0  0  0  0999 V2000
   38.1070   31.9230   47.4400 C   0  0  0  0  0  0  0  0  0  0  0  0
   38.5430   32.8780   48.3160 C   0  0  0  0  0  0  0  0  0  0  0  0
   38.0380   32.9600   49.6110 C   0  0  0  0  0  0  0  0  0  0  0  0
   37.0320   32.0010   50.0060 C   0  0  0  0  0  0  0  0  0  0  0  0
   36.6390   31.0740   49.0860 C   0  0  0  0  0  0  0  0  0  0  0  0
   37.1270   31.0010   47.8400 C   0  0  0  0  0  0  0  0  0  0  0  0
   39.3070   33.6180   48.0430 H   0  0  0  0  0  0  0  0  0  0  0  0
   38.4230   33.7440   50.2690 H   0  0  0  0  0  0  0  0  0  0  0  0
   36.7500   32.1910   51.0110 H   0  0  0  0  0  0  0  0  0  0  0  0
   35.9200   30.4630   49.6050 H   0  0  0  0  0  0  0  0  0  0  0  0
   40.0120   31.2930   46.0320 C   0  0  0  0  0  0  0  0  0  0  0  0
   38.7420   31.9400   46.1380 C   0  0  0  0  0  0  0  0  0  0  0  0
   38.2710   32.5010   44.9780 C   0  0  0  0  0  0  0  0  0  0  0  0
   38.9800   32.4280   43.8400 N   0  0  0  0  0  0  0  0  0  0  0  0
   40.1570   31.8260   43.7530 C   0  0  0  0  0  0  0  0  0  0  0  0
   40.6660   31.2600   44.8550 N   0  0  0  0  0  0  0  0  0  0  0  0
   40.4930   30.8120   46.8750 H   0  0  0  0  0  0  0  0  0  0  0  0
   37.3120   32.9880   45.0620 H   0  0  0  0  0  0  0  0  0  0  0  0
   40.7590   31.7440   42.8550 H   0  0  0  0  0  0  0  0  0  0  0  0
   35.1800   29.9830   46.9810 C   0  0  0  0  0  0  0  0  0  0  0  0
   34.5520   30.6620   47.8540 O   0  0  0  0  0  0  0  0  0  0  0  0
   36.6630   30.0650   46.9480 N   0  0  0  0  0  0  0  0  0  0  0  0
   37.1820   29.4610   46.3110 H   0  0  0  0  0  0  0  0  0  0  0  0
   34.5610   29.1380   46.0090 O   0  0  0  0  0  0  0  0  0  0  0  0
   33.5990   29.6860   45.1830 C   0  0  0  0  0  0  0  0  0  0  0  0
   34.0280   30.5750   44.4050 O   0  0  0  0  0  0  0  0  0  0  0  0
   32.1820   29.5030   44.9800 N   0  0  0  0  0  0  0  0  0  0  0  0
   31.6100   28.5670   44.0390 C   0  0  0  0  0  2  0  0  0  0  0  0
   30.5910   29.1860   43.1380 C   0  0  0  0  0  2  0  0  0  0  0  0
   30.4360   30.6680   43.3280 C   0  0  0  0  0  3  0  0  0  0  0  0
   29.5090   31.0230   42.8310 H   0  0  0  0  0  0  0  0  0  0  0  0
   30.3720   31.1190   44.7510 C   0  0  0  0  0  2  0  0  0  0  0  0
   31.1340   30.2020   45.6630 C   0  0  0  0  0  2  0  0  0  0  0  0
  1  6  2  0  0  0  0
  1  2  1  0  0  0  0
  2  3  2  0  0  0  0
  3  4  1  0  0  0  0
  3  8  1  0  0  0  0
  4  9  1  0  0  0  0
  5 10  1  0  0  0  0
  5  4  2  0  0  0  0
  6  5  1  0  0  0  0
  7  2  1  0  0  0  0
 11 12  1  0  0  0  0
 11 17  1  0  0  0  0
 12  1  1  0  0  0  0
 13 18  1  0  0  0  0
 13 12  2  0  0  0  0
 14 13  1  0  0  0  0
 15 14  2  0  0  0  0
 15 16  1  0  0  0  0
 16 11  2  0  0  0  0
 19 15  1  0  0  0  0
 20 21  2  0  0  0  0
 22 20  1  0  0  0  0
 22  6  1  0  0  0  0
 23 22  1  0  0  0  0
 24 20  1  0  0  0  0
 25 24  1  0  0  0  0
 26 25  2  0  0  0  0
 27 25  1  0  0  0  0
 27 33  1  0  0  0  0
 28 27  1  0  0  0  0
 29 30  1  0  0  0  0
 29 28  1  0  0  0  0
 30 32  1  0  0  0  0
 31 30  1  0  0  0  0
 32 33  1  0  0  0  0
M  END
>  <minimizedAffinity>
-5.47475719

>  <minimizedRMSD>
0.570632577

$$$$
