
 OpenBabel03272500573D

 33 35  0  0  0  0  0  0  0  0999 V2000
   38.1040   31.9090   47.4260 C   0  0  0  0  0  0  0  0  0  0  0  0
   38.5430   32.8520   48.3140 C   0  0  0  0  0  0  0  0  0  0  0  0
   38.0330   32.9240   49.6080 C   0  0  0  0  0  0  0  0  0  0  0  0
   37.0180   31.9680   49.9880 C   0  0  0  0  0  0  0  0  0  0  0  0
   36.6230   31.0540   49.0570 C   0  0  0  0  0  0  0  0  0  0  0  0
   37.1160   30.9900   47.8120 C   0  0  0  0  0  0  0  0  0  0  0  0
   39.3140   33.5890   48.0520 H   0  0  0  0  0  0  0  0  0  0  0  0
   38.4200   33.6990   50.2760 H   0  0  0  0  0  0  0  0  0  0  0  0
   36.7330   32.1510   50.9940 H   0  0  0  0  0  0  0  0  0  0  0  0
   35.8970   30.4430   49.5670 H   0  0  0  0  0  0  0  0  0  0  0  0
   40.0140   31.2840   46.0230 C   0  0  0  0  0  0  0  0  0  0  0  0
   38.7460   31.9340   46.1280 C   0  0  0  0  0  0  0  0  0  0  0  0
   38.2820   32.5060   44.9710 C   0  0  0  0  0  0  0  0  0  0  0  0
   38.9960   32.4410   43.8350 N   0  0  0  0  0  0  0  0  0  0  0  0
   40.1710   31.8350   43.7480 C   0  0  0  0  0  0  0  0  0  0  0  0
   40.6740   31.2580   44.8490 N   0  0  0  0  0  0  0  0  0  0  0  0
   40.4900   30.7950   46.8640 H   0  0  0  0  0  0  0  0  0  0  0  0
   37.3240   32.9960   45.0540 H   0  0  0  0  0  0  0  0  0  0  0  0
   40.7780   31.7590   42.8530 H   0  0  0  0  0  0  0  0  0  0  0  0
   35.1670   29.9880   46.9410 C   0  0  0  0  0  0  0  0  0  0  0  0
   34.5400   30.6570   47.8220 O   0  0  0  0  0  0  0  0  0  0  0  0
   36.6500   30.0660   46.9100 N   0  0  0  0  0  0  0  0  0  0  0  0
   37.1670   29.4690   46.2650 H   0  0  0  0  0  0  0  0  0  0  0  0
   34.5460   29.1570   45.9590 O   0  0  0  0  0  0  0  0  0  0  0  0
   33.6540   29.7380   45.0780 C   0  0  0  0  0  0  0  0  0  0  0  0
   34.1820   30.5050   44.2350 O   0  0  0  0  0  0  0  0  0  0  0  0
   32.2250   29.6990   44.8750 N   0  0  0  0  0  0  0  0  0  0  0  0
   31.2660   30.3670   45.7260 C   0  0  0  0  0  2  0  0  0  0  0  0
   30.1650   29.4700   46.1910 C   0  0  0  0  0  2  0  0  0  0  0  0
   30.3280   28.0400   45.7610 C   0  0  0  0  0  3  0  0  0  0  0  0
   29.3780   27.4860   45.9090 H   0  0  0  0  0  0  0  0  0  0  0  0
   30.7300   27.8530   44.3340 C   0  0  0  0  0  2  0  0  0  0  0  0
   31.5390   29.0090   43.8240 C   0  0  0  0  0  2  0  0  0  0  0  0
  1  6  2  0  0  0  0
  1  2  1  0  0  0  0
  2  3  2  0  0  0  0
  3  4  1  0  0  0  0
  3  8  1  0  0  0  0
  4  9  1  0  0  0  0
  5 10  1  0  0  0  0
  5  4  2  0  0  0  0
  6  5  1  0  0  0  0
  7  2  1  0  0  0  0
 11 12  1  0  0  0  0
 11 17  1  0  0  0  0
 12  1  1  0  0  0  0
 13 18  1  0  0  0  0
 13 12  2  0  0  0  0
 14 13  1  0  0  0  0
 15 14  2  0  0  0  0
 15 16  1  0  0  0  0
 16 11  2  0  0  0  0
 19 15  1  0  0  0  0
 20 21  2  0  0  0  0
 22 20  1  0  0  0  0
 22  6  1  0  0  0  0
 23 22  1  0  0  0  0
 24 20  1  0  0  0  0
 25 24  1  0  0  0  0
 26 25  2  0  0  0  0
 27 25  1  0  0  0  0
 27 28  1  0  0  0  0
 28 29  1  0  0  0  0
 30 31  1  0  0  0  0
 30 29  1  0  0  0  0
 32 30  1  0  0  0  0
 33 32  1  0  0  0  0
 33 27  1  0  0  0  0
M  END
>  <minimizedAffinity>
-5.57892656

>  <minimizedRMSD>
0.610196412

$$$$
