
 OpenBabel03272500593D

 33 35  0  0  0  0  0  0  0  0999 V2000
   36.9060   21.6620   33.2860 C   0  0  0  0  0  0  0  0  0  0  0  0
   36.1950   20.6370   33.8450 C   0  0  0  0  0  0  0  0  0  0  0  0
   35.2410   19.9320   33.1140 C   0  0  0  0  0  0  0  0  0  0  0  0
   35.0220   20.3180   31.7390 C   0  0  0  0  0  0  0  0  0  0  0  0
   35.7630   21.3490   31.2410 C   0  0  0  0  0  0  0  0  0  0  0  0
   36.6790   22.0250   31.9490 C   0  0  0  0  0  0  0  0  0  0  0  0
   36.3410   20.3220   34.8860 H   0  0  0  0  0  0  0  0  0  0  0  0
   34.7010   19.1220   33.6130 H   0  0  0  0  0  0  0  0  0  0  0  0
   34.2720   19.6940   31.3220 H   0  0  0  0  0  0  0  0  0  0  0  0
   35.4540   21.4340   30.2130 H   0  0  0  0  0  0  0  0  0  0  0  0
   37.6420   22.2020   35.5600 C   0  0  0  0  0  0  0  0  0  0  0  0
   37.8850   22.2830   34.1550 C   0  0  0  0  0  0  0  0  0  0  0  0
   39.0320   22.9440   33.7940 C   0  0  0  0  0  0  0  0  0  0  0  0
   39.8480   23.4660   34.7240 N   0  0  0  0  0  0  0  0  0  0  0  0
   39.6140   23.3850   36.0260 C   0  0  0  0  0  0  0  0  0  0  0  0
   38.5070   22.7510   36.4360 N   0  0  0  0  0  0  0  0  0  0  0  0
   36.7720   21.7080   35.9740 H   0  0  0  0  0  0  0  0  0  0  0  0
   39.2110   23.0020   32.7320 H   0  0  0  0  0  0  0  0  0  0  0  0
   40.2450   23.7910   36.8070 H   0  0  0  0  0  0  0  0  0  0  0  0
   36.5220   24.2970   31.3370 C   0  0  0  0  0  0  0  0  0  0  0  0
   35.2990   24.2080   31.6730 O   0  0  0  0  0  0  0  0  0  0  0  0
   37.3680   23.0770   31.3990 N   0  0  0  0  0  0  0  0  0  0  0  0
   38.3250   23.1170   31.0520 H   0  0  0  0  0  0  0  0  0  0  0  0
   37.1590   25.5000   30.9030 O   0  0  0  0  0  0  0  0  0  0  0  0
   38.2060   25.9950   31.6570 C   0  0  0  0  0  0  0  0  0  0  0  0
   39.3350   25.5490   31.3350 O   0  0  0  0  0  0  0  0  0  0  0  0
   38.3430   26.9160   32.7600 N   0  0  0  0  0  0  0  0  0  0  0  0
   39.5260   27.0260   33.5830 C   0  0  0  0  0  2  0  0  0  0  0  0
   39.2350   26.9570   35.0480 C   0  0  0  0  0  2  0  0  0  0  0  0
   37.7900   26.6940   35.3660 C   0  0  0  0  0  3  0  0  0  0  0  0
   37.5890   26.9050   36.4360 H   0  0  0  0  0  0  0  0  0  0  0  0
   36.8130   27.4950   34.5670 C   0  0  0  0  0  2  0  0  0  0  0  0
   37.3520   27.8480   33.2120 C   0  0  0  0  0  2  0  0  0  0  0  0
  1  2  1  0  0  0  0
  1 12  1  0  0  0  0
  2  7  1  0  0  0  0
  3  8  1  0  0  0  0
  3  2  2  0  0  0  0
  4  3  1  0  0  0  0
  5  4  2  0  0  0  0
  5  6  1  0  0  0  0
  6  1  2  0  0  0  0
  9  4  1  0  0  0  0
 10  5  1  0  0  0  0
 11 17  1  0  0  0  0
 11 16  1  0  0  0  0
 12 11  2  0  0  0  0
 13 12  1  0  0  0  0
 13 14  2  0  0  0  0
 14 15  1  0  0  0  0
 15 16  2  0  0  0  0
 15 19  1  0  0  0  0
 18 13  1  0  0  0  0
 20 22  1  0  0  0  0
 20 21  2  0  0  0  0
 22  6  1  0  0  0  0
 23 22  1  0  0  0  0
 24 20  1  0  0  0  0
 24 25  1  0  0  0  0
 25 27  1  0  0  0  0
 26 25  2  0  0  0  0
 27 33  1  0  0  0  0
 27 28  1  0  0  0  0
 28 29  1  0  0  0  0
 29 30  1  0  0  0  0
 30 31  1  0  0  0  0
 32 30  1  0  0  0  0
 33 32  1  0  0  0  0
M  END
>  <minimizedAffinity>
-5.63115978

$$$$

 OpenBabel03272500593D

 33 35  0  0  0  0  0  0  0  0999 V2000
   39.9000   25.1360   34.7600 C   0  0  0  0  0  0  0  0  0  0  0  0
   41.2250   24.8980   34.9980 C   0  0  0  0  0  0  0  0  0  0  0  0
   42.2090   25.7980   34.5950 C   0  0  0  0  0  0  0  0  0  0  0  0
   41.7860   27.0000   33.9130 C   0  0  0  0  0  0  0  0  0  0  0  0
   40.4500   27.1780   33.7060 C   0  0  0  0  0  0  0  0  0  0  0  0
   39.5080   26.3070   34.0940 C   0  0  0  0  0  0  0  0  0  0  0  0
   41.5750   23.9940   35.5150 H   0  0  0  0  0  0  0  0  0  0  0  0
   43.2530   25.5560   34.8110 H   0  0  0  0  0  0  0  0  0  0  0  0
   42.6420   27.5780   33.6720 H   0  0  0  0  0  0  0  0  0  0  0  0
   40.3760   28.1360   33.2170 H   0  0  0  0  0  0  0  0  0  0  0  0
   38.7250   23.0150   34.4070 C   0  0  0  0  0  0  0  0  0  0  0  0
   38.9890   24.1280   35.2630 C   0  0  0  0  0  0  0  0  0  0  0  0
   38.3440   24.1040   36.4730 C   0  0  0  0  0  0  0  0  0  0  0  0
   37.5280   23.0890   36.7990 N   0  0  0  0  0  0  0  0  0  0  0  0
   37.2890   22.0610   35.9980 C   0  0  0  0  0  0  0  0  0  0  0  0
   37.8930   22.0310   34.8020 N   0  0  0  0  0  0  0  0  0  0  0  0
   39.1710   22.9150   33.4250 H   0  0  0  0  0  0  0  0  0  0  0  0
   38.5470   24.9460   37.1170 H   0  0  0  0  0  0  0  0  0  0  0  0
   36.6390   21.2230   36.2220 H   0  0  0  0  0  0  0  0  0  0  0  0
   37.5650   27.4130   34.8480 C   0  0  0  0  0  0  0  0  0  0  0  0
   38.2610   27.7520   35.8570 O   0  0  0  0  0  0  0  0  0  0  0  0
   38.1800   26.5290   33.8240 N   0  0  0  0  0  0  0  0  0  0  0  0
   37.6060   26.1820   33.0570 H   0  0  0  0  0  0  0  0  0  0  0  0
   36.2180   27.8280   34.6150 O   0  0  0  0  0  0  0  0  0  0  0  0
   36.0050   28.9760   33.8760 C   0  0  0  0  0  0  0  0  0  0  0  0
   36.4030   28.9100   32.6870 O   0  0  0  0  0  0  0  0  0  0  0  0
   35.4320   30.2770   34.1270 N   0  0  0  0  0  0  0  0  0  0  0  0
   35.6140   31.4230   33.2650 C   0  0  0  0  0  2  0  0  0  0  0  0
   36.0690   32.6450   33.9970 C   0  0  0  0  0  2  0  0  0  0  0  0
   36.3340   32.4120   35.4580 C   0  0  0  0  0  3  0  0  0  0  0  0
   36.4160   33.3810   35.9910 H   0  0  0  0  0  0  0  0  0  0  0  0
   35.2950   31.6040   36.1660 C   0  0  0  0  0  2  0  0  0  0  0  0
   34.6100   30.6380   35.2440 C   0  0  0  0  0  2  0  0  0  0  0  0
  1  2  1  0  0  0  0
  1 12  1  0  0  0  0
  2  7  1  0  0  0  0
  3  8  1  0  0  0  0
  3  2  2  0  0  0  0
  4  3  1  0  0  0  0
  5  4  2  0  0  0  0
  5  6  1  0  0  0  0
  6  1  2  0  0  0  0
  9  4  1  0  0  0  0
 10  5  1  0  0  0  0
 11 16  2  0  0  0  0
 11 12  1  0  0  0  0
 12 13  2  0  0  0  0
 13 14  1  0  0  0  0
 13 18  1  0  0  0  0
 15 19  1  0  0  0  0
 15 14  2  0  0  0  0
 16 15  1  0  0  0  0
 17 11  1  0  0  0  0
 20 21  2  0  0  0  0
 22  6  1  0  0  0  0
 22 20  1  0  0  0  0
 23 22  1  0  0  0  0
 24 20  1  0  0  0  0
 25 27  1  0  0  0  0
 25 24  1  0  0  0  0
 26 25  2  0  0  0  0
 27 33  1  0  0  0  0
 28 29  1  0  0  0  0
 28 27  1  0  0  0  0
 29 30  1  0  0  0  0
 30 31  1  0  0  0  0
 30 32  1  0  0  0  0
 33 32  1  0  0  0  0
M  END
>  <minimizedAffinity>
-5.54630518

$$$$

 OpenBabel03272500593D

 33 35  0  0  0  0  0  0  0  0999 V2000
   39.9290   25.6540   34.3940 C   0  0  0  0  0  0  0  0  0  0  0  0
   40.8300   26.6220   34.7390 C   0  0  0  0  0  0  0  0  0  0  0  0
   41.4230   27.4370   33.7770 C   0  0  0  0  0  0  0  0  0  0  0  0
   41.0570   27.2280   32.3950 C   0  0  0  0  0  0  0  0  0  0  0  0
   40.1530   26.2450   32.1170 C   0  0  0  0  0  0  0  0  0  0  0  0
   39.5870   25.4630   33.0470 C   0  0  0  0  0  0  0  0  0  0  0  0
   41.1250   26.8040   35.7800 H   0  0  0  0  0  0  0  0  0  0  0  0
   42.1380   28.1950   34.1100 H   0  0  0  0  0  0  0  0  0  0  0  0
   41.5880   27.9190   31.7900 H   0  0  0  0  0  0  0  0  0  0  0  0
   40.0170   26.2940   31.0500 H   0  0  0  0  0  0  0  0  0  0  0  0
   40.0640   23.7160   35.8900 C   0  0  0  0  0  0  0  0  0  0  0  0
   39.3710   24.9040   35.5010 C   0  0  0  0  0  0  0  0  0  0  0  0
   38.2500   25.1960   36.2360 C   0  0  0  0  0  0  0  0  0  0  0  0
   37.8600   24.4000   37.2440 N   0  0  0  0  0  0  0  0  0  0  0  0
   38.5100   23.3010   37.5970 C   0  0  0  0  0  0  0  0  0  0  0  0
   39.6130   22.9660   36.9130 N   0  0  0  0  0  0  0  0  0  0  0  0
   40.9620   23.3750   35.3890 H   0  0  0  0  0  0  0  0  0  0  0  0
   37.7300   26.0940   35.9400 H   0  0  0  0  0  0  0  0  0  0  0  0
   38.2300   22.6320   38.4030 H   0  0  0  0  0  0  0  0  0  0  0  0
   37.3220   24.9890   32.5860 C   0  0  0  0  0  0  0  0  0  0  0  0
   37.0980   26.1960   32.9150 O   0  0  0  0  0  0  0  0  0  0  0  0
   38.7090   24.4660   32.6980 N   0  0  0  0  0  0  0  0  0  0  0  0
   38.8840   23.4780   32.5190 H   0  0  0  0  0  0  0  0  0  0  0  0
   36.3300   24.0810   32.1030 O   0  0  0  0  0  0  0  0  0  0  0  0
   36.7500   22.9080   31.5080 C   0  0  0  0  0  0  0  0  0  0  0  0
   37.2190   23.0510   30.3510 O   0  0  0  0  0  0  0  0  0  0  0  0
   36.7830   21.5130   31.8780 N   0  0  0  0  0  0  0  0  0  0  0  0
   36.9850   20.4300   30.9420 C   0  0  0  0  0  2  0  0  0  0  0  0
   35.9560   19.3510   31.0570 C   0  0  0  0  0  2  0  0  0  0  0  0
   34.8710   19.6540   32.0520 C   0  0  0  0  0  3  0  0  0  0  0  0
   34.2940   18.7340   32.2800 H   0  0  0  0  0  0  0  0  0  0  0  0
   35.3480   20.2100   33.3550 C   0  0  0  0  0  2  0  0  0  0  0  0
   36.6240   20.9850   33.2000 C   0  0  0  0  0  2  0  0  0  0  0  0
  1  2  1  0  0  0  0
  1 12  1  0  0  0  0
  2  7  1  0  0  0  0
  3  8  1  0  0  0  0
  3  2  2  0  0  0  0
  4  3  1  0  0  0  0
  5  4  2  0  0  0  0
  5  6  1  0  0  0  0
  6  1  2  0  0  0  0
  9  4  1  0  0  0  0
 10  5  1  0  0  0  0
 11 16  1  0  0  0  0
 12 11  2  0  0  0  0
 12 13  1  0  0  0  0
 13 14  2  0  0  0  0
 14 15  1  0  0  0  0
 15 19  1  0  0  0  0
 16 15  2  0  0  0  0
 17 11  1  0  0  0  0
 18 13  1  0  0  0  0
 20 22  1  0  0  0  0
 20 21  2  0  0  0  0
 22  6  1  0  0  0  0
 23 22  1  0  0  0  0
 24 20  1  0  0  0  0
 25 27  1  0  0  0  0
 25 24  1  0  0  0  0
 26 25  2  0  0  0  0
 27 33  1  0  0  0  0
 28 29  1  0  0  0  0
 28 27  1  0  0  0  0
 29 30  1  0  0  0  0
 30 31  1  0  0  0  0
 30 32  1  0  0  0  0
 33 32  1  0  0  0  0
M  END
>  <minimizedAffinity>
-5.48577118

$$$$

 OpenBabel03272500593D

 33 35  0  0  0  0  0  0  0  0999 V2000
   38.6810   24.7610   36.3370 C   0  0  0  0  0  0  0  0  0  0  0  0
   38.0010   25.3080   37.3880 C   0  0  0  0  0  0  0  0  0  0  0  0
   37.9650   24.6850   38.6330 C   0  0  0  0  0  0  0  0  0  0  0  0
   38.6720   23.4340   38.7830 C   0  0  0  0  0  0  0  0  0  0  0  0
   39.3310   22.9400   37.6950 C   0  0  0  0  0  0  0  0  0  0  0  0
   39.3600   23.5440   36.4990 C   0  0  0  0  0  0  0  0  0  0  0  0
   37.4560   26.2580   37.3040 H   0  0  0  0  0  0  0  0  0  0  0  0
   37.4050   25.1680   39.4390 H   0  0  0  0  0  0  0  0  0  0  0  0
   38.5510   23.0870   39.7790 H   0  0  0  0  0  0  0  0  0  0  0  0
   39.7970   22.0350   38.0480 H   0  0  0  0  0  0  0  0  0  0  0  0
   39.7320   26.4530   34.9080 C   0  0  0  0  0  0  0  0  0  0  0  0
   38.6560   25.5350   35.1120 C   0  0  0  0  0  0  0  0  0  0  0  0
   37.7210   25.4940   34.1100 C   0  0  0  0  0  0  0  0  0  0  0  0
   37.8390   26.2770   33.0250 N   0  0  0  0  0  0  0  0  0  0  0  0
   38.8420   27.1240   32.8440 C   0  0  0  0  0  0  0  0  0  0  0  0
   39.7850   27.2060   33.7920 N   0  0  0  0  0  0  0  0  0  0  0  0
   40.5340   26.5800   35.6250 H   0  0  0  0  0  0  0  0  0  0  0  0
   36.9100   24.8000   34.2670 H   0  0  0  0  0  0  0  0  0  0  0  0
   38.9750   27.7720   31.9850 H   0  0  0  0  0  0  0  0  0  0  0  0
   39.1160   22.0620   34.6800 C   0  0  0  0  0  0  0  0  0  0  0  0
   37.9540   21.8330   35.1410 O   0  0  0  0  0  0  0  0  0  0  0  0
   40.0130   22.9760   35.4330 N   0  0  0  0  0  0  0  0  0  0  0  0
   40.9750   23.1000   35.1190 H   0  0  0  0  0  0  0  0  0  0  0  0
   39.6340   21.5050   33.4710 O   0  0  0  0  0  0  0  0  0  0  0  0
   38.8620   21.5870   32.3280 C   0  0  0  0  0  0  0  0  0  0  0  0
   39.2620   22.4330   31.4900 O   0  0  0  0  0  0  0  0  0  0  0  0
   37.6700   20.9380   31.8350 N   0  0  0  0  0  0  0  0  0  0  0  0
   36.8740   21.4320   30.7340 C   0  0  0  0  0  2  0  0  0  0  0  0
   35.4180   21.5290   31.0560 C   0  0  0  0  0  2  0  0  0  0  0  0
   35.0890   21.1870   32.4820 C   0  0  0  0  0  3  0  0  0  0  0  0
   33.9970   21.0280   32.5950 H   0  0  0  0  0  0  0  0  0  0  0  0
   35.7700   19.9650   33.0090 C   0  0  0  0  0  2  0  0  0  0  0  0
   37.0940   19.7290   32.3430 C   0  0  0  0  0  2  0  0  0  0  0  0
  1  6  2  0  0  0  0
  1  2  1  0  0  0  0
  2  3  2  0  0  0  0
  3  4  1  0  0  0  0
  3  8  1  0  0  0  0
  4  9  1  0  0  0  0
  5 10  1  0  0  0  0
  5  4  2  0  0  0  0
  6  5  1  0  0  0  0
  7  2  1  0  0  0  0
 11 12  1  0  0  0  0
 11 17  1  0  0  0  0
 12  1  1  0  0  0  0
 13 18  1  0  0  0  0
 13 12  2  0  0  0  0
 14 13  1  0  0  0  0
 15 14  2  0  0  0  0
 15 16  1  0  0  0  0
 16 11  2  0  0  0  0
 19 15  1  0  0  0  0
 20 21  2  0  0  0  0
 20 22  1  0  0  0  0
 22  6  1  0  0  0  0
 23 22  1  0  0  0  0
 24 20  1  0  0  0  0
 25 24  1  0  0  0  0
 26 25  2  0  0  0  0
 27 25  1  0  0  0  0
 27 33  1  0  0  0  0
 28 29  1  0  0  0  0
 28 27  1  0  0  0  0
 29 30  1  0  0  0  0
 30 31  1  0  0  0  0
 30 32  1  0  0  0  0
 33 32  1  0  0  0  0
M  END
>  <minimizedAffinity>
-5.39323473

$$$$

 OpenBabel03272500593D

 33 35  0  0  0  0  0  0  0  0999 V2000
   36.2630   22.2810   32.0480 C   0  0  0  0  0  0  0  0  0  0  0  0
   35.5210   21.5240   31.1850 C   0  0  0  0  0  0  0  0  0  0  0  0
   35.0760   20.2510   31.5330 C   0  0  0  0  0  0  0  0  0  0  0  0
   35.4240   19.7490   32.8430 C   0  0  0  0  0  0  0  0  0  0  0  0
   36.1660   20.5520   33.6570 C   0  0  0  0  0  0  0  0  0  0  0  0
   36.5930   21.7760   33.3150 C   0  0  0  0  0  0  0  0  0  0  0  0
   35.2420   21.8810   30.1850 H   0  0  0  0  0  0  0  0  0  0  0  0
   34.4860   19.6900   30.8030 H   0  0  0  0  0  0  0  0  0  0  0  0
   35.0160   18.7760   32.9580 H   0  0  0  0  0  0  0  0  0  0  0  0
   36.2730   19.9900   34.5700 H   0  0  0  0  0  0  0  0  0  0  0  0
   35.6060   24.5910   31.5620 C   0  0  0  0  0  0  0  0  0  0  0  0
   36.6300   23.5950   31.5620 C   0  0  0  0  0  0  0  0  0  0  0  0
   37.8530   24.0110   31.1010 C   0  0  0  0  0  0  0  0  0  0  0  0
   38.0400   25.2740   30.6860 N   0  0  0  0  0  0  0  0  0  0  0  0
   37.0830   26.1910   30.6900 C   0  0  0  0  0  0  0  0  0  0  0  0
   35.8670   25.8400   31.1300 N   0  0  0  0  0  0  0  0  0  0  0  0
   34.5970   24.3900   31.9010 H   0  0  0  0  0  0  0  0  0  0  0  0
   38.6240   23.2560   31.1030 H   0  0  0  0  0  0  0  0  0  0  0  0
   37.1920   27.2190   30.3640 H   0  0  0  0  0  0  0  0  0  0  0  0
   38.8060   22.1720   34.0300 C   0  0  0  0  0  0  0  0  0  0  0  0
   39.1280   21.2050   33.2700 O   0  0  0  0  0  0  0  0  0  0  0  0
   37.3690   22.5220   34.1690 N   0  0  0  0  0  0  0  0  0  0  0  0
   37.0930   23.2380   34.8400 H   0  0  0  0  0  0  0  0  0  0  0  0
   39.7350   22.9660   34.7700 O   0  0  0  0  0  0  0  0  0  0  0  0
   39.2440   24.0050   35.5380 C   0  0  0  0  0  0  0  0  0  0  0  0
   38.5710   23.6410   36.5350 O   0  0  0  0  0  0  0  0  0  0  0  0
   39.2960   25.4460   35.4850 N   0  0  0  0  0  0  0  0  0  0  0  0
   38.4250   26.3180   36.2410 C   0  0  0  0  0  2  0  0  0  0  0  0
   37.7610   27.3610   35.4010 C   0  0  0  0  0  2  0  0  0  0  0  0
   38.0570   27.2350   33.9340 C   0  0  0  0  0  3  0  0  0  0  0  0
   37.7570   28.1610   33.4020 H   0  0  0  0  0  0  0  0  0  0  0  0
   39.4910   26.9770   33.6000 C   0  0  0  0  0  2  0  0  0  0  0  0
   40.1960   26.2310   34.6940 C   0  0  0  0  0  2  0  0  0  0  0  0
  1  6  1  0  0  0  0
  2  3  1  0  0  0  0
  2  1  2  0  0  0  0
  3  4  2  0  0  0  0
  4  9  1  0  0  0  0
  4  5  1  0  0  0  0
  5 10  1  0  0  0  0
  6  5  2  0  0  0  0
  6 22  1  0  0  0  0
  7  2  1  0  0  0  0
  8  3  1  0  0  0  0
 11 12  1  0  0  0  0
 11 17  1  0  0  0  0
 12  1  1  0  0  0  0
 13 18  1  0  0  0  0
 13 12  2  0  0  0  0
 14 15  2  0  0  0  0
 14 13  1  0  0  0  0
 15 16  1  0  0  0  0
 16 11  2  0  0  0  0
 19 15  1  0  0  0  0
 20 22  1  0  0  0  0
 20 24  1  0  0  0  0
 21 20  2  0  0  0  0
 22 23  1  0  0  0  0
 24 25  1  0  0  0  0
 25 26  2  0  0  0  0
 27 25  1  0  0  0  0
 27 28  1  0  0  0  0
 29 28  1  0  0  0  0
 30 29  1  0  0  0  0
 31 30  1  0  0  0  0
 32 30  1  0  0  0  0
 32 33  1  0  0  0  0
 33 27  1  0  0  0  0
M  END
>  <minimizedAffinity>
-5.38729668

$$$$

 OpenBabel03272500593D

 33 35  0  0  0  0  0  0  0  0999 V2000
   38.9620   23.5310   35.9190 C   0  0  0  0  0  0  0  0  0  0  0  0
   39.3160   22.8540   37.0530 C   0  0  0  0  0  0  0  0  0  0  0  0
   38.9040   23.2810   38.3130 C   0  0  0  0  0  0  0  0  0  0  0  0
   38.0880   24.4710   38.3890 C   0  0  0  0  0  0  0  0  0  0  0  0
   37.7700   25.1020   37.2220 C   0  0  0  0  0  0  0  0  0  0  0  0
   38.1700   24.6860   36.0120 C   0  0  0  0  0  0  0  0  0  0  0  0
   39.9340   21.9470   37.0240 H   0  0  0  0  0  0  0  0  0  0  0  0
   39.2170   22.7010   39.1860 H   0  0  0  0  0  0  0  0  0  0  0  0
   37.8580   24.6670   39.4060 H   0  0  0  0  0  0  0  0  0  0  0  0
   37.1450   25.9270   37.5200 H   0  0  0  0  0  0  0  0  0  0  0  0
   38.6330   21.9250   34.0970 C   0  0  0  0  0  0  0  0  0  0  0  0
   39.4360   22.9530   34.6780 C   0  0  0  0  0  0  0  0  0  0  0  0
   40.5720   23.2760   33.9800 C   0  0  0  0  0  0  0  0  0  0  0  0
   40.8760   22.6490   32.8320 N   0  0  0  0  0  0  0  0  0  0  0  0
   40.1230   21.6960   32.3010 C   0  0  0  0  0  0  0  0  0  0  0  0
   39.0020   21.3400   32.9420 N   0  0  0  0  0  0  0  0  0  0  0  0
   37.7120   21.5780   34.5510 H   0  0  0  0  0  0  0  0  0  0  0  0
   41.1760   24.0530   34.4210 H   0  0  0  0  0  0  0  0  0  0  0  0
   40.3320   21.1660   31.3790 H   0  0  0  0  0  0  0  0  0  0  0  0
   38.7890   26.5120   34.6530 C   0  0  0  0  0  0  0  0  0  0  0  0
   39.6670   26.7560   35.5390 O   0  0  0  0  0  0  0  0  0  0  0  0
   37.8450   25.3860   34.8770 N   0  0  0  0  0  0  0  0  0  0  0  0
   37.0840   25.2350   34.2150 H   0  0  0  0  0  0  0  0  0  0  0  0
   38.6400   27.2430   33.4340 O   0  0  0  0  0  0  0  0  0  0  0  0
   37.4640   27.0990   32.7240 C   0  0  0  0  0  0  0  0  0  0  0  0
   36.5250   27.8330   33.1190 O   0  0  0  0  0  0  0  0  0  0  0  0
   37.0170   26.2910   31.6140 N   0  0  0  0  0  0  0  0  0  0  0  0
   35.6300   26.1000   31.2570 C   0  0  0  0  0  2  0  0  0  0  0  0
   35.2560   24.6620   31.0910 C   0  0  0  0  0  2  0  0  0  0  0  0
   36.3670   23.7060   31.4200 C   0  0  0  0  0  3  0  0  0  0  0  0
   36.1240   22.6920   31.0420 H   0  0  0  0  0  0  0  0  0  0  0  0
   37.7040   24.0770   30.8620 C   0  0  0  0  0  2  0  0  0  0  0  0
   37.8550   25.5620   30.7080 C   0  0  0  0  0  2  0  0  0  0  0  0
  1  6  2  0  0  0  0
  1  2  1  0  0  0  0
  2  3  2  0  0  0  0
  3  4  1  0  0  0  0
  3  8  1  0  0  0  0
  4  9  1  0  0  0  0
  5 10  1  0  0  0  0
  5  4  2  0  0  0  0
  6  5  1  0  0  0  0
  7  2  1  0  0  0  0
 11 17  1  0  0  0  0
 11 12  1  0  0  0  0
 12  1  1  0  0  0  0
 13 18  1  0  0  0  0
 13 12  2  0  0  0  0
 14 13  1  0  0  0  0
 15 14  2  0  0  0  0
 15 16  1  0  0  0  0
 16 11  2  0  0  0  0
 19 15  1  0  0  0  0
 20 22  1  0  0  0  0
 20 21  2  0  0  0  0
 22  6  1  0  0  0  0
 23 22  1  0  0  0  0
 24 20  1  0  0  0  0
 25 26  2  0  0  0  0
 25 24  1  0  0  0  0
 27 25  1  0  0  0  0
 28 27  1  0  0  0  0
 29 28  1  0  0  0  0
 29 30  1  0  0  0  0
 31 30  1  0  0  0  0
 32 30  1  0  0  0  0
 33 32  1  0  0  0  0
 33 27  1  0  0  0  0
M  END
>  <minimizedAffinity>
-5.37279463

$$$$

 OpenBabel03272500593D

 33 35  0  0  0  0  0  0  0  0999 V2000
   37.5820   26.8400   33.7810 C   0  0  0  0  0  0  0  0  0  0  0  0
   38.0750   27.5090   34.8660 C   0  0  0  0  0  0  0  0  0  0  0  0
   38.5250   26.8300   35.9960 C   0  0  0  0  0  0  0  0  0  0  0  0
   38.4560   25.3860   35.9880 C   0  0  0  0  0  0  0  0  0  0  0  0
   37.9530   24.7790   34.8750 C   0  0  0  0  0  0  0  0  0  0  0  0
   37.5200   25.4380   33.7920 C   0  0  0  0  0  0  0  0  0  0  0  0
   38.1410   28.6050   34.8990 H   0  0  0  0  0  0  0  0  0  0  0  0
   38.9090   27.4160   36.8350 H   0  0  0  0  0  0  0  0  0  0  0  0
   38.8310   25.0180   36.9100 H   0  0  0  0  0  0  0  0  0  0  0  0
   38.0260   23.7240   35.0850 H   0  0  0  0  0  0  0  0  0  0  0  0
   38.1460   27.8840   31.6360 C   0  0  0  0  0  0  0  0  0  0  0  0
   37.1800   27.6750   32.6680 C   0  0  0  0  0  0  0  0  0  0  0  0
   35.9710   28.2950   32.4750 C   0  0  0  0  0  0  0  0  0  0  0  0
   35.7460   29.0400   31.3800 N   0  0  0  0  0  0  0  0  0  0  0  0
   36.6490   29.2270   30.4290 C   0  0  0  0  0  0  0  0  0  0  0  0
   37.8480   28.6450   30.5650 N   0  0  0  0  0  0  0  0  0  0  0  0
   39.1370   27.4500   31.6700 H   0  0  0  0  0  0  0  0  0  0  0  0
   35.2440   28.1350   33.2560 H   0  0  0  0  0  0  0  0  0  0  0  0
   36.5070   29.8180   29.5310 H   0  0  0  0  0  0  0  0  0  0  0  0
   38.0640   24.1950   31.8630 C   0  0  0  0  0  0  0  0  0  0  0  0
   39.2750   24.4660   32.1410 O   0  0  0  0  0  0  0  0  0  0  0  0
   36.9920   24.7680   32.7160 N   0  0  0  0  0  0  0  0  0  0  0  0
   36.0170   24.6270   32.4520 H   0  0  0  0  0  0  0  0  0  0  0  0
   37.6480   23.3620   30.7790 O   0  0  0  0  0  0  0  0  0  0  0  0
   37.7980   21.9950   30.9080 C   0  0  0  0  0  0  0  0  0  0  0  0
   38.5750   21.4760   30.0680 O   0  0  0  0  0  0  0  0  0  0  0  0
   37.2690   20.9730   31.7800 N   0  0  0  0  0  0  0  0  0  0  0  0
   37.3400   19.5560   31.5050 C   0  0  0  0  0  2  0  0  0  0  0  0
   36.0210   18.8630   31.6290 C   0  0  0  0  0  2  0  0  0  0  0  0
   34.8760   19.7920   31.9200 C   0  0  0  0  0  3  0  0  0  0  0  0
   33.9880   19.2130   32.2500 H   0  0  0  0  0  0  0  0  0  0  0  0
   35.1490   20.8190   32.9710 C   0  0  0  0  0  2  0  0  0  0  0  0
   36.6020   21.1900   33.0290 C   0  0  0  0  0  2  0  0  0  0  0  0
  1  6  2  0  0  0  0
  1  2  1  0  0  0  0
  2  7  1  0  0  0  0
  2  3  2  0  0  0  0
  3  8  1  0  0  0  0
  4  3  1  0  0  0  0
  4  9  1  0  0  0  0
  5 10  1  0  0  0  0
  5  4  2  0  0  0  0
  6  5  1  0  0  0  0
 11 17  1  0  0  0  0
 11 12  1  0  0  0  0
 12  1  1  0  0  0  0
 13 12  2  0  0  0  0
 13 18  1  0  0  0  0
 14 13  1  0  0  0  0
 15 16  1  0  0  0  0
 15 14  2  0  0  0  0
 16 11  2  0  0  0  0
 19 15  1  0  0  0  0
 20 21  2  0  0  0  0
 20 22  1  0  0  0  0
 22  6  1  0  0  0  0
 23 22  1  0  0  0  0
 24 25  1  0  0  0  0
 24 20  1  0  0  0  0
 25 27  1  0  0  0  0
 26 25  2  0  0  0  0
 27 33  1  0  0  0  0
 28 29  1  0  0  0  0
 28 27  1  0  0  0  0
 29 30  1  0  0  0  0
 30 31  1  0  0  0  0
 30 32  1  0  0  0  0
 32 33  1  0  0  0  0
M  END
>  <minimizedAffinity>
-5.30101776

$$$$

 OpenBabel03272500593D

 33 35  0  0  0  0  0  0  0  0999 V2000
   38.9830   26.4120   32.0060 C   0  0  0  0  0  0  0  0  0  0  0  0
   39.6050   27.2330   31.1080 C   0  0  0  0  0  0  0  0  0  0  0  0
   40.8750   27.7500   31.3550 C   0  0  0  0  0  0  0  0  0  0  0  0
   41.5200   27.3910   32.5970 C   0  0  0  0  0  0  0  0  0  0  0  0
   40.8460   26.5690   33.4510 C   0  0  0  0  0  0  0  0  0  0  0  0
   39.6240   26.0760   33.2090 C   0  0  0  0  0  0  0  0  0  0  0  0
   39.1390   27.5210   30.1560 H   0  0  0  0  0  0  0  0  0  0  0  0
   41.3250   28.4030   30.6010 H   0  0  0  0  0  0  0  0  0  0  0  0
   42.4720   27.8590   32.6380 H   0  0  0  0  0  0  0  0  0  0  0  0
   41.5220   26.4210   34.2770 H   0  0  0  0  0  0  0  0  0  0  0  0
   36.5890   26.8450   31.7050 C   0  0  0  0  0  0  0  0  0  0  0  0
   37.6790   25.9270   31.6020 C   0  0  0  0  0  0  0  0  0  0  0  0
   37.3550   24.6830   31.1230 C   0  0  0  0  0  0  0  0  0  0  0  0
   36.0910   24.3830   30.7840 N   0  0  0  0  0  0  0  0  0  0  0  0
   35.0870   25.2420   30.8820 C   0  0  0  0  0  0  0  0  0  0  0  0
   35.3450   26.4730   31.3450 N   0  0  0  0  0  0  0  0  0  0  0  0
   36.7120   27.8570   32.0700 H   0  0  0  0  0  0  0  0  0  0  0  0
   38.1810   23.9920   31.0470 H   0  0  0  0  0  0  0  0  0  0  0  0
   34.0550   25.0400   30.6190 H   0  0  0  0  0  0  0  0  0  0  0  0
   38.2980   26.0990   35.1600 C   0  0  0  0  0  0  0  0  0  0  0  0
   38.4640   27.3590   35.1470 O   0  0  0  0  0  0  0  0  0  0  0  0
   38.9830   25.2800   34.1260 N   0  0  0  0  0  0  0  0  0  0  0  0
   38.9270   24.2640   34.1790 H   0  0  0  0  0  0  0  0  0  0  0  0
   37.4860   25.3960   36.1030 O   0  0  0  0  0  0  0  0  0  0  0  0
   38.1090   24.5580   37.0070 C   0  0  0  0  0  0  0  0  0  0  0  0
   38.1210   24.9850   38.1880 O   0  0  0  0  0  0  0  0  0  0  0  0
   38.7800   23.2810   36.9430 N   0  0  0  0  0  0  0  0  0  0  0  0
   39.6310   22.7590   37.9890 C   0  0  0  0  0  2  0  0  0  0  0  0
   40.9640   22.2990   37.4900 C   0  0  0  0  0  2  0  0  0  0  0  0
   41.1840   22.5580   36.0270 C   0  0  0  0  0  3  0  0  0  0  0  0
   42.0590   21.9800   35.6630 H   0  0  0  0  0  0  0  0  0  0  0  0
   40.0280   22.2120   35.1440 C   0  0  0  0  0  2  0  0  0  0  0  0
   38.7160   22.3460   35.8600 C   0  0  0  0  0  2  0  0  0  0  0  0
  1  6  1  0  0  0  0
  2  3  1  0  0  0  0
  2  1  2  0  0  0  0
  3  4  2  0  0  0  0
  4  9  1  0  0  0  0
  4  5  1  0  0  0  0
  5 10  1  0  0  0  0
  6  5  2  0  0  0  0
  6 22  1  0  0  0  0
  7  2  1  0  0  0  0
  8  3  1  0  0  0  0
 11 17  1  0  0  0  0
 12 11  1  0  0  0  0
 12  1  1  0  0  0  0
 13 12  2  0  0  0  0
 14 15  2  0  0  0  0
 14 13  1  0  0  0  0
 15 16  1  0  0  0  0
 16 11  2  0  0  0  0
 18 13  1  0  0  0  0
 19 15  1  0  0  0  0
 20 24  1  0  0  0  0
 21 20  2  0  0  0  0
 22 23  1  0  0  0  0
 22 20  1  0  0  0  0
 24 25  1  0  0  0  0
 25 26  2  0  0  0  0
 27 25  1  0  0  0  0
 27 28  1  0  0  0  0
 29 28  1  0  0  0  0
 30 29  1  0  0  0  0
 31 30  1  0  0  0  0
 32 33  1  0  0  0  0
 32 30  1  0  0  0  0
 33 27  1  0  0  0  0
M  END
>  <minimizedAffinity>
-5.29878139

$$$$

 OpenBabel03272500593D

 33 35  0  0  0  0  0  0  0  0999 V2000
   36.6730   26.7890   31.9480 C   0  0  0  0  0  0  0  0  0  0  0  0
   36.4580   27.5150   30.8100 C   0  0  0  0  0  0  0  0  0  0  0  0
   36.2180   28.8860   30.8570 C   0  0  0  0  0  0  0  0  0  0  0  0
   36.2020   29.5240   32.1540 C   0  0  0  0  0  0  0  0  0  0  0  0
   36.4230   28.7450   33.2510 C   0  0  0  0  0  0  0  0  0  0  0  0
   36.6520   27.4250   33.1990 C   0  0  0  0  0  0  0  0  0  0  0  0
   36.4650   27.0560   29.8120 H   0  0  0  0  0  0  0  0  0  0  0  0
   36.0510   29.4160   29.9150 H   0  0  0  0  0  0  0  0  0  0  0  0
   36.0080   30.5600   32.0250 H   0  0  0  0  0  0  0  0  0  0  0  0
   36.3940   29.4300   34.0810 H   0  0  0  0  0  0  0  0  0  0  0  0
   35.8110   24.5400   31.4950 C   0  0  0  0  0  0  0  0  0  0  0  0
   36.9400   25.3790   31.7440 C   0  0  0  0  0  0  0  0  0  0  0  0
   38.1550   24.7430   31.7540 C   0  0  0  0  0  0  0  0  0  0  0  0
   38.2400   23.4190   31.5410 N   0  0  0  0  0  0  0  0  0  0  0  0
   37.1870   22.6490   31.3110 C   0  0  0  0  0  0  0  0  0  0  0  0
   35.9740   23.2180   31.2900 N   0  0  0  0  0  0  0  0  0  0  0  0
   34.7970   24.9200   31.4620 H   0  0  0  0  0  0  0  0  0  0  0  0
   39.0050   25.3800   31.9420 H   0  0  0  0  0  0  0  0  0  0  0  0
   37.2130   21.5800   31.1340 H   0  0  0  0  0  0  0  0  0  0  0  0
   38.2310   26.8010   34.8370 C   0  0  0  0  0  0  0  0  0  0  0  0
   39.0780   27.4300   34.1280 O   0  0  0  0  0  0  0  0  0  0  0  0
   36.8330   26.6900   34.3440 N   0  0  0  0  0  0  0  0  0  0  0  0
   36.1680   26.1160   34.8610 H   0  0  0  0  0  0  0  0  0  0  0  0
   38.5210   26.1860   36.0940 O   0  0  0  0  0  0  0  0  0  0  0  0
   38.5160   24.8070   36.1650 C   0  0  0  0  0  0  0  0  0  0  0  0
   37.4900   24.3180   36.7020 O   0  0  0  0  0  0  0  0  0  0  0  0
   39.4160   23.7460   35.7780 N   0  0  0  0  0  0  0  0  0  0  0  0
   39.3170   22.3850   36.2530 C   0  0  0  0  0  2  0  0  0  0  0  0
   40.6050   21.8530   36.7940 C   0  0  0  0  0  2  0  0  0  0  0  0
   41.7130   22.8680   36.8240 C   0  0  0  0  0  3  0  0  0  0  0  0
   42.6880   22.3650   36.9870 H   0  0  0  0  0  0  0  0  0  0  0  0
   41.8440   23.6940   35.5850 C   0  0  0  0  0  2  0  0  0  0  0  0
   40.5290   23.8670   34.8840 C   0  0  0  0  0  2  0  0  0  0  0  0
  1  6  1  0  0  0  0
  2  3  1  0  0  0  0
  2  1  2  0  0  0  0
  3  4  2  0  0  0  0
  4  5  1  0  0  0  0
  5 10  1  0  0  0  0
  6  5  2  0  0  0  0
  6 22  1  0  0  0  0
  7  2  1  0  0  0  0
  8  3  1  0  0  0  0
  9  4  1  0  0  0  0
 11 12  1  0  0  0  0
 12 13  2  0  0  0  0
 12  1  1  0  0  0  0
 13 18  1  0  0  0  0
 14 13  1  0  0  0  0
 15 14  2  0  0  0  0
 16 15  1  0  0  0  0
 16 11  2  0  0  0  0
 17 11  1  0  0  0  0
 19 15  1  0  0  0  0
 20 24  1  0  0  0  0
 21 20  2  0  0  0  0
 22 20  1  0  0  0  0
 22 23  1  0  0  0  0
 24 25  1  0  0  0  0
 25 26  2  0  0  0  0
 27 25  1  0  0  0  0
 27 28  1  0  0  0  0
 28 29  1  0  0  0  0
 29 30  1  0  0  0  0
 30 31  1  0  0  0  0
 32 30  1  0  0  0  0
 33 32  1  0  0  0  0
 33 27  1  0  0  0  0
M  END
>  <minimizedAffinity>
-5.26432085

$$$$
