
 OpenBabel03272500573D

 33 35  0  0  0  0  0  0  0  0999 V2000
   38.2130   31.9000   47.4010 C   0  0  0  0  0  0  0  0  0  0  0  0
   38.7870   32.7630   48.2920 C   0  0  0  0  0  0  0  0  0  0  0  0
   38.3590   32.8300   49.6160 C   0  0  0  0  0  0  0  0  0  0  0  0
   37.2820   31.9570   50.0230 C   0  0  0  0  0  0  0  0  0  0  0  0
   36.7510   31.1200   49.0860 C   0  0  0  0  0  0  0  0  0  0  0  0
   37.1660   31.0610   47.8130 C   0  0  0  0  0  0  0  0  0  0  0  0
   39.6070   33.4360   48.0110 H   0  0  0  0  0  0  0  0  0  0  0  0
   38.8540   33.5390   50.2860 H   0  0  0  0  0  0  0  0  0  0  0  0
   37.0720   32.1250   51.0500 H   0  0  0  0  0  0  0  0  0  0  0  0
   36.0010   30.5590   49.6170 H   0  0  0  0  0  0  0  0  0  0  0  0
   40.0310   31.2500   45.8910 C   0  0  0  0  0  0  0  0  0  0  0  0
   38.7800   31.9170   46.0680 C   0  0  0  0  0  0  0  0  0  0  0  0
   38.2600   32.4970   44.9390 C   0  0  0  0  0  0  0  0  0  0  0  0
   38.9080   32.4230   43.7650 N   0  0  0  0  0  0  0  0  0  0  0  0
   40.0680   31.8000   43.6120 C   0  0  0  0  0  0  0  0  0  0  0  0
   40.6230   31.2160   44.6820 N   0  0  0  0  0  0  0  0  0  0  0  0
   40.5470   30.7530   46.7040 H   0  0  0  0  0  0  0  0  0  0  0  0
   37.3150   33.0000   45.0770 H   0  0  0  0  0  0  0  0  0  0  0  0
   40.6220   31.7170   42.6840 H   0  0  0  0  0  0  0  0  0  0  0  0
   35.1120   30.0840   47.1870 C   0  0  0  0  0  0  0  0  0  0  0  0
   34.6380   30.6340   48.2300 O   0  0  0  0  0  0  0  0  0  0  0  0
   36.5660   30.2200   46.9090 N   0  0  0  0  0  0  0  0  0  0  0  0
   36.9720   29.7130   46.1230 H   0  0  0  0  0  0  0  0  0  0  0  0
   34.3440   29.3380   46.2410 O   0  0  0  0  0  0  0  0  0  0  0  0
   32.9680   29.3430   46.3660 C   0  0  0  0  0  0  0  0  0  0  0  0
   32.3870   30.2190   45.6780 O   0  0  0  0  0  0  0  0  0  0  0  0
   31.9930   28.5840   47.1140 N   0  0  0  0  0  0  0  0  0  0  0  0
   32.3180   27.7200   48.2260 C   0  0  0  0  0  2  0  0  0  0  0  0
   31.7330   26.3500   48.1000 C   0  0  0  0  0  2  0  0  0  0  0  0
   31.0090   26.1200   46.8040 C   0  0  0  0  0  3  0  0  0  0  0  0
   30.3900   25.2010   46.8700 H   0  0  0  0  0  0  0  0  0  0  0  0
   30.1050   27.2310   46.3810 C   0  0  0  0  0  2  0  0  0  0  0  0
   30.5800   28.5620   46.8830 C   0  0  0  0  0  2  0  0  0  0  0  0
  1  6  2  0  0  0  0
  1  2  1  0  0  0  0
  2  3  2  0  0  0  0
  3  4  1  0  0  0  0
  3  8  1  0  0  0  0
  4  9  1  0  0  0  0
  5 10  1  0  0  0  0
  5  4  2  0  0  0  0
  6  5  1  0  0  0  0
  7  2  1  0  0  0  0
 11 12  1  0  0  0  0
 11 17  1  0  0  0  0
 12  1  1  0  0  0  0
 13 18  1  0  0  0  0
 13 12  2  0  0  0  0
 14 13  1  0  0  0  0
 15 14  2  0  0  0  0
 15 16  1  0  0  0  0
 16 11  2  0  0  0  0
 19 15  1  0  0  0  0
 20 21  2  0  0  0  0
 22 20  1  0  0  0  0
 22  6  1  0  0  0  0
 23 22  1  0  0  0  0
 24 25  1  0  0  0  0
 24 20  1  0  0  0  0
 25 27  1  0  0  0  0
 26 25  2  0  0  0  0
 27 28  1  0  0  0  0
 29 28  1  0  0  0  0
 30 31  1  0  0  0  0
 30 29  1  0  0  0  0
 32 30  1  0  0  0  0
 32 33  1  0  0  0  0
 33 27  1  0  0  0  0
M  END
>  <minimizedAffinity>
-6.12621737

>  <minimizedRMSD>
1.25416136

$$$$
