
 OpenBabel03272503243D

 30 32  0  0  1  0  0  0  0  0999 V2000
   36.7730   30.2460   48.8990 N   0  0  0  0  0  0  0  0  0  0  0  0
   37.1010   31.6600   48.8080 C   0  0  1  0  0  0  0  0  0  0  0  0
   37.7630   31.8740   50.1610 C   0  0  0  0  0  0  0  0  0  0  0  0
   37.6610   30.5730   50.9340 C   0  0  0  0  0  0  0  0  0  0  0  0
   37.6570   29.5780   49.8140 C   0  0  0  0  0  0  0  0  0  0  0  0
   36.1710   32.2580   48.7180 H   0  0  0  0  0  0  0  0  0  0  0  0
   38.7800   32.2690   50.0840 H   0  0  0  0  0  0  0  0  0  0  0  0
   37.1400   32.6270   50.7220 H   0  0  0  0  0  0  0  0  0  0  0  0
   38.6540   30.4530   51.4470 H   0  0  0  0  0  0  0  0  0  0  0  0
   36.7970   30.5060   51.5870 H   0  0  0  0  0  0  0  0  0  0  0  0
   38.6220   29.2830   49.4330 H   0  0  0  0  0  0  0  0  0  0  0  0
   37.1640   28.6480   50.2060 H   0  0  0  0  0  0  0  0  0  0  0  0
   35.7170   29.6170   48.1830 C   0  0  0  0  0  0  0  0  0  0  0  0
   35.3700   30.1450   46.9300 C   0  0  0  0  0  0  0  0  0  0  0  0
   34.3400   29.5600   46.1920 C   0  0  0  0  0  0  0  0  0  0  0  0
   33.7210   28.4720   46.7630 N   0  0  0  0  0  0  0  0  0  0  0  0
   34.0750   27.9840   47.9710 C   0  0  0  0  0  0  0  0  0  0  0  0
   35.0770   28.5570   48.6850 N   0  0  0  0  0  0  0  0  0  0  0  0
   35.8410   30.9950   46.4610 H   0  0  0  0  0  0  0  0  0  0  0  0
   34.0560   29.9440   45.2320 H   0  0  0  0  0  0  0  0  0  0  0  0
   33.5260   27.1270   48.3310 H   0  0  0  0  0  0  0  0  0  0  0  0
   38.0070   31.9720   47.6950 C   0  0  0  0  0  0  0  0  0  0  0  0
   38.8760   32.7970   47.9110 O   0  0  0  0  0  0  0  0  0  0  0  0
   38.3610   31.7230   46.3410 N   0  0  0  0  0  0  0  0  0  0  0  0
   39.3190   30.6690   46.0910 C   0  0  0  0  0  2  0  0  0  0  0  0
   40.6380   31.2120   45.5860 C   0  0  0  0  0  2  0  0  0  0  0  0
   40.3610   32.2660   44.5340 C   0  0  0  0  0  3  0  0  0  0  0  0
   41.0160   32.0280   43.6790 H   0  0  0  0  0  0  0  0  0  0  0  0
   38.9420   32.1740   44.0200 C   0  0  0  0  0  2  0  0  0  0  0  0
   37.9050   32.3760   45.1060 C   0  0  0  0  0  2  0  0  0  0  0  0
  1  5  1  0  0  0  0
  2  6  1  6  0  0  0
  2  1  1  0  0  0  0
  2  3  1  0  0  0  0
  3  8  1  0  0  0  0
  3  4  1  0  0  0  0
  4  9  1  0  0  0  0
  4 10  1  0  0  0  0
  5 12  1  0  0  0  0
  5  4  1  0  0  0  0
  7  3  1  0  0  0  0
 11  5  1  0  0  0  0
 13 18  1  0  0  0  0
 13  1  1  0  0  0  0
 14 13  2  0  0  0  0
 15 16  2  0  0  0  0
 15 14  1  0  0  0  0
 16 17  1  0  0  0  0
 17 21  1  0  0  0  0
 17 18  2  0  0  0  0
 19 14  1  0  0  0  0
 20 15  1  0  0  0  0
 22 23  2  0  0  0  0
 22  2  1  0  0  0  0
 24 22  1  0  0  0  0
 25 24  1  0  0  0  0
 26 25  1  0  0  0  0
 27 26  1  0  0  0  0
 28 27  1  0  0  0  0
 29 27  1  0  0  0  0
 29 30  1  0  0  0  0
 30 24  1  0  0  0  0
M  END
>  <minimizedAffinity>
-5.75715446

>  <minimizedRMSD>
1.55396116

$$$$
