
 OpenBabel03272500573D

 33 35  0  0  0  0  0  0  0  0999 V2000
   38.0930   31.9240   47.4380 C   0  0  0  0  0  0  0  0  0  0  0  0
   38.5200   32.8870   48.3100 C   0  0  0  0  0  0  0  0  0  0  0  0
   38.0120   32.9720   49.6040 C   0  0  0  0  0  0  0  0  0  0  0  0
   37.0130   32.0070   50.0020 C   0  0  0  0  0  0  0  0  0  0  0  0
   36.6300   31.0720   49.0860 C   0  0  0  0  0  0  0  0  0  0  0  0
   37.1210   30.9960   47.8420 C   0  0  0  0  0  0  0  0  0  0  0  0
   39.2780   33.6320   48.0340 H   0  0  0  0  0  0  0  0  0  0  0  0
   38.3890   33.7630   50.2580 H   0  0  0  0  0  0  0  0  0  0  0  0
   36.7280   32.2000   51.0060 H   0  0  0  0  0  0  0  0  0  0  0  0
   35.9140   30.4570   49.6080 H   0  0  0  0  0  0  0  0  0  0  0  0
   40.0040   31.2970   46.0370 C   0  0  0  0  0  0  0  0  0  0  0  0
   38.7310   31.9380   46.1380 C   0  0  0  0  0  0  0  0  0  0  0  0
   38.2600   32.4930   44.9750 C   0  0  0  0  0  0  0  0  0  0  0  0
   38.9710   32.4200   43.8390 N   0  0  0  0  0  0  0  0  0  0  0  0
   40.1510   31.8220   43.7560 C   0  0  0  0  0  0  0  0  0  0  0  0
   40.6610   31.2620   44.8610 N   0  0  0  0  0  0  0  0  0  0  0  0
   40.4860   30.8210   46.8820 H   0  0  0  0  0  0  0  0  0  0  0  0
   37.2990   32.9770   45.0550 H   0  0  0  0  0  0  0  0  0  0  0  0
   40.7560   31.7400   42.8600 H   0  0  0  0  0  0  0  0  0  0  0  0
   35.1830   29.9710   46.9700 C   0  0  0  0  0  0  0  0  0  0  0  0
   34.5450   30.6590   47.8280 O   0  0  0  0  0  0  0  0  0  0  0  0
   36.6670   30.0510   46.9550 N   0  0  0  0  0  0  0  0  0  0  0  0
   37.1920   29.4400   46.3300 H   0  0  0  0  0  0  0  0  0  0  0  0
   34.5750   29.1170   46.0000 O   0  0  0  0  0  0  0  0  0  0  0  0
   33.4880   29.5960   45.2940 C   0  0  0  0  0  0  0  0  0  0  0  0
   33.7400   30.5820   44.5570 O   0  0  0  0  0  0  0  0  0  0  0  0
   32.0900   29.2530   45.1880 N   0  0  0  0  0  0  0  0  0  0  0  0
   31.0210   30.0080   45.8030 C   0  0  0  0  0  2  0  0  0  0  0  0
   30.0850   29.1600   46.6030 C   0  0  0  0  0  2  0  0  0  0  0  0
   30.4960   27.7180   46.6860 C   0  0  0  0  0  3  0  0  0  0  0  0
   29.6540   27.1010   47.0630 H   0  0  0  0  0  0  0  0  0  0  0  0
   30.9410   27.1140   45.3940 C   0  0  0  0  0  2  0  0  0  0  0  0
   31.5450   28.1370   44.4760 C   0  0  0  0  0  2  0  0  0  0  0  0
  1  6  2  0  0  0  0
  1  2  1  0  0  0  0
  2  3  2  0  0  0  0
  3  4  1  0  0  0  0
  3  8  1  0  0  0  0
  4  9  1  0  0  0  0
  5 10  1  0  0  0  0
  5  4  2  0  0  0  0
  6  5  1  0  0  0  0
  7  2  1  0  0  0  0
 11 12  1  0  0  0  0
 11 17  1  0  0  0  0
 12  1  1  0  0  0  0
 13 18  1  0  0  0  0
 13 12  2  0  0  0  0
 14 13  1  0  0  0  0
 15 14  2  0  0  0  0
 15 16  1  0  0  0  0
 16 11  2  0  0  0  0
 19 15  1  0  0  0  0
 20 21  2  0  0  0  0
 22 20  1  0  0  0  0
 22  6  1  0  0  0  0
 23 22  1  0  0  0  0
 24 20  1  0  0  0  0
 25 24  1  0  0  0  0
 26 25  2  0  0  0  0
 27 25  1  0  0  0  0
 27 28  1  0  0  0  0
 28 29  1  0  0  0  0
 29 30  1  0  0  0  0
 30 31  1  0  0  0  0
 32 30  1  0  0  0  0
 33 27  1  0  0  0  0
 33 32  1  0  0  0  0
M  END
>  <minimizedAffinity>
-5.62641382

>  <minimizedRMSD>
0.336194277

$$$$
