
 OpenBabel03272503243D

 30 32  0  0  1  0  0  0  0  0999 V2000
   36.3010   29.9070   49.2240 N   0  0  0  0  0  0  0  0  0  0  0  0
   36.8620   31.2260   48.9840 C   0  0  1  0  0  0  0  0  0  0  0  0
   37.5250   31.4900   50.3290 C   0  0  0  0  0  0  0  0  0  0  0  0
   37.1920   30.3260   51.2410 C   0  0  0  0  0  0  0  0  0  0  0  0
   37.0430   29.2180   50.2440 C   0  0  0  0  0  0  0  0  0  0  0  0
   36.0470   31.9530   48.7900 H   0  0  0  0  0  0  0  0  0  0  0  0
   38.5940   31.7010   50.2470 H   0  0  0  0  0  0  0  0  0  0  0  0
   37.0250   32.3970   50.7750 H   0  0  0  0  0  0  0  0  0  0  0  0
   38.1410   30.1080   51.8030 H   0  0  0  0  0  0  0  0  0  0  0  0
   36.3160   30.4800   51.8630 H   0  0  0  0  0  0  0  0  0  0  0  0
   37.9520   28.7260   49.9380 H   0  0  0  0  0  0  0  0  0  0  0  0
   36.3950   28.4350   50.7220 H   0  0  0  0  0  0  0  0  0  0  0  0
   35.1690   29.3770   48.5460 C   0  0  0  0  0  0  0  0  0  0  0  0
   34.4800   30.2230   47.6630 C   0  0  0  0  0  0  0  0  0  0  0  0
   33.3640   29.7460   46.9750 C   0  0  0  0  0  0  0  0  0  0  0  0
   33.0070   28.4400   47.2180 N   0  0  0  0  0  0  0  0  0  0  0  0
   33.6890   27.6470   48.0740 C   0  0  0  0  0  0  0  0  0  0  0  0
   34.7740   28.1160   48.7400 N   0  0  0  0  0  0  0  0  0  0  0  0
   34.7400   31.2500   47.4540 H   0  0  0  0  0  0  0  0  0  0  0  0
   32.8210   30.3720   46.2950 H   0  0  0  0  0  0  0  0  0  0  0  0
   33.3280   26.6370   48.1950 H   0  0  0  0  0  0  0  0  0  0  0  0
   37.8290   31.2500   47.8790 C   0  0  0  0  0  0  0  0  0  0  0  0
   38.9810   31.5200   48.1650 O   0  0  0  0  0  0  0  0  0  0  0  0
   38.0480   31.0870   46.4840 N   0  0  0  0  0  0  0  0  0  0  0  0
   39.2900   31.5940   45.9460 C   0  0  0  0  0  2  0  0  0  0  0  0
   39.0700   32.7890   45.0450 C   0  0  0  0  0  2  0  0  0  0  0  0
   37.8970   32.5030   44.1310 C   0  0  0  0  0  3  0  0  0  0  0  0
   38.2250   32.7700   43.1140 H   0  0  0  0  0  0  0  0  0  0  0  0
   37.5710   31.0260   44.0970 C   0  0  0  0  0  2  0  0  0  0  0  0
   37.1970   30.4710   45.4550 C   0  0  0  0  0  2  0  0  0  0  0  0
  1  5  1  0  0  0  0
  2  6  1  6  0  0  0
  2  1  1  0  0  0  0
  2  3  1  0  0  0  0
  3  8  1  0  0  0  0
  3  4  1  0  0  0  0
  4  9  1  0  0  0  0
  4 10  1  0  0  0  0
  5 12  1  0  0  0  0
  5  4  1  0  0  0  0
  7  3  1  0  0  0  0
 11  5  1  0  0  0  0
 13 18  1  0  0  0  0
 13  1  1  0  0  0  0
 14 13  2  0  0  0  0
 15 16  2  0  0  0  0
 15 14  1  0  0  0  0
 16 17  1  0  0  0  0
 17 21  1  0  0  0  0
 17 18  2  0  0  0  0
 19 14  1  0  0  0  0
 20 15  1  0  0  0  0
 22 23  2  0  0  0  0
 22  2  1  0  0  0  0
 24 22  1  0  0  0  0
 25 24  1  0  0  0  0
 26 25  1  0  0  0  0
 27 26  1  0  0  0  0
 28 27  1  0  0  0  0
 29 27  1  0  0  0  0
 29 30  1  0  0  0  0
 30 24  1  0  0  0  0
M  END
>  <minimizedAffinity>
-5.51341867

>  <minimizedRMSD>
1.37677705

$$$$
