
 OpenBabel03272500573D

 33 35  0  0  0  0  0  0  0  0999 V2000
   38.1180   31.9170   47.4360 C   0  0  0  0  0  0  0  0  0  0  0  0
   38.5670   32.8590   48.3200 C   0  0  0  0  0  0  0  0  0  0  0  0
   38.0660   32.9340   49.6170 C   0  0  0  0  0  0  0  0  0  0  0  0
   37.0500   31.9830   50.0060 C   0  0  0  0  0  0  0  0  0  0  0  0
   36.6450   31.0700   49.0770 C   0  0  0  0  0  0  0  0  0  0  0  0
   37.1290   31.0030   47.8300 C   0  0  0  0  0  0  0  0  0  0  0  0
   39.3390   33.5930   48.0520 H   0  0  0  0  0  0  0  0  0  0  0  0
   38.4610   33.7080   50.2820 H   0  0  0  0  0  0  0  0  0  0  0  0
   36.7720   32.1680   51.0130 H   0  0  0  0  0  0  0  0  0  0  0  0
   35.9200   30.4620   49.5930 H   0  0  0  0  0  0  0  0  0  0  0  0
   40.0190   31.2890   46.0220 C   0  0  0  0  0  0  0  0  0  0  0  0
   38.7510   31.9380   46.1330 C   0  0  0  0  0  0  0  0  0  0  0  0
   38.2790   32.5070   44.9780 C   0  0  0  0  0  0  0  0  0  0  0  0
   38.9860   32.4380   43.8370 N   0  0  0  0  0  0  0  0  0  0  0  0
   40.1610   31.8320   43.7450 C   0  0  0  0  0  0  0  0  0  0  0  0
   40.6710   31.2600   44.8430 N   0  0  0  0  0  0  0  0  0  0  0  0
   40.5000   30.8020   46.8610 H   0  0  0  0  0  0  0  0  0  0  0  0
   37.3220   32.9960   45.0660 H   0  0  0  0  0  0  0  0  0  0  0  0
   40.7620   31.7540   42.8460 H   0  0  0  0  0  0  0  0  0  0  0  0
   35.1710   29.9970   46.9840 C   0  0  0  0  0  0  0  0  0  0  0  0
   34.5540   30.6610   47.8760 O   0  0  0  0  0  0  0  0  0  0  0  0
   36.6530   30.0800   46.9310 N   0  0  0  0  0  0  0  0  0  0  0  0
   37.1620   29.4870   46.2770 H   0  0  0  0  0  0  0  0  0  0  0  0
   34.5380   29.1660   46.0080 O   0  0  0  0  0  0  0  0  0  0  0  0
   33.3620   29.6090   45.4350 C   0  0  0  0  0  0  0  0  0  0  0  0
   33.5120   30.5110   44.5730 O   0  0  0  0  0  0  0  0  0  0  0  0
   31.9590   29.3020   45.5800 N   0  0  0  0  0  0  0  0  0  0  0  0
   31.4250   27.9600   45.6430 C   0  0  0  0  0  2  0  0  0  0  0  0
   30.2970   27.7300   44.6890 C   0  0  0  0  0  2  0  0  0  0  0  0
   30.0110   28.9020   43.7960 C   0  0  0  0  0  3  0  0  0  0  0  0
   29.0260   28.7750   43.3010 H   0  0  0  0  0  0  0  0  0  0  0  0
   29.9910   30.2290   44.4840 C   0  0  0  0  0  2  0  0  0  0  0  0
   30.8920   30.2520   45.6830 C   0  0  0  0  0  2  0  0  0  0  0  0
  1  6  2  0  0  0  0
  1  2  1  0  0  0  0
  2  3  2  0  0  0  0
  3  4  1  0  0  0  0
  3  8  1  0  0  0  0
  4  9  1  0  0  0  0
  5 10  1  0  0  0  0
  5  4  2  0  0  0  0
  6  5  1  0  0  0  0
  7  2  1  0  0  0  0
 11 12  1  0  0  0  0
 11 17  1  0  0  0  0
 12  1  1  0  0  0  0
 13 18  1  0  0  0  0
 13 12  2  0  0  0  0
 14 13  1  0  0  0  0
 15 14  2  0  0  0  0
 15 16  1  0  0  0  0
 16 11  2  0  0  0  0
 19 15  1  0  0  0  0
 20 21  2  0  0  0  0
 22 20  1  0  0  0  0
 22  6  1  0  0  0  0
 23 22  1  0  0  0  0
 24 20  1  0  0  0  0
 25 27  1  0  0  0  0
 25 24  1  0  0  0  0
 26 25  2  0  0  0  0
 27 28  1  0  0  0  0
 27 33  1  0  0  0  0
 29 28  1  0  0  0  0
 30 32  1  0  0  0  0
 30 29  1  0  0  0  0
 31 30  1  0  0  0  0
 32 33  1  0  0  0  0
M  END
>  <minimizedAffinity>
-5.50237036

>  <minimizedRMSD>
0.0724990293

$$$$
