
 OpenBabel03272500573D

 33 35  0  0  0  0  0  0  0  0999 V2000
   38.0680   31.9060   47.4230 C   0  0  0  0  0  0  0  0  0  0  0  0
   38.4970   32.8480   48.3170 C   0  0  0  0  0  0  0  0  0  0  0  0
   37.9720   32.9180   49.6050 C   0  0  0  0  0  0  0  0  0  0  0  0
   36.9540   31.9610   49.9740 C   0  0  0  0  0  0  0  0  0  0  0  0
   36.5700   31.0480   49.0360 C   0  0  0  0  0  0  0  0  0  0  0  0
   37.0770   30.9860   47.7980 C   0  0  0  0  0  0  0  0  0  0  0  0
   39.2690   33.5860   48.0650 H   0  0  0  0  0  0  0  0  0  0  0  0
   38.3520   33.6920   50.2780 H   0  0  0  0  0  0  0  0  0  0  0  0
   36.6580   32.1420   50.9760 H   0  0  0  0  0  0  0  0  0  0  0  0
   35.8390   30.4350   49.5380 H   0  0  0  0  0  0  0  0  0  0  0  0
   39.9960   31.2890   46.0410 C   0  0  0  0  0  0  0  0  0  0  0  0
   38.7240   31.9340   46.1320 C   0  0  0  0  0  0  0  0  0  0  0  0
   38.2700   32.5040   44.9700 C   0  0  0  0  0  0  0  0  0  0  0  0
   38.9960   32.4410   43.8420 N   0  0  0  0  0  0  0  0  0  0  0  0
   40.1750   31.8400   43.7680 C   0  0  0  0  0  0  0  0  0  0  0  0
   40.6680   31.2660   44.8740 N   0  0  0  0  0  0  0  0  0  0  0  0
   40.4640   30.8020   46.8870 H   0  0  0  0  0  0  0  0  0  0  0  0
   37.3090   32.9890   45.0420 H   0  0  0  0  0  0  0  0  0  0  0  0
   40.7920   31.7670   42.8800 H   0  0  0  0  0  0  0  0  0  0  0  0
   35.1400   29.9510   46.9360 C   0  0  0  0  0  0  0  0  0  0  0  0
   34.5090   30.5940   47.8330 O   0  0  0  0  0  0  0  0  0  0  0  0
   36.6210   30.0630   46.8880 N   0  0  0  0  0  0  0  0  0  0  0  0
   37.1430   29.4860   46.2300 H   0  0  0  0  0  0  0  0  0  0  0  0
   34.5270   29.1180   45.9500 O   0  0  0  0  0  0  0  0  0  0  0  0
   33.2720   29.4660   45.4880 C   0  0  0  0  0  0  0  0  0  0  0  0
   33.2020   30.6180   44.9930 O   0  0  0  0  0  0  0  0  0  0  0  0
   31.9760   28.8320   45.4320 N   0  0  0  0  0  0  0  0  0  0  0  0
   30.8760   29.3050   44.6240 C   0  0  0  0  0  2  0  0  0  0  0  0
   29.6010   29.4540   45.3910 C   0  0  0  0  0  2  0  0  0  0  0  0
   29.7450   29.1750   46.8600 C   0  0  0  0  0  3  0  0  0  0  0  0
   28.7450   29.0520   47.3250 H   0  0  0  0  0  0  0  0  0  0  0  0
   30.5410   27.9570   47.1960 C   0  0  0  0  0  2  0  0  0  0  0  0
   31.5770   27.6590   46.1530 C   0  0  0  0  0  2  0  0  0  0  0  0
  1  6  2  0  0  0  0
  1  2  1  0  0  0  0
  2  3  2  0  0  0  0
  3  4  1  0  0  0  0
  3  8  1  0  0  0  0
  4  9  1  0  0  0  0
  5 10  1  0  0  0  0
  5  4  2  0  0  0  0
  6  5  1  0  0  0  0
  7  2  1  0  0  0  0
 11 12  1  0  0  0  0
 11 17  1  0  0  0  0
 12  1  1  0  0  0  0
 13 18  1  0  0  0  0
 13 12  2  0  0  0  0
 14 13  1  0  0  0  0
 15 14  2  0  0  0  0
 15 16  1  0  0  0  0
 16 11  2  0  0  0  0
 19 15  1  0  0  0  0
 20 21  2  0  0  0  0
 22 20  1  0  0  0  0
 22  6  1  0  0  0  0
 23 22  1  0  0  0  0
 24 20  1  0  0  0  0
 25 24  1  0  0  0  0
 26 25  2  0  0  0  0
 27 25  1  0  0  0  0
 27 33  1  0  0  0  0
 28 29  1  0  0  0  0
 28 27  1  0  0  0  0
 29 30  1  0  0  0  0
 30 32  1  0  0  0  0
 30 31  1  0  0  0  0
 33 32  1  0  0  0  0
M  END
>  <minimizedAffinity>
-5.67155981

>  <minimizedRMSD>
0.529251754

$$$$
