
 OpenBabel03272507273D

 37 39  0  0  1  0  0  0  0  0999 V2000
   39.4950   26.8020   33.4930 C   0  0  0  0  0  0  0  0  0  0  0  0
   38.8850   26.1260   34.5680 C   0  0  0  0  0  0  0  0  0  0  0  0
   39.6260   25.1280   35.2170 C   0  0  0  0  0  0  0  0  0  0  0  0
   40.8620   24.8810   34.7810 N   0  0  0  0  0  0  0  0  0  0  0  0
   41.4160   25.5450   33.7500 C   0  0  0  0  0  0  0  0  0  0  0  0
   40.7330   26.4970   33.1160 N   0  0  0  0  0  0  0  0  0  0  0  0
   39.0670   24.4220   36.2940 N   0  0  0  0  0  0  0  0  0  0  0  0
   38.0470   24.9340   37.2180 C   0  0  0  0  0  0  0  0  0  0  0  0
   37.9140   23.9390   38.3210 C   0  0  0  0  0  0  0  0  0  0  0  0
   39.1740   23.1630   38.2150 C   0  0  0  0  0  0  0  0  0  0  0  0
   39.3480   23.0840   36.7230 C   0  0  2  0  0  0  0  0  0  0  0  0
   38.9450   27.5630   32.9890 H   0  0  0  0  0  0  0  0  0  0  0  0
   37.8750   26.3630   34.8880 H   0  0  0  0  0  0  0  0  0  0  0  0
   42.4270   25.2520   33.4890 H   0  0  0  0  0  0  0  0  0  0  0  0
   38.4180   25.9160   37.5380 H   0  0  0  0  0  0  0  0  0  0  0  0
   37.1130   25.0940   36.6510 H   0  0  0  0  0  0  0  0  0  0  0  0
   36.9810   23.3620   38.3380 H   0  0  0  0  0  0  0  0  0  0  0  0
   37.8890   24.5380   39.2790 H   0  0  0  0  0  0  0  0  0  0  0  0
   40.0110   23.7150   38.6350 H   0  0  0  0  0  0  0  0  0  0  0  0
   39.1110   22.1550   38.6760 H   0  0  0  0  0  0  0  0  0  0  0  0
   40.6530   22.4830   36.3170 C   0  0  0  0  0  0  0  0  0  0  0  0
   41.6420   23.3090   36.8330 F   0  0  0  0  0  0  0  0  0  0  0  0
   40.8680   22.3770   34.9760 F   0  0  0  0  0  0  0  0  0  0  0  0
   40.7570   21.2790   36.9990 F   0  0  0  0  0  0  0  0  0  0  0  0
   38.2550   22.2420   36.1620 C   0  0  0  0  0  0  0  0  0  0  0  0
   37.4750   22.2130   36.9530 H   0  0  0  0  0  0  0  0  0  0  0  0
   38.6660   21.1860   36.1370 H   0  0  0  0  0  0  0  0  0  0  0  0
   38.1230   22.5770   34.9710 O   0  0  0  0  0  0  0  0  0  0  0  0
   37.7870   21.9870   33.7990 C   0  0  0  0  0  0  0  0  0  0  0  0
   38.3920   22.5730   32.8690 O   0  0  0  0  0  0  0  0  0  0  0  0
   37.0740   21.0080   33.0800 N   0  0  0  0  0  0  0  0  0  0  0  0
   35.6830   20.8300   33.4410 C   0  0  0  0  0  2  0  0  0  0  0  0
   34.8220   20.5560   32.2300 C   0  0  0  0  0  2  0  0  0  0  0  0
   35.4410   21.2680   31.0520 C   0  0  0  0  0  3  0  0  0  0  0  0
   34.7720   21.1620   30.1720 H   0  0  0  0  0  0  0  0  0  0  0  0
   36.7130   20.5120   30.7220 C   0  0  0  0  0  2  0  0  0  0  0  0
   37.3770   20.0610   31.9960 C   0  0  0  0  0  2  0  0  0  0  0  0
  1  2  1  0  0  0  0
  2 13  1  0  0  0  0
  2  3  2  0  0  0  0
  3  7  1  0  0  0  0
  4  3  1  0  0  0  0
  5  4  2  0  0  0  0
  6  1  2  0  0  0  0
  6  5  1  0  0  0  0
  7 11  1  0  0  0  0
  7  8  1  0  0  0  0
  8 15  1  0  0  0  0
  8  9  1  0  0  0  0
  9 17  1  0  0  0  0
  9 18  1  0  0  0  0
 10  9  1  0  0  0  0
 10 19  1  0  0  0  0
 10 20  1  0  0  0  0
 11 25  1  6  0  0  0
 11 10  1  0  0  0  0
 12  1  1  0  0  0  0
 14  5  1  0  0  0  0
 16  8  1  0  0  0  0
 21 11  1  0  0  0  0
 21 22  1  0  0  0  0
 21 24  1  0  0  0  0
 23 21  1  0  0  0  0
 25 26  1  0  0  0  0
 27 25  1  0  0  0  0
 28 25  1  0  0  0  0
 29 28  1  0  0  0  0
 30 29  2  0  0  0  0
 31 32  1  0  0  0  0
 31 29  1  0  0  0  0
 33 32  1  0  0  0  0
 34 33  1  0  0  0  0
 35 34  1  0  0  0  0
 36 34  1  0  0  0  0
 36 37  1  0  0  0  0
 37 31  1  0  0  0  0
M  END
>  <minimizedAffinity>
-5.72965193

$$$$

 OpenBabel03272507273D

 37 39  0  0  1  0  0  0  0  0999 V2000
   37.2670   26.0100   31.1750 C   0  0  0  0  0  0  0  0  0  0  0  0
   37.8190   24.7180   31.0690 C   0  0  0  0  0  0  0  0  0  0  0  0
   36.9340   23.6320   31.0170 C   0  0  0  0  0  0  0  0  0  0  0  0
   35.6250   23.8860   31.0680 N   0  0  0  0  0  0  0  0  0  0  0  0
   35.1300   25.1330   31.1700 C   0  0  0  0  0  0  0  0  0  0  0  0
   35.9490   26.1820   31.2220 N   0  0  0  0  0  0  0  0  0  0  0  0
   37.4300   22.3220   30.9120 N   0  0  0  0  0  0  0  0  0  0  0  0
   38.6970   21.9340   30.2820 C   0  0  0  0  0  0  0  0  0  0  0  0
   38.7110   20.4440   30.2040 C   0  0  0  0  0  0  0  0  0  0  0  0
   37.2780   20.0960   30.3590 C   0  0  0  0  0  0  0  0  0  0  0  0
   36.8370   21.1060   31.3840 C   0  0  2  0  0  0  0  0  0  0  0  0
   37.9270   26.8470   31.2160 H   0  0  0  0  0  0  0  0  0  0  0  0
   38.8930   24.5620   31.0300 H   0  0  0  0  0  0  0  0  0  0  0  0
   34.0490   25.2090   31.2040 H   0  0  0  0  0  0  0  0  0  0  0  0
   38.6990   22.4360   29.3070 H   0  0  0  0  0  0  0  0  0  0  0  0
   39.5260   22.3520   30.8800 H   0  0  0  0  0  0  0  0  0  0  0  0
   39.4160   19.9340   30.8710 H   0  0  0  0  0  0  0  0  0  0  0  0
   39.0780   20.1900   29.1650 H   0  0  0  0  0  0  0  0  0  0  0  0
   36.7290   20.2710   29.4370 H   0  0  0  0  0  0  0  0  0  0  0  0
   37.1120   19.0550   30.7100 H   0  0  0  0  0  0  0  0  0  0  0  0
   35.3620   21.0960   31.6190 C   0  0  0  0  0  0  0  0  0  0  0  0
   34.7740   21.5240   30.4360 F   0  0  0  0  0  0  0  0  0  0  0  0
   34.9130   21.9090   32.6150 F   0  0  0  0  0  0  0  0  0  0  0  0
   35.0010   19.7650   31.7730 F   0  0  0  0  0  0  0  0  0  0  0  0
   37.5140   20.8000   32.6740 C   0  0  0  0  0  0  0  0  0  0  0  0
   38.4420   20.2550   32.3940 H   0  0  0  0  0  0  0  0  0  0  0  0
   36.8710   20.0140   33.1770 H   0  0  0  0  0  0  0  0  0  0  0  0
   37.4110   21.8190   33.3800 O   0  0  0  0  0  0  0  0  0  0  0  0
   37.7750   22.2120   34.6250 C   0  0  0  0  0  0  0  0  0  0  0  0
   37.1560   21.5090   35.4610 O   0  0  0  0  0  0  0  0  0  0  0  0
   38.5280   23.0430   35.4770 N   0  0  0  0  0  0  0  0  0  0  0  0
   38.5530   24.4520   35.1450 C   0  0  0  0  0  2  0  0  0  0  0  0
   38.5240   25.3180   36.3830 C   0  0  0  0  0  2  0  0  0  0  0  0
   37.7510   24.5790   37.4470 C   0  0  0  0  0  3  0  0  0  0  0  0
   37.6320   25.2380   38.3330 H   0  0  0  0  0  0  0  0  0  0  0  0
   38.6280   23.4210   37.8810 C   0  0  0  0  0  2  0  0  0  0  0  0
   39.3460   22.8550   36.6850 C   0  0  0  0  0  2  0  0  0  0  0  0
  1 12  1  0  0  0  0
  1  6  1  0  0  0  0
  2  1  2  0  0  0  0
  3  4  2  0  0  0  0
  3  2  1  0  0  0  0
  4  5  1  0  0  0  0
  5 14  1  0  0  0  0
  5  6  2  0  0  0  0
  7  3  1  0  0  0  0
  7 11  1  0  0  0  0
  8 16  1  0  0  0  0
  8  7  1  0  0  0  0
  9  8  1  0  0  0  0
  9 10  1  0  0  0  0
  9 17  1  0  0  0  0
 10 20  1  0  0  0  0
 10 11  1  0  0  0  0
 11 21  1  1  0  0  0
 11 25  1  0  0  0  0
 13  2  1  0  0  0  0
 15  8  1  0  0  0  0
 18  9  1  0  0  0  0
 19 10  1  0  0  0  0
 21 24  1  0  0  0  0
 21 23  1  0  0  0  0
 22 21  1  0  0  0  0
 25 27  1  0  0  0  0
 25 28  1  0  0  0  0
 26 25  1  0  0  0  0
 28 29  1  0  0  0  0
 29 30  2  0  0  0  0
 29 31  1  0  0  0  0
 31 37  1  0  0  0  0
 32 31  1  0  0  0  0
 32 33  1  0  0  0  0
 33 34  1  0  0  0  0
 34 36  1  0  0  0  0
 34 35  1  0  0  0  0
 37 36  1  0  0  0  0
M  END
>  <minimizedAffinity>
-5.68841457

$$$$

 OpenBabel03272507273D

 37 39  0  0  1  0  0  0  0  0999 V2000
   39.2660   22.6390   37.0740 C   0  0  0  0  0  0  0  0  0  0  0  0
   39.7660   23.3010   35.9350 C   0  0  0  0  0  0  0  0  0  0  0  0
   39.2780   24.5860   35.6600 C   0  0  0  0  0  0  0  0  0  0  0  0
   38.3730   25.1050   36.4920 N   0  0  0  0  0  0  0  0  0  0  0  0
   37.9170   24.4460   37.5720 C   0  0  0  0  0  0  0  0  0  0  0  0
   38.3630   23.2240   37.8560 N   0  0  0  0  0  0  0  0  0  0  0  0
   39.7400   25.2910   34.5370 N   0  0  0  0  0  0  0  0  0  0  0  0
   41.0620   25.1400   33.9150 C   0  0  0  0  0  0  0  0  0  0  0  0
   41.1980   26.2270   32.9040 C   0  0  0  0  0  0  0  0  0  0  0  0
   40.1620   27.2000   33.3280 C   0  0  0  0  0  0  0  0  0  0  0  0
   39.0530   26.2810   33.7620 C   0  0  2  0  0  0  0  0  0  0  0  0
   39.6270   21.6600   37.2970 H   0  0  0  0  0  0  0  0  0  0  0  0
   40.5030   22.8360   35.2870 H   0  0  0  0  0  0  0  0  0  0  0  0
   37.1820   24.9740   38.1710 H   0  0  0  0  0  0  0  0  0  0  0  0
   41.7770   25.2030   34.7440 H   0  0  0  0  0  0  0  0  0  0  0  0
   41.1300   24.1250   33.4850 H   0  0  0  0  0  0  0  0  0  0  0  0
   41.1760   25.9130   31.8530 H   0  0  0  0  0  0  0  0  0  0  0  0
   42.2350   26.6560   33.0450 H   0  0  0  0  0  0  0  0  0  0  0  0
   40.4930   27.7770   34.1880 H   0  0  0  0  0  0  0  0  0  0  0  0
   39.8360   27.8820   32.5140 H   0  0  0  0  0  0  0  0  0  0  0  0
   37.9140   27.0000   34.4060 C   0  0  0  0  0  0  0  0  0  0  0  0
   38.4490   27.7040   35.4770 F   0  0  0  0  0  0  0  0  0  0  0  0
   36.9130   26.2150   34.8940 F   0  0  0  0  0  0  0  0  0  0  0  0
   37.4860   27.9530   33.4910 F   0  0  0  0  0  0  0  0  0  0  0  0
   38.5320   25.5670   32.5640 C   0  0  0  0  0  0  0  0  0  0  0  0
   39.3520   25.6180   31.8160 H   0  0  0  0  0  0  0  0  0  0  0  0
   37.7240   26.2360   32.1380 H   0  0  0  0  0  0  0  0  0  0  0  0
   37.9420   24.5550   32.9820 O   0  0  0  0  0  0  0  0  0  0  0  0
   37.3740   23.4410   32.4560 C   0  0  0  0  0  0  0  0  0  0  0  0
   36.7420   23.7670   31.4230 O   0  0  0  0  0  0  0  0  0  0  0  0
   37.1350   22.0540   32.4940 N   0  0  0  0  0  0  0  0  0  0  0  0
   36.7720   21.4970   33.7800 C   0  0  0  0  0  2  0  0  0  0  0  0
   35.7310   20.4110   33.6450 C   0  0  0  0  0  2  0  0  0  0  0  0
   34.8750   20.7370   32.4460 C   0  0  0  0  0  3  0  0  0  0  0  0
   34.0410   20.0050   32.3860 H   0  0  0  0  0  0  0  0  0  0  0  0
   35.7460   20.5030   31.2280 C   0  0  0  0  0  2  0  0  0  0  0  0
   37.1530   20.9520   31.5200 C   0  0  0  0  0  2  0  0  0  0  0  0
  1 12  1  0  0  0  0
  1  6  1  0  0  0  0
  2  1  2  0  0  0  0
  3  2  1  0  0  0  0
  3  4  2  0  0  0  0
  4  5  1  0  0  0  0
  5  6  2  0  0  0  0
  5 14  1  0  0  0  0
  7  3  1  0  0  0  0
  8  7  1  0  0  0  0
  8 15  1  0  0  0  0
  9 18  1  0  0  0  0
  9 10  1  0  0  0  0
  9  8  1  0  0  0  0
 10 11  1  0  0  0  0
 10 19  1  0  0  0  0
 11 25  1  6  0  0  0
 11 21  1  0  0  0  0
 11  7  1  0  0  0  0
 13  2  1  0  0  0  0
 16  8  1  0  0  0  0
 17  9  1  0  0  0  0
 20 10  1  0  0  0  0
 21 23  1  0  0  0  0
 21 22  1  0  0  0  0
 24 21  1  0  0  0  0
 25 28  1  0  0  0  0
 26 25  1  0  0  0  0
 27 25  1  0  0  0  0
 29 31  1  0  0  0  0
 29 28  1  0  0  0  0
 30 29  2  0  0  0  0
 31 32  1  0  0  0  0
 33 32  1  0  0  0  0
 34 33  1  0  0  0  0
 35 34  1  0  0  0  0
 36 37  1  0  0  0  0
 36 34  1  0  0  0  0
 37 31  1  0  0  0  0
M  END
>  <minimizedAffinity>
-5.61880589

$$$$

 OpenBabel03272507273D

 37 39  0  0  1  0  0  0  0  0999 V2000
   41.4770   21.8500   36.3900 C   0  0  0  0  0  0  0  0  0  0  0  0
   41.2390   22.8450   35.4200 C   0  0  0  0  0  0  0  0  0  0  0  0
   40.2680   23.8150   35.7050 C   0  0  0  0  0  0  0  0  0  0  0  0
   39.6310   23.7410   36.8760 N   0  0  0  0  0  0  0  0  0  0  0  0
   39.8830   22.7770   37.7800 C   0  0  0  0  0  0  0  0  0  0  0  0
   40.8000   21.8430   37.5340 N   0  0  0  0  0  0  0  0  0  0  0  0
   39.9890   24.8290   34.7750 N   0  0  0  0  0  0  0  0  0  0  0  0
   40.9340   25.3760   33.7940 C   0  0  0  0  0  0  0  0  0  0  0  0
   40.2850   26.5670   33.1740 C   0  0  0  0  0  0  0  0  0  0  0  0
   39.2210   26.9050   34.1510 C   0  0  0  0  0  0  0  0  0  0  0  0
   38.7590   25.5350   34.5700 C   0  0  2  0  0  0  0  0  0  0  0  0
   42.2130   21.1050   36.1880 H   0  0  0  0  0  0  0  0  0  0  0  0
   41.7840   22.8640   34.4810 H   0  0  0  0  0  0  0  0  0  0  0  0
   39.2990   22.8240   38.6930 H   0  0  0  0  0  0  0  0  0  0  0  0
   41.8420   25.6030   34.3670 H   0  0  0  0  0  0  0  0  0  0  0  0
   41.1820   24.5800   33.0690 H   0  0  0  0  0  0  0  0  0  0  0  0
   39.9740   26.4560   32.1280 H   0  0  0  0  0  0  0  0  0  0  0  0
   41.0770   27.3730   33.1450 H   0  0  0  0  0  0  0  0  0  0  0  0
   39.6330   27.4150   35.0190 H   0  0  0  0  0  0  0  0  0  0  0  0
   38.3940   27.5020   33.7140 H   0  0  0  0  0  0  0  0  0  0  0  0
   37.7800   25.5670   35.6970 C   0  0  0  0  0  0  0  0  0  0  0  0
   38.3910   26.2670   36.7280 F   0  0  0  0  0  0  0  0  0  0  0  0
   37.4030   24.3560   36.1930 F   0  0  0  0  0  0  0  0  0  0  0  0
   36.7190   26.3540   35.2700 F   0  0  0  0  0  0  0  0  0  0  0  0
   38.1040   24.8790   33.4050 C   0  0  0  0  0  0  0  0  0  0  0  0
   38.3940   25.4910   32.5250 H   0  0  0  0  0  0  0  0  0  0  0  0
   36.9950   25.0750   33.5280 H   0  0  0  0  0  0  0  0  0  0  0  0
   38.2460   23.6530   33.5620 O   0  0  0  0  0  0  0  0  0  0  0  0
   37.4900   22.5350   33.4340 C   0  0  0  0  0  0  0  0  0  0  0  0
   37.7060   21.7920   34.4210 O   0  0  0  0  0  0  0  0  0  0  0  0
   36.5490   21.7680   32.7210 N   0  0  0  0  0  0  0  0  0  0  0  0
   36.7580   21.6560   31.2920 C   0  0  0  0  0  2  0  0  0  0  0  0
   36.4070   20.2780   30.7820 C   0  0  0  0  0  2  0  0  0  0  0  0
   36.6820   19.2910   31.8890 C   0  0  0  0  0  3  0  0  0  0  0  0
   36.5250   18.2610   31.5050 H   0  0  0  0  0  0  0  0  0  0  0  0
   35.6170   19.5280   32.9420 C   0  0  0  0  0  2  0  0  0  0  0  0
   35.3370   21.0030   33.0540 C   0  0  0  0  0  2  0  0  0  0  0  0
  1  6  1  0  0  0  0
  2  3  1  0  0  0  0
  2  1  2  0  0  0  0
  3  4  2  0  0  0  0
  4  5  1  0  0  0  0
  5 14  1  0  0  0  0
  6  5  2  0  0  0  0
  7  3  1  0  0  0  0
  8 15  1  0  0  0  0
  8  7  1  0  0  0  0
  9  8  1  0  0  0  0
  9 10  1  0  0  0  0
 10 11  1  0  0  0  0
 10 19  1  0  0  0  0
 11 25  1  6  0  0  0
 11  7  1  0  0  0  0
 11 21  1  0  0  0  0
 12  1  1  0  0  0  0
 13  2  1  0  0  0  0
 16  8  1  0  0  0  0
 17  9  1  0  0  0  0
 18  9  1  0  0  0  0
 20 10  1  0  0  0  0
 21 23  1  0  0  0  0
 21 22  1  0  0  0  0
 24 21  1  0  0  0  0
 25 27  1  0  0  0  0
 25 28  1  0  0  0  0
 26 25  1  0  0  0  0
 29 28  1  0  0  0  0
 29 30  2  0  0  0  0
 31 37  1  0  0  0  0
 31 29  1  0  0  0  0
 32 31  1  0  0  0  0
 33 32  1  0  0  0  0
 33 34  1  0  0  0  0
 34 36  1  0  0  0  0
 35 34  1  0  0  0  0
 36 37  1  0  0  0  0
M  END
>  <minimizedAffinity>
-5.59814882

$$$$

 OpenBabel03272507273D

 37 39  0  0  1  0  0  0  0  0999 V2000
   35.8490   22.4830   31.2110 C   0  0  0  0  0  0  0  0  0  0  0  0
   35.6830   23.8440   31.5380 C   0  0  0  0  0  0  0  0  0  0  0  0
   36.8200   24.6640   31.5130 C   0  0  0  0  0  0  0  0  0  0  0  0
   37.9870   24.1090   31.1800 N   0  0  0  0  0  0  0  0  0  0  0  0
   38.1100   22.8050   30.8740 C   0  0  0  0  0  0  0  0  0  0  0  0
   37.0460   22.0040   30.8900 N   0  0  0  0  0  0  0  0  0  0  0  0
   36.7140   26.0270   31.8310 N   0  0  0  0  0  0  0  0  0  0  0  0
   35.5210   26.8620   31.6380 C   0  0  0  0  0  0  0  0  0  0  0  0
   35.9250   28.2730   31.9030 C   0  0  0  0  0  0  0  0  0  0  0  0
   37.4020   28.2210   31.7710 C   0  0  0  0  0  0  0  0  0  0  0  0
   37.7070   26.8890   32.4010 C   0  0  2  0  0  0  0  0  0  0  0  0
   34.9930   21.8460   31.2260 H   0  0  0  0  0  0  0  0  0  0  0  0
   34.7120   24.2500   31.8020 H   0  0  0  0  0  0  0  0  0  0  0  0
   39.1120   22.4730   30.6200 H   0  0  0  0  0  0  0  0  0  0  0  0
   35.2010   26.6700   30.6070 H   0  0  0  0  0  0  0  0  0  0  0  0
   34.7280   26.4960   32.3140 H   0  0  0  0  0  0  0  0  0  0  0  0
   35.5290   28.7230   32.8210 H   0  0  0  0  0  0  0  0  0  0  0  0
   35.4680   28.8880   31.0710 H   0  0  0  0  0  0  0  0  0  0  0  0
   37.7020   28.1900   30.7270 H   0  0  0  0  0  0  0  0  0  0  0  0
   37.9210   29.0510   32.2940 H   0  0  0  0  0  0  0  0  0  0  0  0
   39.1390   26.4890   32.2590 C   0  0  0  0  0  0  0  0  0  0  0  0
   39.4250   26.5320   30.9010 F   0  0  0  0  0  0  0  0  0  0  0  0
   39.4550   25.2410   32.7030 F   0  0  0  0  0  0  0  0  0  0  0  0
   39.8870   27.5000   32.8450 F   0  0  0  0  0  0  0  0  0  0  0  0
   37.3890   26.9660   33.8530 C   0  0  0  0  0  0  0  0  0  0  0  0
   36.5720   27.7150   33.9330 H   0  0  0  0  0  0  0  0  0  0  0  0
   38.2810   27.4750   34.3340 H   0  0  0  0  0  0  0  0  0  0  0  0
   37.3990   25.7990   34.2830 O   0  0  0  0  0  0  0  0  0  0  0  0
   37.7690   25.1550   35.4170 C   0  0  0  0  0  0  0  0  0  0  0  0
   38.1610   26.0080   36.2490 O   0  0  0  0  0  0  0  0  0  0  0  0
   37.9350   23.9650   36.1510 N   0  0  0  0  0  0  0  0  0  0  0  0
   38.5550   22.8580   35.4530 C   0  0  0  0  0  2  0  0  0  0  0  0
   39.4760   22.0730   36.3570 C   0  0  0  0  0  2  0  0  0  0  0  0
   40.0480   23.0260   37.3760 C   0  0  0  0  0  3  0  0  0  0  0  0
   40.8040   22.4920   37.9900 H   0  0  0  0  0  0  0  0  0  0  0  0
   38.9070   23.3840   38.3090 C   0  0  0  0  0  2  0  0  0  0  0  0
   37.6320   23.5150   37.5190 C   0  0  0  0  0  2  0  0  0  0  0  0
  1 12  1  0  0  0  0
  1  2  1  0  0  0  0
  2 13  1  0  0  0  0
  3  2  2  0  0  0  0
  3  7  1  0  0  0  0
  4  3  1  0  0  0  0
  5  6  1  0  0  0  0
  5  4  2  0  0  0  0
  6  1  2  0  0  0  0
  7 11  1  0  0  0  0
  8  7  1  0  0  0  0
  8  9  1  0  0  0  0
  8 16  1  0  0  0  0
  9 17  1  0  0  0  0
 10  9  1  0  0  0  0
 10 20  1  0  0  0  0
 10 11  1  0  0  0  0
 11 21  1  6  0  0  0
 11 25  1  0  0  0  0
 14  5  1  0  0  0  0
 15  8  1  0  0  0  0
 18  9  1  0  0  0  0
 19 10  1  0  0  0  0
 21 23  1  0  0  0  0
 21 24  1  0  0  0  0
 22 21  1  0  0  0  0
 25 26  1  0  0  0  0
 25 28  1  0  0  0  0
 25 27  1  0  0  0  0
 28 29  1  0  0  0  0
 29 31  1  0  0  0  0
 29 30  2  0  0  0  0
 31 37  1  0  0  0  0
 32 31  1  0  0  0  0
 32 33  1  0  0  0  0
 33 34  1  0  0  0  0
 34 35  1  0  0  0  0
 34 36  1  0  0  0  0
 37 36  1  0  0  0  0
M  END
>  <minimizedAffinity>
-5.56248617

$$$$

 OpenBabel03272507273D

 37 39  0  0  1  0  0  0  0  0999 V2000
   36.4310   20.7610   33.4410 C   0  0  0  0  0  0  0  0  0  0  0  0
   37.6150   21.4540   33.7640 C   0  0  0  0  0  0  0  0  0  0  0  0
   37.7640   21.9160   35.0790 C   0  0  0  0  0  0  0  0  0  0  0  0
   36.7790   21.6710   35.9450 N   0  0  0  0  0  0  0  0  0  0  0  0
   35.6600   21.0060   35.6040 C   0  0  0  0  0  0  0  0  0  0  0  0
   35.4940   20.5570   34.3610 N   0  0  0  0  0  0  0  0  0  0  0  0
   38.9220   22.6140   35.4550 N   0  0  0  0  0  0  0  0  0  0  0  0
   40.2520   22.4530   34.8550 C   0  0  0  0  0  0  0  0  0  0  0  0
   41.2120   23.2190   35.7010 C   0  0  0  0  0  0  0  0  0  0  0  0
   40.4690   23.3800   36.9750 C   0  0  0  0  0  0  0  0  0  0  0  0
   39.0700   23.6120   36.4730 C   0  0  2  0  0  0  0  0  0  0  0  0
   36.3030   20.4040   32.4450 H   0  0  0  0  0  0  0  0  0  0  0  0
   38.3900   21.6290   33.0230 H   0  0  0  0  0  0  0  0  0  0  0  0
   34.9320   20.8700   36.3970 H   0  0  0  0  0  0  0  0  0  0  0  0
   40.4300   21.3710   34.8370 H   0  0  0  0  0  0  0  0  0  0  0  0
   40.2070   22.8060   33.8090 H   0  0  0  0  0  0  0  0  0  0  0  0
   41.6260   24.1310   35.2550 H   0  0  0  0  0  0  0  0  0  0  0  0
   42.1100   22.5450   35.8410 H   0  0  0  0  0  0  0  0  0  0  0  0
   40.4830   22.4610   37.5570 H   0  0  0  0  0  0  0  0  0  0  0  0
   40.8300   24.2280   37.5930 H   0  0  0  0  0  0  0  0  0  0  0  0
   38.0530   23.6460   37.5660 C   0  0  0  0  0  0  0  0  0  0  0  0
   38.4680   24.6260   38.4570 F   0  0  0  0  0  0  0  0  0  0  0  0
   37.9000   22.4910   38.2730 F   0  0  0  0  0  0  0  0  0  0  0  0
   36.8790   24.1130   36.9930 F   0  0  0  0  0  0  0  0  0  0  0  0
   39.0310   24.9210   35.7640 C   0  0  0  0  0  0  0  0  0  0  0  0
   40.0730   25.0950   35.4190 H   0  0  0  0  0  0  0  0  0  0  0  0
   38.8700   25.7000   36.5700 H   0  0  0  0  0  0  0  0  0  0  0  0
   37.9900   24.9250   35.0820 O   0  0  0  0  0  0  0  0  0  0  0  0
   37.5390   25.5230   33.9520 C   0  0  0  0  0  0  0  0  0  0  0  0
   37.0670   26.6450   34.2560 O   0  0  0  0  0  0  0  0  0  0  0  0
   37.3310   25.5110   32.5600 N   0  0  0  0  0  0  0  0  0  0  0  0
   36.7870   24.2920   31.9990 C   0  0  0  0  0  2  0  0  0  0  0  0
   35.8070   24.5770   30.8850 C   0  0  0  0  0  2  0  0  0  0  0  0
   35.1390   25.8970   31.1840 C   0  0  0  0  0  3  0  0  0  0  0  0
   34.3440   26.0800   30.4300 H   0  0  0  0  0  0  0  0  0  0  0  0
   36.1950   26.9640   30.9670 C   0  0  0  0  0  2  0  0  0  0  0  0
   37.5280   26.4610   31.4530 C   0  0  0  0  0  2  0  0  0  0  0  0
  1  2  2  0  0  0  0
  1  6  1  0  0  0  0
  2  3  1  0  0  0  0
  3  7  1  0  0  0  0
  3  4  2  0  0  0  0
  5  4  1  0  0  0  0
  5 14  1  0  0  0  0
  6  5  2  0  0  0  0
  7 11  1  0  0  0  0
  8  7  1  0  0  0  0
  8  9  1  0  0  0  0
  9 18  1  0  0  0  0
  9 10  1  0  0  0  0
 10 19  1  0  0  0  0
 10 20  1  0  0  0  0
 11 25  1  6  0  0  0
 11 10  1  0  0  0  0
 11 21  1  0  0  0  0
 12  1  1  0  0  0  0
 13  2  1  0  0  0  0
 15  8  1  0  0  0  0
 16  8  1  0  0  0  0
 17  9  1  0  0  0  0
 21 23  1  0  0  0  0
 21 22  1  0  0  0  0
 24 21  1  0  0  0  0
 25 27  1  0  0  0  0
 26 25  1  0  0  0  0
 28 25  1  0  0  0  0
 29 30  2  0  0  0  0
 29 28  1  0  0  0  0
 31 29  1  0  0  0  0
 32 31  1  0  0  0  0
 33 34  1  0  0  0  0
 33 32  1  0  0  0  0
 35 34  1  0  0  0  0
 36 34  1  0  0  0  0
 36 37  1  0  0  0  0
 37 31  1  0  0  0  0
M  END
>  <minimizedAffinity>
-5.5514946

$$$$

 OpenBabel03272507273D

 37 39  0  0  1  0  0  0  0  0999 V2000
   34.8450   29.3470   32.4120 C   0  0  0  0  0  0  0  0  0  0  0  0
   35.6070   28.6710   33.3870 C   0  0  0  0  0  0  0  0  0  0  0  0
   36.8770   28.2080   33.0150 C   0  0  0  0  0  0  0  0  0  0  0  0
   37.2880   28.4350   31.7650 N   0  0  0  0  0  0  0  0  0  0  0  0
   36.5340   29.0840   30.8600 C   0  0  0  0  0  0  0  0  0  0  0  0
   35.3240   29.5350   31.1870 N   0  0  0  0  0  0  0  0  0  0  0  0
   37.6790   27.5260   33.9440 N   0  0  0  0  0  0  0  0  0  0  0  0
   37.6470   27.7100   35.4010 C   0  0  0  0  0  0  0  0  0  0  0  0
   38.8040   26.9560   35.9640 C   0  0  0  0  0  0  0  0  0  0  0  0
   39.6850   26.7790   34.7840 C   0  0  0  0  0  0  0  0  0  0  0  0
   38.6760   26.5270   33.6960 C   0  0  2  0  0  0  0  0  0  0  0  0
   33.8770   29.7070   32.6800 H   0  0  0  0  0  0  0  0  0  0  0  0
   35.2300   28.5110   34.3920 H   0  0  0  0  0  0  0  0  0  0  0  0
   36.9780   29.2060   29.8770 H   0  0  0  0  0  0  0  0  0  0  0  0
   37.6970   28.7940   35.5540 H   0  0  0  0  0  0  0  0  0  0  0  0
   36.6680   27.3600   35.7740 H   0  0  0  0  0  0  0  0  0  0  0  0
   38.5580   26.0510   36.5330 H   0  0  0  0  0  0  0  0  0  0  0  0
   39.2820   27.6420   36.7240 H   0  0  0  0  0  0  0  0  0  0  0  0
   40.2230   27.6960   34.5540 H   0  0  0  0  0  0  0  0  0  0  0  0
   40.3970   25.9340   34.8870 H   0  0  0  0  0  0  0  0  0  0  0  0
   39.2840   26.4740   32.3340 C   0  0  0  0  0  0  0  0  0  0  0  0
   39.9950   27.6560   32.1750 F   0  0  0  0  0  0  0  0  0  0  0  0
   38.4090   26.3820   31.2940 F   0  0  0  0  0  0  0  0  0  0  0  0
   40.2270   25.4560   32.3660 F   0  0  0  0  0  0  0  0  0  0  0  0
   38.0120   25.2200   33.9590 C   0  0  0  0  0  0  0  0  0  0  0  0
   37.5660   25.3190   34.9720 H   0  0  0  0  0  0  0  0  0  0  0  0
   38.8530   24.4730   34.0960 H   0  0  0  0  0  0  0  0  0  0  0  0
   37.4420   24.8920   32.9030 O   0  0  0  0  0  0  0  0  0  0  0  0
   36.9860   23.7530   32.3270 C   0  0  0  0  0  0  0  0  0  0  0  0
   36.2340   24.0650   31.3710 O   0  0  0  0  0  0  0  0  0  0  0  0
   36.9350   22.3480   32.2630 N   0  0  0  0  0  0  0  0  0  0  0  0
   36.7540   21.6520   33.5200 C   0  0  0  0  0  2  0  0  0  0  0  0
   35.8580   20.4450   33.3670 C   0  0  0  0  0  2  0  0  0  0  0  0
   34.8720   20.7380   32.2640 C   0  0  0  0  0  3  0  0  0  0  0  0
   34.1400   19.9050   32.2000 H   0  0  0  0  0  0  0  0  0  0  0  0
   35.6640   20.7190   30.9710 C   0  0  0  0  0  2  0  0  0  0  0  0
   37.0190   21.3340   31.2010 C   0  0  0  0  0  2  0  0  0  0  0  0
  1 12  1  0  0  0  0
  1  2  1  0  0  0  0
  2 13  1  0  0  0  0
  3  2  2  0  0  0  0
  3  7  1  0  0  0  0
  4  3  1  0  0  0  0
  5  6  1  0  0  0  0
  5  4  2  0  0  0  0
  6  1  2  0  0  0  0
  7  8  1  0  0  0  0
  8 15  1  0  0  0  0
  8 16  1  0  0  0  0
  8  9  1  0  0  0  0
  9 17  1  0  0  0  0
  9 18  1  0  0  0  0
 10 20  1  0  0  0  0
 10  9  1  0  0  0  0
 11 21  1  6  0  0  0
 11  7  1  0  0  0  0
 11 25  1  0  0  0  0
 11 10  1  0  0  0  0
 14  5  1  0  0  0  0
 19 10  1  0  0  0  0
 21 24  1  0  0  0  0
 22 21  1  0  0  0  0
 23 21  1  0  0  0  0
 25 27  1  0  0  0  0
 25 26  1  0  0  0  0
 28 25  1  0  0  0  0
 29 28  1  0  0  0  0
 30 29  2  0  0  0  0
 31 29  1  0  0  0  0
 31 32  1  0  0  0  0
 33 32  1  0  0  0  0
 34 33  1  0  0  0  0
 35 34  1  0  0  0  0
 36 37  1  0  0  0  0
 36 34  1  0  0  0  0
 37 31  1  0  0  0  0
M  END
>  <minimizedAffinity>
-5.45977163

$$$$

 OpenBabel03272507273D

 37 39  0  0  1  0  0  0  0  0999 V2000
   39.3170   22.7450   37.5720 C   0  0  0  0  0  0  0  0  0  0  0  0
   39.8280   23.3820   36.4230 C   0  0  0  0  0  0  0  0  0  0  0  0
   39.2990   24.6350   36.0830 C   0  0  0  0  0  0  0  0  0  0  0  0
   38.3480   25.1490   36.8650 N   0  0  0  0  0  0  0  0  0  0  0  0
   37.8820   24.5130   37.9550 C   0  0  0  0  0  0  0  0  0  0  0  0
   38.3670   23.3220   38.3010 N   0  0  0  0  0  0  0  0  0  0  0  0
   39.7700   25.3150   34.9480 N   0  0  0  0  0  0  0  0  0  0  0  0
   41.1170   25.1950   34.3750 C   0  0  0  0  0  0  0  0  0  0  0  0
   41.2430   26.2480   33.3260 C   0  0  0  0  0  0  0  0  0  0  0  0
   40.1560   27.1930   33.6790 C   0  0  0  0  0  0  0  0  0  0  0  0
   39.0700   26.2470   34.1140 C   0  0  2  0  0  0  0  0  0  0  0  0
   39.7080   21.7910   37.8440 H   0  0  0  0  0  0  0  0  0  0  0  0
   40.6040   22.9240   35.8180 H   0  0  0  0  0  0  0  0  0  0  0  0
   37.1070   25.0330   38.5090 H   0  0  0  0  0  0  0  0  0  0  0  0
   41.8010   25.3180   35.2230 H   0  0  0  0  0  0  0  0  0  0  0  0
   41.2390   24.1680   33.9870 H   0  0  0  0  0  0  0  0  0  0  0  0
   41.2690   25.8930   32.2890 H   0  0  0  0  0  0  0  0  0  0  0  0
   42.2570   26.7230   33.4830 H   0  0  0  0  0  0  0  0  0  0  0  0
   40.4360   27.8160   34.5260 H   0  0  0  0  0  0  0  0  0  0  0  0
   39.8310   27.8290   32.8290 H   0  0  0  0  0  0  0  0  0  0  0  0
   37.8830   26.9430   34.6930 C   0  0  0  0  0  0  0  0  0  0  0  0
   38.3550   27.7060   35.7520 F   0  0  0  0  0  0  0  0  0  0  0  0
   36.8980   26.1370   35.1770 F   0  0  0  0  0  0  0  0  0  0  0  0
   37.4500   27.8430   33.7290 F   0  0  0  0  0  0  0  0  0  0  0  0
   38.6190   25.4670   32.9290 C   0  0  0  0  0  0  0  0  0  0  0  0
   39.5180   25.3700   32.2840 H   0  0  0  0  0  0  0  0  0  0  0  0
   37.9350   26.1600   32.3500 H   0  0  0  0  0  0  0  0  0  0  0  0
   37.8860   24.5580   33.3590 O   0  0  0  0  0  0  0  0  0  0  0  0
   37.6360   23.2570   33.0730 C   0  0  0  0  0  0  0  0  0  0  0  0
   38.7270   22.6390   33.0450 O   0  0  0  0  0  0  0  0  0  0  0  0
   36.7300   22.2190   32.7840 N   0  0  0  0  0  0  0  0  0  0  0  0
   35.6980   22.5150   31.8120 C   0  0  0  0  0  2  0  0  0  0  0  0
   35.4090   21.3280   30.9240 C   0  0  0  0  0  2  0  0  0  0  0  0
   36.6850   20.5350   30.7810 C   0  0  0  0  0  3  0  0  0  0  0  0
   36.5220   19.7120   30.0530 H   0  0  0  0  0  0  0  0  0  0  0  0
   36.9290   19.8810   32.1270 C   0  0  0  0  0  2  0  0  0  0  0  0
   36.5370   20.8290   33.2280 C   0  0  0  0  0  2  0  0  0  0  0  0
  1 12  1  0  0  0  0
  1  6  1  0  0  0  0
  2  1  2  0  0  0  0
  3  2  1  0  0  0  0
  3  4  2  0  0  0  0
  4  5  1  0  0  0  0
  5  6  2  0  0  0  0
  5 14  1  0  0  0  0
  7  3  1  0  0  0  0
  8  7  1  0  0  0  0
  8 15  1  0  0  0  0
  9 18  1  0  0  0  0
  9 10  1  0  0  0  0
  9  8  1  0  0  0  0
 10 11  1  0  0  0  0
 10 19  1  0  0  0  0
 11 25  1  6  0  0  0
 11 21  1  0  0  0  0
 11  7  1  0  0  0  0
 13  2  1  0  0  0  0
 16  8  1  0  0  0  0
 17  9  1  0  0  0  0
 20 10  1  0  0  0  0
 21 23  1  0  0  0  0
 21 22  1  0  0  0  0
 24 21  1  0  0  0  0
 25 28  1  0  0  0  0
 26 25  1  0  0  0  0
 27 25  1  0  0  0  0
 29 28  1  0  0  0  0
 30 29  2  0  0  0  0
 31 29  1  0  0  0  0
 31 37  1  0  0  0  0
 32 31  1  0  0  0  0
 33 32  1  0  0  0  0
 34 33  1  0  0  0  0
 34 36  1  0  0  0  0
 35 34  1  0  0  0  0
 36 37  1  0  0  0  0
M  END
>  <minimizedAffinity>
-5.40682554

$$$$

 OpenBabel03272507273D

 37 39  0  0  1  0  0  0  0  0999 V2000
   42.6420   21.8060   36.1560 C   0  0  0  0  0  0  0  0  0  0  0  0
   42.2760   22.9920   35.4880 C   0  0  0  0  0  0  0  0  0  0  0  0
   41.0810   23.6160   35.8750 C   0  0  0  0  0  0  0  0  0  0  0  0
   40.3650   23.0520   36.8500 N   0  0  0  0  0  0  0  0  0  0  0  0
   40.7440   21.9180   37.4670 C   0  0  0  0  0  0  0  0  0  0  0  0
   41.8740   21.3050   37.1180 N   0  0  0  0  0  0  0  0  0  0  0  0
   40.6670   24.7990   35.2430 N   0  0  0  0  0  0  0  0  0  0  0  0
   41.5510   25.8010   34.6350 C   0  0  0  0  0  0  0  0  0  0  0  0
   40.7070   26.9790   34.2850 C   0  0  0  0  0  0  0  0  0  0  0  0
   39.5010   26.7780   35.1260 C   0  0  0  0  0  0  0  0  0  0  0  0
   39.3320   25.2850   35.0480 C   0  0  2  0  0  0  0  0  0  0  0  0
   43.5480   21.3190   35.8730 H   0  0  0  0  0  0  0  0  0  0  0  0
   42.8920   23.4130   34.7000 H   0  0  0  0  0  0  0  0  0  0  0  0
   40.0770   21.5590   38.2430 H   0  0  0  0  0  0  0  0  0  0  0  0
   42.3180   26.0040   35.3920 H   0  0  0  0  0  0  0  0  0  0  0  0
   42.0500   25.3410   33.7630 H   0  0  0  0  0  0  0  0  0  0  0  0
   40.5370   27.1500   33.2150 H   0  0  0  0  0  0  0  0  0  0  0  0
   41.2860   27.8890   34.6240 H   0  0  0  0  0  0  0  0  0  0  0  0
   39.6930   27.0540   36.1600 H   0  0  0  0  0  0  0  0  0  0  0  0
   38.6050   27.3130   34.7480 H   0  0  0  0  0  0  0  0  0  0  0  0
   38.2650   24.7680   35.9560 C   0  0  0  0  0  0  0  0  0  0  0  0
   37.1670   25.6000   35.7830 F   0  0  0  0  0  0  0  0  0  0  0  0
   38.5660   24.7590   37.2840 F   0  0  0  0  0  0  0  0  0  0  0  0
   37.8950   23.5270   35.4560 F   0  0  0  0  0  0  0  0  0  0  0  0
   38.9700   24.9200   33.6510 C   0  0  0  0  0  0  0  0  0  0  0  0
   39.2000   23.8370   33.5640 H   0  0  0  0  0  0  0  0  0  0  0  0
   39.7440   25.4230   32.9940 H   0  0  0  0  0  0  0  0  0  0  0  0
   37.8950   25.4950   33.4010 O   0  0  0  0  0  0  0  0  0  0  0  0
   37.4650   26.5070   32.6080 C   0  0  0  0  0  0  0  0  0  0  0  0
   36.2650   26.2960   32.3100 O   0  0  0  0  0  0  0  0  0  0  0  0
   37.7020   27.7190   31.9310 N   0  0  0  0  0  0  0  0  0  0  0  0
   38.9390   27.8090   31.1840 C   0  0  0  0  0  2  0  0  0  0  0  0
   38.7570   28.5670   29.8910 C   0  0  0  0  0  2  0  0  0  0  0  0
   37.3450   28.3360   29.4140 C   0  0  0  0  0  3  0  0  0  0  0  0
   37.2190   28.8030   28.4140 H   0  0  0  0  0  0  0  0  0  0  0  0
   36.4460   29.1010   30.3660 C   0  0  0  0  0  2  0  0  0  0  0  0
   36.9890   28.9950   31.7660 C   0  0  0  0  0  2  0  0  0  0  0  0
  1  6  1  0  0  0  0
  2  3  1  0  0  0  0
  2  1  2  0  0  0  0
  3  4  2  0  0  0  0
  4  5  1  0  0  0  0
  5 14  1  0  0  0  0
  6  5  2  0  0  0  0
  7  3  1  0  0  0  0
  8  7  1  0  0  0  0
  8 15  1  0  0  0  0
  9 18  1  0  0  0  0
  9  8  1  0  0  0  0
  9 10  1  0  0  0  0
 10 19  1  0  0  0  0
 11 25  1  6  0  0  0
 11 10  1  0  0  0  0
 11  7  1  0  0  0  0
 11 21  1  0  0  0  0
 12  1  1  0  0  0  0
 13  2  1  0  0  0  0
 16  8  1  0  0  0  0
 17  9  1  0  0  0  0
 20 10  1  0  0  0  0
 21 23  1  0  0  0  0
 22 21  1  0  0  0  0
 24 21  1  0  0  0  0
 26 25  1  0  0  0  0
 27 25  1  0  0  0  0
 28 25  1  0  0  0  0
 29 28  1  0  0  0  0
 30 29  2  0  0  0  0
 31 29  1  0  0  0  0
 32 31  1  0  0  0  0
 33 32  1  0  0  0  0
 34 33  1  0  0  0  0
 34 36  1  0  0  0  0
 35 34  1  0  0  0  0
 36 37  1  0  0  0  0
 37 31  1  0  0  0  0
M  END
>  <minimizedAffinity>
-5.40023899

$$$$
