
 OpenBabel03272508423D

 18 19  0  0  0  0  0  0  0  0999 V2000
   37.9670   30.4520   50.9050 C   0  0  0  0  0  0  0  0  0  0  0  0
   38.4350   31.4810   50.0760 C   0  0  0  0  0  0  0  0  0  0  0  0
   37.6310   31.8690   49.0080 C   0  0  0  0  0  0  0  0  0  0  0  0
   36.4400   31.2280   48.8320 N   0  0  0  0  0  0  0  0  0  0  0  0
   36.0260   30.2420   49.6560 C   0  0  0  0  0  0  0  0  0  0  0  0
   36.7780   29.8530   50.6830 N   0  0  0  0  0  0  0  0  0  0  0  0
   38.6060   30.1500   51.7470 H   0  0  0  0  0  0  0  0  0  0  0  0
   39.3960   31.9180   50.3100 H   0  0  0  0  0  0  0  0  0  0  0  0
   37.9790   32.6580   48.3620 H   0  0  0  0  0  0  0  0  0  0  0  0
   34.7620   29.5550   49.4760 C   0  0  0  0  0  0  0  0  0  0  0  0
   33.8190   29.5980   50.3190 O   0  0  0  0  0  0  0  0  0  0  0  0
   34.3770   28.7490   48.3680 N   0  0  0  0  0  0  0  0  0  0  0  0
   34.3660   29.4180   47.0810 C   0  0  0  0  0  2  0  0  0  0  0  0
   32.9070   29.3090   46.6220 C   0  0  0  0  0  2  0  0  0  0  0  0
   32.7320   27.8500   46.2720 C   0  0  0  0  0  3  0  0  0  0  0  0
   31.7030   27.7220   45.8750 H   0  0  0  0  0  0  0  0  0  0  0  0
   32.8640   26.9860   47.4970 C   0  0  0  0  0  2  0  0  0  0  0  0
   34.0050   27.3610   48.3910 C   0  0  0  0  0  2  0  0  0  0  0  0
  1  7  1  0  0  0  0
  2  8  1  0  0  0  0
  2  1  2  0  0  0  0
  3  2  1  0  0  0  0
  4  3  2  0  0  0  0
  4  5  1  0  0  0  0
  5  6  2  0  0  0  0
  6  1  1  0  0  0  0
  9  3  1  0  0  0  0
 10  5  1  0  0  0  0
 10 11  2  0  0  0  0
 12 18  1  0  0  0  0
 12 10  1  0  0  0  0
 13 12  1  0  0  0  0
 14 13  1  0  0  0  0
 15 14  1  0  0  0  0
 15 17  1  0  0  0  0
 16 15  1  0  0  0  0
 17 18  1  0  0  0  0
M  END
>  <minimizedAffinity>
-4.09559774

>  <minimizedRMSD>
2.13434935

$$$$
