
 OpenBabel03272507273D

 37 39  0  0  1  0  0  0  0  0999 V2000
   36.9170   29.7340   49.5900 C   0  0  0  0  0  0  0  0  0  0  0  0
   37.8100   30.4130   48.7360 C   0  0  0  0  0  0  0  0  0  0  0  0
   37.3700   30.7190   47.4410 C   0  0  0  0  0  0  0  0  0  0  0  0
   36.1340   30.3520   47.0950 N   0  0  0  0  0  0  0  0  0  0  0  0
   35.3060   29.7040   47.9350 C   0  0  0  0  0  0  0  0  0  0  0  0
   35.7000   29.4010   49.1710 N   0  0  0  0  0  0  0  0  0  0  0  0
   38.2180   31.3930   46.5480 N   0  0  0  0  0  0  0  0  0  0  0  0
   39.2850   32.3300   46.9220 C   0  0  0  0  0  0  0  0  0  0  0  0
   39.7730   32.9660   45.6640 C   0  0  0  0  0  0  0  0  0  0  0  0
   38.6600   32.7110   44.7170 C   0  0  0  0  0  0  0  0  0  0  0  0
   38.2420   31.3220   45.1170 C   0  0  2  0  0  0  0  0  0  0  0  0
   37.2370   29.4930   50.5780 H   0  0  0  0  0  0  0  0  0  0  0  0
   38.8070   30.6910   49.0640 H   0  0  0  0  0  0  0  0  0  0  0  0
   34.3270   29.4600   47.5360 H   0  0  0  0  0  0  0  0  0  0  0  0
   38.8190   33.0280   47.6290 H   0  0  0  0  0  0  0  0  0  0  0  0
   40.0660   31.7690   47.4650 H   0  0  0  0  0  0  0  0  0  0  0  0
   40.7760   32.6710   45.3340 H   0  0  0  0  0  0  0  0  0  0  0  0
   39.8660   34.0700   45.8890 H   0  0  0  0  0  0  0  0  0  0  0  0
   37.8290   33.3900   44.8950 H   0  0  0  0  0  0  0  0  0  0  0  0
   38.9680   32.7570   43.6510 H   0  0  0  0  0  0  0  0  0  0  0  0
   37.0030   30.8600   44.4230 C   0  0  0  0  0  0  0  0  0  0  0  0
   35.9350   31.3830   45.1390 F   0  0  0  0  0  0  0  0  0  0  0  0
   36.8280   29.5110   44.3540 F   0  0  0  0  0  0  0  0  0  0  0  0
   36.9890   31.4930   43.1880 F   0  0  0  0  0  0  0  0  0  0  0  0
   39.3430   30.3790   44.7780 C   0  0  0  0  0  0  0  0  0  0  0  0
   39.0650   29.4200   45.2640 H   0  0  0  0  0  0  0  0  0  0  0  0
   40.2430   30.7390   45.3650 H   0  0  0  0  0  0  0  0  0  0  0  0
   39.6240   30.5760   43.5820 O   0  0  0  0  0  0  0  0  0  0  0  0
   39.8650   29.8300   42.4770 C   0  0  0  0  0  0  0  0  0  0  0  0
   38.9940   30.1020   41.6150 O   0  0  0  0  0  0  0  0  0  0  0  0
   40.6320   28.8690   41.7900 N   0  0  0  0  0  0  0  0  0  0  0  0
   40.0480   27.5510   41.6590 C   0  0  0  0  0  2  0  0  0  0  0  0
   40.3540   26.9330   40.3160 C   0  0  0  0  0  2  0  0  0  0  0  0
   40.4750   28.0510   39.3100 C   0  0  0  0  0  3  0  0  0  0  0  0
   40.6030   27.6150   38.2960 H   0  0  0  0  0  0  0  0  0  0  0  0
   41.7670   28.7770   39.6350 C   0  0  0  0  0  2  0  0  0  0  0  0
   41.9460   28.8420   41.1290 C   0  0  0  0  0  2  0  0  0  0  0  0
  1 12  1  0  0  0  0
  2 13  1  0  0  0  0
  2  1  2  0  0  0  0
  3  2  1  0  0  0  0
  4  3  2  0  0  0  0
  4  5  1  0  0  0  0
  5  6  2  0  0  0  0
  6  1  1  0  0  0  0
  7  8  1  0  0  0  0
  7  3  1  0  0  0  0
  8 16  1  0  0  0  0
  8 15  1  0  0  0  0
  9 18  1  0  0  0  0
  9  8  1  0  0  0  0
 10 19  1  0  0  0  0
 10 11  1  0  0  0  0
 10  9  1  0  0  0  0
 11 21  1  6  0  0  0
 11  7  1  0  0  0  0
 14  5  1  0  0  0  0
 17  9  1  0  0  0  0
 20 10  1  0  0  0  0
 21 22  1  0  0  0  0
 23 21  1  0  0  0  0
 24 21  1  0  0  0  0
 25 11  1  0  0  0  0
 25 26  1  0  0  0  0
 25 27  1  0  0  0  0
 28 25  1  0  0  0  0
 29 28  1  0  0  0  0
 30 29  2  0  0  0  0
 31 29  1  0  0  0  0
 32 31  1  0  0  0  0
 33 32  1  0  0  0  0
 34 36  1  0  0  0  0
 34 33  1  0  0  0  0
 35 34  1  0  0  0  0
 36 37  1  0  0  0  0
 37 31  1  0  0  0  0
M  END
>  <minimizedAffinity>
-5.02389383

>  <minimizedRMSD>
1.03667819

$$$$
