
 OpenBabel03272509433D

 36 38  0  0  1  0  0  0  0  0999 V2000
   37.0240   30.9060   49.0910 C   0  0  0  0  0  0  0  0  0  0  0  0
   36.7310   31.8120   50.1110 C   0  0  0  0  0  0  0  0  0  0  0  0
   37.3090   33.0690   50.1640 C   0  0  0  0  0  0  0  0  0  0  0  0
   38.2130   33.4510   49.1710 C   0  0  0  0  0  0  0  0  0  0  0  0
   38.4920   32.5580   48.1780 C   0  0  0  0  0  0  0  0  0  0  0  0
   37.8960   31.3070   48.1590 C   0  0  0  0  0  0  0  0  0  0  0  0
   36.0260   31.5360   50.9020 H   0  0  0  0  0  0  0  0  0  0  0  0
   37.0320   33.7090   50.9820 H   0  0  0  0  0  0  0  0  0  0  0  0
   38.6010   34.4400   49.3010 H   0  0  0  0  0  0  0  0  0  0  0  0
   39.2100   32.9990   47.4850 H   0  0  0  0  0  0  0  0  0  0  0  0
   36.4470   29.5790   49.0550 C   0  0  2  0  0  0  0  0  0  0  0  0
   36.9490   29.0560   48.1520 H   0  0  0  0  0  0  0  0  0  0  0  0
   33.5870   29.9200   46.8420 C   0  0  0  0  0  0  0  0  0  0  0  0
   32.8420   28.7840   47.0720 C   0  0  0  0  0  0  0  0  0  0  0  0
   33.2830   27.9080   48.0450 C   0  0  0  0  0  0  0  0  0  0  0  0
   34.4370   28.1940   48.7430 N   0  0  0  0  0  0  0  0  0  0  0  0
   35.1050   29.2960   48.4720 C   0  0  0  0  0  0  0  0  0  0  0  0
   34.6870   30.1660   47.5250 N   0  0  0  0  0  0  0  0  0  0  0  0
   33.2080   30.5690   46.0830 H   0  0  0  0  0  0  0  0  0  0  0  0
   31.9300   28.4960   46.5650 H   0  0  0  0  0  0  0  0  0  0  0  0
   32.7740   26.9760   48.3190 H   0  0  0  0  0  0  0  0  0  0  0  0
   36.9290   28.8100   49.9660 O   0  0  0  0  0  0  0  0  0  0  0  0
   36.4170   28.4120   50.6830 H   0  0  0  0  0  0  0  0  0  0  0  0
   38.3050   30.4520   47.0700 C   0  0  0  0  0  0  0  0  0  0  0  0
   38.8060   30.8980   45.9140 C   0  0  0  0  0  0  0  0  0  0  0  0
   39.2930   30.1150   44.7530 C   0  0  0  0  0  0  0  0  0  0  0  0
   38.7070   29.1680   44.6270 H   0  0  0  0  0  0  0  0  0  0  0  0
   40.3410   29.7750   44.9210 H   0  0  0  0  0  0  0  0  0  0  0  0
   39.2700   31.1440   43.2820 S   0  0  0  0  0  0  0  0  0  0  0  0
   42.7770   30.4240   40.9970 H   0  0  0  0  0  0  0  0  0  0  0  0
   42.2270   29.8210   40.3660 N   0  0  0  0  0  0  0  0  0  0  0  0
   41.1910   30.5950   39.7080 C   0  0  0  0  0  0  0  0  0  0  0  0
   40.1220   31.0750   40.6700 C   0  0  0  0  0  0  0  0  0  0  0  0
   40.5410   30.6910   42.0730 C   0  0  0  0  0  0  0  0  0  0  0  0
   40.6700   29.1770   42.1130 C   0  0  0  0  0  0  0  0  0  0  0  0
   41.6410   28.6920   41.0730 C   0  0  0  0  0  0  0  0  0  0  0  0
  1  2  1  0  0  0  0
  2  3  2  0  0  0  0
  2  7  1  0  0  0  0
  3  8  1  0  0  0  0
  4  9  1  0  0  0  0
  4  3  1  0  0  0  0
  5  4  2  0  0  0  0
  6  5  1  0  0  0  0
  6  1  2  0  0  0  0
 10  5  1  0  0  0  0
 11 12  1  6  0  0  0
 11  1  1  0  0  0  0
 11 22  1  0  0  0  0
 13 14  2  0  0  0  0
 13 18  1  0  0  0  0
 14 15  1  0  0  0  0
 15 21  1  0  0  0  0
 15 16  2  0  0  0  0
 17 16  1  0  0  0  0
 17 11  1  0  0  0  0
 18 17  2  0  0  0  0
 19 13  1  0  0  0  0
 20 14  1  0  0  0  0
 22 23  1  0  0  0  0
 24  6  1  0  0  0  0
 25 24  2  0  0  0  0
 26 28  1  0  0  0  0
 26 25  1  0  0  0  0
 27 26  1  0  0  0  0
 29 26  1  0  0  0  0
 31 30  1  0  0  0  0
 31 36  1  0  0  0  0
 32 31  1  0  0  0  0
 32 33  1  0  0  0  0
 33 34  1  0  0  0  0
 34 35  1  0  0  0  0
 34 29  1  0  0  0  0
 36 35  1  0  0  0  0
M  END
>  <minimizedAffinity>
-5.99213266

>  <minimizedRMSD>
0.924973667

$$$$
