
 OpenBabel03272501303D

 18 19  0  0  0  0  0  0  0  0999 V2000
   37.4340   30.0470   50.5220 C   0  0  0  0  0  0  0  0  0  0  0  0
   38.2850   31.0710   50.0670 C   0  0  0  0  0  0  0  0  0  0  0  0
   37.9420   31.7240   48.8740 C   0  0  0  0  0  0  0  0  0  0  0  0
   36.8130   31.3250   48.2410 N   0  0  0  0  0  0  0  0  0  0  0  0
   36.0300   30.3490   48.7060 C   0  0  0  0  0  0  0  0  0  0  0  0
   36.3180   29.6960   49.8410 N   0  0  0  0  0  0  0  0  0  0  0  0
   37.6270   29.4940   51.4330 H   0  0  0  0  0  0  0  0  0  0  0  0
   39.1650   31.3160   50.6440 H   0  0  0  0  0  0  0  0  0  0  0  0
   35.1520   30.1390   48.0830 H   0  0  0  0  0  0  0  0  0  0  0  0
   38.8020   32.7780   48.3880 C   0  0  0  0  0  0  0  0  0  0  0  0
   39.0580   33.8300   49.0470 O   0  0  0  0  0  0  0  0  0  0  0  0
   39.3670   32.5780   47.0940 N   0  0  0  0  0  0  0  0  0  0  0  0
   40.0130   33.5590   46.2190 C   0  0  0  0  0  0  0  0  0  0  0  0
   39.7880   33.1640   44.7740 C   0  0  0  0  0  0  0  0  0  0  0  0
   40.4830   31.8630   44.4270 C   0  0  0  0  0  0  0  0  0  0  0  0
   39.9210   31.2770   43.6610 H   0  0  0  0  0  0  0  0  0  0  0  0
   40.6060   31.0030   45.6860 C   0  0  0  0  0  0  0  0  0  0  0  0
   39.3300   31.2430   46.5010 C   0  0  0  0  0  0  0  0  0  0  0  0
  1  7  1  0  0  0  0
  2  1  1  0  0  0  0
  2  8  1  0  0  0  0
  3  2  2  0  0  0  0
  4  5  2  0  0  0  0
  4  3  1  0  0  0  0
  5  6  1  0  0  0  0
  6  1  2  0  0  0  0
  9  5  1  0  0  0  0
 10  3  1  0  0  0  0
 10 11  2  0  0  0  0
 12 10  1  0  0  0  0
 13 12  1  0  0  0  0
 14 13  1  0  0  0  0
 15 14  1  0  0  0  0
 15 17  1  0  0  0  0
 16 15  1  0  0  0  0
 17 18  1  0  0  0  0
 18 12  1  0  0  0  0
M  END
>  <minimizedAffinity>
-5.41741896

>  <minimizedRMSD>
2.70204949

$$$$
