
 OpenBabel03272509433D

 36 38  0  0  1  0  0  0  0  0999 V2000
   37.0230   30.9060   49.0920 C   0  0  0  0  0  0  0  0  0  0  0  0
   36.7290   31.8120   50.1110 C   0  0  0  0  0  0  0  0  0  0  0  0
   37.3060   33.0700   50.1640 C   0  0  0  0  0  0  0  0  0  0  0  0
   38.2110   33.4520   49.1730 C   0  0  0  0  0  0  0  0  0  0  0  0
   38.4920   32.5580   48.1800 C   0  0  0  0  0  0  0  0  0  0  0  0
   37.8960   31.3070   48.1610 C   0  0  0  0  0  0  0  0  0  0  0  0
   36.0230   31.5360   50.9010 H   0  0  0  0  0  0  0  0  0  0  0  0
   37.0280   33.7100   50.9820 H   0  0  0  0  0  0  0  0  0  0  0  0
   38.5990   34.4410   49.3040 H   0  0  0  0  0  0  0  0  0  0  0  0
   39.2100   33.0000   47.4880 H   0  0  0  0  0  0  0  0  0  0  0  0
   36.4470   29.5790   49.0550 C   0  0  2  0  0  0  0  0  0  0  0  0
   36.9490   29.0570   48.1520 H   0  0  0  0  0  0  0  0  0  0  0  0
   33.5870   29.9190   46.8410 C   0  0  0  0  0  0  0  0  0  0  0  0
   32.8420   28.7830   47.0720 C   0  0  0  0  0  0  0  0  0  0  0  0
   33.2830   27.9080   48.0450 C   0  0  0  0  0  0  0  0  0  0  0  0
   34.4370   28.1940   48.7430 N   0  0  0  0  0  0  0  0  0  0  0  0
   35.1050   29.2960   48.4720 C   0  0  0  0  0  0  0  0  0  0  0  0
   34.6870   30.1660   47.5250 N   0  0  0  0  0  0  0  0  0  0  0  0
   33.2080   30.5680   46.0820 H   0  0  0  0  0  0  0  0  0  0  0  0
   31.9300   28.4950   46.5650 H   0  0  0  0  0  0  0  0  0  0  0  0
   32.7740   26.9760   48.3190 H   0  0  0  0  0  0  0  0  0  0  0  0
   36.9280   28.8100   49.9660 O   0  0  0  0  0  0  0  0  0  0  0  0
   36.4170   28.4110   50.6830 H   0  0  0  0  0  0  0  0  0  0  0  0
   38.3070   30.4520   47.0720 C   0  0  0  0  0  3  0  0  0  0  0  0
   38.8010   30.8990   45.9130 C   0  0  0  0  0  3  0  0  0  0  0  0
   39.2890   30.1160   44.7530 C   0  0  0  0  0  0  0  0  0  0  0  0
   38.7020   29.1700   44.6250 H   0  0  0  0  0  0  0  0  0  0  0  0
   40.3360   29.7740   44.9220 H   0  0  0  0  0  0  0  0  0  0  0  0
   39.2700   31.1460   43.2820 S   0  0  0  0  0  0  0  0  0  0  0  0
   42.7780   30.4210   41.0000 H   0  0  0  0  0  0  0  0  0  0  0  0
   42.2260   29.8180   40.3690 N   0  0  0  0  0  0  0  0  0  0  0  0
   41.1920   30.5930   39.7090 C   0  0  0  0  0  2  0  0  0  0  0  0
   40.1220   31.0760   40.6700 C   0  0  0  0  0  2  0  0  0  0  0  0
   40.5410   30.6920   42.0740 C   0  0  0  0  0  3  0  0  0  0  0  0
   40.6680   29.1770   42.1150 C   0  0  0  0  0  2  0  0  0  0  0  0
   41.6390   28.6900   41.0770 C   0  0  0  0  0  2  0  0  0  0  0  0
  1  2  1  0  0  0  0
  2  3  2  0  0  0  0
  2  7  1  0  0  0  0
  3  8  1  0  0  0  0
  4  9  1  0  0  0  0
  4  3  1  0  0  0  0
  5  4  2  0  0  0  0
  6  5  1  0  0  0  0
  6  1  2  0  0  0  0
 10  5  1  0  0  0  0
 11 12  1  6  0  0  0
 11  1  1  0  0  0  0
 11 22  1  0  0  0  0
 13 14  2  0  0  0  0
 13 18  1  0  0  0  0
 14 15  1  0  0  0  0
 15 21  1  0  0  0  0
 15 16  2  0  0  0  0
 17 16  1  0  0  0  0
 17 11  1  0  0  0  0
 18 17  2  0  0  0  0
 19 13  1  0  0  0  0
 20 14  1  0  0  0  0
 22 23  1  0  0  0  0
 24  6  1  0  0  0  0
 25 24  2  0  0  0  0
 26 28  1  0  0  0  0
 26 25  1  0  0  0  0
 27 26  1  0  0  0  0
 29 26  1  0  0  0  0
 31 30  1  0  0  0  0
 31 36  1  0  0  0  0
 32 31  1  0  0  0  0
 32 33  1  0  0  0  0
 33 34  1  0  0  0  0
 34 35  1  0  0  0  0
 34 29  1  0  0  0  0
 36 35  1  0  0  0  0
M  END
>  <minimizedAffinity>
-5.99140644

>  <minimizedRMSD>
0.945937097

$$$$
