
 OpenBabel03262521523D

 21 22  0  0  0  0  0  0  0  0999 V2000
   35.5260   29.3800   50.6230 C   0  0  0  0  0  0  0  0  0  0  0  0
   35.0860   30.3840   50.3580 H   0  0  0  0  0  0  0  0  0  0  0  0
   35.0990   29.1380   51.6220 H   0  0  0  0  0  0  0  0  0  0  0  0
   37.3080   29.5250   50.6310 S   0  0  0  0  0  0  0  0  0  0  0  0
   37.8110   30.6170   49.3180 C   0  0  0  0  0  0  0  0  0  0  0  0
   38.2650   31.8740   49.7430 C   0  0  0  0  0  0  0  0  0  0  0  0
   38.6760   32.7820   48.7710 C   0  0  0  0  0  0  0  0  0  0  0  0
   38.6150   32.3970   47.4420 N   0  0  0  0  0  0  0  0  0  0  0  0
   38.1690   31.1730   47.1060 C   0  0  0  0  0  0  0  0  0  0  0  0
   37.7750   30.3010   48.0190 N   0  0  0  0  0  0  0  0  0  0  0  0
   38.3110   32.1680   50.7680 H   0  0  0  0  0  0  0  0  0  0  0  0
   39.0290   33.7560   49.0830 H   0  0  0  0  0  0  0  0  0  0  0  0
   38.1530   30.9520   46.0370 H   0  0  0  0  0  0  0  0  0  0  0  0
   34.9140   28.2330   49.3570 S   0  0  0  0  0  0  0  0  0  0  0  0
   34.7730   26.5560   47.3860 H   0  0  0  0  0  0  0  0  0  0  0  0
   33.8850   26.6850   46.8610 N   0  0  0  0  0  0  0  0  0  0  0  0
   33.8700   27.9260   46.1220 C   0  0  0  0  0  0  0  0  0  0  0  0
   34.0780   29.1420   46.9960 C   0  0  0  0  0  0  0  0  0  0  0  0
   33.5520   28.9020   48.4080 C   0  0  0  0  0  0  0  0  0  0  0  0
   32.3840   27.9500   48.3010 C   0  0  0  0  0  0  0  0  0  0  0  0
   32.8060   26.5810   47.8220 C   0  0  0  0  0  0  0  0  0  0  0  0
  1  4  1  0  0  0  0
  1  3  1  0  0  0  0
  2  1  1  0  0  0  0
  5  6  1  0  0  0  0
  5  4  1  0  0  0  0
  6 11  1  0  0  0  0
  7 12  1  0  0  0  0
  7  6  2  0  0  0  0
  8  7  1  0  0  0  0
  9  8  2  0  0  0  0
  9 10  1  0  0  0  0
 10  5  2  0  0  0  0
 13  9  1  0  0  0  0
 14  1  1  0  0  0  0
 16 15  1  0  0  0  0
 16 21  1  0  0  0  0
 17 16  1  0  0  0  0
 17 18  1  0  0  0  0
 18 19  1  0  0  0  0
 19 14  1  0  0  0  0
 20 19  1  0  0  0  0
 21 20  1  0  0  0  0
M  END
>  <minimizedAffinity>
-3.97819376

>  <minimizedRMSD>
1.32251525

$$$$
