
 OpenBabel03272509433D

 36 38  0  0  1  0  0  0  0  0999 V2000
   37.0360   30.9130   49.0800 C   0  0  0  0  0  0  0  0  0  0  0  0
   36.7480   31.8350   50.0860 C   0  0  0  0  0  0  0  0  0  0  0  0
   37.3320   33.0900   50.1210 C   0  0  0  0  0  0  0  0  0  0  0  0
   38.2390   33.4530   49.1240 C   0  0  0  0  0  0  0  0  0  0  0  0
   38.5140   32.5430   48.1440 C   0  0  0  0  0  0  0  0  0  0  0  0
   37.9100   31.2960   48.1430 C   0  0  0  0  0  0  0  0  0  0  0  0
   36.0400   31.5740   50.8810 H   0  0  0  0  0  0  0  0  0  0  0  0
   37.0580   33.7430   50.9300 H   0  0  0  0  0  0  0  0  0  0  0  0
   38.6320   34.4410   49.2400 H   0  0  0  0  0  0  0  0  0  0  0  0
   39.2350   32.9710   47.4450 H   0  0  0  0  0  0  0  0  0  0  0  0
   36.4520   29.5890   49.0630 C   0  0  2  0  0  0  0  0  0  0  0  0
   36.9550   29.0490   48.1710 H   0  0  0  0  0  0  0  0  0  0  0  0
   33.5940   29.9250   46.8460 C   0  0  0  0  0  0  0  0  0  0  0  0
   32.8500   28.7880   47.0770 C   0  0  0  0  0  0  0  0  0  0  0  0
   33.2910   27.9140   48.0510 C   0  0  0  0  0  0  0  0  0  0  0  0
   34.4440   28.2010   48.7500 N   0  0  0  0  0  0  0  0  0  0  0  0
   35.1110   29.3040   48.4790 C   0  0  0  0  0  0  0  0  0  0  0  0
   34.6930   30.1730   47.5300 N   0  0  0  0  0  0  0  0  0  0  0  0
   33.2160   30.5730   46.0860 H   0  0  0  0  0  0  0  0  0  0  0  0
   31.9390   28.4980   46.5690 H   0  0  0  0  0  0  0  0  0  0  0  0
   32.7830   26.9810   48.3250 H   0  0  0  0  0  0  0  0  0  0  0  0
   36.9250   28.8320   49.9880 O   0  0  0  0  0  0  0  0  0  0  0  0
   36.4080   28.4480   50.7100 H   0  0  0  0  0  0  0  0  0  0  0  0
   38.3160   30.4220   47.0660 C   0  0  0  0  0  3  0  0  0  0  0  0
   38.7780   30.8500   45.8880 C   0  0  0  0  0  3  0  0  0  0  0  0
   39.2570   30.0500   44.7360 C   0  0  0  0  0  0  0  0  0  0  0  0
   38.4020   29.6770   44.1160 H   0  0  0  0  0  0  0  0  0  0  0  0
   39.7710   29.1250   45.0870 H   0  0  0  0  0  0  0  0  0  0  0  0
   40.4350   31.0130   43.7820 S   0  0  0  0  0  0  0  0  0  0  0  0
   41.1980   30.4490   39.6420 H   0  0  0  0  0  0  0  0  0  0  0  0
   40.8240   29.4890   39.7180 N   0  0  0  0  0  0  0  0  0  0  0  0
   39.4260   29.5210   40.1040 C   0  0  0  0  0  2  0  0  0  0  0  0
   39.2240   30.0320   41.5190 C   0  0  0  0  0  2  0  0  0  0  0  0
   40.5680   30.4750   42.0580 C   0  0  0  0  0  3  0  0  0  0  0  0
   41.4880   29.2650   42.0420 C   0  0  0  0  0  2  0  0  0  0  0  0
   41.5900   28.6850   40.6580 C   0  0  0  0  0  2  0  0  0  0  0  0
  1  2  1  0  0  0  0
  2  3  2  0  0  0  0
  2  7  1  0  0  0  0
  3  8  1  0  0  0  0
  4  9  1  0  0  0  0
  4  3  1  0  0  0  0
  5  4  2  0  0  0  0
  6  5  1  0  0  0  0
  6  1  2  0  0  0  0
 10  5  1  0  0  0  0
 11 12  1  6  0  0  0
 11  1  1  0  0  0  0
 11 22  1  0  0  0  0
 13 14  2  0  0  0  0
 13 18  1  0  0  0  0
 14 15  1  0  0  0  0
 15 21  1  0  0  0  0
 15 16  2  0  0  0  0
 17 16  1  0  0  0  0
 17 11  1  0  0  0  0
 18 17  2  0  0  0  0
 19 13  1  0  0  0  0
 20 14  1  0  0  0  0
 22 23  1  0  0  0  0
 24  6  1  0  0  0  0
 25 24  2  0  0  0  0
 26 28  1  0  0  0  0
 26 25  1  0  0  0  0
 27 26  1  0  0  0  0
 29 26  1  0  0  0  0
 30 31  1  0  0  0  0
 31 32  1  0  0  0  0
 31 36  1  0  0  0  0
 32 33  1  0  0  0  0
 33 34  1  0  0  0  0
 34 29  1  0  0  0  0
 35 34  1  0  0  0  0
 36 35  1  0  0  0  0
M  END
>  <minimizedAffinity>
-5.92822599

>  <minimizedRMSD>
0.556570768

$$$$
