
 OpenBabel03272509303D

 36 38  0  0  1  0  0  0  0  0999 V2000
   36.5680   30.8970   48.8300 C   0  0  2  0  0  0  0  0  0  0  0  0
   37.5150   31.4770   49.8410 C   0  0  0  0  0  0  0  0  0  0  0  0
   38.0520   30.4430   50.8090 C   0  0  0  0  0  0  0  0  0  0  0  0
   36.8840   29.7730   51.5370 C   0  0  0  0  0  0  0  0  0  0  0  0
   35.7060   29.4780   50.6550 C   0  0  0  0  0  0  0  0  0  0  0  0
   36.1540   29.5100   49.1840 C   0  0  1  0  0  0  0  0  0  0  0  0
   35.6200   31.4950   48.7040 H   0  0  0  0  0  0  0  0  0  0  0  0
   36.8500   32.1250   50.5040 H   0  0  0  0  0  0  0  0  0  0  0  0
   38.2700   32.1500   49.4780 H   0  0  0  0  0  0  0  0  0  0  0  0
   38.6130   29.6270   50.3170 H   0  0  0  0  0  0  0  0  0  0  0  0
   38.6510   30.9900   51.5390 H   0  0  0  0  0  0  0  0  0  0  0  0
   37.2940   28.8890   52.0550 H   0  0  0  0  0  0  0  0  0  0  0  0
   36.5430   30.5150   52.2880 H   0  0  0  0  0  0  0  0  0  0  0  0
   34.8830   30.2000   50.7240 H   0  0  0  0  0  0  0  0  0  0  0  0
   35.3410   28.4520   50.8760 H   0  0  0  0  0  0  0  0  0  0  0  0
   37.0020   28.8700   49.2180 H   0  0  0  0  0  0  0  0  0  0  0  0
   33.9260   28.4790   48.5560 C   0  0  0  0  0  0  0  0  0  0  0  0
   33.2070   28.6000   49.5920 O   0  0  0  0  0  0  0  0  0  0  0  0
   35.2590   28.8840   48.2820 N   0  0  0  0  0  0  0  0  0  0  0  0
   35.4840   28.6400   47.2670 H   0  0  0  0  0  0  0  0  0  0  0  0
   33.0570   27.7960   47.6450 N   0  0  0  0  0  0  0  0  0  0  0  0
   32.3060   26.6700   48.1640 C   0  0  0  0  0  2  0  0  0  0  0  0
   30.8560   27.1040   48.3500 C   0  0  0  0  0  2  0  0  0  0  0  0
   30.5420   28.1620   47.2930 C   0  0  0  0  0  3  0  0  0  0  0  0
   30.8580   29.1600   47.6460 H   0  0  0  0  0  0  0  0  0  0  0  0
   31.2810   27.7760   46.0160 C   0  0  0  0  0  2  0  0  0  0  0  0
   32.7670   28.0300   46.2220 C   0  0  0  0  0  2  0  0  0  0  0  0
   37.1760   30.8840   47.4740 C   0  0  0  0  0  0  0  0  0  0  0  0
   38.5730   31.0790   47.4300 C   0  0  0  0  0  0  0  0  0  0  0  0
   39.1600   31.0660   46.1600 C   0  0  0  0  0  0  0  0  0  0  0  0
   38.3630   30.8680   45.0560 N   0  0  0  0  0  0  0  0  0  0  0  0
   37.0090   30.6830   45.1570 C   0  0  0  0  0  0  0  0  0  0  0  0
   36.4310   30.6930   46.3760 N   0  0  0  0  0  0  0  0  0  0  0  0
   39.2840   31.2320   48.2130 H   0  0  0  0  0  0  0  0  0  0  0  0
   40.2100   31.2020   45.9660 H   0  0  0  0  0  0  0  0  0  0  0  0
   36.4510   30.5330   44.2420 H   0  0  0  0  0  0  0  0  0  0  0  0
  1  7  1  6  0  0  0
  1  6  1  0  0  0  0
  1  2  1  0  0  0  0
  2  8  1  0  0  0  0
  2  3  1  0  0  0  0
  3  4  1  0  0  0  0
  3 11  1  0  0  0  0
  4 12  1  0  0  0  0
  4 13  1  0  0  0  0
  5 14  1  0  0  0  0
  5 15  1  0  0  0  0
  5  4  1  0  0  0  0
  6 16  1  6  0  0  0
  6  5  1  0  0  0  0
  9  2  1  0  0  0  0
 10  3  1  0  0  0  0
 17 18  2  0  0  0  0
 19 17  1  0  0  0  0
 19  6  1  0  0  0  0
 20 19  1  0  0  0  0
 21 22  1  0  0  0  0
 21 17  1  0  0  0  0
 22 23  1  0  0  0  0
 24 25  1  0  0  0  0
 24 23  1  0  0  0  0
 26 27  1  0  0  0  0
 26 24  1  0  0  0  0
 27 21  1  0  0  0  0
 28  1  1  0  0  0  0
 29 28  1  0  0  0  0
 29 34  1  0  0  0  0
 30 29  2  0  0  0  0
 31 32  2  0  0  0  0
 31 30  1  0  0  0  0
 32 33  1  0  0  0  0
 33 28  2  0  0  0  0
 35 30  1  0  0  0  0
 36 32  1  0  0  0  0
M  END
>  <minimizedAffinity>
-6.14058971

>  <minimizedRMSD>
1.08519268

$$$$
