
 OpenBabel03272503053D

 30 32  0  0  0  0  0  0  0  0999 V2000
   38.0280   30.0530   47.3740 F   0  0  0  0  0  0  0  0  0  0  0  0
   38.4100   31.2860   47.8050 C   0  0  0  0  0  0  0  0  0  0  0  0
   37.9180   31.7550   48.9920 C   0  0  0  0  0  0  0  0  0  0  0  0
   38.3400   33.0060   49.3730 C   0  0  0  0  0  0  0  0  0  0  0  0
   39.2100   33.7680   48.6220 C   0  0  0  0  0  0  0  0  0  0  0  0
   39.6900   33.2590   47.4250 C   0  0  0  0  0  0  0  0  0  0  0  0
   39.2810   31.9930   47.0070 C   0  0  0  0  0  0  0  0  0  0  0  0
   37.9680   33.4040   50.3080 H   0  0  0  0  0  0  0  0  0  0  0  0
   39.5280   34.7580   48.9510 H   0  0  0  0  0  0  0  0  0  0  0  0
   40.3710   33.8610   46.8420 H   0  0  0  0  0  0  0  0  0  0  0  0
   38.9660   31.8060   44.6500 C   0  0  0  0  0  0  0  0  0  0  0  0
   37.9970   32.5840   44.8870 O   0  0  0  0  0  0  0  0  0  0  0  0
   39.7590   31.4470   45.7810 N   0  0  0  0  0  0  0  0  0  0  0  0
   40.5800   30.8380   45.5820 H   0  0  0  0  0  0  0  0  0  0  0  0
   39.1910   31.3610   43.3220 N   0  0  0  0  0  0  0  0  0  0  0  0
   39.7930   30.0600   43.1080 C   0  0  0  0  0  2  0  0  0  0  0  0
   41.0150   30.3210   42.2530 C   0  0  0  0  0  2  0  0  0  0  0  0
   40.5290   30.7510   40.8880 C   0  0  0  0  0  3  0  0  0  0  0  0
   40.4630   29.7930   40.2930 H   0  0  0  0  0  0  0  0  0  0  0  0
   39.2050   31.4360   40.8900 C   0  0  0  0  0  2  0  0  0  0  0  0
   38.8450   32.1510   42.1560 C   0  0  0  0  0  2  0  0  0  0  0  0
   36.4640   29.4520   51.6150 C   0  0  0  0  0  0  0  0  0  0  0  0
   37.3810   30.2580   50.9070 C   0  0  0  0  0  0  0  0  0  0  0  0
   36.9980   30.9140   49.7510 C   0  0  0  0  0  0  0  0  0  0  0  0
   35.7050   30.7430   49.3340 N   0  0  0  0  0  0  0  0  0  0  0  0
   34.8460   29.9650   50.0300 C   0  0  0  0  0  0  0  0  0  0  0  0
   35.2150   29.3420   51.1330 N   0  0  0  0  0  0  0  0  0  0  0  0
   36.8340   28.9650   52.5180 H   0  0  0  0  0  0  0  0  0  0  0  0
   38.4000   30.3880   51.2420 H   0  0  0  0  0  0  0  0  0  0  0  0
   33.8140   29.8020   49.7380 H   0  0  0  0  0  0  0  0  0  0  0  0
  1  2  1  0  0  0  0
  2  3  1  0  0  0  0
  3  4  2  0  0  0  0
  3 24  1  0  0  0  0
  4  8  1  0  0  0  0
  5  9  1  0  0  0  0
  5  4  1  0  0  0  0
  6  5  2  0  0  0  0
  7  6  1  0  0  0  0
  7  2  2  0  0  0  0
 10  6  1  0  0  0  0
 11 12  2  0  0  0  0
 11 13  1  0  0  0  0
 13  7  1  0  0  0  0
 14 13  1  0  0  0  0
 15 11  1  0  0  0  0
 16 15  1  0  0  0  0
 17 16  1  0  0  0  0
 18 20  1  0  0  0  0
 18 17  1  0  0  0  0
 19 18  1  0  0  0  0
 20 21  1  0  0  0  0
 21 15  1  0  0  0  0
 22 28  1  0  0  0  0
 23 29  1  0  0  0  0
 23 22  2  0  0  0  0
 24 23  1  0  0  0  0
 25 24  2  0  0  0  0
 25 26  1  0  0  0  0
 26 27  2  0  0  0  0
 27 22  1  0  0  0  0
 30 26  1  0  0  0  0
M  END
>  <minimizedAffinity>
-6.589046

>  <minimizedRMSD>
0.505482137

$$$$
