
 OpenBabel03272509323D

 36 38  0  0  1  0  0  0  0  0999 V2000
   39.3330   25.3210   34.7570 C   0  0  2  0  0  0  0  0  0  0  0  0
   39.6010   26.7020   35.2800 C   0  0  0  0  0  0  0  0  0  0  0  0
   38.3390   27.4390   35.6790 C   0  0  0  0  0  0  0  0  0  0  0  0
   37.4000   27.5280   34.4740 C   0  0  0  0  0  0  0  0  0  0  0  0
   37.3440   26.2740   33.6520 C   0  0  0  0  0  0  0  0  0  0  0  0
   37.8850   25.0980   34.4840 C   0  0  1  0  0  0  0  0  0  0  0  0
   39.8830   25.0840   33.8010 H   0  0  0  0  0  0  0  0  0  0  0  0
   39.9560   27.2810   34.3630 H   0  0  0  0  0  0  0  0  0  0  0  0
   40.3990   26.8130   35.9910 H   0  0  0  0  0  0  0  0  0  0  0  0
   37.7650   26.9320   36.4760 H   0  0  0  0  0  0  0  0  0  0  0  0
   38.6500   28.4480   35.9560 H   0  0  0  0  0  0  0  0  0  0  0  0
   36.4200   27.8630   34.8550 H   0  0  0  0  0  0  0  0  0  0  0  0
   37.8330   28.3180   33.8240 H   0  0  0  0  0  0  0  0  0  0  0  0
   37.9540   26.2890   32.7390 H   0  0  0  0  0  0  0  0  0  0  0  0
   36.2830   26.0550   33.4050 H   0  0  0  0  0  0  0  0  0  0  0  0
   37.3200   25.2080   35.3770 H   0  0  0  0  0  0  0  0  0  0  0  0
   37.8670   23.2880   32.7100 C   0  0  0  0  0  0  0  0  0  0  0  0
   38.5490   23.7630   31.7530 O   0  0  0  0  0  0  0  0  0  0  0  0
   37.5400   23.8180   33.9870 N   0  0  0  0  0  0  0  0  0  0  0  0
   36.9840   23.0820   34.5250 H   0  0  0  0  0  0  0  0  0  0  0  0
   37.4590   22.0120   32.2060 N   0  0  0  0  0  0  0  0  0  0  0  0
   37.2600   20.9510   33.1730 C   0  0  0  0  0  2  0  0  0  0  0  0
   35.7620   20.7370   33.3490 C   0  0  0  0  0  2  0  0  0  0  0  0
   35.0770   21.0750   32.0240 C   0  0  0  0  0  3  0  0  0  0  0  0
   34.8890   22.1620   31.9600 H   0  0  0  0  0  0  0  0  0  0  0  0
   35.9960   20.6130   30.8990 C   0  0  0  0  0  2  0  0  0  0  0  0
   37.1930   21.5500   30.8340 C   0  0  0  0  0  2  0  0  0  0  0  0
   39.8020   24.2850   35.7150 C   0  0  0  0  0  0  0  0  0  0  0  0
   41.0970   23.7760   35.4760 C   0  0  0  0  0  0  0  0  0  0  0  0
   41.5530   22.8020   36.3710 C   0  0  0  0  0  0  0  0  0  0  0  0
   40.7370   22.4080   37.4060 N   0  0  0  0  0  0  0  0  0  0  0  0
   39.4870   22.9390   37.5920 C   0  0  0  0  0  0  0  0  0  0  0  0
   39.0350   23.8780   36.7360 N   0  0  0  0  0  0  0  0  0  0  0  0
   41.8130   24.0100   34.7170 H   0  0  0  0  0  0  0  0  0  0  0  0
   42.5150   22.3210   36.3170 H   0  0  0  0  0  0  0  0  0  0  0  0
   38.9060   22.5770   38.4300 H   0  0  0  0  0  0  0  0  0  0  0  0
  1  7  1  6  0  0  0
  1  2  1  0  0  0  0
  1 28  1  0  0  0  0
  2  3  1  0  0  0  0
  2  9  1  0  0  0  0
  3 11  1  0  0  0  0
  3 10  1  0  0  0  0
  4 12  1  0  0  0  0
  4  3  1  0  0  0  0
  5  4  1  0  0  0  0
  5  6  1  0  0  0  0
  6  1  1  0  0  0  0
  6 16  1  1  0  0  0
  8  2  1  0  0  0  0
 13  4  1  0  0  0  0
 14  5  1  0  0  0  0
 15  5  1  0  0  0  0
 17 19  1  0  0  0  0
 18 17  2  0  0  0  0
 19  6  1  0  0  0  0
 19 20  1  0  0  0  0
 21 17  1  0  0  0  0
 21 22  1  0  0  0  0
 22 23  1  0  0  0  0
 24 23  1  0  0  0  0
 25 24  1  0  0  0  0
 26 24  1  0  0  0  0
 27 26  1  0  0  0  0
 27 21  1  0  0  0  0
 28 33  1  0  0  0  0
 29 28  2  0  0  0  0
 29 30  1  0  0  0  0
 30 31  2  0  0  0  0
 31 32  1  0  0  0  0
 32 36  1  0  0  0  0
 33 32  2  0  0  0  0
 34 29  1  0  0  0  0
 35 30  1  0  0  0  0
M  END
>  <minimizedAffinity>
-5.56547832

$$$$

 OpenBabel03272509323D

 36 38  0  0  1  0  0  0  0  0999 V2000
   38.4950   25.9570   34.3090 C   0  0  2  0  0  0  0  0  0  0  0  0
   38.3060   27.2810   34.9900 C   0  0  0  0  0  0  0  0  0  0  0  0
   36.9330   27.8770   34.7560 C   0  0  0  0  0  0  0  0  0  0  0  0
   36.7020   28.0450   33.2520 C   0  0  0  0  0  0  0  0  0  0  0  0
   37.2060   26.8970   32.4270 C   0  0  0  0  0  0  0  0  0  0  0  0
   37.4050   25.6700   33.3340 C   0  0  1  0  0  0  0  0  0  0  0  0
   39.4670   25.8750   33.7420 H   0  0  0  0  0  0  0  0  0  0  0  0
   38.9930   27.9890   34.4150 H   0  0  0  0  0  0  0  0  0  0  0  0
   38.6340   27.3610   36.0110 H   0  0  0  0  0  0  0  0  0  0  0  0
   36.1070   27.2400   35.1220 H   0  0  0  0  0  0  0  0  0  0  0  0
   36.9450   28.8640   35.2200 H   0  0  0  0  0  0  0  0  0  0  0  0
   35.6290   28.2630   33.1150 H   0  0  0  0  0  0  0  0  0  0  0  0
   37.3000   28.9340   32.9620 H   0  0  0  0  0  0  0  0  0  0  0  0
   38.1780   27.0630   31.9450 H   0  0  0  0  0  0  0  0  0  0  0  0
   36.4370   26.6360   31.6680 H   0  0  0  0  0  0  0  0  0  0  0  0
   36.4670   25.6330   33.8300 H   0  0  0  0  0  0  0  0  0  0  0  0
   36.4770   23.7990   31.8990 C   0  0  0  0  0  0  0  0  0  0  0  0
   35.2920   24.1540   31.6260 O   0  0  0  0  0  0  0  0  0  0  0  0
   37.5040   24.4370   32.6440 N   0  0  0  0  0  0  0  0  0  0  0  0
   38.3810   23.8290   32.5990 H   0  0  0  0  0  0  0  0  0  0  0  0
   36.5810   22.5230   31.2570 N   0  0  0  0  0  0  0  0  0  0  0  0
   37.8920   22.1260   30.7820 C   0  0  0  0  0  2  0  0  0  0  0  0
   38.4460   21.0700   31.7310 C   0  0  0  0  0  2  0  0  0  0  0  0
   37.2670   20.2820   32.3020 C   0  0  0  0  0  3  0  0  0  0  0  0
   36.8450   20.8090   33.1760 H   0  0  0  0  0  0  0  0  0  0  0  0
   36.2270   20.1400   31.1960 C   0  0  0  0  0  2  0  0  0  0  0  0
   35.5690   21.4940   30.9730 C   0  0  0  0  0  2  0  0  0  0  0  0
   38.5540   24.8490   35.2990 C   0  0  0  0  0  0  0  0  0  0  0  0
   38.0480   25.1510   36.5810 C   0  0  0  0  0  0  0  0  0  0  0  0
   38.0940   24.1170   37.5230 C   0  0  0  0  0  0  0  0  0  0  0  0
   38.6170   22.8990   37.1550 N   0  0  0  0  0  0  0  0  0  0  0  0
   39.0940   22.6610   35.8930 C   0  0  0  0  0  0  0  0  0  0  0  0
   39.0560   23.6490   34.9760 N   0  0  0  0  0  0  0  0  0  0  0  0
   37.6170   26.0480   36.9720 H   0  0  0  0  0  0  0  0  0  0  0  0
   37.7480   24.1950   38.5400 H   0  0  0  0  0  0  0  0  0  0  0  0
   39.4900   21.6760   35.6810 H   0  0  0  0  0  0  0  0  0  0  0  0
  1  7  1  6  0  0  0
  1  2  1  0  0  0  0
  1 28  1  0  0  0  0
  2  9  1  0  0  0  0
  3  2  1  0  0  0  0
  3 10  1  0  0  0  0
  3 11  1  0  0  0  0
  4  3  1  0  0  0  0
  5  4  1  0  0  0  0
  5  6  1  0  0  0  0
  6 16  1  1  0  0  0
  6  1  1  0  0  0  0
  8  2  1  0  0  0  0
 12  4  1  0  0  0  0
 13  4  1  0  0  0  0
 14  5  1  0  0  0  0
 15  5  1  0  0  0  0
 17 19  1  0  0  0  0
 18 17  2  0  0  0  0
 19  6  1  0  0  0  0
 20 19  1  0  0  0  0
 21 17  1  0  0  0  0
 22 21  1  0  0  0  0
 22 23  1  0  0  0  0
 23 24  1  0  0  0  0
 24 25  1  0  0  0  0
 26 24  1  0  0  0  0
 27 26  1  0  0  0  0
 27 21  1  0  0  0  0
 28 29  1  0  0  0  0
 29 34  1  0  0  0  0
 29 30  2  0  0  0  0
 30 35  1  0  0  0  0
 31 30  1  0  0  0  0
 32 31  2  0  0  0  0
 33 28  2  0  0  0  0
 33 32  1  0  0  0  0
 36 32  1  0  0  0  0
M  END
>  <minimizedAffinity>
-5.53333759

$$$$

 OpenBabel03272509323D

 36 38  0  0  1  0  0  0  0  0999 V2000
   38.7400   26.5880   32.5390 C   0  0  2  0  0  0  0  0  0  0  0  0
   39.2440   27.5530   31.5060 C   0  0  0  0  0  0  0  0  0  0  0  0
   40.7270   27.4080   31.2330 C   0  0  0  0  0  0  0  0  0  0  0  0
   41.5050   27.6110   32.5360 C   0  0  0  0  0  0  0  0  0  0  0  0
   40.8640   26.9700   33.7330 C   0  0  0  0  0  0  0  0  0  0  0  0
   39.8550   25.9110   33.2610 C   0  0  1  0  0  0  0  0  0  0  0  0
   38.0890   27.0660   33.3250 H   0  0  0  0  0  0  0  0  0  0  0  0
   39.1770   28.5700   32.0200 H   0  0  0  0  0  0  0  0  0  0  0  0
   38.6580   27.6670   30.6110 H   0  0  0  0  0  0  0  0  0  0  0  0
   41.0120   26.4070   30.8610 H   0  0  0  0  0  0  0  0  0  0  0  0
   40.9900   28.2090   30.5410 H   0  0  0  0  0  0  0  0  0  0  0  0
   42.5400   27.2800   32.3460 H   0  0  0  0  0  0  0  0  0  0  0  0
   41.4940   28.7060   32.7160 H   0  0  0  0  0  0  0  0  0  0  0  0
   40.2920   27.6520   34.3740 H   0  0  0  0  0  0  0  0  0  0  0  0
   41.6500   26.4510   34.3230 H   0  0  0  0  0  0  0  0  0  0  0  0
   40.4510   25.3540   32.5800 H   0  0  0  0  0  0  0  0  0  0  0  0
   38.6740   25.2460   35.4030 C   0  0  0  0  0  0  0  0  0  0  0  0
   38.0950   26.3010   35.7960 O   0  0  0  0  0  0  0  0  0  0  0  0
   39.4690   24.9800   34.2560 N   0  0  0  0  0  0  0  0  0  0  0  0
   39.7330   23.9450   34.2620 H   0  0  0  0  0  0  0  0  0  0  0  0
   38.3440   24.3020   36.4280 N   0  0  0  0  0  0  0  0  0  0  0  0
   38.2440   22.9100   36.0380 C   0  0  0  0  0  2  0  0  0  0  0  0
   39.4840   22.1800   36.5410 C   0  0  0  0  0  2  0  0  0  0  0  0
   39.9470   22.8670   37.8260 C   0  0  0  0  0  3  0  0  0  0  0  0
   40.5870   23.7340   37.5840 H   0  0  0  0  0  0  0  0  0  0  0  0
   38.7030   23.3030   38.5910 C   0  0  0  0  0  2  0  0  0  0  0  0
   38.0750   24.4830   37.8630 C   0  0  0  0  0  2  0  0  0  0  0  0
   37.8700   25.5510   31.9240 C   0  0  0  0  0  0  0  0  0  0  0  0
   36.4820   25.7920   32.0080 C   0  0  0  0  0  0  0  0  0  0  0  0
   35.6500   24.8260   31.4310 C   0  0  0  0  0  0  0  0  0  0  0  0
   36.2170   23.7270   30.8300 N   0  0  0  0  0  0  0  0  0  0  0  0
   37.5740   23.5440   30.7750 C   0  0  0  0  0  0  0  0  0  0  0  0
   38.3870   24.4670   31.3280 N   0  0  0  0  0  0  0  0  0  0  0  0
   35.9370   26.6040   32.4400 H   0  0  0  0  0  0  0  0  0  0  0  0
   34.5740   24.8700   31.4180 H   0  0  0  0  0  0  0  0  0  0  0  0
   37.9430   22.6530   30.2840 H   0  0  0  0  0  0  0  0  0  0  0  0
  1  6  1  0  0  0  0
  1  7  1  1  0  0  0
  2  8  1  0  0  0  0
  2  1  1  0  0  0  0
  3  2  1  0  0  0  0
  3  4  1  0  0  0  0
  4 13  1  0  0  0  0
  4  5  1  0  0  0  0
  5 15  1  0  0  0  0
  5 14  1  0  0  0  0
  6 16  1  6  0  0  0
  6  5  1  0  0  0  0
  6 19  1  0  0  0  0
  9  2  1  0  0  0  0
 10  3  1  0  0  0  0
 11  3  1  0  0  0  0
 12  4  1  0  0  0  0
 17 18  2  0  0  0  0
 17 21  1  0  0  0  0
 19 20  1  0  0  0  0
 19 17  1  0  0  0  0
 21 27  1  0  0  0  0
 22 21  1  0  0  0  0
 22 23  1  0  0  0  0
 23 24  1  0  0  0  0
 24 26  1  0  0  0  0
 25 24  1  0  0  0  0
 27 26  1  0  0  0  0
 28 29  1  0  0  0  0
 28  1  1  0  0  0  0
 29 34  1  0  0  0  0
 30 29  2  0  0  0  0
 31 30  1  0  0  0  0
 32 31  2  0  0  0  0
 32 33  1  0  0  0  0
 33 28  2  0  0  0  0
 35 30  1  0  0  0  0
 36 32  1  0  0  0  0
M  END
>  <minimizedAffinity>
-5.44688272

$$$$

 OpenBabel03272509323D

 36 38  0  0  1  0  0  0  0  0999 V2000
   37.0620   25.8140   32.6770 C   0  0  2  0  0  0  0  0  0  0  0  0
   36.3510   27.0530   32.2160 C   0  0  0  0  0  0  0  0  0  0  0  0
   36.8180   28.3040   32.9320 C   0  0  0  0  0  0  0  0  0  0  0  0
   36.6120   28.1340   34.4390 C   0  0  0  0  0  0  0  0  0  0  0  0
   36.9590   26.7660   34.9500 C   0  0  0  0  0  0  0  0  0  0  0  0
   37.8500   26.0510   33.9190 C   0  0  1  0  0  0  0  0  0  0  0  0
   36.3700   24.9490   32.8920 H   0  0  0  0  0  0  0  0  0  0  0  0
   35.2850   26.9210   32.6030 H   0  0  0  0  0  0  0  0  0  0  0  0
   36.2360   27.1900   31.1560 H   0  0  0  0  0  0  0  0  0  0  0  0
   37.8940   28.5160   32.7940 H   0  0  0  0  0  0  0  0  0  0  0  0
   36.1770   29.1140   32.5810 H   0  0  0  0  0  0  0  0  0  0  0  0
   37.1610   28.9530   34.9330 H   0  0  0  0  0  0  0  0  0  0  0  0
   35.5220   28.2680   34.6030 H   0  0  0  0  0  0  0  0  0  0  0  0
   36.1040   26.0970   35.1080 H   0  0  0  0  0  0  0  0  0  0  0  0
   37.5460   26.8730   35.8880 H   0  0  0  0  0  0  0  0  0  0  0  0
   38.5930   26.7910   33.7490 H   0  0  0  0  0  0  0  0  0  0  0  0
   38.3790   24.3230   35.6960 C   0  0  0  0  0  0  0  0  0  0  0  0
   37.5670   24.5650   36.6380 O   0  0  0  0  0  0  0  0  0  0  0  0
   38.5550   24.9320   34.4250 N   0  0  0  0  0  0  0  0  0  0  0  0
   39.3180   24.4010   33.9000 H   0  0  0  0  0  0  0  0  0  0  0  0
   39.1440   23.2270   36.2100 N   0  0  0  0  0  0  0  0  0  0  0  0
   39.6730   22.2800   35.2490 C   0  0  0  0  0  2  0  0  0  0  0  0
   41.1690   22.5310   35.1030 C   0  0  0  0  0  2  0  0  0  0  0  0
   41.6930   23.0530   36.4410 C   0  0  0  0  0  3  0  0  0  0  0  0
   41.5430   24.1460   36.5070 H   0  0  0  0  0  0  0  0  0  0  0  0
   40.9360   22.3300   37.5490 C   0  0  0  0  0  2  0  0  0  0  0  0
   39.5100   22.8620   37.5880 C   0  0  0  0  0  2  0  0  0  0  0  0
   37.9750   25.2980   31.6230 C   0  0  0  0  0  0  0  0  0  0  0  0
   37.5130   24.1670   30.9160 C   0  0  0  0  0  0  0  0  0  0  0  0
   38.3600   23.6710   29.9200 C   0  0  0  0  0  0  0  0  0  0  0  0
   39.5630   24.2990   29.6900 N   0  0  0  0  0  0  0  0  0  0  0  0
   39.9610   25.3970   30.4070 C   0  0  0  0  0  0  0  0  0  0  0  0
   39.1540   25.8840   31.3710 N   0  0  0  0  0  0  0  0  0  0  0  0
   36.6050   23.6090   31.0040 H   0  0  0  0  0  0  0  0  0  0  0  0
   38.1470   22.8170   29.3000 H   0  0  0  0  0  0  0  0  0  0  0  0
   40.9220   25.8340   30.1670 H   0  0  0  0  0  0  0  0  0  0  0  0
  1  7  1  1  0  0  0
  1  6  1  0  0  0  0
  2  8  1  0  0  0  0
  2  1  1  0  0  0  0
  2  3  1  0  0  0  0
  3  4  1  0  0  0  0
  4 13  1  0  0  0  0
  4 12  1  0  0  0  0
  4  5  1  0  0  0  0
  5 14  1  0  0  0  0
  5 15  1  0  0  0  0
  6 16  1  6  0  0  0
  6 19  1  0  0  0  0
  6  5  1  0  0  0  0
  9  2  1  0  0  0  0
 10  3  1  0  0  0  0
 11  3  1  0  0  0  0
 17 21  1  0  0  0  0
 17 18  2  0  0  0  0
 19 17  1  0  0  0  0
 20 19  1  0  0  0  0
 21 27  1  0  0  0  0
 22 21  1  0  0  0  0
 23 22  1  0  0  0  0
 23 24  1  0  0  0  0
 24 25  1  0  0  0  0
 24 26  1  0  0  0  0
 26 27  1  0  0  0  0
 28  1  1  0  0  0  0
 29 34  1  0  0  0  0
 29 28  2  0  0  0  0
 30 29  1  0  0  0  0
 31 30  2  0  0  0  0
 31 32  1  0  0  0  0
 32 33  2  0  0  0  0
 33 28  1  0  0  0  0
 35 30  1  0  0  0  0
 36 32  1  0  0  0  0
M  END
>  <minimizedAffinity>
-5.14339399

$$$$

 OpenBabel03272509323D

 36 38  0  0  1  0  0  0  0  0999 V2000
   36.1870   25.7310   32.0040 C   0  0  2  0  0  0  0  0  0  0  0  0
   35.8400   26.5970   30.8280 C   0  0  0  0  0  0  0  0  0  0  0  0
   36.8310   27.7220   30.6090 C   0  0  0  0  0  0  0  0  0  0  0  0
   36.9050   28.5870   31.8700 C   0  0  0  0  0  0  0  0  0  0  0  0
   36.8840   27.8010   33.1490 C   0  0  0  0  0  0  0  0  0  0  0  0
   37.2520   26.3380   32.8500 C   0  0  1  0  0  0  0  0  0  0  0  0
   35.3120   25.5220   32.6850 H   0  0  0  0  0  0  0  0  0  0  0  0
   34.8970   27.1490   31.1580 H   0  0  0  0  0  0  0  0  0  0  0  0
   35.5550   26.1010   29.9180 H   0  0  0  0  0  0  0  0  0  0  0  0
   37.8620   27.3710   30.4200 H   0  0  0  0  0  0  0  0  0  0  0  0
   36.4320   28.3270   29.7930 H   0  0  0  0  0  0  0  0  0  0  0  0
   37.7830   29.2450   31.7570 H   0  0  0  0  0  0  0  0  0  0  0  0
   35.9790   29.2010   31.8580 H   0  0  0  0  0  0  0  0  0  0  0  0
   35.9110   27.7590   33.6530 H   0  0  0  0  0  0  0  0  0  0  0  0
   37.6580   28.2130   33.8330 H   0  0  0  0  0  0  0  0  0  0  0  0
   38.1430   26.4660   32.2860 H   0  0  0  0  0  0  0  0  0  0  0  0
   38.9720   25.3210   34.4100 C   0  0  0  0  0  0  0  0  0  0  0  0
   40.0910   25.6980   33.9530 O   0  0  0  0  0  0  0  0  0  0  0  0
   37.6420   25.5850   33.9850 N   0  0  0  0  0  0  0  0  0  0  0  0
   36.9700   25.1190   34.6700 H   0  0  0  0  0  0  0  0  0  0  0  0
   39.3440   24.5080   35.5280 N   0  0  0  0  0  0  0  0  0  0  0  0
   38.4210   24.4530   36.6440 C   0  0  0  0  0  2  0  0  0  0  0  0
   37.7100   23.1060   36.6130 C   0  0  0  0  0  2  0  0  0  0  0  0
   38.6690   22.0800   36.0090 C   0  0  0  0  0  3  0  0  0  0  0  0
   38.6100   22.1070   34.9060 H   0  0  0  0  0  0  0  0  0  0  0  0
   40.0740   22.4220   36.4890 C   0  0  0  0  0  2  0  0  0  0  0  0
   40.5380   23.6820   35.7730 C   0  0  0  0  0  2  0  0  0  0  0  0
   36.6360   24.3840   31.5630 C   0  0  0  0  0  0  0  0  0  0  0  0
   35.6560   23.3690   31.6100 C   0  0  0  0  0  0  0  0  0  0  0  0
   36.0640   22.0960   31.1950 C   0  0  0  0  0  0  0  0  0  0  0  0
   37.3610   21.9120   30.7750 N   0  0  0  0  0  0  0  0  0  0  0  0
   38.2710   22.9360   30.7490 C   0  0  0  0  0  0  0  0  0  0  0  0
   37.8910   24.1680   31.1460 N   0  0  0  0  0  0  0  0  0  0  0  0
   34.6300   23.3990   31.9080 H   0  0  0  0  0  0  0  0  0  0  0  0
   35.4320   21.2240   31.1760 H   0  0  0  0  0  0  0  0  0  0  0  0
   39.2730   22.7110   30.4050 H   0  0  0  0  0  0  0  0  0  0  0  0
  1  7  1  1  0  0  0
  1  6  1  0  0  0  0
  2  8  1  0  0  0  0
  2  1  1  0  0  0  0
  3  2  1  0  0  0  0
  3  4  1  0  0  0  0
  4  5  1  0  0  0  0
  5 14  1  0  0  0  0
  5 15  1  0  0  0  0
  6 16  1  6  0  0  0
  6  5  1  0  0  0  0
  6 19  1  0  0  0  0
  9  2  1  0  0  0  0
 10  3  1  0  0  0  0
 11  3  1  0  0  0  0
 12  4  1  0  0  0  0
 13  4  1  0  0  0  0
 17 21  1  0  0  0  0
 18 17  2  0  0  0  0
 19 17  1  0  0  0  0
 19 20  1  0  0  0  0
 21 27  1  0  0  0  0
 21 22  1  0  0  0  0
 23 22  1  0  0  0  0
 24 26  1  0  0  0  0
 24 23  1  0  0  0  0
 25 24  1  0  0  0  0
 27 26  1  0  0  0  0
 28 29  1  0  0  0  0
 28  1  1  0  0  0  0
 29 34  1  0  0  0  0
 30 29  2  0  0  0  0
 31 30  1  0  0  0  0
 32 31  2  0  0  0  0
 32 33  1  0  0  0  0
 33 28  2  0  0  0  0
 35 30  1  0  0  0  0
 36 32  1  0  0  0  0
M  END
>  <minimizedAffinity>
-5.0817771

$$$$

 OpenBabel03272509323D

 36 38  0  0  1  0  0  0  0  0999 V2000
   36.7750   21.7850   33.4150 C   0  0  2  0  0  0  0  0  0  0  0  0
   36.5150   20.3280   33.1650 C   0  0  0  0  0  0  0  0  0  0  0  0
   36.7090   19.9330   31.7160 C   0  0  0  0  0  0  0  0  0  0  0  0
   35.7810   20.7710   30.8320 C   0  0  0  0  0  0  0  0  0  0  0  0
   35.6870   22.2110   31.2430 C   0  0  0  0  0  0  0  0  0  0  0  0
   36.8830   22.5590   32.1460 C   0  0  1  0  0  0  0  0  0  0  0  0
   35.9780   22.2880   34.0340 H   0  0  0  0  0  0  0  0  0  0  0  0
   35.3880   20.2190   33.3110 H   0  0  0  0  0  0  0  0  0  0  0  0
   36.9440   19.6260   33.8570 H   0  0  0  0  0  0  0  0  0  0  0  0
   37.7320   20.1150   31.3410 H   0  0  0  0  0  0  0  0  0  0  0  0
   36.4100   18.8860   31.6420 H   0  0  0  0  0  0  0  0  0  0  0  0
   36.1070   20.6180   29.7890 H   0  0  0  0  0  0  0  0  0  0  0  0
   34.7700   20.3330   30.9710 H   0  0  0  0  0  0  0  0  0  0  0  0
   34.7960   22.4710   31.8270 H   0  0  0  0  0  0  0  0  0  0  0  0
   35.7530   22.8470   30.3330 H   0  0  0  0  0  0  0  0  0  0  0  0
   37.6910   22.1950   31.5600 H   0  0  0  0  0  0  0  0  0  0  0  0
   36.2810   25.0060   31.8690 C   0  0  0  0  0  0  0  0  0  0  0  0
   35.1320   25.0000   31.3350 O   0  0  0  0  0  0  0  0  0  0  0  0
   37.1290   23.9470   32.2890 N   0  0  0  0  0  0  0  0  0  0  0  0
   37.9990   24.3700   32.7400 H   0  0  0  0  0  0  0  0  0  0  0  0
   36.5760   26.4030   31.9720 N   0  0  0  0  0  0  0  0  0  0  0  0
   37.4260   26.8210   33.0690 C   0  0  0  0  0  2  0  0  0  0  0  0
   38.8080   27.1390   32.5110 C   0  0  0  0  0  2  0  0  0  0  0  0
   38.6340   27.6500   31.0800 C   0  0  0  0  0  3  0  0  0  0  0  0
   38.5740   26.8000   30.3770 H   0  0  0  0  0  0  0  0  0  0  0  0
   37.3570   28.4830   31.0390 C   0  0  0  0  0  2  0  0  0  0  0  0
   36.1630   27.5450   31.1410 C   0  0  0  0  0  2  0  0  0  0  0  0
   38.0230   21.9790   34.2000 C   0  0  0  0  0  0  0  0  0  0  0  0
   37.8440   22.2300   35.5780 C   0  0  0  0  0  0  0  0  0  0  0  0
   39.0090   22.4120   36.3300 C   0  0  0  0  0  0  0  0  0  0  0  0
   40.2310   22.3370   35.7010 N   0  0  0  0  0  0  0  0  0  0  0  0
   40.3460   22.0890   34.3580 C   0  0  0  0  0  0  0  0  0  0  0  0
   39.2300   21.9120   33.6220 N   0  0  0  0  0  0  0  0  0  0  0  0
   36.9550   22.3020   36.1670 H   0  0  0  0  0  0  0  0  0  0  0  0
   39.0330   22.6120   37.3880 H   0  0  0  0  0  0  0  0  0  0  0  0
   41.3430   22.0450   33.9380 H   0  0  0  0  0  0  0  0  0  0  0  0
  1  7  1  1  0  0  0
  1 28  1  0  0  0  0
  2  8  1  0  0  0  0
  2  1  1  0  0  0  0
  2  9  1  0  0  0  0
  3  2  1  0  0  0  0
  4 13  1  0  0  0  0
  4  5  1  0  0  0  0
  4  3  1  0  0  0  0
  5 14  1  0  0  0  0
  5  6  1  0  0  0  0
  6 16  1  6  0  0  0
  6 19  1  0  0  0  0
  6  1  1  0  0  0  0
 10  3  1  0  0  0  0
 11  3  1  0  0  0  0
 12  4  1  0  0  0  0
 15  5  1  0  0  0  0
 17 21  1  0  0  0  0
 17 19  1  0  0  0  0
 18 17  2  0  0  0  0
 19 20  1  0  0  0  0
 21 22  1  0  0  0  0
 23 22  1  0  0  0  0
 24 23  1  0  0  0  0
 25 24  1  0  0  0  0
 26 24  1  0  0  0  0
 26 27  1  0  0  0  0
 27 21  1  0  0  0  0
 28 29  1  0  0  0  0
 29 34  1  0  0  0  0
 29 30  2  0  0  0  0
 30 35  1  0  0  0  0
 31 30  1  0  0  0  0
 32 31  2  0  0  0  0
 33 28  2  0  0  0  0
 33 32  1  0  0  0  0
 36 32  1  0  0  0  0
M  END
>  <minimizedAffinity>
-5.05123854

$$$$

 OpenBabel03272509323D

 36 38  0  0  1  0  0  0  0  0999 V2000
   41.2140   26.7910   34.2950 C   0  0  2  0  0  0  0  0  0  0  0  0
   41.9580   27.5480   33.2330 C   0  0  0  0  0  0  0  0  0  0  0  0
   42.5170   26.6500   32.1480 C   0  0  0  0  0  0  0  0  0  0  0  0
   43.4510   25.6130   32.7780 C   0  0  0  0  0  0  0  0  0  0  0  0
   42.9480   25.0510   34.0750 C   0  0  0  0  0  0  0  0  0  0  0  0
   41.4390   25.3210   34.1940 C   0  0  1  0  0  0  0  0  0  0  0  0
   41.4960   27.0910   35.3450 H   0  0  0  0  0  0  0  0  0  0  0  0
   42.8970   27.9210   33.7640 H   0  0  0  0  0  0  0  0  0  0  0  0
   41.4960   28.4390   32.8480 H   0  0  0  0  0  0  0  0  0  0  0  0
   41.7430   26.0740   31.6090 H   0  0  0  0  0  0  0  0  0  0  0  0
   43.1030   27.2940   31.4900 H   0  0  0  0  0  0  0  0  0  0  0  0
   43.6550   24.8530   32.0040 H   0  0  0  0  0  0  0  0  0  0  0  0
   44.3860   26.1650   33.0100 H   0  0  0  0  0  0  0  0  0  0  0  0
   43.3940   25.4900   34.9760 H   0  0  0  0  0  0  0  0  0  0  0  0
   43.0960   23.9490   34.0680 H   0  0  0  0  0  0  0  0  0  0  0  0
   41.0950   24.9590   33.2560 H   0  0  0  0  0  0  0  0  0  0  0  0
   39.6860   23.6440   34.9270 C   0  0  0  0  0  0  0  0  0  0  0  0
   39.0900   23.3090   33.8600 O   0  0  0  0  0  0  0  0  0  0  0  0
   40.7720   24.5280   35.1600 N   0  0  0  0  0  0  0  0  0  0  0  0
   41.0130   24.4990   36.2000 H   0  0  0  0  0  0  0  0  0  0  0  0
   38.9890   22.8950   35.9280 N   0  0  0  0  0  0  0  0  0  0  0  0
   39.7420   22.4950   37.1000 C   0  0  0  0  0  2  0  0  0  0  0  0
   39.3230   23.3830   38.2660 C   0  0  0  0  0  2  0  0  0  0  0  0
   37.8600   23.7770   38.0580 C   0  0  0  0  0  3  0  0  0  0  0  0
   37.7950   24.6590   37.3960 H   0  0  0  0  0  0  0  0  0  0  0  0
   37.1420   22.5800   37.4440 C   0  0  0  0  0  2  0  0  0  0  0  0
   37.5930   22.4330   35.9990 C   0  0  0  0  0  2  0  0  0  0  0  0
   39.7530   27.0580   34.2180 C   0  0  0  0  0  0  0  0  0  0  0  0
   39.2050   27.0800   32.9170 C   0  0  0  0  0  0  0  0  0  0  0  0
   37.8310   27.3270   32.8300 C   0  0  0  0  0  0  0  0  0  0  0  0
   37.1120   27.5280   33.9850 N   0  0  0  0  0  0  0  0  0  0  0  0
   37.6970   27.4940   35.2240 C   0  0  0  0  0  0  0  0  0  0  0  0
   39.0210   27.2570   35.3220 N   0  0  0  0  0  0  0  0  0  0  0  0
   39.6620   26.9320   31.9620 H   0  0  0  0  0  0  0  0  0  0  0  0
   37.2730   27.3750   31.9100 H   0  0  0  0  0  0  0  0  0  0  0  0
   37.0620   27.6620   36.0850 H   0  0  0  0  0  0  0  0  0  0  0  0
  1  7  1  1  0  0  0
  2  8  1  0  0  0  0
  2  1  1  0  0  0  0
  3  4  1  0  0  0  0
  3  2  1  0  0  0  0
  4 13  1  0  0  0  0
  4  5  1  0  0  0  0
  5  6  1  0  0  0  0
  5 14  1  0  0  0  0
  6 16  1  6  0  0  0
  6  1  1  0  0  0  0
  6 19  1  0  0  0  0
  9  2  1  0  0  0  0
 10  3  1  0  0  0  0
 11  3  1  0  0  0  0
 12  4  1  0  0  0  0
 15  5  1  0  0  0  0
 17 19  1  0  0  0  0
 17 21  1  0  0  0  0
 18 17  2  0  0  0  0
 19 20  1  0  0  0  0
 21 27  1  0  0  0  0
 21 22  1  0  0  0  0
 22 23  1  0  0  0  0
 24 23  1  0  0  0  0
 25 24  1  0  0  0  0
 26 24  1  0  0  0  0
 27 26  1  0  0  0  0
 28  1  1  0  0  0  0
 28 33  1  0  0  0  0
 29 28  2  0  0  0  0
 30 29  1  0  0  0  0
 30 31  2  0  0  0  0
 31 32  1  0  0  0  0
 32 33  2  0  0  0  0
 32 36  1  0  0  0  0
 34 29  1  0  0  0  0
 35 30  1  0  0  0  0
M  END
>  <minimizedAffinity>
-5.02958965

$$$$

 OpenBabel03272509323D

 36 38  0  0  1  0  0  0  0  0999 V2000
   40.6690   24.7080   34.3450 C   0  0  2  0  0  0  0  0  0  0  0  0
   41.4520   25.9310   34.7240 C   0  0  0  0  0  0  0  0  0  0  0  0
   40.9020   27.2000   34.1040 C   0  0  0  0  0  0  0  0  0  0  0  0
   40.8910   27.0580   32.5800 C   0  0  0  0  0  0  0  0  0  0  0  0
   40.4600   25.7040   32.0980 C   0  0  0  0  0  0  0  0  0  0  0  0
   39.7160   24.9760   33.2310 C   0  0  1  0  0  0  0  0  0  0  0  0
   41.3140   23.8420   34.0180 H   0  0  0  0  0  0  0  0  0  0  0  0
   42.4510   25.7990   34.1880 H   0  0  0  0  0  0  0  0  0  0  0  0
   41.7170   26.0460   35.7590 H   0  0  0  0  0  0  0  0  0  0  0  0
   39.8590   27.4180   34.3970 H   0  0  0  0  0  0  0  0  0  0  0  0
   41.5950   27.9980   34.3760 H   0  0  0  0  0  0  0  0  0  0  0  0
   40.2870   27.8920   32.1850 H   0  0  0  0  0  0  0  0  0  0  0  0
   41.9480   27.1870   32.2670 H   0  0  0  0  0  0  0  0  0  0  0  0
   41.2780   25.0320   31.8080 H   0  0  0  0  0  0  0  0  0  0  0  0
   39.7480   25.8340   31.2550 H   0  0  0  0  0  0  0  0  0  0  0  0
   39.0130   25.7180   33.5190 H   0  0  0  0  0  0  0  0  0  0  0  0
   37.6660   23.9280   32.1730 C   0  0  0  0  0  0  0  0  0  0  0  0
   36.9590   24.9070   31.7920 O   0  0  0  0  0  0  0  0  0  0  0  0
   38.9350   23.8730   32.8100 N   0  0  0  0  0  0  0  0  0  0  0  0
   39.2120   22.8480   32.9210 H   0  0  0  0  0  0  0  0  0  0  0  0
   36.8660   22.7980   31.8070 N   0  0  0  0  0  0  0  0  0  0  0  0
   37.5650   21.5730   31.4700 C   0  0  0  0  0  2  0  0  0  0  0  0
   37.4140   20.6000   32.6330 C   0  0  0  0  0  2  0  0  0  0  0  0
   36.0710   20.8750   33.3090 C   0  0  0  0  0  3  0  0  0  0  0  0
   36.1750   21.6940   34.0430 H   0  0  0  0  0  0  0  0  0  0  0  0
   35.0710   21.2430   32.2180 C   0  0  0  0  0  2  0  0  0  0  0  0
   35.4070   22.6350   31.7030 C   0  0  0  0  0  2  0  0  0  0  0  0
   39.9090   24.1780   35.5080 C   0  0  0  0  0  0  0  0  0  0  0  0
   40.6000   23.2510   36.3170 C   0  0  0  0  0  0  0  0  0  0  0  0
   39.8980   22.7460   37.4170 C   0  0  0  0  0  0  0  0  0  0  0  0
   38.6090   23.1710   37.6410 N   0  0  0  0  0  0  0  0  0  0  0  0
   37.9860   24.0760   36.8220 C   0  0  0  0  0  0  0  0  0  0  0  0
   38.6520   24.5700   35.7580 N   0  0  0  0  0  0  0  0  0  0  0  0
   41.5920   22.8590   36.2430 H   0  0  0  0  0  0  0  0  0  0  0  0
   40.2900   22.0330   38.1220 H   0  0  0  0  0  0  0  0  0  0  0  0
   36.9700   24.3610   37.0650 H   0  0  0  0  0  0  0  0  0  0  0  0
  1  7  1  6  0  0  0
  1  2  1  0  0  0  0
  1 28  1  0  0  0  0
  2  9  1  0  0  0  0
  3 11  1  0  0  0  0
  3 10  1  0  0  0  0
  3  2  1  0  0  0  0
  4  3  1  0  0  0  0
  5  4  1  0  0  0  0
  5  6  1  0  0  0  0
  6 16  1  1  0  0  0
  6  1  1  0  0  0  0
  8  2  1  0  0  0  0
 12  4  1  0  0  0  0
 13  4  1  0  0  0  0
 14  5  1  0  0  0  0
 15  5  1  0  0  0  0
 17 19  1  0  0  0  0
 18 17  2  0  0  0  0
 19 20  1  0  0  0  0
 19  6  1  0  0  0  0
 21 17  1  0  0  0  0
 22 21  1  0  0  0  0
 22 23  1  0  0  0  0
 23 24  1  0  0  0  0
 24 25  1  0  0  0  0
 26 24  1  0  0  0  0
 27 21  1  0  0  0  0
 27 26  1  0  0  0  0
 28 33  2  0  0  0  0
 28 29  1  0  0  0  0
 29 30  2  0  0  0  0
 30 31  1  0  0  0  0
 30 35  1  0  0  0  0
 32 36  1  0  0  0  0
 32 31  2  0  0  0  0
 33 32  1  0  0  0  0
 34 29  1  0  0  0  0
M  END
>  <minimizedAffinity>
-5.02196074

$$$$

 OpenBabel03272509323D

 36 38  0  0  1  0  0  0  0  0999 V2000
   38.4590   23.2900   34.7510 C   0  0  2  0  0  0  0  0  0  0  0  0
   38.3800   22.3690   35.9340 C   0  0  0  0  0  0  0  0  0  0  0  0
   37.4580   22.8820   37.0220 C   0  0  0  0  0  0  0  0  0  0  0  0
   37.9360   24.2610   37.4850 C   0  0  0  0  0  0  0  0  0  0  0  0
   38.3980   25.1510   36.3690 C   0  0  0  0  0  0  0  0  0  0  0  0
   37.8470   24.6180   35.0350 C   0  0  1  0  0  0  0  0  0  0  0  0
   39.5130   23.4870   34.4020 H   0  0  0  0  0  0  0  0  0  0  0  0
   39.4120   22.4480   36.4160 H   0  0  0  0  0  0  0  0  0  0  0  0
   38.2570   21.3200   35.7350 H   0  0  0  0  0  0  0  0  0  0  0  0
   36.4140   23.0190   36.6870 H   0  0  0  0  0  0  0  0  0  0  0  0
   37.5490   22.1830   37.8550 H   0  0  0  0  0  0  0  0  0  0  0  0
   37.1280   24.6900   38.1010 H   0  0  0  0  0  0  0  0  0  0  0  0
   38.8230   24.0630   38.1240 H   0  0  0  0  0  0  0  0  0  0  0  0
   39.4860   25.2020   36.2340 H   0  0  0  0  0  0  0  0  0  0  0  0
   37.9780   26.1690   36.5260 H   0  0  0  0  0  0  0  0  0  0  0  0
   36.8170   24.5070   35.2730 H   0  0  0  0  0  0  0  0  0  0  0  0
   37.3110   26.8540   33.9680 C   0  0  0  0  0  0  0  0  0  0  0  0
   36.7100   27.5100   34.8700 O   0  0  0  0  0  0  0  0  0  0  0  0
   37.8780   25.5510   33.9700 N   0  0  0  0  0  0  0  0  0  0  0  0
   38.3410   25.3840   33.0230 H   0  0  0  0  0  0  0  0  0  0  0  0
   37.3040   27.7600   32.8590 N   0  0  0  0  0  0  0  0  0  0  0  0
   38.4090   27.6710   31.9250 C   0  0  0  0  0  2  0  0  0  0  0  0
   37.9100   26.9910   30.6560 C   0  0  0  0  0  2  0  0  0  0  0  0
   36.4310   27.3380   30.4830 C   0  0  0  0  0  3  0  0  0  0  0  0
   35.8060   26.6410   31.0710 H   0  0  0  0  0  0  0  0  0  0  0  0
   36.2350   28.7750   30.9530 C   0  0  0  0  0  2  0  0  0  0  0  0
   36.3490   28.8090   32.4700 C   0  0  0  0  0  2  0  0  0  0  0  0
   37.7860   22.6960   33.5660 C   0  0  0  0  0  0  0  0  0  0  0  0
   36.9140   21.6190   33.8360 C   0  0  0  0  0  0  0  0  0  0  0  0
   36.2720   21.0520   32.7300 C   0  0  0  0  0  0  0  0  0  0  0  0
   36.5180   21.5640   31.4770 N   0  0  0  0  0  0  0  0  0  0  0  0
   37.3750   22.6140   31.2730 C   0  0  0  0  0  0  0  0  0  0  0  0
   38.0020   23.1690   32.3300 N   0  0  0  0  0  0  0  0  0  0  0  0
   36.6450   21.1500   34.7570 H   0  0  0  0  0  0  0  0  0  0  0  0
   35.5820   20.2270   32.7760 H   0  0  0  0  0  0  0  0  0  0  0  0
   37.5160   22.9590   30.2560 H   0  0  0  0  0  0  0  0  0  0  0  0
  1  7  1  6  0  0  0
  1  6  1  0  0  0  0
  1  2  1  0  0  0  0
  2  8  1  0  0  0  0
  2  3  1  0  0  0  0
  3  4  1  0  0  0  0
  3 11  1  0  0  0  0
  4 12  1  0  0  0  0
  4 13  1  0  0  0  0
  5 15  1  0  0  0  0
  5  4  1  0  0  0  0
  6 16  1  1  0  0  0
  6  5  1  0  0  0  0
  9  2  1  0  0  0  0
 10  3  1  0  0  0  0
 14  5  1  0  0  0  0
 17 19  1  0  0  0  0
 17 18  2  0  0  0  0
 19  6  1  0  0  0  0
 20 19  1  0  0  0  0
 21 17  1  0  0  0  0
 22 21  1  0  0  0  0
 23 22  1  0  0  0  0
 24 23  1  0  0  0  0
 24 26  1  0  0  0  0
 24 25  1  0  0  0  0
 26 27  1  0  0  0  0
 27 21  1  0  0  0  0
 28 29  1  0  0  0  0
 28  1  1  0  0  0  0
 29 34  1  0  0  0  0
 30 35  1  0  0  0  0
 30 29  2  0  0  0  0
 31 30  1  0  0  0  0
 32 31  2  0  0  0  0
 32 33  1  0  0  0  0
 33 28  2  0  0  0  0
 36 32  1  0  0  0  0
M  END
>  <minimizedAffinity>
-4.96146393

$$$$
