
 OpenBabel03272506413D

 17 18  0  0  0  0  0  0  0  0999 V2000
   37.5290   30.0900   51.4180 C   0  0  0  0  0  0  0  0  0  0  0  0
   38.0710   31.0790   50.5740 C   0  0  0  0  0  0  0  0  0  0  0  0
   37.3410   31.4450   49.4330 C   0  0  0  0  0  0  0  0  0  0  0  0
   36.1560   30.8290   49.2030 N   0  0  0  0  0  0  0  0  0  0  0  0
   35.6620   29.8930   50.0180 C   0  0  0  0  0  0  0  0  0  0  0  0
   36.3410   29.5260   51.1160 N   0  0  0  0  0  0  0  0  0  0  0  0
   38.0950   29.8020   52.3100 H   0  0  0  0  0  0  0  0  0  0  0  0
   39.0260   31.5020   50.8590 H   0  0  0  0  0  0  0  0  0  0  0  0
   37.7630   32.1940   48.8050 H   0  0  0  0  0  0  0  0  0  0  0  0
   34.1040   29.0730   49.7290 S   0  0  0  0  0  0  0  0  0  0  0  0
   31.8560   28.1300   46.0710 H   0  0  0  0  0  0  0  0  0  0  0  0
   32.6430   27.5150   45.8200 N   0  0  0  0  0  0  0  0  0  0  0  0
   32.8080   26.5250   46.8430 C   0  0  0  0  0  0  0  0  0  0  0  0
   32.9390   27.2420   48.1720 C   0  0  0  0  0  0  0  0  0  0  0  0
   34.1550   28.1720   48.1500 C   0  0  0  0  0  0  0  0  0  0  0  0
   33.9500   29.1330   46.9890 C   0  0  0  0  0  0  0  0  0  0  0  0
   33.8420   28.3040   45.7270 C   0  0  0  0  0  0  0  0  0  0  0  0
  1  7  1  0  0  0  0
  2  8  1  0  0  0  0
  2  1  2  0  0  0  0
  3  2  1  0  0  0  0
  4  3  2  0  0  0  0
  4  5  1  0  0  0  0
  5  6  2  0  0  0  0
  6  1  1  0  0  0  0
  9  3  1  0  0  0  0
 10  5  1  0  0  0  0
 12 11  1  0  0  0  0
 12 13  1  0  0  0  0
 13 14  1  0  0  0  0
 15 14  1  0  0  0  0
 15 10  1  0  0  0  0
 16 15  1  0  0  0  0
 17 12  1  0  0  0  0
 17 16  1  0  0  0  0
M  END
>  <minimizedAffinity>
-3.68320251

>  <minimizedRMSD>
2.42246342

$$$$
