
 OpenBabel03262521363D

 35 38  0  0  1  0  0  0  0  0999 V2000
   38.1800   25.8320   34.8010 C   0  0  1  0  0  0  0  0  0  0  0  0
   38.4530   25.7240   33.3730 C   0  0  2  0  0  0  0  0  0  0  0  0
   38.1240   27.1410   32.8570 C   0  0  0  0  0  0  0  0  0  0  0  0
   37.0210   27.4580   33.5970 O   0  0  0  0  0  0  0  0  0  0  0  0
   37.1210   26.9340   34.8640 C   0  0  0  0  0  0  0  0  0  0  0  0
   39.0600   26.1800   35.3790 H   0  0  0  0  0  0  0  0  0  0  0  0
   39.5380   25.6010   33.1760 H   0  0  0  0  0  0  0  0  0  0  0  0
   37.8310   27.0030   31.8030 H   0  0  0  0  0  0  0  0  0  0  0  0
   39.0010   27.8030   32.9840 H   0  0  0  0  0  0  0  0  0  0  0  0
   37.4180   27.7320   35.5590 H   0  0  0  0  0  0  0  0  0  0  0  0
   36.1480   26.5550   35.1750 H   0  0  0  0  0  0  0  0  0  0  0  0
   38.1180   23.2930   32.4650 C   0  0  1  0  0  0  0  0  0  0  0  0
   38.3460   24.1850   31.3580 C   0  0  0  0  0  0  0  0  0  0  0  0
   37.6080   24.7290   32.6000 C   0  0  2  0  0  0  0  0  0  0  0  0
   38.9300   23.0940   33.1950 H   0  0  0  0  0  0  0  0  0  0  0  0
   39.3490   24.5370   31.1330 H   0  0  0  0  0  0  0  0  0  0  0  0
   37.7170   24.0710   30.4370 H   0  0  0  0  0  0  0  0  0  0  0  0
   36.5430   24.9480   32.5080 H   0  0  0  0  0  0  0  0  0  0  0  0
   35.2440   21.1280   31.4060 C   0  0  0  0  0  0  0  0  0  0  0  0
   36.2770   22.0590   31.3570 C   0  0  0  0  0  0  0  0  0  0  0  0
   37.0370   22.2950   32.4890 C   0  0  0  0  0  0  0  0  0  0  0  0
   36.7200   21.5860   33.6080 N   0  0  0  0  0  0  0  0  0  0  0  0
   35.7130   20.6830   33.6490 C   0  0  0  0  0  0  0  0  0  0  0  0
   34.9640   20.4480   32.5340 N   0  0  0  0  0  0  0  0  0  0  0  0
   34.6250   20.9180   30.5280 H   0  0  0  0  0  0  0  0  0  0  0  0
   36.4270   22.5520   30.4160 H   0  0  0  0  0  0  0  0  0  0  0  0
   35.5830   20.2000   34.6080 H   0  0  0  0  0  0  0  0  0  0  0  0
   37.7150   24.6550   35.3930 O   0  0  0  0  0  0  0  0  0  0  0  0
   40.6260   23.6740   38.5850 H   0  0  0  0  0  0  0  0  0  0  0  0
   39.9710   22.9290   38.3260 N   0  0  0  0  0  0  0  0  0  0  0  0
   38.6110   23.2710   38.6440 C   0  0  0  0  0  2  0  0  0  0  0  0
   38.0420   24.3200   37.6920 C   0  0  0  0  0  2  0  0  0  0  0  0
   38.6280   24.1680   36.3110 C   0  0  0  0  0  3  0  0  0  0  0  0
   38.9270   22.7040   36.1250 C   0  0  0  0  0  2  0  0  0  0  0  0
   40.1310   22.3510   37.0280 C   0  0  0  0  0  2  0  0  0  0  0  0
  1  5  1  0  0  0  0
  1  6  1  1  0  0  0
  1 28  1  0  0  0  0
  2  7  1  6  0  0  0
  2  1  1  0  0  0  0
  3  9  1  0  0  0  0
  3  2  1  0  0  0  0
  3  4  1  0  0  0  0
  4  5  1  0  0  0  0
  5 11  1  0  0  0  0
  5 10  1  0  0  0  0
  8  3  1  0  0  0  0
 12 21  1  0  0  0  0
 12 14  1  0  0  0  0
 12 15  1  1  0  0  0
 13 12  1  0  0  0  0
 13 14  1  0  0  0  0
 14 18  1  6  0  0  0
 14  2  1  0  0  0  0
 16 13  1  0  0  0  0
 17 13  1  0  0  0  0
 19 24  1  0  0  0  0
 20 19  2  0  0  0  0
 20 21  1  0  0  0  0
 21 22  2  0  0  0  0
 22 23  1  0  0  0  0
 23 27  1  0  0  0  0
 24 23  2  0  0  0  0
 25 19  1  0  0  0  0
 26 20  1  0  0  0  0
 28 33  1  0  0  0  0
 30 29  1  0  0  0  0
 30 31  1  0  0  0  0
 32 31  1  0  0  0  0
 33 32  1  0  0  0  0
 34 33  1  0  0  0  0
 34 35  1  0  0  0  0
 35 30  1  0  0  0  0
M  END
>  <minimizedAffinity>
-5.19911432

$$$$

 OpenBabel03262521363D

 35 38  0  0  1  0  0  0  0  0999 V2000
   37.6550   24.9200   32.0530 C   0  0  1  0  0  0  0  0  0  0  0  0
   37.5230   25.9550   33.0700 C   0  0  2  0  0  0  0  0  0  0  0  0
   38.0220   27.2180   32.3340 C   0  0  0  0  0  0  0  0  0  0  0  0
   39.0650   26.7220   31.6080 O   0  0  0  0  0  0  0  0  0  0  0  0
   38.7920   25.4470   31.1750 C   0  0  0  0  0  0  0  0  0  0  0  0
   36.7530   24.8300   31.4140 H   0  0  0  0  0  0  0  0  0  0  0  0
   36.4570   26.1690   33.2960 H   0  0  0  0  0  0  0  0  0  0  0  0
   38.4090   27.8790   33.1270 H   0  0  0  0  0  0  0  0  0  0  0  0
   37.1960   27.6690   31.7530 H   0  0  0  0  0  0  0  0  0  0  0  0
   38.4940   25.4820   30.1180 H   0  0  0  0  0  0  0  0  0  0  0  0
   39.6920   24.8370   31.2540 H   0  0  0  0  0  0  0  0  0  0  0  0
   37.6560   25.2910   35.5970 C   0  0  1  0  0  0  0  0  0  0  0  0
   37.8890   26.7070   35.4660 C   0  0  0  0  0  0  0  0  0  0  0  0
   38.3550   25.7770   34.3250 C   0  0  2  0  0  0  0  0  0  0  0  0
   36.6590   24.8680   35.3600 H   0  0  0  0  0  0  0  0  0  0  0  0
   37.0570   27.3870   35.2980 H   0  0  0  0  0  0  0  0  0  0  0  0
   38.7080   27.1750   36.0700 H   0  0  0  0  0  0  0  0  0  0  0  0
   39.4280   25.6280   34.1930 H   0  0  0  0  0  0  0  0  0  0  0  0
   40.3960   22.9560   36.6500 C   0  0  0  0  0  0  0  0  0  0  0  0
   39.6220   23.8080   35.8670 C   0  0  0  0  0  0  0  0  0  0  0  0
   38.5020   24.4070   36.4140 C   0  0  0  0  0  0  0  0  0  0  0  0
   38.2190   24.1210   37.7160 N   0  0  0  0  0  0  0  0  0  0  0  0
   38.9750   23.2910   38.4710 C   0  0  0  0  0  0  0  0  0  0  0  0
   40.0800   22.7000   37.9330 N   0  0  0  0  0  0  0  0  0  0  0  0
   41.2880   22.4670   36.2470 H   0  0  0  0  0  0  0  0  0  0  0  0
   39.9510   23.9520   34.8560 H   0  0  0  0  0  0  0  0  0  0  0  0
   38.6230   23.1630   39.4850 H   0  0  0  0  0  0  0  0  0  0  0  0
   37.9550   23.6510   32.5550 O   0  0  0  0  0  0  0  0  0  0  0  0
   34.0540   21.5590   32.3650 H   0  0  0  0  0  0  0  0  0  0  0  0
   34.8890   20.9640   32.3310 N   0  0  0  0  0  0  0  0  0  0  0  0
   35.6660   21.1900   31.1430 C   0  0  0  0  0  2  0  0  0  0  0  0
   36.4200   22.5160   31.1900 C   0  0  0  0  0  2  0  0  0  0  0  0
   36.8240   22.8570   32.6030 C   0  0  0  0  0  3  0  0  0  0  0  0
   37.0500   21.5500   33.3150 C   0  0  0  0  0  2  0  0  0  0  0  0
   35.6720   20.8830   33.5250 C   0  0  0  0  0  2  0  0  0  0  0  0
  1  6  1  6  0  0  0
  1 28  1  0  0  0  0
  1  2  1  0  0  0  0
  2  7  1  1  0  0  0
  2 14  1  0  0  0  0
  3  2  1  0  0  0  0
  3  8  1  0  0  0  0
  4  3  1  0  0  0  0
  5 11  1  0  0  0  0
  5  4  1  0  0  0  0
  5  1  1  0  0  0  0
  9  3  1  0  0  0  0
 10  5  1  0  0  0  0
 12 15  1  6  0  0  0
 12 21  1  0  0  0  0
 13 12  1  0  0  0  0
 13 17  1  0  0  0  0
 14 18  1  6  0  0  0
 14 13  1  0  0  0  0
 14 12  1  0  0  0  0
 16 13  1  0  0  0  0
 19 24  1  0  0  0  0
 20 21  1  0  0  0  0
 20 19  2  0  0  0  0
 21 22  2  0  0  0  0
 22 23  1  0  0  0  0
 23 27  1  0  0  0  0
 24 23  2  0  0  0  0
 25 19  1  0  0  0  0
 26 20  1  0  0  0  0
 28 33  1  0  0  0  0
 30 29  1  0  0  0  0
 30 35  1  0  0  0  0
 31 32  1  0  0  0  0
 31 30  1  0  0  0  0
 32 33  1  0  0  0  0
 33 34  1  0  0  0  0
 34 35  1  0  0  0  0
M  END
>  <minimizedAffinity>
-4.92369986

$$$$

 OpenBabel03262521363D

 35 38  0  0  1  0  0  0  0  0999 V2000
   37.4740   25.6180   32.3160 C   0  0  1  0  0  0  0  0  0  0  0  0
   38.0470   26.6980   33.1110 C   0  0  2  0  0  0  0  0  0  0  0  0
   39.1070   27.2930   32.1590 C   0  0  0  0  0  0  0  0  0  0  0  0
   39.6130   26.1710   31.5700 O   0  0  0  0  0  0  0  0  0  0  0  0
   38.6250   25.2340   31.3840 C   0  0  0  0  0  0  0  0  0  0  0  0
   36.6290   25.9550   31.6830 H   0  0  0  0  0  0  0  0  0  0  0  0
   37.3170   27.5210   33.2630 H   0  0  0  0  0  0  0  0  0  0  0  0
   39.8710   27.7360   32.8200 H   0  0  0  0  0  0  0  0  0  0  0  0
   38.6370   28.0290   31.4800 H   0  0  0  0  0  0  0  0  0  0  0  0
   38.3070   25.2510   30.3320 H   0  0  0  0  0  0  0  0  0  0  0  0
   39.0210   24.2430   31.6030 H   0  0  0  0  0  0  0  0  0  0  0  0
   37.8730   25.8410   35.5760 C   0  0  1  0  0  0  0  0  0  0  0  0
   38.3400   27.2030   35.5810 C   0  0  0  0  0  0  0  0  0  0  0  0
   38.7380   26.2940   34.3990 C   0  0  2  0  0  0  0  0  0  0  0  0
   36.8420   25.6080   35.2390 H   0  0  0  0  0  0  0  0  0  0  0  0
   37.6440   28.0230   35.4160 H   0  0  0  0  0  0  0  0  0  0  0  0
   39.1740   27.4840   36.2740 H   0  0  0  0  0  0  0  0  0  0  0  0
   39.7800   25.9770   34.3240 H   0  0  0  0  0  0  0  0  0  0  0  0
   38.6400   23.4640   38.3750 C   0  0  0  0  0  0  0  0  0  0  0  0
   38.0200   24.4640   37.6310 C   0  0  0  0  0  0  0  0  0  0  0  0
   38.4980   24.7710   36.3700 C   0  0  0  0  0  0  0  0  0  0  0  0
   39.5710   24.0600   35.9230 N   0  0  0  0  0  0  0  0  0  0  0  0
   40.1690   23.0900   36.6520 C   0  0  0  0  0  0  0  0  0  0  0  0
   39.7000   22.7850   37.8950 N   0  0  0  0  0  0  0  0  0  0  0  0
   38.2860   23.1970   39.3750 H   0  0  0  0  0  0  0  0  0  0  0  0
   37.1840   24.9500   38.0950 H   0  0  0  0  0  0  0  0  0  0  0  0
   41.0090   22.6150   36.1630 H   0  0  0  0  0  0  0  0  0  0  0  0
   37.0430   24.5180   33.0610 O   0  0  0  0  0  0  0  0  0  0  0  0
   37.9960   20.8090   30.8330 H   0  0  0  0  0  0  0  0  0  0  0  0
   37.1030   20.8170   31.3370 N   0  0  0  0  0  0  0  0  0  0  0  0
   37.2880   20.8920   32.7610 C   0  0  0  0  0  2  0  0  0  0  0  0
   37.7360   22.2810   33.2120 C   0  0  0  0  0  2  0  0  0  0  0  0
   37.1480   23.3510   32.3260 C   0  0  0  0  0  3  0  0  0  0  0  0
   35.8170   22.8340   31.8480 C   0  0  0  0  0  2  0  0  0  0  0  0
   36.0890   21.6940   30.8410 C   0  0  0  0  0  2  0  0  0  0  0  0
  1  6  1  6  0  0  0
  1 28  1  0  0  0  0
  1  2  1  0  0  0  0
  2  7  1  1  0  0  0
  2 14  1  0  0  0  0
  3  8  1  0  0  0  0
  3  2  1  0  0  0  0
  4  3  1  0  0  0  0
  5  4  1  0  0  0  0
  5 11  1  0  0  0  0
  5  1  1  0  0  0  0
  9  3  1  0  0  0  0
 10  5  1  0  0  0  0
 12 15  1  6  0  0  0
 12 13  1  0  0  0  0
 12 21  1  0  0  0  0
 13 17  1  0  0  0  0
 14 18  1  6  0  0  0
 14 12  1  0  0  0  0
 14 13  1  0  0  0  0
 16 13  1  0  0  0  0
 19 25  1  0  0  0  0
 20 26  1  0  0  0  0
 20 19  2  0  0  0  0
 21 20  1  0  0  0  0
 22 21  2  0  0  0  0
 22 23  1  0  0  0  0
 23 24  2  0  0  0  0
 24 19  1  0  0  0  0
 27 23  1  0  0  0  0
 29 30  1  0  0  0  0
 30 31  1  0  0  0  0
 31 32  1  0  0  0  0
 33 28  1  0  0  0  0
 33 32  1  0  0  0  0
 34 33  1  0  0  0  0
 35 30  1  0  0  0  0
 35 34  1  0  0  0  0
M  END
>  <minimizedAffinity>
-4.88613224

$$$$

 OpenBabel03262521363D

 35 38  0  0  1  0  0  0  0  0999 V2000
   37.8570   23.6120   33.8430 C   0  0  1  0  0  0  0  0  0  0  0  0
   37.6720   24.9660   33.3360 C   0  0  2  0  0  0  0  0  0  0  0  0
   36.8320   24.7380   32.0610 C   0  0  0  0  0  0  0  0  0  0  0  0
   37.3920   23.5990   31.5580 O   0  0  0  0  0  0  0  0  0  0  0  0
   37.7770   22.7590   32.5750 C   0  0  0  0  0  0  0  0  0  0  0  0
   37.0370   23.2910   34.5150 H   0  0  0  0  0  0  0  0  0  0  0  0
   37.0120   25.5620   34.0000 H   0  0  0  0  0  0  0  0  0  0  0  0
   37.0740   25.5870   31.4000 H   0  0  0  0  0  0  0  0  0  0  0  0
   35.7580   24.6780   32.3200 H   0  0  0  0  0  0  0  0  0  0  0  0
   37.0310   21.9590   32.6820 H   0  0  0  0  0  0  0  0  0  0  0  0
   38.7330   22.3010   32.3240 H   0  0  0  0  0  0  0  0  0  0  0  0
   39.5620   26.6590   33.9750 C   0  0  1  0  0  0  0  0  0  0  0  0
   38.7210   27.2470   32.9640 C   0  0  0  0  0  0  0  0  0  0  0  0
   38.9310   25.7180   32.9460 C   0  0  2  0  0  0  0  0  0  0  0  0
   39.1570   26.4610   34.9880 H   0  0  0  0  0  0  0  0  0  0  0  0
   37.7470   27.6520   33.2270 H   0  0  0  0  0  0  0  0  0  0  0  0
   39.2030   27.8080   32.1230 H   0  0  0  0  0  0  0  0  0  0  0  0
   39.5340   25.2930   32.1420 H   0  0  0  0  0  0  0  0  0  0  0  0
   43.0750   27.4660   32.9360 C   0  0  0  0  0  0  0  0  0  0  0  0
   41.6840   27.4820   32.9960 C   0  0  0  0  0  0  0  0  0  0  0  0
   41.0320   26.6750   33.9110 C   0  0  0  0  0  0  0  0  0  0  0  0
   41.8090   25.8970   34.7150 N   0  0  0  0  0  0  0  0  0  0  0  0
   43.1600   25.8860   34.6510 C   0  0  0  0  0  0  0  0  0  0  0  0
   43.8040   26.6810   33.7500 N   0  0  0  0  0  0  0  0  0  0  0  0
   43.6200   28.0930   32.2230 H   0  0  0  0  0  0  0  0  0  0  0  0
   41.1870   28.1390   32.3080 H   0  0  0  0  0  0  0  0  0  0  0  0
   43.6370   25.2160   35.3530 H   0  0  0  0  0  0  0  0  0  0  0  0
   39.0670   23.4050   34.5110 O   0  0  0  0  0  0  0  0  0  0  0  0
   38.4880   21.7560   38.5820 H   0  0  0  0  0  0  0  0  0  0  0  0
   38.9310   22.6790   38.5270 N   0  0  0  0  0  0  0  0  0  0  0  0
   40.2150   22.6240   37.8820 C   0  0  0  0  0  2  0  0  0  0  0  0
   40.0950   22.4160   36.3740 C   0  0  0  0  0  2  0  0  0  0  0  0
   38.8500   23.0760   35.8370 C   0  0  0  0  0  3  0  0  0  0  0  0
   38.5860   24.2760   36.7060 C   0  0  0  0  0  2  0  0  0  0  0  0
   38.1110   23.7640   38.0850 C   0  0  0  0  0  2  0  0  0  0  0  0
  1 28  1  0  0  0  0
  1  6  1  1  0  0  0
  2  1  1  0  0  0  0
  2  7  1  1  0  0  0
  3  9  1  0  0  0  0
  3  2  1  0  0  0  0
  4  3  1  0  0  0  0
  4  5  1  0  0  0  0
  5 10  1  0  0  0  0
  5  1  1  0  0  0  0
  8  3  1  0  0  0  0
 11  5  1  0  0  0  0
 12 15  1  1  0  0  0
 13 16  1  0  0  0  0
 13 12  1  0  0  0  0
 14 18  1  6  0  0  0
 14 13  1  0  0  0  0
 14  2  1  0  0  0  0
 14 12  1  0  0  0  0
 17 13  1  0  0  0  0
 19 20  2  0  0  0  0
 19 24  1  0  0  0  0
 20 21  1  0  0  0  0
 21 12  1  0  0  0  0
 21 22  2  0  0  0  0
 23 22  1  0  0  0  0
 23 27  1  0  0  0  0
 24 23  2  0  0  0  0
 25 19  1  0  0  0  0
 26 20  1  0  0  0  0
 28 33  1  0  0  0  0
 30 29  1  0  0  0  0
 31 30  1  0  0  0  0
 32 31  1  0  0  0  0
 33 32  1  0  0  0  0
 33 34  1  0  0  0  0
 34 35  1  0  0  0  0
 35 30  1  0  0  0  0
M  END
>  <minimizedAffinity>
-4.83033848

$$$$

 OpenBabel03262521363D

 35 38  0  0  1  0  0  0  0  0999 V2000
   33.3750   31.2640   33.1540 C   0  0  1  0  0  0  0  0  0  0  0  0
   34.2520   31.3840   31.9960 C   0  0  2  0  0  0  0  0  0  0  0  0
   33.3000   31.9160   30.9040 C   0  0  0  0  0  0  0  0  0  0  0  0
   32.1570   31.2170   31.1670 O   0  0  0  0  0  0  0  0  0  0  0  0
   32.0020   31.0330   32.5200 C   0  0  0  0  0  0  0  0  0  0  0  0
   33.3180   32.2000   33.7460 H   0  0  0  0  0  0  0  0  0  0  0  0
   34.9980   32.1960   32.1340 H   0  0  0  0  0  0  0  0  0  0  0  0
   33.7310   31.5670   29.9510 H   0  0  0  0  0  0  0  0  0  0  0  0
   33.2220   33.0170   30.9720 H   0  0  0  0  0  0  0  0  0  0  0  0
   31.2640   31.7540   32.8980 H   0  0  0  0  0  0  0  0  0  0  0  0
   31.6240   30.0290   32.7080 H   0  0  0  0  0  0  0  0  0  0  0  0
   36.2410   29.6850   32.0620 C   0  0  1  0  0  0  0  0  0  0  0  0
   36.2320   30.3550   30.7870 C   0  0  0  0  0  0  0  0  0  0  0  0
   34.8830   30.1000   31.4920 C   0  0  2  0  0  0  0  0  0  0  0  0
   36.4690   30.2540   32.9870 H   0  0  0  0  0  0  0  0  0  0  0  0
   36.6070   31.3710   30.6980 H   0  0  0  0  0  0  0  0  0  0  0  0
   36.4120   29.7510   29.8610 H   0  0  0  0  0  0  0  0  0  0  0  0
   34.2130   29.3540   31.0620 H   0  0  0  0  0  0  0  0  0  0  0  0
   37.1380   26.3100   33.4310 C   0  0  0  0  0  0  0  0  0  0  0  0
   36.9950   27.6910   33.3240 C   0  0  0  0  0  0  0  0  0  0  0  0
   36.3810   28.2280   32.2070 C   0  0  0  0  0  0  0  0  0  0  0  0
   35.9440   27.3520   31.2590 N   0  0  0  0  0  0  0  0  0  0  0  0
   36.0880   26.0110   31.3690 C   0  0  0  0  0  0  0  0  0  0  0  0
   36.6930   25.4810   32.4690 N   0  0  0  0  0  0  0  0  0  0  0  0
   37.6200   25.8550   34.3030 H   0  0  0  0  0  0  0  0  0  0  0  0
   37.3810   28.2720   34.1390 H   0  0  0  0  0  0  0  0  0  0  0  0
   35.6910   25.4480   30.5350 H   0  0  0  0  0  0  0  0  0  0  0  0
   33.7070   30.2230   34.0260 O   0  0  0  0  0  0  0  0  0  0  0  0
   35.1890   31.3540   38.0450 H   0  0  0  0  0  0  0  0  0  0  0  0
   34.8500   32.1210   37.4560 N   0  0  0  0  0  0  0  0  0  0  0  0
   35.6670   32.3070   36.2870 C   0  0  0  0  0  2  0  0  0  0  0  0
   35.4510   31.2050   35.2520 C   0  0  0  0  0  2  0  0  0  0  0  0
   34.0260   30.7110   35.2800 C   0  0  0  0  0  3  0  0  0  0  0  0
   33.1710   31.8780   35.6940 C   0  0  0  0  0  2  0  0  0  0  0  0
   33.4460   32.1580   37.1890 C   0  0  0  0  0  2  0  0  0  0  0  0
  1  6  1  1  0  0  0
  1 28  1  0  0  0  0
  2  7  1  1  0  0  0
  2  1  1  0  0  0  0
  3  9  1  0  0  0  0
  3  4  1  0  0  0  0
  3  2  1  0  0  0  0
  4  5  1  0  0  0  0
  5 11  1  0  0  0  0
  5 10  1  0  0  0  0
  5  1  1  0  0  0  0
  8  3  1  0  0  0  0
 12 21  1  0  0  0  0
 12 15  1  1  0  0  0
 13 14  1  0  0  0  0
 13 12  1  0  0  0  0
 14 18  1  6  0  0  0
 14  2  1  0  0  0  0
 14 12  1  0  0  0  0
 16 13  1  0  0  0  0
 17 13  1  0  0  0  0
 19 25  1  0  0  0  0
 20 19  1  0  0  0  0
 20 26  1  0  0  0  0
 21 20  2  0  0  0  0
 22 23  2  0  0  0  0
 22 21  1  0  0  0  0
 23 24  1  0  0  0  0
 24 19  2  0  0  0  0
 27 23  1  0  0  0  0
 28 33  1  0  0  0  0
 30 29  1  0  0  0  0
 31 30  1  0  0  0  0
 32 33  1  0  0  0  0
 32 31  1  0  0  0  0
 33 34  1  0  0  0  0
 34 35  1  0  0  0  0
 35 30  1  0  0  0  0
M  END
>  <minimizedAffinity>
-4.82950592

$$$$

 OpenBabel03262521363D

 35 38  0  0  1  0  0  0  0  0999 V2000
   34.4550   29.5330   33.8110 C   0  0  1  0  0  0  0  0  0  0  0  0
   34.3060   30.2410   35.0760 C   0  0  2  0  0  0  0  0  0  0  0  0
   32.7800   30.2050   35.3070 C   0  0  0  0  0  0  0  0  0  0  0  0
   32.3030   30.3990   34.0430 O   0  0  0  0  0  0  0  0  0  0  0  0
   33.1140   29.7840   33.1200 C   0  0  0  0  0  0  0  0  0  0  0  0
   34.5630   28.4380   33.9440 H   0  0  0  0  0  0  0  0  0  0  0  0
   34.7290   29.6580   35.9210 H   0  0  0  0  0  0  0  0  0  0  0  0
   32.5600   31.0930   35.9220 H   0  0  0  0  0  0  0  0  0  0  0  0
   32.4930   29.2540   35.7950 H   0  0  0  0  0  0  0  0  0  0  0  0
   32.6470   28.8400   32.8040 H   0  0  0  0  0  0  0  0  0  0  0  0
   33.2140   30.4240   32.2440 H   0  0  0  0  0  0  0  0  0  0  0  0
   36.1640   32.0080   35.5960 C   0  0  1  0  0  0  0  0  0  0  0  0
   35.0740   32.1800   36.5220 C   0  0  0  0  0  0  0  0  0  0  0  0
   34.7540   31.6910   35.0940 C   0  0  2  0  0  0  0  0  0  0  0  0
   36.7850   31.0900   35.6330 H   0  0  0  0  0  0  0  0  0  0  0  0
   34.9550   31.5000   37.3620 H   0  0  0  0  0  0  0  0  0  0  0  0
   34.7310   33.2200   36.7620 H   0  0  0  0  0  0  0  0  0  0  0  0
   34.2400   32.3770   34.4200 H   0  0  0  0  0  0  0  0  0  0  0  0
   37.2010   34.3400   32.8460 C   0  0  0  0  0  0  0  0  0  0  0  0
   36.5790   33.2900   33.5160 C   0  0  0  0  0  0  0  0  0  0  0  0
   36.7920   33.1260   34.8730 C   0  0  0  0  0  0  0  0  0  0  0  0
   37.6160   34.0220   35.4840 N   0  0  0  0  0  0  0  0  0  0  0  0
   38.2180   35.0400   34.8260 C   0  0  0  0  0  0  0  0  0  0  0  0
   38.0090   35.2030   33.4890 N   0  0  0  0  0  0  0  0  0  0  0  0
   37.0520   34.4960   31.7730 H   0  0  0  0  0  0  0  0  0  0  0  0
   35.9530   32.6520   32.9220 H   0  0  0  0  0  0  0  0  0  0  0  0
   38.8430   35.6670   35.4470 H   0  0  0  0  0  0  0  0  0  0  0  0
   35.5180   29.9770   33.0210 O   0  0  0  0  0  0  0  0  0  0  0  0
   35.6610   27.7630   29.1860 H   0  0  0  0  0  0  0  0  0  0  0  0
   36.5370   27.8050   29.7170 N   0  0  0  0  0  0  0  0  0  0  0  0
   37.0450   29.1460   29.8160 C   0  0  0  0  0  2  0  0  0  0  0  0
   36.2330   30.0010   30.7850 C   0  0  0  0  0  2  0  0  0  0  0  0
   35.6870   29.1640   31.9150 C   0  0  0  0  0  3  0  0  0  0  0  0
   36.6750   28.0520   32.1470 C   0  0  0  0  0  2  0  0  0  0  0  0
   36.5800   27.0800   30.9490 C   0  0  0  0  0  2  0  0  0  0  0  0
  1  6  1  1  0  0  0
  1  2  1  0  0  0  0
  2 14  1  0  0  0  0
  2  3  1  0  0  0  0
  2  7  1  1  0  0  0
  3  9  1  0  0  0  0
  3  8  1  0  0  0  0
  4  3  1  0  0  0  0
  5  1  1  0  0  0  0
  5  4  1  0  0  0  0
 10  5  1  0  0  0  0
 11  5  1  0  0  0  0
 12 15  1  1  0  0  0
 12 13  1  0  0  0  0
 13 17  1  0  0  0  0
 13 16  1  0  0  0  0
 14 18  1  6  0  0  0
 14 12  1  0  0  0  0
 14 13  1  0  0  0  0
 19 24  2  0  0  0  0
 19 20  1  0  0  0  0
 20 21  2  0  0  0  0
 21 22  1  0  0  0  0
 21 12  1  0  0  0  0
 23 27  1  0  0  0  0
 23 22  2  0  0  0  0
 24 23  1  0  0  0  0
 25 19  1  0  0  0  0
 26 20  1  0  0  0  0
 28  1  1  0  0  0  0
 29 30  1  0  0  0  0
 30 31  1  0  0  0  0
 30 35  1  0  0  0  0
 31 32  1  0  0  0  0
 32 33  1  0  0  0  0
 33 34  1  0  0  0  0
 33 28  1  0  0  0  0
 35 34  1  0  0  0  0
M  END
>  <minimizedAffinity>
-4.82057524

$$$$

 OpenBabel03262521363D

 35 38  0  0  1  0  0  0  0  0999 V2000
   39.0020   23.4020   35.2130 C   0  0  1  0  0  0  0  0  0  0  0  0
   38.9080   24.5950   36.0440 C   0  0  2  0  0  0  0  0  0  0  0  0
   38.2060   24.0680   37.3140 C   0  0  0  0  0  0  0  0  0  0  0  0
   37.2960   23.1980   36.7880 O   0  0  0  0  0  0  0  0  0  0  0  0
   37.8150   22.5610   35.6860 C   0  0  0  0  0  0  0  0  0  0  0  0
   39.9250   22.8180   35.4060 H   0  0  0  0  0  0  0  0  0  0  0  0
   39.9080   24.9250   36.3960 H   0  0  0  0  0  0  0  0  0  0  0  0
   37.6780   24.9400   37.7350 H   0  0  0  0  0  0  0  0  0  0  0  0
   38.9510   23.6330   38.0070 H   0  0  0  0  0  0  0  0  0  0  0  0
   38.1340   21.5490   35.9740 H   0  0  0  0  0  0  0  0  0  0  0  0
   37.0430   22.4700   34.9240 H   0  0  0  0  0  0  0  0  0  0  0  0
   38.7950   26.8050   34.6490 C   0  0  1  0  0  0  0  0  0  0  0  0
   38.5480   27.1080   36.0360 C   0  0  0  0  0  0  0  0  0  0  0  0
   38.0840   25.7410   35.4880 C   0  0  2  0  0  0  0  0  0  0  0  0
   39.7950   26.4490   34.3270 H   0  0  0  0  0  0  0  0  0  0  0  0
   39.3720   27.1500   36.7440 H   0  0  0  0  0  0  0  0  0  0  0  0
   37.7280   27.8260   36.2920 H   0  0  0  0  0  0  0  0  0  0  0  0
   37.0130   25.5720   35.3730 H   0  0  0  0  0  0  0  0  0  0  0  0
   35.9280   28.3080   32.7530 C   0  0  0  0  0  0  0  0  0  0  0  0
   36.7100   27.8470   33.8090 C   0  0  0  0  0  0  0  0  0  0  0  0
   37.9620   27.3210   33.5500 C   0  0  0  0  0  0  0  0  0  0  0  0
   38.3640   27.2850   32.2490 N   0  0  0  0  0  0  0  0  0  0  0  0
   37.5980   27.7340   31.2280 C   0  0  0  0  0  0  0  0  0  0  0  0
   36.3640   28.2540   31.4810 N   0  0  0  0  0  0  0  0  0  0  0  0
   34.9330   28.7300   32.9250 H   0  0  0  0  0  0  0  0  0  0  0  0
   36.2800   27.9300   34.7890 H   0  0  0  0  0  0  0  0  0  0  0  0
   38.0530   27.6400   30.2510 H   0  0  0  0  0  0  0  0  0  0  0  0
   38.9280   23.6460   33.8390 O   0  0  0  0  0  0  0  0  0  0  0  0
   35.2840   21.6740   32.2720 H   0  0  0  0  0  0  0  0  0  0  0  0
   36.0870   21.7100   31.6360 N   0  0  0  0  0  0  0  0  0  0  0  0
   36.4190   23.0570   31.2600 C   0  0  0  0  0  2  0  0  0  0  0  0
   37.0840   23.8270   32.3990 C   0  0  0  0  0  2  0  0  0  0  0  0
   37.9130   22.9070   33.2590 C   0  0  0  0  0  3  0  0  0  0  0  0
   38.4220   21.8130   32.3580 C   0  0  0  0  0  2  0  0  0  0  0  0
   37.2220   20.9130   31.9850 C   0  0  0  0  0  2  0  0  0  0  0  0
  1  6  1  1  0  0  0
  1  5  1  0  0  0  0
  1  2  1  0  0  0  0
  2  7  1  1  0  0  0
  2  3  1  0  0  0  0
  3  8  1  0  0  0  0
  3  9  1  0  0  0  0
  4  3  1  0  0  0  0
  5 10  1  0  0  0  0
  5  4  1  0  0  0  0
 11  5  1  0  0  0  0
 12 15  1  6  0  0  0
 12 14  1  0  0  0  0
 12 13  1  0  0  0  0
 13 17  1  0  0  0  0
 13 16  1  0  0  0  0
 14 18  1  6  0  0  0
 14 13  1  0  0  0  0
 14  2  1  0  0  0  0
 19 25  1  0  0  0  0
 19 20  1  0  0  0  0
 20 26  1  0  0  0  0
 21 20  2  0  0  0  0
 21 12  1  0  0  0  0
 22 21  1  0  0  0  0
 23 24  1  0  0  0  0
 23 22  2  0  0  0  0
 24 19  2  0  0  0  0
 27 23  1  0  0  0  0
 28  1  1  0  0  0  0
 30 35  1  0  0  0  0
 30 29  1  0  0  0  0
 31 30  1  0  0  0  0
 31 32  1  0  0  0  0
 32 33  1  0  0  0  0
 33 28  1  0  0  0  0
 34 33  1  0  0  0  0
 35 34  1  0  0  0  0
M  END
>  <minimizedAffinity>
-4.79356766

$$$$

 OpenBabel03262521363D

 35 38  0  0  1  0  0  0  0  0999 V2000
   37.4150   24.6340   31.6930 C   0  0  1  0  0  0  0  0  0  0  0  0
   37.6360   23.1980   31.8180 C   0  0  2  0  0  0  0  0  0  0  0  0
   36.3900   22.6030   31.1290 C   0  0  0  0  0  0  0  0  0  0  0  0
   35.4080   23.4560   31.5420 O   0  0  0  0  0  0  0  0  0  0  0  0
   35.8900   24.7400   31.6340 C   0  0  0  0  0  0  0  0  0  0  0  0
   37.8160   25.0470   30.7460 H   0  0  0  0  0  0  0  0  0  0  0  0
   38.4880   22.8630   31.1900 H   0  0  0  0  0  0  0  0  0  0  0  0
   36.2420   21.6170   31.6020 H   0  0  0  0  0  0  0  0  0  0  0  0
   36.5530   22.5420   30.0360 H   0  0  0  0  0  0  0  0  0  0  0  0
   35.5650   25.3090   30.7520 H   0  0  0  0  0  0  0  0  0  0  0  0
   35.4750   25.2190   32.5200 H   0  0  0  0  0  0  0  0  0  0  0  0
   39.0760   22.5630   33.9070 C   0  0  1  0  0  0  0  0  0  0  0  0
   38.5560   21.3610   33.3070 C   0  0  0  0  0  0  0  0  0  0  0  0
   37.7070   22.6470   33.2290 C   0  0  2  0  0  0  0  0  0  0  0  0
   39.8230   23.1770   33.3640 H   0  0  0  0  0  0  0  0  0  0  0  0
   39.0070   20.9600   32.4020 H   0  0  0  0  0  0  0  0  0  0  0  0
   38.1510   20.5570   33.9750 H   0  0  0  0  0  0  0  0  0  0  0  0
   36.7960   22.6970   33.8270 H   0  0  0  0  0  0  0  0  0  0  0  0
   39.9940   22.7340   37.5410 C   0  0  0  0  0  0  0  0  0  0  0  0
   40.0780   22.4910   36.1730 C   0  0  0  0  0  0  0  0  0  0  0  0
   39.0180   22.8330   35.3530 C   0  0  0  0  0  0  0  0  0  0  0  0
   37.9310   23.3990   35.9480 N   0  0  0  0  0  0  0  0  0  0  0  0
   37.8560   23.6320   37.2790 C   0  0  0  0  0  0  0  0  0  0  0  0
   38.9000   23.2950   38.0890 N   0  0  0  0  0  0  0  0  0  0  0  0
   40.8150   22.4740   38.2160 H   0  0  0  0  0  0  0  0  0  0  0  0
   40.9880   22.0390   35.8260 H   0  0  0  0  0  0  0  0  0  0  0  0
   36.9290   24.0870   37.6030 H   0  0  0  0  0  0  0  0  0  0  0  0
   37.9310   25.3920   32.7470 O   0  0  0  0  0  0  0  0  0  0  0  0
   34.9300   28.3470   34.1220 H   0  0  0  0  0  0  0  0  0  0  0  0
   35.8790   28.7040   33.9680 N   0  0  0  0  0  0  0  0  0  0  0  0
   36.8270   28.1310   34.8850 C   0  0  0  0  0  2  0  0  0  0  0  0
   37.1490   26.6770   34.5480 C   0  0  0  0  0  2  0  0  0  0  0  0
   37.0870   26.4430   33.0590 C   0  0  0  0  0  3  0  0  0  0  0  0
   37.4880   27.7360   32.4010 C   0  0  0  0  0  2  0  0  0  0  0  0
   36.3410   28.7500   32.6160 C   0  0  0  0  0  2  0  0  0  0  0  0
  1  6  1  6  0  0  0
  1  2  1  0  0  0  0
  1 28  1  0  0  0  0
  2  7  1  6  0  0  0
  2 14  1  0  0  0  0
  3  4  1  0  0  0  0
  3  8  1  0  0  0  0
  3  2  1  0  0  0  0
  4  5  1  0  0  0  0
  5  1  1  0  0  0  0
  5 11  1  0  0  0  0
  9  3  1  0  0  0  0
 10  5  1  0  0  0  0
 12 15  1  6  0  0  0
 12 21  1  0  0  0  0
 13 12  1  0  0  0  0
 13 17  1  0  0  0  0
 14 13  1  0  0  0  0
 14 18  1  1  0  0  0
 14 12  1  0  0  0  0
 16 13  1  0  0  0  0
 19 24  1  0  0  0  0
 19 25  1  0  0  0  0
 20 19  2  0  0  0  0
 21 22  2  0  0  0  0
 21 20  1  0  0  0  0
 22 23  1  0  0  0  0
 23 27  1  0  0  0  0
 23 24  2  0  0  0  0
 26 20  1  0  0  0  0
 28 33  1  0  0  0  0
 30 29  1  0  0  0  0
 30 31  1  0  0  0  0
 32 31  1  0  0  0  0
 33 32  1  0  0  0  0
 34 35  1  0  0  0  0
 34 33  1  0  0  0  0
 35 30  1  0  0  0  0
M  END
>  <minimizedAffinity>
-4.77150917

$$$$

 OpenBabel03262521363D

 35 38  0  0  1  0  0  0  0  0999 V2000
   39.4750   23.4290   36.2120 C   0  0  1  0  0  0  0  0  0  0  0  0
   38.7360   24.5530   36.7720 C   0  0  2  0  0  0  0  0  0  0  0  0
   37.5490   23.8600   37.4760 C   0  0  0  0  0  0  0  0  0  0  0  0
   37.2450   22.8640   36.5940 O   0  0  0  0  0  0  0  0  0  0  0  0
   38.3870   22.3730   36.0060 C   0  0  0  0  0  0  0  0  0  0  0  0
   40.2180   23.0100   36.9200 H   0  0  0  0  0  0  0  0  0  0  0  0
   39.3000   25.0400   37.5950 H   0  0  0  0  0  0  0  0  0  0  0  0
   36.7380   24.6080   37.4760 H   0  0  0  0  0  0  0  0  0  0  0  0
   37.8460   23.5370   38.4910 H   0  0  0  0  0  0  0  0  0  0  0  0
   38.6590   21.4240   36.4880 H   0  0  0  0  0  0  0  0  0  0  0  0
   38.1950   22.1770   34.9520 H   0  0  0  0  0  0  0  0  0  0  0  0
   39.1090   26.6550   35.2590 C   0  0  1  0  0  0  0  0  0  0  0  0
   38.2110   26.9970   36.3320 C   0  0  0  0  0  0  0  0  0  0  0  0
   38.1790   25.5560   35.7790 C   0  0  2  0  0  0  0  0  0  0  0  0
   40.1680   26.4090   35.4780 H   0  0  0  0  0  0  0  0  0  0  0  0
   38.5950   27.1790   37.3330 H   0  0  0  0  0  0  0  0  0  0  0  0
   37.3090   27.6200   36.1010 H   0  0  0  0  0  0  0  0  0  0  0  0
   37.3080   25.2490   35.1990 H   0  0  0  0  0  0  0  0  0  0  0  0
   39.5860   27.1830   31.5760 C   0  0  0  0  0  0  0  0  0  0  0  0
   39.8390   26.8260   32.8980 C   0  0  0  0  0  0  0  0  0  0  0  0
   38.8540   27.0030   33.8520 C   0  0  0  0  0  0  0  0  0  0  0  0
   37.6690   27.5270   33.4310 N   0  0  0  0  0  0  0  0  0  0  0  0
   37.4300   27.8730   32.1450 C   0  0  0  0  0  0  0  0  0  0  0  0
   38.4000   27.6990   31.2030 N   0  0  0  0  0  0  0  0  0  0  0  0
   40.3450   27.0550   30.7980 H   0  0  0  0  0  0  0  0  0  0  0  0
   40.8130   26.4230   33.1020 H   0  0  0  0  0  0  0  0  0  0  0  0
   36.4430   28.2760   31.9650 H   0  0  0  0  0  0  0  0  0  0  0  0
   40.1340   23.7100   35.0120 O   0  0  0  0  0  0  0  0  0  0  0  0
   44.5380   23.2680   34.8200 H   0  0  0  0  0  0  0  0  0  0  0  0
   44.1490   23.5220   35.7330 N   0  0  0  0  0  0  0  0  0  0  0  0
   43.5350   24.8220   35.7160 C   0  0  0  0  0  2  0  0  0  0  0  0
   42.2020   24.8200   34.9710 C   0  0  0  0  0  2  0  0  0  0  0  0
   41.4950   23.4970   35.1340 C   0  0  0  0  0  3  0  0  0  0  0  0
   41.8900   22.9590   36.4830 C   0  0  0  0  0  2  0  0  0  0  0  0
   43.3710   22.5270   36.4040 C   0  0  0  0  0  2  0  0  0  0  0  0
  1  2  1  0  0  0  0
  1  6  1  1  0  0  0
  2  3  1  0  0  0  0
  2  7  1  1  0  0  0
  3  9  1  0  0  0  0
  4  3  1  0  0  0  0
  5  1  1  0  0  0  0
  5 10  1  0  0  0  0
  5  4  1  0  0  0  0
  8  3  1  0  0  0  0
 11  5  1  0  0  0  0
 12 15  1  1  0  0  0
 12 14  1  0  0  0  0
 12 13  1  0  0  0  0
 13 16  1  0  0  0  0
 14 18  1  6  0  0  0
 14 13  1  0  0  0  0
 14  2  1  0  0  0  0
 17 13  1  0  0  0  0
 19 20  1  0  0  0  0
 20 26  1  0  0  0  0
 20 21  2  0  0  0  0
 21 12  1  0  0  0  0
 22 21  1  0  0  0  0
 23 22  2  0  0  0  0
 24 19  2  0  0  0  0
 24 23  1  0  0  0  0
 25 19  1  0  0  0  0
 27 23  1  0  0  0  0
 28 33  1  0  0  0  0
 28  1  1  0  0  0  0
 29 30  1  0  0  0  0
 30 35  1  0  0  0  0
 31 30  1  0  0  0  0
 32 33  1  0  0  0  0
 32 31  1  0  0  0  0
 33 34  1  0  0  0  0
 35 34  1  0  0  0  0
M  END
>  <minimizedAffinity>
-4.76295328

$$$$
