
 OpenBabel03272509313D

 36 38  0  0  1  0  0  0  0  0999 V2000
   36.2540   30.6370   48.9910 C   0  0  2  0  0  0  0  0  0  0  0  0
   37.1650   31.4260   49.8840 C   0  0  0  0  0  0  0  0  0  0  0  0
   37.9380   30.5580   50.8570 C   0  0  0  0  0  0  0  0  0  0  0  0
   36.9550   29.7590   51.7160 C   0  0  0  0  0  0  0  0  0  0  0  0
   35.7790   29.2220   50.9540 C   0  0  0  0  0  0  0  0  0  0  0  0
   36.1030   29.2270   49.4510 C   0  0  1  0  0  0  0  0  0  0  0  0
   35.2130   31.0650   48.9140 H   0  0  0  0  0  0  0  0  0  0  0  0
   36.4540   32.0020   50.5670 H   0  0  0  0  0  0  0  0  0  0  0  0
   37.7690   32.1870   49.4240 H   0  0  0  0  0  0  0  0  0  0  0  0
   38.5870   29.8120   50.3630 H   0  0  0  0  0  0  0  0  0  0  0  0
   38.4920   31.2410   51.5030 H   0  0  0  0  0  0  0  0  0  0  0  0
   37.5430   28.9880   52.2430 H   0  0  0  0  0  0  0  0  0  0  0  0
   36.5530   30.4850   52.4530 H   0  0  0  0  0  0  0  0  0  0  0  0
   34.8550   29.8050   51.0540 H   0  0  0  0  0  0  0  0  0  0  0  0
   35.6060   28.1670   51.2600 H   0  0  0  0  0  0  0  0  0  0  0  0
   37.0450   28.7350   49.4470 H   0  0  0  0  0  0  0  0  0  0  0  0
   33.8390   28.3680   48.7040 C   0  0  0  0  0  0  0  0  0  0  0  0
   32.9990   29.0390   49.3730 O   0  0  0  0  0  0  0  0  0  0  0  0
   35.2580   28.4080   48.6620 N   0  0  0  0  0  0  0  0  0  0  0  0
   35.5940   27.7110   47.9270 H   0  0  0  0  0  0  0  0  0  0  0  0
   33.0060   27.4900   47.9380 N   0  0  0  0  0  0  0  0  0  0  0  0
   33.0980   27.5830   46.4940 C   0  0  0  0  0  2  0  0  0  0  0  0
   33.8810   26.3770   45.9860 C   0  0  0  0  0  2  0  0  0  0  0  0
   33.6200   25.2090   46.9350 C   0  0  0  0  0  3  0  0  0  0  0  0
   34.3090   25.2600   47.7980 H   0  0  0  0  0  0  0  0  0  0  0  0
   32.1680   25.2980   47.3910 C   0  0  0  0  0  2  0  0  0  0  0  0
   32.0330   26.4690   48.3530 C   0  0  0  0  0  2  0  0  0  0  0  0
   36.7520   30.6310   47.5890 C   0  0  0  0  0  0  0  0  0  0  0  0
   38.1340   30.8690   47.4330 C   0  0  0  0  0  0  0  0  0  0  0  0
   38.6180   30.8640   46.1200 C   0  0  0  0  0  0  0  0  0  0  0  0
   37.7420   30.6340   45.0840 N   0  0  0  0  0  0  0  0  0  0  0  0
   36.4070   30.4070   45.2950 C   0  0  0  0  0  0  0  0  0  0  0  0
   35.9280   30.4090   46.5560 N   0  0  0  0  0  0  0  0  0  0  0  0
   38.9000   31.0500   48.1560 H   0  0  0  0  0  0  0  0  0  0  0  0
   39.6450   31.0310   45.8430 H   0  0  0  0  0  0  0  0  0  0  0  0
   35.7820   30.2340   44.4280 H   0  0  0  0  0  0  0  0  0  0  0  0
  1  7  1  1  0  0  0
  1  6  1  0  0  0  0
  1  2  1  0  0  0  0
  2  8  1  0  0  0  0
  2  3  1  0  0  0  0
  3 11  1  0  0  0  0
  3  4  1  0  0  0  0
  4 12  1  0  0  0  0
  4 13  1  0  0  0  0
  5 14  1  0  0  0  0
  5 15  1  0  0  0  0
  5  4  1  0  0  0  0
  6 16  1  6  0  0  0
  6  5  1  0  0  0  0
  9  2  1  0  0  0  0
 10  3  1  0  0  0  0
 17 18  2  0  0  0  0
 19 17  1  0  0  0  0
 19  6  1  0  0  0  0
 20 19  1  0  0  0  0
 21 27  1  0  0  0  0
 21 17  1  0  0  0  0
 22 21  1  0  0  0  0
 23 22  1  0  0  0  0
 23 24  1  0  0  0  0
 24 26  1  0  0  0  0
 24 25  1  0  0  0  0
 26 27  1  0  0  0  0
 28  1  1  0  0  0  0
 29 28  1  0  0  0  0
 29 34  1  0  0  0  0
 30 29  2  0  0  0  0
 31 32  2  0  0  0  0
 31 30  1  0  0  0  0
 32 33  1  0  0  0  0
 33 28  2  0  0  0  0
 35 30  1  0  0  0  0
 36 32  1  0  0  0  0
M  END
>  <minimizedAffinity>
-5.74937057

>  <minimizedRMSD>
0.714533567

$$$$
