
 OpenBabel03272504223D

 37 39  0  0  1  0  0  0  0  0999 V2000
   38.8700   32.3550   47.8280 C   0  0  2  0  0  0  0  0  0  0  0  0
   38.2030   31.3660   48.7640 C   0  0  1  0  0  0  0  0  0  0  0  0
   38.7190   31.9330   50.0900 C   0  0  0  0  0  0  0  0  0  0  0  0
   38.4230   33.2660   49.9480 O   0  0  0  0  0  0  0  0  0  0  0  0
   38.6720   33.6390   48.6460 C   0  0  0  0  0  0  0  0  0  0  0  0
   39.9450   32.2270   47.7340 H   0  0  0  0  0  0  0  0  0  0  0  0
   38.5240   30.3230   48.6180 H   0  0  0  0  0  0  0  0  0  0  0  0
   39.7910   31.7460   50.1840 H   0  0  0  0  0  0  0  0  0  0  0  0
   38.1280   31.5450   50.9550 H   0  0  0  0  0  0  0  0  0  0  0  0
   37.8630   34.2570   48.1940 H   0  0  0  0  0  0  0  0  0  0  0  0
   39.5710   34.2690   48.6380 H   0  0  0  0  0  0  0  0  0  0  0  0
   36.8440   31.5850   48.6700 O   0  0  0  0  0  0  0  0  0  0  0  0
   35.9060   29.8530   46.9700 O   0  0  0  0  0  0  0  0  0  0  0  0
   35.9660   30.1700   48.4390 P   0  0  1  0  0  0  0  0  0  0  0  0
   36.7490   28.8720   49.2250 O   0  0  0  0  0  0  0  0  0  0  0  0
   37.3410   28.3660   48.6160 H   0  0  0  0  0  0  0  0  0  0  0  0
   34.4050   30.3330   49.0690 O   0  0  0  0  0  0  0  0  0  0  0  0
   34.1280   29.1990   49.8030 C   0  0  0  0  0  0  0  0  0  0  0  0
   35.0360   28.6450   50.1220 H   0  0  0  0  0  0  0  0  0  0  0  0
   33.6160   29.5020   50.7510 H   0  0  0  0  0  0  0  0  0  0  0  0
   33.2670   28.2290   49.0880 C   0  0  0  0  0  0  0  0  0  0  0  0
   33.8980   27.3360   48.2540 C   0  0  0  0  0  0  0  0  0  0  0  0
   33.1400   26.3970   47.5530 C   0  0  0  0  0  0  0  0  0  0  0  0
   31.7900   26.4240   47.7440 N   0  0  0  0  0  0  0  0  0  0  0  0
   31.1870   27.3130   48.5700 C   0  0  0  0  0  0  0  0  0  0  0  0
   31.9330   28.2210   49.2470 N   0  0  0  0  0  0  0  0  0  0  0  0
   34.9430   27.2400   48.0430 H   0  0  0  0  0  0  0  0  0  0  0  0
   33.5430   25.6550   46.8760 H   0  0  0  0  0  0  0  0  0  0  0  0
   30.1040   27.2960   48.6900 H   0  0  0  0  0  0  0  0  0  0  0  0
   38.1680   32.3830   46.6540 O   0  0  0  0  0  0  0  0  0  0  0  0
   40.4500   31.6620   42.2870 H   0  0  0  0  0  0  0  0  0  0  0  0
   39.8530   31.7610   43.1450 N   0  0  0  0  0  0  0  0  0  0  0  0
   39.8690   33.1330   43.5370 C   0  0  0  0  0  2  0  0  0  0  0  0
   39.6100   33.3640   45.0100 C   0  0  0  0  0  2  0  0  0  0  0  0
   38.8370   32.1630   45.5120 C   0  0  0  0  0  3  0  0  0  0  0  0
   39.7830   31.0030   45.4810 C   0  0  0  0  0  2  0  0  0  0  0  0
   40.3790   30.8350   44.1190 C   0  0  0  0  0  2  0  0  0  0  0  0
  1  6  1  6  0  0  0
  1  5  1  0  0  0  0
  1  2  1  0  0  0  0
  2  7  1  6  0  0  0
  2  3  1  0  0  0  0
  3  8  1  0  0  0  0
  3  9  1  0  0  0  0
  4  3  1  0  0  0  0
  5  4  1  0  0  0  0
 10  5  1  0  0  0  0
 11  5  1  0  0  0  0
 12  2  1  0  0  0  0
 14 13  2  6  0  0  0
 14 12  1  0  0  0  0
 14 17  1  0  0  0  0
 14 15  1  0  0  0  0
 16 15  1  0  0  0  0
 17 18  1  0  0  0  0
 18 19  1  0  0  0  0
 18 20  1  0  0  0  0
 21 26  1  0  0  0  0
 21 18  1  0  0  0  0
 22 21  2  0  0  0  0
 23 24  2  0  0  0  0
 23 22  1  0  0  0  0
 24 25  1  0  0  0  0
 25 29  1  0  0  0  0
 25 26  2  0  0  0  0
 27 22  1  0  0  0  0
 28 23  1  0  0  0  0
 30  1  1  0  0  0  0
 31 32  1  0  0  0  0
 32 33  1  0  0  0  0
 32 37  1  0  0  0  0
 33 34  1  0  0  0  0
 34 35  1  0  0  0  0
 35 30  1  0  0  0  0
 36 35  1  0  0  0  0
 37 36  1  0  0  0  0
M  END
>  <minimizedAffinity>
-4.88586998

>  <minimizedRMSD>
0.237941816

$$$$
