
 OpenBabel03272505093D

 27 29  0  0  0  0  0  0  0  0999 V2000
   38.4920   26.6760   33.2430 Cl  0  0  0  0  0  0  0  0  0  0  0  0
   37.4530   25.4400   32.5920 C   0  0  0  0  0  0  0  0  0  0  0  0
   36.4170   25.8590   31.7870 C   0  0  0  0  0  0  0  0  0  0  0  0
   35.5700   24.8830   31.2500 C   0  0  0  0  0  0  0  0  0  0  0  0
   35.7910   23.5600   31.5370 C   0  0  0  0  0  0  0  0  0  0  0  0
   36.8540   23.2140   32.3570 C   0  0  0  0  0  0  0  0  0  0  0  0
   37.7220   24.1150   32.9140 C   0  0  0  0  0  0  0  0  0  0  0  0
   34.7600   25.2250   30.6200 H   0  0  0  0  0  0  0  0  0  0  0  0
   35.1590   22.7940   31.1420 H   0  0  0  0  0  0  0  0  0  0  0  0
   37.0180   22.1600   32.5760 H   0  0  0  0  0  0  0  0  0  0  0  0
   36.7100   29.0830   30.1100 C   0  0  0  0  0  0  0  0  0  0  0  0
   35.9020   29.9550   30.8860 C   0  0  0  0  0  0  0  0  0  0  0  0
   35.2610   29.3860   32.0010 C   0  0  0  0  0  0  0  0  0  0  0  0
   35.4500   28.0620   32.2610 N   0  0  0  0  0  0  0  0  0  0  0  0
   36.2170   27.2890   31.5020 C   0  0  0  0  0  0  0  0  0  0  0  0
   36.8470   27.7980   30.4270 N   0  0  0  0  0  0  0  0  0  0  0  0
   37.1880   29.5440   29.2630 H   0  0  0  0  0  0  0  0  0  0  0  0
   35.7470   30.9960   30.6930 H   0  0  0  0  0  0  0  0  0  0  0  0
   34.6330   29.9470   32.6480 H   0  0  0  0  0  0  0  0  0  0  0  0
   39.0850   23.6940   33.9600 S   0  0  0  0  0  0  0  0  0  0  0  0
   38.5080   22.0490   38.9840 H   0  0  0  0  0  0  0  0  0  0  0  0
   38.8700   22.8820   38.4780 N   0  0  0  0  0  0  0  0  0  0  0  0
   37.8560   23.6950   37.8520 C   0  0  0  0  0  2  0  0  0  0  0  0
   38.3950   24.3460   36.5690 C   0  0  0  0  0  2  0  0  0  0  0  0
   38.6210   23.2080   35.6190 C   0  0  0  0  0  3  0  0  0  0  0  0
   39.7000   22.3470   36.2060 C   0  0  0  0  0  2  0  0  0  0  0  0
   40.0170   22.6480   37.6470 C   0  0  0  0  0  2  0  0  0  0  0  0
  2  7  1  0  0  0  0
  2  1  1  0  0  0  0
  3  2  2  0  0  0  0
  4  5  2  0  0  0  0
  4  3  1  0  0  0  0
  5  6  1  0  0  0  0
  6 10  1  0  0  0  0
  6  7  2  0  0  0  0
  7 20  1  0  0  0  0
  8  4  1  0  0  0  0
  9  5  1  0  0  0  0
 11 16  2  0  0  0  0
 11 12  1  0  0  0  0
 12 13  2  0  0  0  0
 13 14  1  0  0  0  0
 13 19  1  0  0  0  0
 15  3  1  0  0  0  0
 15 14  2  0  0  0  0
 16 15  1  0  0  0  0
 17 11  1  0  0  0  0
 18 12  1  0  0  0  0
 20 25  1  0  0  0  0
 22 21  1  0  0  0  0
 23 22  1  0  0  0  0
 24 23  1  0  0  0  0
 25 26  1  0  0  0  0
 25 24  1  0  0  0  0
 26 27  1  0  0  0  0
 27 22  1  0  0  0  0
M  END
>  <minimizedAffinity>
-5.7037344

$$$$

 OpenBabel03272505093D

 27 29  0  0  0  0  0  0  0  0999 V2000
   36.8820   25.0450   32.5760 Cl  0  0  0  0  0  0  0  0  0  0  0  0
   38.4770   25.5440   33.0620 C   0  0  0  0  0  0  0  0  0  0  0  0
   38.8630   26.8190   32.7110 C   0  0  0  0  0  0  0  0  0  0  0  0
   40.1420   27.2430   33.0920 C   0  0  0  0  0  0  0  0  0  0  0  0
   40.9590   26.3920   33.7920 C   0  0  0  0  0  0  0  0  0  0  0  0
   40.5010   25.1220   34.1090 C   0  0  0  0  0  0  0  0  0  0  0  0
   39.2640   24.6430   33.7690 C   0  0  0  0  0  0  0  0  0  0  0  0
   40.4330   28.2450   32.8100 H   0  0  0  0  0  0  0  0  0  0  0  0
   41.9390   26.6890   34.0950 H   0  0  0  0  0  0  0  0  0  0  0  0
   41.1600   24.4570   34.6650 H   0  0  0  0  0  0  0  0  0  0  0  0
   36.1880   29.2070   32.0580 C   0  0  0  0  0  0  0  0  0  0  0  0
   36.2100   29.3790   30.6490 C   0  0  0  0  0  0  0  0  0  0  0  0
   37.1780   28.6410   29.9440 C   0  0  0  0  0  0  0  0  0  0  0  0
   38.0170   27.8260   30.6420 N   0  0  0  0  0  0  0  0  0  0  0  0
   37.9540   27.7010   31.9620 C   0  0  0  0  0  0  0  0  0  0  0  0
   37.0410   28.3900   32.6700 N   0  0  0  0  0  0  0  0  0  0  0  0
   35.4380   29.7840   32.5720 H   0  0  0  0  0  0  0  0  0  0  0  0
   35.5560   30.0150   30.0900 H   0  0  0  0  0  0  0  0  0  0  0  0
   37.2820   28.6970   28.8890 H   0  0  0  0  0  0  0  0  0  0  0  0
   38.6600   23.0280   34.1660 S   0  0  0  0  0  0  0  0  0  0  0  0
   38.9430   22.0700   39.3890 H   0  0  0  0  0  0  0  0  0  0  0  0
   39.0800   22.8690   38.7390 N   0  0  0  0  0  0  0  0  0  0  0  0
   37.8680   23.3860   38.1540 C   0  0  0  0  0  2  0  0  0  0  0  0
   38.1320   23.9260   36.7400 C   0  0  0  0  0  2  0  0  0  0  0  0
   38.4760   22.7180   35.9190 C   0  0  0  0  0  3  0  0  0  0  0  0
   39.7570   22.1610   36.4640 C   0  0  0  0  0  2  0  0  0  0  0  0
   40.1580   22.7240   37.8020 C   0  0  0  0  0  2  0  0  0  0  0  0
  1  2  1  0  0  0  0
  2  7  1  0  0  0  0
  3  2  2  0  0  0  0
  3  4  1  0  0  0  0
  4  5  2  0  0  0  0
  5  9  1  0  0  0  0
  5  6  1  0  0  0  0
  6 10  1  0  0  0  0
  7  6  2  0  0  0  0
  7 20  1  0  0  0  0
  8  4  1  0  0  0  0
 11 17  1  0  0  0  0
 11 16  1  0  0  0  0
 12 11  2  0  0  0  0
 13 14  2  0  0  0  0
 13 12  1  0  0  0  0
 14 15  1  0  0  0  0
 15 16  2  0  0  0  0
 15  3  1  0  0  0  0
 18 12  1  0  0  0  0
 19 13  1  0  0  0  0
 20 25  1  0  0  0  0
 22 21  1  0  0  0  0
 23 22  1  0  0  0  0
 24 23  1  0  0  0  0
 25 26  1  0  0  0  0
 25 24  1  0  0  0  0
 26 27  1  0  0  0  0
 27 22  1  0  0  0  0
M  END
>  <minimizedAffinity>
-5.23433208

$$$$

 OpenBabel03272505093D

 27 29  0  0  0  0  0  0  0  0999 V2000
   38.6560   21.7670   33.5620 Cl  0  0  0  0  0  0  0  0  0  0  0  0
   37.7220   23.0900   32.9220 C   0  0  0  0  0  0  0  0  0  0  0  0
   36.6310   22.7640   32.1480 C   0  0  0  0  0  0  0  0  0  0  0  0
   35.8650   23.8120   31.6250 C   0  0  0  0  0  0  0  0  0  0  0  0
   36.2170   25.1110   31.8920 C   0  0  0  0  0  0  0  0  0  0  0  0
   37.3300   25.3610   32.6800 C   0  0  0  0  0  0  0  0  0  0  0  0
   38.1230   24.3860   33.2240 C   0  0  0  0  0  0  0  0  0  0  0  0
   35.0110   23.5430   31.0190 H   0  0  0  0  0  0  0  0  0  0  0  0
   35.6510   25.9290   31.5050 H   0  0  0  0  0  0  0  0  0  0  0  0
   37.5980   26.3960   32.8840 H   0  0  0  0  0  0  0  0  0  0  0  0
   35.1220   19.4760   32.5980 C   0  0  0  0  0  0  0  0  0  0  0  0
   35.5830   18.7260   31.4850 C   0  0  0  0  0  0  0  0  0  0  0  0
   36.4280   19.3980   30.5840 C   0  0  0  0  0  0  0  0  0  0  0  0
   36.7450   20.7000   30.8300 N   0  0  0  0  0  0  0  0  0  0  0  0
   36.2860   21.3570   31.8870 C   0  0  0  0  0  0  0  0  0  0  0  0
   35.4760   20.7470   32.7720 N   0  0  0  0  0  0  0  0  0  0  0  0
   34.4770   18.9370   33.2710 H   0  0  0  0  0  0  0  0  0  0  0  0
   35.3430   17.7030   31.2820 H   0  0  0  0  0  0  0  0  0  0  0  0
   36.8280   18.9320   29.7180 H   0  0  0  0  0  0  0  0  0  0  0  0
   39.5460   24.6850   34.2320 S   0  0  0  0  0  0  0  0  0  0  0  0
   38.0680   23.4110   39.1790 H   0  0  0  0  0  0  0  0  0  0  0  0
   38.3160   22.9250   38.2950 N   0  0  0  0  0  0  0  0  0  0  0  0
   39.7120   22.9900   37.9410 C   0  0  0  0  0  2  0  0  0  0  0  0
   39.8890   23.0030   36.4160 C   0  0  0  0  0  2  0  0  0  0  0  0
   39.3130   24.3140   35.9680 C   0  0  0  0  0  3  0  0  0  0  0  0
   37.8460   24.2840   36.2780 C   0  0  0  0  0  2  0  0  0  0  0  0
   37.4280   23.1620   37.1910 C   0  0  0  0  0  2  0  0  0  0  0  0
  2  7  1  0  0  0  0
  2  1  1  0  0  0  0
  3  2  2  0  0  0  0
  4  5  2  0  0  0  0
  4  3  1  0  0  0  0
  5  6  1  0  0  0  0
  6 10  1  0  0  0  0
  6  7  2  0  0  0  0
  7 20  1  0  0  0  0
  8  4  1  0  0  0  0
  9  5  1  0  0  0  0
 11 16  1  0  0  0  0
 11 17  1  0  0  0  0
 12 11  2  0  0  0  0
 13 14  2  0  0  0  0
 13 12  1  0  0  0  0
 14 15  1  0  0  0  0
 15  3  1  0  0  0  0
 15 16  2  0  0  0  0
 18 12  1  0  0  0  0
 19 13  1  0  0  0  0
 20 25  1  0  0  0  0
 22 21  1  0  0  0  0
 23 22  1  0  0  0  0
 24 23  1  0  0  0  0
 25 26  1  0  0  0  0
 25 24  1  0  0  0  0
 26 27  1  0  0  0  0
 27 22  1  0  0  0  0
M  END
>  <minimizedAffinity>
-5.06054306

$$$$

 OpenBabel03272505093D

 27 29  0  0  0  0  0  0  0  0999 V2000
   37.6900   24.3220   32.8380 Cl  0  0  0  0  0  0  0  0  0  0  0  0
   37.9170   25.3220   34.2450 C   0  0  0  0  0  0  0  0  0  0  0  0
   37.8500   26.6850   34.0570 C   0  0  0  0  0  0  0  0  0  0  0  0
   38.0280   27.5090   35.1740 C   0  0  0  0  0  0  0  0  0  0  0  0
   38.2600   26.9450   36.4030 C   0  0  0  0  0  0  0  0  0  0  0  0
   38.3140   25.5650   36.5150 C   0  0  0  0  0  0  0  0  0  0  0  0
   38.1490   24.7000   35.4660 C   0  0  0  0  0  0  0  0  0  0  0  0
   37.9740   28.5770   35.0130 H   0  0  0  0  0  0  0  0  0  0  0  0
   38.4000   27.5500   37.2730 H   0  0  0  0  0  0  0  0  0  0  0  0
   38.4990   25.1310   37.4970 H   0  0  0  0  0  0  0  0  0  0  0  0
   36.0160   28.0220   31.2050 C   0  0  0  0  0  0  0  0  0  0  0  0
   37.0220   28.3060   30.2440 C   0  0  0  0  0  0  0  0  0  0  0  0
   38.3460   28.0170   30.6220 C   0  0  0  0  0  0  0  0  0  0  0  0
   38.5750   27.4960   31.8590 N   0  0  0  0  0  0  0  0  0  0  0  0
   37.5970   27.2490   32.7210 C   0  0  0  0  0  0  0  0  0  0  0  0
   36.3180   27.5110   32.3950 N   0  0  0  0  0  0  0  0  0  0  0  0
   35.0120   28.2520   30.8890 H   0  0  0  0  0  0  0  0  0  0  0  0
   36.8540   28.7140   29.2700 H   0  0  0  0  0  0  0  0  0  0  0  0
   39.1740   28.1930   29.9820 H   0  0  0  0  0  0  0  0  0  0  0  0
   38.2120   22.9360   35.5880 S   0  0  0  0  0  0  0  0  0  0  0  0
   43.3460   21.7010   36.2190 H   0  0  0  0  0  0  0  0  0  0  0  0
   42.6220   22.2720   36.6970 N   0  0  0  0  0  0  0  0  0  0  0  0
   41.5970   21.5110   37.3680 C   0  0  0  0  0  2  0  0  0  0  0  0
   40.2560   22.2590   37.3420 C   0  0  0  0  0  2  0  0  0  0  0  0
   39.8470   22.2750   35.8990 C   0  0  0  0  0  3  0  0  0  0  0  0
   40.8630   23.0920   35.1580 C   0  0  0  0  0  2  0  0  0  0  0  0
   42.1150   23.3840   35.9420 C   0  0  0  0  0  2  0  0  0  0  0  0
  1  2  1  0  0  0  0
  2  7  1  0  0  0  0
  3  2  2  0  0  0  0
  3  4  1  0  0  0  0
  4  5  2  0  0  0  0
  5  6  1  0  0  0  0
  5  9  1  0  0  0  0
  6 10  1  0  0  0  0
  7 20  1  0  0  0  0
  7  6  2  0  0  0  0
  8  4  1  0  0  0  0
 11 16  1  0  0  0  0
 12 13  1  0  0  0  0
 12 11  2  0  0  0  0
 13 14  2  0  0  0  0
 14 15  1  0  0  0  0
 15  3  1  0  0  0  0
 16 15  2  0  0  0  0
 17 11  1  0  0  0  0
 18 12  1  0  0  0  0
 19 13  1  0  0  0  0
 20 25  1  0  0  0  0
 21 22  1  0  0  0  0
 22 23  1  0  0  0  0
 24 23  1  0  0  0  0
 25 24  1  0  0  0  0
 26 25  1  0  0  0  0
 26 27  1  0  0  0  0
 27 22  1  0  0  0  0
M  END
>  <minimizedAffinity>
-4.99361086

$$$$

 OpenBabel03272505093D

 27 29  0  0  0  0  0  0  0  0999 V2000
   39.6210   24.8770   31.4680 Cl  0  0  0  0  0  0  0  0  0  0  0  0
   38.5840   25.8060   32.5140 C   0  0  0  0  0  0  0  0  0  0  0  0
   38.2870   27.0890   32.1140 C   0  0  0  0  0  0  0  0  0  0  0  0
   37.4530   27.8540   32.9390 C   0  0  0  0  0  0  0  0  0  0  0  0
   36.9660   27.3130   34.1020 C   0  0  0  0  0  0  0  0  0  0  0  0
   37.3110   26.0130   34.4390 C   0  0  0  0  0  0  0  0  0  0  0  0
   38.1190   25.2090   33.6800 C   0  0  0  0  0  0  0  0  0  0  0  0
   37.2270   28.8600   32.6140 H   0  0  0  0  0  0  0  0  0  0  0  0
   36.3300   27.8740   34.7500 H   0  0  0  0  0  0  0  0  0  0  0  0
   36.9170   25.5960   35.3640 H   0  0  0  0  0  0  0  0  0  0  0  0
   40.7020   28.3980   29.7180 C   0  0  0  0  0  0  0  0  0  0  0  0
   39.9360   28.6480   28.5500 C   0  0  0  0  0  0  0  0  0  0  0  0
   38.5630   28.3480   28.6280 C   0  0  0  0  0  0  0  0  0  0  0  0
   38.0660   27.8470   29.7930 N   0  0  0  0  0  0  0  0  0  0  0  0
   38.8280   27.6310   30.8580 C   0  0  0  0  0  0  0  0  0  0  0  0
   40.1450   27.9060   30.8220 N   0  0  0  0  0  0  0  0  0  0  0  0
   41.7490   28.6350   29.6310 H   0  0  0  0  0  0  0  0  0  0  0  0
   40.3130   29.0420   27.6300 H   0  0  0  0  0  0  0  0  0  0  0  0
   37.8990   28.4950   27.8130 H   0  0  0  0  0  0  0  0  0  0  0  0
   38.5680   23.5480   34.0910 S   0  0  0  0  0  0  0  0  0  0  0  0
   38.9110   22.1060   39.1980 H   0  0  0  0  0  0  0  0  0  0  0  0
   39.2230   22.8890   38.5920 N   0  0  0  0  0  0  0  0  0  0  0  0
   38.1690   23.7660   38.1470 C   0  0  0  0  0  2  0  0  0  0  0  0
   38.4810   24.3320   36.7540 C   0  0  0  0  0  2  0  0  0  0  0  0
   38.4190   23.1520   35.8310 C   0  0  0  0  0  3  0  0  0  0  0  0
   39.5260   22.2200   36.2260 C   0  0  0  0  0  2  0  0  0  0  0  0
   40.1550   22.5350   37.5570 C   0  0  0  0  0  2  0  0  0  0  0  0
  1  2  1  0  0  0  0
  2  7  1  0  0  0  0
  3  2  2  0  0  0  0
  3  4  1  0  0  0  0
  4  5  2  0  0  0  0
  5  6  1  0  0  0  0
  5  9  1  0  0  0  0
  6 10  1  0  0  0  0
  7 20  1  0  0  0  0
  7  6  2  0  0  0  0
  8  4  1  0  0  0  0
 11 16  1  0  0  0  0
 12 13  1  0  0  0  0
 12 11  2  0  0  0  0
 13 14  2  0  0  0  0
 14 15  1  0  0  0  0
 15  3  1  0  0  0  0
 16 15  2  0  0  0  0
 17 11  1  0  0  0  0
 18 12  1  0  0  0  0
 19 13  1  0  0  0  0
 20 25  1  0  0  0  0
 22 21  1  0  0  0  0
 23 22  1  0  0  0  0
 24 23  1  0  0  0  0
 25 26  1  0  0  0  0
 25 24  1  0  0  0  0
 26 27  1  0  0  0  0
 27 22  1  0  0  0  0
M  END
>  <minimizedAffinity>
-4.87923336

$$$$

 OpenBabel03272505093D

 27 29  0  0  0  0  0  0  0  0999 V2000
   37.6730   24.4380   33.4000 Cl  0  0  0  0  0  0  0  0  0  0  0  0
   39.0070   25.5530   33.4760 C   0  0  0  0  0  0  0  0  0  0  0  0
   39.6890   25.6250   34.6700 C   0  0  0  0  0  0  0  0  0  0  0  0
   40.7670   26.5140   34.7550 C   0  0  0  0  0  0  0  0  0  0  0  0
   41.1070   27.2750   33.6650 C   0  0  0  0  0  0  0  0  0  0  0  0
   40.3720   27.1480   32.4960 C   0  0  0  0  0  0  0  0  0  0  0  0
   39.3080   26.2990   32.3430 C   0  0  0  0  0  0  0  0  0  0  0  0
   41.2940   26.5620   35.6980 H   0  0  0  0  0  0  0  0  0  0  0  0
   41.9240   27.9620   33.7020 H   0  0  0  0  0  0  0  0  0  0  0  0
   40.6530   27.7580   31.6390 H   0  0  0  0  0  0  0  0  0  0  0  0
   39.6830   22.8500   37.0340 C   0  0  0  0  0  0  0  0  0  0  0  0
   38.6280   23.1580   37.9320 C   0  0  0  0  0  0  0  0  0  0  0  0
   37.9280   24.3530   37.6870 C   0  0  0  0  0  0  0  0  0  0  0  0
   38.2970   25.1240   36.6260 N   0  0  0  0  0  0  0  0  0  0  0  0
   39.2930   24.7890   35.8150 C   0  0  0  0  0  0  0  0  0  0  0  0
   39.9860   23.6530   36.0180 N   0  0  0  0  0  0  0  0  0  0  0  0
   40.2020   21.9300   37.2450 H   0  0  0  0  0  0  0  0  0  0  0  0
   38.3270   22.5610   38.7670 H   0  0  0  0  0  0  0  0  0  0  0  0
   37.1230   24.6800   38.2970 H   0  0  0  0  0  0  0  0  0  0  0  0
   38.3610   26.1210   30.8600 S   0  0  0  0  0  0  0  0  0  0  0  0
   34.6840   29.9630   30.8180 H   0  0  0  0  0  0  0  0  0  0  0  0
   35.6710   29.8380   31.1160 N   0  0  0  0  0  0  0  0  0  0  0  0
   36.6180   29.7180   30.0350 C   0  0  0  0  0  2  0  0  0  0  0  0
   37.7870   28.8040   30.4310 C   0  0  0  0  0  2  0  0  0  0  0  0
   37.1830   27.4380   30.5740 C   0  0  0  0  0  3  0  0  0  0  0  0
   36.2140   27.4970   31.7170 C   0  0  0  0  0  2  0  0  0  0  0  0
   35.8820   28.8920   32.1760 C   0  0  0  0  0  2  0  0  0  0  0  0
  1  2  1  0  0  0  0
  2  3  1  0  0  0  0
  3  4  2  0  0  0  0
  3 15  1  0  0  0  0
  4  8  1  0  0  0  0
  5  9  1  0  0  0  0
  5  4  1  0  0  0  0
  6  5  2  0  0  0  0
  7  6  1  0  0  0  0
  7  2  2  0  0  0  0
 10  6  1  0  0  0  0
 11 17  1  0  0  0  0
 11 12  1  0  0  0  0
 12 18  1  0  0  0  0
 13 12  2  0  0  0  0
 13 19  1  0  0  0  0
 14 13  1  0  0  0  0
 15 16  1  0  0  0  0
 15 14  2  0  0  0  0
 16 11  2  0  0  0  0
 20  7  1  0  0  0  0
 21 22  1  0  0  0  0
 22 27  1  0  0  0  0
 23 24  1  0  0  0  0
 23 22  1  0  0  0  0
 24 25  1  0  0  0  0
 25 20  1  0  0  0  0
 25 26  1  0  0  0  0
 26 27  1  0  0  0  0
M  END
>  <minimizedAffinity>
-4.79120922

$$$$

 OpenBabel03272505093D

 27 29  0  0  0  0  0  0  0  0999 V2000
   38.4070   23.9090   33.1920 Cl  0  0  0  0  0  0  0  0  0  0  0  0
   38.1620   25.3840   34.0840 C   0  0  0  0  0  0  0  0  0  0  0  0
   38.8110   25.4940   35.2930 C   0  0  0  0  0  0  0  0  0  0  0  0
   38.6310   26.6720   36.0280 C   0  0  0  0  0  0  0  0  0  0  0  0
   37.8270   27.6650   35.5300 C   0  0  0  0  0  0  0  0  0  0  0  0
   37.2050   27.4820   34.3040 C   0  0  0  0  0  0  0  0  0  0  0  0
   37.3380   26.3580   33.5340 C   0  0  0  0  0  0  0  0  0  0  0  0
   39.1450   26.7450   36.9760 H   0  0  0  0  0  0  0  0  0  0  0  0
   37.6700   28.5740   36.0690 H   0  0  0  0  0  0  0  0  0  0  0  0
   36.5690   28.2790   33.9220 H   0  0  0  0  0  0  0  0  0  0  0  0
   39.8650   22.5840   37.2200 C   0  0  0  0  0  0  0  0  0  0  0  0
   41.1920   22.3360   36.7810 C   0  0  0  0  0  0  0  0  0  0  0  0
   41.6990   23.2090   35.8010 C   0  0  0  0  0  0  0  0  0  0  0  0
   40.9030   24.2160   35.3450 N   0  0  0  0  0  0  0  0  0  0  0  0
   39.6670   24.4040   35.7900 C   0  0  0  0  0  0  0  0  0  0  0  0
   39.1480   23.5900   36.7270 N   0  0  0  0  0  0  0  0  0  0  0  0
   39.5020   21.9010   37.9700 H   0  0  0  0  0  0  0  0  0  0  0  0
   41.8270   21.5500   37.1320 H   0  0  0  0  0  0  0  0  0  0  0  0
   42.6780   23.1130   35.4020 H   0  0  0  0  0  0  0  0  0  0  0  0
   36.5550   26.1070   31.9670 S   0  0  0  0  0  0  0  0  0  0  0  0
   37.3110   30.3460   28.8460 H   0  0  0  0  0  0  0  0  0  0  0  0
   37.7210   29.9340   29.7080 N   0  0  0  0  0  0  0  0  0  0  0  0
   38.4790   28.7260   29.4980 C   0  0  0  0  0  2  0  0  0  0  0  0
   38.3700   27.7950   30.7150 C   0  0  0  0  0  2  0  0  0  0  0  0
   36.9360   27.3550   30.7420 C   0  0  0  0  0  3  0  0  0  0  0  0
   36.1020   28.5740   30.9980 C   0  0  0  0  0  2  0  0  0  0  0  0
   36.8420   29.8760   30.8430 C   0  0  0  0  0  2  0  0  0  0  0  0
  1  2  1  0  0  0  0
  2  3  1  0  0  0  0
  3 15  1  0  0  0  0
  3  4  2  0  0  0  0
  4  8  1  0  0  0  0
  5  4  1  0  0  0  0
  5  9  1  0  0  0  0
  6  5  2  0  0  0  0
  7  2  2  0  0  0  0
  7  6  1  0  0  0  0
 10  6  1  0  0  0  0
 11 17  1  0  0  0  0
 12 18  1  0  0  0  0
 12 11  1  0  0  0  0
 13 12  2  0  0  0  0
 14 15  2  0  0  0  0
 14 13  1  0  0  0  0
 15 16  1  0  0  0  0
 16 11  2  0  0  0  0
 19 13  1  0  0  0  0
 20  7  1  0  0  0  0
 21 22  1  0  0  0  0
 22 27  1  0  0  0  0
 23 22  1  0  0  0  0
 23 24  1  0  0  0  0
 24 25  1  0  0  0  0
 25 26  1  0  0  0  0
 25 20  1  0  0  0  0
 27 26  1  0  0  0  0
M  END
>  <minimizedAffinity>
-4.78805399

$$$$

 OpenBabel03272505093D

 27 29  0  0  0  0  0  0  0  0999 V2000
   39.5420   25.8250   34.5840 Cl  0  0  0  0  0  0  0  0  0  0  0  0
   38.7790   24.5130   33.7310 C   0  0  0  0  0  0  0  0  0  0  0  0
   38.3380   23.4520   34.4900 C   0  0  0  0  0  0  0  0  0  0  0  0
   37.7190   22.3860   33.8260 C   0  0  0  0  0  0  0  0  0  0  0  0
   37.5740   22.4280   32.4620 C   0  0  0  0  0  0  0  0  0  0  0  0
   38.0450   23.5300   31.7660 C   0  0  0  0  0  0  0  0  0  0  0  0
   38.6580   24.6070   32.3500 C   0  0  0  0  0  0  0  0  0  0  0  0
   37.3770   21.5590   34.4320 H   0  0  0  0  0  0  0  0  0  0  0  0
   37.1080   21.6280   31.9300 H   0  0  0  0  0  0  0  0  0  0  0  0
   37.9240   23.5500   30.6840 H   0  0  0  0  0  0  0  0  0  0  0  0
   39.8330   22.8080   37.7510 C   0  0  0  0  0  0  0  0  0  0  0  0
   38.9240   23.3880   38.6730 C   0  0  0  0  0  0  0  0  0  0  0  0
   37.7840   24.0040   38.1240 C   0  0  0  0  0  0  0  0  0  0  0  0
   37.6290   24.0060   36.7710 N   0  0  0  0  0  0  0  0  0  0  0  0
   38.5110   23.4480   35.9520 C   0  0  0  0  0  0  0  0  0  0  0  0
   39.6120   22.8490   36.4400 N   0  0  0  0  0  0  0  0  0  0  0  0
   40.6960   22.3440   38.1990 H   0  0  0  0  0  0  0  0  0  0  0  0
   39.0340   23.3930   39.7380 H   0  0  0  0  0  0  0  0  0  0  0  0
   37.0420   24.4700   38.7230 H   0  0  0  0  0  0  0  0  0  0  0  0
   39.2640   26.0220   31.4800 S   0  0  0  0  0  0  0  0  0  0  0  0
   36.1270   30.2320   30.6310 H   0  0  0  0  0  0  0  0  0  0  0  0
   36.1160   29.2090   30.4510 N   0  0  0  0  0  0  0  0  0  0  0  0
   35.9430   28.3910   31.6260 C   0  0  0  0  0  2  0  0  0  0  0  0
   36.6860   27.0550   31.4760 C   0  0  0  0  0  2  0  0  0  0  0  0
   38.1420   27.4170   31.4650 C   0  0  0  0  0  3  0  0  0  0  0  0
   38.3850   28.2400   30.2350 C   0  0  0  0  0  2  0  0  0  0  0  0
   37.1330   28.7280   29.5570 C   0  0  0  0  0  2  0  0  0  0  0  0
  2  3  1  0  0  0  0
  2  1  1  0  0  0  0
  3 15  1  0  0  0  0
  4  8  1  0  0  0  0
  4  3  2  0  0  0  0
  5  4  1  0  0  0  0
  6  7  1  0  0  0  0
  6  5  2  0  0  0  0
  7  2  2  0  0  0  0
  9  5  1  0  0  0  0
 10  6  1  0  0  0  0
 11 17  1  0  0  0  0
 11 12  1  0  0  0  0
 12 18  1  0  0  0  0
 13 12  2  0  0  0  0
 13 19  1  0  0  0  0
 14 13  1  0  0  0  0
 15 16  1  0  0  0  0
 15 14  2  0  0  0  0
 16 11  2  0  0  0  0
 20  7  1  0  0  0  0
 22 21  1  0  0  0  0
 22 23  1  0  0  0  0
 24 23  1  0  0  0  0
 25 24  1  0  0  0  0
 25 20  1  0  0  0  0
 26 25  1  0  0  0  0
 27 26  1  0  0  0  0
 27 22  1  0  0  0  0
M  END
>  <minimizedAffinity>
-4.75521231

$$$$

 OpenBabel03272505093D

 27 29  0  0  0  0  0  0  0  0999 V2000
   37.4280   28.2160   35.2960 Cl  0  0  0  0  0  0  0  0  0  0  0  0
   36.9670   27.6230   33.7260 C   0  0  0  0  0  0  0  0  0  0  0  0
   35.9510   28.2930   33.0820 C   0  0  0  0  0  0  0  0  0  0  0  0
   35.5640   27.8350   31.8170 C   0  0  0  0  0  0  0  0  0  0  0  0
   36.1960   26.7500   31.2650 C   0  0  0  0  0  0  0  0  0  0  0  0
   37.2110   26.1250   31.9750 C   0  0  0  0  0  0  0  0  0  0  0  0
   37.6400   26.5200   33.2140 C   0  0  0  0  0  0  0  0  0  0  0  0
   34.7650   28.3700   31.3220 H   0  0  0  0  0  0  0  0  0  0  0  0
   35.9200   26.3780   30.3030 H   0  0  0  0  0  0  0  0  0  0  0  0
   37.7040   25.2650   31.5250 H   0  0  0  0  0  0  0  0  0  0  0  0
   35.2540   31.7670   33.9420 C   0  0  0  0  0  0  0  0  0  0  0  0
   34.1500   31.6920   34.8310 C   0  0  0  0  0  0  0  0  0  0  0  0
   33.6640   30.4030   35.1170 C   0  0  0  0  0  0  0  0  0  0  0  0
   34.2690   29.3300   34.5350 N   0  0  0  0  0  0  0  0  0  0  0  0
   35.3010   29.4550   33.7090 C   0  0  0  0  0  0  0  0  0  0  0  0
   35.7930   30.6720   33.4120 N   0  0  0  0  0  0  0  0  0  0  0  0
   35.6050   32.7640   33.7400 H   0  0  0  0  0  0  0  0  0  0  0  0
   33.6670   32.5260   35.2950 H   0  0  0  0  0  0  0  0  0  0  0  0
   32.8430   30.2330   35.7670 H   0  0  0  0  0  0  0  0  0  0  0  0
   38.9330   25.7380   34.1330 S   0  0  0  0  0  0  0  0  0  0  0  0
   38.0500   21.6610   37.4320 H   0  0  0  0  0  0  0  0  0  0  0  0
   38.4930   22.6000   37.4620 N   0  0  0  0  0  0  0  0  0  0  0  0
   37.5710   23.7070   37.4000 C   0  0  0  0  0  2  0  0  0  0  0  0
   38.2040   24.9070   36.6800 C   0  0  0  0  0  2  0  0  0  0  0  0
   38.3730   24.4630   35.2580 C   0  0  0  0  0  3  0  0  0  0  0  0
   39.3590   23.3320   35.2590 C   0  0  0  0  0  2  0  0  0  0  0  0
   39.6480   22.7640   36.6230 C   0  0  0  0  0  2  0  0  0  0  0  0
  2  1  1  0  0  0  0
  3 15  1  0  0  0  0
  3  2  2  0  0  0  0
  4  3  1  0  0  0  0
  5  4  2  0  0  0  0
  5  6  1  0  0  0  0
  6  7  2  0  0  0  0
  7  2  1  0  0  0  0
  7 20  1  0  0  0  0
  8  4  1  0  0  0  0
  9  5  1  0  0  0  0
 10  6  1  0  0  0  0
 11 12  1  0  0  0  0
 12 13  2  0  0  0  0
 12 18  1  0  0  0  0
 13 19  1  0  0  0  0
 14 13  1  0  0  0  0
 15 14  2  0  0  0  0
 16 15  1  0  0  0  0
 16 11  2  0  0  0  0
 17 11  1  0  0  0  0
 20 25  1  0  0  0  0
 21 22  1  0  0  0  0
 23 22  1  0  0  0  0
 24 23  1  0  0  0  0
 25 26  1  0  0  0  0
 25 24  1  0  0  0  0
 26 27  1  0  0  0  0
 27 22  1  0  0  0  0
M  END
>  <minimizedAffinity>
-4.7486372

$$$$
