
 OpenBabel03272504243D

 37 39  0  0  1  0  0  0  0  0999 V2000
   38.0380   25.6570   34.8440 C   0  0  2  0  0  0  0  0  0  0  0  0
   37.2330   25.8840   33.5800 C   0  0  1  0  0  0  0  0  0  0  0  0
   37.5450   27.3700   33.3830 C   0  0  0  0  0  0  0  0  0  0  0  0
   38.9120   27.3780   33.5030 O   0  0  0  0  0  0  0  0  0  0  0  0
   39.2730   26.5030   34.5030 C   0  0  0  0  0  0  0  0  0  0  0  0
   37.6090   26.1060   35.7360 H   0  0  0  0  0  0  0  0  0  0  0  0
   36.1520   25.7090   33.7000 H   0  0  0  0  0  0  0  0  0  0  0  0
   37.0480   27.9610   34.1550 H   0  0  0  0  0  0  0  0  0  0  0  0
   37.2940   27.7030   32.3450 H   0  0  0  0  0  0  0  0  0  0  0  0
   40.1260   25.8390   34.2320 H   0  0  0  0  0  0  0  0  0  0  0  0
   39.6140   27.0920   35.3650 H   0  0  0  0  0  0  0  0  0  0  0  0
   37.8430   25.1500   32.5840 O   0  0  0  0  0  0  0  0  0  0  0  0
   35.6660   25.4860   31.1990 O   0  0  0  0  0  0  0  0  0  0  0  0
   36.7480   24.4850   31.4950 P   0  0  1  0  0  0  0  0  0  0  0  0
   37.5440   24.1210   30.0290 O   0  0  0  0  0  0  0  0  0  0  0  0
   37.4560   24.8470   29.3640 H   0  0  0  0  0  0  0  0  0  0  0  0
   36.0780   23.0640   32.1230 O   0  0  0  0  0  0  0  0  0  0  0  0
   35.7430   22.2530   31.0610 C   0  0  0  0  0  0  0  0  0  0  0  0
   34.7160   22.4270   30.6750 H   0  0  0  0  0  0  0  0  0  0  0  0
   36.4240   22.4850   30.2030 H   0  0  0  0  0  0  0  0  0  0  0  0
   35.8440   20.8080   31.3660 C   0  0  0  0  0  0  0  0  0  0  0  0
   35.3790   20.3990   32.5940 C   0  0  0  0  0  0  0  0  0  0  0  0
   35.4470   19.0480   32.9410 C   0  0  0  0  0  0  0  0  0  0  0  0
   35.9820   18.2000   32.0180 N   0  0  0  0  0  0  0  0  0  0  0  0
   36.4350   18.6210   30.8130 C   0  0  0  0  0  0  0  0  0  0  0  0
   36.3650   19.9350   30.4870 N   0  0  0  0  0  0  0  0  0  0  0  0
   34.9460   20.9880   33.3760 H   0  0  0  0  0  0  0  0  0  0  0  0
   35.1070   18.6310   33.8800 H   0  0  0  0  0  0  0  0  0  0  0  0
   36.8560   17.9040   30.1090 H   0  0  0  0  0  0  0  0  0  0  0  0
   38.3400   24.3250   34.9340 O   0  0  0  0  0  0  0  0  0  0  0  0
   39.2850   22.2000   39.3380 H   0  0  0  0  0  0  0  0  0  0  0  0
   38.9850   22.5490   38.3930 N   0  0  0  0  0  0  0  0  0  0  0  0
   40.1280   22.5380   37.5380 C   0  0  0  0  0  2  0  0  0  0  0  0
   40.0630   23.5320   36.3990 C   0  0  0  0  0  2  0  0  0  0  0  0
   38.5980   23.8160   36.1490 C   0  0  0  0  0  3  0  0  0  0  0  0
   38.1020   24.5820   37.3340 C   0  0  0  0  0  2  0  0  0  0  0  0
   38.3850   23.8420   38.6060 C   0  0  0  0  0  2  0  0  0  0  0  0
  1 30  1  0  0  0  0
  1  6  1  1  0  0  0
  2  7  1  1  0  0  0
  2  1  1  0  0  0  0
  3  4  1  0  0  0  0
  3  2  1  0  0  0  0
  3  8  1  0  0  0  0
  4  5  1  0  0  0  0
  5  1  1  0  0  0  0
  5 11  1  0  0  0  0
  9  3  1  0  0  0  0
 10  5  1  0  0  0  0
 12  2  1  0  0  0  0
 14 13  2  6  0  0  0
 14 17  1  0  0  0  0
 14 12  1  0  0  0  0
 15 14  1  0  0  0  0
 16 15  1  0  0  0  0
 18 21  1  0  0  0  0
 18 17  1  0  0  0  0
 19 18  1  0  0  0  0
 20 18  1  0  0  0  0
 21 22  1  0  0  0  0
 22 23  2  0  0  0  0
 22 27  1  0  0  0  0
 23 28  1  0  0  0  0
 24 23  1  0  0  0  0
 25 24  2  0  0  0  0
 26 25  1  0  0  0  0
 26 21  2  0  0  0  0
 29 25  1  0  0  0  0
 30 35  1  0  0  0  0
 32 37  1  0  0  0  0
 32 31  1  0  0  0  0
 33 32  1  0  0  0  0
 34 33  1  0  0  0  0
 35 34  1  0  0  0  0
 35 36  1  0  0  0  0
 36 37  1  0  0  0  0
M  END
>  <minimizedAffinity>
-5.42710876

$$$$

 OpenBabel03272504243D

 37 39  0  0  1  0  0  0  0  0999 V2000
   38.2050   22.6380   33.8610 C   0  0  2  0  0  0  0  0  0  0  0  0
   37.8900   23.2170   32.4960 C   0  0  1  0  0  0  0  0  0  0  0  0
   37.4890   21.9180   31.7910 C   0  0  0  0  0  0  0  0  0  0  0  0
   36.5970   21.3870   32.6880 O   0  0  0  0  0  0  0  0  0  0  0  0
   37.0620   21.6180   33.9640 C   0  0  0  0  0  0  0  0  0  0  0  0
   39.1230   22.0570   33.9010 H   0  0  0  0  0  0  0  0  0  0  0  0
   38.7510   23.6970   32.0030 H   0  0  0  0  0  0  0  0  0  0  0  0
   38.3680   21.2870   31.6440 H   0  0  0  0  0  0  0  0  0  0  0  0
   36.9340   22.1260   30.8430 H   0  0  0  0  0  0  0  0  0  0  0  0
   36.2810   21.9920   34.6650 H   0  0  0  0  0  0  0  0  0  0  0  0
   37.4060   20.6620   34.3800 H   0  0  0  0  0  0  0  0  0  0  0  0
   36.7780   24.0170   32.6520 O   0  0  0  0  0  0  0  0  0  0  0  0
   37.8090   25.1260   30.5360 O   0  0  0  0  0  0  0  0  0  0  0  0
   36.5690   25.1040   31.3870 P   0  0  1  0  0  0  0  0  0  0  0  0
   35.2650   24.6010   30.4050 O   0  0  0  0  0  0  0  0  0  0  0  0
   35.5650   24.0660   29.6290 H   0  0  0  0  0  0  0  0  0  0  0  0
   36.2390   26.6520   31.9850 O   0  0  0  0  0  0  0  0  0  0  0  0
   37.4240   27.3550   32.0060 C   0  0  0  0  0  0  0  0  0  0  0  0
   38.1320   27.0570   31.2030 H   0  0  0  0  0  0  0  0  0  0  0  0
   37.2030   28.4370   31.8200 H   0  0  0  0  0  0  0  0  0  0  0  0
   38.1580   27.2360   33.2860 C   0  0  0  0  0  0  0  0  0  0  0  0
   37.4370   27.4490   34.4380 C   0  0  0  0  0  0  0  0  0  0  0  0
   38.0740   27.3510   35.6770 C   0  0  0  0  0  0  0  0  0  0  0  0
   39.4020   27.0420   35.6660 N   0  0  0  0  0  0  0  0  0  0  0  0
   40.0960   26.8360   34.5210 C   0  0  0  0  0  0  0  0  0  0  0  0
   39.4670   26.9340   33.3230 N   0  0  0  0  0  0  0  0  0  0  0  0
   36.4000   27.6930   34.5430 H   0  0  0  0  0  0  0  0  0  0  0  0
   37.5930   27.4990   36.6340 H   0  0  0  0  0  0  0  0  0  0  0  0
   41.1570   26.5930   34.5640 H   0  0  0  0  0  0  0  0  0  0  0  0
   38.0880   23.6320   34.7930 O   0  0  0  0  0  0  0  0  0  0  0  0
   39.5410   22.4020   39.3960 H   0  0  0  0  0  0  0  0  0  0  0  0
   39.1620   22.5390   38.4250 N   0  0  0  0  0  0  0  0  0  0  0  0
   40.2690   22.6940   37.5380 C   0  0  0  0  0  2  0  0  0  0  0  0
   39.9590   23.4830   36.2850 C   0  0  0  0  0  2  0  0  0  0  0  0
   38.4670   23.3660   36.0530 C   0  0  0  0  0  3  0  0  0  0  0  0
   37.8020   24.1390   37.1480 C   0  0  0  0  0  2  0  0  0  0  0  0
   38.2630   23.6650   38.4920 C   0  0  0  0  0  2  0  0  0  0  0  0
  1  6  1  1  0  0  0
  1  5  1  0  0  0  0
  1 30  1  0  0  0  0
  2  7  1  6  0  0  0
  2 12  1  0  0  0  0
  2  1  1  0  0  0  0
  3  2  1  0  0  0  0
  3  4  1  0  0  0  0
  4  5  1  0  0  0  0
  5 11  1  0  0  0  0
  5 10  1  0  0  0  0
  8  3  1  0  0  0  0
  9  3  1  0  0  0  0
 14 13  2  6  0  0  0
 14 17  1  0  0  0  0
 14 12  1  0  0  0  0
 15 14  1  0  0  0  0
 16 15  1  0  0  0  0
 17 18  1  0  0  0  0
 18 21  1  0  0  0  0
 19 18  1  0  0  0  0
 20 18  1  0  0  0  0
 21 26  2  0  0  0  0
 21 22  1  0  0  0  0
 22 27  1  0  0  0  0
 22 23  2  0  0  0  0
 23 28  1  0  0  0  0
 24 23  1  0  0  0  0
 25 29  1  0  0  0  0
 25 24  2  0  0  0  0
 26 25  1  0  0  0  0
 30 35  1  0  0  0  0
 32 37  1  0  0  0  0
 32 31  1  0  0  0  0
 33 32  1  0  0  0  0
 34 33  1  0  0  0  0
 35 34  1  0  0  0  0
 35 36  1  0  0  0  0
 36 37  1  0  0  0  0
M  END
>  <minimizedAffinity>
-5.26375008

$$$$

 OpenBabel03272504243D

 37 39  0  0  1  0  0  0  0  0999 V2000
   37.7790   25.8060   35.4440 C   0  0  2  0  0  0  0  0  0  0  0  0
   37.3020   26.3250   34.1020 C   0  0  1  0  0  0  0  0  0  0  0  0
   36.7100   27.6550   34.5780 C   0  0  0  0  0  0  0  0  0  0  0  0
   37.7380   28.1530   35.3370 O   0  0  0  0  0  0  0  0  0  0  0  0
   38.3130   27.1170   36.0380 C   0  0  0  0  0  0  0  0  0  0  0  0
   36.9830   25.4830   36.1090 H   0  0  0  0  0  0  0  0  0  0  0  0
   36.5400   25.6920   33.6210 H   0  0  0  0  0  0  0  0  0  0  0  0
   35.8030   27.4730   35.1590 H   0  0  0  0  0  0  0  0  0  0  0  0
   36.5500   28.3570   33.7220 H   0  0  0  0  0  0  0  0  0  0  0  0
   39.4270   27.1200   36.0120 H   0  0  0  0  0  0  0  0  0  0  0  0
   38.0370   27.2260   37.0960 H   0  0  0  0  0  0  0  0  0  0  0  0
   38.4300   26.5690   33.3470 O   0  0  0  0  0  0  0  0  0  0  0  0
   38.1380   27.6950   31.0200 O   0  0  0  0  0  0  0  0  0  0  0  0
   38.1760   26.3540   31.6990 P   0  0  1  0  0  0  0  0  0  0  0  0
   39.4670   25.4610   31.0290 O   0  0  0  0  0  0  0  0  0  0  0  0
   40.1650   26.0440   30.6400 H   0  0  0  0  0  0  0  0  0  0  0  0
   36.7310   25.5170   31.4270 O   0  0  0  0  0  0  0  0  0  0  0  0
   37.0530   24.2830   30.9050 C   0  0  0  0  0  0  0  0  0  0  0  0
   36.5610   24.0700   29.9320 H   0  0  0  0  0  0  0  0  0  0  0  0
   38.1520   24.2580   30.6940 H   0  0  0  0  0  0  0  0  0  0  0  0
   36.7190   23.1560   31.8060 C   0  0  0  0  0  0  0  0  0  0  0  0
   35.5600   22.4660   31.5340 C   0  0  0  0  0  0  0  0  0  0  0  0
   35.1910   21.3940   32.3480 C   0  0  0  0  0  0  0  0  0  0  0  0
   36.0230   21.0890   33.3840 N   0  0  0  0  0  0  0  0  0  0  0  0
   37.1600   21.7800   33.6360 C   0  0  0  0  0  0  0  0  0  0  0  0
   37.5090   22.8210   32.8390 N   0  0  0  0  0  0  0  0  0  0  0  0
   34.8510   22.6320   30.7500 H   0  0  0  0  0  0  0  0  0  0  0  0
   34.3020   20.7920   32.2150 H   0  0  0  0  0  0  0  0  0  0  0  0
   37.7930   21.4990   34.4770 H   0  0  0  0  0  0  0  0  0  0  0  0
   38.7800   24.8980   35.2270 O   0  0  0  0  0  0  0  0  0  0  0  0
   40.0180   22.0340   39.1090 H   0  0  0  0  0  0  0  0  0  0  0  0
   39.8570   22.7280   38.3370 N   0  0  0  0  0  0  0  0  0  0  0  0
   38.4850   23.1200   38.3780 C   0  0  0  0  0  2  0  0  0  0  0  0
   37.9320   23.5930   37.0500 C   0  0  0  0  0  2  0  0  0  0  0  0
   39.1120   24.0710   36.2310 C   0  0  0  0  0  3  0  0  0  0  0  0
   39.9120   22.8560   35.8840 C   0  0  0  0  0  2  0  0  0  0  0  0
   40.2800   22.0880   37.1170 C   0  0  0  0  0  2  0  0  0  0  0  0
  1  5  1  0  0  0  0
  1  6  1  1  0  0  0
  2  7  1  6  0  0  0
  2  3  1  0  0  0  0
  2  1  1  0  0  0  0
  3  8  1  0  0  0  0
  3  4  1  0  0  0  0
  4  5  1  0  0  0  0
  5 11  1  0  0  0  0
  9  3  1  0  0  0  0
 10  5  1  0  0  0  0
 12  2  1  0  0  0  0
 14 13  2  6  0  0  0
 14 12  1  0  0  0  0
 15 14  1  0  0  0  0
 16 15  1  0  0  0  0
 17 14  1  0  0  0  0
 18 17  1  0  0  0  0
 18 21  1  0  0  0  0
 19 18  1  0  0  0  0
 20 18  1  0  0  0  0
 21 26  1  0  0  0  0
 22 21  2  0  0  0  0
 22 23  1  0  0  0  0
 23 24  2  0  0  0  0
 24 25  1  0  0  0  0
 25 29  1  0  0  0  0
 26 25  2  0  0  0  0
 27 22  1  0  0  0  0
 28 23  1  0  0  0  0
 30  1  1  0  0  0  0
 30 35  1  0  0  0  0
 32 33  1  0  0  0  0
 32 31  1  0  0  0  0
 34 33  1  0  0  0  0
 35 34  1  0  0  0  0
 36 35  1  0  0  0  0
 36 37  1  0  0  0  0
 37 32  1  0  0  0  0
M  END
>  <minimizedAffinity>
-5.18036413

$$$$

 OpenBabel03272504243D

 37 39  0  0  1  0  0  0  0  0999 V2000
   38.2070   22.6010   33.9980 C   0  0  2  0  0  0  0  0  0  0  0  0
   38.1110   23.2500   32.6320 C   0  0  1  0  0  0  0  0  0  0  0  0
   37.8260   21.9910   31.8080 C   0  0  0  0  0  0  0  0  0  0  0  0
   36.8030   21.4240   32.5260 O   0  0  0  0  0  0  0  0  0  0  0  0
   37.0610   21.5870   33.8690 C   0  0  0  0  0  0  0  0  0  0  0  0
   39.1070   22.0110   34.1530 H   0  0  0  0  0  0  0  0  0  0  0  0
   39.0390   23.7460   32.3050 H   0  0  0  0  0  0  0  0  0  0  0  0
   38.7170   21.3600   31.7690 H   0  0  0  0  0  0  0  0  0  0  0  0
   37.4270   22.2500   30.7960 H   0  0  0  0  0  0  0  0  0  0  0  0
   36.1800   21.9320   34.4560 H   0  0  0  0  0  0  0  0  0  0  0  0
   37.3350   20.6080   34.2850 H   0  0  0  0  0  0  0  0  0  0  0  0
   36.9890   24.0510   32.6500 O   0  0  0  0  0  0  0  0  0  0  0  0
   38.4610   25.3720   30.9600 O   0  0  0  0  0  0  0  0  0  0  0  0
   37.1150   25.3820   31.6310 P   0  0  1  0  0  0  0  0  0  0  0  0
   35.9190   25.2920   30.4160 O   0  0  0  0  0  0  0  0  0  0  0  0
   36.2590   24.8770   29.5850 H   0  0  0  0  0  0  0  0  0  0  0  0
   36.9040   26.8170   32.5030 O   0  0  0  0  0  0  0  0  0  0  0  0
   35.8970   27.5330   31.8940 C   0  0  0  0  0  0  0  0  0  0  0  0
   35.2220   26.9090   31.2710 H   0  0  0  0  0  0  0  0  0  0  0  0
   35.2430   27.9770   32.6870 H   0  0  0  0  0  0  0  0  0  0  0  0
   36.3920   28.6240   31.0240 C   0  0  0  0  0  0  0  0  0  0  0  0
   36.3010   29.9040   31.5200 C   0  0  0  0  0  0  0  0  0  0  0  0
   36.7500   30.9760   30.7460 C   0  0  0  0  0  0  0  0  0  0  0  0
   37.2640   30.6790   29.5190 N   0  0  0  0  0  0  0  0  0  0  0  0
   37.3450   29.4120   29.0470 C   0  0  0  0  0  0  0  0  0  0  0  0
   36.9060   28.3780   29.8070 N   0  0  0  0  0  0  0  0  0  0  0  0
   35.9160   30.2300   32.4640 H   0  0  0  0  0  0  0  0  0  0  0  0
   36.7210   32.0140   31.0480 H   0  0  0  0  0  0  0  0  0  0  0  0
   37.7630   29.2250   28.0580 H   0  0  0  0  0  0  0  0  0  0  0  0
   37.9450   23.5490   34.9490 O   0  0  0  0  0  0  0  0  0  0  0  0
   39.6730   22.5290   39.5070 H   0  0  0  0  0  0  0  0  0  0  0  0
   39.2280   22.6280   38.5610 N   0  0  0  0  0  0  0  0  0  0  0  0
   40.2680   22.6350   37.5840 C   0  0  0  0  0  2  0  0  0  0  0  0
   39.9140   23.3580   36.3020 C   0  0  0  0  0  2  0  0  0  0  0  0
   38.4050   23.3420   36.1930 C   0  0  0  0  0  3  0  0  0  0  0  0
   37.8880   24.2360   37.2740 C   0  0  0  0  0  2  0  0  0  0  0  0
   38.4210   23.8210   38.6120 C   0  0  0  0  0  2  0  0  0  0  0  0
  1  6  1  1  0  0  0
  1 30  1  0  0  0  0
  2  7  1  6  0  0  0
  2 12  1  0  0  0  0
  2  1  1  0  0  0  0
  3  4  1  0  0  0  0
  3  2  1  0  0  0  0
  4  5  1  0  0  0  0
  5  1  1  0  0  0  0
  5 11  1  0  0  0  0
  5 10  1  0  0  0  0
  8  3  1  0  0  0  0
  9  3  1  0  0  0  0
 14 13  2  6  0  0  0
 14 17  1  0  0  0  0
 14 12  1  0  0  0  0
 15 14  1  0  0  0  0
 16 15  1  0  0  0  0
 18 17  1  0  0  0  0
 18 20  1  0  0  0  0
 19 18  1  0  0  0  0
 21 22  1  0  0  0  0
 21 18  1  0  0  0  0
 22 27  1  0  0  0  0
 23 28  1  0  0  0  0
 23 22  2  0  0  0  0
 24 23  1  0  0  0  0
 25 24  2  0  0  0  0
 25 26  1  0  0  0  0
 26 21  2  0  0  0  0
 29 25  1  0  0  0  0
 30 35  1  0  0  0  0
 32 37  1  0  0  0  0
 32 31  1  0  0  0  0
 33 32  1  0  0  0  0
 34 33  1  0  0  0  0
 35 34  1  0  0  0  0
 35 36  1  0  0  0  0
 36 37  1  0  0  0  0
M  END
>  <minimizedAffinity>
-5.13481188

$$$$

 OpenBabel03272504243D

 37 39  0  0  1  0  0  0  0  0999 V2000
   36.6690   24.2360   31.0200 C   0  0  2  0  0  0  0  0  0  0  0  0
   37.0850   25.6070   31.5160 C   0  0  1  0  0  0  0  0  0  0  0  0
   36.0020   26.4330   30.8160 C   0  0  0  0  0  0  0  0  0  0  0  0
   34.8680   25.7400   31.1590 O   0  0  0  0  0  0  0  0  0  0  0  0
   35.1450   24.3910   31.1180 C   0  0  0  0  0  0  0  0  0  0  0  0
   36.8810   24.0570   29.9690 H   0  0  0  0  0  0  0  0  0  0  0  0
   38.0950   25.9120   31.1990 H   0  0  0  0  0  0  0  0  0  0  0  0
   36.1810   26.4470   29.7390 H   0  0  0  0  0  0  0  0  0  0  0  0
   35.9210   27.4560   31.2610 H   0  0  0  0  0  0  0  0  0  0  0  0
   34.7620   23.8280   31.9990 H   0  0  0  0  0  0  0  0  0  0  0  0
   34.6350   23.9650   30.2440 H   0  0  0  0  0  0  0  0  0  0  0  0
   36.8640   25.6200   32.8770 O   0  0  0  0  0  0  0  0  0  0  0  0
   38.6990   27.4620   32.7870 O   0  0  0  0  0  0  0  0  0  0  0  0
   38.0230   26.4980   33.7220 P   0  0  1  0  0  0  0  0  0  0  0  0
   37.2700   27.4040   34.9580 O   0  0  0  0  0  0  0  0  0  0  0  0
   37.0670   28.3300   34.6740 H   0  0  0  0  0  0  0  0  0  0  0  0
   39.1610   25.4580   34.4190 O   0  0  0  0  0  0  0  0  0  0  0  0
   38.5020   24.3110   34.8030 C   0  0  0  0  0  0  0  0  0  0  0  0
   37.4030   24.3560   34.6460 H   0  0  0  0  0  0  0  0  0  0  0  0
   38.8570   23.4630   34.1640 H   0  0  0  0  0  0  0  0  0  0  0  0
   38.7140   23.9550   36.2240 C   0  0  0  0  0  0  0  0  0  0  0  0
   37.8320   24.4850   37.1360 C   0  0  0  0  0  0  0  0  0  0  0  0
   37.9810   24.1860   38.4920 C   0  0  0  0  0  0  0  0  0  0  0  0
   39.0150   23.3670   38.8340 N   0  0  0  0  0  0  0  0  0  0  0  0
   39.8750   22.8540   37.9210 C   0  0  0  0  0  0  0  0  0  0  0  0
   39.7220   23.1510   36.6070 N   0  0  0  0  0  0  0  0  0  0  0  0
   36.9970   25.1310   36.9620 H   0  0  0  0  0  0  0  0  0  0  0  0
   37.3390   24.5530   39.2810 H   0  0  0  0  0  0  0  0  0  0  0  0
   40.6880   22.2050   38.2440 H   0  0  0  0  0  0  0  0  0  0  0  0
   37.1440   23.2960   31.8930 O   0  0  0  0  0  0  0  0  0  0  0  0
   34.4840   19.0930   32.1310 H   0  0  0  0  0  0  0  0  0  0  0  0
   34.9200   20.0470   32.0800 N   0  0  0  0  0  0  0  0  0  0  0  0
   35.7500   20.0900   30.9190 C   0  0  0  0  0  2  0  0  0  0  0  0
   36.8860   21.0860   31.0020 C   0  0  0  0  0  2  0  0  0  0  0  0
   36.4710   22.1400   32.0050 C   0  0  0  0  0  3  0  0  0  0  0  0
   36.4660   21.4770   33.3460 C   0  0  0  0  0  2  0  0  0  0  0  0
   35.6010   20.2530   33.3330 C   0  0  0  0  0  2  0  0  0  0  0  0
  1  6  1  6  0  0  0
  1  5  1  0  0  0  0
  1  2  1  0  0  0  0
  1 30  1  0  0  0  0
  2  7  1  6  0  0  0
  2 12  1  0  0  0  0
  3  4  1  0  0  0  0
  3  9  1  0  0  0  0
  3  2  1  0  0  0  0
  5  4  1  0  0  0  0
  5 10  1  0  0  0  0
  8  3  1  0  0  0  0
 11  5  1  0  0  0  0
 12 14  1  0  0  0  0
 14 13  2  6  0  0  0
 14 17  1  0  0  0  0
 14 15  1  0  0  0  0
 16 15  1  0  0  0  0
 17 18  1  0  0  0  0
 18 21  1  0  0  0  0
 19 18  1  0  0  0  0
 20 18  1  0  0  0  0
 21 26  2  0  0  0  0
 21 22  1  0  0  0  0
 22 23  2  0  0  0  0
 23 24  1  0  0  0  0
 23 28  1  0  0  0  0
 25 29  1  0  0  0  0
 25 24  2  0  0  0  0
 26 25  1  0  0  0  0
 27 22  1  0  0  0  0
 30 35  1  0  0  0  0
 32 31  1  0  0  0  0
 32 37  1  0  0  0  0
 33 34  1  0  0  0  0
 33 32  1  0  0  0  0
 34 35  1  0  0  0  0
 35 36  1  0  0  0  0
 37 36  1  0  0  0  0
M  END
>  <minimizedAffinity>
-5.08234453

$$$$

 OpenBabel03272504243D

 37 39  0  0  1  0  0  0  0  0999 V2000
   38.4310   23.0070   33.9610 C   0  0  2  0  0  0  0  0  0  0  0  0
   38.3890   23.8090   32.6760 C   0  0  1  0  0  0  0  0  0  0  0  0
   38.2170   22.6460   31.6940 C   0  0  0  0  0  0  0  0  0  0  0  0
   37.1810   21.9560   32.2710 O   0  0  0  0  0  0  0  0  0  0  0  0
   37.3460   21.9690   33.6380 C   0  0  0  0  0  0  0  0  0  0  0  0
   39.3470   22.4410   34.1070 H   0  0  0  0  0  0  0  0  0  0  0  0
   39.3100   24.3790   32.4720 H   0  0  0  0  0  0  0  0  0  0  0  0
   39.1390   22.0620   31.6430 H   0  0  0  0  0  0  0  0  0  0  0  0
   37.8700   23.0070   30.6950 H   0  0  0  0  0  0  0  0  0  0  0  0
   36.4140   22.2060   34.2000 H   0  0  0  0  0  0  0  0  0  0  0  0
   37.6410   20.9600   33.9550 H   0  0  0  0  0  0  0  0  0  0  0  0
   37.2290   24.5550   32.7110 O   0  0  0  0  0  0  0  0  0  0  0  0
   38.6980   26.0800   31.1990 O   0  0  0  0  0  0  0  0  0  0  0  0
   37.3110   25.9410   31.7630 P   0  0  1  0  0  0  0  0  0  0  0  0
   36.2220   25.8090   30.4540 O   0  0  0  0  0  0  0  0  0  0  0  0
   36.6590   25.4660   29.6360 H   0  0  0  0  0  0  0  0  0  0  0  0
   36.9080   27.3070   32.6760 O   0  0  0  0  0  0  0  0  0  0  0  0
   35.8080   27.8940   32.0890 C   0  0  0  0  0  0  0  0  0  0  0  0
   35.9580   28.1480   31.0180 H   0  0  0  0  0  0  0  0  0  0  0  0
   34.9600   27.1630   32.1050 H   0  0  0  0  0  0  0  0  0  0  0  0
   35.3730   29.1390   32.7640 C   0  0  0  0  0  0  0  0  0  0  0  0
   35.6920   29.2680   34.0950 C   0  0  0  0  0  0  0  0  0  0  0  0
   35.3080   30.4180   34.7870 C   0  0  0  0  0  0  0  0  0  0  0  0
   34.6270   31.3640   34.0810 N   0  0  0  0  0  0  0  0  0  0  0  0
   34.3200   31.2190   32.7690 C   0  0  0  0  0  0  0  0  0  0  0  0
   34.6980   30.0970   32.1070 N   0  0  0  0  0  0  0  0  0  0  0  0
   36.2210   28.5830   34.7260 H   0  0  0  0  0  0  0  0  0  0  0  0
   35.5140   30.6120   35.8310 H   0  0  0  0  0  0  0  0  0  0  0  0
   33.7720   32.0030   32.2480 H   0  0  0  0  0  0  0  0  0  0  0  0
   38.0640   23.8240   34.9950 O   0  0  0  0  0  0  0  0  0  0  0  0
   39.6430   22.4150   39.5040 H   0  0  0  0  0  0  0  0  0  0  0  0
   39.2210   22.6010   38.5600 N   0  0  0  0  0  0  0  0  0  0  0  0
   40.2740   22.5890   37.5960 C   0  0  0  0  0  2  0  0  0  0  0  0
   39.9930   23.4100   36.3560 C   0  0  0  0  0  2  0  0  0  0  0  0
   38.4880   23.5110   36.2290 C   0  0  0  0  0  3  0  0  0  0  0  0
   38.0210   24.3760   37.3570 C   0  0  0  0  0  2  0  0  0  0  0  0
   38.5020   23.8460   38.6730 C   0  0  0  0  0  2  0  0  0  0  0  0
  1  6  1  1  0  0  0
  1 30  1  0  0  0  0
  2  7  1  6  0  0  0
  2 12  1  0  0  0  0
  2  1  1  0  0  0  0
  3  4  1  0  0  0  0
  3  2  1  0  0  0  0
  4  5  1  0  0  0  0
  5 11  1  0  0  0  0
  5  1  1  0  0  0  0
  5 10  1  0  0  0  0
  8  3  1  0  0  0  0
  9  3  1  0  0  0  0
 14 13  2  6  0  0  0
 14 17  1  0  0  0  0
 14 12  1  0  0  0  0
 15 14  1  0  0  0  0
 16 15  1  0  0  0  0
 18 20  1  0  0  0  0
 18 17  1  0  0  0  0
 18 21  1  0  0  0  0
 19 18  1  0  0  0  0
 21 22  1  0  0  0  0
 22 27  1  0  0  0  0
 22 23  2  0  0  0  0
 23 28  1  0  0  0  0
 24 23  1  0  0  0  0
 25 24  2  0  0  0  0
 26 21  2  0  0  0  0
 26 25  1  0  0  0  0
 29 25  1  0  0  0  0
 30 35  1  0  0  0  0
 32 37  1  0  0  0  0
 32 31  1  0  0  0  0
 33 32  1  0  0  0  0
 34 33  1  0  0  0  0
 35 34  1  0  0  0  0
 35 36  1  0  0  0  0
 36 37  1  0  0  0  0
M  END
>  <minimizedAffinity>
-5.05246449

$$$$

 OpenBabel03272504243D

 37 39  0  0  1  0  0  0  0  0999 V2000
   37.6440   25.7900   35.4950 C   0  0  2  0  0  0  0  0  0  0  0  0
   37.1100   26.3540   34.1930 C   0  0  1  0  0  0  0  0  0  0  0  0
   36.7920   27.7710   34.6800 C   0  0  0  0  0  0  0  0  0  0  0  0
   37.9640   28.1110   35.3080 O   0  0  0  0  0  0  0  0  0  0  0  0
   38.4410   27.0090   35.9820 C   0  0  0  0  0  0  0  0  0  0  0  0
   36.8850   25.6130   36.2520 H   0  0  0  0  0  0  0  0  0  0  0  0
   36.2090   25.8430   33.8190 H   0  0  0  0  0  0  0  0  0  0  0  0
   35.9380   27.7490   35.3600 H   0  0  0  0  0  0  0  0  0  0  0  0
   36.6520   28.4730   33.8210 H   0  0  0  0  0  0  0  0  0  0  0  0
   39.5320   26.8320   35.8380 H   0  0  0  0  0  0  0  0  0  0  0  0
   38.3040   27.1820   37.0570 H   0  0  0  0  0  0  0  0  0  0  0  0
   38.1720   26.3980   33.3150 O   0  0  0  0  0  0  0  0  0  0  0  0
   38.7990   24.7050   31.4410 O   0  0  0  0  0  0  0  0  0  0  0  0
   37.7990   25.7680   31.8010 P   0  0  1  0  0  0  0  0  0  0  0  0
   36.2530   25.0440   31.8450 O   0  0  0  0  0  0  0  0  0  0  0  0
   36.2990   24.0710   32.0150 H   0  0  0  0  0  0  0  0  0  0  0  0
   37.7970   26.9940   30.6340 O   0  0  0  0  0  0  0  0  0  0  0  0
   36.5710   27.6190   30.6840 C   0  0  0  0  0  0  0  0  0  0  0  0
   35.8570   27.2590   29.9120 H   0  0  0  0  0  0  0  0  0  0  0  0
   36.0880   27.3850   31.6660 H   0  0  0  0  0  0  0  0  0  0  0  0
   36.6510   29.0900   30.5350 C   0  0  0  0  0  0  0  0  0  0  0  0
   36.2300   29.8460   31.6040 C   0  0  0  0  0  0  0  0  0  0  0  0
   36.2810   31.2390   31.5240 C   0  0  0  0  0  0  0  0  0  0  0  0
   36.7580   31.7740   30.3650 N   0  0  0  0  0  0  0  0  0  0  0  0
   37.1680   31.0130   29.3220 C   0  0  0  0  0  0  0  0  0  0  0  0
   37.1140   29.6610   29.4100 N   0  0  0  0  0  0  0  0  0  0  0  0
   35.8440   29.5170   32.5470 H   0  0  0  0  0  0  0  0  0  0  0  0
   35.9740   31.9170   32.3100 H   0  0  0  0  0  0  0  0  0  0  0  0
   37.5400   31.4880   28.4150 H   0  0  0  0  0  0  0  0  0  0  0  0
   38.4580   24.7290   35.2080 O   0  0  0  0  0  0  0  0  0  0  0  0
   40.1080   22.1440   39.1320 H   0  0  0  0  0  0  0  0  0  0  0  0
   39.8620   22.7830   38.3350 N   0  0  0  0  0  0  0  0  0  0  0  0
   38.4940   23.1630   38.4810 C   0  0  0  0  0  2  0  0  0  0  0  0
   37.8100   23.5400   37.1850 C   0  0  0  0  0  2  0  0  0  0  0  0
   38.8980   23.9750   36.2270 C   0  0  0  0  0  3  0  0  0  0  0  0
   39.6820   22.7470   35.8850 C   0  0  0  0  0  2  0  0  0  0  0  0
   40.1780   22.0670   37.1250 C   0  0  0  0  0  2  0  0  0  0  0  0
  1  5  1  0  0  0  0
  1  6  1  1  0  0  0
  2  7  1  6  0  0  0
  2  3  1  0  0  0  0
  2  1  1  0  0  0  0
  3  4  1  0  0  0  0
  3  8  1  0  0  0  0
  4  5  1  0  0  0  0
  5 11  1  0  0  0  0
  9  3  1  0  0  0  0
 10  5  1  0  0  0  0
 12  2  1  0  0  0  0
 14 13  2  6  0  0  0
 14 15  1  0  0  0  0
 14 12  1  0  0  0  0
 15 16  1  0  0  0  0
 17 18  1  0  0  0  0
 17 14  1  0  0  0  0
 18 20  1  0  0  0  0
 19 18  1  0  0  0  0
 21 18  1  0  0  0  0
 21 22  1  0  0  0  0
 22 27  1  0  0  0  0
 23 22  2  0  0  0  0
 23 28  1  0  0  0  0
 24 23  1  0  0  0  0
 25 26  1  0  0  0  0
 25 24  2  0  0  0  0
 26 21  2  0  0  0  0
 29 25  1  0  0  0  0
 30  1  1  0  0  0  0
 30 35  1  0  0  0  0
 32 33  1  0  0  0  0
 32 31  1  0  0  0  0
 34 33  1  0  0  0  0
 35 34  1  0  0  0  0
 36 35  1  0  0  0  0
 36 37  1  0  0  0  0
 37 32  1  0  0  0  0
M  END
>  <minimizedAffinity>
-4.88196182

$$$$

 OpenBabel03272504243D

 37 39  0  0  1  0  0  0  0  0999 V2000
   36.8710   27.9620   33.1330 C   0  0  2  0  0  0  0  0  0  0  0  0
   37.5990   26.6850   32.7620 C   0  0  1  0  0  0  0  0  0  0  0  0
   38.4990   26.5760   33.9970 C   0  0  0  0  0  0  0  0  0  0  0  0
   37.5890   26.7440   35.0100 O   0  0  0  0  0  0  0  0  0  0  0  0
   36.6800   27.7080   34.6350 C   0  0  0  0  0  0  0  0  0  0  0  0
   37.4780   28.8610   33.0600 H   0  0  0  0  0  0  0  0  0  0  0  0
   38.1900   26.7590   31.8350 H   0  0  0  0  0  0  0  0  0  0  0  0
   39.2580   27.3610   33.9750 H   0  0  0  0  0  0  0  0  0  0  0  0
   38.9300   25.5500   34.0940 H   0  0  0  0  0  0  0  0  0  0  0  0
   35.6210   27.4320   34.8420 H   0  0  0  0  0  0  0  0  0  0  0  0
   36.8770   28.6110   35.2290 H   0  0  0  0  0  0  0  0  0  0  0  0
   36.6620   25.6740   32.7860 O   0  0  0  0  0  0  0  0  0  0  0  0
   35.0870   25.0750   30.8040 O   0  0  0  0  0  0  0  0  0  0  0  0
   36.4940   24.8990   31.3040 P   0  0  1  0  0  0  0  0  0  0  0  0
   37.5500   25.6050   30.1620 O   0  0  0  0  0  0  0  0  0  0  0  0
   37.1050   26.3020   29.6210 H   0  0  0  0  0  0  0  0  0  0  0  0
   36.8650   23.2540   31.4500 O   0  0  0  0  0  0  0  0  0  0  0  0
   35.7430   22.6120   31.9260 C   0  0  0  0  0  0  0  0  0  0  0  0
   35.5260   22.8300   32.9940 H   0  0  0  0  0  0  0  0  0  0  0  0
   34.8510   22.9820   31.3610 H   0  0  0  0  0  0  0  0  0  0  0  0
   35.8070   21.1380   31.7980 C   0  0  0  0  0  0  0  0  0  0  0  0
   35.3460   20.4020   32.8640 C   0  0  0  0  0  0  0  0  0  0  0  0
   35.3810   19.0070   32.8040 C   0  0  0  0  0  0  0  0  0  0  0  0
   35.8800   18.4510   31.6640 N   0  0  0  0  0  0  0  0  0  0  0  0
   36.3310   19.1930   30.6240 C   0  0  0  0  0  0  0  0  0  0  0  0
   36.2930   20.5470   30.6930 N   0  0  0  0  0  0  0  0  0  0  0  0
   34.9390   20.7480   33.7910 H   0  0  0  0  0  0  0  0  0  0  0  0
   35.0410   18.3440   33.5870 H   0  0  0  0  0  0  0  0  0  0  0  0
   36.7230   18.7020   29.7340 H   0  0  0  0  0  0  0  0  0  0  0  0
   35.6780   27.9930   32.4640 O   0  0  0  0  0  0  0  0  0  0  0  0
   34.0390   32.1810   30.3250 H   0  0  0  0  0  0  0  0  0  0  0  0
   34.3580   31.2350   30.6510 N   0  0  0  0  0  0  0  0  0  0  0  0
   33.5790   30.8770   31.7920 C   0  0  0  0  0  2  0  0  0  0  0  0
   34.2610   29.9070   32.7330 C   0  0  0  0  0  2  0  0  0  0  0  0
   35.2900   29.1550   31.9170 C   0  0  0  0  0  3  0  0  0  0  0  0
   36.3600   30.1400   31.5640 C   0  0  0  0  0  2  0  0  0  0  0  0
   35.7780   31.3400   30.8810 C   0  0  0  0  0  2  0  0  0  0  0  0
  1  6  1  6  0  0  0
  1  5  1  0  0  0  0
  2  7  1  6  0  0  0
  2 12  1  0  0  0  0
  2  1  1  0  0  0  0
  2  3  1  0  0  0  0
  3  9  1  0  0  0  0
  3  4  1  0  0  0  0
  5 10  1  0  0  0  0
  5  4  1  0  0  0  0
  5 11  1  0  0  0  0
  8  3  1  0  0  0  0
 14 13  2  6  0  0  0
 14 17  1  0  0  0  0
 14 12  1  0  0  0  0
 15 14  1  0  0  0  0
 16 15  1  0  0  0  0
 17 18  1  0  0  0  0
 18 19  1  0  0  0  0
 20 18  1  0  0  0  0
 21 18  1  0  0  0  0
 21 22  1  0  0  0  0
 22 27  1  0  0  0  0
 23 22  2  0  0  0  0
 23 28  1  0  0  0  0
 24 23  1  0  0  0  0
 25 26  1  0  0  0  0
 25 24  2  0  0  0  0
 26 21  2  0  0  0  0
 29 25  1  0  0  0  0
 30  1  1  0  0  0  0
 31 32  1  0  0  0  0
 32 37  1  0  0  0  0
 32 33  1  0  0  0  0
 33 34  1  0  0  0  0
 35 30  1  0  0  0  0
 35 34  1  0  0  0  0
 36 35  1  0  0  0  0
 37 36  1  0  0  0  0
M  END
>  <minimizedAffinity>
-4.80414391

$$$$

 OpenBabel03272504243D

 37 39  0  0  1  0  0  0  0  0999 V2000
   38.4210   23.7020   33.9750 C   0  0  2  0  0  0  0  0  0  0  0  0
   38.3170   24.7340   32.8690 C   0  0  1  0  0  0  0  0  0  0  0  0
   38.2610   23.7740   31.6760 C   0  0  0  0  0  0  0  0  0  0  0  0
   37.2870   22.8960   32.0810 O   0  0  0  0  0  0  0  0  0  0  0  0
   37.4390   22.6570   33.4290 C   0  0  0  0  0  0  0  0  0  0  0  0
   39.3840   23.2020   34.0320 H   0  0  0  0  0  0  0  0  0  0  0  0
   39.1840   25.4110   32.8040 H   0  0  0  0  0  0  0  0  0  0  0  0
   39.2320   23.2950   31.5370 H   0  0  0  0  0  0  0  0  0  0  0  0
   37.8910   24.2910   30.7570 H   0  0  0  0  0  0  0  0  0  0  0  0
   36.4850   22.6960   34.0020 H   0  0  0  0  0  0  0  0  0  0  0  0
   37.8220   21.6350   33.5520 H   0  0  0  0  0  0  0  0  0  0  0  0
   37.0940   25.3530   33.0180 O   0  0  0  0  0  0  0  0  0  0  0  0
   36.9410   27.5560   34.3930 O   0  0  0  0  0  0  0  0  0  0  0  0
   37.2030   27.0310   33.0090 P   0  0  1  0  0  0  0  0  0  0  0  0
   38.7810   27.5030   32.5560 O   0  0  0  0  0  0  0  0  0  0  0  0
   39.3610   27.6710   33.3400 H   0  0  0  0  0  0  0  0  0  0  0  0
   36.0970   27.6900   31.9110 O   0  0  0  0  0  0  0  0  0  0  0  0
   36.6010   27.5000   30.6430 C   0  0  0  0  0  0  0  0  0  0  0  0
   37.5390   26.9040   30.6220 H   0  0  0  0  0  0  0  0  0  0  0  0
   35.8610   26.9100   30.0470 H   0  0  0  0  0  0  0  0  0  0  0  0
   36.8860   28.7640   29.9250 C   0  0  0  0  0  0  0  0  0  0  0  0
   36.4080   29.9220   30.4930 C   0  0  0  0  0  0  0  0  0  0  0  0
   36.6430   31.1460   29.8640 C   0  0  0  0  0  0  0  0  0  0  0  0
   37.3500   31.1150   28.6980 N   0  0  0  0  0  0  0  0  0  0  0  0
   37.8130   29.9640   28.1530 C   0  0  0  0  0  0  0  0  0  0  0  0
   37.5780   28.7810   28.7730 N   0  0  0  0  0  0  0  0  0  0  0  0
   35.8490   30.0430   31.3980 H   0  0  0  0  0  0  0  0  0  0  0  0
   36.3100   32.1070   30.2320 H   0  0  0  0  0  0  0  0  0  0  0  0
   38.3720   29.9900   27.2190 H   0  0  0  0  0  0  0  0  0  0  0  0
   37.9730   24.2660   35.1380 O   0  0  0  0  0  0  0  0  0  0  0  0
   39.7740   22.8040   39.5460 H   0  0  0  0  0  0  0  0  0  0  0  0
   39.4560   23.2380   38.6430 N   0  0  0  0  0  0  0  0  0  0  0  0
   38.0320   23.1600   38.5940 C   0  0  0  0  0  2  0  0  0  0  0  0
   37.4550   23.1500   37.1950 C   0  0  0  0  0  2  0  0  0  0  0  0
   38.4770   23.8120   36.2960 C   0  0  0  0  0  3  0  0  0  0  0  0
   39.6460   22.8820   36.2190 C   0  0  0  0  0  2  0  0  0  0  0  0
   40.1480   22.5400   37.5880 C   0  0  0  0  0  2  0  0  0  0  0  0
  1  6  1  1  0  0  0
  1 30  1  0  0  0  0
  2  7  1  6  0  0  0
  2 12  1  0  0  0  0
  2  1  1  0  0  0  0
  3  4  1  0  0  0  0
  3  2  1  0  0  0  0
  4  5  1  0  0  0  0
  5 11  1  0  0  0  0
  5  1  1  0  0  0  0
  5 10  1  0  0  0  0
  8  3  1  0  0  0  0
  9  3  1  0  0  0  0
 14 12  1  0  0  0  0
 14 13  2  1  0  0  0
 15 14  1  0  0  0  0
 15 16  1  0  0  0  0
 17 14  1  0  0  0  0
 18 17  1  0  0  0  0
 19 18  1  0  0  0  0
 20 18  1  0  0  0  0
 21 22  1  0  0  0  0
 21 18  1  0  0  0  0
 22 27  1  0  0  0  0
 23 28  1  0  0  0  0
 23 22  2  0  0  0  0
 24 23  1  0  0  0  0
 25 24  2  0  0  0  0
 25 26  1  0  0  0  0
 26 21  2  0  0  0  0
 29 25  1  0  0  0  0
 30 35  1  0  0  0  0
 32 31  1  0  0  0  0
 33 32  1  0  0  0  0
 34 33  1  0  0  0  0
 35 34  1  0  0  0  0
 36 35  1  0  0  0  0
 36 37  1  0  0  0  0
 37 32  1  0  0  0  0
M  END
>  <minimizedAffinity>
-4.764853

$$$$
