
 OpenBabel03272504223D

 37 39  0  0  1  0  0  0  0  0999 V2000
   38.8700   32.3550   47.8290 C   0  0  2  0  0  0  0  0  0  0  0  0
   38.2030   31.3670   48.7650 C   0  0  1  0  0  0  0  0  0  0  0  0
   38.7190   31.9340   50.0900 C   0  0  0  0  0  0  0  0  0  0  0  0
   38.4230   33.2660   49.9490 O   0  0  0  0  0  0  0  0  0  0  0  0
   38.6720   33.6390   48.6470 C   0  0  0  0  0  0  0  0  0  0  0  0
   39.9450   32.2280   47.7350 H   0  0  0  0  0  0  0  0  0  0  0  0
   38.5240   30.3230   48.6180 H   0  0  0  0  0  0  0  0  0  0  0  0
   39.7910   31.7460   50.1840 H   0  0  0  0  0  0  0  0  0  0  0  0
   38.1280   31.5450   50.9550 H   0  0  0  0  0  0  0  0  0  0  0  0
   37.8630   34.2570   48.1940 H   0  0  0  0  0  0  0  0  0  0  0  0
   39.5710   34.2690   48.6390 H   0  0  0  0  0  0  0  0  0  0  0  0
   36.8450   31.5850   48.6700 O   0  0  0  0  0  0  0  0  0  0  0  0
   35.9050   29.8540   46.9700 O   0  0  0  0  0  0  0  0  0  0  0  0
   35.9670   30.1710   48.4390 P   0  0  1  0  0  0  0  0  0  0  0  0
   36.7490   28.8720   49.2250 O   0  0  0  0  0  0  0  0  0  0  0  0
   37.3410   28.3660   48.6150 H   0  0  0  0  0  0  0  0  0  0  0  0
   34.4050   30.3330   49.0710 O   0  0  0  0  0  0  0  0  0  0  0  0
   34.1290   29.1990   49.8030 C   0  0  0  0  0  0  0  0  0  0  0  0
   35.0370   28.6440   50.1230 H   0  0  0  0  0  0  0  0  0  0  0  0
   33.6180   29.5010   50.7520 H   0  0  0  0  0  0  0  0  0  0  0  0
   33.2680   28.2290   49.0890 C   0  0  0  0  0  0  0  0  0  0  0  0
   33.8980   27.3360   48.2550 C   0  0  0  0  0  0  0  0  0  0  0  0
   33.1400   26.3970   47.5530 C   0  0  0  0  0  0  0  0  0  0  0  0
   31.7910   26.4250   47.7440 N   0  0  0  0  0  0  0  0  0  0  0  0
   31.1870   27.3130   48.5700 C   0  0  0  0  0  0  0  0  0  0  0  0
   31.9340   28.2210   49.2470 N   0  0  0  0  0  0  0  0  0  0  0  0
   34.9430   27.2390   48.0440 H   0  0  0  0  0  0  0  0  0  0  0  0
   33.5430   25.6550   46.8770 H   0  0  0  0  0  0  0  0  0  0  0  0
   30.1040   27.2970   48.6890 H   0  0  0  0  0  0  0  0  0  0  0  0
   38.1680   32.3840   46.6550 O   0  0  0  0  0  0  0  0  0  0  0  0
   40.4500   31.6610   42.2880 H   0  0  0  0  0  0  0  0  0  0  0  0
   39.8530   31.7600   43.1460 N   0  0  0  0  0  0  0  0  0  0  0  0
   39.8710   33.1330   43.5380 C   0  0  0  0  0  2  0  0  0  0  0  0
   39.6110   33.3640   45.0100 C   0  0  0  0  0  2  0  0  0  0  0  0
   38.8380   32.1630   45.5130 C   0  0  0  0  0  3  0  0  0  0  0  0
   39.7820   31.0030   45.4820 C   0  0  0  0  0  2  0  0  0  0  0  0
   40.3800   30.8340   44.1190 C   0  0  0  0  0  2  0  0  0  0  0  0
  1  6  1  6  0  0  0
  1  5  1  0  0  0  0
  1  2  1  0  0  0  0
  2  7  1  6  0  0  0
  2  3  1  0  0  0  0
  3  8  1  0  0  0  0
  3  9  1  0  0  0  0
  4  3  1  0  0  0  0
  5  4  1  0  0  0  0
 10  5  1  0  0  0  0
 11  5  1  0  0  0  0
 12  2  1  0  0  0  0
 14 13  2  6  0  0  0
 14 12  1  0  0  0  0
 14 17  1  0  0  0  0
 14 15  1  0  0  0  0
 16 15  1  0  0  0  0
 17 18  1  0  0  0  0
 18 19  1  0  0  0  0
 18 20  1  0  0  0  0
 21 26  1  0  0  0  0
 21 18  1  0  0  0  0
 22 21  2  0  0  0  0
 23 24  2  0  0  0  0
 23 22  1  0  0  0  0
 24 25  1  0  0  0  0
 25 29  1  0  0  0  0
 25 26  2  0  0  0  0
 27 22  1  0  0  0  0
 28 23  1  0  0  0  0
 30  1  1  0  0  0  0
 31 32  1  0  0  0  0
 32 33  1  0  0  0  0
 32 37  1  0  0  0  0
 33 34  1  0  0  0  0
 34 35  1  0  0  0  0
 35 30  1  0  0  0  0
 36 35  1  0  0  0  0
 37 36  1  0  0  0  0
M  END
>  <minimizedAffinity>
-4.88526297

>  <minimizedRMSD>
0.241522774

$$$$
