
 OpenBabel03272505093D

 27 29  0  0  0  0  0  0  0  0999 V2000
   36.1680   30.9700   45.5680 Cl  0  0  0  0  0  0  0  0  0  0  0  0
   36.4660   30.6490   47.2530 C   0  0  0  0  0  0  0  0  0  0  0  0
   37.7530   30.8370   47.7040 C   0  0  0  0  0  0  0  0  0  0  0  0
   38.0160   30.5860   49.0560 C   0  0  0  0  0  0  0  0  0  0  0  0
   37.0000   30.1690   49.8780 C   0  0  0  0  0  0  0  0  0  0  0  0
   35.7290   30.0010   49.3520 C   0  0  0  0  0  0  0  0  0  0  0  0
   35.4020   30.2280   48.0410 C   0  0  0  0  0  0  0  0  0  0  0  0
   39.0300   30.7370   49.3970 H   0  0  0  0  0  0  0  0  0  0  0  0
   37.1730   29.9690   50.9130 H   0  0  0  0  0  0  0  0  0  0  0  0
   34.9330   29.6690   50.0160 H   0  0  0  0  0  0  0  0  0  0  0  0
   40.1030   33.0670   46.0330 C   0  0  0  0  0  0  0  0  0  0  0  0
   40.7870   32.2300   45.1140 C   0  0  0  0  0  0  0  0  0  0  0  0
   40.4030   30.8760   45.0970 C   0  0  0  0  0  0  0  0  0  0  0  0
   39.4220   30.4630   45.9460 N   0  0  0  0  0  0  0  0  0  0  0  0
   38.8130   31.2890   46.7880 C   0  0  0  0  0  0  0  0  0  0  0  0
   39.1530   32.5900   46.8320 N   0  0  0  0  0  0  0  0  0  0  0  0
   40.4170   34.0980   46.0250 H   0  0  0  0  0  0  0  0  0  0  0  0
   41.5580   32.5430   44.4410 H   0  0  0  0  0  0  0  0  0  0  0  0
   40.8500   30.1640   44.4490 H   0  0  0  0  0  0  0  0  0  0  0  0
   33.7860   30.0230   47.3510 S   0  0  0  0  0  0  0  0  0  0  0  0
   32.7650   25.0500   45.7660 H   0  0  0  0  0  0  0  0  0  0  0  0
   33.5660   25.5960   46.1390 N   0  0  0  0  0  0  0  0  0  0  0  0
   33.4560   25.9590   47.5300 C   0  0  0  0  0  2  0  0  0  0  0  0
   34.1430   27.3060   47.7990 C   0  0  0  0  0  2  0  0  0  0  0  0
   33.3160   28.3190   47.0650 C   0  0  0  0  0  3  0  0  0  0  0  0
   33.4280   28.0100   45.6030 C   0  0  0  0  0  2  0  0  0  0  0  0
   34.0300   26.6650   45.2980 C   0  0  0  0  0  2  0  0  0  0  0  0
  1  2  1  0  0  0  0
  2  3  2  0  0  0  0
  2  7  1  0  0  0  0
  3  4  1  0  0  0  0
  4  8  1  0  0  0  0
  4  5  2  0  0  0  0
  5  9  1  0  0  0  0
  6  5  1  0  0  0  0
  6 10  1  0  0  0  0
  7  6  2  0  0  0  0
 11 16  1  0  0  0  0
 12 11  2  0  0  0  0
 13 12  1  0  0  0  0
 13 14  2  0  0  0  0
 14 15  1  0  0  0  0
 15 16  2  0  0  0  0
 15  3  1  0  0  0  0
 17 11  1  0  0  0  0
 18 12  1  0  0  0  0
 19 13  1  0  0  0  0
 20  7  1  0  0  0  0
 21 22  1  0  0  0  0
 22 23  1  0  0  0  0
 23 24  1  0  0  0  0
 25 20  1  0  0  0  0
 25 24  1  0  0  0  0
 26 25  1  0  0  0  0
 27 26  1  0  0  0  0
 27 22  1  0  0  0  0
M  END
>  <minimizedAffinity>
-5.08961439

>  <minimizedRMSD>
1.15401721

$$$$
