
 OpenBabel03272504223D

 37 39  0  0  1  0  0  0  0  0999 V2000
   38.8270   32.3800   47.8370 C   0  0  2  0  0  0  0  0  0  0  0  0
   38.1910   31.3780   48.7790 C   0  0  1  0  0  0  0  0  0  0  0  0
   38.7400   31.9320   50.0970 C   0  0  0  0  0  0  0  0  0  0  0  0
   38.4330   33.2640   49.9790 O   0  0  0  0  0  0  0  0  0  0  0  0
   38.6450   33.6540   48.6750 C   0  0  0  0  0  0  0  0  0  0  0  0
   39.9000   32.2600   47.7120 H   0  0  0  0  0  0  0  0  0  0  0  0
   38.5130   30.3370   48.6120 H   0  0  0  0  0  0  0  0  0  0  0  0
   39.8150   31.7490   50.1590 H   0  0  0  0  0  0  0  0  0  0  0  0
   38.1740   31.5300   50.9730 H   0  0  0  0  0  0  0  0  0  0  0  0
   37.8210   34.2730   48.2520 H   0  0  0  0  0  0  0  0  0  0  0  0
   39.5400   34.2890   48.6500 H   0  0  0  0  0  0  0  0  0  0  0  0
   36.8290   31.5900   48.7240 O   0  0  0  0  0  0  0  0  0  0  0  0
   35.8940   29.8790   47.0020 O   0  0  0  0  0  0  0  0  0  0  0  0
   35.9540   30.1760   48.4750 P   0  0  1  0  0  0  0  0  0  0  0  0
   36.7400   28.8700   49.2440 O   0  0  0  0  0  0  0  0  0  0  0  0
   37.3330   28.3730   48.6270 H   0  0  0  0  0  0  0  0  0  0  0  0
   34.3930   30.3270   49.1090 O   0  0  0  0  0  0  0  0  0  0  0  0
   34.1190   29.1830   49.8250 C   0  0  0  0  0  0  0  0  0  0  0  0
   35.0280   28.6260   50.1380 H   0  0  0  0  0  0  0  0  0  0  0  0
   33.6060   29.4700   50.7780 H   0  0  0  0  0  0  0  0  0  0  0  0
   33.2600   28.2210   49.0970 C   0  0  0  0  0  0  0  0  0  0  0  0
   33.8940   27.3350   48.2580 C   0  0  0  0  0  0  0  0  0  0  0  0
   33.1380   26.4040   47.5420 C   0  0  0  0  0  0  0  0  0  0  0  0
   31.7880   26.4320   47.7270 N   0  0  0  0  0  0  0  0  0  0  0  0
   31.1810   27.3130   48.5580 C   0  0  0  0  0  0  0  0  0  0  0  0
   31.9250   28.2130   49.2480 N   0  0  0  0  0  0  0  0  0  0  0  0
   34.9400   27.2390   48.0510 H   0  0  0  0  0  0  0  0  0  0  0  0
   33.5440   25.6680   46.8610 H   0  0  0  0  0  0  0  0  0  0  0  0
   30.0970   27.2970   48.6710 H   0  0  0  0  0  0  0  0  0  0  0  0
   38.0940   32.4190   46.6830 O   0  0  0  0  0  0  0  0  0  0  0  0
   40.5830   31.5350   42.4610 H   0  0  0  0  0  0  0  0  0  0  0  0
   40.0790   31.8580   43.3230 N   0  0  0  0  0  0  0  0  0  0  0  0
   40.7190   31.2710   44.4550 C   0  0  0  0  0  2  0  0  0  0  0  0
   39.8240   31.1090   45.6640 C   0  0  0  0  0  2  0  0  0  0  0  0
   38.7160   32.1330   45.5290 C   0  0  0  0  0  3  0  0  0  0  0  0
   37.8660   31.6930   44.3790 C   0  0  0  0  0  2  0  0  0  0  0  0
   38.6930   31.5020   43.1450 C   0  0  0  0  0  2  0  0  0  0  0  0
  1  6  1  6  0  0  0
  1  5  1  0  0  0  0
  1  2  1  0  0  0  0
  2  7  1  6  0  0  0
  2  3  1  0  0  0  0
  3  8  1  0  0  0  0
  3  9  1  0  0  0  0
  4  3  1  0  0  0  0
  5  4  1  0  0  0  0
 10  5  1  0  0  0  0
 11  5  1  0  0  0  0
 12  2  1  0  0  0  0
 14 13  2  6  0  0  0
 14 12  1  0  0  0  0
 14 17  1  0  0  0  0
 14 15  1  0  0  0  0
 16 15  1  0  0  0  0
 17 18  1  0  0  0  0
 18 19  1  0  0  0  0
 18 20  1  0  0  0  0
 21 26  1  0  0  0  0
 21 18  1  0  0  0  0
 22 21  2  0  0  0  0
 23 24  2  0  0  0  0
 23 22  1  0  0  0  0
 24 25  1  0  0  0  0
 25 29  1  0  0  0  0
 25 26  2  0  0  0  0
 27 22  1  0  0  0  0
 28 23  1  0  0  0  0
 30  1  1  0  0  0  0
 31 32  1  0  0  0  0
 32 33  1  0  0  0  0
 33 34  1  0  0  0  0
 35 34  1  0  0  0  0
 35 30  1  0  0  0  0
 36 35  1  0  0  0  0
 37 32  1  0  0  0  0
 37 36  1  0  0  0  0
M  END
>  <minimizedAffinity>
-4.81264114

>  <minimizedRMSD>
0.277834117

$$$$
