
 OpenBabel03272504223D

 37 39  0  0  1  0  0  0  0  0999 V2000
   38.8700   32.3550   47.8270 C   0  0  2  0  0  0  0  0  0  0  0  0
   38.2030   31.3660   48.7630 C   0  0  1  0  0  0  0  0  0  0  0  0
   38.7190   31.9330   50.0890 C   0  0  0  0  0  0  0  0  0  0  0  0
   38.4220   33.2660   49.9470 O   0  0  0  0  0  0  0  0  0  0  0  0
   38.6720   33.6390   48.6450 C   0  0  0  0  0  0  0  0  0  0  0  0
   39.9450   32.2280   47.7330 H   0  0  0  0  0  0  0  0  0  0  0  0
   38.5240   30.3230   48.6160 H   0  0  0  0  0  0  0  0  0  0  0  0
   39.7910   31.7460   50.1830 H   0  0  0  0  0  0  0  0  0  0  0  0
   38.1270   31.5440   50.9540 H   0  0  0  0  0  0  0  0  0  0  0  0
   37.8630   34.2570   48.1930 H   0  0  0  0  0  0  0  0  0  0  0  0
   39.5710   34.2690   48.6380 H   0  0  0  0  0  0  0  0  0  0  0  0
   36.8450   31.5850   48.6680 O   0  0  0  0  0  0  0  0  0  0  0  0
   35.9070   29.8520   46.9690 O   0  0  0  0  0  0  0  0  0  0  0  0
   35.9670   30.1700   48.4380 P   0  0  1  0  0  0  0  0  0  0  0  0
   36.7490   28.8720   49.2260 O   0  0  0  0  0  0  0  0  0  0  0  0
   37.3410   28.3660   48.6170 H   0  0  0  0  0  0  0  0  0  0  0  0
   34.4050   30.3330   49.0680 O   0  0  0  0  0  0  0  0  0  0  0  0
   34.1280   29.2000   49.8020 C   0  0  0  0  0  0  0  0  0  0  0  0
   35.0360   28.6450   50.1220 H   0  0  0  0  0  0  0  0  0  0  0  0
   33.6160   29.5030   50.7500 H   0  0  0  0  0  0  0  0  0  0  0  0
   33.2670   28.2290   49.0880 C   0  0  0  0  0  0  0  0  0  0  0  0
   33.8980   27.3360   48.2540 C   0  0  0  0  0  0  0  0  0  0  0  0
   33.1400   26.3970   47.5520 C   0  0  0  0  0  0  0  0  0  0  0  0
   31.7900   26.4240   47.7450 N   0  0  0  0  0  0  0  0  0  0  0  0
   31.1870   27.3120   48.5710 C   0  0  0  0  0  0  0  0  0  0  0  0
   31.9330   28.2200   49.2470 N   0  0  0  0  0  0  0  0  0  0  0  0
   34.9430   27.2400   48.0420 H   0  0  0  0  0  0  0  0  0  0  0  0
   33.5430   25.6550   46.8760 H   0  0  0  0  0  0  0  0  0  0  0  0
   30.1040   27.2950   48.6910 H   0  0  0  0  0  0  0  0  0  0  0  0
   38.1680   32.3840   46.6530 O   0  0  0  0  0  0  0  0  0  0  0  0
   40.4500   31.6610   42.2860 H   0  0  0  0  0  0  0  0  0  0  0  0
   39.8530   31.7610   43.1450 N   0  0  0  0  0  0  0  0  0  0  0  0
   39.8690   33.1320   43.5360 C   0  0  0  0  0  2  0  0  0  0  0  0
   39.6110   33.3640   45.0090 C   0  0  0  0  0  2  0  0  0  0  0  0
   38.8370   32.1620   45.5110 C   0  0  0  0  0  3  0  0  0  0  0  0
   39.7820   31.0020   45.4800 C   0  0  0  0  0  2  0  0  0  0  0  0
   40.3790   30.8340   44.1170 C   0  0  0  0  0  2  0  0  0  0  0  0
  1  6  1  6  0  0  0
  1  5  1  0  0  0  0
  1  2  1  0  0  0  0
  2  7  1  6  0  0  0
  2  3  1  0  0  0  0
  3  8  1  0  0  0  0
  3  9  1  0  0  0  0
  4  3  1  0  0  0  0
  5  4  1  0  0  0  0
 10  5  1  0  0  0  0
 11  5  1  0  0  0  0
 12  2  1  0  0  0  0
 14 13  2  6  0  0  0
 14 12  1  0  0  0  0
 14 17  1  0  0  0  0
 14 15  1  0  0  0  0
 16 15  1  0  0  0  0
 17 18  1  0  0  0  0
 18 19  1  0  0  0  0
 18 20  1  0  0  0  0
 21 26  1  0  0  0  0
 21 18  1  0  0  0  0
 22 21  2  0  0  0  0
 23 24  2  0  0  0  0
 23 22  1  0  0  0  0
 24 25  1  0  0  0  0
 25 29  1  0  0  0  0
 25 26  2  0  0  0  0
 27 22  1  0  0  0  0
 28 23  1  0  0  0  0
 30  1  1  0  0  0  0
 31 32  1  0  0  0  0
 32 33  1  0  0  0  0
 32 37  1  0  0  0  0
 33 34  1  0  0  0  0
 34 35  1  0  0  0  0
 35 30  1  0  0  0  0
 36 35  1  0  0  0  0
 37 36  1  0  0  0  0
M  END
>  <minimizedAffinity>
-4.88470697

>  <minimizedRMSD>
0.532007992

$$$$
