
 OpenBabel03272505093D

 27 29  0  0  0  0  0  0  0  0999 V2000
   36.4340   30.7570   46.0190 Cl  0  0  0  0  0  0  0  0  0  0  0  0
   36.7990   30.8190   47.7210 C   0  0  0  0  0  0  0  0  0  0  0  0
   38.0600   31.2480   48.0710 C   0  0  0  0  0  0  0  0  0  0  0  0
   38.3750   31.3070   49.4330 C   0  0  0  0  0  0  0  0  0  0  0  0
   37.4360   30.9430   50.3640 C   0  0  0  0  0  0  0  0  0  0  0  0
   36.1870   30.5200   49.9350 C   0  0  0  0  0  0  0  0  0  0  0  0
   35.8110   30.4380   48.6210 C   0  0  0  0  0  0  0  0  0  0  0  0
   39.3680   31.6460   49.6950 H   0  0  0  0  0  0  0  0  0  0  0  0
   37.6500   30.9770   51.4100 H   0  0  0  0  0  0  0  0  0  0  0  0
   35.4510   30.2330   50.6850 H   0  0  0  0  0  0  0  0  0  0  0  0
   40.2190   33.3580   46.0280 C   0  0  0  0  0  0  0  0  0  0  0  0
   40.8570   32.4510   45.1420 C   0  0  0  0  0  0  0  0  0  0  0  0
   40.5110   31.0950   45.2800 C   0  0  0  0  0  0  0  0  0  0  0  0
   39.6060   30.7430   46.2350 N   0  0  0  0  0  0  0  0  0  0  0  0
   39.0370   31.6330   47.0400 C   0  0  0  0  0  0  0  0  0  0  0  0
   39.3430   32.9390   46.9370 N   0  0  0  0  0  0  0  0  0  0  0  0
   40.5030   34.3890   45.9010 H   0  0  0  0  0  0  0  0  0  0  0  0
   41.5680   32.7150   44.3870 H   0  0  0  0  0  0  0  0  0  0  0  0
   40.9290   30.3330   44.6700 H   0  0  0  0  0  0  0  0  0  0  0  0
   34.2230   29.9040   48.0540 S   0  0  0  0  0  0  0  0  0  0  0  0
   33.3700   24.7700   46.9580 H   0  0  0  0  0  0  0  0  0  0  0  0
   32.9890   25.6960   46.6820 N   0  0  0  0  0  0  0  0  0  0  0  0
   33.8610   26.4860   45.8520 C   0  0  0  0  0  2  0  0  0  0  0  0
   33.6680   27.9850   46.1240 C   0  0  0  0  0  2  0  0  0  0  0  0
   34.1640   28.1950   47.5240 C   0  0  0  0  0  3  0  0  0  0  0  0
   33.2610   27.4200   48.4380 C   0  0  0  0  0  2  0  0  0  0  0  0
   32.3580   26.4430   47.7330 C   0  0  0  0  0  2  0  0  0  0  0  0
  1  2  1  0  0  0  0
  2  3  2  0  0  0  0
  2  7  1  0  0  0  0
  3  4  1  0  0  0  0
  4  8  1  0  0  0  0
  4  5  2  0  0  0  0
  5  9  1  0  0  0  0
  6  5  1  0  0  0  0
  6 10  1  0  0  0  0
  7  6  2  0  0  0  0
 11 16  1  0  0  0  0
 12 13  1  0  0  0  0
 12 11  2  0  0  0  0
 13 14  2  0  0  0  0
 14 15  1  0  0  0  0
 15  3  1  0  0  0  0
 16 15  2  0  0  0  0
 17 11  1  0  0  0  0
 18 12  1  0  0  0  0
 19 13  1  0  0  0  0
 20  7  1  0  0  0  0
 22 21  1  0  0  0  0
 22 27  1  0  0  0  0
 23 24  1  0  0  0  0
 23 22  1  0  0  0  0
 24 25  1  0  0  0  0
 25 20  1  0  0  0  0
 25 26  1  0  0  0  0
 27 26  1  0  0  0  0
M  END
>  <minimizedAffinity>
-5.64534235

>  <minimizedRMSD>
0.799449801

$$$$
