
 OpenBabel03272509183D

 31 33  0  0  0  0  0  0  0  0999 V2000
   37.8240   31.2940   48.0220 C   0  0  0  0  0  0  0  0  0  0  0  0
   37.1390   31.5630   49.2000 C   0  0  0  0  0  0  0  0  0  0  0  0
   37.5080   32.7620   49.8370 C   0  0  0  0  0  0  0  0  0  0  0  0
   38.5010   33.5820   49.2770 C   0  0  0  0  0  0  0  0  0  0  0  0
   39.1240   33.2180   48.0920 C   0  0  0  0  0  0  0  0  0  0  0  0
   38.7820   32.0550   47.4510 C   0  0  0  0  0  0  0  0  0  0  0  0
   36.9750   32.9700   50.7540 H   0  0  0  0  0  0  0  0  0  0  0  0
   38.6740   34.4610   49.8760 H   0  0  0  0  0  0  0  0  0  0  0  0
   39.8390   33.9800   47.8510 H   0  0  0  0  0  0  0  0  0  0  0  0
   34.8560   30.6530   49.1630 C   0  0  0  0  0  0  0  0  0  0  0  0
   36.1280   30.7120   49.7530 C   0  0  0  0  0  0  0  0  0  0  0  0
   36.3550   29.9210   50.8770 C   0  0  0  0  0  0  0  0  0  0  0  0
   35.3310   29.1440   51.3330 N   0  0  0  0  0  0  0  0  0  0  0  0
   34.1230   29.1130   50.7410 C   0  0  0  0  0  0  0  0  0  0  0  0
   33.8840   29.8700   49.6530 N   0  0  0  0  0  0  0  0  0  0  0  0
   34.6010   31.2430   48.2810 H   0  0  0  0  0  0  0  0  0  0  0  0
   33.4620   28.4310   51.2630 H   0  0  0  0  0  0  0  0  0  0  0  0
   37.6690   29.9370   51.5420 C   0  0  0  0  0  0  0  0  0  0  0  0
   38.4420   30.2790   50.8060 H   0  0  0  0  0  0  0  0  0  0  0  0
   37.9770   28.9470   51.9420 H   0  0  0  0  0  0  0  0  0  0  0  0
   37.6410   30.6260   52.4110 H   0  0  0  0  0  0  0  0  0  0  0  0
   37.5070   30.1100   47.3280 O   0  0  0  0  0  0  0  0  0  0  0  0
   36.8030   30.0880   46.6000 H   0  0  0  0  0  0  0  0  0  0  0  0
   39.4150   31.7260   46.2800 O   0  0  0  0  0  0  0  0  0  0  0  0
   39.5840   31.1860   42.2820 H   0  0  0  0  0  0  0  0  0  0  0  0
   39.3490   31.4890   43.2640 N   0  0  0  0  0  0  0  0  0  0  0  0
   39.6670   32.8880   43.3320 C   0  0  0  0  0  2  0  0  0  0  0  0
   39.6970   33.4510   44.7280 C   0  0  0  0  0  2  0  0  0  0  0  0
   40.3980   32.5160   45.7050 C   0  0  0  0  0  3  0  0  0  0  0  0
   41.2130   31.5570   44.8060 C   0  0  0  0  0  2  0  0  0  0  0  0
   40.1640   30.6790   44.1450 C   0  0  0  0  0  2  0  0  0  0  0  0
  1  2  1  0  0  0  0
  2 11  1  0  0  0  0
  2  3  2  0  0  0  0
  3  7  1  0  0  0  0
  4  3  1  0  0  0  0
  4  8  1  0  0  0  0
  5  4  2  0  0  0  0
  6  1  2  0  0  0  0
  6  5  1  0  0  0  0
  9  5  1  0  0  0  0
 10 15  2  0  0  0  0
 10 11  1  0  0  0  0
 11 12  2  0  0  0  0
 12 13  1  0  0  0  0
 12 18  1  0  0  0  0
 14 17  1  0  0  0  0
 14 13  2  0  0  0  0
 15 14  1  0  0  0  0
 16 10  1  0  0  0  0
 18 20  1  0  0  0  0
 18 21  1  0  0  0  0
 19 18  1  0  0  0  0
 22  1  1  0  0  0  0
 23 22  1  0  0  0  0
 24  6  1  0  0  0  0
 25 26  1  0  0  0  0
 26 27  1  0  0  0  0
 26 31  1  0  0  0  0
 27 28  1  0  0  0  0
 28 29  1  0  0  0  0
 29 24  1  0  0  0  0
 30 29  1  0  0  0  0
 31 30  1  0  0  0  0
M  END
>  <minimizedAffinity>
-6.13123798

>  <minimizedRMSD>
1.37056673

$$$$
