
 OpenBabel03272509183D

 31 33  0  0  0  0  0  0  0  0999 V2000
   37.9260   31.2340   47.8200 C   0  0  0  0  0  0  0  0  0  0  0  0
   36.9730   31.2160   48.8320 C   0  0  0  0  0  0  0  0  0  0  0  0
   37.0440   32.2980   49.7280 C   0  0  0  0  0  0  0  0  0  0  0  0
   38.0250   33.2890   49.5630 C   0  0  0  0  0  0  0  0  0  0  0  0
   38.9310   33.2100   48.5150 C   0  0  0  0  0  0  0  0  0  0  0  0
   38.8830   32.1670   47.6270 C   0  0  0  0  0  0  0  0  0  0  0  0
   36.3020   32.2830   50.5140 H   0  0  0  0  0  0  0  0  0  0  0  0
   37.9530   34.0480   50.3230 H   0  0  0  0  0  0  0  0  0  0  0  0
   39.5810   34.0610   48.5800 H   0  0  0  0  0  0  0  0  0  0  0  0
   34.8200   30.2190   48.1910 C   0  0  0  0  0  0  0  0  0  0  0  0
   35.9800   30.1940   48.9800 C   0  0  0  0  0  0  0  0  0  0  0  0
   36.1160   29.1540   49.8950 C   0  0  0  0  0  0  0  0  0  0  0  0
   35.1160   28.2280   49.9670 N   0  0  0  0  0  0  0  0  0  0  0  0
   34.0170   28.2830   49.1930 C   0  0  0  0  0  0  0  0  0  0  0  0
   33.8680   29.2820   48.3020 N   0  0  0  0  0  0  0  0  0  0  0  0
   34.6400   31.0030   47.4520 H   0  0  0  0  0  0  0  0  0  0  0  0
   33.3560   27.4520   49.4130 H   0  0  0  0  0  0  0  0  0  0  0  0
   37.3110   29.0700   50.7520 C   0  0  0  0  0  0  0  0  0  0  0  0
   38.1460   29.6350   50.2630 H   0  0  0  0  0  0  0  0  0  0  0  0
   37.6510   28.0290   50.9410 H   0  0  0  0  0  0  0  0  0  0  0  0
   37.0880   29.5070   51.7480 H   0  0  0  0  0  0  0  0  0  0  0  0
   37.9170   30.1820   46.8840 O   0  0  0  0  0  0  0  0  0  0  0  0
   37.3960   30.2420   46.0170 H   0  0  0  0  0  0  0  0  0  0  0  0
   39.7910   32.1200   46.6000 O   0  0  0  0  0  0  0  0  0  0  0  0
   39.4630   30.0550   43.1460 H   0  0  0  0  0  0  0  0  0  0  0  0
   39.2930   30.5600   44.0560 N   0  0  0  0  0  0  0  0  0  0  0  0
   38.4950   31.7070   43.7260 C   0  0  0  0  0  2  0  0  0  0  0  0
   38.3950   32.7310   44.8270 C   0  0  0  0  0  2  0  0  0  0  0  0
   39.7370   32.9700   45.5070 C   0  0  0  0  0  3  0  0  0  0  0  0
   40.7810   32.4140   44.5100 C   0  0  0  0  0  2  0  0  0  0  0  0
   40.5990   30.9070   44.5780 C   0  0  0  0  0  2  0  0  0  0  0  0
  1  2  1  0  0  0  0
  2 11  1  0  0  0  0
  2  3  2  0  0  0  0
  3  7  1  0  0  0  0
  4  3  1  0  0  0  0
  4  8  1  0  0  0  0
  5  9  1  0  0  0  0
  5  4  2  0  0  0  0
  6  1  2  0  0  0  0
  6  5  1  0  0  0  0
 10 15  2  0  0  0  0
 10 11  1  0  0  0  0
 11 12  2  0  0  0  0
 12 13  1  0  0  0  0
 12 18  1  0  0  0  0
 14 17  1  0  0  0  0
 14 13  2  0  0  0  0
 15 14  1  0  0  0  0
 16 10  1  0  0  0  0
 18 20  1  0  0  0  0
 18 21  1  0  0  0  0
 19 18  1  0  0  0  0
 22  1  1  0  0  0  0
 23 22  1  0  0  0  0
 24  6  1  0  0  0  0
 25 26  1  0  0  0  0
 26 31  1  0  0  0  0
 27 26  1  0  0  0  0
 27 28  1  0  0  0  0
 28 29  1  0  0  0  0
 29 24  1  0  0  0  0
 30 31  1  0  0  0  0
 30 29  1  0  0  0  0
M  END
>  <minimizedAffinity>
-6.4720993

>  <minimizedRMSD>
1.6681695

$$$$
