
 OpenBabel03272504413D

 43 45  0  0  0  0  0  0  0  0999 V2000
   34.6740   29.3860   48.7430 C   0  0  0  0  0  0  0  0  0  0  0  0
   35.5630   29.4270   49.4090 H   0  0  0  0  0  0  0  0  0  0  0  0
   34.0010   30.1880   49.1510 H   0  0  0  0  0  0  0  0  0  0  0  0
   37.4350   30.4460   48.4920 Cl  0  0  0  0  0  0  0  0  0  0  0  0
   36.3110   30.2870   47.1290 C   0  0  0  0  0  0  0  0  0  0  0  0
   36.7150   30.6610   45.8960 C   0  0  0  0  0  0  0  0  0  0  0  0
   35.8570   30.5440   44.8330 C   0  0  0  0  0  0  0  0  0  0  0  0
   34.5880   30.0360   45.0620 C   0  0  0  0  0  0  0  0  0  0  0  0
   34.2340   29.6670   46.3670 C   0  0  0  0  0  0  0  0  0  0  0  0
   35.0680   29.7780   47.4220 C   0  0  0  0  0  0  0  0  0  0  0  0
   36.2020   30.8520   43.8430 H   0  0  0  0  0  0  0  0  0  0  0  0
   33.9800   29.9770   44.1750 H   0  0  0  0  0  0  0  0  0  0  0  0
   33.2520   29.3070   46.3390 H   0  0  0  0  0  0  0  0  0  0  0  0
   39.7150   32.8030   46.0270 C   0  0  0  0  0  0  0  0  0  0  0  0
   40.5950   32.0890   45.1560 C   0  0  0  0  0  0  0  0  0  0  0  0
   40.1210   30.8970   44.5590 C   0  0  0  0  0  0  0  0  0  0  0  0
   38.8570   30.4740   44.8280 N   0  0  0  0  0  0  0  0  0  0  0  0
   38.0500   31.1960   45.6720 C   0  0  0  0  0  0  0  0  0  0  0  0
   38.4810   32.3300   46.2500 N   0  0  0  0  0  0  0  0  0  0  0  0
   40.0380   33.7050   46.4940 H   0  0  0  0  0  0  0  0  0  0  0  0
   41.5840   32.4550   44.9690 H   0  0  0  0  0  0  0  0  0  0  0  0
   41.0160   30.2380   43.7240 N   0  0  0  0  0  0  0  0  0  0  0  0
   41.9560   29.9270   44.0910 H   0  0  0  0  0  0  0  0  0  0  0  0
   40.9630   29.9540   42.7200 H   0  0  0  0  0  0  0  0  0  0  0  0
   34.0320   28.0770   48.9510 C   0  0  0  0  0  0  0  0  0  0  0  0
   34.4970   27.4480   49.7560 H   0  0  0  0  0  0  0  0  0  0  0  0
   34.1370   27.4660   48.0290 H   0  0  0  0  0  0  0  0  0  0  0  0
   32.7090   28.2220   49.2950 O   0  0  0  0  0  0  0  0  0  0  0  0
   32.5160   26.5150   47.2960 O   0  0  0  0  0  0  0  0  0  0  0  0
   31.7220   27.4170   48.1920 P   0  0  2  0  0  0  0  0  0  0  0  0
   30.9290   28.6330   47.2750 O   0  0  0  0  0  0  0  0  0  0  0  0
   28.5310   27.4040   42.9810 H   0  0  0  0  0  0  0  0  0  0  0  0
   28.9040   28.1100   43.6490 N   0  0  0  0  0  0  0  0  0  0  0  0
   30.3320   27.8610   43.7240 C   0  0  0  0  0  0  0  0  0  0  0  0
   30.9380   28.5730   44.9280 C   0  0  0  0  0  0  0  0  0  0  0  0
   30.2520   28.1420   46.1920 C   0  0  0  0  0  0  0  0  0  0  0  0
   28.8280   28.6950   46.0500 C   0  0  0  0  0  0  0  0  0  0  0  0
   28.2100   27.9170   44.8830 C   0  0  0  0  0  0  0  0  0  0  0  0
   30.5270   26.5470   48.9550 O   0  0  0  0  0  0  0  0  0  0  0  0
   29.7790   27.3420   49.7920 C   0  0  0  0  0  0  0  0  0  0  0  0
   29.3330   26.6470   50.9260 F   0  0  0  0  0  0  0  0  0  0  0  0
   30.5360   28.3970   50.2810 F   0  0  0  0  0  0  0  0  0  0  0  0
   28.6800   27.8570   49.1520 F   0  0  0  0  0  0  0  0  0  0  0  0
  1 25  1  0  0  0  0
  1  3  1  0  0  0  0
  1  2  1  0  0  0  0
  5 10  1  0  0  0  0
  5  4  1  0  0  0  0
  6  5  2  0  0  0  0
  7  8  2  0  0  0  0
  7  6  1  0  0  0  0
  8  9  1  0  0  0  0
  9 10  2  0  0  0  0
 10  1  1  0  0  0  0
 11  7  1  0  0  0  0
 12  8  1  0  0  0  0
 13  9  1  0  0  0  0
 14 19  1  0  0  0  0
 14 20  1  0  0  0  0
 15 14  2  0  0  0  0
 16 17  2  0  0  0  0
 16 15  1  0  0  0  0
 17 18  1  0  0  0  0
 18  6  1  0  0  0  0
 18 19  2  0  0  0  0
 21 15  1  0  0  0  0
 22 23  1  0  0  0  0
 22 16  1  0  0  0  0
 24 22  1  0  0  0  0
 25 28  1  0  0  0  0
 25 26  1  0  0  0  0
 27 25  1  0  0  0  0
 30 29  2  6  0  0  0
 30 39  1  0  0  0  0
 30 28  1  0  0  0  0
 31 30  1  0  0  0  0
 32 33  1  0  0  0  0
 33 34  1  0  0  0  0
 33 38  1  0  0  0  0
 34 35  1  0  0  0  0
 35 36  1  0  0  0  0
 36 31  1  0  0  0  0
 37 36  1  0  0  0  0
 38 37  1  0  0  0  0
 39 40  1  0  0  0  0
 40 42  1  0  0  0  0
 40 41  1  0  0  0  0
 43 40  1  0  0  0  0
M  END
>  <minimizedAffinity>
-5.70572233

>  <minimizedRMSD>
0.921227098

$$$$
