
 OpenBabel03272506433D

 30 32  0  0  1  0  0  0  0  0999 V2000
   32.3170   28.3450   47.4470 C   0  0  2  0  0  0  0  0  0  0  0  0
   33.5300   28.3670   48.3550 C   0  0  1  0  0  0  0  0  0  0  0  0
   34.0740   27.1100   48.3550 O   0  0  0  0  0  0  0  0  0  0  0  0
   33.4540   26.3500   47.3800 C   0  0  0  0  0  0  0  0  0  0  0  0
   32.7870   27.3500   46.4230 C   0  0  1  0  0  0  0  0  0  0  0  0
   31.4330   27.9650   47.9630 H   0  0  0  0  0  0  0  0  0  0  0  0
   33.3000   28.7510   49.3520 H   0  0  0  0  0  0  0  0  0  0  0  0
   34.2790   25.8040   46.8400 H   0  0  0  0  0  0  0  0  0  0  0  0
   32.7060   25.6940   47.8290 H   0  0  0  0  0  0  0  0  0  0  0  0
   33.5300   27.7510   45.7260 H   0  0  0  0  0  0  0  0  0  0  0  0
   32.1010   29.6070   46.8770 O   0  0  0  0  0  0  0  0  0  0  0  0
   32.1050   30.3140   47.5570 H   0  0  0  0  0  0  0  0  0  0  0  0
   34.7430   29.4970   47.5820 S   0  0  0  0  0  0  0  0  0  0  0  0
   37.3250   29.3110   50.5980 C   0  0  0  0  0  0  0  0  0  0  0  0
   37.8030   30.6270   50.7270 C   0  0  0  0  0  0  0  0  0  0  0  0
   37.3090   31.6040   49.8500 C   0  0  0  0  0  0  0  0  0  0  0  0
   36.3970   31.2260   48.9260 N   0  0  0  0  0  0  0  0  0  0  0  0
   35.9560   29.9560   48.8260 C   0  0  0  0  0  0  0  0  0  0  0  0
   36.4080   28.9930   49.6500 N   0  0  0  0  0  0  0  0  0  0  0  0
   37.6890   28.5370   51.2610 H   0  0  0  0  0  0  0  0  0  0  0  0
   38.5340   30.8880   51.4790 H   0  0  0  0  0  0  0  0  0  0  0  0
   37.6450   32.6380   49.9040 H   0  0  0  0  0  0  0  0  0  0  0  0
   31.7520   26.7340   45.7420 O   0  0  0  0  0  0  0  0  0  0  0  0
   31.5210   26.6140   41.6060 H   0  0  0  0  0  0  0  0  0  0  0  0
   32.5130   26.7440   41.8540 N   0  0  0  0  0  0  0  0  0  0  0  0
   33.0170   25.5750   42.5210 C   0  0  0  0  0  2  0  0  0  0  0  0
   32.3610   25.3390   43.8830 C   0  0  0  0  0  2  0  0  0  0  0  0
   31.9430   26.7130   44.3700 C   0  0  0  0  0  3  0  0  0  0  0  0
   33.0600   27.6690   43.9660 C   0  0  0  0  0  2  0  0  0  0  0  0
   32.8390   27.9860   42.4950 C   0  0  0  0  0  2  0  0  0  0  0  0
  1  6  1  1  0  0  0
  1  2  1  0  0  0  0
  2  3  1  0  0  0  0
  2  7  1  1  0  0  0
  4  9  1  0  0  0  0
  4  3  1  0  0  0  0
  5 10  1  6  0  0  0
  5  4  1  0  0  0  0
  5  1  1  0  0  0  0
  8  4  1  0  0  0  0
 11  1  1  0  0  0  0
 11 12  1  0  0  0  0
 13  2  1  0  0  0  0
 13 18  1  0  0  0  0
 14 15  1  0  0  0  0
 14 20  1  0  0  0  0
 15 21  1  0  0  0  0
 16 22  1  0  0  0  0
 16 15  2  0  0  0  0
 17 16  1  0  0  0  0
 18 17  2  0  0  0  0
 18 19  1  0  0  0  0
 19 14  2  0  0  0  0
 23  5  1  0  0  0  0
 24 25  1  0  0  0  0
 25 30  1  0  0  0  0
 25 26  1  0  0  0  0
 26 27  1  0  0  0  0
 27 28  1  0  0  0  0
 28 23  1  0  0  0  0
 29 28  1  0  0  0  0
 30 29  1  0  0  0  0
M  END
>  <minimizedAffinity>
-3.73007202

>  <minimizedRMSD>
0.382661581

$$$$
