
 OpenBabel03272508273D

 36 39  0  0  1  0  0  0  0  0999 V2000
   33.8540   28.8840   47.2570 C   0  0  2  0  0  0  0  0  0  0  0  0
   34.5710   28.1300   48.3690 C   0  0  2  0  0  0  0  0  0  0  0  0
   33.6460   27.9890   49.3680 O   0  0  0  0  0  0  0  0  0  0  0  0
   32.3870   28.0400   48.8670 C   0  0  0  0  0  0  0  0  0  0  0  0
   32.4770   28.2190   47.3640 C   0  0  1  0  0  0  0  0  0  0  0  0
   33.7090   29.9480   47.4890 H   0  0  0  0  0  0  0  0  0  0  0  0
   34.8580   27.1470   47.9790 H   0  0  0  0  0  0  0  0  0  0  0  0
   31.8650   27.0750   49.0460 H   0  0  0  0  0  0  0  0  0  0  0  0
   31.7400   28.8260   49.3150 H   0  0  0  0  0  0  0  0  0  0  0  0
   32.5930   27.2210   46.9170 H   0  0  0  0  0  0  0  0  0  0  0  0
   35.6340   30.3940   49.0400 C   0  0  1  0  0  0  0  0  0  0  0  0
   35.7290   28.9730   48.7960 C   0  0  1  0  0  0  0  0  0  0  0  0
   35.8900   29.4290   50.2090 C   0  0  0  0  0  0  0  0  0  0  0  0
   34.7230   30.9860   49.2580 H   0  0  0  0  0  0  0  0  0  0  0  0
   36.6950   28.6310   48.3230 H   0  0  0  0  0  0  0  0  0  0  0  0
   36.8850   29.4300   50.6830 H   0  0  0  0  0  0  0  0  0  0  0  0
   35.0630   29.1670   50.8820 H   0  0  0  0  0  0  0  0  0  0  0  0
   36.8180   31.3150   48.7970 C   0  0  0  0  0  0  0  0  0  0  0  0
   37.0560   32.3130   49.7420 C   0  0  0  0  0  0  0  0  0  0  0  0
   38.1330   33.1420   49.4530 C   0  0  0  0  0  0  0  0  0  0  0  0
   38.8810   32.9660   48.3200 N   0  0  0  0  0  0  0  0  0  0  0  0
   38.6110   31.9800   47.4310 C   0  0  0  0  0  0  0  0  0  0  0  0
   37.5630   31.1430   47.6750 N   0  0  0  0  0  0  0  0  0  0  0  0
   36.4570   32.4300   50.6180 H   0  0  0  0  0  0  0  0  0  0  0  0
   38.3900   33.9510   50.1390 H   0  0  0  0  0  0  0  0  0  0  0  0
   39.1930   31.8300   46.5340 H   0  0  0  0  0  0  0  0  0  0  0  0
   34.4130   28.6840   46.0080 O   0  0  0  0  0  0  0  0  0  0  0  0
   34.2320   29.4870   45.4660 H   0  0  0  0  0  0  0  0  0  0  0  0
   31.4980   28.9920   46.8130 O   0  0  0  0  0  0  0  0  0  0  0  0
   30.2160   29.8350   43.1160 H   0  0  0  0  0  0  0  0  0  0  0  0
   29.8280   29.3880   43.9910 N   0  0  0  0  0  0  0  0  0  0  0  0
   29.9970   30.2590   45.1240 C   0  0  0  0  0  2  0  0  0  0  0  0
   29.3180   29.5820   46.3180 C   0  0  0  0  0  2  0  0  0  0  0  0
   30.2660   28.4210   46.6560 C   0  0  0  0  0  3  0  0  0  0  0  0
   30.1680   27.4970   45.4680 C   0  0  0  0  0  2  0  0  0  0  0  0
   30.6020   28.1890   44.1950 C   0  0  0  0  0  2  0  0  0  0  0  0
  1  5  1  0  0  0  0
  1  6  1  1  0  0  0
  1  2  1  0  0  0  0
  2  7  1  6  0  0  0
  2 12  1  0  0  0  0
  2  3  1  0  0  0  0
  4  8  1  0  0  0  0
  4  9  1  0  0  0  0
  4  3  1  0  0  0  0
  5 10  1  6  0  0  0
  5  4  1  0  0  0  0
 11 14  1  6  0  0  0
 11 13  1  0  0  0  0
 12 15  1  6  0  0  0
 12 11  1  0  0  0  0
 12 13  1  0  0  0  0
 13 16  1  0  0  0  0
 13 17  1  0  0  0  0
 18 11  1  0  0  0  0
 18 19  1  0  0  0  0
 19 24  1  0  0  0  0
 20 19  2  0  0  0  0
 20 25  1  0  0  0  0
 21 20  1  0  0  0  0
 22 23  1  0  0  0  0
 22 21  2  0  0  0  0
 23 18  2  0  0  0  0
 26 22  1  0  0  0  0
 27  1  1  0  0  0  0
 28 27  1  0  0  0  0
 29  5  1  0  0  0  0
 30 31  1  0  0  0  0
 31 36  1  0  0  0  0
 31 32  1  0  0  0  0
 32 33  1  0  0  0  0
 33 34  1  0  0  0  0
 34 29  1  0  0  0  0
 35 34  1  0  0  0  0
 36 35  1  0  0  0  0
M  END
>  <minimizedAffinity>
-4.98892927

>  <minimizedRMSD>
1.29711664

$$$$
