
 OpenBabel03272508273D

 36 39  0  0  1  0  0  0  0  0999 V2000
   33.8060   28.8270   47.2460 C   0  0  2  0  0  0  0  0  0  0  0  0
   34.4870   28.1000   48.3970 C   0  0  2  0  0  0  0  0  0  0  0  0
   33.5300   27.9740   49.3670 O   0  0  0  0  0  0  0  0  0  0  0  0
   32.2890   28.0090   48.8230 C   0  0  0  0  0  0  0  0  0  0  0  0
   32.4280   28.1580   47.3220 C   0  0  1  0  0  0  0  0  0  0  0  0
   33.6490   29.8950   47.4520 H   0  0  0  0  0  0  0  0  0  0  0  0
   34.7910   27.1100   48.0380 H   0  0  0  0  0  0  0  0  0  0  0  0
   31.7650   27.0460   49.0050 H   0  0  0  0  0  0  0  0  0  0  0  0
   31.6230   28.8010   49.2340 H   0  0  0  0  0  0  0  0  0  0  0  0
   32.5630   27.1520   46.8990 H   0  0  0  0  0  0  0  0  0  0  0  0
   35.5420   30.3920   48.9760 C   0  0  1  0  0  0  0  0  0  0  0  0
   35.6280   28.9560   48.8450 C   0  0  1  0  0  0  0  0  0  0  0  0
   35.6940   29.5150   50.2280 C   0  0  0  0  0  0  0  0  0  0  0  0
   34.6290   31.0120   49.0820 H   0  0  0  0  0  0  0  0  0  0  0  0
   36.6180   28.5670   48.4710 H   0  0  0  0  0  0  0  0  0  0  0  0
   36.6510   29.5370   50.7730 H   0  0  0  0  0  0  0  0  0  0  0  0
   34.8150   29.3140   50.8560 H   0  0  0  0  0  0  0  0  0  0  0  0
   36.7570   31.2770   48.7540 C   0  0  0  0  0  0  0  0  0  0  0  0
   37.0210   32.2540   49.7150 C   0  0  0  0  0  0  0  0  0  0  0  0
   38.1280   33.0500   49.4450 C   0  0  0  0  0  0  0  0  0  0  0  0
   38.8780   32.8640   48.3140 N   0  0  0  0  0  0  0  0  0  0  0  0
   38.5810   31.9010   47.4090 C   0  0  0  0  0  0  0  0  0  0  0  0
   37.5040   31.0950   47.6350 N   0  0  0  0  0  0  0  0  0  0  0  0
   36.4210   32.3780   50.5880 H   0  0  0  0  0  0  0  0  0  0  0  0
   38.4070   33.8400   50.1440 H   0  0  0  0  0  0  0  0  0  0  0  0
   39.1640   31.7430   46.5140 H   0  0  0  0  0  0  0  0  0  0  0  0
   34.4060   28.6040   46.0220 O   0  0  0  0  0  0  0  0  0  0  0  0
   34.2400   29.3950   45.4570 H   0  0  0  0  0  0  0  0  0  0  0  0
   31.4650   28.9150   46.7220 O   0  0  0  0  0  0  0  0  0  0  0  0
   28.0170   30.9280   46.4510 H   0  0  0  0  0  0  0  0  0  0  0  0
   28.4300   30.0370   46.0620 N   0  0  0  0  0  0  0  0  0  0  0  0
   28.9210   29.2000   47.1230 C   0  0  0  0  0  2  0  0  0  0  0  0
   29.4040   27.8950   46.4820 C   0  0  0  0  0  2  0  0  0  0  0  0
   30.6990   28.3080   45.7660 C   0  0  0  0  0  3  0  0  0  0  0  0
   30.2440   29.2370   44.6680 C   0  0  0  0  0  2  0  0  0  0  0  0
   29.5350   30.4480   45.2310 C   0  0  0  0  0  2  0  0  0  0  0  0
  1  5  1  0  0  0  0
  1  6  1  1  0  0  0
  1  2  1  0  0  0  0
  2  7  1  6  0  0  0
  2 12  1  0  0  0  0
  2  3  1  0  0  0  0
  4  8  1  0  0  0  0
  4  9  1  0  0  0  0
  4  3  1  0  0  0  0
  5 10  1  6  0  0  0
  5  4  1  0  0  0  0
 11 14  1  6  0  0  0
 11 13  1  0  0  0  0
 12 15  1  6  0  0  0
 12 11  1  0  0  0  0
 12 13  1  0  0  0  0
 13 16  1  0  0  0  0
 13 17  1  0  0  0  0
 18 11  1  0  0  0  0
 18 19  1  0  0  0  0
 19 24  1  0  0  0  0
 20 19  2  0  0  0  0
 20 25  1  0  0  0  0
 21 20  1  0  0  0  0
 22 23  1  0  0  0  0
 22 21  2  0  0  0  0
 23 18  2  0  0  0  0
 26 22  1  0  0  0  0
 27  1  1  0  0  0  0
 28 27  1  0  0  0  0
 29  5  1  0  0  0  0
 31 30  1  0  0  0  0
 31 32  1  0  0  0  0
 33 32  1  0  0  0  0
 34 33  1  0  0  0  0
 34 29  1  0  0  0  0
 35 36  1  0  0  0  0
 35 34  1  0  0  0  0
 36 31  1  0  0  0  0
M  END
>  <minimizedAffinity>
-5.11220312

>  <minimizedRMSD>
1.47413731

$$$$
