
 OpenBabel03262522153D

 43 46  0  0  1  0  0  0  0  0999 V2000
   39.4560   33.1330   43.9410 C   0  0  0  0  0  0  0  0  0  0  0  0
   38.4140   32.9160   44.2010 H   0  0  0  0  0  0  0  0  0  0  0  0
   39.4230   34.0580   43.3040 H   0  0  0  0  0  0  0  0  0  0  0  0
   38.9690   29.9100   42.5820 C   0  0  1  0  0  0  0  0  0  0  0  0
   38.8260   31.3820   42.2860 C   0  0  0  0  0  0  0  0  0  0  0  0
   39.9450   31.9490   43.1300 C   0  0  2  0  0  0  0  0  0  0  0  0
   40.4450   30.9580   43.9170 O   0  0  0  0  0  0  0  0  0  0  0  0
   39.5000   29.9520   44.0080 C   0  0  0  0  0  0  0  0  0  0  0  0
   39.7680   29.4440   41.9850 H   0  0  0  0  0  0  0  0  0  0  0  0
   37.8390   31.7800   42.5080 H   0  0  0  0  0  0  0  0  0  0  0  0
   39.1200   31.5180   41.2110 H   0  0  0  0  0  0  0  0  0  0  0  0
   40.7760   32.3470   42.4960 H   0  0  0  0  0  0  0  0  0  0  0  0
   39.9040   28.9750   44.2720 H   0  0  0  0  0  0  0  0  0  0  0  0
   38.6880   30.1820   44.7160 H   0  0  0  0  0  0  0  0  0  0  0  0
   37.7710   29.2280   42.5100 O   0  0  0  0  0  0  0  0  0  0  0  0
   39.0970   25.8980   40.2750 H   0  0  0  0  0  0  0  0  0  0  0  0
   39.7070   26.0120   41.1150 N   0  0  0  0  0  0  0  0  0  0  0  0
   40.1930   27.3770   41.1380 C   0  0  0  0  0  0  0  0  0  0  0  0
   38.9710   28.2350   40.7940 C   0  0  0  0  0  0  0  0  0  0  0  0
   37.8770   28.0220   41.8190 C   0  0  0  0  0  0  0  0  0  0  0  0
   38.1560   26.9430   42.8050 C   0  0  0  0  0  0  0  0  0  0  0  0
   38.9320   25.7720   42.2890 C   0  0  0  0  0  0  0  0  0  0  0  0
   40.5480   33.3110   45.3680 S   0  0  0  0  0  0  0  0  0  0  0  0
   37.7620   31.8200   47.7810 C   0  0  0  0  0  0  0  0  0  0  0  0
   37.9330   32.5520   48.9700 C   0  0  0  0  0  0  0  0  0  0  0  0
   38.8990   33.5240   49.0840 C   0  0  0  0  0  0  0  0  0  0  0  0
   39.6840   33.7370   47.9730 C   0  0  0  0  0  0  0  0  0  0  0  0
   39.5060   33.0250   46.8360 C   0  0  0  0  0  0  0  0  0  0  0  0
   38.5520   32.0590   46.7120 N   0  0  0  0  0  0  0  0  0  0  0  0
   37.2800   32.3420   49.8260 H   0  0  0  0  0  0  0  0  0  0  0  0
   38.9990   34.0620   50.0090 H   0  0  0  0  0  0  0  0  0  0  0  0
   40.4510   34.4990   48.0410 H   0  0  0  0  0  0  0  0  0  0  0  0
   36.7320   30.8200   47.7360 C   0  0  0  0  0  0  0  0  0  0  0  0
   36.2980   30.3980   46.6680 O   0  0  0  0  0  0  0  0  0  0  0  0
   37.0060   29.6250   49.8850 C   0  0  0  0  0  0  0  0  0  0  0  0
   36.1460   30.2500   48.9600 C   0  0  0  0  0  0  0  0  0  0  0  0
   34.7770   30.3050   49.2370 C   0  0  0  0  0  0  0  0  0  0  0  0
   34.3180   29.7520   50.3970 N   0  0  0  0  0  0  0  0  0  0  0  0
   35.1640   29.1580   51.2680 C   0  0  0  0  0  0  0  0  0  0  0  0
   36.4690   29.1010   51.0090 N   0  0  0  0  0  0  0  0  0  0  0  0
   38.0580   29.5830   49.6700 H   0  0  0  0  0  0  0  0  0  0  0  0
   34.1180   30.7920   48.5160 H   0  0  0  0  0  0  0  0  0  0  0  0
   34.6720   28.7600   52.1460 H   0  0  0  0  0  0  0  0  0  0  0  0
  1  2  1  0  0  0  0
  1 23  1  0  0  0  0
  3  1  1  0  0  0  0
  4  9  1  6  0  0  0
  4  8  1  0  0  0  0
  5 10  1  0  0  0  0
  5  4  1  0  0  0  0
  5  6  1  0  0  0  0
  6 12  1  6  0  0  0
  6  7  1  0  0  0  0
  6  1  1  0  0  0  0
  7  8  1  0  0  0  0
  8 13  1  0  0  0  0
  8 14  1  0  0  0  0
 11  5  1  0  0  0  0
 15  4  1  0  0  0  0
 16 17  1  0  0  0  0
 17 18  1  0  0  0  0
 17 22  1  0  0  0  0
 19 18  1  0  0  0  0
 19 20  1  0  0  0  0
 20 15  1  0  0  0  0
 20 21  1  0  0  0  0
 22 21  1  0  0  0  0
 23 28  1  0  0  0  0
 24 25  1  0  0  0  0
 25 26  2  0  0  0  0
 25 30  1  0  0  0  0
 26 31  1  0  0  0  0
 27 32  1  0  0  0  0
 27 26  1  0  0  0  0
 28 27  2  0  0  0  0
 29 28  1  0  0  0  0
 29 24  2  0  0  0  0
 33 24  1  0  0  0  0
 33 36  1  0  0  0  0
 34 33  2  0  0  0  0
 35 40  1  0  0  0  0
 36 37  1  0  0  0  0
 36 35  2  0  0  0  0
 37 38  2  0  0  0  0
 38 39  1  0  0  0  0
 39 43  1  0  0  0  0
 40 39  2  0  0  0  0
 41 35  1  0  0  0  0
 42 37  1  0  0  0  0
M  END
>  <minimizedAffinity>
-5.58692503

>  <minimizedRMSD>
0.526505768

$$$$
