
 OpenBabel03272508273D

 36 39  0  0  1  0  0  0  0  0999 V2000
   33.9390   28.9360   47.3240 C   0  0  2  0  0  0  0  0  0  0  0  0
   34.6780   28.1910   48.4280 C   0  0  2  0  0  0  0  0  0  0  0  0
   33.7580   28.0060   49.4230 O   0  0  0  0  0  0  0  0  0  0  0  0
   32.4990   28.0240   48.9210 C   0  0  0  0  0  0  0  0  0  0  0  0
   32.5840   28.2270   47.4220 C   0  0  1  0  0  0  0  0  0  0  0  0
   33.7600   29.9920   47.5710 H   0  0  0  0  0  0  0  0  0  0  0  0
   34.9970   27.2220   48.0250 H   0  0  0  0  0  0  0  0  0  0  0  0
   32.0080   27.0410   49.0870 H   0  0  0  0  0  0  0  0  0  0  0  0
   31.8260   28.7830   49.3790 H   0  0  0  0  0  0  0  0  0  0  0  0
   32.7320   27.2390   46.9610 H   0  0  0  0  0  0  0  0  0  0  0  0
   35.7050   30.4990   48.9930 C   0  0  1  0  0  0  0  0  0  0  0  0
   35.8100   29.0640   48.8670 C   0  0  1  0  0  0  0  0  0  0  0  0
   35.8740   29.6290   50.2480 C   0  0  0  0  0  0  0  0  0  0  0  0
   34.7850   31.1070   49.1000 H   0  0  0  0  0  0  0  0  0  0  0  0
   36.8030   28.6860   48.4900 H   0  0  0  0  0  0  0  0  0  0  0  0
   36.8340   29.6660   50.7890 H   0  0  0  0  0  0  0  0  0  0  0  0
   35.0010   29.4190   50.8800 H   0  0  0  0  0  0  0  0  0  0  0  0
   36.9080   31.3990   48.7620 C   0  0  0  0  0  0  0  0  0  0  0  0
   37.1330   32.4160   49.6900 C   0  0  0  0  0  0  0  0  0  0  0  0
   38.2300   33.2240   49.4120 C   0  0  0  0  0  0  0  0  0  0  0  0
   39.0070   33.0110   48.3050 N   0  0  0  0  0  0  0  0  0  0  0  0
   38.7470   32.0080   47.4320 C   0  0  0  0  0  0  0  0  0  0  0  0
   37.6820   31.1900   47.6660 N   0  0  0  0  0  0  0  0  0  0  0  0
   36.5120   32.5610   50.5460 H   0  0  0  0  0  0  0  0  0  0  0  0
   38.4780   34.0450   50.0860 H   0  0  0  0  0  0  0  0  0  0  0  0
   39.3520   31.8290   46.5560 H   0  0  0  0  0  0  0  0  0  0  0  0
   34.5050   28.7710   46.0740 O   0  0  0  0  0  0  0  0  0  0  0  0
   34.2990   29.5760   45.5430 H   0  0  0  0  0  0  0  0  0  0  0  0
   31.5810   28.9750   46.8800 O   0  0  0  0  0  0  0  0  0  0  0  0
   30.1700   29.8100   43.2290 H   0  0  0  0  0  0  0  0  0  0  0  0
   29.8170   29.3520   44.1130 N   0  0  0  0  0  0  0  0  0  0  0  0
   30.0060   30.2220   45.2440 C   0  0  0  0  0  2  0  0  0  0  0  0
   29.3770   29.5290   46.4560 C   0  0  0  0  0  2  0  0  0  0  0  0
   30.3550   28.3830   46.7590 C   0  0  0  0  0  3  0  0  0  0  0  0
   30.2360   27.4620   45.5700 C   0  0  0  0  0  2  0  0  0  0  0  0
   30.6190   28.1670   44.2870 C   0  0  0  0  0  2  0  0  0  0  0  0
  1  5  1  0  0  0  0
  1  6  1  1  0  0  0
  1  2  1  0  0  0  0
  2  7  1  6  0  0  0
  2 12  1  0  0  0  0
  2  3  1  0  0  0  0
  4  8  1  0  0  0  0
  4  9  1  0  0  0  0
  4  3  1  0  0  0  0
  5 10  1  6  0  0  0
  5  4  1  0  0  0  0
 11 14  1  6  0  0  0
 11 13  1  0  0  0  0
 12 15  1  6  0  0  0
 12 11  1  0  0  0  0
 12 13  1  0  0  0  0
 13 16  1  0  0  0  0
 13 17  1  0  0  0  0
 18 11  1  0  0  0  0
 18 19  1  0  0  0  0
 19 24  1  0  0  0  0
 20 19  2  0  0  0  0
 20 25  1  0  0  0  0
 21 20  1  0  0  0  0
 22 23  1  0  0  0  0
 22 21  2  0  0  0  0
 23 18  2  0  0  0  0
 26 22  1  0  0  0  0
 27  1  1  0  0  0  0
 28 27  1  0  0  0  0
 29  5  1  0  0  0  0
 30 31  1  0  0  0  0
 31 36  1  0  0  0  0
 31 32  1  0  0  0  0
 32 33  1  0  0  0  0
 33 34  1  0  0  0  0
 34 29  1  0  0  0  0
 35 34  1  0  0  0  0
 36 35  1  0  0  0  0
M  END
>  <minimizedAffinity>
-5.01771736

>  <minimizedRMSD>
1.06164885

$$$$
