
 OpenBabel03272507163D

 24 26  0  0  1  0  0  0  0  0999 V2000
   38.2480   32.0540   49.5040 C   0  0  1  0  0  0  0  0  0  0  0  0
   36.9930   31.5180   49.9770 C   0  0  2  0  0  0  0  0  0  0  0  0
   38.2480   30.7090   50.2440 C   0  0  0  0  0  0  0  0  0  0  0  0
   38.7460   32.8910   50.0380 H   0  0  0  0  0  0  0  0  0  0  0  0
   36.5040   31.9640   50.8420 H   0  0  0  0  0  0  0  0  0  0  0  0
   38.3860   29.7910   49.6650 H   0  0  0  0  0  0  0  0  0  0  0  0
   38.6840   30.7490   51.2620 H   0  0  0  0  0  0  0  0  0  0  0  0
   38.6750   31.9090   48.0580 C   0  0  0  0  0  0  0  0  0  0  0  0
   39.3200   33.0060   47.4850 C   0  0  0  0  0  0  0  0  0  0  0  0
   39.6750   32.8540   46.1580 C   0  0  0  0  0  0  0  0  0  0  0  0
   39.3930   31.6910   45.4890 N   0  0  0  0  0  0  0  0  0  0  0  0
   38.7670   30.6520   46.0820 C   0  0  0  0  0  0  0  0  0  0  0  0
   38.3990   30.7570   47.3920 N   0  0  0  0  0  0  0  0  0  0  0  0
   39.5030   33.8850   48.0810 H   0  0  0  0  0  0  0  0  0  0  0  0
   40.1770   33.6850   45.6780 H   0  0  0  0  0  0  0  0  0  0  0  0
   38.5780   29.7660   45.4940 H   0  0  0  0  0  0  0  0  0  0  0  0
   36.1040   30.9360   49.0580 O   0  0  0  0  0  0  0  0  0  0  0  0
   32.8220   27.9100   50.2550 H   0  0  0  0  0  0  0  0  0  0  0  0
   33.1220   28.5850   49.5030 N   0  0  0  0  0  0  0  0  0  0  0  0
   33.6860   29.7290   50.1800 C   0  0  0  0  0  2  0  0  0  0  0  0
   35.1160   29.4230   50.5410 C   0  0  0  0  0  2  0  0  0  0  0  0
   35.9470   29.5840   49.2670 C   0  0  0  0  0  3  0  0  0  0  0  0
   35.1010   29.0230   48.1430 C   0  0  0  0  0  2  0  0  0  0  0  0
   34.1480   27.9740   48.7140 C   0  0  0  0  0  2  0  0  0  0  0  0
  1  2  1  0  0  0  0
  1  4  1  1  0  0  0
  1  3  1  0  0  0  0
  2  3  1  0  0  0  0
  2  5  1  1  0  0  0
  3  7  1  0  0  0  0
  6  3  1  0  0  0  0
  8  1  1  0  0  0  0
  9  8  1  0  0  0  0
  9 14  1  0  0  0  0
 10  9  2  0  0  0  0
 11 12  2  0  0  0  0
 11 10  1  0  0  0  0
 12 13  1  0  0  0  0
 13  8  2  0  0  0  0
 15 10  1  0  0  0  0
 16 12  1  0  0  0  0
 17 22  1  0  0  0  0
 17  2  1  0  0  0  0
 19 20  1  0  0  0  0
 19 18  1  0  0  0  0
 20 21  1  0  0  0  0
 22 21  1  0  0  0  0
 23 24  1  0  0  0  0
 23 22  1  0  0  0  0
 24 19  1  0  0  0  0
M  END
>  <minimizedAffinity>
-5.20826292

>  <minimizedRMSD>
1.77850091

$$$$
