
 OpenBabel03272509183D

 31 33  0  0  0  0  0  0  0  0999 V2000
   37.6950   31.3820   48.0980 C   0  0  0  0  0  0  0  0  0  0  0  0
   37.0440   31.5920   49.3070 C   0  0  0  0  0  0  0  0  0  0  0  0
   37.4260   32.7640   49.9860 C   0  0  0  0  0  0  0  0  0  0  0  0
   38.3990   33.6150   49.4360 C   0  0  0  0  0  0  0  0  0  0  0  0
   38.9880   33.3080   48.2170 C   0  0  0  0  0  0  0  0  0  0  0  0
   38.6320   32.1740   47.5350 C   0  0  0  0  0  0  0  0  0  0  0  0
   36.9200   32.9270   50.9270 H   0  0  0  0  0  0  0  0  0  0  0  0
   38.5850   34.4660   50.0680 H   0  0  0  0  0  0  0  0  0  0  0  0
   39.6910   34.0840   47.9900 H   0  0  0  0  0  0  0  0  0  0  0  0
   34.7680   30.6670   49.2910 C   0  0  0  0  0  0  0  0  0  0  0  0
   36.0530   30.7110   49.8500 C   0  0  0  0  0  0  0  0  0  0  0  0
   36.3150   29.8780   50.9340 C   0  0  0  0  0  0  0  0  0  0  0  0
   35.3090   29.0740   51.3840 N   0  0  0  0  0  0  0  0  0  0  0  0
   34.0860   29.0570   50.8220 C   0  0  0  0  0  0  0  0  0  0  0  0
   33.8140   29.8560   49.7720 N   0  0  0  0  0  0  0  0  0  0  0  0
   34.4850   31.2900   48.4400 H   0  0  0  0  0  0  0  0  0  0  0  0
   33.4440   28.3490   51.3330 H   0  0  0  0  0  0  0  0  0  0  0  0
   37.6460   29.8770   51.5660 C   0  0  0  0  0  0  0  0  0  0  0  0
   38.3970   30.2550   50.8250 H   0  0  0  0  0  0  0  0  0  0  0  0
   37.9710   28.8740   51.9170 H   0  0  0  0  0  0  0  0  0  0  0  0
   37.6350   30.5300   52.4630 H   0  0  0  0  0  0  0  0  0  0  0  0
   37.3630   30.2290   47.3610 O   0  0  0  0  0  0  0  0  0  0  0  0
   36.6380   30.2360   46.6530 H   0  0  0  0  0  0  0  0  0  0  0  0
   39.2310   31.9010   46.3310 O   0  0  0  0  0  0  0  0  0  0  0  0
   41.4640   30.3830   43.3290 H   0  0  0  0  0  0  0  0  0  0  0  0
   40.6840   30.6990   43.9650 N   0  0  0  0  0  0  0  0  0  0  0  0
   39.9810   31.7240   43.2460 C   0  0  0  0  0  2  0  0  0  0  0  0
   39.0220   32.5270   44.0880 C   0  0  0  0  0  2  0  0  0  0  0  0
   39.6210   32.8900   45.4420 C   0  0  0  0  0  3  0  0  0  0  0  0
   41.1430   32.6930   45.2580 C   0  0  0  0  0  2  0  0  0  0  0  0
   41.3200   31.1870   45.1730 C   0  0  0  0  0  2  0  0  0  0  0  0
  1  2  1  0  0  0  0
  2 11  1  0  0  0  0
  2  3  2  0  0  0  0
  3  7  1  0  0  0  0
  4  3  1  0  0  0  0
  4  8  1  0  0  0  0
  5  4  2  0  0  0  0
  6  1  2  0  0  0  0
  6  5  1  0  0  0  0
  9  5  1  0  0  0  0
 10 15  2  0  0  0  0
 10 11  1  0  0  0  0
 11 12  2  0  0  0  0
 12 13  1  0  0  0  0
 12 18  1  0  0  0  0
 14 17  1  0  0  0  0
 14 13  2  0  0  0  0
 15 14  1  0  0  0  0
 16 10  1  0  0  0  0
 18 20  1  0  0  0  0
 18 21  1  0  0  0  0
 19 18  1  0  0  0  0
 22  1  1  0  0  0  0
 23 22  1  0  0  0  0
 24  6  1  0  0  0  0
 25 26  1  0  0  0  0
 26 31  1  0  0  0  0
 27 26  1  0  0  0  0
 27 28  1  0  0  0  0
 28 29  1  0  0  0  0
 29 24  1  0  0  0  0
 30 29  1  0  0  0  0
 31 30  1  0  0  0  0
M  END
>  <minimizedAffinity>
-6.07810211

>  <minimizedRMSD>
1.59973943

$$$$
