
 OpenBabel03272507163D

 24 26  0  0  1  0  0  0  0  0999 V2000
   37.6150   31.5160   50.0810 C   0  0  1  0  0  0  0  0  0  0  0  0
   36.7980   30.4460   50.6030 C   0  0  2  0  0  0  0  0  0  0  0  0
   38.2820   30.4110   50.9130 C   0  0  0  0  0  0  0  0  0  0  0  0
   37.6020   32.5230   50.5500 H   0  0  0  0  0  0  0  0  0  0  0  0
   36.1270   30.6350   51.4390 H   0  0  0  0  0  0  0  0  0  0  0  0
   38.8850   29.6570   50.3990 H   0  0  0  0  0  0  0  0  0  0  0  0
   38.6090   30.7350   51.9210 H   0  0  0  0  0  0  0  0  0  0  0  0
   38.0970   31.5160   48.6440 C   0  0  0  0  0  0  0  0  0  0  0  0
   38.8280   32.6300   48.2310 C   0  0  0  0  0  0  0  0  0  0  0  0
   39.2310   32.6130   46.9090 C   0  0  0  0  0  0  0  0  0  0  0  0
   38.9110   31.5570   46.0950 N   0  0  0  0  0  0  0  0  0  0  0  0
   38.2000   30.4970   46.5360 C   0  0  0  0  0  0  0  0  0  0  0  0
   37.7830   30.4690   47.8350 N   0  0  0  0  0  0  0  0  0  0  0  0
   39.0360   33.4190   48.9340 H   0  0  0  0  0  0  0  0  0  0  0  0
   39.8010   33.4620   46.5510 H   0  0  0  0  0  0  0  0  0  0  0  0
   37.9860   29.7000   45.8390 H   0  0  0  0  0  0  0  0  0  0  0  0
   36.3560   29.4330   49.7350 O   0  0  0  0  0  0  0  0  0  0  0  0
   32.3330   29.8250   47.4940 H   0  0  0  0  0  0  0  0  0  0  0  0
   33.2720   29.3490   47.4760 N   0  0  0  0  0  0  0  0  0  0  0  0
   34.2380   30.3260   47.9250 C   0  0  0  0  0  2  0  0  0  0  0  0
   34.2300   30.3560   49.4300 C   0  0  0  0  0  2  0  0  0  0  0  0
   35.0220   29.1400   49.9120 C   0  0  0  0  0  3  0  0  0  0  0  0
   34.6560   28.0070   48.9740 C   0  0  0  0  0  2  0  0  0  0  0  0
   33.2590   28.2620   48.4080 C   0  0  0  0  0  2  0  0  0  0  0  0
  1  4  1  1  0  0  0
  1  2  1  0  0  0  0
  1  3  1  0  0  0  0
  2  3  1  0  0  0  0
  2  5  1  1  0  0  0
  3  7  1  0  0  0  0
  6  3  1  0  0  0  0
  8  1  1  0  0  0  0
  9  8  1  0  0  0  0
  9 14  1  0  0  0  0
 10  9  2  0  0  0  0
 11 12  2  0  0  0  0
 11 10  1  0  0  0  0
 12 13  1  0  0  0  0
 13  8  2  0  0  0  0
 15 10  1  0  0  0  0
 16 12  1  0  0  0  0
 17 22  1  0  0  0  0
 17  2  1  0  0  0  0
 19 18  1  0  0  0  0
 19 20  1  0  0  0  0
 19 24  1  0  0  0  0
 20 21  1  0  0  0  0
 21 22  1  0  0  0  0
 23 22  1  0  0  0  0
 24 23  1  0  0  0  0
M  END
>  <minimizedAffinity>
-4.96787739

>  <minimizedRMSD>
1.55468011

$$$$
