
 OpenBabel03272509183D

 31 33  0  0  0  0  0  0  0  0999 V2000
   37.8240   31.2940   48.0210 C   0  0  0  0  0  0  0  0  0  0  0  0
   37.1400   31.5630   49.2000 C   0  0  0  0  0  0  0  0  0  0  0  0
   37.5090   32.7620   49.8360 C   0  0  0  0  0  0  0  0  0  0  0  0
   38.5020   33.5830   49.2760 C   0  0  0  0  0  0  0  0  0  0  0  0
   39.1240   33.2180   48.0910 C   0  0  0  0  0  0  0  0  0  0  0  0
   38.7820   32.0560   47.4510 C   0  0  0  0  0  0  0  0  0  0  0  0
   36.9760   32.9710   50.7530 H   0  0  0  0  0  0  0  0  0  0  0  0
   38.6740   34.4610   49.8750 H   0  0  0  0  0  0  0  0  0  0  0  0
   39.8390   33.9810   47.8490 H   0  0  0  0  0  0  0  0  0  0  0  0
   34.8570   30.6530   49.1640 C   0  0  0  0  0  0  0  0  0  0  0  0
   36.1290   30.7120   49.7530 C   0  0  0  0  0  0  0  0  0  0  0  0
   36.3560   29.9220   50.8770 C   0  0  0  0  0  0  0  0  0  0  0  0
   35.3320   29.1440   51.3330 N   0  0  0  0  0  0  0  0  0  0  0  0
   34.1240   29.1130   50.7410 C   0  0  0  0  0  0  0  0  0  0  0  0
   33.8850   29.8700   49.6530 N   0  0  0  0  0  0  0  0  0  0  0  0
   34.6010   31.2430   48.2810 H   0  0  0  0  0  0  0  0  0  0  0  0
   33.4630   28.4310   51.2640 H   0  0  0  0  0  0  0  0  0  0  0  0
   37.6710   29.9380   51.5420 C   0  0  0  0  0  0  0  0  0  0  0  0
   38.4430   30.2800   50.8050 H   0  0  0  0  0  0  0  0  0  0  0  0
   37.9780   28.9480   51.9420 H   0  0  0  0  0  0  0  0  0  0  0  0
   37.6420   30.6270   52.4110 H   0  0  0  0  0  0  0  0  0  0  0  0
   37.5070   30.1110   47.3280 O   0  0  0  0  0  0  0  0  0  0  0  0
   36.8040   30.0890   46.5990 H   0  0  0  0  0  0  0  0  0  0  0  0
   39.4140   31.7260   46.2790 O   0  0  0  0  0  0  0  0  0  0  0  0
   39.5850   31.1870   42.2820 H   0  0  0  0  0  0  0  0  0  0  0  0
   39.3490   31.4900   43.2640 N   0  0  0  0  0  0  0  0  0  0  0  0
   39.6680   32.8890   43.3310 C   0  0  0  0  0  2  0  0  0  0  0  0
   39.6980   33.4520   44.7280 C   0  0  0  0  0  2  0  0  0  0  0  0
   40.3990   32.5160   45.7050 C   0  0  0  0  0  3  0  0  0  0  0  0
   41.2130   31.5570   44.8060 C   0  0  0  0  0  2  0  0  0  0  0  0
   40.1640   30.6790   44.1440 C   0  0  0  0  0  2  0  0  0  0  0  0
  1  2  1  0  0  0  0
  2 11  1  0  0  0  0
  2  3  2  0  0  0  0
  3  7  1  0  0  0  0
  4  3  1  0  0  0  0
  4  8  1  0  0  0  0
  5  4  2  0  0  0  0
  6  1  2  0  0  0  0
  6  5  1  0  0  0  0
  9  5  1  0  0  0  0
 10 15  2  0  0  0  0
 10 11  1  0  0  0  0
 11 12  2  0  0  0  0
 12 13  1  0  0  0  0
 12 18  1  0  0  0  0
 14 17  1  0  0  0  0
 14 13  2  0  0  0  0
 15 14  1  0  0  0  0
 16 10  1  0  0  0  0
 18 20  1  0  0  0  0
 18 21  1  0  0  0  0
 19 18  1  0  0  0  0
 22  1  1  0  0  0  0
 23 22  1  0  0  0  0
 24  6  1  0  0  0  0
 25 26  1  0  0  0  0
 26 27  1  0  0  0  0
 26 31  1  0  0  0  0
 27 28  1  0  0  0  0
 28 29  1  0  0  0  0
 29 24  1  0  0  0  0
 30 29  1  0  0  0  0
 31 30  1  0  0  0  0
M  END
>  <minimizedAffinity>
-6.13133764

>  <minimizedRMSD>
1.2349391

$$$$
