
 OpenBabel03272507263D

 35 37  0  0  1  0  0  0  0  0999 V2000
   37.0270   29.9280   48.9130 C   0  0  0  0  0  0  0  0  0  0  0  0
   38.0210   30.5110   48.0900 C   0  0  0  0  0  0  0  0  0  0  0  0
   37.6420   30.9320   46.8120 C   0  0  0  0  0  0  0  0  0  0  0  0
   36.3610   30.7620   46.4330 N   0  0  0  0  0  0  0  0  0  0  0  0
   35.4220   30.1960   47.2440 C   0  0  0  0  0  0  0  0  0  0  0  0
   35.7720   29.7850   48.4790 N   0  0  0  0  0  0  0  0  0  0  0  0
   38.5780   31.5210   45.9420 N   0  0  0  0  0  0  0  0  0  0  0  0
   39.7530   32.2880   46.3730 C   0  0  0  0  0  0  0  0  0  0  0  0
   40.3130   32.9270   45.1430 C   0  0  0  0  0  0  0  0  0  0  0  0
   39.1810   32.8700   44.1870 C   0  0  0  0  0  0  0  0  0  0  0  0
   38.5960   31.5050   44.5090 C   0  0  2  0  0  0  0  0  0  0  0  0
   37.3070   29.5930   49.9150 H   0  0  0  0  0  0  0  0  0  0  0  0
   39.0240   30.6180   48.4550 H   0  0  0  0  0  0  0  0  0  0  0  0
   34.3970   30.0700   46.9160 H   0  0  0  0  0  0  0  0  0  0  0  0
   39.3940   33.0160   47.1320 H   0  0  0  0  0  0  0  0  0  0  0  0
   40.4890   31.6290   46.8440 H   0  0  0  0  0  0  0  0  0  0  0  0
   41.2850   32.5930   44.8130 H   0  0  0  0  0  0  0  0  0  0  0  0
   40.4440   34.0120   45.4010 H   0  0  0  0  0  0  0  0  0  0  0  0
   39.5100   32.8980   43.1240 H   0  0  0  0  0  0  0  0  0  0  0  0
   38.4300   33.6490   44.4010 H   0  0  0  0  0  0  0  0  0  0  0  0
   37.3330   31.2430   43.7950 C   0  0  0  0  0  0  0  0  0  0  0  0
   36.5160   32.3420   44.0150 F   0  0  0  0  0  0  0  0  0  0  0  0
   36.6330   30.1550   44.1940 F   0  0  0  0  0  0  0  0  0  0  0  0
   37.6370   31.2650   42.4410 F   0  0  0  0  0  0  0  0  0  0  0  0
   39.5800   30.4380   44.1400 C   0  0  0  0  0  0  0  0  0  0  0  0
   40.4110   30.4520   44.9050 H   0  0  0  0  0  0  0  0  0  0  0  0
   40.0940   30.7760   43.2130 H   0  0  0  0  0  0  0  0  0  0  0  0
   38.9730   29.3790   44.1130 O   0  0  0  0  0  0  0  0  0  0  0  0
   38.9380   28.0620   39.6310 H   0  0  0  0  0  0  0  0  0  0  0  0
   38.8850   27.5550   40.5420 N   0  0  0  0  0  0  0  0  0  0  0  0
   40.1500   27.4820   41.2460 C   0  0  0  0  0  0  0  0  0  0  0  0
   40.2260   28.6130   42.2560 C   0  0  0  0  0  0  0  0  0  0  0  0
   39.2840   28.2600   43.3850 C   0  0  0  0  0  0  0  0  0  0  0  0
   38.0400   27.6860   42.7850 C   0  0  0  0  0  0  0  0  0  0  0  0
   37.8270   28.1360   41.3430 C   0  0  0  0  0  0  0  0  0  0  0  0
  1 12  1  0  0  0  0
  2 13  1  0  0  0  0
  2  1  2  0  0  0  0
  3  2  1  0  0  0  0
  4  3  2  0  0  0  0
  4  5  1  0  0  0  0
  5  6  2  0  0  0  0
  6  1  1  0  0  0  0
  7  8  1  0  0  0  0
  7  3  1  0  0  0  0
  8 16  1  0  0  0  0
  8 15  1  0  0  0  0
  9 18  1  0  0  0  0
  9  8  1  0  0  0  0
 10 20  1  0  0  0  0
 10 11  1  0  0  0  0
 10  9  1  0  0  0  0
 11 21  1  6  0  0  0
 11  7  1  0  0  0  0
 14  5  1  0  0  0  0
 17  9  1  0  0  0  0
 19 10  1  0  0  0  0
 21 22  1  0  0  0  0
 21 23  1  0  0  0  0
 24 21  1  0  0  0  0
 25 11  1  0  0  0  0
 25 26  1  0  0  0  0
 27 25  1  0  0  0  0
 28 25  1  0  0  0  0
 29 30  1  0  0  0  0
 30 31  1  0  0  0  0
 30 35  1  0  0  0  0
 31 32  1  0  0  0  0
 32 33  1  0  0  0  0
 33 28  1  0  0  0  0
 34 33  1  0  0  0  0
 35 34  1  0  0  0  0
M  END
>  <minimizedAffinity>
-4.74985695

>  <minimizedRMSD>
1.24417949

$$$$
