
 OpenBabel03272505493D

 38 42  0  0  0  0  0  0  0  0999 V2000
   35.9060   29.2550   33.2310 C   0  0  0  0  0  0  0  0  0  0  0  0
   36.2720   29.7000   31.9950 C   0  0  0  0  0  0  0  0  0  0  0  0
   37.0520   28.9050   31.1650 C   0  0  0  0  0  0  0  0  0  0  0  0
   37.4440   27.6520   31.6290 C   0  0  0  0  0  0  0  0  0  0  0  0
   37.0680   27.2050   32.8870 C   0  0  0  0  0  0  0  0  0  0  0  0
   36.3120   28.0350   33.6320 N   0  0  0  0  0  0  0  0  0  0  0  0
   35.9560   30.6770   31.6540 H   0  0  0  0  0  0  0  0  0  0  0  0
   37.3500   29.2510   30.1740 H   0  0  0  0  0  0  0  0  0  0  0  0
   38.0520   26.9920   31.0220 H   0  0  0  0  0  0  0  0  0  0  0  0
   35.0600   30.1120   34.1380 C   0  0  0  0  0  0  0  0  0  0  0  0
   35.7300   30.7860   35.2680 C   0  0  0  0  0  0  0  0  0  0  0  0
   35.2670   31.5910   34.0770 C   0  0  0  0  0  0  0  0  0  0  0  0
   35.1730   30.9940   36.2020 H   0  0  0  0  0  0  0  0  0  0  0  0
   36.8100   30.6350   35.4460 H   0  0  0  0  0  0  0  0  0  0  0  0
   36.0690   31.9490   33.4020 H   0  0  0  0  0  0  0  0  0  0  0  0
   34.3940   32.2470   34.1660 H   0  0  0  0  0  0  0  0  0  0  0  0
   31.8000   29.0870   35.5380 C   0  0  0  0  0  0  0  0  0  0  0  0
   31.0890   28.6960   34.3990 C   0  0  0  0  0  0  0  0  0  0  0  0
   31.7310   28.7820   33.1380 C   0  0  0  0  0  0  0  0  0  0  0  0
   33.0020   29.2410   33.1010 N   0  0  0  0  0  0  0  0  0  0  0  0
   33.6680   29.6160   34.2310 C   0  0  0  0  0  0  0  0  0  0  0  0
   33.0730   29.5380   35.4280 N   0  0  0  0  0  0  0  0  0  0  0  0
   31.2870   29.0110   36.4900 H   0  0  0  0  0  0  0  0  0  0  0  0
   30.0770   28.3250   34.3890 H   0  0  0  0  0  0  0  0  0  0  0  0
   31.3010   28.5160   32.1980 H   0  0  0  0  0  0  0  0  0  0  0  0
   37.4510   25.8990   33.4260 C   0  0  0  0  0  0  0  0  0  0  0  0
   37.6430   24.7040   32.8020 N   0  0  0  0  0  0  0  0  0  0  0  0
   37.9930   23.7890   33.7510 C   0  0  0  0  0  0  0  0  0  0  0  0
   38.0160   24.4120   34.9460 N   0  0  0  0  0  0  0  0  0  0  0  0
   37.6900   25.6880   34.7560 N   0  0  0  0  0  0  0  0  0  0  0  0
   38.1900   22.7830   33.4810 H   0  0  0  0  0  0  0  0  0  0  0  0
   38.8020   22.0280   39.1830 H   0  0  0  0  0  0  0  0  0  0  0  0
   38.7870   22.6830   38.3940 N   0  0  0  0  0  0  0  0  0  0  0  0
   38.0770   23.9050   38.6130 C   0  0  0  0  0  2  0  0  0  0  0  0
   38.2030   24.7590   37.3630 C   0  0  0  0  0  2  0  0  0  0  0  0
   38.3360   23.8040   36.2000 C   0  0  0  0  0  3  0  0  0  0  0  0
   39.7670   23.2900   36.2500 C   0  0  0  0  0  2  0  0  0  0  0  0
   40.0150   22.8200   37.6720 C   0  0  0  0  0  2  0  0  0  0  0  0
  1  6  1  0  0  0  0
  1 10  1  0  0  0  0
  2  1  2  0  0  0  0
  3  4  2  0  0  0  0
  3  2  1  0  0  0  0
  4  5  1  0  0  0  0
  5 26  1  0  0  0  0
  5  6  2  0  0  0  0
  7  2  1  0  0  0  0
  8  3  1  0  0  0  0
  9  4  1  0  0  0  0
 10 21  1  0  0  0  0
 10 11  1  0  0  0  0
 11 14  1  0  0  0  0
 11 13  1  0  0  0  0
 12 10  1  0  0  0  0
 12 16  1  0  0  0  0
 12 11  1  0  0  0  0
 15 12  1  0  0  0  0
 17 23  1  0  0  0  0
 18 17  2  0  0  0  0
 19 18  1  0  0  0  0
 20 19  2  0  0  0  0
 20 21  1  0  0  0  0
 21 22  2  0  0  0  0
 22 17  1  0  0  0  0
 24 18  1  0  0  0  0
 25 19  1  0  0  0  0
 26 30  2  0  0  0  0
 27 26  1  0  0  0  0
 27 28  2  0  0  0  0
 28 29  1  0  0  0  0
 29 36  1  0  0  0  0
 30 29  1  0  0  0  0
 31 28  1  0  0  0  0
 33 34  1  0  0  0  0
 33 32  1  0  0  0  0
 35 34  1  0  0  0  0
 36 37  1  0  0  0  0
 36 35  1  0  0  0  0
 37 38  1  0  0  0  0
 38 33  1  0  0  0  0
M  END
>  <minimizedAffinity>
-6.62412691

$$$$

 OpenBabel03272505493D

 38 42  0  0  0  0  0  0  0  0999 V2000
   38.6870   25.4350   33.7120 C   0  0  0  0  0  0  0  0  0  0  0  0
   38.2660   24.5250   32.7880 C   0  0  0  0  0  0  0  0  0  0  0  0
   37.1660   24.7960   31.9840 C   0  0  0  0  0  0  0  0  0  0  0  0
   36.5140   26.0150   32.1490 C   0  0  0  0  0  0  0  0  0  0  0  0
   36.9470   26.9370   33.0900 C   0  0  0  0  0  0  0  0  0  0  0  0
   38.0200   26.5990   33.8320 N   0  0  0  0  0  0  0  0  0  0  0  0
   38.7880   23.5830   32.6770 H   0  0  0  0  0  0  0  0  0  0  0  0
   36.8210   24.0750   31.2420 H   0  0  0  0  0  0  0  0  0  0  0  0
   35.6510   26.2770   31.5480 H   0  0  0  0  0  0  0  0  0  0  0  0
   39.8790   25.1470   34.5880 C   0  0  0  0  0  0  0  0  0  0  0  0
   41.1770   24.9100   33.9270 C   0  0  0  0  0  0  0  0  0  0  0  0
   40.9370   26.1980   34.6770 C   0  0  0  0  0  0  0  0  0  0  0  0
   41.9280   24.2440   34.3950 H   0  0  0  0  0  0  0  0  0  0  0  0
   41.2510   24.9190   32.8250 H   0  0  0  0  0  0  0  0  0  0  0  0
   40.7930   27.0980   34.0470 H   0  0  0  0  0  0  0  0  0  0  0  0
   41.4280   26.3690   35.6420 H   0  0  0  0  0  0  0  0  0  0  0  0
   39.9000   22.7730   37.4180 C   0  0  0  0  0  0  0  0  0  0  0  0
   38.7780   23.1660   38.1530 C   0  0  0  0  0  0  0  0  0  0  0  0
   38.0030   24.2540   37.6760 C   0  0  0  0  0  0  0  0  0  0  0  0
   38.3930   24.8590   36.5320 N   0  0  0  0  0  0  0  0  0  0  0  0
   39.4930   24.4520   35.8380 C   0  0  0  0  0  0  0  0  0  0  0  0
   40.2330   23.4240   36.2770 N   0  0  0  0  0  0  0  0  0  0  0  0
   40.4740   21.9380   37.8020 H   0  0  0  0  0  0  0  0  0  0  0  0
   38.4360   22.7090   39.0670 H   0  0  0  0  0  0  0  0  0  0  0  0
   37.1280   24.6490   38.1420 H   0  0  0  0  0  0  0  0  0  0  0  0
   36.3000   28.2330   33.3070 C   0  0  0  0  0  0  0  0  0  0  0  0
   35.6950   29.0790   32.4280 N   0  0  0  0  0  0  0  0  0  0  0  0
   35.2480   30.1600   33.1300 C   0  0  0  0  0  0  0  0  0  0  0  0
   35.5740   29.9820   34.4260 N   0  0  0  0  0  0  0  0  0  0  0  0
   36.2090   28.8190   34.5390 N   0  0  0  0  0  0  0  0  0  0  0  0
   34.7410   30.9500   32.6370 H   0  0  0  0  0  0  0  0  0  0  0  0
   34.7860   32.8250   38.3690 H   0  0  0  0  0  0  0  0  0  0  0  0
   34.8010   32.3850   37.4420 N   0  0  0  0  0  0  0  0  0  0  0  0
   33.6140   31.6830   37.0670 C   0  0  0  0  0  2  0  0  0  0  0  0
   33.8060   31.1440   35.6600 C   0  0  0  0  0  2  0  0  0  0  0  0
   35.2850   30.8890   35.4930 C   0  0  0  0  0  3  0  0  0  0  0  0
   35.9190   32.2560   35.2840 C   0  0  0  0  0  2  0  0  0  0  0  0
   35.4060   33.1530   36.3970 C   0  0  0  0  0  2  0  0  0  0  0  0
  1  6  1  0  0  0  0
  1 10  1  0  0  0  0
  2  1  2  0  0  0  0
  3  4  2  0  0  0  0
  3  2  1  0  0  0  0
  4  5  1  0  0  0  0
  5 26  1  0  0  0  0
  5  6  2  0  0  0  0
  7  2  1  0  0  0  0
  8  3  1  0  0  0  0
  9  4  1  0  0  0  0
 10 12  1  0  0  0  0
 10 21  1  0  0  0  0
 11 13  1  0  0  0  0
 11 10  1  0  0  0  0
 11 12  1  0  0  0  0
 12 16  1  0  0  0  0
 14 11  1  0  0  0  0
 15 12  1  0  0  0  0
 17 23  1  0  0  0  0
 17 18  1  0  0  0  0
 18 24  1  0  0  0  0
 19 25  1  0  0  0  0
 19 18  2  0  0  0  0
 20 19  1  0  0  0  0
 21 22  1  0  0  0  0
 21 20  2  0  0  0  0
 22 17  2  0  0  0  0
 26 30  2  0  0  0  0
 27 28  2  0  0  0  0
 27 26  1  0  0  0  0
 28 29  1  0  0  0  0
 29 30  1  0  0  0  0
 29 36  1  0  0  0  0
 31 28  1  0  0  0  0
 33 32  1  0  0  0  0
 34 33  1  0  0  0  0
 35 34  1  0  0  0  0
 36 35  1  0  0  0  0
 37 36  1  0  0  0  0
 37 38  1  0  0  0  0
 38 33  1  0  0  0  0
M  END
>  <minimizedAffinity>
-6.2847724

$$$$

 OpenBabel03272505493D

 38 42  0  0  0  0  0  0  0  0999 V2000
   36.4120   26.3800   31.3560 C   0  0  0  0  0  0  0  0  0  0  0  0
   35.2160   26.0260   30.8050 C   0  0  0  0  0  0  0  0  0  0  0  0
   34.7720   24.7110   30.8740 C   0  0  0  0  0  0  0  0  0  0  0  0
   35.5790   23.7750   31.5160 C   0  0  0  0  0  0  0  0  0  0  0  0
   36.7940   24.1410   32.0740 C   0  0  0  0  0  0  0  0  0  0  0  0
   37.1550   25.4350   31.9660 N   0  0  0  0  0  0  0  0  0  0  0  0
   34.6050   26.7700   30.3110 H   0  0  0  0  0  0  0  0  0  0  0  0
   33.8170   24.4180   30.4360 H   0  0  0  0  0  0  0  0  0  0  0  0
   35.2800   22.7370   31.5970 H   0  0  0  0  0  0  0  0  0  0  0  0
   36.9010   27.8040   31.2860 C   0  0  0  0  0  0  0  0  0  0  0  0
   38.3200   28.0280   30.9460 C   0  0  0  0  0  0  0  0  0  0  0  0
   37.2430   28.3480   29.9370 C   0  0  0  0  0  0  0  0  0  0  0  0
   38.8540   28.9160   31.3390 H   0  0  0  0  0  0  0  0  0  0  0  0
   38.9950   27.1700   30.7790 H   0  0  0  0  0  0  0  0  0  0  0  0
   37.1620   27.6430   29.0860 H   0  0  0  0  0  0  0  0  0  0  0  0
   36.9960   29.3920   29.7130 H   0  0  0  0  0  0  0  0  0  0  0  0
   35.6080   29.2880   34.4110 C   0  0  0  0  0  0  0  0  0  0  0  0
   34.8020   30.3300   33.9430 C   0  0  0  0  0  0  0  0  0  0  0  0
   34.6980   30.5280   32.5420 C   0  0  0  0  0  0  0  0  0  0  0  0
   35.3870   29.6960   31.7300 N   0  0  0  0  0  0  0  0  0  0  0  0
   36.1650   28.6890   32.2180 C   0  0  0  0  0  0  0  0  0  0  0  0
   36.2710   28.4910   33.5380 N   0  0  0  0  0  0  0  0  0  0  0  0
   35.6700   29.1570   35.4850 H   0  0  0  0  0  0  0  0  0  0  0  0
   34.2380   31.0120   34.5590 H   0  0  0  0  0  0  0  0  0  0  0  0
   34.1190   31.2840   32.0600 H   0  0  0  0  0  0  0  0  0  0  0  0
   37.6830   23.2010   32.7600 C   0  0  0  0  0  0  0  0  0  0  0  0
   38.2490   22.0410   32.3270 N   0  0  0  0  0  0  0  0  0  0  0  0
   38.9980   21.5350   33.3490 C   0  0  0  0  0  0  0  0  0  0  0  0
   38.8940   22.3740   34.3990 N   0  0  0  0  0  0  0  0  0  0  0  0
   38.1010   23.3830   34.0490 N   0  0  0  0  0  0  0  0  0  0  0  0
   39.5310   20.6270   33.2270 H   0  0  0  0  0  0  0  0  0  0  0  0
   40.8290   21.4390   38.8310 H   0  0  0  0  0  0  0  0  0  0  0  0
   40.5470   21.8370   37.9290 N   0  0  0  0  0  0  0  0  0  0  0  0
   39.6150   22.9200   37.9900 C   0  0  0  0  0  2  0  0  0  0  0  0
   39.3540   23.4030   36.5740 C   0  0  0  0  0  2  0  0  0  0  0  0
   39.5290   22.2060   35.6700 C   0  0  0  0  0  3  0  0  0  0  0  0
   41.0300   21.9950   35.5480 C   0  0  0  0  0  2  0  0  0  0  0  0
   41.5890   21.9910   36.9600 C   0  0  0  0  0  2  0  0  0  0  0  0
  1  6  1  0  0  0  0
  2  3  1  0  0  0  0
  2  1  2  0  0  0  0
  3  4  2  0  0  0  0
  4  9  1  0  0  0  0
  4  5  1  0  0  0  0
  5 26  1  0  0  0  0
  6  5  2  0  0  0  0
  7  2  1  0  0  0  0
  8  3  1  0  0  0  0
 10  1  1  0  0  0  0
 10 21  1  0  0  0  0
 11 10  1  0  0  0  0
 11 13  1  0  0  0  0
 12 11  1  0  0  0  0
 12 10  1  0  0  0  0
 14 11  1  0  0  0  0
 15 12  1  0  0  0  0
 16 12  1  0  0  0  0
 17 23  1  0  0  0  0
 18 17  1  0  0  0  0
 18 24  1  0  0  0  0
 19 18  2  0  0  0  0
 20 21  2  0  0  0  0
 20 19  1  0  0  0  0
 21 22  1  0  0  0  0
 22 17  2  0  0  0  0
 25 19  1  0  0  0  0
 26 30  2  0  0  0  0
 27 26  1  0  0  0  0
 27 28  2  0  0  0  0
 28 29  1  0  0  0  0
 29 36  1  0  0  0  0
 30 29  1  0  0  0  0
 31 28  1  0  0  0  0
 33 34  1  0  0  0  0
 33 32  1  0  0  0  0
 35 34  1  0  0  0  0
 36 35  1  0  0  0  0
 37 36  1  0  0  0  0
 37 38  1  0  0  0  0
 38 33  1  0  0  0  0
M  END
>  <minimizedAffinity>
-6.05755568

$$$$

 OpenBabel03272505493D

 38 42  0  0  0  0  0  0  0  0999 V2000
   34.3900   29.6470   33.0880 C   0  0  0  0  0  0  0  0  0  0  0  0
   34.7990   29.9140   31.8160 C   0  0  0  0  0  0  0  0  0  0  0  0
   35.9990   29.4000   31.3400 C   0  0  0  0  0  0  0  0  0  0  0  0
   36.7640   28.6120   32.1960 C   0  0  0  0  0  0  0  0  0  0  0  0
   36.3430   28.3440   33.4900 C   0  0  0  0  0  0  0  0  0  0  0  0
   35.1680   28.8790   33.8760 N   0  0  0  0  0  0  0  0  0  0  0  0
   34.1890   30.5290   31.1670 H   0  0  0  0  0  0  0  0  0  0  0  0
   36.3360   29.6080   30.3230 H   0  0  0  0  0  0  0  0  0  0  0  0
   37.7070   28.1860   31.8760 H   0  0  0  0  0  0  0  0  0  0  0  0
   33.0890   30.2010   33.6110 C   0  0  0  0  0  0  0  0  0  0  0  0
   32.0400   30.5360   32.6290 C   0  0  0  0  0  0  0  0  0  0  0  0
   31.8820   29.3260   33.5190 C   0  0  0  0  0  0  0  0  0  0  0  0
   31.3200   31.3510   32.8370 H   0  0  0  0  0  0  0  0  0  0  0  0
   32.2270   30.4040   31.5480 H   0  0  0  0  0  0  0  0  0  0  0  0
   32.0210   28.3460   33.0210 H   0  0  0  0  0  0  0  0  0  0  0  0
   31.1580   29.3430   34.3400 H   0  0  0  0  0  0  0  0  0  0  0  0
   34.1620   32.8570   35.9430 C   0  0  0  0  0  0  0  0  0  0  0  0
   33.6300   32.4250   37.1610 C   0  0  0  0  0  0  0  0  0  0  0  0
   32.8980   31.2120   37.1880 C   0  0  0  0  0  0  0  0  0  0  0  0
   32.7490   30.5330   36.0280 N   0  0  0  0  0  0  0  0  0  0  0  0
   33.2800   30.9810   34.8560 C   0  0  0  0  0  0  0  0  0  0  0  0
   33.9750   32.1260   34.8170 N   0  0  0  0  0  0  0  0  0  0  0  0
   34.7180   33.7880   35.9490 H   0  0  0  0  0  0  0  0  0  0  0  0
   33.7280   32.9380   38.1050 H   0  0  0  0  0  0  0  0  0  0  0  0
   32.4430   30.7750   38.0500 H   0  0  0  0  0  0  0  0  0  0  0  0
   37.1050   27.5230   34.4330 C   0  0  0  0  0  0  0  0  0  0  0  0
   37.9070   27.8820   35.4730 N   0  0  0  0  0  0  0  0  0  0  0  0
   38.3870   26.7400   36.0440 C   0  0  0  0  0  0  0  0  0  0  0  0
   37.8870   25.6890   35.3630 N   0  0  0  0  0  0  0  0  0  0  0  0
   37.1110   26.1560   34.3890 N   0  0  0  0  0  0  0  0  0  0  0  0
   39.0380   26.7880   36.8790 H   0  0  0  0  0  0  0  0  0  0  0  0
   38.4320   20.9490   36.5840 H   0  0  0  0  0  0  0  0  0  0  0  0
   38.5330   21.9070   36.2310 N   0  0  0  0  0  0  0  0  0  0  0  0
   39.4750   22.7300   36.9220 C   0  0  0  0  0  2  0  0  0  0  0  0
   39.5190   24.0840   36.2340 C   0  0  0  0  0  2  0  0  0  0  0  0
   38.1480   24.3110   35.6420 C   0  0  0  0  0  3  0  0  0  0  0  0
   38.0870   23.4430   34.3950 C   0  0  0  0  0  2  0  0  0  0  0  0
   38.5350   22.0510   34.8070 C   0  0  0  0  0  2  0  0  0  0  0  0
  1 10  1  0  0  0  0
  1  6  1  0  0  0  0
  2  1  2  0  0  0  0
  3  2  1  0  0  0  0
  3  4  2  0  0  0  0
  4  5  1  0  0  0  0
  5  6  2  0  0  0  0
  5 26  1  0  0  0  0
  7  2  1  0  0  0  0
  8  3  1  0  0  0  0
  9  4  1  0  0  0  0
 10 21  1  0  0  0  0
 11 13  1  0  0  0  0
 11 12  1  0  0  0  0
 11 10  1  0  0  0  0
 12 10  1  0  0  0  0
 12 16  1  0  0  0  0
 14 11  1  0  0  0  0
 15 12  1  0  0  0  0
 17 23  1  0  0  0  0
 17 18  1  0  0  0  0
 18 19  2  0  0  0  0
 18 24  1  0  0  0  0
 19 25  1  0  0  0  0
 20 19  1  0  0  0  0
 21 20  2  0  0  0  0
 22 21  1  0  0  0  0
 22 17  2  0  0  0  0
 26 27  1  0  0  0  0
 27 28  2  0  0  0  0
 28 31  1  0  0  0  0
 29 36  1  0  0  0  0
 29 28  1  0  0  0  0
 30 26  2  0  0  0  0
 30 29  1  0  0  0  0
 33 32  1  0  0  0  0
 33 34  1  0  0  0  0
 35 34  1  0  0  0  0
 36 35  1  0  0  0  0
 37 38  1  0  0  0  0
 37 36  1  0  0  0  0
 38 33  1  0  0  0  0
M  END
>  <minimizedAffinity>
-5.90354681

$$$$

 OpenBabel03272505493D

 38 42  0  0  0  0  0  0  0  0999 V2000
   36.1000   28.8500   33.6800 C   0  0  0  0  0  0  0  0  0  0  0  0
   36.4310   28.8410   32.3580 C   0  0  0  0  0  0  0  0  0  0  0  0
   37.2650   27.8530   31.8490 C   0  0  0  0  0  0  0  0  0  0  0  0
   37.7480   26.8820   32.7230 C   0  0  0  0  0  0  0  0  0  0  0  0
   37.4070   26.8970   34.0670 C   0  0  0  0  0  0  0  0  0  0  0  0
   36.5950   27.8880   34.4830 N   0  0  0  0  0  0  0  0  0  0  0  0
   36.0440   29.6040   31.6960 H   0  0  0  0  0  0  0  0  0  0  0  0
   37.5360   27.8360   30.7920 H   0  0  0  0  0  0  0  0  0  0  0  0
   38.4010   26.0900   32.3780 H   0  0  0  0  0  0  0  0  0  0  0  0
   35.1960   29.9180   34.2400 C   0  0  0  0  0  0  0  0  0  0  0  0
   35.7540   30.8250   35.2620 C   0  0  0  0  0  0  0  0  0  0  0  0
   35.4900   31.3340   33.8650 C   0  0  0  0  0  0  0  0  0  0  0  0
   35.0960   31.2630   36.0380 H   0  0  0  0  0  0  0  0  0  0  0  0
   36.7930   30.6940   35.6150 H   0  0  0  0  0  0  0  0  0  0  0  0
   36.3900   31.5020   33.2410 H   0  0  0  0  0  0  0  0  0  0  0  0
   34.6510   32.0140   33.6800 H   0  0  0  0  0  0  0  0  0  0  0  0
   31.8530   28.9380   35.4680 C   0  0  0  0  0  0  0  0  0  0  0  0
   31.1510   28.7020   34.2820 C   0  0  0  0  0  0  0  0  0  0  0  0
   31.8270   28.8770   33.0480 C   0  0  0  0  0  0  0  0  0  0  0  0
   33.1210   29.2680   33.0820 N   0  0  0  0  0  0  0  0  0  0  0  0
   33.7780   29.4910   34.2560 C   0  0  0  0  0  0  0  0  0  0  0  0
   33.1500   29.3280   35.4280 N   0  0  0  0  0  0  0  0  0  0  0  0
   31.3140   28.7960   36.3970 H   0  0  0  0  0  0  0  0  0  0  0  0
   30.1210   28.3900   34.2160 H   0  0  0  0  0  0  0  0  0  0  0  0
   31.4060   28.7300   32.0790 H   0  0  0  0  0  0  0  0  0  0  0  0
   37.8850   25.9040   35.0310 C   0  0  0  0  0  0  0  0  0  0  0  0
   37.3760   25.5220   36.2360 N   0  0  0  0  0  0  0  0  0  0  0  0
   38.1930   24.5560   36.7460 C   0  0  0  0  0  0  0  0  0  0  0  0
   39.1930   24.3450   35.8670 N   0  0  0  0  0  0  0  0  0  0  0  0
   39.0110   25.1560   34.8280 N   0  0  0  0  0  0  0  0  0  0  0  0
   37.9810   24.1150   37.6860 H   0  0  0  0  0  0  0  0  0  0  0  0
   43.1530   21.4630   36.3780 H   0  0  0  0  0  0  0  0  0  0  0  0
   42.2130   21.8560   36.2570 N   0  0  0  0  0  0  0  0  0  0  0  0
   41.6510   21.7330   34.9480 C   0  0  0  0  0  2  0  0  0  0  0  0
   40.2530   22.3250   34.9740 C   0  0  0  0  0  2  0  0  0  0  0  0
   40.2630   23.4090   36.0260 C   0  0  0  0  0  3  0  0  0  0  0  0
   40.2120   22.6880   37.3640 C   0  0  0  0  0  2  0  0  0  0  0  0
   41.2970   21.6260   37.3320 C   0  0  0  0  0  2  0  0  0  0  0  0
  1 10  1  0  0  0  0
  1  6  1  0  0  0  0
  2  1  2  0  0  0  0
  3  2  1  0  0  0  0
  3  4  2  0  0  0  0
  4  5  1  0  0  0  0
  5  6  2  0  0  0  0
  5 26  1  0  0  0  0
  7  2  1  0  0  0  0
  8  3  1  0  0  0  0
  9  4  1  0  0  0  0
 10 21  1  0  0  0  0
 10 11  1  0  0  0  0
 11 14  1  0  0  0  0
 11 13  1  0  0  0  0
 12 10  1  0  0  0  0
 12 11  1  0  0  0  0
 15 12  1  0  0  0  0
 16 12  1  0  0  0  0
 17 23  1  0  0  0  0
 18 17  2  0  0  0  0
 19 20  2  0  0  0  0
 19 18  1  0  0  0  0
 20 21  1  0  0  0  0
 21 22  2  0  0  0  0
 22 17  1  0  0  0  0
 24 18  1  0  0  0  0
 25 19  1  0  0  0  0
 26 27  1  0  0  0  0
 27 28  2  0  0  0  0
 28 31  1  0  0  0  0
 29 36  1  0  0  0  0
 29 28  1  0  0  0  0
 30 26  2  0  0  0  0
 30 29  1  0  0  0  0
 33 32  1  0  0  0  0
 33 38  1  0  0  0  0
 34 35  1  0  0  0  0
 34 33  1  0  0  0  0
 35 36  1  0  0  0  0
 36 37  1  0  0  0  0
 38 37  1  0  0  0  0
M  END
>  <minimizedAffinity>
-5.8506279

$$$$

 OpenBabel03272505493D

 38 42  0  0  0  0  0  0  0  0999 V2000
   35.1100   30.0340   34.1960 C   0  0  0  0  0  0  0  0  0  0  0  0
   34.4530   29.9490   33.0040 C   0  0  0  0  0  0  0  0  0  0  0  0
   34.7890   28.9640   32.0850 C   0  0  0  0  0  0  0  0  0  0  0  0
   35.8070   28.0730   32.4140 C   0  0  0  0  0  0  0  0  0  0  0  0
   36.4720   28.1640   33.6280 C   0  0  0  0  0  0  0  0  0  0  0  0
   36.0880   29.1470   34.4660 N   0  0  0  0  0  0  0  0  0  0  0  0
   33.6640   30.6520   32.7690 H   0  0  0  0  0  0  0  0  0  0  0  0
   34.2690   28.8870   31.1280 H   0  0  0  0  0  0  0  0  0  0  0  0
   36.1080   27.2860   31.7340 H   0  0  0  0  0  0  0  0  0  0  0  0
   34.7520   31.1000   35.1990 C   0  0  0  0  0  0  0  0  0  0  0  0
   35.8100   31.5650   36.1170 C   0  0  0  0  0  0  0  0  0  0  0  0
   35.3370   32.4600   34.9960 C   0  0  0  0  0  0  0  0  0  0  0  0
   35.5500   31.9280   37.1300 H   0  0  0  0  0  0  0  0  0  0  0  0
   36.8190   31.1160   36.0750 H   0  0  0  0  0  0  0  0  0  0  0  0
   36.0390   32.5720   34.1470 H   0  0  0  0  0  0  0  0  0  0  0  0
   34.7190   33.3360   35.2200 H   0  0  0  0  0  0  0  0  0  0  0  0
   31.5360   29.7450   36.4100 C   0  0  0  0  0  0  0  0  0  0  0  0
   30.7020   30.8660   36.3790 C   0  0  0  0  0  0  0  0  0  0  0  0
   31.2430   32.1010   35.9380 C   0  0  0  0  0  0  0  0  0  0  0  0
   32.5440   32.1290   35.5700 N   0  0  0  0  0  0  0  0  0  0  0  0
   33.3320   31.0170   35.6120 C   0  0  0  0  0  0  0  0  0  0  0  0
   32.8320   29.8450   36.0270 N   0  0  0  0  0  0  0  0  0  0  0  0
   31.0990   28.8140   36.7510 H   0  0  0  0  0  0  0  0  0  0  0  0
   29.6630   30.8820   36.6630 H   0  0  0  0  0  0  0  0  0  0  0  0
   30.7150   33.0250   35.8670 H   0  0  0  0  0  0  0  0  0  0  0  0
   37.5490   27.2560   34.0280 C   0  0  0  0  0  0  0  0  0  0  0  0
   38.8320   27.1540   33.5820 N   0  0  0  0  0  0  0  0  0  0  0  0
   39.4350   26.1470   34.2770 C   0  0  0  0  0  0  0  0  0  0  0  0
   38.5360   25.6350   35.1400 N   0  0  0  0  0  0  0  0  0  0  0  0
   37.3940   26.3020   34.9940 N   0  0  0  0  0  0  0  0  0  0  0  0
   40.4480   25.8940   34.0870 H   0  0  0  0  0  0  0  0  0  0  0  0
   39.7580   22.0750   38.3150 H   0  0  0  0  0  0  0  0  0  0  0  0
   39.3030   22.6910   37.6330 N   0  0  0  0  0  0  0  0  0  0  0  0
   39.2120   22.1840   36.2990 C   0  0  0  0  0  2  0  0  0  0  0  0
   38.4740   23.2060   35.4520 C   0  0  0  0  0  2  0  0  0  0  0  0
   38.7700   24.5600   36.0530 C   0  0  0  0  0  3  0  0  0  0  0  0
   37.9050   24.6560   37.3000 C   0  0  0  0  0  2  0  0  0  0  0  0
   38.1400   23.3840   38.0960 C   0  0  0  0  0  2  0  0  0  0  0  0
  1  6  1  0  0  0  0
  1 10  1  0  0  0  0
  2  1  2  0  0  0  0
  3  4  2  0  0  0  0
  3  2  1  0  0  0  0
  4  5  1  0  0  0  0
  5 26  1  0  0  0  0
  5  6  2  0  0  0  0
  7  2  1  0  0  0  0
  8  3  1  0  0  0  0
  9  4  1  0  0  0  0
 10 21  1  0  0  0  0
 10 11  1  0  0  0  0
 11 13  1  0  0  0  0
 12 10  1  0  0  0  0
 12 16  1  0  0  0  0
 12 11  1  0  0  0  0
 14 11  1  0  0  0  0
 15 12  1  0  0  0  0
 17 23  1  0  0  0  0
 18 17  1  0  0  0  0
 18 24  1  0  0  0  0
 19 18  2  0  0  0  0
 20 21  2  0  0  0  0
 20 19  1  0  0  0  0
 21 22  1  0  0  0  0
 22 17  2  0  0  0  0
 25 19  1  0  0  0  0
 26 30  2  0  0  0  0
 27 26  1  0  0  0  0
 27 28  2  0  0  0  0
 28 29  1  0  0  0  0
 29 36  1  0  0  0  0
 30 29  1  0  0  0  0
 31 28  1  0  0  0  0
 33 38  1  0  0  0  0
 33 32  1  0  0  0  0
 34 33  1  0  0  0  0
 35 36  1  0  0  0  0
 35 34  1  0  0  0  0
 36 37  1  0  0  0  0
 37 38  1  0  0  0  0
M  END
>  <minimizedAffinity>
-5.7961731

$$$$

 OpenBabel03272505493D

 38 42  0  0  0  0  0  0  0  0999 V2000
   38.2970   24.3980   35.3050 C   0  0  0  0  0  0  0  0  0  0  0  0
   38.5060   25.1760   36.4050 C   0  0  0  0  0  0  0  0  0  0  0  0
   38.2380   26.5390   36.3630 C   0  0  0  0  0  0  0  0  0  0  0  0
   37.7540   27.0800   35.1750 C   0  0  0  0  0  0  0  0  0  0  0  0
   37.5430   26.2830   34.0600 C   0  0  0  0  0  0  0  0  0  0  0  0
   37.8270   24.9710   34.1800 N   0  0  0  0  0  0  0  0  0  0  0  0
   38.8830   24.7350   37.3180 H   0  0  0  0  0  0  0  0  0  0  0  0
   38.4020   27.1710   37.2380 H   0  0  0  0  0  0  0  0  0  0  0  0
   37.5280   28.1360   35.0890 H   0  0  0  0  0  0  0  0  0  0  0  0
   38.5860   22.9190   35.3420 C   0  0  0  0  0  0  0  0  0  0  0  0
   37.4690   22.0080   35.6610 C   0  0  0  0  0  0  0  0  0  0  0  0
   38.0070   22.0770   34.2520 C   0  0  0  0  0  0  0  0  0  0  0  0
   37.6620   21.0470   36.1750 H   0  0  0  0  0  0  0  0  0  0  0  0
   36.4670   22.4140   35.8880 H   0  0  0  0  0  0  0  0  0  0  0  0
   37.3600   22.5980   33.5180 H   0  0  0  0  0  0  0  0  0  0  0  0
   38.6050   21.2500   33.8540 H   0  0  0  0  0  0  0  0  0  0  0  0
   42.2780   22.8160   35.3750 C   0  0  0  0  0  0  0  0  0  0  0  0
   42.5520   22.1130   36.5520 C   0  0  0  0  0  0  0  0  0  0  0  0
   41.4630   21.6680   37.3440 C   0  0  0  0  0  0  0  0  0  0  0  0
   40.2110   21.9490   36.9190 N   0  0  0  0  0  0  0  0  0  0  0  0
   39.9760   22.6370   35.7650 C   0  0  0  0  0  0  0  0  0  0  0  0
   40.9960   23.0620   35.0080 N   0  0  0  0  0  0  0  0  0  0  0  0
   43.1270   23.1440   34.7870 H   0  0  0  0  0  0  0  0  0  0  0  0
   43.5350   21.8710   36.9220 H   0  0  0  0  0  0  0  0  0  0  0  0
   41.5380   21.1250   38.2590 H   0  0  0  0  0  0  0  0  0  0  0  0
   37.0360   26.7960   32.7860 C   0  0  0  0  0  0  0  0  0  0  0  0
   36.3820   26.1640   31.7730 N   0  0  0  0  0  0  0  0  0  0  0  0
   36.1230   27.0870   30.8020 C   0  0  0  0  0  0  0  0  0  0  0  0
   36.6130   28.2740   31.2120 N   0  0  0  0  0  0  0  0  0  0  0  0
   37.1650   28.1040   32.4100 N   0  0  0  0  0  0  0  0  0  0  0  0
   35.6160   26.8060   29.9140 H   0  0  0  0  0  0  0  0  0  0  0  0
   36.0220   32.3520   28.5160 H   0  0  0  0  0  0  0  0  0  0  0  0
   36.3570   31.5990   29.1250 N   0  0  0  0  0  0  0  0  0  0  0  0
   37.3750   30.7590   28.5750 C   0  0  0  0  0  2  0  0  0  0  0  0
   37.7720   29.7410   29.6290 C   0  0  0  0  0  2  0  0  0  0  0  0
   36.5480   29.5020   30.4820 C   0  0  0  0  0  3  0  0  0  0  0  0
   36.4360   30.7150   31.3920 C   0  0  0  0  0  2  0  0  0  0  0  0
   36.5370   31.9420   30.5030 C   0  0  0  0  0  2  0  0  0  0  0  0
  1 10  1  0  0  0  0
  1  2  1  0  0  0  0
  2  7  1  0  0  0  0
  3  2  2  0  0  0  0
  3  8  1  0  0  0  0
  4  3  1  0  0  0  0
  5  6  1  0  0  0  0
  5  4  2  0  0  0  0
  6  1  2  0  0  0  0
  9  4  1  0  0  0  0
 10 11  1  0  0  0  0
 10 21  1  0  0  0  0
 11 14  1  0  0  0  0
 11 13  1  0  0  0  0
 12 10  1  0  0  0  0
 12 11  1  0  0  0  0
 15 12  1  0  0  0  0
 16 12  1  0  0  0  0
 17 18  1  0  0  0  0
 18 24  1  0  0  0  0
 18 19  2  0  0  0  0
 19 25  1  0  0  0  0
 20 19  1  0  0  0  0
 21 20  2  0  0  0  0
 22 17  2  0  0  0  0
 22 21  1  0  0  0  0
 23 17  1  0  0  0  0
 26  5  1  0  0  0  0
 27 26  1  0  0  0  0
 28 29  1  0  0  0  0
 28 27  2  0  0  0  0
 29 30  1  0  0  0  0
 30 26  2  0  0  0  0
 31 28  1  0  0  0  0
 32 33  1  0  0  0  0
 33 38  1  0  0  0  0
 34 33  1  0  0  0  0
 34 35  1  0  0  0  0
 35 36  1  0  0  0  0
 36 29  1  0  0  0  0
 36 37  1  0  0  0  0
 38 37  1  0  0  0  0
M  END
>  <minimizedAffinity>
-5.79247141

$$$$

 OpenBabel03272505493D

 38 42  0  0  0  0  0  0  0  0999 V2000
   40.7390   22.9680   36.5020 C   0  0  0  0  0  0  0  0  0  0  0  0
   40.1720   22.8410   37.7350 C   0  0  0  0  0  0  0  0  0  0  0  0
   38.8770   23.2900   37.9630 C   0  0  0  0  0  0  0  0  0  0  0  0
   38.1830   23.8680   36.9030 C   0  0  0  0  0  0  0  0  0  0  0  0
   38.7650   23.9930   35.6500 C   0  0  0  0  0  0  0  0  0  0  0  0
   40.0240   23.5350   35.5100 N   0  0  0  0  0  0  0  0  0  0  0  0
   40.7290   22.3890   38.5450 H   0  0  0  0  0  0  0  0  0  0  0  0
   38.4130   23.1940   38.9460 H   0  0  0  0  0  0  0  0  0  0  0  0
   37.1710   24.2340   37.0260 H   0  0  0  0  0  0  0  0  0  0  0  0
   42.1440   22.4840   36.2480 C   0  0  0  0  0  0  0  0  0  0  0  0
   42.5690   21.2320   36.9030 C   0  0  0  0  0  0  0  0  0  0  0  0
   42.3070   21.2530   35.4170 C   0  0  0  0  0  0  0  0  0  0  0  0
   43.6310   21.0780   37.1770 H   0  0  0  0  0  0  0  0  0  0  0  0
   41.8780   20.6940   37.5770 H   0  0  0  0  0  0  0  0  0  0  0  0
   41.3750   20.7520   35.0890 H   0  0  0  0  0  0  0  0  0  0  0  0
   43.1450   21.2020   34.7130 H   0  0  0  0  0  0  0  0  0  0  0  0
   44.6300   25.1500   36.8420 C   0  0  0  0  0  0  0  0  0  0  0  0
   44.8190   25.6810   35.5630 C   0  0  0  0  0  0  0  0  0  0  0  0
   44.0870   25.1230   34.4840 C   0  0  0  0  0  0  0  0  0  0  0  0
   43.2430   24.1010   34.7490 N   0  0  0  0  0  0  0  0  0  0  0  0
   43.0810   23.6050   36.0080 C   0  0  0  0  0  0  0  0  0  0  0  0
   43.7660   24.1240   37.0370 N   0  0  0  0  0  0  0  0  0  0  0  0
   45.2000   25.5940   37.6500 H   0  0  0  0  0  0  0  0  0  0  0  0
   45.4810   26.4930   35.3130 H   0  0  0  0  0  0  0  0  0  0  0  0
   44.1410   25.4360   33.4650 H   0  0  0  0  0  0  0  0  0  0  0  0
   38.0840   24.5920   34.5010 C   0  0  0  0  0  0  0  0  0  0  0  0
   37.7640   24.0630   33.2870 N   0  0  0  0  0  0  0  0  0  0  0  0
   37.1320   25.0310   32.5640 C   0  0  0  0  0  0  0  0  0  0  0  0
   37.0630   26.1430   33.3230 N   0  0  0  0  0  0  0  0  0  0  0  0
   37.6360   25.8830   34.4940 N   0  0  0  0  0  0  0  0  0  0  0  0
   36.7930   24.8320   31.5790 H   0  0  0  0  0  0  0  0  0  0  0  0
   34.6940   30.1940   31.8290 H   0  0  0  0  0  0  0  0  0  0  0  0
   35.3670   29.5020   32.1740 N   0  0  0  0  0  0  0  0  0  0  0  0
   36.4290   29.1640   31.2780 C   0  0  0  0  0  2  0  0  0  0  0  0
   37.3410   28.1690   31.9750 C   0  0  0  0  0  2  0  0  0  0  0  0
   36.4740   27.3870   32.9330 C   0  0  0  0  0  3  0  0  0  0  0  0
   36.2270   28.3100   34.1150 C   0  0  0  0  0  2  0  0  0  0  0  0
   35.7540   29.6360   33.5450 C   0  0  0  0  0  2  0  0  0  0  0  0
  1  2  1  0  0  0  0
  2  3  2  0  0  0  0
  2  7  1  0  0  0  0
  3  8  1  0  0  0  0
  4  9  1  0  0  0  0
  4  3  1  0  0  0  0
  5  4  2  0  0  0  0
  6  5  1  0  0  0  0
  6  1  2  0  0  0  0
 10  1  1  0  0  0  0
 10 11  1  0  0  0  0
 11 13  1  0  0  0  0
 11 14  1  0  0  0  0
 12 10  1  0  0  0  0
 12 11  1  0  0  0  0
 15 12  1  0  0  0  0
 16 12  1  0  0  0  0
 17 22  1  0  0  0  0
 17 23  1  0  0  0  0
 18 17  2  0  0  0  0
 19 20  2  0  0  0  0
 19 18  1  0  0  0  0
 20 21  1  0  0  0  0
 21 10  1  0  0  0  0
 21 22  2  0  0  0  0
 24 18  1  0  0  0  0
 25 19  1  0  0  0  0
 26  5  1  0  0  0  0
 27 26  1  0  0  0  0
 28 27  2  0  0  0  0
 28 29  1  0  0  0  0
 29 30  1  0  0  0  0
 30 26  2  0  0  0  0
 31 28  1  0  0  0  0
 32 33  1  0  0  0  0
 33 38  1  0  0  0  0
 34 35  1  0  0  0  0
 34 33  1  0  0  0  0
 35 36  1  0  0  0  0
 36 29  1  0  0  0  0
 36 37  1  0  0  0  0
 38 37  1  0  0  0  0
M  END
>  <minimizedAffinity>
-5.78152943

$$$$

 OpenBabel03272505493D

 38 42  0  0  0  0  0  0  0  0999 V2000
   38.5180   24.5360   35.0030 C   0  0  0  0  0  0  0  0  0  0  0  0
   38.6010   25.1840   36.2000 C   0  0  0  0  0  0  0  0  0  0  0  0
   38.2290   26.5180   36.3040 C   0  0  0  0  0  0  0  0  0  0  0  0
   37.7720   27.1670   35.1600 C   0  0  0  0  0  0  0  0  0  0  0  0
   37.6890   26.5030   33.9460 C   0  0  0  0  0  0  0  0  0  0  0  0
   38.0690   25.2110   33.9260 N   0  0  0  0  0  0  0  0  0  0  0  0
   38.9580   24.6600   37.0770 H   0  0  0  0  0  0  0  0  0  0  0  0
   38.2910   27.0460   37.2580 H   0  0  0  0  0  0  0  0  0  0  0  0
   37.4690   28.2070   35.1870 H   0  0  0  0  0  0  0  0  0  0  0  0
   38.9200   23.0890   34.8810 C   0  0  0  0  0  0  0  0  0  0  0  0
   40.2240   22.7880   34.2580 C   0  0  0  0  0  0  0  0  0  0  0  0
   40.0400   22.6110   35.7470 C   0  0  0  0  0  0  0  0  0  0  0  0
   40.3710   21.8410   33.7020 H   0  0  0  0  0  0  0  0  0  0  0  0
   40.8590   23.6050   33.8740 H   0  0  0  0  0  0  0  0  0  0  0  0
   40.5320   23.3740   36.3820 H   0  0  0  0  0  0  0  0  0  0  0  0
   39.9810   21.6050   36.1750 H   0  0  0  0  0  0  0  0  0  0  0  0
   36.2880   21.0190   33.3220 C   0  0  0  0  0  0  0  0  0  0  0  0
   35.5740   20.5500   34.4280 C   0  0  0  0  0  0  0  0  0  0  0  0
   35.9950   20.9460   35.7230 C   0  0  0  0  0  0  0  0  0  0  0  0
   37.0710   21.7590   35.8210 N   0  0  0  0  0  0  0  0  0  0  0  0
   37.7470   22.1990   34.7220 C   0  0  0  0  0  0  0  0  0  0  0  0
   37.3590   21.8330   33.4930 N   0  0  0  0  0  0  0  0  0  0  0  0
   35.9460   20.7020   32.3430 H   0  0  0  0  0  0  0  0  0  0  0  0
   34.7130   19.9030   34.3900 H   0  0  0  0  0  0  0  0  0  0  0  0
   35.5380   20.6590   36.6440 H   0  0  0  0  0  0  0  0  0  0  0  0
   37.2180   27.1340   32.7120 C   0  0  0  0  0  0  0  0  0  0  0  0
   37.2120   26.6770   31.4290 N   0  0  0  0  0  0  0  0  0  0  0  0
   36.6630   27.6470   30.6430 C   0  0  0  0  0  0  0  0  0  0  0  0
   36.3350   28.6900   31.4310 N   0  0  0  0  0  0  0  0  0  0  0  0
   36.6670   28.3850   32.6830 N   0  0  0  0  0  0  0  0  0  0  0  0
   36.5610   27.4990   29.5980 H   0  0  0  0  0  0  0  0  0  0  0  0
   34.1440   32.6860   29.5640 H   0  0  0  0  0  0  0  0  0  0  0  0
   34.6800   32.0070   30.1150 N   0  0  0  0  0  0  0  0  0  0  0  0
   36.1020   32.0980   30.0040 C   0  0  0  0  0  2  0  0  0  0  0  0
   36.7180   31.0540   30.9190 C   0  0  0  0  0  2  0  0  0  0  0  0
   35.7330   29.9120   30.9950 C   0  0  0  0  0  3  0  0  0  0  0  0
   34.6270   30.3820   31.9270 C   0  0  0  0  0  2  0  0  0  0  0  0
   34.1920   31.7520   31.4360 C   0  0  0  0  0  2  0  0  0  0  0  0
  1  2  1  0  0  0  0
  2  3  2  0  0  0  0
  2  7  1  0  0  0  0
  3  8  1  0  0  0  0
  4  9  1  0  0  0  0
  4  3  1  0  0  0  0
  5  4  2  0  0  0  0
  6  5  1  0  0  0  0
  6  1  2  0  0  0  0
 10  1  1  0  0  0  0
 10 12  1  0  0  0  0
 11 10  1  0  0  0  0
 11 12  1  0  0  0  0
 12 16  1  0  0  0  0
 12 15  1  0  0  0  0
 13 11  1  0  0  0  0
 14 11  1  0  0  0  0
 17 22  2  0  0  0  0
 17 18  1  0  0  0  0
 18 19  2  0  0  0  0
 19 20  1  0  0  0  0
 19 25  1  0  0  0  0
 21 10  1  0  0  0  0
 21 20  2  0  0  0  0
 22 21  1  0  0  0  0
 23 17  1  0  0  0  0
 24 18  1  0  0  0  0
 26  5  1  0  0  0  0
 27 26  1  0  0  0  0
 28 27  2  0  0  0  0
 28 29  1  0  0  0  0
 29 30  1  0  0  0  0
 30 26  2  0  0  0  0
 31 28  1  0  0  0  0
 32 33  1  0  0  0  0
 33 38  1  0  0  0  0
 34 33  1  0  0  0  0
 34 35  1  0  0  0  0
 35 36  1  0  0  0  0
 36 29  1  0  0  0  0
 36 37  1  0  0  0  0
 38 37  1  0  0  0  0
M  END
>  <minimizedAffinity>
-5.71332979

$$$$
