
 OpenBabel03272504183D

 24 25  0  0  0  0  0  0  0  0999 V2000
   34.7300   30.6980   48.6300 O   0  0  0  0  0  0  0  0  0  0  0  0
   35.9450   30.7250   49.3190 C   0  0  0  0  0  0  0  0  0  0  0  0
   36.2560   30.0160   50.4760 C   0  0  0  0  0  0  0  0  0  0  0  0
   37.5180   30.1650   51.0240 C   0  0  0  0  0  0  0  0  0  0  0  0
   38.4180   31.0020   50.4140 N   0  0  0  0  0  0  0  0  0  0  0  0
   38.0670   31.6790   49.2770 C   0  0  0  0  0  0  0  0  0  0  0  0
   36.8390   31.5420   48.7310 N   0  0  0  0  0  0  0  0  0  0  0  0
   37.6820   29.5980   51.9010 H   0  0  0  0  0  0  0  0  0  0  0  0
   38.8300   32.3230   48.8490 H   0  0  0  0  0  0  0  0  0  0  0  0
   35.2110   29.2060   50.9630 N   0  0  0  0  0  0  0  0  0  0  0  0
   35.6590   28.2690   50.8710 H   0  0  0  0  0  0  0  0  0  0  0  0
   34.2520   29.4050   51.3250 H   0  0  0  0  0  0  0  0  0  0  0  0
   35.3580   29.7770   46.1910 O   0  0  0  0  0  0  0  0  0  0  0  0
   34.4190   29.5730   47.3660 P   0  0  1  0  0  0  0  0  0  0  0  0
   34.5900   28.0360   48.0300 O   0  0  0  0  0  0  0  0  0  0  0  0
   34.2090   28.0080   48.9200 H   0  0  0  0  0  0  0  0  0  0  0  0
   32.8730   29.8330   46.7440 O   0  0  0  0  0  0  0  0  0  0  0  0
   29.4490   29.4200   45.5490 H   0  0  0  0  0  0  0  0  0  0  0  0
   29.6820   28.4810   45.2010 N   0  0  0  0  0  0  0  0  0  0  0  0
   30.7590   28.4630   44.2420 C   0  0  0  0  0  2  0  0  0  0  0  0
   32.1030   28.7790   44.7900 C   0  0  0  0  0  2  0  0  0  0  0  0
   32.2960   28.6440   46.2580 C   0  0  0  0  0  3  0  0  0  0  0  0
   31.0930   28.3570   47.0800 C   0  0  0  0  0  2  0  0  0  0  0  0
   30.0100   27.6210   46.3130 C   0  0  0  0  0  2  0  0  0  0  0  0
  1  2  1  0  0  0  0
  2  3  1  0  0  0  0
  3 10  1  0  0  0  0
  3  4  2  0  0  0  0
  4  8  1  0  0  0  0
  5  4  1  0  0  0  0
  6  5  2  0  0  0  0
  7  6  1  0  0  0  0
  7  2  2  0  0  0  0
  9  6  1  0  0  0  0
 10 12  1  0  0  0  0
 11 10  1  0  0  0  0
 14 13  2  6  0  0  0
 14 15  1  0  0  0  0
 14  1  1  0  0  0  0
 15 16  1  0  0  0  0
 17 14  1  0  0  0  0
 19 18  1  0  0  0  0
 19 24  1  0  0  0  0
 20 21  1  0  0  0  0
 20 19  1  0  0  0  0
 21 22  1  0  0  0  0
 22 17  1  0  0  0  0
 22 23  1  0  0  0  0
 24 23  1  0  0  0  0
M  END
>  <minimizedAffinity>
-3.81216097

>  <minimizedRMSD>
1.45171165

$$$$
