
 OpenBabel03272505033D

 27 29  0  0  0  0  0  0  0  0999 V2000
   38.5380   22.4180   33.1550 Cl  0  0  0  0  0  0  0  0  0  0  0  0
   37.2750   23.3410   32.3780 C   0  0  0  0  0  0  0  0  0  0  0  0
   36.1840   22.6740   31.8780 C   0  0  0  0  0  0  0  0  0  0  0  0
   35.2080   23.4570   31.2750 C   0  0  0  0  0  0  0  0  0  0  0  0
   35.3760   24.8350   31.2100 C   0  0  0  0  0  0  0  0  0  0  0  0
   36.4900   25.4500   31.7280 C   0  0  0  0  0  0  0  0  0  0  0  0
   37.4670   24.6980   32.3260 C   0  0  0  0  0  0  0  0  0  0  0  0
   34.3540   22.9250   30.8850 H   0  0  0  0  0  0  0  0  0  0  0  0
   34.5320   25.3040   30.7130 H   0  0  0  0  0  0  0  0  0  0  0  0
   36.4050   26.5040   31.5650 H   0  0  0  0  0  0  0  0  0  0  0  0
   35.5370   20.6000   33.1130 C   0  0  0  0  0  0  0  0  0  0  0  0
   36.0060   21.2180   31.9460 C   0  0  0  0  0  0  0  0  0  0  0  0
   36.2950   20.4120   30.8630 C   0  0  0  0  0  0  0  0  0  0  0  0
   36.1150   19.0770   30.9710 N   0  0  0  0  0  0  0  0  0  0  0  0
   35.6620   18.5100   32.1060 C   0  0  0  0  0  0  0  0  0  0  0  0
   35.3730   19.2660   33.1780 N   0  0  0  0  0  0  0  0  0  0  0  0
   35.3130   21.2260   33.9530 H   0  0  0  0  0  0  0  0  0  0  0  0
   36.6640   20.8410   29.9260 H   0  0  0  0  0  0  0  0  0  0  0  0
   35.5010   17.4500   32.2490 H   0  0  0  0  0  0  0  0  0  0  0  0
   38.5680   25.3200   32.8360 O   0  0  0  0  0  0  0  0  0  0  0  0
   41.0030   24.5150   35.5530 H   0  0  0  0  0  0  0  0  0  0  0  0
   40.3140   25.0750   35.0470 N   0  0  0  0  0  0  0  0  0  0  0  0
   38.9880   25.0140   35.6530 C   0  0  0  0  0  2  0  0  0  0  0  0
   38.1040   26.1050   35.0710 C   0  0  0  0  0  2  0  0  0  0  0  0
   38.5490   26.4380   33.6530 C   0  0  0  0  0  3  0  0  0  0  0  0
   39.9130   27.1100   33.7520 C   0  0  0  0  0  2  0  0  0  0  0  0
   40.7180   26.4390   34.8100 C   0  0  0  0  0  2  0  0  0  0  0  0
  2  1  1  0  0  0  0
  3 12  1  0  0  0  0
  3  2  2  0  0  0  0
  4  3  1  0  0  0  0
  5  4  2  0  0  0  0
  5  6  1  0  0  0  0
  6  7  2  0  0  0  0
  7  2  1  0  0  0  0
  7 20  1  0  0  0  0
  8  4  1  0  0  0  0
  9  5  1  0  0  0  0
 10  6  1  0  0  0  0
 11 16  1  0  0  0  0
 11 17  1  0  0  0  0
 12 11  2  0  0  0  0
 13 14  2  0  0  0  0
 13 12  1  0  0  0  0
 14 15  1  0  0  0  0
 15 19  1  0  0  0  0
 15 16  2  0  0  0  0
 18 13  1  0  0  0  0
 20 25  1  0  0  0  0
 22 21  1  0  0  0  0
 22 23  1  0  0  0  0
 24 23  1  0  0  0  0
 25 26  1  0  0  0  0
 25 24  1  0  0  0  0
 26 27  1  0  0  0  0
 27 22  1  0  0  0  0
M  END
>  <minimizedAffinity>
-4.80724001

$$$$

 OpenBabel03272505033D

 27 29  0  0  0  0  0  0  0  0999 V2000
   38.0940   23.0630   34.1950 Cl  0  0  0  0  0  0  0  0  0  0  0  0
   38.9910   24.5590   34.2940 C   0  0  0  0  0  0  0  0  0  0  0  0
   40.1560   24.5820   35.0200 C   0  0  0  0  0  0  0  0  0  0  0  0
   40.8310   25.7960   35.0620 C   0  0  0  0  0  0  0  0  0  0  0  0
   40.3100   26.8940   34.3860 C   0  0  0  0  0  0  0  0  0  0  0  0
   39.1380   26.8140   33.6750 C   0  0  0  0  0  0  0  0  0  0  0  0
   38.4550   25.6280   33.6210 C   0  0  0  0  0  0  0  0  0  0  0  0
   41.7450   25.8050   35.6340 H   0  0  0  0  0  0  0  0  0  0  0  0
   40.9490   27.7630   34.5130 H   0  0  0  0  0  0  0  0  0  0  0  0
   38.9330   27.7710   33.2440 H   0  0  0  0  0  0  0  0  0  0  0  0
   41.7430   22.6590   35.1810 C   0  0  0  0  0  0  0  0  0  0  0  0
   40.7060   23.4230   35.7330 C   0  0  0  0  0  0  0  0  0  0  0  0
   40.2180   23.0480   36.9690 C   0  0  0  0  0  0  0  0  0  0  0  0
   40.7550   21.9730   37.5890 N   0  0  0  0  0  0  0  0  0  0  0  0
   41.7530   21.2570   37.0340 C   0  0  0  0  0  0  0  0  0  0  0  0
   42.2490   21.5950   35.8330 N   0  0  0  0  0  0  0  0  0  0  0  0
   42.1210   22.9500   34.2220 H   0  0  0  0  0  0  0  0  0  0  0  0
   39.4090   23.6080   37.4470 H   0  0  0  0  0  0  0  0  0  0  0  0
   42.2180   20.3910   37.4830 H   0  0  0  0  0  0  0  0  0  0  0  0
   37.2920   25.5600   32.9120 O   0  0  0  0  0  0  0  0  0  0  0  0
   34.7920   23.1210   31.5850 H   0  0  0  0  0  0  0  0  0  0  0  0
   35.4490   23.9030   31.5490 N   0  0  0  0  0  0  0  0  0  0  0  0
   36.7350   23.5290   30.9690 C   0  0  0  0  0  2  0  0  0  0  0  0
   37.5350   24.7790   30.6410 C   0  0  0  0  0  2  0  0  0  0  0  0
   37.1450   25.9130   31.5810 C   0  0  0  0  0  3  0  0  0  0  0  0
   35.7150   26.3130   31.2390 C   0  0  0  0  0  2  0  0  0  0  0  0
   34.9210   25.0920   30.9290 C   0  0  0  0  0  2  0  0  0  0  0  0
  1  2  1  0  0  0  0
  2  3  1  0  0  0  0
  3  4  2  0  0  0  0
  3 12  1  0  0  0  0
  4  8  1  0  0  0  0
  5  9  1  0  0  0  0
  5  4  1  0  0  0  0
  6  5  2  0  0  0  0
  7  6  1  0  0  0  0
  7  2  2  0  0  0  0
 10  6  1  0  0  0  0
 11 12  2  0  0  0  0
 11 16  1  0  0  0  0
 12 13  1  0  0  0  0
 13 18  1  0  0  0  0
 13 14  2  0  0  0  0
 15 19  1  0  0  0  0
 15 14  1  0  0  0  0
 16 15  2  0  0  0  0
 17 11  1  0  0  0  0
 20  7  1  0  0  0  0
 22 21  1  0  0  0  0
 23 22  1  0  0  0  0
 24 23  1  0  0  0  0
 24 25  1  0  0  0  0
 25 20  1  0  0  0  0
 26 25  1  0  0  0  0
 27 26  1  0  0  0  0
 27 22  1  0  0  0  0
M  END
>  <minimizedAffinity>
-4.78357744

$$$$

 OpenBabel03272505033D

 27 29  0  0  0  0  0  0  0  0999 V2000
   37.3930   25.6110   33.6470 Cl  0  0  0  0  0  0  0  0  0  0  0  0
   39.0480   26.1640   33.7180 C   0  0  0  0  0  0  0  0  0  0  0  0
   39.4890   27.0460   32.7640 C   0  0  0  0  0  0  0  0  0  0  0  0
   40.8120   27.4570   32.8710 C   0  0  0  0  0  0  0  0  0  0  0  0
   41.6000   26.9710   33.9080 C   0  0  0  0  0  0  0  0  0  0  0  0
   41.1050   26.0870   34.8360 C   0  0  0  0  0  0  0  0  0  0  0  0
   39.8040   25.6670   34.7490 C   0  0  0  0  0  0  0  0  0  0  0  0
   41.1510   28.1510   32.1170 H   0  0  0  0  0  0  0  0  0  0  0  0
   42.6030   27.3830   33.8560 H   0  0  0  0  0  0  0  0  0  0  0  0
   41.8820   25.8510   35.5320 H   0  0  0  0  0  0  0  0  0  0  0  0
   39.0580   27.4310   30.3330 C   0  0  0  0  0  0  0  0  0  0  0  0
   38.6580   27.5610   31.6690 C   0  0  0  0  0  0  0  0  0  0  0  0
   37.4550   28.1910   31.9220 C   0  0  0  0  0  0  0  0  0  0  0  0
   36.7220   28.6490   30.8830 N   0  0  0  0  0  0  0  0  0  0  0  0
   37.1320   28.5090   29.6070 C   0  0  0  0  0  0  0  0  0  0  0  0
   38.2970   27.9020   29.3270 N   0  0  0  0  0  0  0  0  0  0  0  0
   39.9910   26.9420   30.1370 H   0  0  0  0  0  0  0  0  0  0  0  0
   37.0930   28.3200   32.9470 H   0  0  0  0  0  0  0  0  0  0  0  0
   36.5890   28.8560   28.7390 H   0  0  0  0  0  0  0  0  0  0  0  0
   39.3240   24.7900   35.6770 O   0  0  0  0  0  0  0  0  0  0  0  0
   36.4250   23.1410   37.3620 H   0  0  0  0  0  0  0  0  0  0  0  0
   37.3530   23.2010   36.9360 N   0  0  0  0  0  0  0  0  0  0  0  0
   38.4220   23.2630   37.9270 C   0  0  0  0  0  2  0  0  0  0  0  0
   39.7620   23.0170   37.2540 C   0  0  0  0  0  2  0  0  0  0  0  0
   39.7100   23.4660   35.8000 C   0  0  0  0  0  3  0  0  0  0  0  0
   38.7710   22.5160   35.0660 C   0  0  0  0  0  2  0  0  0  0  0  0
   37.6150   22.1870   35.9460 C   0  0  0  0  0  2  0  0  0  0  0  0
  1  2  1  0  0  0  0
  2  7  1  0  0  0  0
  3  4  1  0  0  0  0
  3  2  2  0  0  0  0
  4  5  2  0  0  0  0
  5  6  1  0  0  0  0
  6 10  1  0  0  0  0
  7  6  2  0  0  0  0
  7 20  1  0  0  0  0
  8  4  1  0  0  0  0
  9  5  1  0  0  0  0
 11 12  1  0  0  0  0
 12 13  2  0  0  0  0
 12  3  1  0  0  0  0
 13 18  1  0  0  0  0
 14 13  1  0  0  0  0
 15 14  2  0  0  0  0
 16 15  1  0  0  0  0
 16 11  2  0  0  0  0
 17 11  1  0  0  0  0
 19 15  1  0  0  0  0
 20 25  1  0  0  0  0
 22 21  1  0  0  0  0
 22 23  1  0  0  0  0
 24 23  1  0  0  0  0
 25 24  1  0  0  0  0
 26 25  1  0  0  0  0
 26 27  1  0  0  0  0
 27 22  1  0  0  0  0
M  END
>  <minimizedAffinity>
-4.69906378

$$$$

 OpenBabel03272505033D

 27 29  0  0  0  0  0  0  0  0999 V2000
   40.2920   24.7940   33.7430 Cl  0  0  0  0  0  0  0  0  0  0  0  0
   38.9590   25.9200   33.8200 C   0  0  0  0  0  0  0  0  0  0  0  0
   38.6790   26.6870   32.7160 C   0  0  0  0  0  0  0  0  0  0  0  0
   37.6050   27.5610   32.8300 C   0  0  0  0  0  0  0  0  0  0  0  0
   36.8880   27.6160   34.0200 C   0  0  0  0  0  0  0  0  0  0  0  0
   37.2140   26.8250   35.0950 C   0  0  0  0  0  0  0  0  0  0  0  0
   38.2690   25.9560   35.0050 C   0  0  0  0  0  0  0  0  0  0  0  0
   37.3920   28.1590   31.9580 H   0  0  0  0  0  0  0  0  0  0  0  0
   36.0850   28.3430   33.9520 H   0  0  0  0  0  0  0  0  0  0  0  0
   36.5330   27.0350   35.8930 H   0  0  0  0  0  0  0  0  0  0  0  0
   39.0430   25.7790   30.4160 C   0  0  0  0  0  0  0  0  0  0  0  0
   39.4350   26.6290   31.4590 C   0  0  0  0  0  0  0  0  0  0  0  0
   40.5580   27.4090   31.2650 C   0  0  0  0  0  0  0  0  0  0  0  0
   41.2240   27.3230   30.0920 N   0  0  0  0  0  0  0  0  0  0  0  0
   40.8220   26.4970   29.1060 C   0  0  0  0  0  0  0  0  0  0  0  0
   39.7350   25.7250   29.2630 N   0  0  0  0  0  0  0  0  0  0  0  0
   38.1710   25.1750   30.5660 H   0  0  0  0  0  0  0  0  0  0  0  0
   40.9100   28.0900   32.0460 H   0  0  0  0  0  0  0  0  0  0  0  0
   41.3150   26.3870   28.1500 H   0  0  0  0  0  0  0  0  0  0  0  0
   38.5830   25.1760   36.0790 O   0  0  0  0  0  0  0  0  0  0  0  0
   40.7880   22.5350   37.5360 H   0  0  0  0  0  0  0  0  0  0  0  0
   39.9080   23.0090   37.3220 N   0  0  0  0  0  0  0  0  0  0  0  0
   39.1850   22.3790   36.2210 C   0  0  0  0  0  2  0  0  0  0  0  0
   37.7620   22.9090   36.1710 C   0  0  0  0  0  2  0  0  0  0  0  0
   37.7090   24.3240   36.7310 C   0  0  0  0  0  3  0  0  0  0  0  0
   37.9930   24.2300   38.2250 C   0  0  0  0  0  2  0  0  0  0  0  0
   39.0520   23.2100   38.4630 C   0  0  0  0  0  2  0  0  0  0  0  0
  1  2  1  0  0  0  0
  2  7  1  0  0  0  0
  3  4  1  0  0  0  0
  3  2  2  0  0  0  0
  4  5  2  0  0  0  0
  5  6  1  0  0  0  0
  6 10  1  0  0  0  0
  7  6  2  0  0  0  0
  7 20  1  0  0  0  0
  8  4  1  0  0  0  0
  9  5  1  0  0  0  0
 11 17  1  0  0  0  0
 11 12  1  0  0  0  0
 12  3  1  0  0  0  0
 13 12  2  0  0  0  0
 13 18  1  0  0  0  0
 14 13  1  0  0  0  0
 15 16  1  0  0  0  0
 15 14  2  0  0  0  0
 16 11  2  0  0  0  0
 19 15  1  0  0  0  0
 20 25  1  0  0  0  0
 22 21  1  0  0  0  0
 22 27  1  0  0  0  0
 23 22  1  0  0  0  0
 24 23  1  0  0  0  0
 24 25  1  0  0  0  0
 25 26  1  0  0  0  0
 26 27  1  0  0  0  0
M  END
>  <minimizedAffinity>
-4.69107389

$$$$

 OpenBabel03272505033D

 27 29  0  0  0  0  0  0  0  0999 V2000
   35.7210   24.3900   30.8210 Cl  0  0  0  0  0  0  0  0  0  0  0  0
   36.7480   24.2630   32.2280 C   0  0  0  0  0  0  0  0  0  0  0  0
   37.1930   23.0210   32.6100 C   0  0  0  0  0  0  0  0  0  0  0  0
   38.0100   22.9780   33.7320 C   0  0  0  0  0  0  0  0  0  0  0  0
   38.3300   24.1590   34.3940 C   0  0  0  0  0  0  0  0  0  0  0  0
   37.8560   25.3760   33.9670 C   0  0  0  0  0  0  0  0  0  0  0  0
   37.0470   25.4410   32.8630 C   0  0  0  0  0  0  0  0  0  0  0  0
   38.3550   21.9990   34.0250 H   0  0  0  0  0  0  0  0  0  0  0  0
   38.9740   23.9610   35.2450 H   0  0  0  0  0  0  0  0  0  0  0  0
   38.2270   26.1360   34.6210 H   0  0  0  0  0  0  0  0  0  0  0  0
   37.6750   21.2710   30.8930 C   0  0  0  0  0  0  0  0  0  0  0  0
   36.8560   21.7740   31.9120 C   0  0  0  0  0  0  0  0  0  0  0  0
   35.7200   21.0590   32.2360 C   0  0  0  0  0  0  0  0  0  0  0  0
   35.4490   19.9170   31.5670 N   0  0  0  0  0  0  0  0  0  0  0  0
   36.2560   19.4560   30.5910 C   0  0  0  0  0  0  0  0  0  0  0  0
   37.3680   20.1270   30.2520 N   0  0  0  0  0  0  0  0  0  0  0  0
   38.5570   21.8250   30.6420 H   0  0  0  0  0  0  0  0  0  0  0  0
   35.0430   21.4070   33.0240 H   0  0  0  0  0  0  0  0  0  0  0  0
   36.0890   18.5510   30.0240 H   0  0  0  0  0  0  0  0  0  0  0  0
   36.5820   26.6550   32.4490 O   0  0  0  0  0  0  0  0  0  0  0  0
   36.2180   27.8680   28.9340 H   0  0  0  0  0  0  0  0  0  0  0  0
   36.5490   27.8810   29.9010 N   0  0  0  0  0  0  0  0  0  0  0  0
   37.9220   27.4030   30.0300 C   0  0  0  0  0  2  0  0  0  0  0  0
   38.4620   27.7530   31.4070 C   0  0  0  0  0  2  0  0  0  0  0  0
   37.3220   27.8250   32.4140 C   0  0  0  0  0  3  0  0  0  0  0  0
   36.4740   29.0380   32.0530 C   0  0  0  0  0  2  0  0  0  0  0  0
   36.3690   29.1440   30.5720 C   0  0  0  0  0  2  0  0  0  0  0  0
  1  2  1  0  0  0  0
  2  3  2  0  0  0  0
  2  7  1  0  0  0  0
  3  4  1  0  0  0  0
  4  8  1  0  0  0  0
  4  5  2  0  0  0  0
  5  9  1  0  0  0  0
  6  5  1  0  0  0  0
  6 10  1  0  0  0  0
  7  6  2  0  0  0  0
 11 12  1  0  0  0  0
 12 13  2  0  0  0  0
 12  3  1  0  0  0  0
 13 18  1  0  0  0  0
 14 13  1  0  0  0  0
 15 14  2  0  0  0  0
 16 15  1  0  0  0  0
 16 11  2  0  0  0  0
 17 11  1  0  0  0  0
 19 15  1  0  0  0  0
 20  7  1  0  0  0  0
 21 22  1  0  0  0  0
 22 23  1  0  0  0  0
 22 27  1  0  0  0  0
 23 24  1  0  0  0  0
 24 25  1  0  0  0  0
 25 20  1  0  0  0  0
 26 25  1  0  0  0  0
 27 26  1  0  0  0  0
M  END
>  <minimizedAffinity>
-4.6442647

$$$$

 OpenBabel03272505033D

 27 29  0  0  0  0  0  0  0  0999 V2000
   36.4450   27.9460   34.6930 Cl  0  0  0  0  0  0  0  0  0  0  0  0
   36.1830   28.8640   33.2300 C   0  0  0  0  0  0  0  0  0  0  0  0
   35.5500   30.0790   33.3190 C   0  0  0  0  0  0  0  0  0  0  0  0
   35.3720   30.7690   32.1270 C   0  0  0  0  0  0  0  0  0  0  0  0
   35.8290   30.2130   30.9370 C   0  0  0  0  0  0  0  0  0  0  0  0
   36.4560   28.9910   30.9070 C   0  0  0  0  0  0  0  0  0  0  0  0
   36.6410   28.2920   32.0710 C   0  0  0  0  0  0  0  0  0  0  0  0
   34.8750   31.7230   32.2060 H   0  0  0  0  0  0  0  0  0  0  0  0
   35.6170   30.8690   30.0990 H   0  0  0  0  0  0  0  0  0  0  0  0
   36.7170   28.7660   29.8940 H   0  0  0  0  0  0  0  0  0  0  0  0
   33.7440   30.4870   34.9970 C   0  0  0  0  0  0  0  0  0  0  0  0
   35.0680   30.6670   34.5750 C   0  0  0  0  0  0  0  0  0  0  0  0
   35.9030   31.4180   35.3790 C   0  0  0  0  0  0  0  0  0  0  0  0
   35.4150   31.9400   36.5270 N   0  0  0  0  0  0  0  0  0  0  0  0
   34.1370   31.7490   36.9080 C   0  0  0  0  0  0  0  0  0  0  0  0
   33.3000   31.0250   36.1490 N   0  0  0  0  0  0  0  0  0  0  0  0
   33.0970   29.9040   34.3740 H   0  0  0  0  0  0  0  0  0  0  0  0
   36.9460   31.5910   35.0980 H   0  0  0  0  0  0  0  0  0  0  0  0
   33.6940   32.1430   37.8120 H   0  0  0  0  0  0  0  0  0  0  0  0
   37.2640   27.0800   32.0270 O   0  0  0  0  0  0  0  0  0  0  0  0
   37.5200   23.7110   33.6230 H   0  0  0  0  0  0  0  0  0  0  0  0
   37.4430   24.3820   32.8560 N   0  0  0  0  0  0  0  0  0  0  0  0
   38.7170   24.6150   32.1840 C   0  0  0  0  0  2  0  0  0  0  0  0
   38.4810   25.3450   30.8720 C   0  0  0  0  0  2  0  0  0  0  0  0
   37.2200   26.1950   30.9640 C   0  0  0  0  0  3  0  0  0  0  0  0
   36.0360   25.2400   31.0500 C   0  0  0  0  0  2  0  0  0  0  0  0
   36.3990   24.0790   31.9080 C   0  0  0  0  0  2  0  0  0  0  0  0
  2  3  1  0  0  0  0
  2  1  1  0  0  0  0
  3 12  1  0  0  0  0
  4  8  1  0  0  0  0
  4  3  2  0  0  0  0
  5  4  1  0  0  0  0
  6  5  2  0  0  0  0
  6  7  1  0  0  0  0
  7  2  2  0  0  0  0
  9  5  1  0  0  0  0
 10  6  1  0  0  0  0
 11 16  1  0  0  0  0
 12 11  2  0  0  0  0
 12 13  1  0  0  0  0
 13 14  2  0  0  0  0
 14 15  1  0  0  0  0
 15 19  1  0  0  0  0
 16 15  2  0  0  0  0
 17 11  1  0  0  0  0
 18 13  1  0  0  0  0
 20  7  1  0  0  0  0
 22 21  1  0  0  0  0
 23 22  1  0  0  0  0
 24 25  1  0  0  0  0
 24 23  1  0  0  0  0
 25 26  1  0  0  0  0
 25 20  1  0  0  0  0
 26 27  1  0  0  0  0
 27 22  1  0  0  0  0
M  END
>  <minimizedAffinity>
-4.6432271

$$$$

 OpenBabel03272505033D

 27 29  0  0  0  0  0  0  0  0999 V2000
   36.4260   25.7350   32.0690 Cl  0  0  0  0  0  0  0  0  0  0  0  0
   37.1300   26.3230   33.5560 C   0  0  0  0  0  0  0  0  0  0  0  0
   36.9450   27.6390   33.8970 C   0  0  0  0  0  0  0  0  0  0  0  0
   37.5220   28.0520   35.0910 C   0  0  0  0  0  0  0  0  0  0  0  0
   38.2370   27.1400   35.8600 C   0  0  0  0  0  0  0  0  0  0  0  0
   38.3910   25.8320   35.4680 C   0  0  0  0  0  0  0  0  0  0  0  0
   37.8320   25.4030   34.2940 C   0  0  0  0  0  0  0  0  0  0  0  0
   37.3720   29.0880   35.3520 H   0  0  0  0  0  0  0  0  0  0  0  0
   38.6240   27.6120   36.7580 H   0  0  0  0  0  0  0  0  0  0  0  0
   38.9730   25.3210   36.2060 H   0  0  0  0  0  0  0  0  0  0  0  0
   36.6710   29.0390   31.8450 C   0  0  0  0  0  0  0  0  0  0  0  0
   36.1900   28.6030   33.0870 C   0  0  0  0  0  0  0  0  0  0  0  0
   34.9820   29.1110   33.5230 C   0  0  0  0  0  0  0  0  0  0  0  0
   34.3210   29.9960   32.7430 N   0  0  0  0  0  0  0  0  0  0  0  0
   34.8090   30.3970   31.5520 C   0  0  0  0  0  0  0  0  0  0  0  0
   35.9800   29.9220   31.1000 N   0  0  0  0  0  0  0  0  0  0  0  0
   37.6080   28.6440   31.5070 H   0  0  0  0  0  0  0  0  0  0  0  0
   34.5590   28.8050   34.4850 H   0  0  0  0  0  0  0  0  0  0  0  0
   34.3250   31.1010   30.8900 H   0  0  0  0  0  0  0  0  0  0  0  0
   37.9920   24.1030   33.9150 O   0  0  0  0  0  0  0  0  0  0  0  0
   37.5430   20.9830   31.9090 H   0  0  0  0  0  0  0  0  0  0  0  0
   37.8480   21.5530   32.7010 N   0  0  0  0  0  0  0  0  0  0  0  0
   36.9640   21.4300   33.8550 C   0  0  0  0  0  2  0  0  0  0  0  0
   37.6350   22.0210   35.0830 C   0  0  0  0  0  2  0  0  0  0  0  0
   38.6060   23.1200   34.6720 C   0  0  0  0  0  3  0  0  0  0  0  0
   39.7590   22.4520   33.9330 C   0  0  0  0  0  2  0  0  0  0  0  0
   39.2270   21.3580   33.0740 C   0  0  0  0  0  2  0  0  0  0  0  0
  1  2  1  0  0  0  0
  2  3  2  0  0  0  0
  2  7  1  0  0  0  0
  3  4  1  0  0  0  0
  4  8  1  0  0  0  0
  4  5  2  0  0  0  0
  5  9  1  0  0  0  0
  6  5  1  0  0  0  0
  6 10  1  0  0  0  0
  7  6  2  0  0  0  0
 11 12  1  0  0  0  0
 12 13  2  0  0  0  0
 12  3  1  0  0  0  0
 13 18  1  0  0  0  0
 14 13  1  0  0  0  0
 15 14  2  0  0  0  0
 16 15  1  0  0  0  0
 16 11  2  0  0  0  0
 17 11  1  0  0  0  0
 19 15  1  0  0  0  0
 20  7  1  0  0  0  0
 20 25  1  0  0  0  0
 21 22  1  0  0  0  0
 22 27  1  0  0  0  0
 22 23  1  0  0  0  0
 23 24  1  0  0  0  0
 25 24  1  0  0  0  0
 26 25  1  0  0  0  0
 27 26  1  0  0  0  0
M  END
>  <minimizedAffinity>
-4.60987902

$$$$

 OpenBabel03272505033D

 27 29  0  0  0  0  0  0  0  0999 V2000
   37.9300   27.3780   35.5440 Cl  0  0  0  0  0  0  0  0  0  0  0  0
   37.5490   26.4300   34.1270 C   0  0  0  0  0  0  0  0  0  0  0  0
   37.8520   25.0920   34.1280 C   0  0  0  0  0  0  0  0  0  0  0  0
   37.5230   24.3850   32.9780 C   0  0  0  0  0  0  0  0  0  0  0  0
   36.9200   25.0480   31.9150 C   0  0  0  0  0  0  0  0  0  0  0  0
   36.6400   26.3920   31.9690 C   0  0  0  0  0  0  0  0  0  0  0  0
   36.9560   27.1080   33.0920 C   0  0  0  0  0  0  0  0  0  0  0  0
   37.7650   23.3340   32.9870 H   0  0  0  0  0  0  0  0  0  0  0  0
   36.7260   24.3630   31.0950 H   0  0  0  0  0  0  0  0  0  0  0  0
   36.1820   26.6820   31.0470 H   0  0  0  0  0  0  0  0  0  0  0  0
   37.7580   24.0420   36.3940 C   0  0  0  0  0  0  0  0  0  0  0  0
   38.4890   24.3920   35.2510 C   0  0  0  0  0  0  0  0  0  0  0  0
   39.8280   24.0570   35.2160 C   0  0  0  0  0  0  0  0  0  0  0  0
   40.3720   23.4130   36.2730 N   0  0  0  0  0  0  0  0  0  0  0  0
   39.6440   23.0880   37.3590 C   0  0  0  0  0  0  0  0  0  0  0  0
   38.3400   23.4000   37.4240 N   0  0  0  0  0  0  0  0  0  0  0  0
   36.7190   24.3010   36.4200 H   0  0  0  0  0  0  0  0  0  0  0  0
   40.4470   24.3060   34.3480 H   0  0  0  0  0  0  0  0  0  0  0  0
   40.0260   22.5750   38.2310 H   0  0  0  0  0  0  0  0  0  0  0  0
   36.6730   28.4420   33.1330 O   0  0  0  0  0  0  0  0  0  0  0  0
   35.5360   31.2900   35.2680 H   0  0  0  0  0  0  0  0  0  0  0  0
   35.5570   30.6860   34.4440 N   0  0  0  0  0  0  0  0  0  0  0  0
   34.4610   29.7220   34.4280 C   0  0  0  0  0  2  0  0  0  0  0  0
   34.3500   29.0920   33.0490 C   0  0  0  0  0  2  0  0  0  0  0  0
   35.7120   29.0790   32.3670 C   0  0  0  0  0  3  0  0  0  0  0  0
   36.0780   30.5260   32.0610 C   0  0  0  0  0  2  0  0  0  0  0  0
   35.6500   31.3940   33.1920 C   0  0  0  0  0  2  0  0  0  0  0  0
  2  3  1  0  0  0  0
  2  1  1  0  0  0  0
  3 12  1  0  0  0  0
  4  8  1  0  0  0  0
  4  3  2  0  0  0  0
  5  6  2  0  0  0  0
  5  4  1  0  0  0  0
  6  7  1  0  0  0  0
  7 20  1  0  0  0  0
  7  2  2  0  0  0  0
  9  5  1  0  0  0  0
 10  6  1  0  0  0  0
 11 17  1  0  0  0  0
 11 16  1  0  0  0  0
 12 11  2  0  0  0  0
 13 12  1  0  0  0  0
 13 14  2  0  0  0  0
 14 15  1  0  0  0  0
 15 16  2  0  0  0  0
 15 19  1  0  0  0  0
 18 13  1  0  0  0  0
 22 21  1  0  0  0  0
 23 22  1  0  0  0  0
 24 23  1  0  0  0  0
 25 24  1  0  0  0  0
 25 20  1  0  0  0  0
 26 25  1  0  0  0  0
 26 27  1  0  0  0  0
 27 22  1  0  0  0  0
M  END
>  <minimizedAffinity>
-4.57064867

$$$$

 OpenBabel03272505033D

 27 29  0  0  0  0  0  0  0  0999 V2000
   38.4670   22.5220   33.6860 Cl  0  0  0  0  0  0  0  0  0  0  0  0
   37.3030   23.3570   32.6860 C   0  0  0  0  0  0  0  0  0  0  0  0
   37.2210   24.7240   32.7710 C   0  0  0  0  0  0  0  0  0  0  0  0
   36.2830   25.3370   31.9500 C   0  0  0  0  0  0  0  0  0  0  0  0
   35.4970   24.5600   31.1070 C   0  0  0  0  0  0  0  0  0  0  0  0
   35.6220   23.1920   31.0630 C   0  0  0  0  0  0  0  0  0  0  0  0
   36.5400   22.5670   31.8640 C   0  0  0  0  0  0  0  0  0  0  0  0
   36.2250   26.4120   32.0240 H   0  0  0  0  0  0  0  0  0  0  0  0
   34.8170   25.1820   30.5320 H   0  0  0  0  0  0  0  0  0  0  0  0
   34.9230   22.8080   30.3500 H   0  0  0  0  0  0  0  0  0  0  0  0
   37.6420   25.8340   34.9710 C   0  0  0  0  0  0  0  0  0  0  0  0
   38.0510   25.5460   33.6610 C   0  0  0  0  0  0  0  0  0  0  0  0
   39.2590   26.0610   33.2370 C   0  0  0  0  0  0  0  0  0  0  0  0
   39.9900   26.8130   34.0900 N   0  0  0  0  0  0  0  0  0  0  0  0
   39.5720   27.0730   35.3450 C   0  0  0  0  0  0  0  0  0  0  0  0
   38.4020   26.5870   35.7880 N   0  0  0  0  0  0  0  0  0  0  0  0
   36.7050   25.4330   35.3000 H   0  0  0  0  0  0  0  0  0  0  0  0
   39.6270   25.8680   32.2240 H   0  0  0  0  0  0  0  0  0  0  0  0
   40.1130   27.6660   36.0690 H   0  0  0  0  0  0  0  0  0  0  0  0
   36.6540   21.2090   31.8120 O   0  0  0  0  0  0  0  0  0  0  0  0
   38.0940   17.8060   32.3700 H   0  0  0  0  0  0  0  0  0  0  0  0
   37.4330   18.4970   32.0100 N   0  0  0  0  0  0  0  0  0  0  0  0
   37.6640   18.8150   30.6050 C   0  0  0  0  0  2  0  0  0  0  0  0
   36.4720   19.5740   30.0450 C   0  0  0  0  0  2  0  0  0  0  0  0
   35.7820   20.3580   31.1540 C   0  0  0  0  0  3  0  0  0  0  0  0
   35.1410   19.3430   32.0930 C   0  0  0  0  0  2  0  0  0  0  0  0
   36.0490   18.1740   32.2520 C   0  0  0  0  0  2  0  0  0  0  0  0
  2  3  1  0  0  0  0
  2  1  1  0  0  0  0
  3 12  1  0  0  0  0
  4  8  1  0  0  0  0
  4  3  2  0  0  0  0
  5  4  1  0  0  0  0
  6  5  2  0  0  0  0
  6  7  1  0  0  0  0
  7  2  2  0  0  0  0
  9  5  1  0  0  0  0
 10  6  1  0  0  0  0
 11 17  1  0  0  0  0
 11 16  1  0  0  0  0
 12 11  2  0  0  0  0
 13 12  1  0  0  0  0
 13 14  2  0  0  0  0
 14 15  1  0  0  0  0
 15 16  2  0  0  0  0
 15 19  1  0  0  0  0
 18 13  1  0  0  0  0
 20  7  1  0  0  0  0
 22 27  1  0  0  0  0
 22 21  1  0  0  0  0
 23 22  1  0  0  0  0
 24 23  1  0  0  0  0
 24 25  1  0  0  0  0
 25 20  1  0  0  0  0
 25 26  1  0  0  0  0
 26 27  1  0  0  0  0
M  END
>  <minimizedAffinity>
-4.53616619

$$$$
