
 OpenBabel03272508023D

 26 28  0  0  0  0  0  0  0  0999 V2000
   36.9200   30.7550   45.1750 C   0  0  0  0  0  0  0  0  0  0  0  0
   38.2780   30.5460   45.2170 C   0  0  0  0  0  0  0  0  0  0  0  0
   38.8870   31.2850   44.1840 C   0  0  0  0  0  0  0  0  0  0  0  0
   37.8460   31.9180   43.5530 N   0  0  0  0  0  0  0  0  0  0  0  0
   36.7130   31.6010   44.1380 N   0  0  0  0  0  0  0  0  0  0  0  0
   38.8060   29.9090   45.9360 H   0  0  0  0  0  0  0  0  0  0  0  0
   39.9470   31.3180   43.9700 H   0  0  0  0  0  0  0  0  0  0  0  0
   35.8990   30.1940   46.0490 C   0  0  0  0  0  0  0  0  0  0  0  0
   36.0550   30.4070   47.4500 C   0  0  0  0  0  0  0  0  0  0  0  0
   35.0860   29.8760   48.3090 C   0  0  0  0  0  0  0  0  0  0  0  0
   34.0520   29.1900   47.7560 N   0  0  0  0  0  0  0  0  0  0  0  0
   33.9360   29.0070   46.4190 C   0  0  0  0  0  0  0  0  0  0  0  0
   34.8640   29.5140   45.5880 N   0  0  0  0  0  0  0  0  0  0  0  0
   36.9230   30.9730   47.7940 H   0  0  0  0  0  0  0  0  0  0  0  0
   33.0740   28.4460   46.0880 H   0  0  0  0  0  0  0  0  0  0  0  0
   35.2320   30.0870   49.7640 C   0  0  0  0  0  0  0  0  0  0  0  0
   35.7670   31.3520   49.9140 F   0  0  0  0  0  0  0  0  0  0  0  0
   34.0140   30.0420   50.4340 F   0  0  0  0  0  0  0  0  0  0  0  0
   36.1060   29.1750   50.3450 F   0  0  0  0  0  0  0  0  0  0  0  0
   38.3480   34.7040   40.7080 H   0  0  0  0  0  0  0  0  0  0  0  0
   38.0670   33.9580   40.0500 N   0  0  0  0  0  0  0  0  0  0  0  0
   36.7220   33.5090   40.4090 C   0  0  0  0  0  2  0  0  0  0  0  0
   36.7130   33.3270   41.9270 C   0  0  0  0  0  2  0  0  0  0  0  0
   38.0320   32.7950   42.4130 C   0  0  0  0  0  3  0  0  0  0  0  0
   38.7120   31.9790   41.3290 C   0  0  0  0  0  2  0  0  0  0  0  0
   38.9390   32.8040   40.0920 C   0  0  0  0  0  2  0  0  0  0  0  0
  1  2  1  0  0  0  0
  1  8  1  0  0  0  0
  2  6  1  0  0  0  0
  3  2  2  0  0  0  0
  4  5  1  0  0  0  0
  4  3  1  0  0  0  0
  5  1  2  0  0  0  0
  7  3  1  0  0  0  0
  8  9  1  0  0  0  0
  9 14  1  0  0  0  0
  9 10  2  0  0  0  0
 10 16  1  0  0  0  0
 11 10  1  0  0  0  0
 12 11  2  0  0  0  0
 13  8  2  0  0  0  0
 13 12  1  0  0  0  0
 15 12  1  0  0  0  0
 16 17  1  0  0  0  0
 16 19  1  0  0  0  0
 16 18  1  0  0  0  0
 21 26  1  0  0  0  0
 21 22  1  0  0  0  0
 21 20  1  0  0  0  0
 22 23  1  0  0  0  0
 23 24  1  0  0  0  0
 24  4  1  0  0  0  0
 25 24  1  0  0  0  0
 26 25  1  0  0  0  0
M  END
>  <minimizedAffinity>
-4.59975815

>  <minimizedRMSD>
3.5583694

$$$$
