
 OpenBabel03272505033D

 27 29  0  0  0  0  0  0  0  0999 V2000
   37.0610   30.6110   46.7970 Cl  0  0  0  0  0  0  0  0  0  0  0  0
   37.9040   31.8480   47.6990 C   0  0  0  0  0  0  0  0  0  0  0  0
   37.7490   31.8900   49.0620 C   0  0  0  0  0  0  0  0  0  0  0  0
   38.4450   32.8900   49.7300 C   0  0  0  0  0  0  0  0  0  0  0  0
   39.2420   33.7710   49.0070 C   0  0  0  0  0  0  0  0  0  0  0  0
   39.3590   33.6820   47.6410 C   0  0  0  0  0  0  0  0  0  0  0  0
   38.6810   32.7050   46.9620 C   0  0  0  0  0  0  0  0  0  0  0  0
   38.3180   32.9160   50.8000 H   0  0  0  0  0  0  0  0  0  0  0  0
   39.7180   34.4900   49.6670 H   0  0  0  0  0  0  0  0  0  0  0  0
   40.0160   34.4560   47.3030 H   0  0  0  0  0  0  0  0  0  0  0  0
   37.4160   30.2680   50.9340 C   0  0  0  0  0  0  0  0  0  0  0  0
   36.9090   30.9590   49.8260 C   0  0  0  0  0  0  0  0  0  0  0  0
   35.5920   30.7350   49.4750 C   0  0  0  0  0  0  0  0  0  0  0  0
   34.8550   29.8690   50.2070 N   0  0  0  0  0  0  0  0  0  0  0  0
   35.3700   29.2190   51.2690 C   0  0  0  0  0  0  0  0  0  0  0  0
   36.6470   29.4140   51.6350 N   0  0  0  0  0  0  0  0  0  0  0  0
   38.4370   30.4430   51.2060 H   0  0  0  0  0  0  0  0  0  0  0  0
   35.1440   31.2480   48.6190 H   0  0  0  0  0  0  0  0  0  0  0  0
   34.8300   28.5160   51.8880 H   0  0  0  0  0  0  0  0  0  0  0  0
   38.8050   32.6270   45.6060 O   0  0  0  0  0  0  0  0  0  0  0  0
   40.0860   29.4590   44.0950 H   0  0  0  0  0  0  0  0  0  0  0  0
   40.0700   30.4600   44.3020 N   0  0  0  0  0  0  0  0  0  0  0  0
   41.0220   30.8320   45.3430 C   0  0  0  0  0  0  0  0  0  0  0  0
   41.1900   32.3420   45.3710 C   0  0  0  0  0  0  0  0  0  0  0  0
   39.9170   33.0200   44.8810 C   0  0  0  0  0  0  0  0  0  0  0  0
   39.7820   32.7110   43.3950 C   0  0  0  0  0  0  0  0  0  0  0  0
   40.2040   31.3060   43.1430 C   0  0  0  0  0  0  0  0  0  0  0  0
  1  2  1  0  0  0  0
  2  3  1  0  0  0  0
  3  4  2  0  0  0  0
  3 12  1  0  0  0  0
  4  8  1  0  0  0  0
  5  9  1  0  0  0  0
  5  4  1  0  0  0  0
  6  5  2  0  0  0  0
  7  6  1  0  0  0  0
  7  2  2  0  0  0  0
 10  6  1  0  0  0  0
 11 17  1  0  0  0  0
 11 16  1  0  0  0  0
 12 11  2  0  0  0  0
 13 12  1  0  0  0  0
 13 14  2  0  0  0  0
 14 15  1  0  0  0  0
 15 16  2  0  0  0  0
 15 19  1  0  0  0  0
 18 13  1  0  0  0  0
 20  7  1  0  0  0  0
 21 22  1  0  0  0  0
 22 23  1  0  0  0  0
 23 24  1  0  0  0  0
 25 24  1  0  0  0  0
 25 20  1  0  0  0  0
 26 25  1  0  0  0  0
 27 26  1  0  0  0  0
 27 22  1  0  0  0  0
M  END
>  <minimizedAffinity>
-6.13447618

>  <minimizedRMSD>
2.04824638

$$$$
