
 OpenBabel03262522293D

 44 47  0  0  0  0  0  0  0  0999 V2000
   35.3760   23.9070   31.2320 C   0  0  0  0  0  0  0  0  0  0  0  0
   35.9570   22.8720   31.9850 C   0  0  0  0  0  0  0  0  0  0  0  0
   37.2910   22.9720   32.2350 C   0  0  0  0  0  0  0  0  0  0  0  0
   37.9770   24.0380   31.7540 N   0  0  0  0  0  0  0  0  0  0  0  0
   37.4100   24.9830   31.0570 C   0  0  0  0  0  0  0  0  0  0  0  0
   36.0680   24.9600   30.7610 N   0  0  0  0  0  0  0  0  0  0  0  0
   34.3270   23.9310   30.9740 H   0  0  0  0  0  0  0  0  0  0  0  0
   37.7610   22.1850   32.8140 H   0  0  0  0  0  0  0  0  0  0  0  0
   35.1540   21.8670   32.4020 O   0  0  0  0  0  0  0  0  0  0  0  0
   35.5320   20.5530   32.1470 C   0  0  0  0  0  0  0  0  0  0  0  0
   35.5540   19.4860   33.0160 C   0  0  0  0  0  0  0  0  0  0  0  0
   35.9570   18.2740   32.5810 C   0  0  0  0  0  0  0  0  0  0  0  0
   36.3340   18.1350   31.2840 C   0  0  0  0  0  0  0  0  0  0  0  0
   36.3130   19.2170   30.3980 C   0  0  0  0  0  0  0  0  0  0  0  0
   35.9040   20.4290   30.8600 N   0  0  0  0  0  0  0  0  0  0  0  0
   35.2320   19.7220   34.0200 H   0  0  0  0  0  0  0  0  0  0  0  0
   35.9460   17.4850   33.3240 H   0  0  0  0  0  0  0  0  0  0  0  0
   36.6600   17.1550   30.9310 H   0  0  0  0  0  0  0  0  0  0  0  0
   36.7390   19.0310   28.9620 C   0  0  0  0  0  0  0  0  0  0  0  0
   36.9950   20.0440   28.5980 H   0  0  0  0  0  0  0  0  0  0  0  0
   37.6550   18.4000   28.9950 H   0  0  0  0  0  0  0  0  0  0  0  0
   35.9360   18.5360   28.3840 H   0  0  0  0  0  0  0  0  0  0  0  0
   38.5740   26.2820   30.5470 S   0  0  0  0  0  0  0  0  0  0  0  0
   38.4260   27.5460   31.8400 C   0  0  0  0  0  0  0  0  0  0  0  0
   38.7180   28.5530   31.4470 H   0  0  0  0  0  0  0  0  0  0  0  0
   37.3850   27.6120   32.2130 H   0  0  0  0  0  0  0  0  0  0  0  0
   37.3050   26.6390   34.1780 F   0  0  0  0  0  0  0  0  0  0  0  0
   38.6690   26.6960   34.0920 C   0  0  0  0  0  0  0  0  0  0  0  0
   39.3510   27.1400   32.9550 C   0  0  0  0  0  0  0  0  0  0  0  0
   40.7080   27.1800   32.9070 C   0  0  0  0  0  0  0  0  0  0  0  0
   41.4580   26.7700   34.0180 C   0  0  0  0  0  0  0  0  0  0  0  0
   40.7990   26.3320   35.1440 C   0  0  0  0  0  0  0  0  0  0  0  0
   39.4270   26.2950   35.1790 C   0  0  0  0  0  0  0  0  0  0  0  0
   41.0800   27.5460   31.9580 H   0  0  0  0  0  0  0  0  0  0  0  0
   42.5150   26.8310   33.9030 H   0  0  0  0  0  0  0  0  0  0  0  0
   41.4860   26.0470   35.9230 H   0  0  0  0  0  0  0  0  0  0  0  0
   38.8220   25.8480   36.3310 O   0  0  0  0  0  0  0  0  0  0  0  0
   40.1090   23.0230   38.8610 H   0  0  0  0  0  0  0  0  0  0  0  0
   39.4220   22.6840   38.1490 N   0  0  0  0  0  0  0  0  0  0  0  0
   39.8970   23.1950   36.8670 C   0  0  0  0  0  2  0  0  0  0  0  0
   38.6680   23.4470   36.0400 C   0  0  0  0  0  2  0  0  0  0  0  0
   38.0340   24.7330   36.5270 C   0  0  0  0  0  3  0  0  0  0  0  0
   37.8670   24.5460   38.0410 C   0  0  0  0  0  2  0  0  0  0  0  0
   38.0910   23.1080   38.4570 C   0  0  0  0  0  2  0  0  0  0  0  0
  1  2  1  0  0  0  0
  2  3  2  0  0  0  0
  2  9  1  0  0  0  0
  3  8  1  0  0  0  0
  4  3  1  0  0  0  0
  5  4  2  0  0  0  0
  6  5  1  0  0  0  0
  6  1  2  0  0  0  0
  7  1  1  0  0  0  0
 10  9  1  0  0  0  0
 10 11  1  0  0  0  0
 11 16  1  0  0  0  0
 12 11  2  0  0  0  0
 12 17  1  0  0  0  0
 13 12  1  0  0  0  0
 14 15  1  0  0  0  0
 14 13  2  0  0  0  0
 15 10  2  0  0  0  0
 18 13  1  0  0  0  0
 19 21  1  0  0  0  0
 19 14  1  0  0  0  0
 20 19  1  0  0  0  0
 22 19  1  0  0  0  0
 23  5  1  0  0  0  0
 23 24  1  0  0  0  0
 24 26  1  0  0  0  0
 24 29  1  0  0  0  0
 25 24  1  0  0  0  0
 28 27  1  0  0  0  0
 28 33  1  0  0  0  0
 29 28  2  0  0  0  0
 30 29  1  0  0  0  0
 30 31  2  0  0  0  0
 31 32  1  0  0  0  0
 32 33  2  0  0  0  0
 32 36  1  0  0  0  0
 33 37  1  0  0  0  0
 34 30  1  0  0  0  0
 35 31  1  0  0  0  0
 37 42  1  0  0  0  0
 39 44  1  0  0  0  0
 39 38  1  0  0  0  0
 40 39  1  0  0  0  0
 41 42  1  0  0  0  0
 41 40  1  0  0  0  0
 42 43  1  0  0  0  0
 43 44  1  0  0  0  0
M  END
>  <minimizedAffinity>
-6.43589497

$$$$

 OpenBabel03262522293D

 44 47  0  0  0  0  0  0  0  0999 V2000
   35.3330   28.8700   32.6790 C   0  0  0  0  0  0  0  0  0  0  0  0
   35.3310   30.2340   32.3360 C   0  0  0  0  0  0  0  0  0  0  0  0
   36.2350   30.6320   31.4000 C   0  0  0  0  0  0  0  0  0  0  0  0
   37.0740   29.7150   30.8580 N   0  0  0  0  0  0  0  0  0  0  0  0
   37.0540   28.4560   31.1960 C   0  0  0  0  0  0  0  0  0  0  0  0
   36.1720   27.9710   32.1330 N   0  0  0  0  0  0  0  0  0  0  0  0
   34.6610   28.4450   33.4090 H   0  0  0  0  0  0  0  0  0  0  0  0
   36.2510   31.6790   31.1200 H   0  0  0  0  0  0  0  0  0  0  0  0
   34.4380   31.0390   32.9560 O   0  0  0  0  0  0  0  0  0  0  0  0
   34.6870   31.4400   34.2640 C   0  0  0  0  0  0  0  0  0  0  0  0
   35.8010   32.0730   34.7660 C   0  0  0  0  0  0  0  0  0  0  0  0
   35.8620   32.3860   36.0770 C   0  0  0  0  0  0  0  0  0  0  0  0
   34.8130   32.0640   36.8770 C   0  0  0  0  0  0  0  0  0  0  0  0
   33.6810   31.4200   36.3710 C   0  0  0  0  0  0  0  0  0  0  0  0
   33.6410   31.1150   35.0460 N   0  0  0  0  0  0  0  0  0  0  0  0
   36.5680   32.2760   34.0310 H   0  0  0  0  0  0  0  0  0  0  0  0
   36.7710   32.8830   36.3960 H   0  0  0  0  0  0  0  0  0  0  0  0
   34.8630   32.3160   37.9380 H   0  0  0  0  0  0  0  0  0  0  0  0
   32.5300   31.0750   37.2860 C   0  0  0  0  0  0  0  0  0  0  0  0
   31.9710   30.2750   36.7650 H   0  0  0  0  0  0  0  0  0  0  0  0
   32.9910   30.6700   38.2150 H   0  0  0  0  0  0  0  0  0  0  0  0
   31.9270   31.9770   37.5020 H   0  0  0  0  0  0  0  0  0  0  0  0
   38.2900   27.4640   30.3070 S   0  0  0  0  0  0  0  0  0  0  0  0
   38.3770   25.9140   31.2460 C   0  0  0  0  0  0  0  0  0  0  0  0
   37.3540   25.5750   31.5500 H   0  0  0  0  0  0  0  0  0  0  0  0
   38.8410   25.1100   30.6420 H   0  0  0  0  0  0  0  0  0  0  0  0
   37.3420   25.2250   33.6960 F   0  0  0  0  0  0  0  0  0  0  0  0
   38.5830   25.7990   33.6540 C   0  0  0  0  0  0  0  0  0  0  0  0
   39.2110   26.1910   32.4670 C   0  0  0  0  0  0  0  0  0  0  0  0
   40.4460   26.7570   32.4670 C   0  0  0  0  0  0  0  0  0  0  0  0
   41.1210   26.9610   33.6780 C   0  0  0  0  0  0  0  0  0  0  0  0
   40.5140   26.5800   34.8530 C   0  0  0  0  0  0  0  0  0  0  0  0
   39.2660   26.0080   34.8400 C   0  0  0  0  0  0  0  0  0  0  0  0
   40.7900   27.0020   31.4690 H   0  0  0  0  0  0  0  0  0  0  0  0
   42.0830   27.4090   33.5940 H   0  0  0  0  0  0  0  0  0  0  0  0
   41.1340   26.7890   35.7090 H   0  0  0  0  0  0  0  0  0  0  0  0
   38.7080   25.6480   36.0450 O   0  0  0  0  0  0  0  0  0  0  0  0
   40.2740   23.2260   38.8240 H   0  0  0  0  0  0  0  0  0  0  0  0
   39.6050   22.7570   38.1710 N   0  0  0  0  0  0  0  0  0  0  0  0
   40.0110   23.1640   36.8290 C   0  0  0  0  0  2  0  0  0  0  0  0
   38.7500   23.2250   36.0140 C   0  0  0  0  0  2  0  0  0  0  0  0
   38.0200   24.5000   36.3800 C   0  0  0  0  0  3  0  0  0  0  0  0
   37.8980   24.4640   37.9090 C   0  0  0  0  0  2  0  0  0  0  0  0
   38.2490   23.1030   38.4690 C   0  0  0  0  0  2  0  0  0  0  0  0
  1  7  1  0  0  0  0
  2  1  1  0  0  0  0
  2  9  1  0  0  0  0
  3  2  2  0  0  0  0
  4  5  2  0  0  0  0
  4  3  1  0  0  0  0
  5  6  1  0  0  0  0
  6  1  2  0  0  0  0
  8  3  1  0  0  0  0
  9 10  1  0  0  0  0
 10 11  2  0  0  0  0
 10 15  1  0  0  0  0
 11 12  1  0  0  0  0
 12 17  1  0  0  0  0
 12 13  2  0  0  0  0
 13 18  1  0  0  0  0
 14 13  1  0  0  0  0
 14 19  1  0  0  0  0
 15 14  2  0  0  0  0
 16 11  1  0  0  0  0
 19 22  1  0  0  0  0
 19 21  1  0  0  0  0
 20 19  1  0  0  0  0
 23  5  1  0  0  0  0
 23 24  1  0  0  0  0
 24 25  1  0  0  0  0
 24 29  1  0  0  0  0
 26 24  1  0  0  0  0
 28 27  1  0  0  0  0
 28 33  1  0  0  0  0
 29 28  2  0  0  0  0
 30 29  1  0  0  0  0
 30 31  2  0  0  0  0
 31 32  1  0  0  0  0
 32 36  1  0  0  0  0
 33 32  2  0  0  0  0
 33 37  1  0  0  0  0
 34 30  1  0  0  0  0
 35 31  1  0  0  0  0
 37 42  1  0  0  0  0
 39 44  1  0  0  0  0
 39 38  1  0  0  0  0
 40 39  1  0  0  0  0
 41 42  1  0  0  0  0
 41 40  1  0  0  0  0
 42 43  1  0  0  0  0
 43 44  1  0  0  0  0
M  END
>  <minimizedAffinity>
-6.42133141

$$$$

 OpenBabel03262522293D

 44 47  0  0  0  0  0  0  0  0999 V2000
   36.6380   28.7150   32.3230 C   0  0  0  0  0  0  0  0  0  0  0  0
   35.9830   29.0010   33.5330 C   0  0  0  0  0  0  0  0  0  0  0  0
   36.3130   28.2300   34.6050 C   0  0  0  0  0  0  0  0  0  0  0  0
   37.2350   27.2470   34.4560 N   0  0  0  0  0  0  0  0  0  0  0  0
   37.8260   27.0040   33.3190 C   0  0  0  0  0  0  0  0  0  0  0  0
   37.5520   27.7370   32.1880 N   0  0  0  0  0  0  0  0  0  0  0  0
   36.4550   29.2620   31.4100 H   0  0  0  0  0  0  0  0  0  0  0  0
   35.8190   28.4320   35.5490 H   0  0  0  0  0  0  0  0  0  0  0  0
   35.0830   30.0110   33.5400 O   0  0  0  0  0  0  0  0  0  0  0  0
   34.9820   30.8140   34.6710 C   0  0  0  0  0  0  0  0  0  0  0  0
   35.8910   31.7260   35.1550 C   0  0  0  0  0  0  0  0  0  0  0  0
   35.6140   32.4200   36.2790 C   0  0  0  0  0  0  0  0  0  0  0  0
   34.4320   32.1980   36.9110 C   0  0  0  0  0  0  0  0  0  0  0  0
   33.5060   31.2720   36.4220 C   0  0  0  0  0  0  0  0  0  0  0  0
   33.8080   30.5850   35.2870 N   0  0  0  0  0  0  0  0  0  0  0  0
   36.7930   31.8140   34.5650 H   0  0  0  0  0  0  0  0  0  0  0  0
   36.3790   33.1190   36.5970 H   0  0  0  0  0  0  0  0  0  0  0  0
   34.2070   32.7580   37.8210 H   0  0  0  0  0  0  0  0  0  0  0  0
   32.2010   31.0470   37.1470 C   0  0  0  0  0  0  0  0  0  0  0  0
   31.8460   30.0550   36.8110 H   0  0  0  0  0  0  0  0  0  0  0  0
   32.4570   31.0100   38.2300 H   0  0  0  0  0  0  0  0  0  0  0  0
   31.4960   31.8730   36.9340 H   0  0  0  0  0  0  0  0  0  0  0  0
   39.0130   25.6320   33.4170 S   0  0  0  0  0  0  0  0  0  0  0  0
   38.0040   24.2050   33.9050 C   0  0  0  0  0  0  0  0  0  0  0  0
   36.9130   24.4460   33.8320 H   0  0  0  0  0  0  0  0  0  0  0  0
   38.2080   23.3330   33.2520 H   0  0  0  0  0  0  0  0  0  0  0  0
   39.8680   22.2350   34.3440 F   0  0  0  0  0  0  0  0  0  0  0  0
   39.3220   22.8650   35.4290 C   0  0  0  0  0  0  0  0  0  0  0  0
   38.3660   23.8810   35.3290 C   0  0  0  0  0  0  0  0  0  0  0  0
   37.8500   24.4850   36.4300 C   0  0  0  0  0  0  0  0  0  0  0  0
   38.2740   24.0910   37.7070 C   0  0  0  0  0  0  0  0  0  0  0  0
   39.2130   23.0920   37.8190 C   0  0  0  0  0  0  0  0  0  0  0  0
   39.7290   22.4900   36.6980 C   0  0  0  0  0  0  0  0  0  0  0  0
   37.1230   25.2500   36.1830 H   0  0  0  0  0  0  0  0  0  0  0  0
   37.8230   24.6110   38.5190 H   0  0  0  0  0  0  0  0  0  0  0  0
   39.4540   22.8830   38.8480 H   0  0  0  0  0  0  0  0  0  0  0  0
   40.6660   21.4970   36.8700 O   0  0  0  0  0  0  0  0  0  0  0  0
   43.5930   21.6530   34.1430 H   0  0  0  0  0  0  0  0  0  0  0  0
   43.8990   21.3160   35.0850 N   0  0  0  0  0  0  0  0  0  0  0  0
   42.9250   20.3010   35.4760 C   0  0  0  0  0  2  0  0  0  0  0  0
   42.8170   20.3850   36.9720 C   0  0  0  0  0  2  0  0  0  0  0  0
   41.9690   21.5940   37.3100 C   0  0  0  0  0  3  0  0  0  0  0  0
   42.6240   22.7620   36.5610 C   0  0  0  0  0  2  0  0  0  0  0  0
   43.9900   22.3890   36.0250 C   0  0  0  0  0  2  0  0  0  0  0  0
  1  2  1  0  0  0  0
  2  9  1  0  0  0  0
  2  3  2  0  0  0  0
  3  8  1  0  0  0  0
  4  3  1  0  0  0  0
  5 23  1  0  0  0  0
  5  4  2  0  0  0  0
  6  1  2  0  0  0  0
  6  5  1  0  0  0  0
  7  1  1  0  0  0  0
  9 10  1  0  0  0  0
 10 11  2  0  0  0  0
 10 15  1  0  0  0  0
 11 12  1  0  0  0  0
 12 17  1  0  0  0  0
 12 13  2  0  0  0  0
 13 18  1  0  0  0  0
 14 13  1  0  0  0  0
 14 19  1  0  0  0  0
 15 14  2  0  0  0  0
 16 11  1  0  0  0  0
 19 21  1  0  0  0  0
 20 19  1  0  0  0  0
 22 19  1  0  0  0  0
 23 24  1  0  0  0  0
 24 29  1  0  0  0  0
 25 24  1  0  0  0  0
 26 24  1  0  0  0  0
 27 28  1  0  0  0  0
 28 33  1  0  0  0  0
 29 28  2  0  0  0  0
 29 30  1  0  0  0  0
 30 31  2  0  0  0  0
 31 32  1  0  0  0  0
 31 35  1  0  0  0  0
 32 36  1  0  0  0  0
 33 37  1  0  0  0  0
 33 32  2  0  0  0  0
 34 30  1  0  0  0  0
 37 42  1  0  0  0  0
 38 39  1  0  0  0  0
 39 40  1  0  0  0  0
 39 44  1  0  0  0  0
 40 41  1  0  0  0  0
 41 42  1  0  0  0  0
 43 42  1  0  0  0  0
 44 43  1  0  0  0  0
M  END
>  <minimizedAffinity>
-6.10786581

$$$$

 OpenBabel03262522293D

 44 47  0  0  0  0  0  0  0  0999 V2000
   37.7520   22.9380   30.6850 C   0  0  0  0  0  0  0  0  0  0  0  0
   38.8100   22.1630   31.1900 C   0  0  0  0  0  0  0  0  0  0  0  0
   39.9930   22.8030   31.3990 C   0  0  0  0  0  0  0  0  0  0  0  0
   40.0900   24.1250   31.1140 N   0  0  0  0  0  0  0  0  0  0  0  0
   39.0900   24.8190   30.6440 C   0  0  0  0  0  0  0  0  0  0  0  0
   37.8610   24.2500   30.4060 N   0  0  0  0  0  0  0  0  0  0  0  0
   36.7710   22.5350   30.4810 H   0  0  0  0  0  0  0  0  0  0  0  0
   40.8230   22.2250   31.7880 H   0  0  0  0  0  0  0  0  0  0  0  0
   38.5740   20.8520   31.4300 O   0  0  0  0  0  0  0  0  0  0  0  0
   37.3060   20.4620   31.8460 C   0  0  0  0  0  0  0  0  0  0  0  0
   36.3240   19.8310   31.1170 C   0  0  0  0  0  0  0  0  0  0  0  0
   35.1450   19.5290   31.6990 C   0  0  0  0  0  0  0  0  0  0  0  0
   34.9540   19.8580   33.0020 C   0  0  0  0  0  0  0  0  0  0  0  0
   35.9490   20.4990   33.7460 C   0  0  0  0  0  0  0  0  0  0  0  0
   37.1300   20.7940   33.1380 N   0  0  0  0  0  0  0  0  0  0  0  0
   36.5950   19.6220   30.0910 H   0  0  0  0  0  0  0  0  0  0  0  0
   34.4230   19.0330   31.0600 H   0  0  0  0  0  0  0  0  0  0  0  0
   34.0000   19.6140   33.4740 H   0  0  0  0  0  0  0  0  0  0  0  0
   35.7070   20.8530   35.1940 C   0  0  0  0  0  0  0  0  0  0  0  0
   36.4390   21.6490   35.4280 H   0  0  0  0  0  0  0  0  0  0  0  0
   34.6740   21.2640   35.2380 H   0  0  0  0  0  0  0  0  0  0  0  0
   35.8040   19.9530   35.8300 H   0  0  0  0  0  0  0  0  0  0  0  0
   39.5120   26.5630   30.3580 S   0  0  0  0  0  0  0  0  0  0  0  0
   40.1440   27.1380   31.9580 C   0  0  0  0  0  0  0  0  0  0  0  0
   40.9650   26.4710   32.3240 H   0  0  0  0  0  0  0  0  0  0  0  0
   40.5450   28.1670   31.8790 H   0  0  0  0  0  0  0  0  0  0  0  0
   40.4670   25.7620   34.3140 F   0  0  0  0  0  0  0  0  0  0  0  0
   39.2670   26.3770   34.0810 C   0  0  0  0  0  0  0  0  0  0  0  0
   38.9870   27.1050   32.9200 C   0  0  0  0  0  0  0  0  0  0  0  0
   37.7840   27.7040   32.7270 C   0  0  0  0  0  0  0  0  0  0  0  0
   36.7850   27.5980   33.7050 C   0  0  0  0  0  0  0  0  0  0  0  0
   37.0480   26.8850   34.8510 C   0  0  0  0  0  0  0  0  0  0  0  0
   38.2690   26.2840   35.0360 C   0  0  0  0  0  0  0  0  0  0  0  0
   37.7280   28.2270   31.7790 H   0  0  0  0  0  0  0  0  0  0  0  0
   35.8710   28.0950   33.4790 H   0  0  0  0  0  0  0  0  0  0  0  0
   36.2040   26.8800   35.5210 H   0  0  0  0  0  0  0  0  0  0  0  0
   38.4750   25.5840   36.2020 O   0  0  0  0  0  0  0  0  0  0  0  0
   40.4030   23.1480   38.7300 H   0  0  0  0  0  0  0  0  0  0  0  0
   39.6100   22.6980   38.2170 N   0  0  0  0  0  0  0  0  0  0  0  0
   39.7910   23.0590   36.8150 C   0  0  0  0  0  2  0  0  0  0  0  0
   38.4100   23.1610   36.2310 C   0  0  0  0  0  2  0  0  0  0  0  0
   37.8090   24.4760   36.6840 C   0  0  0  0  0  3  0  0  0  0  0  0
   37.9570   24.4760   38.2110 C   0  0  0  0  0  2  0  0  0  0  0  0
   38.3440   23.1110   38.7380 C   0  0  0  0  0  2  0  0  0  0  0  0
  1  2  1  0  0  0  0
  2  3  2  0  0  0  0
  2  9  1  0  0  0  0
  3  8  1  0  0  0  0
  4  3  1  0  0  0  0
  5  4  2  0  0  0  0
  6  5  1  0  0  0  0
  6  1  2  0  0  0  0
  7  1  1  0  0  0  0
  9 10  1  0  0  0  0
 10 15  1  0  0  0  0
 11 12  1  0  0  0  0
 11 10  2  0  0  0  0
 12 13  2  0  0  0  0
 13 18  1  0  0  0  0
 13 14  1  0  0  0  0
 14 19  1  0  0  0  0
 15 14  2  0  0  0  0
 16 11  1  0  0  0  0
 17 12  1  0  0  0  0
 19 21  1  0  0  0  0
 19 20  1  0  0  0  0
 19 22  1  0  0  0  0
 23  5  1  0  0  0  0
 23 24  1  0  0  0  0
 24 25  1  0  0  0  0
 24 29  1  0  0  0  0
 26 24  1  0  0  0  0
 28 27  1  0  0  0  0
 28 33  1  0  0  0  0
 29 28  2  0  0  0  0
 30 29  1  0  0  0  0
 30 31  2  0  0  0  0
 31 32  1  0  0  0  0
 32 33  2  0  0  0  0
 32 36  1  0  0  0  0
 33 37  1  0  0  0  0
 34 30  1  0  0  0  0
 35 31  1  0  0  0  0
 37 42  1  0  0  0  0
 39 38  1  0  0  0  0
 39 44  1  0  0  0  0
 40 39  1  0  0  0  0
 41 42  1  0  0  0  0
 41 40  1  0  0  0  0
 42 43  1  0  0  0  0
 43 44  1  0  0  0  0
M  END
>  <minimizedAffinity>
-6.00636101

$$$$

 OpenBabel03262522293D

 44 47  0  0  0  0  0  0  0  0999 V2000
   35.4490   29.2380   34.7200 C   0  0  0  0  0  0  0  0  0  0  0  0
   34.1670   29.7800   34.5250 C   0  0  0  0  0  0  0  0  0  0  0  0
   33.6890   29.7810   33.2500 C   0  0  0  0  0  0  0  0  0  0  0  0
   34.4570   29.2730   32.2550 N   0  0  0  0  0  0  0  0  0  0  0  0
   35.6450   28.7770   32.4660 C   0  0  0  0  0  0  0  0  0  0  0  0
   36.2010   28.7370   33.7230 N   0  0  0  0  0  0  0  0  0  0  0  0
   35.9270   29.1860   35.6870 H   0  0  0  0  0  0  0  0  0  0  0  0
   32.7020   30.1940   33.0770 H   0  0  0  0  0  0  0  0  0  0  0  0
   33.5100   30.2530   35.6090 O   0  0  0  0  0  0  0  0  0  0  0  0
   33.8410   31.5110   36.1010 C   0  0  0  0  0  0  0  0  0  0  0  0
   33.1330   32.2990   36.9790 C   0  0  0  0  0  0  0  0  0  0  0  0
   33.6200   33.5030   37.3430 C   0  0  0  0  0  0  0  0  0  0  0  0
   34.8080   33.9120   36.8290 C   0  0  0  0  0  0  0  0  0  0  0  0
   35.5300   33.1150   35.9360 C   0  0  0  0  0  0  0  0  0  0  0  0
   35.0200   31.9050   35.5840 N   0  0  0  0  0  0  0  0  0  0  0  0
   32.2030   31.8640   37.3180 H   0  0  0  0  0  0  0  0  0  0  0  0
   33.0050   34.0640   38.0380 H   0  0  0  0  0  0  0  0  0  0  0  0
   35.2020   34.8870   37.1230 H   0  0  0  0  0  0  0  0  0  0  0  0
   36.8490   33.5980   35.3820 C   0  0  0  0  0  0  0  0  0  0  0  0
   37.0140   33.0070   34.4610 H   0  0  0  0  0  0  0  0  0  0  0  0
   36.6950   34.6690   35.1200 H   0  0  0  0  0  0  0  0  0  0  0  0
   37.6490   33.4850   36.1380 H   0  0  0  0  0  0  0  0  0  0  0  0
   36.4380   28.1710   30.9480 S   0  0  0  0  0  0  0  0  0  0  0  0
   38.0750   27.6090   31.4940 C   0  0  0  0  0  0  0  0  0  0  0  0
   38.8260   27.7140   30.6700 H   0  0  0  0  0  0  0  0  0  0  0  0
   38.4290   28.2010   32.3600 H   0  0  0  0  0  0  0  0  0  0  0  0
   38.8080   26.8750   34.0370 F   0  0  0  0  0  0  0  0  0  0  0  0
   38.3350   25.9080   33.1940 C   0  0  0  0  0  0  0  0  0  0  0  0
   37.9320   26.1620   31.8790 C   0  0  0  0  0  0  0  0  0  0  0  0
   37.4650   25.1740   31.0730 C   0  0  0  0  0  0  0  0  0  0  0  0
   37.3790   23.8600   31.5550 C   0  0  0  0  0  0  0  0  0  0  0  0
   37.7730   23.5970   32.8460 C   0  0  0  0  0  0  0  0  0  0  0  0
   38.2430   24.6050   33.6530 C   0  0  0  0  0  0  0  0  0  0  0  0
   37.1950   25.5340   30.0870 H   0  0  0  0  0  0  0  0  0  0  0  0
   37.0040   23.1440   30.8630 H   0  0  0  0  0  0  0  0  0  0  0  0
   37.6590   22.5550   33.0940 H   0  0  0  0  0  0  0  0  0  0  0  0
   38.6230   24.2820   34.9350 O   0  0  0  0  0  0  0  0  0  0  0  0
   40.4930   23.4750   38.3820 H   0  0  0  0  0  0  0  0  0  0  0  0
   39.7510   22.7840   38.1220 N   0  0  0  0  0  0  0  0  0  0  0  0
   40.0010   22.4440   36.7250 C   0  0  0  0  0  2  0  0  0  0  0  0
   38.6540   22.1670   36.1180 C   0  0  0  0  0  2  0  0  0  0  0  0
   37.9750   23.4970   35.8660 C   0  0  0  0  0  3  0  0  0  0  0  0
   38.0300   24.2350   37.2110 C   0  0  0  0  0  2  0  0  0  0  0  0
   38.4400   23.3130   38.3390 C   0  0  0  0  0  2  0  0  0  0  0  0
  1  7  1  0  0  0  0
  2  1  1  0  0  0  0
  2  9  1  0  0  0  0
  3  2  2  0  0  0  0
  4  5  2  0  0  0  0
  4  3  1  0  0  0  0
  5  6  1  0  0  0  0
  6  1  2  0  0  0  0
  8  3  1  0  0  0  0
  9 10  1  0  0  0  0
 10 11  1  0  0  0  0
 11 16  1  0  0  0  0
 11 12  2  0  0  0  0
 12 17  1  0  0  0  0
 13 18  1  0  0  0  0
 13 12  1  0  0  0  0
 14 13  2  0  0  0  0
 15 14  1  0  0  0  0
 15 10  2  0  0  0  0
 19 14  1  0  0  0  0
 19 22  1  0  0  0  0
 20 19  1  0  0  0  0
 21 19  1  0  0  0  0
 23 24  1  0  0  0  0
 23  5  1  0  0  0  0
 24 29  1  0  0  0  0
 24 26  1  0  0  0  0
 25 24  1  0  0  0  0
 28 33  1  0  0  0  0
 28 27  1  0  0  0  0
 29 28  2  0  0  0  0
 30 31  2  0  0  0  0
 30 29  1  0  0  0  0
 31 32  1  0  0  0  0
 32 36  1  0  0  0  0
 32 33  2  0  0  0  0
 33 37  1  0  0  0  0
 34 30  1  0  0  0  0
 35 31  1  0  0  0  0
 37 42  1  0  0  0  0
 39 44  1  0  0  0  0
 39 38  1  0  0  0  0
 40 39  1  0  0  0  0
 41 40  1  0  0  0  0
 42 41  1  0  0  0  0
 42 43  1  0  0  0  0
 43 44  1  0  0  0  0
M  END
>  <minimizedAffinity>
-5.9535265

$$$$

 OpenBabel03262522293D

 44 47  0  0  0  0  0  0  0  0999 V2000
   35.5930   31.3140   31.4860 C   0  0  0  0  0  0  0  0  0  0  0  0
   35.2000   31.1810   32.8290 C   0  0  0  0  0  0  0  0  0  0  0  0
   35.3690   29.9570   33.3990 C   0  0  0  0  0  0  0  0  0  0  0  0
   35.8950   28.9490   32.6600 N   0  0  0  0  0  0  0  0  0  0  0  0
   36.2510   29.1020   31.4140 C   0  0  0  0  0  0  0  0  0  0  0  0
   36.1140   30.3060   30.7630 N   0  0  0  0  0  0  0  0  0  0  0  0
   35.5040   32.2380   30.9350 H   0  0  0  0  0  0  0  0  0  0  0  0
   35.0720   29.8310   34.4340 H   0  0  0  0  0  0  0  0  0  0  0  0
   34.6890   32.2700   33.4480 O   0  0  0  0  0  0  0  0  0  0  0  0
   34.3640   32.1880   34.7970 C   0  0  0  0  0  0  0  0  0  0  0  0
   35.1880   32.3580   35.8860 C   0  0  0  0  0  0  0  0  0  0  0  0
   34.6870   32.2380   37.1330 C   0  0  0  0  0  0  0  0  0  0  0  0
   33.3690   31.9490   37.2840 C   0  0  0  0  0  0  0  0  0  0  0  0
   32.5290   31.7750   36.1810 C   0  0  0  0  0  0  0  0  0  0  0  0
   33.0570   31.9010   34.9340 N   0  0  0  0  0  0  0  0  0  0  0  0
   36.2160   32.5840   35.6370 H   0  0  0  0  0  0  0  0  0  0  0  0
   35.3980   32.3860   37.9380 H   0  0  0  0  0  0  0  0  0  0  0  0
   32.9630   31.8510   38.2930 H   0  0  0  0  0  0  0  0  0  0  0  0
   31.0670   31.4540   36.3810 C   0  0  0  0  0  0  0  0  0  0  0  0
   30.7320   31.0050   35.4280 H   0  0  0  0  0  0  0  0  0  0  0  0
   31.0310   30.6920   37.1910 H   0  0  0  0  0  0  0  0  0  0  0  0
   30.5090   32.3660   36.6680 H   0  0  0  0  0  0  0  0  0  0  0  0
   36.9230   27.5830   30.6780 S   0  0  0  0  0  0  0  0  0  0  0  0
   35.7540   26.2890   31.1800 C   0  0  0  0  0  0  0  0  0  0  0  0
   34.9350   26.7170   31.8120 H   0  0  0  0  0  0  0  0  0  0  0  0
   35.2910   25.8080   30.2960 H   0  0  0  0  0  0  0  0  0  0  0  0
   35.3690   23.6310   30.6070 F   0  0  0  0  0  0  0  0  0  0  0  0
   36.2600   23.9600   31.5920 C   0  0  0  0  0  0  0  0  0  0  0  0
   36.5390   25.2770   31.9700 C   0  0  0  0  0  0  0  0  0  0  0  0
   37.4320   25.5630   32.9510 C   0  0  0  0  0  0  0  0  0  0  0  0
   38.1010   24.5240   33.6130 C   0  0  0  0  0  0  0  0  0  0  0  0
   37.8360   23.2230   33.2510 C   0  0  0  0  0  0  0  0  0  0  0  0
   36.9300   22.9460   32.2560 C   0  0  0  0  0  0  0  0  0  0  0  0
   37.5340   26.6280   33.1230 H   0  0  0  0  0  0  0  0  0  0  0  0
   38.7850   24.8290   34.3690 H   0  0  0  0  0  0  0  0  0  0  0  0
   38.4120   22.5220   33.8300 H   0  0  0  0  0  0  0  0  0  0  0  0
   36.7050   21.6270   31.9360 O   0  0  0  0  0  0  0  0  0  0  0  0
   34.5860   18.4200   30.8130 H   0  0  0  0  0  0  0  0  0  0  0  0
   34.7710   18.4770   31.8410 N   0  0  0  0  0  0  0  0  0  0  0  0
   34.4240   19.8410   32.2300 C   0  0  0  0  0  2  0  0  0  0  0  0
   35.3540   20.2000   33.3540 C   0  0  0  0  0  2  0  0  0  0  0  0
   36.7080   20.5180   32.7550 C   0  0  0  0  0  3  0  0  0  0  0  0
   37.0540   19.3020   31.8850 C   0  0  0  0  0  2  0  0  0  0  0  0
   36.1250   18.1380   32.1520 C   0  0  0  0  0  2  0  0  0  0  0  0
  1  2  1  0  0  0  0
  2  3  2  0  0  0  0
  2  9  1  0  0  0  0
  3  8  1  0  0  0  0
  4  3  1  0  0  0  0
  5  4  2  0  0  0  0
  6  5  1  0  0  0  0
  6  1  2  0  0  0  0
  7  1  1  0  0  0  0
  9 10  1  0  0  0  0
 10 15  2  0  0  0  0
 10 11  1  0  0  0  0
 11 12  2  0  0  0  0
 12 13  1  0  0  0  0
 12 17  1  0  0  0  0
 13 18  1  0  0  0  0
 14 19  1  0  0  0  0
 14 13  2  0  0  0  0
 15 14  1  0  0  0  0
 16 11  1  0  0  0  0
 19 22  1  0  0  0  0
 19 21  1  0  0  0  0
 20 19  1  0  0  0  0
 23 24  1  0  0  0  0
 23  5  1  0  0  0  0
 24 25  1  0  0  0  0
 24 29  1  0  0  0  0
 26 24  1  0  0  0  0
 27 28  1  0  0  0  0
 28 29  2  0  0  0  0
 28 33  1  0  0  0  0
 29 30  1  0  0  0  0
 30 34  1  0  0  0  0
 30 31  2  0  0  0  0
 31 35  1  0  0  0  0
 32 31  1  0  0  0  0
 32 36  1  0  0  0  0
 33 32  2  0  0  0  0
 37 33  1  0  0  0  0
 37 42  1  0  0  0  0
 38 39  1  0  0  0  0
 39 44  1  0  0  0  0
 39 40  1  0  0  0  0
 40 41  1  0  0  0  0
 42 41  1  0  0  0  0
 43 44  1  0  0  0  0
 43 42  1  0  0  0  0
M  END
>  <minimizedAffinity>
-5.90317202

$$$$

 OpenBabel03262522293D

 44 47  0  0  0  0  0  0  0  0999 V2000
   35.5100   29.0750   34.1500 C   0  0  0  0  0  0  0  0  0  0  0  0
   34.4500   29.9130   33.7610 C   0  0  0  0  0  0  0  0  0  0  0  0
   34.3170   30.1530   32.4280 C   0  0  0  0  0  0  0  0  0  0  0  0
   35.1930   29.5870   31.5620 N   0  0  0  0  0  0  0  0  0  0  0  0
   36.1690   28.8140   31.9530 C   0  0  0  0  0  0  0  0  0  0  0  0
   36.3730   28.5200   33.2810 N   0  0  0  0  0  0  0  0  0  0  0  0
   35.7100   28.8170   35.1800 H   0  0  0  0  0  0  0  0  0  0  0  0
   33.5060   30.7960   32.1050 H   0  0  0  0  0  0  0  0  0  0  0  0
   33.6500   30.4100   34.7320 O   0  0  0  0  0  0  0  0  0  0  0  0
   32.3450   29.9410   34.8350 C   0  0  0  0  0  0  0  0  0  0  0  0
   31.2130   30.4190   34.2160 C   0  0  0  0  0  0  0  0  0  0  0  0
   30.0220   29.8270   34.4430 C   0  0  0  0  0  0  0  0  0  0  0  0
   29.9700   28.7630   35.2850 C   0  0  0  0  0  0  0  0  0  0  0  0
   31.1170   28.2740   35.9160 C   0  0  0  0  0  0  0  0  0  0  0  0
   32.3060   28.8880   35.6720 N   0  0  0  0  0  0  0  0  0  0  0  0
   31.3840   31.2700   33.5700 H   0  0  0  0  0  0  0  0  0  0  0  0
   29.1790   30.2610   33.9190 H   0  0  0  0  0  0  0  0  0  0  0  0
   29.0060   28.2830   35.4690 H   0  0  0  0  0  0  0  0  0  0  0  0
   31.0260   27.0900   36.8470 C   0  0  0  0  0  0  0  0  0  0  0  0
   31.9320   27.1440   37.4800 H   0  0  0  0  0  0  0  0  0  0  0  0
   30.1190   27.2610   37.4690 H   0  0  0  0  0  0  0  0  0  0  0  0
   30.9400   26.1510   36.2670 H   0  0  0  0  0  0  0  0  0  0  0  0
   37.1810   28.2000   30.5750 S   0  0  0  0  0  0  0  0  0  0  0  0
   38.6900   27.5830   31.3700 C   0  0  0  0  0  0  0  0  0  0  0  0
   39.5570   27.6240   30.6630 H   0  0  0  0  0  0  0  0  0  0  0  0
   38.9440   28.1870   32.2620 H   0  0  0  0  0  0  0  0  0  0  0  0
   39.2340   26.8470   33.9600 F   0  0  0  0  0  0  0  0  0  0  0  0
   38.7340   25.9010   33.1090 C   0  0  0  0  0  0  0  0  0  0  0  0
   38.4190   26.1580   31.7700 C   0  0  0  0  0  0  0  0  0  0  0  0
   37.9220   25.1910   30.9560 C   0  0  0  0  0  0  0  0  0  0  0  0
   37.7140   23.8970   31.4540 C   0  0  0  0  0  0  0  0  0  0  0  0
   38.0190   23.6310   32.7690 C   0  0  0  0  0  0  0  0  0  0  0  0
   38.5200   24.6170   33.5830 C   0  0  0  0  0  0  0  0  0  0  0  0
   37.7320   25.5510   29.9520 H   0  0  0  0  0  0  0  0  0  0  0  0
   37.3220   23.1970   30.7550 H   0  0  0  0  0  0  0  0  0  0  0  0
   37.8140   22.6060   33.0270 H   0  0  0  0  0  0  0  0  0  0  0  0
   38.8080   24.2930   34.8880 O   0  0  0  0  0  0  0  0  0  0  0  0
   40.4850   23.1870   38.3520 H   0  0  0  0  0  0  0  0  0  0  0  0
   39.6360   22.6370   38.0890 N   0  0  0  0  0  0  0  0  0  0  0  0
   39.8310   22.2510   36.6950 C   0  0  0  0  0  2  0  0  0  0  0  0
   38.4600   22.2120   36.0800 C   0  0  0  0  0  2  0  0  0  0  0  0
   38.0270   23.6390   35.8170 C   0  0  0  0  0  3  0  0  0  0  0  0
   38.2020   24.3620   37.1600 C   0  0  0  0  0  2  0  0  0  0  0  0
   38.4370   23.3880   38.2950 C   0  0  0  0  0  2  0  0  0  0  0  0
  1  7  1  0  0  0  0
  2  1  1  0  0  0  0
  2  9  1  0  0  0  0
  3  2  2  0  0  0  0
  4  5  2  0  0  0  0
  4  3  1  0  0  0  0
  5  6  1  0  0  0  0
  6  1  2  0  0  0  0
  8  3  1  0  0  0  0
  9 10  1  0  0  0  0
 10 15  1  0  0  0  0
 11 12  1  0  0  0  0
 11 10  2  0  0  0  0
 12 13  2  0  0  0  0
 13 18  1  0  0  0  0
 13 14  1  0  0  0  0
 14 19  1  0  0  0  0
 15 14  2  0  0  0  0
 16 11  1  0  0  0  0
 17 12  1  0  0  0  0
 19 21  1  0  0  0  0
 19 20  1  0  0  0  0
 22 19  1  0  0  0  0
 23 24  1  0  0  0  0
 23  5  1  0  0  0  0
 24 29  1  0  0  0  0
 24 26  1  0  0  0  0
 25 24  1  0  0  0  0
 28 33  1  0  0  0  0
 28 27  1  0  0  0  0
 29 28  2  0  0  0  0
 30 31  2  0  0  0  0
 30 29  1  0  0  0  0
 31 32  1  0  0  0  0
 32 36  1  0  0  0  0
 32 33  2  0  0  0  0
 33 37  1  0  0  0  0
 34 30  1  0  0  0  0
 35 31  1  0  0  0  0
 37 42  1  0  0  0  0
 39 44  1  0  0  0  0
 39 38  1  0  0  0  0
 40 39  1  0  0  0  0
 41 40  1  0  0  0  0
 42 41  1  0  0  0  0
 42 43  1  0  0  0  0
 43 44  1  0  0  0  0
M  END
>  <minimizedAffinity>
-5.87040091

$$$$

 OpenBabel03262522293D

 44 47  0  0  0  0  0  0  0  0999 V2000
   35.0610   30.1840   31.7170 C   0  0  0  0  0  0  0  0  0  0  0  0
   34.9040   30.2230   33.1140 C   0  0  0  0  0  0  0  0  0  0  0  0
   35.6390   29.3360   33.8380 C   0  0  0  0  0  0  0  0  0  0  0  0
   36.4640   28.4760   33.1920 N   0  0  0  0  0  0  0  0  0  0  0  0
   36.5890   28.4620   31.8940 C   0  0  0  0  0  0  0  0  0  0  0  0
   35.8850   29.3250   31.0880 N   0  0  0  0  0  0  0  0  0  0  0  0
   34.5300   30.8410   31.0450 H   0  0  0  0  0  0  0  0  0  0  0  0
   35.5330   29.3480   34.9170 H   0  0  0  0  0  0  0  0  0  0  0  0
   34.0450   31.1330   33.6260 O   0  0  0  0  0  0  0  0  0  0  0  0
   33.3770   30.8370   34.8090 C   0  0  0  0  0  0  0  0  0  0  0  0
   33.5300   31.4190   36.0460 C   0  0  0  0  0  0  0  0  0  0  0  0
   32.7840   30.9930   37.0870 C   0  0  0  0  0  0  0  0  0  0  0  0
   31.8920   29.9890   36.8850 C   0  0  0  0  0  0  0  0  0  0  0  0
   31.7340   29.3940   35.6300 C   0  0  0  0  0  0  0  0  0  0  0  0
   32.4960   29.8420   34.5970 N   0  0  0  0  0  0  0  0  0  0  0  0
   34.2700   32.2060   36.0800 H   0  0  0  0  0  0  0  0  0  0  0  0
   32.9630   31.5000   38.0280 H   0  0  0  0  0  0  0  0  0  0  0  0
   31.2890   29.6430   37.7270 H   0  0  0  0  0  0  0  0  0  0  0  0
   30.7330   28.2800   35.4380 C   0  0  0  0  0  0  0  0  0  0  0  0
   31.0580   27.7490   34.5230 H   0  0  0  0  0  0  0  0  0  0  0  0
   30.8470   27.6140   36.3220 H   0  0  0  0  0  0  0  0  0  0  0  0
   29.7070   28.6910   35.3780 H   0  0  0  0  0  0  0  0  0  0  0  0
   37.7650   27.2050   31.3090 S   0  0  0  0  0  0  0  0  0  0  0  0
   36.7350   25.7470   30.9870 C   0  0  0  0  0  0  0  0  0  0  0  0
   35.7620   25.8180   31.5350 H   0  0  0  0  0  0  0  0  0  0  0  0
   36.5150   25.6480   29.9060 H   0  0  0  0  0  0  0  0  0  0  0  0
   36.9200   25.3380   33.6970 F   0  0  0  0  0  0  0  0  0  0  0  0
   37.5370   24.4470   32.8630 C   0  0  0  0  0  0  0  0  0  0  0  0
   37.5120   24.5510   31.4680 C   0  0  0  0  0  0  0  0  0  0  0  0
   38.1350   23.6440   30.6730 C   0  0  0  0  0  0  0  0  0  0  0  0
   38.8270   22.5690   31.2490 C   0  0  0  0  0  0  0  0  0  0  0  0
   38.8610   22.4550   32.6200 C   0  0  0  0  0  0  0  0  0  0  0  0
   38.2250   23.3780   33.4130 C   0  0  0  0  0  0  0  0  0  0  0  0
   38.0210   23.8670   29.6190 H   0  0  0  0  0  0  0  0  0  0  0  0
   39.2890   21.9020   30.5600 H   0  0  0  0  0  0  0  0  0  0  0  0
   39.4210   21.5910   32.9350 H   0  0  0  0  0  0  0  0  0  0  0  0
   38.2920   23.2140   34.7770 O   0  0  0  0  0  0  0  0  0  0  0  0
   38.4220   21.7550   38.5050 H   0  0  0  0  0  0  0  0  0  0  0  0
   38.7300   22.7510   38.4200 N   0  0  0  0  0  0  0  0  0  0  0  0
   37.7040   23.4160   37.6230 C   0  0  0  0  0  2  0  0  0  0  0  0
   38.4150   24.4830   36.8380 C   0  0  0  0  0  2  0  0  0  0  0  0
   39.1370   23.8120   35.6880 C   0  0  0  0  0  3  0  0  0  0  0  0
   39.9770   22.7040   36.3380 C   0  0  0  0  0  2  0  0  0  0  0  0
   40.0340   22.8520   37.8430 C   0  0  0  0  0  2  0  0  0  0  0  0
  1  2  1  0  0  0  0
  2  9  1  0  0  0  0
  2  3  2  0  0  0  0
  3  8  1  0  0  0  0
  4  3  1  0  0  0  0
  5  4  2  0  0  0  0
  6  1  2  0  0  0  0
  6  5  1  0  0  0  0
  7  1  1  0  0  0  0
  9 10  1  0  0  0  0
 10 11  1  0  0  0  0
 11 16  1  0  0  0  0
 11 12  2  0  0  0  0
 12 17  1  0  0  0  0
 13 12  1  0  0  0  0
 13 18  1  0  0  0  0
 14 13  2  0  0  0  0
 15 10  2  0  0  0  0
 15 14  1  0  0  0  0
 19 14  1  0  0  0  0
 19 21  1  0  0  0  0
 20 19  1  0  0  0  0
 22 19  1  0  0  0  0
 23  5  1  0  0  0  0
 24 23  1  0  0  0  0
 24 29  1  0  0  0  0
 24 25  1  0  0  0  0
 26 24  1  0  0  0  0
 28 33  1  0  0  0  0
 28 27  1  0  0  0  0
 29 28  2  0  0  0  0
 30 31  2  0  0  0  0
 30 29  1  0  0  0  0
 31 32  1  0  0  0  0
 32 36  1  0  0  0  0
 32 33  2  0  0  0  0
 33 37  1  0  0  0  0
 34 30  1  0  0  0  0
 35 31  1  0  0  0  0
 37 42  1  0  0  0  0
 39 38  1  0  0  0  0
 40 39  1  0  0  0  0
 41 40  1  0  0  0  0
 42 43  1  0  0  0  0
 42 41  1  0  0  0  0
 43 44  1  0  0  0  0
 44 39  1  0  0  0  0
M  END
>  <minimizedAffinity>
-5.82912779

$$$$

 OpenBabel03262522293D

 44 47  0  0  0  0  0  0  0  0999 V2000
   36.9490   24.8740   33.0800 C   0  0  0  0  0  0  0  0  0  0  0  0
   38.2010   24.3090   33.3820 C   0  0  0  0  0  0  0  0  0  0  0  0
   39.2970   24.9530   32.8950 C   0  0  0  0  0  0  0  0  0  0  0  0
   39.1310   26.0800   32.1590 N   0  0  0  0  0  0  0  0  0  0  0  0
   37.9560   26.5800   31.8940 C   0  0  0  0  0  0  0  0  0  0  0  0
   36.7980   25.9930   32.3490 N   0  0  0  0  0  0  0  0  0  0  0  0
   36.0150   24.4480   33.4130 H   0  0  0  0  0  0  0  0  0  0  0  0
   40.2730   24.5350   33.1150 H   0  0  0  0  0  0  0  0  0  0  0  0
   38.2210   23.1800   34.1270 O   0  0  0  0  0  0  0  0  0  0  0  0
   38.4820   23.2770   35.4890 C   0  0  0  0  0  0  0  0  0  0  0  0
   37.7910   23.9880   36.4430 C   0  0  0  0  0  0  0  0  0  0  0  0
   38.2000   23.9600   37.7290 C   0  0  0  0  0  0  0  0  0  0  0  0
   39.2940   23.2250   38.0520 C   0  0  0  0  0  0  0  0  0  0  0  0
   39.9990   22.5010   37.0860 C   0  0  0  0  0  0  0  0  0  0  0  0
   39.5680   22.5450   35.7970 N   0  0  0  0  0  0  0  0  0  0  0  0
   36.9390   24.5340   36.0630 H   0  0  0  0  0  0  0  0  0  0  0  0
   37.6040   24.5450   38.4200 H   0  0  0  0  0  0  0  0  0  0  0  0
   39.6260   23.2020   39.0920 H   0  0  0  0  0  0  0  0  0  0  0  0
   41.2120   21.6930   37.4760 C   0  0  0  0  0  0  0  0  0  0  0  0
   41.7830   21.5480   36.5400 H   0  0  0  0  0  0  0  0  0  0  0  0
   41.7930   22.3340   38.1770 H   0  0  0  0  0  0  0  0  0  0  0  0
   40.9040   20.7490   37.9650 H   0  0  0  0  0  0  0  0  0  0  0  0
   38.0400   28.0920   30.8900 S   0  0  0  0  0  0  0  0  0  0  0  0
   36.3210   28.6610   30.7940 C   0  0  0  0  0  0  0  0  0  0  0  0
   35.9900   28.7500   29.7290 H   0  0  0  0  0  0  0  0  0  0  0  0
   35.6400   27.9550   31.3080 H   0  0  0  0  0  0  0  0  0  0  0  0
   35.3040   28.7970   33.3430 F   0  0  0  0  0  0  0  0  0  0  0  0
   35.7350   29.9540   32.7530 C   0  0  0  0  0  0  0  0  0  0  0  0
   36.2700   30.0090   31.4630 C   0  0  0  0  0  0  0  0  0  0  0  0
   36.6890   31.1780   30.9130 C   0  0  0  0  0  0  0  0  0  0  0  0
   36.5890   32.3690   31.6440 C   0  0  0  0  0  0  0  0  0  0  0  0
   36.0630   32.3300   32.9150 C   0  0  0  0  0  0  0  0  0  0  0  0
   35.6440   31.1410   33.4610 C   0  0  0  0  0  0  0  0  0  0  0  0
   37.0780   31.0490   29.9090 H   0  0  0  0  0  0  0  0  0  0  0  0
   36.9380   33.2420   31.1450 H   0  0  0  0  0  0  0  0  0  0  0  0
   36.0410   33.3070   33.3690 H   0  0  0  0  0  0  0  0  0  0  0  0
   35.1270   31.1620   34.7350 O   0  0  0  0  0  0  0  0  0  0  0  0
   32.6830   29.3080   37.3090 H   0  0  0  0  0  0  0  0  0  0  0  0
   32.2430   30.1050   36.7950 N   0  0  0  0  0  0  0  0  0  0  0  0
   32.5820   29.9050   35.3900 C   0  0  0  0  0  2  0  0  0  0  0  0
   32.7070   31.2790   34.7930 C   0  0  0  0  0  2  0  0  0  0  0  0
   34.0390   31.8550   35.2240 C   0  0  0  0  0  3  0  0  0  0  0  0
   34.0560   31.7210   36.7530 C   0  0  0  0  0  2  0  0  0  0  0  0
   32.6890   31.3670   37.3000 C   0  0  0  0  0  2  0  0  0  0  0  0
  1  2  1  0  0  0  0
  1  7  1  0  0  0  0
  2  9  1  0  0  0  0
  3  8  1  0  0  0  0
  3  2  2  0  0  0  0
  4  3  1  0  0  0  0
  5  4  2  0  0  0  0
  5  6  1  0  0  0  0
  6  1  2  0  0  0  0
  9 10  1  0  0  0  0
 10 15  2  0  0  0  0
 10 11  1  0  0  0  0
 11 12  2  0  0  0  0
 12 13  1  0  0  0  0
 12 17  1  0  0  0  0
 13 18  1  0  0  0  0
 14 19  1  0  0  0  0
 14 13  2  0  0  0  0
 15 14  1  0  0  0  0
 16 11  1  0  0  0  0
 19 22  1  0  0  0  0
 19 21  1  0  0  0  0
 20 19  1  0  0  0  0
 23  5  1  0  0  0  0
 24 23  1  0  0  0  0
 24 26  1  0  0  0  0
 24 29  1  0  0  0  0
 25 24  1  0  0  0  0
 28 27  1  0  0  0  0
 28 33  1  0  0  0  0
 29 28  2  0  0  0  0
 30 29  1  0  0  0  0
 30 31  2  0  0  0  0
 31 32  1  0  0  0  0
 32 36  1  0  0  0  0
 32 33  2  0  0  0  0
 33 37  1  0  0  0  0
 34 30  1  0  0  0  0
 35 31  1  0  0  0  0
 37 42  1  0  0  0  0
 39 44  1  0  0  0  0
 39 38  1  0  0  0  0
 40 39  1  0  0  0  0
 41 42  1  0  0  0  0
 41 40  1  0  0  0  0
 42 43  1  0  0  0  0
 43 44  1  0  0  0  0
M  END
>  <minimizedAffinity>
-5.73146009

$$$$
