
 OpenBabel03272508023D

 26 28  0  0  0  0  0  0  0  0999 V2000
   38.8280   30.8910   45.5970 C   0  0  0  0  0  0  0  0  0  0  0  0
   40.0940   31.3450   45.8780 C   0  0  0  0  0  0  0  0  0  0  0  0
   40.8610   31.3220   44.6960 C   0  0  0  0  0  0  0  0  0  0  0  0
   40.0030   30.8450   43.7380 N   0  0  0  0  0  0  0  0  0  0  0  0
   38.8290   30.5990   44.2750 N   0  0  0  0  0  0  0  0  0  0  0  0
   40.4540   31.6730   46.8600 H   0  0  0  0  0  0  0  0  0  0  0  0
   41.8960   31.6240   44.6080 H   0  0  0  0  0  0  0  0  0  0  0  0
   37.7050   30.7440   46.5130 C   0  0  0  0  0  0  0  0  0  0  0  0
   37.9470   31.0230   47.8890 C   0  0  0  0  0  0  0  0  0  0  0  0
   36.8820   30.8880   48.7870 C   0  0  0  0  0  0  0  0  0  0  0  0
   35.6780   30.4990   48.2920 N   0  0  0  0  0  0  0  0  0  0  0  0
   35.4840   30.2420   46.9770 C   0  0  0  0  0  0  0  0  0  0  0  0
   36.5020   30.3690   46.1090 N   0  0  0  0  0  0  0  0  0  0  0  0
   38.9520   31.3300   48.1860 H   0  0  0  0  0  0  0  0  0  0  0  0
   34.4860   29.9390   46.6930 H   0  0  0  0  0  0  0  0  0  0  0  0
   37.1160   31.1730   50.2180 C   0  0  0  0  0  0  0  0  0  0  0  0
   36.5990   32.4340   50.4450 F   0  0  0  0  0  0  0  0  0  0  0  0
   36.4640   30.2730   51.0540 F   0  0  0  0  0  0  0  0  0  0  0  0
   38.4680   31.1950   50.5380 F   0  0  0  0  0  0  0  0  0  0  0  0
   41.0230   30.8020   39.8560 H   0  0  0  0  0  0  0  0  0  0  0  0
   40.8450   29.7850   39.9100 N   0  0  0  0  0  0  0  0  0  0  0  0
   39.4510   29.5810   40.3060 C   0  0  0  0  0  2  0  0  0  0  0  0
   39.1830   30.5360   41.4700 C   0  0  0  0  0  2  0  0  0  0  0  0
   40.3920   30.6600   42.3530 C   0  0  0  0  0  3  0  0  0  0  0  0
   41.2330   29.3980   42.2910 C   0  0  0  0  0  2  0  0  0  0  0  0
   41.6790   29.1130   40.8830 C   0  0  0  0  0  2  0  0  0  0  0  0
  1  2  1  0  0  0  0
  1  8  1  0  0  0  0
  2  6  1  0  0  0  0
  3  2  2  0  0  0  0
  4  5  1  0  0  0  0
  4  3  1  0  0  0  0
  5  1  2  0  0  0  0
  7  3  1  0  0  0  0
  8  9  1  0  0  0  0
  9 14  1  0  0  0  0
  9 10  2  0  0  0  0
 10 16  1  0  0  0  0
 11 10  1  0  0  0  0
 12 11  2  0  0  0  0
 13  8  2  0  0  0  0
 13 12  1  0  0  0  0
 15 12  1  0  0  0  0
 16 17  1  0  0  0  0
 16 19  1  0  0  0  0
 16 18  1  0  0  0  0
 20 21  1  0  0  0  0
 21 22  1  0  0  0  0
 21 26  1  0  0  0  0
 22 23  1  0  0  0  0
 23 24  1  0  0  0  0
 24  4  1  0  0  0  0
 25 24  1  0  0  0  0
 26 25  1  0  0  0  0
M  END
>  <minimizedAffinity>
-5.93303108

>  <minimizedRMSD>
1.24671161

$$$$
