
 OpenBabel03272504203D

 25 26  0  0  0  0  0  0  0  0999 V2000
   38.6740   26.5610   33.6600 O   0  0  0  0  0  0  0  0  0  0  0  0
   37.8320   26.9780   32.6580 C   0  0  0  0  0  0  0  0  0  0  0  0
   37.1180   27.7730   32.9370 H   0  0  0  0  0  0  0  0  0  0  0  0
   38.4700   27.4190   31.8390 H   0  0  0  0  0  0  0  0  0  0  0  0
   37.0110   25.8650   32.0970 C   0  0  0  0  0  0  0  0  0  0  0  0
   35.8320   26.1930   31.4510 C   0  0  0  0  0  0  0  0  0  0  0  0
   35.0530   25.1560   30.9200 C   0  0  0  0  0  0  0  0  0  0  0  0
   35.5180   23.8840   31.0800 N   0  0  0  0  0  0  0  0  0  0  0  0
   36.6660   23.5870   31.7110 C   0  0  0  0  0  0  0  0  0  0  0  0
   37.4040   24.5900   32.2150 N   0  0  0  0  0  0  0  0  0  0  0  0
   35.4870   27.2160   31.3380 H   0  0  0  0  0  0  0  0  0  0  0  0
   34.1350   25.3290   30.4100 H   0  0  0  0  0  0  0  0  0  0  0  0
   37.0030   22.5600   31.8180 H   0  0  0  0  0  0  0  0  0  0  0  0
   36.6380   27.6160   34.9350 O   0  0  0  0  0  0  0  0  0  0  0  0
   37.8620   26.7560   35.1210 P   0  0  2  0  0  0  0  0  0  0  0  0
   38.8800   27.5570   36.2440 O   0  0  0  0  0  0  0  0  0  0  0  0
   39.6410   26.9150   36.3610 H   0  0  0  0  0  0  0  0  0  0  0  0
   37.3550   25.2710   35.7670 O   0  0  0  0  0  0  0  0  0  0  0  0
   40.5690   22.5450   37.9600 H   0  0  0  0  0  0  0  0  0  0  0  0
   39.5180   22.5250   37.9180 N   0  0  0  0  0  0  0  0  0  0  0  0
   38.9010   23.5750   38.6680 C   0  0  0  0  0  2  0  0  0  0  0  0
   37.7490   24.2340   37.9200 C   0  0  0  0  0  2  0  0  0  0  0  0
   38.3440   24.8980   36.7030 C   0  0  0  0  0  3  0  0  0  0  0  0
   39.3590   24.0250   36.0290 C   0  0  0  0  0  2  0  0  0  0  0  0
   39.1490   22.5850   36.5000 C   0  0  0  0  0  2  0  0  0  0  0  0
  1 15  1  0  0  0  0
  2  3  1  0  0  0  0
  2  1  1  0  0  0  0
  4  2  1  0  0  0  0
  5 10  1  0  0  0  0
  5  2  1  0  0  0  0
  6  5  2  0  0  0  0
  7  8  2  0  0  0  0
  7  6  1  0  0  0  0
  8  9  1  0  0  0  0
  9 13  1  0  0  0  0
  9 10  2  0  0  0  0
 11  6  1  0  0  0  0
 12  7  1  0  0  0  0
 15 14  2  6  0  0  0
 15 18  1  0  0  0  0
 15 16  1  0  0  0  0
 16 17  1  0  0  0  0
 18 23  1  0  0  0  0
 20 19  1  0  0  0  0
 20 21  1  0  0  0  0
 22 21  1  0  0  0  0
 23 22  1  0  0  0  0
 24 25  1  0  0  0  0
 24 23  1  0  0  0  0
 25 20  1  0  0  0  0
M  END
>  <minimizedAffinity>
-5.0461154

$$$$

 OpenBabel03272504203D

 25 26  0  0  0  0  0  0  0  0999 V2000
   38.3280   25.1410   36.7480 O   0  0  0  0  0  0  0  0  0  0  0  0
   38.1700   23.9350   36.1080 C   0  0  0  0  0  0  0  0  0  0  0  0
   37.3400   23.3060   36.4770 H   0  0  0  0  0  0  0  0  0  0  0  0
   37.9260   24.1530   35.0290 H   0  0  0  0  0  0  0  0  0  0  0  0
   39.3940   23.0840   36.1730 C   0  0  0  0  0  0  0  0  0  0  0  0
   39.8630   22.7210   37.4240 C   0  0  0  0  0  0  0  0  0  0  0  0
   41.0120   21.9220   37.4970 C   0  0  0  0  0  0  0  0  0  0  0  0
   41.5920   21.5570   36.3190 N   0  0  0  0  0  0  0  0  0  0  0  0
   41.1210   21.9210   35.1150 C   0  0  0  0  0  0  0  0  0  0  0  0
   40.0190   22.6860   35.0570 N   0  0  0  0  0  0  0  0  0  0  0  0
   39.3800   23.0270   38.3460 H   0  0  0  0  0  0  0  0  0  0  0  0
   41.4320   21.6030   38.4210 H   0  0  0  0  0  0  0  0  0  0  0  0
   41.6120   21.6090   34.1980 H   0  0  0  0  0  0  0  0  0  0  0  0
   39.5650   26.1030   34.6450 O   0  0  0  0  0  0  0  0  0  0  0  0
   38.3980   26.3380   35.5680 P   0  0  2  0  0  0  0  0  0  0  0  0
   38.6360   27.8650   36.3100 O   0  0  0  0  0  0  0  0  0  0  0  0
   37.8080   27.9810   36.8630 H   0  0  0  0  0  0  0  0  0  0  0  0
   36.9910   26.3760   34.6200 O   0  0  0  0  0  0  0  0  0  0  0  0
   36.9380   27.2520   29.9510 H   0  0  0  0  0  0  0  0  0  0  0  0
   36.3860   26.6010   30.5660 N   0  0  0  0  0  0  0  0  0  0  0  0
   37.1470   25.4830   31.0330 C   0  0  0  0  0  2  0  0  0  0  0  0
   36.9140   25.1890   32.5090 C   0  0  0  0  0  2  0  0  0  0  0  0
   37.4290   26.3810   33.2770 C   0  0  0  0  0  3  0  0  0  0  0  0
   37.0320   27.6750   32.6330 C   0  0  0  0  0  2  0  0  0  0  0  0
   35.8690   27.4050   31.6790 C   0  0  0  0  0  2  0  0  0  0  0  0
  2  5  1  0  0  0  0
  2  3  1  0  0  0  0
  2  1  1  0  0  0  0
  4  2  1  0  0  0  0
  5  6  1  0  0  0  0
  6  7  2  0  0  0  0
  6 11  1  0  0  0  0
  7 12  1  0  0  0  0
  8  7  1  0  0  0  0
  9  8  2  0  0  0  0
 10  9  1  0  0  0  0
 10  5  2  0  0  0  0
 13  9  1  0  0  0  0
 15 14  2  6  0  0  0
 15 16  1  0  0  0  0
 15  1  1  0  0  0  0
 16 17  1  0  0  0  0
 18 15  1  0  0  0  0
 19 20  1  0  0  0  0
 20 21  1  0  0  0  0
 20 25  1  0  0  0  0
 21 22  1  0  0  0  0
 22 23  1  0  0  0  0
 23 18  1  0  0  0  0
 24 23  1  0  0  0  0
 25 24  1  0  0  0  0
M  END
>  <minimizedAffinity>
-4.60169458

$$$$

 OpenBabel03272504203D

 25 26  0  0  0  0  0  0  0  0999 V2000
   37.8340   23.2600   33.2340 O   0  0  0  0  0  0  0  0  0  0  0  0
   36.9310   23.2660   32.1990 C   0  0  0  0  0  0  0  0  0  0  0  0
   36.0280   23.8820   32.3600 H   0  0  0  0  0  0  0  0  0  0  0  0
   37.4460   23.7160   31.3020 H   0  0  0  0  0  0  0  0  0  0  0  0
   36.4430   21.9000   31.8530 C   0  0  0  0  0  0  0  0  0  0  0  0
   35.2530   21.4750   32.4190 C   0  0  0  0  0  0  0  0  0  0  0  0
   34.7850   20.1930   32.1010 C   0  0  0  0  0  0  0  0  0  0  0  0
   35.5440   19.4480   31.2480 N   0  0  0  0  0  0  0  0  0  0  0  0
   36.6970   19.8780   30.7110 C   0  0  0  0  0  0  0  0  0  0  0  0
   37.1350   21.1090   31.0220 N   0  0  0  0  0  0  0  0  0  0  0  0
   34.6690   22.0920   33.0950 H   0  0  0  0  0  0  0  0  0  0  0  0
   33.8790   19.7980   32.4960 H   0  0  0  0  0  0  0  0  0  0  0  0
   37.2730   19.2530   30.0350 H   0  0  0  0  0  0  0  0  0  0  0  0
   36.9890   25.7420   33.1400 O   0  0  0  0  0  0  0  0  0  0  0  0
   38.0600   24.8550   33.7220 P   0  0  2  0  0  0  0  0  0  0  0  0
   39.5660   25.4280   33.1400 O   0  0  0  0  0  0  0  0  0  0  0  0
   40.2300   24.8340   33.6010 H   0  0  0  0  0  0  0  0  0  0  0  0
   38.0000   25.0150   35.4100 O   0  0  0  0  0  0  0  0  0  0  0  0
   38.9630   21.6770   38.6510 H   0  0  0  0  0  0  0  0  0  0  0  0
   39.4570   22.5600   38.3600 N   0  0  0  0  0  0  0  0  0  0  0  0
   40.0890   22.4580   37.0800 C   0  0  0  0  0  2  0  0  0  0  0  0
   39.8630   23.6910   36.2130 C   0  0  0  0  0  2  0  0  0  0  0  0
   38.3820   23.7590   35.9330 C   0  0  0  0  0  3  0  0  0  0  0  0
   37.5660   23.4630   37.1540 C   0  0  0  0  0  2  0  0  0  0  0  0
   38.4570   23.6330   38.3850 C   0  0  0  0  0  2  0  0  0  0  0  0
  1 15  1  0  0  0  0
  2  3  1  0  0  0  0
  2  1  1  0  0  0  0
  4  2  1  0  0  0  0
  5  2  1  0  0  0  0
  5  6  1  0  0  0  0
  6 11  1  0  0  0  0
  7  6  2  0  0  0  0
  7 12  1  0  0  0  0
  8  7  1  0  0  0  0
  9 10  1  0  0  0  0
  9  8  2  0  0  0  0
 10  5  2  0  0  0  0
 13  9  1  0  0  0  0
 15 14  2  6  0  0  0
 15 18  1  0  0  0  0
 16 17  1  0  0  0  0
 16 15  1  0  0  0  0
 18 23  1  0  0  0  0
 20 25  1  0  0  0  0
 20 19  1  0  0  0  0
 21 20  1  0  0  0  0
 22 21  1  0  0  0  0
 23 22  1  0  0  0  0
 23 24  1  0  0  0  0
 24 25  1  0  0  0  0
M  END
>  <minimizedAffinity>
-4.57844019

$$$$

 OpenBabel03272504203D

 25 26  0  0  0  0  0  0  0  0999 V2000
   39.0860   27.0880   33.7980 O   0  0  0  0  0  0  0  0  0  0  0  0
   38.7750   26.1930   32.8030 C   0  0  0  0  0  0  0  0  0  0  0  0
   39.4440   25.3160   32.7280 H   0  0  0  0  0  0  0  0  0  0  0  0
   37.7530   25.7740   33.0300 H   0  0  0  0  0  0  0  0  0  0  0  0
   38.7610   26.8190   31.4490 C   0  0  0  0  0  0  0  0  0  0  0  0
   38.0090   27.9680   31.2750 C   0  0  0  0  0  0  0  0  0  0  0  0
   37.9890   28.5650   30.0070 C   0  0  0  0  0  0  0  0  0  0  0  0
   38.7190   27.9640   29.0250 N   0  0  0  0  0  0  0  0  0  0  0  0
   39.4420   26.8480   29.2150 C   0  0  0  0  0  0  0  0  0  0  0  0
   39.4550   26.2850   30.4340 N   0  0  0  0  0  0  0  0  0  0  0  0
   37.4380   28.4250   32.0770 H   0  0  0  0  0  0  0  0  0  0  0  0
   37.4350   29.4490   29.7970 H   0  0  0  0  0  0  0  0  0  0  0  0
   40.0110   26.3990   28.4060 H   0  0  0  0  0  0  0  0  0  0  0  0
   36.6810   27.4760   34.7720 O   0  0  0  0  0  0  0  0  0  0  0  0
   38.0110   26.8310   35.0670 P   0  0  2  0  0  0  0  0  0  0  0  0
   38.6220   27.5570   36.4950 O   0  0  0  0  0  0  0  0  0  0  0  0
   39.4720   27.0520   36.6620 H   0  0  0  0  0  0  0  0  0  0  0  0
   37.7340   25.1790   35.3370 O   0  0  0  0  0  0  0  0  0  0  0  0
   40.4920   22.5410   38.1670 H   0  0  0  0  0  0  0  0  0  0  0  0
   39.4730   22.4940   37.9100 N   0  0  0  0  0  0  0  0  0  0  0  0
   38.6910   23.5310   38.5090 C   0  0  0  0  0  2  0  0  0  0  0  0
   37.7020   24.1600   37.5350 C   0  0  0  0  0  2  0  0  0  0  0  0
   38.5180   24.8340   36.4600 C   0  0  0  0  0  3  0  0  0  0  0  0
   39.6700   23.9830   36.0160 C   0  0  0  0  0  2  0  0  0  0  0  0
   39.4010   22.5410   36.4460 C   0  0  0  0  0  2  0  0  0  0  0  0
  1 15  1  0  0  0  0
  2  4  1  0  0  0  0
  2  1  1  0  0  0  0
  3  2  1  0  0  0  0
  5  2  1  0  0  0  0
  6  5  1  0  0  0  0
  6 11  1  0  0  0  0
  7  6  2  0  0  0  0
  8  9  2  0  0  0  0
  8  7  1  0  0  0  0
  9 10  1  0  0  0  0
 10  5  2  0  0  0  0
 12  7  1  0  0  0  0
 13  9  1  0  0  0  0
 15 14  2  6  0  0  0
 15 18  1  0  0  0  0
 15 16  1  0  0  0  0
 16 17  1  0  0  0  0
 18 23  1  0  0  0  0
 20 19  1  0  0  0  0
 20 21  1  0  0  0  0
 22 21  1  0  0  0  0
 23 22  1  0  0  0  0
 24 25  1  0  0  0  0
 24 23  1  0  0  0  0
 25 20  1  0  0  0  0
M  END
>  <minimizedAffinity>
-4.53488493

$$$$

 OpenBabel03272504203D

 25 26  0  0  0  0  0  0  0  0999 V2000
   36.4790   23.8490   32.0940 O   0  0  0  0  0  0  0  0  0  0  0  0
   35.6010   23.0740   31.3770 C   0  0  0  0  0  0  0  0  0  0  0  0
   34.5310   23.3120   31.5190 H   0  0  0  0  0  0  0  0  0  0  0  0
   35.8060   23.2520   30.2820 H   0  0  0  0  0  0  0  0  0  0  0  0
   35.7430   21.6190   31.6740 C   0  0  0  0  0  0  0  0  0  0  0  0
   35.4020   21.1810   32.9420 C   0  0  0  0  0  0  0  0  0  0  0  0
   35.5310   19.8160   33.2330 C   0  0  0  0  0  0  0  0  0  0  0  0
   35.9890   19.0090   32.2350 N   0  0  0  0  0  0  0  0  0  0  0  0
   36.3160   19.4540   31.0100 C   0  0  0  0  0  0  0  0  0  0  0  0
   36.1870   20.7640   30.7430 N   0  0  0  0  0  0  0  0  0  0  0  0
   35.0380   21.8480   33.7170 H   0  0  0  0  0  0  0  0  0  0  0  0
   35.2880   19.4060   34.1840 H   0  0  0  0  0  0  0  0  0  0  0  0
   36.6780   18.7780   30.2410 H   0  0  0  0  0  0  0  0  0  0  0  0
   35.1380   25.6330   30.7140 O   0  0  0  0  0  0  0  0  0  0  0  0
   36.4360   25.4010   31.4430 P   0  0  2  0  0  0  0  0  0  0  0  0
   37.7000   25.5810   30.3000 O   0  0  0  0  0  0  0  0  0  0  0  0
   38.5280   25.4680   30.8540 H   0  0  0  0  0  0  0  0  0  0  0  0
   36.5740   26.5940   32.6420 O   0  0  0  0  0  0  0  0  0  0  0  0
   39.5630   26.5640   36.3350 H   0  0  0  0  0  0  0  0  0  0  0  0
   39.3840   27.2540   35.5600 N   0  0  0  0  0  0  0  0  0  0  0  0
   39.8790   26.8170   34.2910 C   0  0  0  0  0  2  0  0  0  0  0  0
   38.8930   27.0710   33.1570 C   0  0  0  0  0  2  0  0  0  0  0  0
   37.6800   26.2190   33.4370 C   0  0  0  0  0  3  0  0  0  0  0  0
   37.2860   26.2630   34.8820 C   0  0  0  0  0  2  0  0  0  0  0  0
   37.9370   27.4880   35.5250 C   0  0  0  0  0  2  0  0  0  0  0  0
  2  3  1  0  0  0  0
  2  5  1  0  0  0  0
  2  1  1  0  0  0  0
  4  2  1  0  0  0  0
  5  6  1  0  0  0  0
  6  7  2  0  0  0  0
  6 11  1  0  0  0  0
  7 12  1  0  0  0  0
  8  7  1  0  0  0  0
  9  8  2  0  0  0  0
 10  9  1  0  0  0  0
 10  5  2  0  0  0  0
 13  9  1  0  0  0  0
 15 14  2  6  0  0  0
 15  1  1  0  0  0  0
 15 18  1  0  0  0  0
 16 17  1  0  0  0  0
 16 15  1  0  0  0  0
 18 23  1  0  0  0  0
 20 19  1  0  0  0  0
 21 20  1  0  0  0  0
 22 23  1  0  0  0  0
 22 21  1  0  0  0  0
 23 24  1  0  0  0  0
 24 25  1  0  0  0  0
 25 20  1  0  0  0  0
M  END
>  <minimizedAffinity>
-4.52430487

$$$$

 OpenBabel03272504203D

 25 26  0  0  0  0  0  0  0  0999 V2000
   38.2810   25.2200   34.1750 O   0  0  0  0  0  0  0  0  0  0  0  0
   38.8700   24.0360   34.5500 C   0  0  0  0  0  0  0  0  0  0  0  0
   38.4250   23.1250   34.1110 H   0  0  0  0  0  0  0  0  0  0  0  0
   39.9360   24.0570   34.1840 H   0  0  0  0  0  0  0  0  0  0  0  0
   38.8590   23.8310   36.0270 C   0  0  0  0  0  0  0  0  0  0  0  0
   39.8240   23.0010   36.5720 C   0  0  0  0  0  0  0  0  0  0  0  0
   39.8240   22.8000   37.9590 C   0  0  0  0  0  0  0  0  0  0  0  0
   38.8620   23.4440   38.6800 N   0  0  0  0  0  0  0  0  0  0  0  0
   37.9340   24.2450   38.1310 C   0  0  0  0  0  0  0  0  0  0  0  0
   37.9440   24.4300   36.8010 N   0  0  0  0  0  0  0  0  0  0  0  0
   40.5780   22.5020   35.9720 H   0  0  0  0  0  0  0  0  0  0  0  0
   40.5330   22.1780   38.4500 H   0  0  0  0  0  0  0  0  0  0  0  0
   37.1830   24.7400   38.7410 H   0  0  0  0  0  0  0  0  0  0  0  0
   40.8410   25.7920   34.1940 O   0  0  0  0  0  0  0  0  0  0  0  0
   39.4670   26.4120   34.2110 P   0  0  2  0  0  0  0  0  0  0  0  0
   39.3350   27.3140   35.6620 O   0  0  0  0  0  0  0  0  0  0  0  0
   38.4290   27.7380   35.5860 H   0  0  0  0  0  0  0  0  0  0  0  0
   39.3570   27.4550   32.8770 O   0  0  0  0  0  0  0  0  0  0  0  0
   36.3320   27.0610   29.2340 H   0  0  0  0  0  0  0  0  0  0  0  0
   36.5590   27.8450   29.8990 N   0  0  0  0  0  0  0  0  0  0  0  0
   36.0540   27.6310   31.2200 C   0  0  0  0  0  2  0  0  0  0  0  0
   37.0650   27.9890   32.3020 C   0  0  0  0  0  2  0  0  0  0  0  0
   38.2230   27.0340   32.1480 C   0  0  0  0  0  3  0  0  0  0  0  0
   38.6030   26.8410   30.7110 C   0  0  0  0  0  2  0  0  0  0  0  0
   38.0180   27.9950   29.8960 C   0  0  0  0  0  2  0  0  0  0  0  0
  1 15  1  0  0  0  0
  1  2  1  0  0  0  0
  2  5  1  0  0  0  0
  3  2  1  0  0  0  0
  4  2  1  0  0  0  0
  5  6  2  0  0  0  0
  5 10  1  0  0  0  0
  6  7  1  0  0  0  0
  7 12  1  0  0  0  0
  7  8  2  0  0  0  0
  9  8  1  0  0  0  0
  9 13  1  0  0  0  0
 10  9  2  0  0  0  0
 11  6  1  0  0  0  0
 15 14  2  6  0  0  0
 15 16  1  0  0  0  0
 17 16  1  0  0  0  0
 18 15  1  0  0  0  0
 19 20  1  0  0  0  0
 20 21  1  0  0  0  0
 21 22  1  0  0  0  0
 23 22  1  0  0  0  0
 23 18  1  0  0  0  0
 24 23  1  0  0  0  0
 25 20  1  0  0  0  0
 25 24  1  0  0  0  0
M  END
>  <minimizedAffinity>
-4.43535328

$$$$

 OpenBabel03272504203D

 25 26  0  0  0  0  0  0  0  0999 V2000
   39.1680   27.1840   33.1480 O   0  0  0  0  0  0  0  0  0  0  0  0
   37.8710   26.8220   32.8760 C   0  0  0  0  0  0  0  0  0  0  0  0
   37.7320   26.1920   31.9780 H   0  0  0  0  0  0  0  0  0  0  0  0
   37.5040   26.1980   33.7410 H   0  0  0  0  0  0  0  0  0  0  0  0
   36.9700   27.9970   32.6990 C   0  0  0  0  0  0  0  0  0  0  0  0
   36.9660   28.6300   31.4680 C   0  0  0  0  0  0  0  0  0  0  0  0
   36.1240   29.7360   31.2900 C   0  0  0  0  0  0  0  0  0  0  0  0
   35.3600   30.1130   32.3550 N   0  0  0  0  0  0  0  0  0  0  0  0
   35.3790   29.4850   33.5420 C   0  0  0  0  0  0  0  0  0  0  0  0
   36.1900   28.4260   33.7000 N   0  0  0  0  0  0  0  0  0  0  0  0
   37.5860   28.3070   30.6370 H   0  0  0  0  0  0  0  0  0  0  0  0
   36.0660   30.2730   30.3740 H   0  0  0  0  0  0  0  0  0  0  0  0
   34.7550   29.8170   34.3670 H   0  0  0  0  0  0  0  0  0  0  0  0
   38.8770   27.3680   35.7490 O   0  0  0  0  0  0  0  0  0  0  0  0
   39.5590   26.5720   34.6660 P   0  0  2  0  0  0  0  0  0  0  0  0
   41.2480   26.7070   34.9240 O   0  0  0  0  0  0  0  0  0  0  0  0
   41.6360   26.1190   34.2100 H   0  0  0  0  0  0  0  0  0  0  0  0
   39.0810   24.9530   34.8380 O   0  0  0  0  0  0  0  0  0  0  0  0
   40.5580   22.1290   38.3620 H   0  0  0  0  0  0  0  0  0  0  0  0
   39.6490   22.2090   37.8370 N   0  0  0  0  0  0  0  0  0  0  0  0
   38.9000   23.3780   38.1810 C   0  0  0  0  0  2  0  0  0  0  0  0
   38.3120   24.0790   36.9620 C   0  0  0  0  0  2  0  0  0  0  0  0
   39.4770   24.5680   36.1390 C   0  0  0  0  0  3  0  0  0  0  0  0
   40.5640   23.5420   36.0410 C   0  0  0  0  0  2  0  0  0  0  0  0
   39.9790   22.1790   36.4090 C   0  0  0  0  0  2  0  0  0  0  0  0
  1 15  1  0  0  0  0
  2  1  1  0  0  0  0
  2  4  1  0  0  0  0
  3  2  1  0  0  0  0
  5  2  1  0  0  0  0
  5 10  1  0  0  0  0
  6  5  2  0  0  0  0
  7  6  1  0  0  0  0
  7  8  2  0  0  0  0
  8  9  1  0  0  0  0
  9 10  2  0  0  0  0
  9 13  1  0  0  0  0
 11  6  1  0  0  0  0
 12  7  1  0  0  0  0
 15 18  1  0  0  0  0
 15 16  1  0  0  0  0
 15 14  2  1  0  0  0
 17 16  1  0  0  0  0
 18 23  1  0  0  0  0
 20 21  1  0  0  0  0
 20 19  1  0  0  0  0
 22 21  1  0  0  0  0
 23 22  1  0  0  0  0
 24 23  1  0  0  0  0
 24 25  1  0  0  0  0
 25 20  1  0  0  0  0
M  END
>  <minimizedAffinity>
-4.41062546

$$$$

 OpenBabel03272504203D

 25 26  0  0  0  0  0  0  0  0999 V2000
   37.2420   25.2450   32.5440 O   0  0  0  0  0  0  0  0  0  0  0  0
   37.7730   26.4970   32.7350 C   0  0  0  0  0  0  0  0  0  0  0  0
   38.4810   26.5890   33.5780 H   0  0  0  0  0  0  0  0  0  0  0  0
   38.3660   26.7590   31.8120 H   0  0  0  0  0  0  0  0  0  0  0  0
   36.7270   27.5370   32.9600 C   0  0  0  0  0  0  0  0  0  0  0  0
   36.6250   28.0900   34.2240 C   0  0  0  0  0  0  0  0  0  0  0  0
   35.6460   29.0680   34.4470 C   0  0  0  0  0  0  0  0  0  0  0  0
   34.8550   29.4080   33.3900 N   0  0  0  0  0  0  0  0  0  0  0  0
   34.9690   28.8580   32.1700 C   0  0  0  0  0  0  0  0  0  0  0  0
   35.9120   27.9220   31.9680 N   0  0  0  0  0  0  0  0  0  0  0  0
   37.2710   27.8000   35.0470 H   0  0  0  0  0  0  0  0  0  0  0  0
   35.5080   29.5390   35.3910 H   0  0  0  0  0  0  0  0  0  0  0  0
   34.3190   29.1550   31.3530 H   0  0  0  0  0  0  0  0  0  0  0  0
   39.5530   24.0650   32.9300 O   0  0  0  0  0  0  0  0  0  0  0  0
   38.1460   24.1630   33.4620 P   0  0  2  0  0  0  0  0  0  0  0  0
   37.4540   22.5990   33.3580 O   0  0  0  0  0  0  0  0  0  0  0  0
   36.5480   22.7220   33.7710 H   0  0  0  0  0  0  0  0  0  0  0  0
   38.2420   24.6390   35.0880 O   0  0  0  0  0  0  0  0  0  0  0  0
   38.8870   21.7850   38.8310 H   0  0  0  0  0  0  0  0  0  0  0  0
   39.3920   22.6410   38.4840 N   0  0  0  0  0  0  0  0  0  0  0  0
   40.1740   22.3990   37.3110 C   0  0  0  0  0  2  0  0  0  0  0  0
   40.0250   23.5000   36.2680 C   0  0  0  0  0  2  0  0  0  0  0  0
   38.5880   23.4770   35.8120 C   0  0  0  0  0  3  0  0  0  0  0  0
   37.6390   23.3100   36.9600 C   0  0  0  0  0  2  0  0  0  0  0  0
   38.3730   23.6700   38.2520 C   0  0  0  0  0  2  0  0  0  0  0  0
  1  2  1  0  0  0  0
  1 15  1  0  0  0  0
  2  5  1  0  0  0  0
  2  3  1  0  0  0  0
  4  2  1  0  0  0  0
  5  6  1  0  0  0  0
  6  7  2  0  0  0  0
  6 11  1  0  0  0  0
  7 12  1  0  0  0  0
  8  7  1  0  0  0  0
  9  8  2  0  0  0  0
 10  9  1  0  0  0  0
 10  5  2  0  0  0  0
 13  9  1  0  0  0  0
 15 14  2  6  0  0  0
 15 18  1  0  0  0  0
 16 15  1  0  0  0  0
 16 17  1  0  0  0  0
 18 23  1  0  0  0  0
 20 19  1  0  0  0  0
 21 20  1  0  0  0  0
 22 21  1  0  0  0  0
 23 22  1  0  0  0  0
 23 24  1  0  0  0  0
 24 25  1  0  0  0  0
 25 20  1  0  0  0  0
M  END
>  <minimizedAffinity>
-4.35848999

$$$$

 OpenBabel03272504203D

 25 26  0  0  0  0  0  0  0  0999 V2000
   38.5300   25.5230   34.2770 O   0  0  0  0  0  0  0  0  0  0  0  0
   38.7800   24.1950   34.5290 C   0  0  0  0  0  0  0  0  0  0  0  0
   38.0510   23.4850   34.0970 H   0  0  0  0  0  0  0  0  0  0  0  0
   39.7690   23.9400   34.0510 H   0  0  0  0  0  0  0  0  0  0  0  0
   38.8420   23.8880   35.9870 C   0  0  0  0  0  0  0  0  0  0  0  0
   37.9150   24.4940   36.8160 C   0  0  0  0  0  0  0  0  0  0  0  0
   37.9640   24.2120   38.1890 C   0  0  0  0  0  0  0  0  0  0  0  0
   38.9330   23.3520   38.6120 N   0  0  0  0  0  0  0  0  0  0  0  0
   39.8240   22.7740   37.7900 C   0  0  0  0  0  0  0  0  0  0  0  0
   39.7670   23.0510   36.4770 N   0  0  0  0  0  0  0  0  0  0  0  0
   37.1530   25.1750   36.4500 H   0  0  0  0  0  0  0  0  0  0  0  0
   37.2850   24.6390   38.8880 H   0  0  0  0  0  0  0  0  0  0  0  0
   40.5830   22.0940   38.1670 H   0  0  0  0  0  0  0  0  0  0  0  0
   40.7620   25.1500   32.9500 O   0  0  0  0  0  0  0  0  0  0  0  0
   39.9410   26.1980   33.6570 P   0  0  2  0  0  0  0  0  0  0  0  0
   40.8980   26.8120   34.9400 O   0  0  0  0  0  0  0  0  0  0  0  0
   40.3200   27.5320   35.3310 H   0  0  0  0  0  0  0  0  0  0  0  0
   39.6150   27.4350   32.5430 O   0  0  0  0  0  0  0  0  0  0  0  0
   36.3970   27.1650   29.0590 H   0  0  0  0  0  0  0  0  0  0  0  0
   36.6720   27.9320   29.7260 N   0  0  0  0  0  0  0  0  0  0  0  0
   36.2330   27.6990   31.0670 C   0  0  0  0  0  2  0  0  0  0  0  0
   37.3050   28.0180   32.1010 C   0  0  0  0  0  2  0  0  0  0  0  0
   38.4370   27.0480   31.8670 C   0  0  0  0  0  3  0  0  0  0  0  0
   38.7370   26.8780   30.4090 C   0  0  0  0  0  2  0  0  0  0  0  0
   38.1310   28.0570   29.6490 C   0  0  0  0  0  2  0  0  0  0  0  0
  1  2  1  0  0  0  0
  2  5  1  0  0  0  0
  3  2  1  0  0  0  0
  4  2  1  0  0  0  0
  5 10  2  0  0  0  0
  5  6  1  0  0  0  0
  6  7  2  0  0  0  0
  7  8  1  0  0  0  0
  7 12  1  0  0  0  0
  9 13  1  0  0  0  0
  9  8  2  0  0  0  0
 10  9  1  0  0  0  0
 11  6  1  0  0  0  0
 15 14  2  6  0  0  0
 15  1  1  0  0  0  0
 15 16  1  0  0  0  0
 16 17  1  0  0  0  0
 18 15  1  0  0  0  0
 19 20  1  0  0  0  0
 20 21  1  0  0  0  0
 21 22  1  0  0  0  0
 23 22  1  0  0  0  0
 23 18  1  0  0  0  0
 24 23  1  0  0  0  0
 25 20  1  0  0  0  0
 25 24  1  0  0  0  0
M  END
>  <minimizedAffinity>
-4.34541178

$$$$
