
 OpenBabel03262521083D

 43 45  0  0  1  0  0  0  0  0999 V2000
   38.8940   26.1620   34.8040 C   0  0  2  0  0  0  0  0  0  0  0  0
   38.2410   27.3150   35.4110 C   0  0  0  0  0  0  0  0  0  0  0  0
   36.9410   27.6960   34.7070 C   0  0  0  0  0  0  0  0  0  0  0  0
   37.1330   27.9660   33.2550 C   0  0  0  0  0  0  0  0  0  0  0  0
   38.1190   27.0650   32.5900 C   0  0  0  0  0  0  0  0  0  0  0  0
   38.3850   25.8140   33.4300 C   0  0  2  0  0  0  0  0  0  0  0  0
   39.9940   26.4100   34.6930 H   0  0  0  0  0  0  0  0  0  0  0  0
   38.8760   28.2540   35.3420 H   0  0  0  0  0  0  0  0  0  0  0  0
   37.9640   27.2640   36.4720 H   0  0  0  0  0  0  0  0  0  0  0  0
   36.1790   26.8980   34.8240 H   0  0  0  0  0  0  0  0  0  0  0  0
   36.5640   28.6120   35.1940 H   0  0  0  0  0  0  0  0  0  0  0  0
   36.1540   27.8080   32.7230 H   0  0  0  0  0  0  0  0  0  0  0  0
   37.4340   29.0120   33.1160 H   0  0  0  0  0  0  0  0  0  0  0  0
   39.1220   27.5610   32.4800 H   0  0  0  0  0  0  0  0  0  0  0  0
   37.8300   26.7340   31.5880 H   0  0  0  0  0  0  0  0  0  0  0  0
   39.2270   25.3320   32.8860 H   0  0  0  0  0  0  0  0  0  0  0  0
   38.8630   24.9320   35.5980 C   0  0  0  0  0  0  0  0  0  0  0  0
   38.2150   25.0520   36.8320 C   0  0  0  0  0  0  0  0  0  0  0  0
   38.1480   23.9120   37.6180 C   0  0  0  0  0  0  0  0  0  0  0  0
   38.7020   22.7520   37.1680 N   0  0  0  0  0  0  0  0  0  0  0  0
   39.3170   22.6730   35.9770 C   0  0  0  0  0  0  0  0  0  0  0  0
   39.3710   23.7540   35.2510 N   0  0  0  0  0  0  0  0  0  0  0  0
   37.7350   25.8390   37.3740 H   0  0  0  0  0  0  0  0  0  0  0  0
   37.6990   23.7850   38.5920 H   0  0  0  0  0  0  0  0  0  0  0  0
   39.7720   21.7700   35.5830 H   0  0  0  0  0  0  0  0  0  0  0  0
   37.2690   25.0070   33.2930 N   0  0  0  0  0  0  0  0  0  0  0  0
   37.0520   24.4280   34.1400 H   0  0  0  0  0  0  0  0  0  0  0  0
   37.2120   23.9370   31.9730 S   0  0  1  0  0  0  0  0  0  0  0  0
   38.6800   23.8580   31.5090 O   0  0  0  0  0  0  0  0  0  0  0  0
   39.1590   22.9890   31.4930 H   0  0  0  0  0  0  0  0  0  0  0  0
   36.7760   22.6170   32.3180 O   0  0  0  0  0  0  0  0  0  0  0  0
   34.8090   18.7170   31.5340 H   0  0  0  0  0  0  0  0  0  0  0  0
   35.4050   19.5650   31.3990 N   0  0  0  0  0  0  0  0  0  0  0  0
   36.7230   19.2530   31.8460 C   0  0  0  0  0  2  0  0  0  0  0  0
   37.6020   20.4490   32.1210 C   0  0  0  0  0  2  0  0  0  0  0  0
   36.9220   21.4990   32.9600 C   0  0  0  0  0  3  0  0  0  0  0  0
   35.6030   20.8260   33.3790 C   0  0  0  0  0  2  0  0  0  0  0  0
   34.7710   20.6160   32.1570 C   0  0  0  0  0  2  0  0  0  0  0  0
   36.3840   24.5790   30.6780 O   0  0  0  0  0  0  0  0  0  0  0  0
   35.1010   24.9770   31.0020 C   0  0  0  0  0  0  0  0  0  0  0  0
   35.1140   26.2610   31.4720 F   0  0  0  0  0  0  0  0  0  0  0  0
   34.3830   25.0090   29.8340 F   0  0  0  0  0  0  0  0  0  0  0  0
   34.4450   24.1020   31.8560 F   0  0  0  0  0  0  0  0  0  0  0  0
  1  7  1  6  0  0  0
  1  2  1  0  0  0  0
  1 17  1  0  0  0  0
  2  9  1  0  0  0  0
  3 10  1  0  0  0  0
  3 11  1  0  0  0  0
  3  2  1  0  0  0  0
  4  3  1  0  0  0  0
  5  4  1  0  0  0  0
  5  6  1  0  0  0  0
  6 16  1  6  0  0  0
  6  1  1  0  0  0  0
  8  2  1  0  0  0  0
 12  4  1  0  0  0  0
 13  4  1  0  0  0  0
 14  5  1  0  0  0  0
 15  5  1  0  0  0  0
 17 18  1  0  0  0  0
 18 23  1  0  0  0  0
 18 19  2  0  0  0  0
 19 24  1  0  0  0  0
 20 19  1  0  0  0  0
 21 20  2  0  0  0  0
 22 17  2  0  0  0  0
 22 21  1  0  0  0  0
 25 21  1  0  0  0  0
 26  6  1  0  0  0  0
 26 27  1  0  0  0  0
 28 39  1  6  0  0  0
 28 31  1  0  0  0  0
 28 26  1  0  0  0  0
 29 28  1  0  0  0  0
 30 29  1  0  0  0  0
 31 36  1  0  0  0  0
 33 32  1  0  0  0  0
 33 34  1  0  0  0  0
 33 38  1  0  0  0  0
 34 35  1  0  0  0  0
 35 36  1  0  0  0  0
 36 37  1  0  0  0  0
 38 37  1  0  0  0  0
 39 40  1  0  0  0  0
 40 41  1  0  0  0  0
 40 43  1  0  0  0  0
 42 40  1  0  0  0  0
M  END
>  <minimizedAffinity>
-5.72969198

$$$$

 OpenBabel03262521083D

 43 45  0  0  1  0  0  0  0  0999 V2000
   38.0580   23.6470   32.0970 C   0  0  2  0  0  0  0  0  0  0  0  0
   36.9340   23.0270   31.4070 C   0  0  0  0  0  0  0  0  0  0  0  0
   36.2110   21.9920   32.2660 C   0  0  0  0  0  0  0  0  0  0  0  0
   37.1200   20.9190   32.7570 C   0  0  0  0  0  0  0  0  0  0  0  0
   38.4830   21.3960   33.1320 C   0  0  0  0  0  0  0  0  0  0  0  0
   38.5080   22.9120   33.3340 C   0  0  2  0  0  0  0  0  0  0  0  0
   38.9370   23.6550   31.3830 H   0  0  0  0  0  0  0  0  0  0  0  0
   37.2620   22.4430   30.4910 H   0  0  0  0  0  0  0  0  0  0  0  0
   36.1280   23.6710   31.0320 H   0  0  0  0  0  0  0  0  0  0  0  0
   35.7230   22.4730   33.1390 H   0  0  0  0  0  0  0  0  0  0  0  0
   35.4280   21.5370   31.6350 H   0  0  0  0  0  0  0  0  0  0  0  0
   36.6780   20.4660   33.6880 H   0  0  0  0  0  0  0  0  0  0  0  0
   37.1970   20.1320   31.9960 H   0  0  0  0  0  0  0  0  0  0  0  0
   39.2270   21.1980   32.3120 H   0  0  0  0  0  0  0  0  0  0  0  0
   38.8940   20.9360   34.0360 H   0  0  0  0  0  0  0  0  0  0  0  0
   39.5930   23.1220   33.4570 H   0  0  0  0  0  0  0  0  0  0  0  0
   37.8670   25.0480   32.4780 C   0  0  0  0  0  0  0  0  0  0  0  0
   36.7120   25.6410   31.9560 C   0  0  0  0  0  0  0  0  0  0  0  0
   36.4800   26.9640   32.2950 C   0  0  0  0  0  0  0  0  0  0  0  0
   37.3630   27.6180   33.1010 N   0  0  0  0  0  0  0  0  0  0  0  0
   38.4630   27.0170   33.5830 C   0  0  0  0  0  0  0  0  0  0  0  0
   38.6670   25.7720   33.2540 N   0  0  0  0  0  0  0  0  0  0  0  0
   35.9120   25.3320   31.3170 H   0  0  0  0  0  0  0  0  0  0  0  0
   35.6590   27.6040   32.0070 H   0  0  0  0  0  0  0  0  0  0  0  0
   39.1910   27.5020   34.2240 H   0  0  0  0  0  0  0  0  0  0  0  0
   37.8830   23.1540   34.5440 N   0  0  0  0  0  0  0  0  0  0  0  0
   37.2790   24.0120   34.5510 H   0  0  0  0  0  0  0  0  0  0  0  0
   38.8520   23.2600   35.9380 S   0  0  1  0  0  0  0  0  0  0  0  0
   38.7500   21.8500   36.5550 O   0  0  0  0  0  0  0  0  0  0  0  0
   39.5640   21.3000   36.6940 H   0  0  0  0  0  0  0  0  0  0  0  0
   40.2300   23.5350   35.6650 O   0  0  0  0  0  0  0  0  0  0  0  0
   43.8630   26.0280   35.1330 H   0  0  0  0  0  0  0  0  0  0  0  0
   43.0510   25.5530   35.5900 N   0  0  0  0  0  0  0  0  0  0  0  0
   43.5070   24.3090   36.1170 C   0  0  0  0  0  2  0  0  0  0  0  0
   42.4170   23.3140   36.4330 C   0  0  0  0  0  2  0  0  0  0  0  0
   41.4210   23.1570   35.3150 C   0  0  0  0  0  3  0  0  0  0  0  0
   42.0380   23.9740   34.1660 C   0  0  0  0  0  2  0  0  0  0  0  0
   42.0480   25.4130   34.5630 C   0  0  0  0  0  2  0  0  0  0  0  0
   38.1980   24.2790   37.0810 O   0  0  0  0  0  0  0  0  0  0  0  0
   38.3360   23.8020   38.3710 C   0  0  0  0  0  0  0  0  0  0  0  0
   39.6120   23.3540   38.5710 F   0  0  0  0  0  0  0  0  0  0  0  0
   38.1740   24.8720   39.2150 F   0  0  0  0  0  0  0  0  0  0  0  0
   37.3780   22.8620   38.7230 F   0  0  0  0  0  0  0  0  0  0  0  0
  1  7  1  6  0  0  0
  1 17  1  0  0  0  0
  1  6  1  0  0  0  0
  2  1  1  0  0  0  0
  2  3  1  0  0  0  0
  3  4  1  0  0  0  0
  3 10  1  0  0  0  0
  4  5  1  0  0  0  0
  4 12  1  0  0  0  0
  5  6  1  0  0  0  0
  5 15  1  0  0  0  0
  6 16  1  1  0  0  0
  6 26  1  0  0  0  0
  8  2  1  0  0  0  0
  9  2  1  0  0  0  0
 11  3  1  0  0  0  0
 13  4  1  0  0  0  0
 14  5  1  0  0  0  0
 17 22  1  0  0  0  0
 18 19  1  0  0  0  0
 18 17  2  0  0  0  0
 19 20  2  0  0  0  0
 20 21  1  0  0  0  0
 21 25  1  0  0  0  0
 22 21  2  0  0  0  0
 23 18  1  0  0  0  0
 24 19  1  0  0  0  0
 26 27  1  0  0  0  0
 26 28  1  0  0  0  0
 28 31  1  6  0  0  0
 28 29  1  0  0  0  0
 28 39  1  0  0  0  0
 29 30  1  0  0  0  0
 32 33  1  0  0  0  0
 33 34  1  0  0  0  0
 34 35  1  0  0  0  0
 36 31  1  0  0  0  0
 36 35  1  0  0  0  0
 37 38  1  0  0  0  0
 37 36  1  0  0  0  0
 38 33  1  0  0  0  0
 39 40  1  0  0  0  0
 40 41  1  0  0  0  0
 40 43  1  0  0  0  0
 40 42  1  0  0  0  0
M  END
>  <minimizedAffinity>
-5.68733883

$$$$

 OpenBabel03262521083D

 43 45  0  0  1  0  0  0  0  0999 V2000
   36.6200   26.0110   32.3570 C   0  0  2  0  0  0  0  0  0  0  0  0
   36.2880   26.9670   31.3090 C   0  0  0  0  0  0  0  0  0  0  0  0
   36.8530   28.3590   31.5780 C   0  0  0  0  0  0  0  0  0  0  0  0
   36.4100   28.9140   32.8880 C   0  0  0  0  0  0  0  0  0  0  0  0
   36.3280   27.9050   33.9830 C   0  0  0  0  0  0  0  0  0  0  0  0
   37.1130   26.6380   33.6350 C   0  0  2  0  0  0  0  0  0  0  0  0
   35.6760   25.4420   32.6140 H   0  0  0  0  0  0  0  0  0  0  0  0
   35.1690   27.1370   31.2210 H   0  0  0  0  0  0  0  0  0  0  0  0
   36.6010   26.7490   30.2790 H   0  0  0  0  0  0  0  0  0  0  0  0
   37.9620   28.3490   31.5520 H   0  0  0  0  0  0  0  0  0  0  0  0
   36.4920   29.0190   30.7700 H   0  0  0  0  0  0  0  0  0  0  0  0
   37.1560   29.6860   33.2270 H   0  0  0  0  0  0  0  0  0  0  0  0
   35.4390   29.4080   32.7640 H   0  0  0  0  0  0  0  0  0  0  0  0
   35.2700   27.5580   34.1440 H   0  0  0  0  0  0  0  0  0  0  0  0
   36.6850   28.2570   34.9560 H   0  0  0  0  0  0  0  0  0  0  0  0
   36.8360   25.9470   34.4620 H   0  0  0  0  0  0  0  0  0  0  0  0
   37.5920   24.9810   31.9840 C   0  0  0  0  0  0  0  0  0  0  0  0
   37.4070   23.7480   32.6200 C   0  0  0  0  0  0  0  0  0  0  0  0
   38.2950   22.7350   32.2930 C   0  0  0  0  0  0  0  0  0  0  0  0
   39.2860   22.9750   31.3900 N   0  0  0  0  0  0  0  0  0  0  0  0
   39.4350   24.1720   30.7990 C   0  0  0  0  0  0  0  0  0  0  0  0
   38.5920   25.1130   31.1180 N   0  0  0  0  0  0  0  0  0  0  0  0
   36.7280   23.3520   33.3450 H   0  0  0  0  0  0  0  0  0  0  0  0
   38.3310   21.7200   32.6610 H   0  0  0  0  0  0  0  0  0  0  0  0
   40.2110   24.4040   30.0780 H   0  0  0  0  0  0  0  0  0  0  0  0
   38.4510   26.9590   33.7740 N   0  0  0  0  0  0  0  0  0  0  0  0
   39.0560   26.6300   32.9830 H   0  0  0  0  0  0  0  0  0  0  0  0
   39.2470   26.4750   35.1970 S   0  0  1  0  0  0  0  0  0  0  0  0
   38.8900   27.5850   36.2050 O   0  0  0  0  0  0  0  0  0  0  0  0
   38.4130   27.3670   37.0480 H   0  0  0  0  0  0  0  0  0  0  0  0
   38.7870   25.2240   35.7190 O   0  0  0  0  0  0  0  0  0  0  0  0
   39.5620   21.6840   38.2810 H   0  0  0  0  0  0  0  0  0  0  0  0
   39.5760   22.6690   37.9300 N   0  0  0  0  0  0  0  0  0  0  0  0
   38.5070   23.3760   38.5570 C   0  0  0  0  0  2  0  0  0  0  0  0
   38.1110   24.6640   37.8760 C   0  0  0  0  0  2  0  0  0  0  0  0
   37.9330   24.5120   36.3880 C   0  0  0  0  0  3  0  0  0  0  0  0
   38.0510   22.9940   36.1640 C   0  0  0  0  0  2  0  0  0  0  0  0
   39.4460   22.5760   36.4970 C   0  0  0  0  0  2  0  0  0  0  0  0
   40.9040   26.5470   35.0450 O   0  0  0  0  0  0  0  0  0  0  0  0
   41.4630   25.3460   34.6540 C   0  0  0  0  0  0  0  0  0  0  0  0
   40.6460   24.7200   33.7530 F   0  0  0  0  0  0  0  0  0  0  0  0
   42.6180   25.6410   33.9740 F   0  0  0  0  0  0  0  0  0  0  0  0
   41.8180   24.5240   35.7140 F   0  0  0  0  0  0  0  0  0  0  0  0
  1  7  1  1  0  0  0
  1  6  1  0  0  0  0
  2  3  1  0  0  0  0
  2  1  1  0  0  0  0
  3  4  1  0  0  0  0
  4 12  1  0  0  0  0
  4  5  1  0  0  0  0
  5 14  1  0  0  0  0
  5 15  1  0  0  0  0
  6 26  1  0  0  0  0
  6  5  1  0  0  0  0
  6 16  1  1  0  0  0
  8  2  1  0  0  0  0
  9  2  1  0  0  0  0
 10  3  1  0  0  0  0
 11  3  1  0  0  0  0
 13  4  1  0  0  0  0
 17  1  1  0  0  0  0
 17 18  1  0  0  0  0
 18 23  1  0  0  0  0
 19 18  2  0  0  0  0
 19 24  1  0  0  0  0
 20 19  1  0  0  0  0
 21 22  1  0  0  0  0
 21 20  2  0  0  0  0
 22 17  2  0  0  0  0
 25 21  1  0  0  0  0
 26 28  1  0  0  0  0
 27 26  1  0  0  0  0
 28 39  1  6  0  0  0
 28 31  1  0  0  0  0
 28 29  1  0  0  0  0
 29 30  1  0  0  0  0
 31 36  1  0  0  0  0
 33 32  1  0  0  0  0
 33 34  1  0  0  0  0
 35 34  1  0  0  0  0
 36 35  1  0  0  0  0
 37 36  1  0  0  0  0
 37 38  1  0  0  0  0
 38 33  1  0  0  0  0
 40 39  1  0  0  0  0
 40 43  1  0  0  0  0
 41 40  1  0  0  0  0
 42 40  1  0  0  0  0
M  END
>  <minimizedAffinity>
-5.5892992

$$$$

 OpenBabel03262521083D

 43 45  0  0  1  0  0  0  0  0999 V2000
   37.7970   23.5540   31.9390 C   0  0  2  0  0  0  0  0  0  0  0  0
   36.6600   22.9100   31.2940 C   0  0  0  0  0  0  0  0  0  0  0  0
   35.9290   21.9390   32.2180 C   0  0  0  0  0  0  0  0  0  0  0  0
   36.8260   20.8850   32.7680 C   0  0  0  0  0  0  0  0  0  0  0  0
   38.1980   21.3640   33.1060 C   0  0  0  0  0  0  0  0  0  0  0  0
   38.2440   22.8900   33.2150 C   0  0  2  0  0  0  0  0  0  0  0  0
   38.6710   23.5070   31.2210 H   0  0  0  0  0  0  0  0  0  0  0  0
   36.9740   22.2660   30.4130 H   0  0  0  0  0  0  0  0  0  0  0  0
   35.8600   23.5410   30.8850 H   0  0  0  0  0  0  0  0  0  0  0  0
   35.4520   22.4780   33.0630 H   0  0  0  0  0  0  0  0  0  0  0  0
   35.1350   21.4570   31.6210 H   0  0  0  0  0  0  0  0  0  0  0  0
   36.3840   20.4950   33.7270 H   0  0  0  0  0  0  0  0  0  0  0  0
   36.8880   20.0520   32.0560 H   0  0  0  0  0  0  0  0  0  0  0  0
   38.9340   21.1080   32.2960 H   0  0  0  0  0  0  0  0  0  0  0  0
   38.6080   20.9550   34.0340 H   0  0  0  0  0  0  0  0  0  0  0  0
   39.3330   23.0920   33.3190 H   0  0  0  0  0  0  0  0  0  0  0  0
   37.6280   24.9790   32.2340 C   0  0  0  0  0  0  0  0  0  0  0  0
   36.4850   25.5580   31.6710 C   0  0  0  0  0  0  0  0  0  0  0  0
   36.2730   26.9030   31.9290 C   0  0  0  0  0  0  0  0  0  0  0  0
   37.1630   27.5890   32.7010 N   0  0  0  0  0  0  0  0  0  0  0  0
   38.2500   27.0000   33.2250 C   0  0  0  0  0  0  0  0  0  0  0  0
   38.4350   25.7350   32.9720 N   0  0  0  0  0  0  0  0  0  0  0  0
   35.6840   25.2260   31.0460 H   0  0  0  0  0  0  0  0  0  0  0  0
   35.4650   27.5390   31.5980 H   0  0  0  0  0  0  0  0  0  0  0  0
   38.9820   27.5090   33.8420 H   0  0  0  0  0  0  0  0  0  0  0  0
   37.6310   23.2140   34.4120 N   0  0  0  0  0  0  0  0  0  0  0  0
   37.2100   24.1750   34.4320 H   0  0  0  0  0  0  0  0  0  0  0  0
   38.5420   23.0790   35.8410 S   0  0  1  0  0  0  0  0  0  0  0  0
   37.9970   21.7940   36.4960 O   0  0  0  0  0  0  0  0  0  0  0  0
   38.6000   21.0280   36.6860 H   0  0  0  0  0  0  0  0  0  0  0  0
   39.9470   22.9110   35.6180 O   0  0  0  0  0  0  0  0  0  0  0  0
   43.8310   20.7880   35.9190 H   0  0  0  0  0  0  0  0  0  0  0  0
   42.8820   21.0620   35.5780 N   0  0  0  0  0  0  0  0  0  0  0  0
   43.0480   22.0310   34.5440 C   0  0  0  0  0  2  0  0  0  0  0  0
   41.8140   22.8410   34.2280 C   0  0  0  0  0  2  0  0  0  0  0  0
   41.1410   23.3930   35.4570 C   0  0  0  0  0  3  0  0  0  0  0  0
   42.1250   23.0500   36.5900 C   0  0  0  0  0  2  0  0  0  0  0  0
   42.1800   21.5650   36.7340 C   0  0  0  0  0  2  0  0  0  0  0  0
   38.1960   24.2950   36.9250 O   0  0  0  0  0  0  0  0  0  0  0  0
   38.2370   23.8740   38.2400 C   0  0  0  0  0  0  0  0  0  0  0  0
   37.2810   22.9200   38.4560 F   0  0  0  0  0  0  0  0  0  0  0  0
   39.4430   23.2480   38.4250 F   0  0  0  0  0  0  0  0  0  0  0  0
   38.1750   24.9110   39.1600 F   0  0  0  0  0  0  0  0  0  0  0  0
  1  7  1  6  0  0  0
  1 17  1  0  0  0  0
  1  6  1  0  0  0  0
  2  1  1  0  0  0  0
  2  3  1  0  0  0  0
  3  4  1  0  0  0  0
  3 10  1  0  0  0  0
  4  5  1  0  0  0  0
  4 12  1  0  0  0  0
  5  6  1  0  0  0  0
  5 15  1  0  0  0  0
  6 16  1  1  0  0  0
  6 26  1  0  0  0  0
  8  2  1  0  0  0  0
  9  2  1  0  0  0  0
 11  3  1  0  0  0  0
 13  4  1  0  0  0  0
 14  5  1  0  0  0  0
 17 22  1  0  0  0  0
 18 19  1  0  0  0  0
 18 17  2  0  0  0  0
 19 20  2  0  0  0  0
 20 21  1  0  0  0  0
 21 25  1  0  0  0  0
 22 21  2  0  0  0  0
 23 18  1  0  0  0  0
 24 19  1  0  0  0  0
 26 27  1  0  0  0  0
 26 28  1  0  0  0  0
 28 31  1  6  0  0  0
 28 29  1  0  0  0  0
 28 39  1  0  0  0  0
 29 30  1  0  0  0  0
 33 32  1  0  0  0  0
 33 38  1  0  0  0  0
 34 33  1  0  0  0  0
 35 34  1  0  0  0  0
 35 36  1  0  0  0  0
 36 31  1  0  0  0  0
 36 37  1  0  0  0  0
 37 38  1  0  0  0  0
 39 40  1  0  0  0  0
 40 42  1  0  0  0  0
 40 41  1  0  0  0  0
 40 43  1  0  0  0  0
M  END
>  <minimizedAffinity>
-5.39982843

$$$$

 OpenBabel03262521083D

 43 45  0  0  1  0  0  0  0  0999 V2000
   39.0110   26.1240   35.1490 C   0  0  2  0  0  0  0  0  0  0  0  0
   38.1000   27.2250   35.4330 C   0  0  0  0  0  0  0  0  0  0  0  0
   36.9510   27.3150   34.4330 C   0  0  0  0  0  0  0  0  0  0  0  0
   37.4240   27.4390   33.0260 C   0  0  0  0  0  0  0  0  0  0  0  0
   38.6380   26.6290   32.7150 C   0  0  0  0  0  0  0  0  0  0  0  0
   38.8680   25.5420   33.7670 C   0  0  2  0  0  0  0  0  0  0  0  0
   40.0680   26.5240   35.2280 H   0  0  0  0  0  0  0  0  0  0  0  0
   38.6100   28.2360   35.3570 H   0  0  0  0  0  0  0  0  0  0  0  0
   37.6030   27.2560   36.4120 H   0  0  0  0  0  0  0  0  0  0  0  0
   36.2880   26.4270   34.5090 H   0  0  0  0  0  0  0  0  0  0  0  0
   36.3620   28.2120   34.6920 H   0  0  0  0  0  0  0  0  0  0  0  0
   36.6150   27.0700   32.3360 H   0  0  0  0  0  0  0  0  0  0  0  0
   37.6130   28.4950   32.7980 H   0  0  0  0  0  0  0  0  0  0  0  0
   39.5700   27.2590   32.7390 H   0  0  0  0  0  0  0  0  0  0  0  0
   38.6230   26.1420   31.7350 H   0  0  0  0  0  0  0  0  0  0  0  0
   39.8630   25.1360   33.4820 H   0  0  0  0  0  0  0  0  0  0  0  0
   38.9600   25.0050   36.0920 C   0  0  0  0  0  0  0  0  0  0  0  0
   37.9990   25.1380   37.1010 C   0  0  0  0  0  0  0  0  0  0  0  0
   37.9030   24.1000   38.0140 C   0  0  0  0  0  0  0  0  0  0  0  0
   38.7270   23.0210   37.8960 N   0  0  0  0  0  0  0  0  0  0  0  0
   39.6390   22.9280   36.9160 C   0  0  0  0  0  0  0  0  0  0  0  0
   39.7170   23.9130   36.0650 N   0  0  0  0  0  0  0  0  0  0  0  0
   37.2780   25.8750   37.3820 H   0  0  0  0  0  0  0  0  0  0  0  0
   37.2380   23.9990   38.8590 H   0  0  0  0  0  0  0  0  0  0  0  0
   40.3140   22.0890   36.7880 H   0  0  0  0  0  0  0  0  0  0  0  0
   37.9210   24.5620   33.5270 N   0  0  0  0  0  0  0  0  0  0  0  0
   37.4690   24.1800   34.3940 H   0  0  0  0  0  0  0  0  0  0  0  0
   38.3850   23.2060   32.6120 S   0  0  1  0  0  0  0  0  0  0  0  0
   39.3860   22.4770   33.5300 O   0  0  0  0  0  0  0  0  0  0  0  0
   39.2180   21.5420   33.8200 H   0  0  0  0  0  0  0  0  0  0  0  0
   37.3070   22.3110   32.3170 O   0  0  0  0  0  0  0  0  0  0  0  0
   35.5580   18.3610   31.3030 H   0  0  0  0  0  0  0  0  0  0  0  0
   36.1530   19.0870   31.7640 N   0  0  0  0  0  0  0  0  0  0  0  0
   35.4860   19.5140   32.9510 C   0  0  0  0  0  2  0  0  0  0  0  0
   35.9700   20.8280   33.5150 C   0  0  0  0  0  2  0  0  0  0  0  0
   36.0830   21.9090   32.4730 C   0  0  0  0  0  3  0  0  0  0  0  0
   35.4560   21.2700   31.2210 C   0  0  0  0  0  2  0  0  0  0  0  0
   36.3230   20.1340   30.7880 C   0  0  0  0  0  2  0  0  0  0  0  0
   39.2670   23.6300   31.2640 O   0  0  0  0  0  0  0  0  0  0  0  0
   38.5100   23.6480   30.1080 C   0  0  0  0  0  0  0  0  0  0  0  0
   37.3040   24.2480   30.3460 F   0  0  0  0  0  0  0  0  0  0  0  0
   39.1630   24.4550   29.2110 F   0  0  0  0  0  0  0  0  0  0  0  0
   38.3780   22.4030   29.5090 F   0  0  0  0  0  0  0  0  0  0  0  0
  1  7  1  1  0  0  0
  1  2  1  0  0  0  0
  1 17  1  0  0  0  0
  2  9  1  0  0  0  0
  3 10  1  0  0  0  0
  3 11  1  0  0  0  0
  3  2  1  0  0  0  0
  4  3  1  0  0  0  0
  5 14  1  0  0  0  0
  5  4  1  0  0  0  0
  5  6  1  0  0  0  0
  6 16  1  6  0  0  0
  6  1  1  0  0  0  0
  8  2  1  0  0  0  0
 12  4  1  0  0  0  0
 13  4  1  0  0  0  0
 15  5  1  0  0  0  0
 17 18  1  0  0  0  0
 18 23  1  0  0  0  0
 18 19  2  0  0  0  0
 19 24  1  0  0  0  0
 20 19  1  0  0  0  0
 21 20  2  0  0  0  0
 22 17  2  0  0  0  0
 22 21  1  0  0  0  0
 25 21  1  0  0  0  0
 26  6  1  0  0  0  0
 26 27  1  0  0  0  0
 28 39  1  6  0  0  0
 28 26  1  0  0  0  0
 28 29  1  0  0  0  0
 29 30  1  0  0  0  0
 31 36  1  0  0  0  0
 31 28  1  0  0  0  0
 32 33  1  0  0  0  0
 33 34  1  0  0  0  0
 34 35  1  0  0  0  0
 36 35  1  0  0  0  0
 37 36  1  0  0  0  0
 38 37  1  0  0  0  0
 38 33  1  0  0  0  0
 40 41  1  0  0  0  0
 40 39  1  0  0  0  0
 42 40  1  0  0  0  0
 43 40  1  0  0  0  0
M  END
>  <minimizedAffinity>
-5.32504511

$$$$

 OpenBabel03262521083D

 43 45  0  0  1  0  0  0  0  0999 V2000
   39.8940   25.7300   33.8790 C   0  0  2  0  0  0  0  0  0  0  0  0
   39.9150   27.0960   34.3850 C   0  0  0  0  0  0  0  0  0  0  0  0
   39.0590   27.2760   35.6360 C   0  0  0  0  0  0  0  0  0  0  0  0
   37.6420   26.8670   35.4250 C   0  0  0  0  0  0  0  0  0  0  0  0
   37.4760   25.6640   34.5590 C   0  0  0  0  0  0  0  0  0  0  0  0
   38.7830   24.8790   34.4370 C   0  0  2  0  0  0  0  0  0  0  0  0
   39.7370   25.7810   32.7590 H   0  0  0  0  0  0  0  0  0  0  0  0
   39.4760   27.8360   33.6430 H   0  0  0  0  0  0  0  0  0  0  0  0
   40.8810   27.5420   34.6580 H   0  0  0  0  0  0  0  0  0  0  0  0
   39.4740   26.6980   36.4870 H   0  0  0  0  0  0  0  0  0  0  0  0
   39.0860   28.3490   35.8970 H   0  0  0  0  0  0  0  0  0  0  0  0
   37.1870   26.6040   36.4210 H   0  0  0  0  0  0  0  0  0  0  0  0
   37.0790   27.7090   35.0030 H   0  0  0  0  0  0  0  0  0  0  0  0
   37.2070   25.9490   33.5050 H   0  0  0  0  0  0  0  0  0  0  0  0
   36.7020   24.9650   34.8940 H   0  0  0  0  0  0  0  0  0  0  0  0
   38.5390   24.1190   33.6630 H   0  0  0  0  0  0  0  0  0  0  0  0
   41.1390   24.9770   34.0510 C   0  0  0  0  0  0  0  0  0  0  0  0
   42.1690   25.6900   34.6740 C   0  0  0  0  0  0  0  0  0  0  0  0
   43.3660   25.0180   34.8690 C   0  0  0  0  0  0  0  0  0  0  0  0
   43.4860   23.7250   34.4580 N   0  0  0  0  0  0  0  0  0  0  0  0
   42.4760   23.0710   33.8630 C   0  0  0  0  0  0  0  0  0  0  0  0
   41.3580   23.7180   33.6860 N   0  0  0  0  0  0  0  0  0  0  0  0
   42.2960   26.6810   35.0550 H   0  0  0  0  0  0  0  0  0  0  0  0
   44.2770   25.3750   35.3250 H   0  0  0  0  0  0  0  0  0  0  0  0
   42.5310   22.0440   33.5200 H   0  0  0  0  0  0  0  0  0  0  0  0
   38.9580   24.2220   35.6430 N   0  0  0  0  0  0  0  0  0  0  0  0
   39.9190   24.3240   36.0510 H   0  0  0  0  0  0  0  0  0  0  0  0
   38.6000   22.5610   35.7090 S   0  0  1  0  0  0  0  0  0  0  0  0
   37.5000   22.4720   36.7850 O   0  0  0  0  0  0  0  0  0  0  0  0
   36.6060   22.0990   36.5650 H   0  0  0  0  0  0  0  0  0  0  0  0
   38.0790   22.0330   34.4840 O   0  0  0  0  0  0  0  0  0  0  0  0
   37.8140   19.2720   31.0200 H   0  0  0  0  0  0  0  0  0  0  0  0
   37.8130   19.6200   32.0060 N   0  0  0  0  0  0  0  0  0  0  0  0
   36.4660   19.9220   32.3660 C   0  0  0  0  0  2  0  0  0  0  0  0
   36.3160   20.8140   33.5740 C   0  0  0  0  0  2  0  0  0  0  0  0
   37.2060   22.0280   33.5250 C   0  0  0  0  0  3  0  0  0  0  0  0
   37.8110   21.9730   32.1110 C   0  0  0  0  0  2  0  0  0  0  0  0
   38.6870   20.7670   32.0200 C   0  0  0  0  0  2  0  0  0  0  0  0
   39.8690   21.6690   36.3150 O   0  0  0  0  0  0  0  0  0  0  0  0
   40.5220   22.2990   37.3570 C   0  0  0  0  0  0  0  0  0  0  0  0
   39.6160   22.7230   38.2900 F   0  0  0  0  0  0  0  0  0  0  0  0
   41.2920   21.3500   37.9820 F   0  0  0  0  0  0  0  0  0  0  0  0
   41.3810   23.3090   36.9480 F   0  0  0  0  0  0  0  0  0  0  0  0
  1  7  1  6  0  0  0
  1 17  1  0  0  0  0
  1  2  1  0  0  0  0
  1  6  1  0  0  0  0
  2  9  1  0  0  0  0
  2  3  1  0  0  0  0
  3 11  1  0  0  0  0
  3 10  1  0  0  0  0
  4  3  1  0  0  0  0
  4 12  1  0  0  0  0
  5 15  1  0  0  0  0
  5  4  1  0  0  0  0
  6 16  1  6  0  0  0
  6  5  1  0  0  0  0
  6 26  1  0  0  0  0
  8  2  1  0  0  0  0
 13  4  1  0  0  0  0
 14  5  1  0  0  0  0
 17 18  1  0  0  0  0
 18 19  2  0  0  0  0
 18 23  1  0  0  0  0
 19 24  1  0  0  0  0
 20 19  1  0  0  0  0
 21 20  2  0  0  0  0
 22 21  1  0  0  0  0
 22 17  2  0  0  0  0
 25 21  1  0  0  0  0
 26 28  1  0  0  0  0
 26 27  1  0  0  0  0
 28 31  1  6  0  0  0
 28 39  1  0  0  0  0
 28 29  1  0  0  0  0
 30 29  1  0  0  0  0
 32 33  1  0  0  0  0
 33 38  1  0  0  0  0
 33 34  1  0  0  0  0
 34 35  1  0  0  0  0
 36 35  1  0  0  0  0
 36 31  1  0  0  0  0
 37 36  1  0  0  0  0
 38 37  1  0  0  0  0
 39 40  1  0  0  0  0
 40 42  1  0  0  0  0
 40 41  1  0  0  0  0
 43 40  1  0  0  0  0
M  END
>  <minimizedAffinity>
-5.31533813

$$$$

 OpenBabel03262521083D

 43 45  0  0  1  0  0  0  0  0999 V2000
   38.5080   26.4130   34.3440 C   0  0  2  0  0  0  0  0  0  0  0  0
   37.9390   27.4880   35.1460 C   0  0  0  0  0  0  0  0  0  0  0  0
   36.5960   27.9790   34.6100 C   0  0  0  0  0  0  0  0  0  0  0  0
   36.6750   28.4300   33.1920 C   0  0  0  0  0  0  0  0  0  0  0  0
   37.5770   27.6050   32.3370 C   0  0  0  0  0  0  0  0  0  0  0  0
   37.8770   26.2520   32.9850 C   0  0  2  0  0  0  0  0  0  0  0  0
   39.6000   26.6540   34.1720 H   0  0  0  0  0  0  0  0  0  0  0  0
   38.5910   28.4180   35.1430 H   0  0  0  0  0  0  0  0  0  0  0  0
   37.7490   27.3060   36.2120 H   0  0  0  0  0  0  0  0  0  0  0  0
   35.8240   27.1850   34.6890 H   0  0  0  0  0  0  0  0  0  0  0  0
   36.2860   28.8300   35.2390 H   0  0  0  0  0  0  0  0  0  0  0  0
   35.6510   28.3580   32.7300 H   0  0  0  0  0  0  0  0  0  0  0  0
   36.9910   29.4800   33.1620 H   0  0  0  0  0  0  0  0  0  0  0  0
   38.5810   28.0950   32.2060 H   0  0  0  0  0  0  0  0  0  0  0  0
   37.1970   27.4110   31.3290 H   0  0  0  0  0  0  0  0  0  0  0  0
   38.6580   25.8310   32.3150 H   0  0  0  0  0  0  0  0  0  0  0  0
   38.5080   25.0910   34.9750 C   0  0  0  0  0  0  0  0  0  0  0  0
   37.9690   25.0620   36.2660 C   0  0  0  0  0  0  0  0  0  0  0  0
   37.9360   23.8320   36.9040 C   0  0  0  0  0  0  0  0  0  0  0  0
   38.4180   22.7300   36.2640 N   0  0  0  0  0  0  0  0  0  0  0  0
   38.9300   22.7940   35.0240 C   0  0  0  0  0  0  0  0  0  0  0  0
   38.9530   23.9590   34.4390 N   0  0  0  0  0  0  0  0  0  0  0  0
   37.5580   25.7810   36.9430 H   0  0  0  0  0  0  0  0  0  0  0  0
   37.5660   23.5880   37.8890 H   0  0  0  0  0  0  0  0  0  0  0  0
   39.3250   21.9430   34.4820 H   0  0  0  0  0  0  0  0  0  0  0  0
   36.7320   25.4890   32.8430 N   0  0  0  0  0  0  0  0  0  0  0  0
   36.5810   24.7940   33.6150 H   0  0  0  0  0  0  0  0  0  0  0  0
   36.5210   24.6250   31.3940 S   0  0  1  0  0  0  0  0  0  0  0  0
   36.0090   25.6940   30.4080 O   0  0  0  0  0  0  0  0  0  0  0  0
   36.5120   25.8960   29.5760 H   0  0  0  0  0  0  0  0  0  0  0  0
   37.7320   24.0690   30.8700 O   0  0  0  0  0  0  0  0  0  0  0  0
   42.1390   23.5960   31.0730 H   0  0  0  0  0  0  0  0  0  0  0  0
   41.1200   23.4090   31.2140 N   0  0  0  0  0  0  0  0  0  0  0  0
   40.6840   22.5380   30.1720 C   0  0  0  0  0  2  0  0  0  0  0  0
   39.1890   22.4950   29.9630 C   0  0  0  0  0  2  0  0  0  0  0  0
   38.5650   23.8640   29.8960 C   0  0  0  0  0  3  0  0  0  0  0  0
   39.7770   24.8120   29.8820 C   0  0  0  0  0  2  0  0  0  0  0  0
   40.4780   24.7000   31.1950 C   0  0  0  0  0  2  0  0  0  0  0  0
   35.2870   23.5110   31.5010 O   0  0  0  0  0  0  0  0  0  0  0  0
   35.7280   22.2480   31.8450 C   0  0  0  0  0  0  0  0  0  0  0  0
   36.6850   22.3340   32.8180 F   0  0  0  0  0  0  0  0  0  0  0  0
   34.6670   21.5920   32.4150 F   0  0  0  0  0  0  0  0  0  0  0  0
   36.1370   21.4860   30.7590 F   0  0  0  0  0  0  0  0  0  0  0  0
  1  7  1  6  0  0  0
  1 17  1  0  0  0  0
  1  2  1  0  0  0  0
  2  9  1  0  0  0  0
  3 10  1  0  0  0  0
  3  2  1  0  0  0  0
  3 11  1  0  0  0  0
  4  3  1  0  0  0  0
  5  6  1  0  0  0  0
  5  4  1  0  0  0  0
  6 16  1  6  0  0  0
  6  1  1  0  0  0  0
  8  2  1  0  0  0  0
 12  4  1  0  0  0  0
 13  4  1  0  0  0  0
 14  5  1  0  0  0  0
 15  5  1  0  0  0  0
 17 18  1  0  0  0  0
 18 19  2  0  0  0  0
 18 23  1  0  0  0  0
 19 24  1  0  0  0  0
 20 19  1  0  0  0  0
 21 20  2  0  0  0  0
 22 17  2  0  0  0  0
 22 21  1  0  0  0  0
 25 21  1  0  0  0  0
 26  6  1  0  0  0  0
 26 27  1  0  0  0  0
 28 29  1  6  0  0  0
 28 39  1  0  0  0  0
 28 26  1  0  0  0  0
 30 29  1  0  0  0  0
 31 28  1  0  0  0  0
 32 33  1  0  0  0  0
 34 33  1  0  0  0  0
 35 34  1  0  0  0  0
 36 35  1  0  0  0  0
 36 31  1  0  0  0  0
 37 36  1  0  0  0  0
 37 38  1  0  0  0  0
 38 33  1  0  0  0  0
 39 40  1  0  0  0  0
 40 42  1  0  0  0  0
 40 41  1  0  0  0  0
 43 40  1  0  0  0  0
M  END
>  <minimizedAffinity>
-5.25370646

$$$$

 OpenBabel03262521083D

 43 45  0  0  1  0  0  0  0  0999 V2000
   38.7300   26.2860   32.9160 C   0  0  2  0  0  0  0  0  0  0  0  0
   39.7470   26.8640   32.0470 C   0  0  0  0  0  0  0  0  0  0  0  0
   41.1660   26.6190   32.5530 C   0  0  0  0  0  0  0  0  0  0  0  0
   41.3760   27.1270   33.9380 C   0  0  0  0  0  0  0  0  0  0  0  0
   40.2060   26.9390   34.8430 C   0  0  0  0  0  0  0  0  0  0  0  0
   39.2300   25.9010   34.2840 C   0  0  2  0  0  0  0  0  0  0  0  0
   37.9250   27.0670   33.0690 H   0  0  0  0  0  0  0  0  0  0  0  0
   39.6680   27.9960   31.9870 H   0  0  0  0  0  0  0  0  0  0  0  0
   39.7820   26.5490   30.9960 H   0  0  0  0  0  0  0  0  0  0  0  0
   41.4140   25.5380   32.5280 H   0  0  0  0  0  0  0  0  0  0  0  0
   41.8510   27.1500   31.8700 H   0  0  0  0  0  0  0  0  0  0  0  0
   42.2310   26.5630   34.4060 H   0  0  0  0  0  0  0  0  0  0  0  0
   41.6480   28.1890   33.8980 H   0  0  0  0  0  0  0  0  0  0  0  0
   39.6040   27.8840   34.9390 H   0  0  0  0  0  0  0  0  0  0  0  0
   40.4620   26.6340   35.8620 H   0  0  0  0  0  0  0  0  0  0  0  0
   38.3650   25.9840   34.9790 H   0  0  0  0  0  0  0  0  0  0  0  0
   38.0270   25.1210   32.3730 C   0  0  0  0  0  0  0  0  0  0  0  0
   36.6470   25.2940   32.2170 C   0  0  0  0  0  0  0  0  0  0  0  0
   35.9370   24.2240   31.6970 C   0  0  0  0  0  0  0  0  0  0  0  0
   36.5940   23.0760   31.3680 N   0  0  0  0  0  0  0  0  0  0  0  0
   37.9200   22.9450   31.5330 C   0  0  0  0  0  0  0  0  0  0  0  0
   38.5730   23.9610   32.0240 N   0  0  0  0  0  0  0  0  0  0  0  0
   35.9450   26.0760   32.4110 H   0  0  0  0  0  0  0  0  0  0  0  0
   34.8790   24.1460   31.4950 H   0  0  0  0  0  0  0  0  0  0  0  0
   38.4800   22.0490   31.2870 H   0  0  0  0  0  0  0  0  0  0  0  0
   39.8200   24.6650   34.4790 N   0  0  0  0  0  0  0  0  0  0  0  0
   39.8150   24.0490   33.6300 H   0  0  0  0  0  0  0  0  0  0  0  0
   39.2510   23.6990   35.7570 S   0  0  1  0  0  0  0  0  0  0  0  0
   38.1010   22.8950   35.1160 O   0  0  0  0  0  0  0  0  0  0  0  0
   38.1270   21.9030   35.1000 H   0  0  0  0  0  0  0  0  0  0  0  0
   40.2220   22.7760   36.2610 O   0  0  0  0  0  0  0  0  0  0  0  0
   43.7680   21.8200   33.7690 H   0  0  0  0  0  0  0  0  0  0  0  0
   42.9730   22.3530   34.1890 N   0  0  0  0  0  0  0  0  0  0  0  0
   43.4710   23.0770   35.3130 C   0  0  0  0  0  2  0  0  0  0  0  0
   42.4160   23.5580   36.2780 C   0  0  0  0  0  2  0  0  0  0  0  0
   41.4260   22.4860   36.6510 C   0  0  0  0  0  3  0  0  0  0  0  0
   42.0150   21.2150   36.0150 C   0  0  0  0  0  2  0  0  0  0  0  0
   41.9760   21.3690   34.5300 C   0  0  0  0  0  2  0  0  0  0  0  0
   38.5290   24.6020   36.9550 O   0  0  0  0  0  0  0  0  0  0  0  0
   38.1340   23.8430   38.0400 C   0  0  0  0  0  0  0  0  0  0  0  0
   37.5270   22.6950   37.6120 F   0  0  0  0  0  0  0  0  0  0  0  0
   39.2750   23.4470   38.6910 F   0  0  0  0  0  0  0  0  0  0  0  0
   37.3660   24.5420   38.9600 F   0  0  0  0  0  0  0  0  0  0  0  0
  1  7  1  1  0  0  0
  1  6  1  0  0  0  0
  2  3  1  0  0  0  0
  2  1  1  0  0  0  0
  3  4  1  0  0  0  0
  4 12  1  0  0  0  0
  4  5  1  0  0  0  0
  5 14  1  0  0  0  0
  5 15  1  0  0  0  0
  6 26  1  0  0  0  0
  6  5  1  0  0  0  0
  6 16  1  1  0  0  0
  8  2  1  0  0  0  0
  9  2  1  0  0  0  0
 10  3  1  0  0  0  0
 11  3  1  0  0  0  0
 13  4  1  0  0  0  0
 17  1  1  0  0  0  0
 18 17  1  0  0  0  0
 18 23  1  0  0  0  0
 19 18  2  0  0  0  0
 20 21  2  0  0  0  0
 20 19  1  0  0  0  0
 21 22  1  0  0  0  0
 22 17  2  0  0  0  0
 24 19  1  0  0  0  0
 25 21  1  0  0  0  0
 26 28  1  0  0  0  0
 27 26  1  0  0  0  0
 28 29  1  6  0  0  0
 28 31  1  0  0  0  0
 28 39  1  0  0  0  0
 30 29  1  0  0  0  0
 31 36  1  0  0  0  0
 32 33  1  0  0  0  0
 33 38  1  0  0  0  0
 33 34  1  0  0  0  0
 34 35  1  0  0  0  0
 35 36  1  0  0  0  0
 37 36  1  0  0  0  0
 38 37  1  0  0  0  0
 39 40  1  0  0  0  0
 40 42  1  0  0  0  0
 40 43  1  0  0  0  0
 41 40  1  0  0  0  0
M  END
>  <minimizedAffinity>
-5.12340307

$$$$

 OpenBabel03262521083D

 43 45  0  0  1  0  0  0  0  0999 V2000
   36.4610   27.8620   32.5870 C   0  0  2  0  0  0  0  0  0  0  0  0
   37.0680   28.2990   31.3360 C   0  0  0  0  0  0  0  0  0  0  0  0
   36.8430   29.7830   31.0570 C   0  0  0  0  0  0  0  0  0  0  0  0
   35.3990   30.1510   31.0410 C   0  0  0  0  0  0  0  0  0  0  0  0
   34.5750   29.4370   32.0600 C   0  0  0  0  0  0  0  0  0  0  0  0
   35.4500   28.8230   33.1550 C   0  0  2  0  0  0  0  0  0  0  0  0
   35.9130   26.8930   32.3810 H   0  0  0  0  0  0  0  0  0  0  0  0
   36.6160   27.7790   30.4340 H   0  0  0  0  0  0  0  0  0  0  0  0
   38.1490   28.1650   31.2010 H   0  0  0  0  0  0  0  0  0  0  0  0
   37.3620   30.4120   31.8100 H   0  0  0  0  0  0  0  0  0  0  0  0
   37.2770   29.9970   30.0650 H   0  0  0  0  0  0  0  0  0  0  0  0
   35.3010   31.2490   31.2700 H   0  0  0  0  0  0  0  0  0  0  0  0
   34.9900   29.9710   30.0400 H   0  0  0  0  0  0  0  0  0  0  0  0
   34.0220   28.5690   31.6070 H   0  0  0  0  0  0  0  0  0  0  0  0
   33.8200   30.0590   32.5510 H   0  0  0  0  0  0  0  0  0  0  0  0
   34.7210   28.2180   33.7370 H   0  0  0  0  0  0  0  0  0  0  0  0
   37.4010   27.5430   33.6640 C   0  0  0  0  0  0  0  0  0  0  0  0
   38.7160   27.3150   33.2410 C   0  0  0  0  0  0  0  0  0  0  0  0
   39.6470   27.0190   34.2240 C   0  0  0  0  0  0  0  0  0  0  0  0
   39.2550   26.9630   35.5270 N   0  0  0  0  0  0  0  0  0  0  0  0
   37.9830   27.1860   35.8970 C   0  0  0  0  0  0  0  0  0  0  0  0
   37.1200   27.4630   34.9600 N   0  0  0  0  0  0  0  0  0  0  0  0
   39.2280   27.2970   32.3030 H   0  0  0  0  0  0  0  0  0  0  0  0
   40.7020   26.8130   34.1190 H   0  0  0  0  0  0  0  0  0  0  0  0
   37.6300   27.1490   36.9220 H   0  0  0  0  0  0  0  0  0  0  0  0
   35.8700   29.8730   33.9530 N   0  0  0  0  0  0  0  0  0  0  0  0
   36.5850   29.6050   34.6730 H   0  0  0  0  0  0  0  0  0  0  0  0
   34.6890   30.7690   34.7840 S   0  0  1  0  0  0  0  0  0  0  0  0
   34.4350   31.9760   33.8590 O   0  0  0  0  0  0  0  0  0  0  0  0
   33.5280   32.1510   33.4940 H   0  0  0  0  0  0  0  0  0  0  0  0
   33.4520   30.0700   34.9640 O   0  0  0  0  0  0  0  0  0  0  0  0
   30.0490   29.2420   37.6880 H   0  0  0  0  0  0  0  0  0  0  0  0
   30.8390   29.7430   37.2220 N   0  0  0  0  0  0  0  0  0  0  0  0
   30.3000   30.5150   36.1500 C   0  0  0  0  0  2  0  0  0  0  0  0
   31.3070   30.9630   35.1200 C   0  0  0  0  0  2  0  0  0  0  0  0
   32.2110   29.8510   34.6570 C   0  0  0  0  0  3  0  0  0  0  0  0
   31.6030   28.5970   35.3110 C   0  0  0  0  0  2  0  0  0  0  0  0
   31.7560   28.7170   36.7910 C   0  0  0  0  0  2  0  0  0  0  0  0
   35.2770   31.4260   36.1970 O   0  0  0  0  0  0  0  0  0  0  0  0
   34.3450   32.2010   36.8610 C   0  0  0  0  0  0  0  0  0  0  0  0
   33.5460   31.4090   37.6390 F   0  0  0  0  0  0  0  0  0  0  0  0
   35.0370   33.0080   37.7280 F   0  0  0  0  0  0  0  0  0  0  0  0
   33.6180   33.0360   36.0250 F   0  0  0  0  0  0  0  0  0  0  0  0
  1  7  1  6  0  0  0
  1  6  1  0  0  0  0
  1 17  1  0  0  0  0
  2  1  1  0  0  0  0
  3  2  1  0  0  0  0
  3 10  1  0  0  0  0
  4  3  1  0  0  0  0
  4 12  1  0  0  0  0
  4  5  1  0  0  0  0
  5 15  1  0  0  0  0
  5  6  1  0  0  0  0
  6 16  1  1  0  0  0
  6 26  1  0  0  0  0
  8  2  1  0  0  0  0
  9  2  1  0  0  0  0
 11  3  1  0  0  0  0
 13  4  1  0  0  0  0
 14  5  1  0  0  0  0
 17 22  1  0  0  0  0
 18 17  2  0  0  0  0
 18 19  1  0  0  0  0
 19 20  2  0  0  0  0
 20 21  1  0  0  0  0
 21 25  1  0  0  0  0
 22 21  2  0  0  0  0
 23 18  1  0  0  0  0
 24 19  1  0  0  0  0
 26 27  1  0  0  0  0
 26 28  1  0  0  0  0
 28 29  1  6  0  0  0
 28 31  1  0  0  0  0
 28 39  1  0  0  0  0
 30 29  1  0  0  0  0
 33 32  1  0  0  0  0
 34 33  1  0  0  0  0
 35 34  1  0  0  0  0
 36 31  1  0  0  0  0
 36 35  1  0  0  0  0
 36 37  1  0  0  0  0
 37 38  1  0  0  0  0
 38 33  1  0  0  0  0
 39 40  1  0  0  0  0
 40 41  1  0  0  0  0
 40 42  1  0  0  0  0
 43 40  1  0  0  0  0
M  END
>  <minimizedAffinity>
-5.09461021

$$$$
