
 OpenBabel03272501573D

 29 31  0  0  0  0  0  0  0  0999 V2000
   34.0890   28.5610   48.0450 C   0  0  0  0  0  0  0  0  0  0  0  0
   33.9840   29.6470   47.8430 H   0  0  0  0  0  0  0  0  0  0  0  0
   34.8450   28.1900   47.3390 H   0  0  0  0  0  0  0  0  0  0  0  0
   32.7610   27.8950   47.8570 C   0  0  0  0  0  0  0  0  0  0  0  0
   32.4810   26.5550   47.9960 C   0  0  0  0  0  0  0  0  0  0  0  0
   31.1390   26.3050   47.7430 C   0  0  0  0  0  0  0  0  0  0  0  0
   30.6450   27.5250   47.4550 N   0  0  0  0  0  0  0  0  0  0  0  0
   31.5890   28.4470   47.5220 N   0  0  0  0  0  0  0  0  0  0  0  0
   33.2440   25.8250   48.2690 H   0  0  0  0  0  0  0  0  0  0  0  0
   30.6840   25.3270   47.7900 H   0  0  0  0  0  0  0  0  0  0  0  0
   28.2090   28.0170   50.6740 H   0  0  0  0  0  0  0  0  0  0  0  0
   28.5680   27.9320   49.6880 N   0  0  0  0  0  0  0  0  0  0  0  0
   27.8380   26.8950   49.0220 C   0  0  0  0  0  0  0  0  0  0  0  0
   28.3510   26.6800   47.6230 C   0  0  0  0  0  0  0  0  0  0  0  0
   29.2470   27.7650   47.1170 C   0  0  0  0  0  0  0  0  0  0  0  0
   28.7480   29.0980   47.5700 C   0  0  0  0  0  0  0  0  0  0  0  0
   28.4380   29.1970   49.0270 C   0  0  0  0  0  0  0  0  0  0  0  0
   34.5200   28.2600   49.4530 C   0  0  0  0  0  0  0  0  0  0  0  0
   33.7490   28.5290   50.1930 H   0  0  0  0  0  0  0  0  0  0  0  0
   34.7860   27.1830   49.5620 H   0  0  0  0  0  0  0  0  0  0  0  0
   37.1050   30.0940   51.3740 C   0  0  0  0  0  0  0  0  0  0  0  0
   37.9370   30.6060   50.3520 C   0  0  0  0  0  0  0  0  0  0  0  0
   37.5820   30.3050   49.0150 C   0  0  0  0  0  0  0  0  0  0  0  0
   36.4820   29.5520   48.7750 N   0  0  0  0  0  0  0  0  0  0  0  0
   35.7210   29.0870   49.7970 C   0  0  0  0  0  0  0  0  0  0  0  0
   36.0340   29.3570   51.0530 N   0  0  0  0  0  0  0  0  0  0  0  0
   37.3570   30.3130   52.3970 H   0  0  0  0  0  0  0  0  0  0  0  0
   38.8000   31.2010   50.6190 H   0  0  0  0  0  0  0  0  0  0  0  0
   38.2130   30.6920   48.2200 H   0  0  0  0  0  0  0  0  0  0  0  0
  1 18  1  0  0  0  0
  2  1  1  0  0  0  0
  3  1  1  0  0  0  0
  4  5  1  0  0  0  0
  4  1  1  0  0  0  0
  5  9  1  0  0  0  0
  6 10  1  0  0  0  0
  6  5  2  0  0  0  0
  7  8  1  0  0  0  0
  7  6  1  0  0  0  0
  8  4  2  0  0  0  0
 12 11  1  0  0  0  0
 13 12  1  0  0  0  0
 14 13  1  0  0  0  0
 15  7  1  0  0  0  0
 15 16  1  0  0  0  0
 15 14  1  0  0  0  0
 16 17  1  0  0  0  0
 17 12  1  0  0  0  0
 18 20  1  0  0  0  0
 18 25  1  0  0  0  0
 18 19  1  0  0  0  0
 21 27  1  0  0  0  0
 22 28  1  0  0  0  0
 22 21  2  0  0  0  0
 23 22  1  0  0  0  0
 24 23  2  0  0  0  0
 24 25  1  0  0  0  0
 25 26  2  0  0  0  0
 26 21  1  0  0  0  0
 29 23  1  0  0  0  0
M  END
>  <minimizedAffinity>
-5.11289978

>  <minimizedRMSD>
1.28923774

$$$$
