
 OpenBabel03262521083D

 43 45  0  0  1  0  0  0  0  0999 V2000
   38.3070   31.7320   44.3590 C   0  0  2  0  0  0  0  0  0  0  0  0
   39.6150   31.5120   43.7570 C   0  0  0  0  0  0  0  0  0  0  0  0
   40.6970   31.2030   44.7890 C   0  0  0  0  0  0  0  0  0  0  0  0
   40.8210   32.2670   45.8240 C   0  0  0  0  0  0  0  0  0  0  0  0
   39.5220   32.8670   46.2440 C   0  0  0  0  0  0  0  0  0  0  0  0
   38.3420   31.9780   45.8450 C   0  0  2  0  0  0  0  0  0  0  0  0
   37.8620   32.6590   43.8840 H   0  0  0  0  0  0  0  0  0  0  0  0
   40.0030   32.4350   43.2200 H   0  0  0  0  0  0  0  0  0  0  0  0
   39.7230   30.7120   43.0120 H   0  0  0  0  0  0  0  0  0  0  0  0
   40.4980   30.2350   45.2940 H   0  0  0  0  0  0  0  0  0  0  0  0
   41.6530   31.1210   44.2440 H   0  0  0  0  0  0  0  0  0  0  0  0
   41.2760   31.8200   46.7520 H   0  0  0  0  0  0  0  0  0  0  0  0
   41.4930   33.0540   45.4580 H   0  0  0  0  0  0  0  0  0  0  0  0
   39.3350   33.8480   45.7280 H   0  0  0  0  0  0  0  0  0  0  0  0
   39.4370   33.0650   47.3170 H   0  0  0  0  0  0  0  0  0  0  0  0
   37.4650   32.6170   46.0880 H   0  0  0  0  0  0  0  0  0  0  0  0
   37.3190   30.6770   44.1230 C   0  0  0  0  0  0  0  0  0  0  0  0
   37.7890   29.6000   43.3630 C   0  0  0  0  0  0  0  0  0  0  0  0
   36.8960   28.5690   43.1190 C   0  0  0  0  0  0  0  0  0  0  0  0
   35.6300   28.6430   43.6170 N   0  0  0  0  0  0  0  0  0  0  0  0
   35.2120   29.6930   44.3420 C   0  0  0  0  0  0  0  0  0  0  0  0
   36.0650   30.6550   44.5610 N   0  0  0  0  0  0  0  0  0  0  0  0
   38.7080   29.3450   42.8780 H   0  0  0  0  0  0  0  0  0  0  0  0
   37.0500   27.6550   42.5640 H   0  0  0  0  0  0  0  0  0  0  0  0
   34.2140   29.7920   44.7540 H   0  0  0  0  0  0  0  0  0  0  0  0
   38.3470   30.9070   46.7210 N   0  0  0  0  0  0  0  0  0  0  0  0
   38.1840   29.9770   46.2620 H   0  0  0  0  0  0  0  0  0  0  0  0
   37.2940   30.9570   48.0540 S   0  0  1  0  0  0  0  0  0  0  0  0
   37.4050   32.4140   48.5470 O   0  0  0  0  0  0  0  0  0  0  0  0
   36.6030   32.9970   48.5840 H   0  0  0  0  0  0  0  0  0  0  0  0
   35.9260   30.6960   47.7200 O   0  0  0  0  0  0  0  0  0  0  0  0
   34.4050   27.6780   50.5950 H   0  0  0  0  0  0  0  0  0  0  0  0
   34.9070   28.5120   50.2160 N   0  0  0  0  0  0  0  0  0  0  0  0
   34.0450   29.6420   50.3460 C   0  0  0  0  0  0  0  0  0  0  0  0
   34.4160   30.8270   49.4890 C   0  0  0  0  0  0  0  0  0  0  0  0
   34.6960   30.4540   48.0570 C   0  0  0  0  0  0  0  0  0  0  0  0
   34.2960   28.9690   47.9870 C   0  0  0  0  0  0  0  0  0  0  0  0
   35.2320   28.1880   48.8490 C   0  0  0  0  0  0  0  0  0  0  0  0
   37.8420   30.0290   49.3240 O   0  0  0  0  0  0  0  0  0  0  0  0
   37.9110   30.7290   50.5130 C   0  0  0  0  0  0  0  0  0  0  0  0
   39.0560   31.4760   50.5520 F   0  0  0  0  0  0  0  0  0  0  0  0
   36.8740   31.6270   50.5120 F   0  0  0  0  0  0  0  0  0  0  0  0
   37.7550   29.9330   51.6380 F   0  0  0  0  0  0  0  0  0  0  0  0
  1  7  1  6  0  0  0
  1  6  1  0  0  0  0
  2  1  1  0  0  0  0
  2  3  1  0  0  0  0
  3 10  1  0  0  0  0
  3  4  1  0  0  0  0
  4  5  1  0  0  0  0
  4 12  1  0  0  0  0
  5 15  1  0  0  0  0
  6 16  1  1  0  0  0
  6  5  1  0  0  0  0
  6 26  1  0  0  0  0
  8  2  1  0  0  0  0
  9  2  1  0  0  0  0
 11  3  1  0  0  0  0
 13  4  1  0  0  0  0
 14  5  1  0  0  0  0
 17  1  1  0  0  0  0
 17 22  1  0  0  0  0
 18 17  2  0  0  0  0
 19 18  1  0  0  0  0
 19 20  2  0  0  0  0
 20 21  1  0  0  0  0
 21 22  2  0  0  0  0
 21 25  1  0  0  0  0
 23 18  1  0  0  0  0
 24 19  1  0  0  0  0
 26 28  1  0  0  0  0
 27 26  1  0  0  0  0
 28 31  1  6  0  0  0
 28 29  1  0  0  0  0
 28 39  1  0  0  0  0
 29 30  1  0  0  0  0
 31 36  1  0  0  0  0
 33 34  1  0  0  0  0
 33 32  1  0  0  0  0
 35 34  1  0  0  0  0
 36 35  1  0  0  0  0
 37 36  1  0  0  0  0
 37 38  1  0  0  0  0
 38 33  1  0  0  0  0
 39 40  1  0  0  0  0
 40 41  1  0  0  0  0
 40 43  1  0  0  0  0
 42 40  1  0  0  0  0
M  END
>  <minimizedAffinity>
-5.84992552

>  <minimizedRMSD>
2.1505785

$$$$
