
 OpenBabel03272501593D

 29 31  0  0  0  0  0  0  0  0999 V2000
   37.1580   23.4640   31.2020 C   0  0  0  0  0  0  0  0  0  0  0  0
   37.8850   22.6340   31.0830 H   0  0  0  0  0  0  0  0  0  0  0  0
   37.2610   24.0930   30.3070 H   0  0  0  0  0  0  0  0  0  0  0  0
   37.4700   24.2130   32.4600 C   0  0  0  0  0  0  0  0  0  0  0  0
   37.0470   25.4800   32.7960 C   0  0  0  0  0  0  0  0  0  0  0  0
   37.5340   25.8460   34.0430 C   0  0  0  0  0  0  0  0  0  0  0  0
   38.2470   24.7690   34.4260 N   0  0  0  0  0  0  0  0  0  0  0  0
   38.2080   23.8220   33.5060 N   0  0  0  0  0  0  0  0  0  0  0  0
   36.4160   26.0770   32.1360 H   0  0  0  0  0  0  0  0  0  0  0  0
   37.3360   26.7950   34.5180 H   0  0  0  0  0  0  0  0  0  0  0  0
   37.4860   21.3880   36.5560 H   0  0  0  0  0  0  0  0  0  0  0  0
   37.8650   22.3230   36.2530 N   0  0  0  0  0  0  0  0  0  0  0  0
   37.5630   23.2890   37.2680 C   0  0  0  0  0  2  0  0  0  0  0  0
   38.0230   24.6650   36.8640 C   0  0  0  0  0  2  0  0  0  0  0  0
   38.9570   24.6880   35.6970 C   0  0  0  0  0  3  0  0  0  0  0  0
   39.9070   23.5380   35.7730 C   0  0  0  0  0  2  0  0  0  0  0  0
   39.2730   22.2090   36.0160 C   0  0  0  0  0  2  0  0  0  0  0  0
   35.7370   22.9920   31.3290 C   0  0  0  0  0  0  0  0  0  0  0  0
   35.1840   23.5360   32.1110 H   0  0  0  0  0  0  0  0  0  0  0  0
   35.2020   23.0880   30.3550 H   0  0  0  0  0  0  0  0  0  0  0  0
   35.9210   19.2920   31.2280 C   0  0  0  0  0  0  0  0  0  0  0  0
   35.6820   18.9400   32.5760 C   0  0  0  0  0  0  0  0  0  0  0  0
   35.4600   19.9950   33.4930 C   0  0  0  0  0  0  0  0  0  0  0  0
   35.4870   21.2740   33.0500 N   0  0  0  0  0  0  0  0  0  0  0  0
   35.7220   21.5530   31.7440 C   0  0  0  0  0  0  0  0  0  0  0  0
   35.9320   20.5830   30.8710 N   0  0  0  0  0  0  0  0  0  0  0  0
   36.0920   18.5040   30.5160 H   0  0  0  0  0  0  0  0  0  0  0  0
   35.6750   17.8950   32.8580 H   0  0  0  0  0  0  0  0  0  0  0  0
   35.2750   19.7370   34.5320 H   0  0  0  0  0  0  0  0  0  0  0  0
  1 18  1  0  0  0  0
  1  4  1  0  0  0  0
  2  1  1  0  0  0  0
  3  1  1  0  0  0  0
  4  5  1  0  0  0  0
  4  8  2  0  0  0  0
  5  6  2  0  0  0  0
  6  7  1  0  0  0  0
  6 10  1  0  0  0  0
  7 15  1  0  0  0  0
  8  7  1  0  0  0  0
  9  5  1  0  0  0  0
 12 11  1  0  0  0  0
 12 13  1  0  0  0  0
 14 13  1  0  0  0  0
 15 16  1  0  0  0  0
 15 14  1  0  0  0  0
 16 17  1  0  0  0  0
 17 12  1  0  0  0  0
 18 25  1  0  0  0  0
 18 19  1  0  0  0  0
 20 18  1  0  0  0  0
 21 22  1  0  0  0  0
 22 28  1  0  0  0  0
 22 23  2  0  0  0  0
 23 29  1  0  0  0  0
 24 23  1  0  0  0  0
 25 24  2  0  0  0  0
 26 21  2  0  0  0  0
 26 25  1  0  0  0  0
 27 21  1  0  0  0  0
M  END
>  <minimizedAffinity>
-4.91685772

$$$$

 OpenBabel03272501593D

 29 31  0  0  0  0  0  0  0  0999 V2000
   38.2770   27.4430   35.6080 C   0  0  0  0  0  0  0  0  0  0  0  0
   38.6140   28.4480   35.2790 H   0  0  0  0  0  0  0  0  0  0  0  0
   38.0760   27.5250   36.6850 H   0  0  0  0  0  0  0  0  0  0  0  0
   39.3480   26.4420   35.3050 C   0  0  0  0  0  0  0  0  0  0  0  0
   40.6110   26.7010   34.8230 C   0  0  0  0  0  0  0  0  0  0  0  0
   41.3290   25.5230   34.6640 C   0  0  0  0  0  0  0  0  0  0  0  0
   40.4580   24.5750   35.0630 N   0  0  0  0  0  0  0  0  0  0  0  0
   39.3090   25.1110   35.4350 N   0  0  0  0  0  0  0  0  0  0  0  0
   40.9570   27.7140   34.6090 H   0  0  0  0  0  0  0  0  0  0  0  0
   42.3430   25.4740   34.3000 H   0  0  0  0  0  0  0  0  0  0  0  0
   38.5600   22.4620   37.9740 H   0  0  0  0  0  0  0  0  0  0  0  0
   39.1700   22.7250   37.1570 N   0  0  0  0  0  0  0  0  0  0  0  0
   40.5160   22.3240   37.4430 C   0  0  0  0  0  2  0  0  0  0  0  0
   41.4520   22.7320   36.3370 C   0  0  0  0  0  2  0  0  0  0  0  0
   40.7730   23.1510   35.0730 C   0  0  0  0  0  3  0  0  0  0  0  0
   39.5880   22.2800   34.8110 C   0  0  0  0  0  2  0  0  0  0  0  0
   38.6620   22.1070   35.9680 C   0  0  0  0  0  2  0  0  0  0  0  0
   37.0400   26.9720   34.8970 C   0  0  0  0  0  0  0  0  0  0  0  0
   37.1700   25.9730   34.4490 H   0  0  0  0  0  0  0  0  0  0  0  0
   36.1670   26.9610   35.5900 H   0  0  0  0  0  0  0  0  0  0  0  0
   37.0950   28.5990   31.5670 C   0  0  0  0  0  0  0  0  0  0  0  0
   36.1240   29.6170   31.7110 C   0  0  0  0  0  0  0  0  0  0  0  0
   35.4710   29.7180   32.9630 C   0  0  0  0  0  0  0  0  0  0  0  0
   35.7960   28.8510   33.9510 N   0  0  0  0  0  0  0  0  0  0  0  0
   36.7350   27.8940   33.7560 C   0  0  0  0  0  0  0  0  0  0  0  0
   37.3580   27.7810   32.5960 N   0  0  0  0  0  0  0  0  0  0  0  0
   37.6030   28.5060   30.6240 H   0  0  0  0  0  0  0  0  0  0  0  0
   35.9170   30.2740   30.8770 H   0  0  0  0  0  0  0  0  0  0  0  0
   34.7230   30.4970   33.0860 H   0  0  0  0  0  0  0  0  0  0  0  0
  1  3  1  0  0  0  0
  2  1  1  0  0  0  0
  4  8  2  0  0  0  0
  4  1  1  0  0  0  0
  5  4  1  0  0  0  0
  6  5  2  0  0  0  0
  6  7  1  0  0  0  0
  7 15  1  0  0  0  0
  7  8  1  0  0  0  0
  9  5  1  0  0  0  0
 10  6  1  0  0  0  0
 12 13  1  0  0  0  0
 12 11  1  0  0  0  0
 14 13  1  0  0  0  0
 15 14  1  0  0  0  0
 16 15  1  0  0  0  0
 16 17  1  0  0  0  0
 17 12  1  0  0  0  0
 18 20  1  0  0  0  0
 18  1  1  0  0  0  0
 19 18  1  0  0  0  0
 21 22  2  0  0  0  0
 21 26  1  0  0  0  0
 22 23  1  0  0  0  0
 23 29  1  0  0  0  0
 23 24  2  0  0  0  0
 25 24  1  0  0  0  0
 25 18  1  0  0  0  0
 26 25  2  0  0  0  0
 27 21  1  0  0  0  0
 28 22  1  0  0  0  0
M  END
>  <minimizedAffinity>
-4.90428114

$$$$

 OpenBabel03272501593D

 29 31  0  0  0  0  0  0  0  0999 V2000
   38.2180   26.0810   36.1300 C   0  0  0  0  0  0  0  0  0  0  0  0
   37.7580   26.6450   36.9670 H   0  0  0  0  0  0  0  0  0  0  0  0
   39.3000   26.2650   36.1940 H   0  0  0  0  0  0  0  0  0  0  0  0
   37.6370   26.5600   34.8360 C   0  0  0  0  0  0  0  0  0  0  0  0
   36.8970   27.7020   34.6340 C   0  0  0  0  0  0  0  0  0  0  0  0
   36.5280   27.8200   33.3000 C   0  0  0  0  0  0  0  0  0  0  0  0
   37.0670   26.7230   32.7320 N   0  0  0  0  0  0  0  0  0  0  0  0
   37.7110   25.9940   33.6260 N   0  0  0  0  0  0  0  0  0  0  0  0
   36.6580   28.3930   35.4440 H   0  0  0  0  0  0  0  0  0  0  0  0
   35.9430   28.6350   32.9020 H   0  0  0  0  0  0  0  0  0  0  0  0
   36.0330   22.8670   31.9570 H   0  0  0  0  0  0  0  0  0  0  0  0
   36.2970   23.8800   31.8440 N   0  0  0  0  0  0  0  0  0  0  0  0
   37.4660   23.9600   31.0180 C   0  0  0  0  0  2  0  0  0  0  0  0
   37.9320   25.3840   30.8720 C   0  0  0  0  0  2  0  0  0  0  0  0
   36.9400   26.4110   31.3140 C   0  0  0  0  0  3  0  0  0  0  0  0
   35.5600   25.9970   30.9200 C   0  0  0  0  0  2  0  0  0  0  0  0
   35.1900   24.5980   31.2850 C   0  0  0  0  0  2  0  0  0  0  0  0
   37.9520   24.6030   36.1950 C   0  0  0  0  0  0  0  0  0  0  0  0
   37.3150   24.3310   37.0520 H   0  0  0  0  0  0  0  0  0  0  0  0
   37.4810   24.2450   35.2500 H   0  0  0  0  0  0  0  0  0  0  0  0
   40.5460   22.3460   37.5790 C   0  0  0  0  0  0  0  0  0  0  0  0
   41.6340   22.5610   36.7020 C   0  0  0  0  0  0  0  0  0  0  0  0
   41.4450   23.4870   35.6480 C   0  0  0  0  0  0  0  0  0  0  0  0
   40.2510   24.1160   35.5250 N   0  0  0  0  0  0  0  0  0  0  0  0
   39.2420   23.8700   36.3960 C   0  0  0  0  0  0  0  0  0  0  0  0
   39.3970   23.0090   37.3880 N   0  0  0  0  0  0  0  0  0  0  0  0
   40.6700   21.6470   38.3870 H   0  0  0  0  0  0  0  0  0  0  0  0
   42.5590   22.0230   36.8620 H   0  0  0  0  0  0  0  0  0  0  0  0
   42.2740   23.6610   34.9670 H   0  0  0  0  0  0  0  0  0  0  0  0
  1  3  1  0  0  0  0
  1 18  1  0  0  0  0
  1  2  1  0  0  0  0
  4  1  1  0  0  0  0
  5  4  1  0  0  0  0
  5  9  1  0  0  0  0
  6  5  2  0  0  0  0
  7  6  1  0  0  0  0
  7  8  1  0  0  0  0
  8  4  2  0  0  0  0
 10  6  1  0  0  0  0
 12 11  1  0  0  0  0
 13 12  1  0  0  0  0
 14 13  1  0  0  0  0
 14 15  1  0  0  0  0
 15  7  1  0  0  0  0
 16 17  1  0  0  0  0
 16 15  1  0  0  0  0
 17 12  1  0  0  0  0
 18 25  1  0  0  0  0
 18 19  1  0  0  0  0
 20 18  1  0  0  0  0
 21 27  1  0  0  0  0
 22 28  1  0  0  0  0
 22 21  2  0  0  0  0
 23 22  1  0  0  0  0
 24 23  2  0  0  0  0
 24 25  1  0  0  0  0
 25 26  2  0  0  0  0
 26 21  1  0  0  0  0
 29 23  1  0  0  0  0
M  END
>  <minimizedAffinity>
-4.86131668

$$$$

 OpenBabel03272501593D

 29 31  0  0  0  0  0  0  0  0999 V2000
   36.3130   24.0420   31.0400 C   0  0  0  0  0  0  0  0  0  0  0  0
   36.3520   24.5070   30.0330 H   0  0  0  0  0  0  0  0  0  0  0  0
   35.2940   23.6450   31.1550 H   0  0  0  0  0  0  0  0  0  0  0  0
   36.6400   25.0750   32.0720 C   0  0  0  0  0  0  0  0  0  0  0  0
   36.4570   26.4350   31.9680 C   0  0  0  0  0  0  0  0  0  0  0  0
   36.8760   27.0780   33.1260 C   0  0  0  0  0  0  0  0  0  0  0  0
   37.3050   26.0640   33.9040 N   0  0  0  0  0  0  0  0  0  0  0  0
   37.1660   24.9030   33.2900 N   0  0  0  0  0  0  0  0  0  0  0  0
   36.0360   26.9010   31.0760 H   0  0  0  0  0  0  0  0  0  0  0  0
   36.8310   28.1450   33.2790 H   0  0  0  0  0  0  0  0  0  0  0  0
   41.1460   24.8050   34.3530 H   0  0  0  0  0  0  0  0  0  0  0  0
   40.1890   25.2030   34.5400 N   0  0  0  0  0  0  0  0  0  0  0  0
   39.5980   24.4810   35.6270 C   0  0  0  0  0  2  0  0  0  0  0  0
   38.1970   24.9610   35.9020 C   0  0  0  0  0  2  0  0  0  0  0  0
   37.8460   26.2570   35.2450 C   0  0  0  0  0  3  0  0  0  0  0  0
   39.0130   27.1880   35.2840 C   0  0  0  0  0  2  0  0  0  0  0  0
   40.3050   26.6040   34.8210 C   0  0  0  0  0  2  0  0  0  0  0  0
   37.3110   22.9320   31.2170 C   0  0  0  0  0  0  0  0  0  0  0  0
   37.8160   22.6690   30.2730 H   0  0  0  0  0  0  0  0  0  0  0  0
   38.0710   23.2050   31.9860 H   0  0  0  0  0  0  0  0  0  0  0  0
   35.4580   20.4800   33.2880 C   0  0  0  0  0  0  0  0  0  0  0  0
   35.3210   19.3820   32.4080 C   0  0  0  0  0  0  0  0  0  0  0  0
   35.8770   19.5150   31.1130 C   0  0  0  0  0  0  0  0  0  0  0  0
   36.5040   20.6670   30.7770 N   0  0  0  0  0  0  0  0  0  0  0  0
   36.6040   21.6890   31.6620 C   0  0  0  0  0  0  0  0  0  0  0  0
   36.0920   21.5860   32.8770 N   0  0  0  0  0  0  0  0  0  0  0  0
   35.0420   20.3980   34.2770 H   0  0  0  0  0  0  0  0  0  0  0  0
   34.8080   18.4920   32.7470 H   0  0  0  0  0  0  0  0  0  0  0  0
   35.7790   18.6770   30.4280 H   0  0  0  0  0  0  0  0  0  0  0  0
  1  3  1  0  0  0  0
  1 18  1  0  0  0  0
  1  4  1  0  0  0  0
  2  1  1  0  0  0  0
  4  8  2  0  0  0  0
  5  4  1  0  0  0  0
  5  6  2  0  0  0  0
  6 10  1  0  0  0  0
  6  7  1  0  0  0  0
  7 15  1  0  0  0  0
  8  7  1  0  0  0  0
  9  5  1  0  0  0  0
 11 12  1  0  0  0  0
 12 17  1  0  0  0  0
 12 13  1  0  0  0  0
 13 14  1  0  0  0  0
 15 16  1  0  0  0  0
 15 14  1  0  0  0  0
 17 16  1  0  0  0  0
 18 25  1  0  0  0  0
 18 20  1  0  0  0  0
 19 18  1  0  0  0  0
 21 27  1  0  0  0  0
 22 28  1  0  0  0  0
 22 21  2  0  0  0  0
 23 22  1  0  0  0  0
 24 23  2  0  0  0  0
 24 25  1  0  0  0  0
 25 26  2  0  0  0  0
 26 21  1  0  0  0  0
 29 23  1  0  0  0  0
M  END
>  <minimizedAffinity>
-4.63102341

$$$$

 OpenBabel03272501593D

 29 31  0  0  0  0  0  0  0  0999 V2000
   37.4400   21.7390   33.7500 C   0  0  0  0  0  0  0  0  0  0  0  0
   37.3210   20.7390   33.2850 H   0  0  0  0  0  0  0  0  0  0  0  0
   36.7780   21.7490   34.6280 H   0  0  0  0  0  0  0  0  0  0  0  0
   37.0730   22.7920   32.7510 C   0  0  0  0  0  0  0  0  0  0  0  0
   36.0200   22.7630   31.8660 C   0  0  0  0  0  0  0  0  0  0  0  0
   35.9930   23.9170   31.0940 C   0  0  0  0  0  0  0  0  0  0  0  0
   37.0510   24.6170   31.5480 N   0  0  0  0  0  0  0  0  0  0  0  0
   37.6770   23.9620   32.5100 N   0  0  0  0  0  0  0  0  0  0  0  0
   35.3250   21.9230   31.8150 H   0  0  0  0  0  0  0  0  0  0  0  0
   35.2580   24.1200   30.3310 H   0  0  0  0  0  0  0  0  0  0  0  0
   36.6700   27.6600   34.2200 H   0  0  0  0  0  0  0  0  0  0  0  0
   36.8640   27.1080   33.3440 N   0  0  0  0  0  0  0  0  0  0  0  0
   36.0950   27.6660   32.2710 C   0  0  0  0  0  2  0  0  0  0  0  0
   36.2800   26.8770   31.0020 C   0  0  0  0  0  2  0  0  0  0  0  0
   37.4310   25.9240   31.0260 C   0  0  0  0  0  3  0  0  0  0  0  0
   38.5910   26.5350   31.7420 C   0  0  0  0  0  2  0  0  0  0  0  0
   38.2710   27.1330   33.0710 C   0  0  0  0  0  2  0  0  0  0  0  0
   38.8510   22.0290   34.1770 C   0  0  0  0  0  0  0  0  0  0  0  0
   39.4960   21.1370   34.1240 H   0  0  0  0  0  0  0  0  0  0  0  0
   39.2890   22.8470   33.5580 H   0  0  0  0  0  0  0  0  0  0  0  0
   37.7910   23.3780   37.4620 C   0  0  0  0  0  0  0  0  0  0  0  0
   38.9550   23.2130   38.2480 C   0  0  0  0  0  0  0  0  0  0  0  0
   40.0850   22.6370   37.6200 C   0  0  0  0  0  0  0  0  0  0  0  0
   40.0060   22.2740   36.3170 N   0  0  0  0  0  0  0  0  0  0  0  0
   38.8620   22.4560   35.6130 C   0  0  0  0  0  0  0  0  0  0  0  0
   37.7950   22.9920   36.1800 N   0  0  0  0  0  0  0  0  0  0  0  0
   36.9220   23.8140   37.9220 H   0  0  0  0  0  0  0  0  0  0  0  0
   38.9450   23.5270   39.2830 H   0  0  0  0  0  0  0  0  0  0  0  0
   40.9860   22.5050   38.2130 H   0  0  0  0  0  0  0  0  0  0  0  0
  1 18  1  0  0  0  0
  1  3  1  0  0  0  0
  2  1  1  0  0  0  0
  4  1  1  0  0  0  0
  5  4  1  0  0  0  0
  6  7  1  0  0  0  0
  6  5  2  0  0  0  0
  7  8  1  0  0  0  0
  8  4  2  0  0  0  0
  9  5  1  0  0  0  0
 10  6  1  0  0  0  0
 12 11  1  0  0  0  0
 13 12  1  0  0  0  0
 14 15  1  0  0  0  0
 14 13  1  0  0  0  0
 15  7  1  0  0  0  0
 15 16  1  0  0  0  0
 16 17  1  0  0  0  0
 17 12  1  0  0  0  0
 18 25  1  0  0  0  0
 19 18  1  0  0  0  0
 20 18  1  0  0  0  0
 21 27  1  0  0  0  0
 21 22  1  0  0  0  0
 22 28  1  0  0  0  0
 23 29  1  0  0  0  0
 23 22  2  0  0  0  0
 24 23  1  0  0  0  0
 25 26  1  0  0  0  0
 25 24  2  0  0  0  0
 26 21  2  0  0  0  0
M  END
>  <minimizedAffinity>
-4.56694698

$$$$

 OpenBabel03272501593D

 29 31  0  0  0  0  0  0  0  0999 V2000
   38.0030   26.0580   34.2740 C   0  0  0  0  0  0  0  0  0  0  0  0
   37.2690   26.1130   35.1050 H   0  0  0  0  0  0  0  0  0  0  0  0
   38.2490   27.0970   34.0130 H   0  0  0  0  0  0  0  0  0  0  0  0
   37.3920   25.3140   33.1280 C   0  0  0  0  0  0  0  0  0  0  0  0
   36.5070   25.8090   32.1970 C   0  0  0  0  0  0  0  0  0  0  0  0
   36.1570   24.8270   31.2800 C   0  0  0  0  0  0  0  0  0  0  0  0
   36.8560   23.7520   31.6950 N   0  0  0  0  0  0  0  0  0  0  0  0
   37.5720   24.0370   32.7680 N   0  0  0  0  0  0  0  0  0  0  0  0
   36.1560   26.8420   32.2190 H   0  0  0  0  0  0  0  0  0  0  0  0
   35.4750   24.9800   30.4570 H   0  0  0  0  0  0  0  0  0  0  0  0
   36.2560   20.6020   34.1960 H   0  0  0  0  0  0  0  0  0  0  0  0
   36.4150   21.1870   33.3360 N   0  0  0  0  0  0  0  0  0  0  0  0
   37.5950   20.7140   32.6730 C   0  0  0  0  0  2  0  0  0  0  0  0
   37.9150   21.5550   31.4650 C   0  0  0  0  0  2  0  0  0  0  0  0
   36.8070   22.4570   31.0270 C   0  0  0  0  0  3  0  0  0  0  0  0
   35.4910   21.7660   31.1710 C   0  0  0  0  0  2  0  0  0  0  0  0
   35.2570   21.1180   32.4940 C   0  0  0  0  0  2  0  0  0  0  0  0
   39.2580   25.3170   34.6420 C   0  0  0  0  0  0  0  0  0  0  0  0
   39.5080   24.5310   33.9120 H   0  0  0  0  0  0  0  0  0  0  0  0
   40.1160   26.0220   34.7440 H   0  0  0  0  0  0  0  0  0  0  0  0
   37.9580   24.3950   37.9880 C   0  0  0  0  0  0  0  0  0  0  0  0
   38.7500   23.2730   38.3220 C   0  0  0  0  0  0  0  0  0  0  0  0
   39.7220   22.8600   37.3790 C   0  0  0  0  0  0  0  0  0  0  0  0
   39.8480   23.5430   36.2170 N   0  0  0  0  0  0  0  0  0  0  0  0
   39.0590   24.6130   35.9490 C   0  0  0  0  0  0  0  0  0  0  0  0
   38.1460   25.0150   36.8160 N   0  0  0  0  0  0  0  0  0  0  0  0
   37.2140   24.7240   38.6920 H   0  0  0  0  0  0  0  0  0  0  0  0
   38.5930   22.7760   39.2710 H   0  0  0  0  0  0  0  0  0  0  0  0
   40.3370   21.9990   37.6250 H   0  0  0  0  0  0  0  0  0  0  0  0
  1 18  1  0  0  0  0
  1  2  1  0  0  0  0
  3  1  1  0  0  0  0
  4  1  1  0  0  0  0
  5  9  1  0  0  0  0
  5  4  1  0  0  0  0
  6  7  1  0  0  0  0
  6  5  2  0  0  0  0
  7  8  1  0  0  0  0
  8  4  2  0  0  0  0
 10  6  1  0  0  0  0
 12 11  1  0  0  0  0
 13 12  1  0  0  0  0
 14 13  1  0  0  0  0
 15 16  1  0  0  0  0
 15 14  1  0  0  0  0
 15  7  1  0  0  0  0
 16 17  1  0  0  0  0
 17 12  1  0  0  0  0
 18 20  1  0  0  0  0
 18 25  1  0  0  0  0
 19 18  1  0  0  0  0
 21 22  1  0  0  0  0
 21 27  1  0  0  0  0
 22 28  1  0  0  0  0
 23 29  1  0  0  0  0
 23 22  2  0  0  0  0
 24 23  1  0  0  0  0
 25 24  2  0  0  0  0
 25 26  1  0  0  0  0
 26 21  2  0  0  0  0
M  END
>  <minimizedAffinity>
-4.54929352

$$$$

 OpenBabel03272501593D

 29 31  0  0  0  0  0  0  0  0999 V2000
   39.4670   27.0900   33.3270 C   0  0  0  0  0  0  0  0  0  0  0  0
   40.5120   26.7510   33.1690 H   0  0  0  0  0  0  0  0  0  0  0  0
   39.5030   28.1890   33.3570 H   0  0  0  0  0  0  0  0  0  0  0  0
   38.9470   26.5050   34.6030 C   0  0  0  0  0  0  0  0  0  0  0  0
   38.6960   27.1760   35.7790 C   0  0  0  0  0  0  0  0  0  0  0  0
   38.2190   26.3050   36.7490 C   0  0  0  0  0  0  0  0  0  0  0  0
   38.1980   25.1160   36.1150 N   0  0  0  0  0  0  0  0  0  0  0  0
   38.6200   25.2350   34.8690 N   0  0  0  0  0  0  0  0  0  0  0  0
   38.8640   28.2480   35.8860 H   0  0  0  0  0  0  0  0  0  0  0  0
   37.9520   26.6000   37.7530 H   0  0  0  0  0  0  0  0  0  0  0  0
   41.0560   22.2270   36.2890 H   0  0  0  0  0  0  0  0  0  0  0  0
   40.1470   22.7510   36.3860 N   0  0  0  0  0  0  0  0  0  0  0  0
   39.1100   21.9900   35.7550 C   0  0  0  0  0  2  0  0  0  0  0  0
   37.7940   22.7190   35.8030 C   0  0  0  0  0  2  0  0  0  0  0  0
   37.7600   23.8770   36.7480 C   0  0  0  0  0  3  0  0  0  0  0  0
   38.5160   23.5490   37.9930 C   0  0  0  0  0  2  0  0  0  0  0  0
   39.8800   22.9830   37.7750 C   0  0  0  0  0  2  0  0  0  0  0  0
   38.5300   26.6440   32.2410 C   0  0  0  0  0  0  0  0  0  0  0  0
   39.0650   26.2260   31.3730 H   0  0  0  0  0  0  0  0  0  0  0  0
   37.8030   25.8940   32.6310 H   0  0  0  0  0  0  0  0  0  0  0  0
   37.3780   29.4190   30.0700 C   0  0  0  0  0  0  0  0  0  0  0  0
   36.3280   29.9830   30.8310 C   0  0  0  0  0  0  0  0  0  0  0  0
   36.0420   29.3880   32.0830 C   0  0  0  0  0  0  0  0  0  0  0  0
   36.7710   28.3230   32.4930 N   0  0  0  0  0  0  0  0  0  0  0  0
   37.7670   27.8240   31.7210 C   0  0  0  0  0  0  0  0  0  0  0  0
   38.0520   28.3640   30.5480 N   0  0  0  0  0  0  0  0  0  0  0  0
   37.6110   29.8570   29.1160 H   0  0  0  0  0  0  0  0  0  0  0  0
   35.7880   30.8350   30.4390 H   0  0  0  0  0  0  0  0  0  0  0  0
   35.2370   29.8130   32.6770 H   0  0  0  0  0  0  0  0  0  0  0  0
  1  3  1  0  0  0  0
  1  4  1  0  0  0  0
  2  1  1  0  0  0  0
  4  8  2  0  0  0  0
  4  5  1  0  0  0  0
  5  9  1  0  0  0  0
  5  6  2  0  0  0  0
  6 10  1  0  0  0  0
  7 15  1  0  0  0  0
  7  6  1  0  0  0  0
  8  7  1  0  0  0  0
 11 12  1  0  0  0  0
 12 17  1  0  0  0  0
 13 14  1  0  0  0  0
 13 12  1  0  0  0  0
 14 15  1  0  0  0  0
 15 16  1  0  0  0  0
 17 16  1  0  0  0  0
 18 20  1  0  0  0  0
 18  1  1  0  0  0  0
 19 18  1  0  0  0  0
 21 26  2  0  0  0  0
 21 22  1  0  0  0  0
 22 23  2  0  0  0  0
 23 24  1  0  0  0  0
 23 29  1  0  0  0  0
 25 18  1  0  0  0  0
 25 24  2  0  0  0  0
 26 25  1  0  0  0  0
 27 21  1  0  0  0  0
 28 22  1  0  0  0  0
M  END
>  <minimizedAffinity>
-4.54391575

$$$$

 OpenBabel03272501593D

 29 31  0  0  0  0  0  0  0  0999 V2000
   35.0050   29.5870   33.0130 C   0  0  0  0  0  0  0  0  0  0  0  0
   34.2330   29.0830   33.6280 H   0  0  0  0  0  0  0  0  0  0  0  0
   34.5120   29.8660   32.0700 H   0  0  0  0  0  0  0  0  0  0  0  0
   36.1520   28.6500   32.7970 C   0  0  0  0  0  0  0  0  0  0  0  0
   37.0320   28.6480   31.7390 C   0  0  0  0  0  0  0  0  0  0  0  0
   37.9670   27.6310   31.8780 C   0  0  0  0  0  0  0  0  0  0  0  0
   37.6140   27.0420   33.0370 N   0  0  0  0  0  0  0  0  0  0  0  0
   36.5600   27.6350   33.5690 N   0  0  0  0  0  0  0  0  0  0  0  0
   36.9640   29.3700   30.9230 H   0  0  0  0  0  0  0  0  0  0  0  0
   38.7590   27.4330   31.1710 H   0  0  0  0  0  0  0  0  0  0  0  0
   39.6440   27.8700   36.4630 H   0  0  0  0  0  0  0  0  0  0  0  0
   39.2390   27.3700   35.6290 N   0  0  0  0  0  0  0  0  0  0  0  0
   40.3120   26.7880   34.8780 C   0  0  0  0  0  2  0  0  0  0  0  0
   39.8010   26.1130   33.6330 C   0  0  0  0  0  2  0  0  0  0  0  0
   38.3220   25.9010   33.6050 C   0  0  0  0  0  3  0  0  0  0  0  0
   37.8300   25.5140   34.9610 C   0  0  0  0  0  2  0  0  0  0  0  0
   38.2970   26.3880   36.0770 C   0  0  0  0  0  2  0  0  0  0  0  0
   35.5750   30.8140   33.6680 C   0  0  0  0  0  0  0  0  0  0  0  0
   36.6180   30.6680   33.9920 H   0  0  0  0  0  0  0  0  0  0  0  0
   35.5160   31.6910   32.9810 H   0  0  0  0  0  0  0  0  0  0  0  0
   32.8530   30.9720   36.1770 C   0  0  0  0  0  0  0  0  0  0  0  0
   33.4420   31.7290   37.2160 C   0  0  0  0  0  0  0  0  0  0  0  0
   34.7720   32.1710   37.0230 C   0  0  0  0  0  0  0  0  0  0  0  0
   35.4150   31.8550   35.8730 N   0  0  0  0  0  0  0  0  0  0  0  0
   34.8000   31.1240   34.9110 C   0  0  0  0  0  0  0  0  0  0  0  0
   33.5580   30.7020   35.0700 N   0  0  0  0  0  0  0  0  0  0  0  0
   31.8420   30.6270   36.3050 H   0  0  0  0  0  0  0  0  0  0  0  0
   32.8670   31.9440   38.1070 H   0  0  0  0  0  0  0  0  0  0  0  0
   35.2360   32.7540   37.8140 H   0  0  0  0  0  0  0  0  0  0  0  0
  1  2  1  0  0  0  0
  1 18  1  0  0  0  0
  3  1  1  0  0  0  0
  4  1  1  0  0  0  0
  4  8  2  0  0  0  0
  5  6  2  0  0  0  0
  5  4  1  0  0  0  0
  6  7  1  0  0  0  0
  7  8  1  0  0  0  0
  7 15  1  0  0  0  0
  9  5  1  0  0  0  0
 10  6  1  0  0  0  0
 12 17  1  0  0  0  0
 12 11  1  0  0  0  0
 13 12  1  0  0  0  0
 14 13  1  0  0  0  0
 15 14  1  0  0  0  0
 15 16  1  0  0  0  0
 16 17  1  0  0  0  0
 18 19  1  0  0  0  0
 18 25  1  0  0  0  0
 20 18  1  0  0  0  0
 21 27  1  0  0  0  0
 21 22  1  0  0  0  0
 22 28  1  0  0  0  0
 23 22  2  0  0  0  0
 23 29  1  0  0  0  0
 24 23  1  0  0  0  0
 25 26  1  0  0  0  0
 25 24  2  0  0  0  0
 26 21  2  0  0  0  0
M  END
>  <minimizedAffinity>
-4.49683189

$$$$

 OpenBabel03272501593D

 29 31  0  0  0  0  0  0  0  0999 V2000
   36.5370   28.3850   33.8740 C   0  0  0  0  0  0  0  0  0  0  0  0
   36.4650   27.4300   34.4350 H   0  0  0  0  0  0  0  0  0  0  0  0
   37.5630   28.7510   34.0230 H   0  0  0  0  0  0  0  0  0  0  0  0
   35.5120   29.3420   34.3980 C   0  0  0  0  0  0  0  0  0  0  0  0
   35.7470   30.5370   35.0390 C   0  0  0  0  0  0  0  0  0  0  0  0
   34.5510   31.1550   35.3810 C   0  0  0  0  0  0  0  0  0  0  0  0
   33.6180   30.2950   34.9270 N   0  0  0  0  0  0  0  0  0  0  0  0
   34.1780   29.2440   34.3560 N   0  0  0  0  0  0  0  0  0  0  0  0
   36.7550   30.9080   35.2290 H   0  0  0  0  0  0  0  0  0  0  0  0
   34.4820   32.1030   35.8920 H   0  0  0  0  0  0  0  0  0  0  0  0
   31.6140   27.2860   36.7890 H   0  0  0  0  0  0  0  0  0  0  0  0
   31.8430   28.1870   36.2940 N   0  0  0  0  0  0  0  0  0  0  0  0
   31.0480   28.2710   35.1040 C   0  0  0  0  0  2  0  0  0  0  0  0
   31.3790   29.5100   34.3160 C   0  0  0  0  0  2  0  0  0  0  0  0
   32.1840   30.5240   35.0620 C   0  0  0  0  0  3  0  0  0  0  0  0
   31.7280   30.6010   36.4820 C   0  0  0  0  0  2  0  0  0  0  0  0
   31.6080   29.2880   37.1810 C   0  0  0  0  0  2  0  0  0  0  0  0
   36.2630   28.2300   32.4040 C   0  0  0  0  0  0  0  0  0  0  0  0
   35.2960   28.6680   32.1110 H   0  0  0  0  0  0  0  0  0  0  0  0
   37.0810   28.6880   31.8010 H   0  0  0  0  0  0  0  0  0  0  0  0
   36.9390   24.5880   32.2850 C   0  0  0  0  0  0  0  0  0  0  0  0
   35.9470   24.1250   31.3920 C   0  0  0  0  0  0  0  0  0  0  0  0
   35.0630   25.0870   30.8470 C   0  0  0  0  0  0  0  0  0  0  0  0
   35.2020   26.3870   31.1990 N   0  0  0  0  0  0  0  0  0  0  0  0
   36.1730   26.7750   32.0620 C   0  0  0  0  0  0  0  0  0  0  0  0
   37.0090   25.8920   32.5830 N   0  0  0  0  0  0  0  0  0  0  0  0
   37.6210   23.8720   32.7100 H   0  0  0  0  0  0  0  0  0  0  0  0
   35.8960   23.0700   31.1560 H   0  0  0  0  0  0  0  0  0  0  0  0
   34.2960   24.7430   30.1580 H   0  0  0  0  0  0  0  0  0  0  0  0
  1  3  1  0  0  0  0
  1  4  1  0  0  0  0
  1  2  1  0  0  0  0
  4  5  1  0  0  0  0
  5  9  1  0  0  0  0
  5  6  2  0  0  0  0
  6 10  1  0  0  0  0
  7 15  1  0  0  0  0
  7  6  1  0  0  0  0
  8  4  2  0  0  0  0
  8  7  1  0  0  0  0
 12 11  1  0  0  0  0
 12 17  1  0  0  0  0
 13 12  1  0  0  0  0
 14 15  1  0  0  0  0
 14 13  1  0  0  0  0
 15 16  1  0  0  0  0
 16 17  1  0  0  0  0
 18  1  1  0  0  0  0
 19 18  1  0  0  0  0
 20 18  1  0  0  0  0
 21 26  1  0  0  0  0
 21 27  1  0  0  0  0
 22 21  2  0  0  0  0
 23 24  2  0  0  0  0
 23 22  1  0  0  0  0
 24 25  1  0  0  0  0
 25 18  1  0  0  0  0
 25 26  2  0  0  0  0
 28 22  1  0  0  0  0
 29 23  1  0  0  0  0
M  END
>  <minimizedAffinity>
-4.46435356

$$$$
