
 OpenBabel03272507533D

 30 32  0  0  0  0  0  0  0  0999 V2000
   38.1450   24.0340   32.6970 N   0  0  0  0  0  0  0  0  0  0  0  0
   37.2920   23.2730   32.0190 C   0  0  0  0  0  0  0  0  0  0  0  0
   36.6830   22.1760   32.6230 C   0  0  0  0  0  0  0  0  0  0  0  0
   37.0450   21.9870   33.9200 C   0  0  0  0  0  0  0  0  0  0  0  0
   36.5050   20.9900   34.5030 O   0  0  0  0  0  0  0  0  0  0  0  0
   37.8900   22.7130   34.6430 N   0  0  0  0  0  0  0  0  0  0  0  0
   38.4500   23.7670   33.9990 C   0  0  0  0  0  0  0  0  0  0  0  0
   39.2680   24.4880   34.6670 O   0  0  0  0  0  0  0  0  0  0  0  0
   37.0810   23.5260   30.9850 H   0  0  0  0  0  0  0  0  0  0  0  0
   35.9930   21.5520   32.0950 H   0  0  0  0  0  0  0  0  0  0  0  0
   38.2610   26.4430   32.4000 C   0  0  0  0  0  0  0  0  0  0  0  0
   38.8020   25.1720   32.1210 C   0  0  0  0  0  0  0  0  0  0  0  0
   39.9400   25.0820   31.3050 C   0  0  0  0  0  0  0  0  0  0  0  0
   40.4630   26.2330   30.8230 N   0  0  0  0  0  0  0  0  0  0  0  0
   39.9560   27.4240   31.0850 C   0  0  0  0  0  0  0  0  0  0  0  0
   38.8640   27.5280   31.8670 N   0  0  0  0  0  0  0  0  0  0  0  0
   40.3310   24.1080   31.1080 H   0  0  0  0  0  0  0  0  0  0  0  0
   40.3570   28.3690   30.7100 H   0  0  0  0  0  0  0  0  0  0  0  0
   36.9770   27.1580   34.5510 C   0  0  0  0  0  0  0  0  0  0  0  0
   37.9630   27.5510   35.2260 O   0  0  0  0  0  0  0  0  0  0  0  0
   37.1290   26.6510   33.2180 N   0  0  0  0  0  0  0  0  0  0  0  0
   36.0230   27.2300   35.0440 H   0  0  0  0  0  0  0  0  0  0  0  0
   36.1780   26.4010   32.8170 H   0  0  0  0  0  0  0  0  0  0  0  0
   39.7520   22.9660   39.4250 H   0  0  0  0  0  0  0  0  0  0  0  0
   39.3200   22.6540   38.5220 N   0  0  0  0  0  0  0  0  0  0  0  0
   40.2650   22.7810   37.4520 C   0  0  0  0  0  2  0  0  0  0  0  0
   39.6600   22.0650   36.2470 C   0  0  0  0  0  2  0  0  0  0  0  0
   38.2290   22.4500   36.0270 C   0  0  0  0  0  3  0  0  0  0  0  0
   37.7660   23.6190   36.8620 C   0  0  0  0  0  2  0  0  0  0  0  0
   38.1730   23.5050   38.2990 C   0  0  0  0  0  2  0  0  0  0  0  0
  1  7  1  0  0  0  0
  2  3  2  0  0  0  0
  2  1  1  0  0  0  0
  3  4  1  0  0  0  0
  4  5  2  0  0  0  0
  4  6  1  0  0  0  0
  6 28  1  0  0  0  0
  7  6  1  0  0  0  0
  7  8  2  0  0  0  0
  9  2  1  0  0  0  0
 10  3  1  0  0  0  0
 11 21  1  0  0  0  0
 12 11  1  0  0  0  0
 12  1  1  0  0  0  0
 13 12  2  0  0  0  0
 14 15  2  0  0  0  0
 14 13  1  0  0  0  0
 15 16  1  0  0  0  0
 16 11  2  0  0  0  0
 17 13  1  0  0  0  0
 18 15  1  0  0  0  0
 19 22  1  0  0  0  0
 19 20  2  0  0  0  0
 21 19  1  0  0  0  0
 23 21  1  0  0  0  0
 25 24  1  0  0  0  0
 26 25  1  0  0  0  0
 27 26  1  0  0  0  0
 28 27  1  0  0  0  0
 28 29  1  0  0  0  0
 29 30  1  0  0  0  0
 30 25  1  0  0  0  0
M  END
>  <minimizedAffinity>
-5.35382223

$$$$

 OpenBabel03272507533D

 30 32  0  0  0  0  0  0  0  0999 V2000
   37.3480   22.7660   32.9610 N   0  0  0  0  0  0  0  0  0  0  0  0
   37.5810   23.7640   32.1150 C   0  0  0  0  0  0  0  0  0  0  0  0
   38.2720   24.9000   32.5290 C   0  0  0  0  0  0  0  0  0  0  0  0
   38.6590   24.8680   33.8320 C   0  0  0  0  0  0  0  0  0  0  0  0
   39.2940   25.8940   34.2440 O   0  0  0  0  0  0  0  0  0  0  0  0
   38.4530   23.9010   34.7190 N   0  0  0  0  0  0  0  0  0  0  0  0
   37.7760   22.8210   34.2550 C   0  0  0  0  0  0  0  0  0  0  0  0
   37.5610   21.8710   35.0830 O   0  0  0  0  0  0  0  0  0  0  0  0
   37.2210   23.6740   31.0960 H   0  0  0  0  0  0  0  0  0  0  0  0
   38.4690   25.7150   31.8640 H   0  0  0  0  0  0  0  0  0  0  0  0
   37.4050   20.4340   32.2780 C   0  0  0  0  0  0  0  0  0  0  0  0
   36.6390   21.5760   32.5870 C   0  0  0  0  0  0  0  0  0  0  0  0
   35.2400   21.4960   32.5140 C   0  0  0  0  0  0  0  0  0  0  0  0
   34.6950   20.3140   32.1470 N   0  0  0  0  0  0  0  0  0  0  0  0
   35.4130   19.2440   31.8570 C   0  0  0  0  0  0  0  0  0  0  0  0
   36.7570   19.3040   31.9220 N   0  0  0  0  0  0  0  0  0  0  0  0
   34.6810   22.3740   32.7530 H   0  0  0  0  0  0  0  0  0  0  0  0
   35.0000   18.2780   31.5570 H   0  0  0  0  0  0  0  0  0  0  0  0
   39.8310   20.7720   31.3880 C   0  0  0  0  0  0  0  0  0  0  0  0
   39.5430   21.2600   30.2650 O   0  0  0  0  0  0  0  0  0  0  0  0
   38.8160   20.3990   32.3310 N   0  0  0  0  0  0  0  0  0  0  0  0
   40.8820   20.6560   31.5840 H   0  0  0  0  0  0  0  0  0  0  0  0
   39.2680   20.0360   33.2210 H   0  0  0  0  0  0  0  0  0  0  0  0
   39.4270   22.8060   39.6440 H   0  0  0  0  0  0  0  0  0  0  0  0
   39.3050   23.2810   38.7170 N   0  0  0  0  0  0  0  0  0  0  0  0
   37.9390   23.2010   38.2940 C   0  0  0  0  0  2  0  0  0  0  0  0
   37.7970   24.1340   37.0940 C   0  0  0  0  0  2  0  0  0  0  0  0
   38.8980   23.9360   36.0970 C   0  0  0  0  0  3  0  0  0  0  0  0
   39.7560   22.7210   36.3530 C   0  0  0  0  0  2  0  0  0  0  0  0
   40.1730   22.5950   37.7870 C   0  0  0  0  0  2  0  0  0  0  0  0
  1  7  1  0  0  0  0
  2  3  2  0  0  0  0
  2  1  1  0  0  0  0
  3  4  1  0  0  0  0
  4  5  2  0  0  0  0
  4  6  1  0  0  0  0
  6 28  1  0  0  0  0
  7  6  1  0  0  0  0
  7  8  2  0  0  0  0
  9  2  1  0  0  0  0
 10  3  1  0  0  0  0
 11 21  1  0  0  0  0
 11 12  1  0  0  0  0
 12  1  1  0  0  0  0
 13 12  2  0  0  0  0
 13 17  1  0  0  0  0
 14 13  1  0  0  0  0
 15 16  1  0  0  0  0
 15 14  2  0  0  0  0
 16 11  2  0  0  0  0
 18 15  1  0  0  0  0
 19 22  1  0  0  0  0
 19 21  1  0  0  0  0
 20 19  2  0  0  0  0
 21 23  1  0  0  0  0
 25 24  1  0  0  0  0
 26 25  1  0  0  0  0
 27 26  1  0  0  0  0
 28 29  1  0  0  0  0
 28 27  1  0  0  0  0
 29 30  1  0  0  0  0
 30 25  1  0  0  0  0
M  END
>  <minimizedAffinity>
-5.26416349

$$$$

 OpenBabel03272507533D

 30 32  0  0  0  0  0  0  0  0999 V2000
   37.9340   23.8370   34.3390 N   0  0  0  0  0  0  0  0  0  0  0  0
   37.9260   25.0530   33.8040 C   0  0  0  0  0  0  0  0  0  0  0  0
   37.3850   25.2680   32.5380 C   0  0  0  0  0  0  0  0  0  0  0  0
   36.8940   24.1460   31.9480 C   0  0  0  0  0  0  0  0  0  0  0  0
   36.3920   24.3080   30.7880 O   0  0  0  0  0  0  0  0  0  0  0  0
   36.8770   22.9110   32.4360 N   0  0  0  0  0  0  0  0  0  0  0  0
   37.4170   22.7660   33.6720 C   0  0  0  0  0  0  0  0  0  0  0  0
   37.4160   21.5890   34.1710 O   0  0  0  0  0  0  0  0  0  0  0  0
   38.3480   25.8730   34.3730 H   0  0  0  0  0  0  0  0  0  0  0  0
   37.3690   26.2390   32.0890 H   0  0  0  0  0  0  0  0  0  0  0  0
   39.8540   23.2480   35.7090 C   0  0  0  0  0  0  0  0  0  0  0  0
   38.4810   23.5600   35.6360 C   0  0  0  0  0  0  0  0  0  0  0  0
   37.7260   23.5840   36.8190 C   0  0  0  0  0  0  0  0  0  0  0  0
   38.3630   23.3020   37.9790 N   0  0  0  0  0  0  0  0  0  0  0  0
   39.6490   23.0090   38.0470 C   0  0  0  0  0  0  0  0  0  0  0  0
   40.3880   22.9830   36.9220 N   0  0  0  0  0  0  0  0  0  0  0  0
   36.6890   23.8220   36.7390 H   0  0  0  0  0  0  0  0  0  0  0  0
   40.1880   22.7790   38.9690 H   0  0  0  0  0  0  0  0  0  0  0  0
   41.5740   24.1860   33.9920 C   0  0  0  0  0  0  0  0  0  0  0  0
   41.7060   25.3380   34.4820 O   0  0  0  0  0  0  0  0  0  0  0  0
   40.7090   23.2080   34.5860 N   0  0  0  0  0  0  0  0  0  0  0  0
   42.1510   23.9950   33.1040 H   0  0  0  0  0  0  0  0  0  0  0  0
   40.7620   22.3000   34.0380 H   0  0  0  0  0  0  0  0  0  0  0  0
   35.1930   18.2200   31.1870 H   0  0  0  0  0  0  0  0  0  0  0  0
   35.5240   19.2150   31.1700 N   0  0  0  0  0  0  0  0  0  0  0  0
   36.8500   19.3050   31.7040 C   0  0  0  0  0  2  0  0  0  0  0  0
   37.3500   20.7150   31.3960 C   0  0  0  0  0  2  0  0  0  0  0  0
   36.3340   21.7580   31.7470 C   0  0  0  0  0  3  0  0  0  0  0  0
   35.1590   21.2380   32.5390 C   0  0  0  0  0  2  0  0  0  0  0  0
   34.5920   19.9710   31.9760 C   0  0  0  0  0  2  0  0  0  0  0  0
  1 12  1  0  0  0  0
  2  1  1  0  0  0  0
  2  9  1  0  0  0  0
  3  2  2  0  0  0  0
  4  6  1  0  0  0  0
  4  3  1  0  0  0  0
  5  4  2  0  0  0  0
  6  7  1  0  0  0  0
  7  8  2  0  0  0  0
  7  1  1  0  0  0  0
 10  3  1  0  0  0  0
 11 16  1  0  0  0  0
 12 11  2  0  0  0  0
 12 13  1  0  0  0  0
 13 14  2  0  0  0  0
 14 15  1  0  0  0  0
 15 18  1  0  0  0  0
 16 15  2  0  0  0  0
 17 13  1  0  0  0  0
 19 20  2  0  0  0  0
 19 21  1  0  0  0  0
 21 11  1  0  0  0  0
 22 19  1  0  0  0  0
 23 21  1  0  0  0  0
 25 24  1  0  0  0  0
 25 26  1  0  0  0  0
 25 30  1  0  0  0  0
 27 26  1  0  0  0  0
 27 28  1  0  0  0  0
 28  6  1  0  0  0  0
 28 29  1  0  0  0  0
 30 29  1  0  0  0  0
M  END
>  <minimizedAffinity>
-5.23387861

$$$$

 OpenBabel03272507533D

 30 32  0  0  0  0  0  0  0  0999 V2000
   38.5530   23.3540   34.2560 N   0  0  0  0  0  0  0  0  0  0  0  0
   39.2730   22.3160   33.8440 C   0  0  0  0  0  0  0  0  0  0  0  0
   39.4860   22.0920   32.4860 C   0  0  0  0  0  0  0  0  0  0  0  0
   38.9010   23.0140   31.6750 C   0  0  0  0  0  0  0  0  0  0  0  0
   39.0770   22.8380   30.4250 O   0  0  0  0  0  0  0  0  0  0  0  0
   38.1740   24.0670   32.0320 N   0  0  0  0  0  0  0  0  0  0  0  0
   38.0030   24.2310   33.3670 C   0  0  0  0  0  0  0  0  0  0  0  0
   37.3080   25.2350   33.7440 O   0  0  0  0  0  0  0  0  0  0  0  0
   39.6900   21.6470   34.5890 H   0  0  0  0  0  0  0  0  0  0  0  0
   40.0620   21.2630   32.1340 H   0  0  0  0  0  0  0  0  0  0  0  0
   37.5170   22.6980   36.3540 C   0  0  0  0  0  0  0  0  0  0  0  0
   38.3000   23.6280   35.6410 C   0  0  0  0  0  0  0  0  0  0  0  0
   38.7880   24.7610   36.3110 C   0  0  0  0  0  0  0  0  0  0  0  0
   38.4760   24.9030   37.6200 N   0  0  0  0  0  0  0  0  0  0  0  0
   37.7410   24.0310   38.2870 C   0  0  0  0  0  0  0  0  0  0  0  0
   37.2660   22.9380   37.6600 N   0  0  0  0  0  0  0  0  0  0  0  0
   39.3790   25.4510   35.7500 H   0  0  0  0  0  0  0  0  0  0  0  0
   37.4750   24.1200   39.3430 H   0  0  0  0  0  0  0  0  0  0  0  0
   35.7670   20.7990   36.0090 C   0  0  0  0  0  0  0  0  0  0  0  0
   34.9030   21.2000   36.8310 O   0  0  0  0  0  0  0  0  0  0  0  0
   36.9870   21.5200   35.7850 N   0  0  0  0  0  0  0  0  0  0  0  0
   35.5250   19.8850   35.4950 H   0  0  0  0  0  0  0  0  0  0  0  0
   37.5620   21.0310   35.0370 H   0  0  0  0  0  0  0  0  0  0  0  0
   35.7840   28.0860   29.9030 H   0  0  0  0  0  0  0  0  0  0  0  0
   36.2390   27.1590   30.0860 N   0  0  0  0  0  0  0  0  0  0  0  0
   35.5300   26.4530   31.1120 C   0  0  0  0  0  2  0  0  0  0  0  0
   36.0820   25.0300   31.1250 C   0  0  0  0  0  2  0  0  0  0  0  0
   37.5800   25.0100   31.1070 C   0  0  0  0  0  3  0  0  0  0  0  0
   38.2210   26.3600   31.3250 C   0  0  0  0  0  2  0  0  0  0  0  0
   37.5950   27.4420   30.4990 C   0  0  0  0  0  2  0  0  0  0  0  0
  1 12  1  0  0  0  0
  2  1  1  0  0  0  0
  2  9  1  0  0  0  0
  3  2  2  0  0  0  0
  4  6  1  0  0  0  0
  4  3  1  0  0  0  0
  5  4  2  0  0  0  0
  6  7  1  0  0  0  0
  7  8  2  0  0  0  0
  7  1  1  0  0  0  0
 10  3  1  0  0  0  0
 11 16  1  0  0  0  0
 12 13  1  0  0  0  0
 12 11  2  0  0  0  0
 13 14  2  0  0  0  0
 14 15  1  0  0  0  0
 15 18  1  0  0  0  0
 16 15  2  0  0  0  0
 17 13  1  0  0  0  0
 19 20  2  0  0  0  0
 21 19  1  0  0  0  0
 21 11  1  0  0  0  0
 22 19  1  0  0  0  0
 23 21  1  0  0  0  0
 24 25  1  0  0  0  0
 25 30  1  0  0  0  0
 25 26  1  0  0  0  0
 26 27  1  0  0  0  0
 28 27  1  0  0  0  0
 28 29  1  0  0  0  0
 28  6  1  0  0  0  0
 30 29  1  0  0  0  0
M  END
>  <minimizedAffinity>
-5.18272924

$$$$

 OpenBabel03272507533D

 30 32  0  0  0  0  0  0  0  0999 V2000
   38.8040   23.3160   33.8620 N   0  0  0  0  0  0  0  0  0  0  0  0
   38.4600   24.5910   33.7160 C   0  0  0  0  0  0  0  0  0  0  0  0
   37.4000   24.9510   32.8870 C   0  0  0  0  0  0  0  0  0  0  0  0
   36.7930   23.8980   32.2770 C   0  0  0  0  0  0  0  0  0  0  0  0
   35.8180   24.1920   31.5100 O   0  0  0  0  0  0  0  0  0  0  0  0
   37.0950   22.6090   32.3860 N   0  0  0  0  0  0  0  0  0  0  0  0
   38.1360   22.3230   33.2080 C   0  0  0  0  0  0  0  0  0  0  0  0
   38.4530   21.0920   33.3360 O   0  0  0  0  0  0  0  0  0  0  0  0
   39.0210   25.3450   34.2570 H   0  0  0  0  0  0  0  0  0  0  0  0
   37.1060   25.9710   32.7560 H   0  0  0  0  0  0  0  0  0  0  0  0
   39.5630   22.3670   35.9660 C   0  0  0  0  0  0  0  0  0  0  0  0
   39.8890   22.8930   34.7000 C   0  0  0  0  0  0  0  0  0  0  0  0
   41.2390   22.9770   34.3250 C   0  0  0  0  0  0  0  0  0  0  0  0
   42.1660   22.5440   35.2100 N   0  0  0  0  0  0  0  0  0  0  0  0
   41.8610   22.0520   36.3970 C   0  0  0  0  0  0  0  0  0  0  0  0
   40.5700   21.9630   36.7720 N   0  0  0  0  0  0  0  0  0  0  0  0
   41.4610   23.3790   33.3620 H   0  0  0  0  0  0  0  0  0  0  0  0
   42.5880   21.6950   37.1310 H   0  0  0  0  0  0  0  0  0  0  0  0
   37.3590   23.1160   37.1360 C   0  0  0  0  0  0  0  0  0  0  0  0
   37.7000   24.2930   37.4240 O   0  0  0  0  0  0  0  0  0  0  0  0
   38.2400   22.2240   36.4390 N   0  0  0  0  0  0  0  0  0  0  0  0
   36.3690   22.8340   37.4500 H   0  0  0  0  0  0  0  0  0  0  0  0
   37.7530   21.2960   36.2710 H   0  0  0  0  0  0  0  0  0  0  0  0
   35.3760   18.0350   30.8000 H   0  0  0  0  0  0  0  0  0  0  0  0
   35.6020   19.0540   30.8940 N   0  0  0  0  0  0  0  0  0  0  0  0
   37.0220   19.2480   30.8910 C   0  0  0  0  0  2  0  0  0  0  0  0
   37.2570   20.7510   30.7590 C   0  0  0  0  0  2  0  0  0  0  0  0
   36.4000   21.5370   31.7030 C   0  0  0  0  0  3  0  0  0  0  0  0
   35.6830   20.7000   32.7340 C   0  0  0  0  0  2  0  0  0  0  0  0
   35.0260   19.4890   32.1460 C   0  0  0  0  0  2  0  0  0  0  0  0
  1 12  1  0  0  0  0
  2  1  1  0  0  0  0
  2  9  1  0  0  0  0
  3  2  2  0  0  0  0
  4  6  1  0  0  0  0
  4  3  1  0  0  0  0
  5  4  2  0  0  0  0
  6  7  1  0  0  0  0
  7  8  2  0  0  0  0
  7  1  1  0  0  0  0
 10  3  1  0  0  0  0
 11 21  1  0  0  0  0
 11 16  1  0  0  0  0
 12 11  2  0  0  0  0
 13 12  1  0  0  0  0
 13 14  2  0  0  0  0
 14 15  1  0  0  0  0
 15 16  2  0  0  0  0
 15 18  1  0  0  0  0
 17 13  1  0  0  0  0
 19 20  2  0  0  0  0
 19 22  1  0  0  0  0
 21 19  1  0  0  0  0
 23 21  1  0  0  0  0
 24 25  1  0  0  0  0
 25 30  1  0  0  0  0
 26 25  1  0  0  0  0
 27 26  1  0  0  0  0
 27 28  1  0  0  0  0
 28  6  1  0  0  0  0
 28 29  1  0  0  0  0
 30 29  1  0  0  0  0
M  END
>  <minimizedAffinity>
-5.16435337

$$$$

 OpenBabel03272507533D

 30 32  0  0  0  0  0  0  0  0999 V2000
   37.5540   25.0190   32.7970 N   0  0  0  0  0  0  0  0  0  0  0  0
   37.2230   23.8710   32.2140 C   0  0  0  0  0  0  0  0  0  0  0  0
   37.3340   22.6660   32.9040 C   0  0  0  0  0  0  0  0  0  0  0  0
   37.7970   22.7970   34.1760 C   0  0  0  0  0  0  0  0  0  0  0  0
   37.9110   21.7130   34.8350 O   0  0  0  0  0  0  0  0  0  0  0  0
   38.1410   23.9150   34.8050 N   0  0  0  0  0  0  0  0  0  0  0  0
   38.0100   25.0550   34.0820 C   0  0  0  0  0  0  0  0  0  0  0  0
   38.3320   26.1490   34.6590 O   0  0  0  0  0  0  0  0  0  0  0  0
   36.8650   23.8940   31.1910 H   0  0  0  0  0  0  0  0  0  0  0  0
   37.0740   21.7320   32.4530 H   0  0  0  0  0  0  0  0  0  0  0  0
   38.6510   26.8370   31.6150 C   0  0  0  0  0  0  0  0  0  0  0  0
   37.4610   26.2860   32.1310 C   0  0  0  0  0  0  0  0  0  0  0  0
   36.2590   26.9940   31.9720 C   0  0  0  0  0  0  0  0  0  0  0  0
   36.3080   28.1820   31.3250 N   0  0  0  0  0  0  0  0  0  0  0  0
   37.4240   28.6980   30.8420 C   0  0  0  0  0  0  0  0  0  0  0  0
   38.5860   28.0310   30.9850 N   0  0  0  0  0  0  0  0  0  0  0  0
   35.3710   26.5570   32.3720 H   0  0  0  0  0  0  0  0  0  0  0  0
   37.4930   29.6530   30.3160 H   0  0  0  0  0  0  0  0  0  0  0  0
   41.0920   26.5070   32.4630 C   0  0  0  0  0  0  0  0  0  0  0  0
   41.1410   27.4830   33.2550 O   0  0  0  0  0  0  0  0  0  0  0  0
   39.9110   26.2060   31.7070 N   0  0  0  0  0  0  0  0  0  0  0  0
   41.9940   25.9230   32.3970 H   0  0  0  0  0  0  0  0  0  0  0  0
   40.0690   25.3320   31.1250 H   0  0  0  0  0  0  0  0  0  0  0  0
   39.4450   22.8450   39.6580 H   0  0  0  0  0  0  0  0  0  0  0  0
   39.2230   23.3210   38.7510 N   0  0  0  0  0  0  0  0  0  0  0  0
   37.8660   23.0580   38.3720 C   0  0  0  0  0  2  0  0  0  0  0  0
   37.5490   23.9920   37.2070 C   0  0  0  0  0  2  0  0  0  0  0  0
   38.6280   23.9780   36.1680 C   0  0  0  0  0  3  0  0  0  0  0  0
   39.6580   22.8910   36.3580 C   0  0  0  0  0  2  0  0  0  0  0  0
   40.1430   22.7890   37.7720 C   0  0  0  0  0  2  0  0  0  0  0  0
  1  7  1  0  0  0  0
  2  1  1  0  0  0  0
  2  3  2  0  0  0  0
  3  4  1  0  0  0  0
  4  6  1  0  0  0  0
  4  5  2  0  0  0  0
  6 28  1  0  0  0  0
  7  8  2  0  0  0  0
  7  6  1  0  0  0  0
  9  2  1  0  0  0  0
 10  3  1  0  0  0  0
 11 21  1  0  0  0  0
 11 12  1  0  0  0  0
 12  1  1  0  0  0  0
 13 12  2  0  0  0  0
 13 17  1  0  0  0  0
 14 13  1  0  0  0  0
 15 16  1  0  0  0  0
 15 14  2  0  0  0  0
 16 11  2  0  0  0  0
 18 15  1  0  0  0  0
 19 20  2  0  0  0  0
 21 19  1  0  0  0  0
 22 19  1  0  0  0  0
 23 21  1  0  0  0  0
 25 24  1  0  0  0  0
 26 25  1  0  0  0  0
 27 26  1  0  0  0  0
 28 29  1  0  0  0  0
 28 27  1  0  0  0  0
 29 30  1  0  0  0  0
 30 25  1  0  0  0  0
M  END
>  <minimizedAffinity>
-5.15818834

$$$$

 OpenBabel03272507533D

 30 32  0  0  0  0  0  0  0  0999 V2000
   36.3030   28.4090   32.2870 N   0  0  0  0  0  0  0  0  0  0  0  0
   36.4620   29.2920   31.3060 C   0  0  0  0  0  0  0  0  0  0  0  0
   36.2380   30.6490   31.5280 C   0  0  0  0  0  0  0  0  0  0  0  0
   35.8570   30.9460   32.7990 C   0  0  0  0  0  0  0  0  0  0  0  0
   35.6430   32.1800   33.0360 O   0  0  0  0  0  0  0  0  0  0  0  0
   35.6830   30.1070   33.8140 N   0  0  0  0  0  0  0  0  0  0  0  0
   35.9170   28.8000   33.5350 C   0  0  0  0  0  0  0  0  0  0  0  0
   35.7590   27.9660   34.4900 O   0  0  0  0  0  0  0  0  0  0  0  0
   36.7710   28.9330   30.3310 H   0  0  0  0  0  0  0  0  0  0  0  0
   36.3600   31.3760   30.7530 H   0  0  0  0  0  0  0  0  0  0  0  0
   37.7110   26.4580   32.6280 C   0  0  0  0  0  0  0  0  0  0  0  0
   36.5170   27.0020   32.1110 C   0  0  0  0  0  0  0  0  0  0  0  0
   35.6100   26.1530   31.4570 C   0  0  0  0  0  0  0  0  0  0  0  0
   35.9330   24.8430   31.3570 N   0  0  0  0  0  0  0  0  0  0  0  0
   37.0520   24.3340   31.8410 C   0  0  0  0  0  0  0  0  0  0  0  0
   37.9320   25.1340   32.4710 N   0  0  0  0  0  0  0  0  0  0  0  0
   34.7140   26.5890   31.0740 H   0  0  0  0  0  0  0  0  0  0  0  0
   37.3370   23.2810   31.7740 H   0  0  0  0  0  0  0  0  0  0  0  0
   39.1790   27.1680   34.6590 C   0  0  0  0  0  0  0  0  0  0  0  0
   38.7640   26.3170   35.4870 O   0  0  0  0  0  0  0  0  0  0  0  0
   38.6850   27.2150   33.3130 N   0  0  0  0  0  0  0  0  0  0  0  0
   39.9240   27.8490   35.0330 H   0  0  0  0  0  0  0  0  0  0  0  0
   39.1820   27.9840   32.7740 H   0  0  0  0  0  0  0  0  0  0  0  0
   33.8820   32.6430   37.9030 H   0  0  0  0  0  0  0  0  0  0  0  0
   34.3510   31.9580   37.2620 N   0  0  0  0  0  0  0  0  0  0  0  0
   35.3550   32.6180   36.4820 C   0  0  0  0  0  2  0  0  0  0  0  0
   36.1590   31.5220   35.7870 C   0  0  0  0  0  2  0  0  0  0  0  0
   35.2740   30.4980   35.1480 C   0  0  0  0  0  3  0  0  0  0  0  0
   33.8130   30.8780   35.1060 C   0  0  0  0  0  2  0  0  0  0  0  0
   33.3150   31.4140   36.4140 C   0  0  0  0  0  2  0  0  0  0  0  0
  1  7  1  0  0  0  0
  2  3  2  0  0  0  0
  2  1  1  0  0  0  0
  3  4  1  0  0  0  0
  4  5  2  0  0  0  0
  4  6  1  0  0  0  0
  6 28  1  0  0  0  0
  7  6  1  0  0  0  0
  7  8  2  0  0  0  0
  9  2  1  0  0  0  0
 10  3  1  0  0  0  0
 11 21  1  0  0  0  0
 12  1  1  0  0  0  0
 12 11  2  0  0  0  0
 13 12  1  0  0  0  0
 14 13  2  0  0  0  0
 14 15  1  0  0  0  0
 15 16  2  0  0  0  0
 16 11  1  0  0  0  0
 17 13  1  0  0  0  0
 18 15  1  0  0  0  0
 19 22  1  0  0  0  0
 19 20  2  0  0  0  0
 21 19  1  0  0  0  0
 23 21  1  0  0  0  0
 25 24  1  0  0  0  0
 26 25  1  0  0  0  0
 27 26  1  0  0  0  0
 28 27  1  0  0  0  0
 29 28  1  0  0  0  0
 29 30  1  0  0  0  0
 30 25  1  0  0  0  0
M  END
>  <minimizedAffinity>
-5.10797834

$$$$

 OpenBabel03272507533D

 30 32  0  0  0  0  0  0  0  0999 V2000
   37.8520   24.8820   32.3920 N   0  0  0  0  0  0  0  0  0  0  0  0
   39.1010   24.5820   32.7330 C   0  0  0  0  0  0  0  0  0  0  0  0
   39.5020   23.2550   32.8660 C   0  0  0  0  0  0  0  0  0  0  0  0
   38.5170   22.3510   32.6170 C   0  0  0  0  0  0  0  0  0  0  0  0
   38.8510   21.1260   32.7300 O   0  0  0  0  0  0  0  0  0  0  0  0
   37.2570   22.5950   32.2740 N   0  0  0  0  0  0  0  0  0  0  0  0
   36.9280   23.9060   32.1610 C   0  0  0  0  0  0  0  0  0  0  0  0
   35.7230   24.1760   31.8310 O   0  0  0  0  0  0  0  0  0  0  0  0
   39.8000   25.3930   32.9060 H   0  0  0  0  0  0  0  0  0  0  0  0
   40.5020   22.9920   33.1400 H   0  0  0  0  0  0  0  0  0  0  0  0
   37.0320   26.9260   33.4190 C   0  0  0  0  0  0  0  0  0  0  0  0
   37.3870   26.2310   32.2450 C   0  0  0  0  0  0  0  0  0  0  0  0
   37.2690   26.8820   31.0070 C   0  0  0  0  0  0  0  0  0  0  0  0
   36.8150   28.1570   31.0060 N   0  0  0  0  0  0  0  0  0  0  0  0
   36.4820   28.8080   32.1060 C   0  0  0  0  0  0  0  0  0  0  0  0
   36.5900   28.1980   33.3020 N   0  0  0  0  0  0  0  0  0  0  0  0
   37.5430   26.3350   30.1330 H   0  0  0  0  0  0  0  0  0  0  0  0
   36.1130   29.8360   32.1340 H   0  0  0  0  0  0  0  0  0  0  0  0
   38.0830   26.5330   35.7700 C   0  0  0  0  0  0  0  0  0  0  0  0
   39.0710   27.3030   35.6560 O   0  0  0  0  0  0  0  0  0  0  0  0
   37.1240   26.3740   34.7150 N   0  0  0  0  0  0  0  0  0  0  0  0
   38.0140   26.0080   36.7070 H   0  0  0  0  0  0  0  0  0  0  0  0
   36.3580   25.7050   35.0220 H   0  0  0  0  0  0  0  0  0  0  0  0
   34.7370   18.1510   31.7290 H   0  0  0  0  0  0  0  0  0  0  0  0
   35.0330   19.1570   31.7050 N   0  0  0  0  0  0  0  0  0  0  0  0
   36.2680   19.2920   30.9910 C   0  0  0  0  0  2  0  0  0  0  0  0
   36.4840   20.7880   30.7710 C   0  0  0  0  0  2  0  0  0  0  0  0
   36.2580   21.5770   32.0240 C   0  0  0  0  0  3  0  0  0  0  0  0
   36.1120   20.7350   33.2690 C   0  0  0  0  0  2  0  0  0  0  0  0
   35.1850   19.5730   33.0800 C   0  0  0  0  0  2  0  0  0  0  0  0
  1  2  1  0  0  0  0
  2  3  2  0  0  0  0
  2  9  1  0  0  0  0
  3 10  1  0  0  0  0
  4  5  2  0  0  0  0
  4  3  1  0  0  0  0
  6  4  1  0  0  0  0
  7  6  1  0  0  0  0
  7  1  1  0  0  0  0
  8  7  2  0  0  0  0
 11 21  1  0  0  0  0
 12  1  1  0  0  0  0
 12 11  2  0  0  0  0
 13 12  1  0  0  0  0
 14 13  2  0  0  0  0
 14 15  1  0  0  0  0
 15 18  1  0  0  0  0
 15 16  2  0  0  0  0
 16 11  1  0  0  0  0
 17 13  1  0  0  0  0
 19 22  1  0  0  0  0
 20 19  2  0  0  0  0
 21 23  1  0  0  0  0
 21 19  1  0  0  0  0
 25 24  1  0  0  0  0
 25 30  1  0  0  0  0
 26 25  1  0  0  0  0
 27 26  1  0  0  0  0
 27 28  1  0  0  0  0
 28  6  1  0  0  0  0
 28 29  1  0  0  0  0
 30 29  1  0  0  0  0
M  END
>  <minimizedAffinity>
-5.04075956

$$$$

 OpenBabel03272507533D

 30 32  0  0  0  0  0  0  0  0999 V2000
   38.4300   22.5220   32.4210 N   0  0  0  0  0  0  0  0  0  0  0  0
   39.0900   23.5870   31.9780 C   0  0  0  0  0  0  0  0  0  0  0  0
   39.6510   24.4970   32.8710 C   0  0  0  0  0  0  0  0  0  0  0  0
   39.4530   24.1830   34.1790 C   0  0  0  0  0  0  0  0  0  0  0  0
   39.9540   24.9960   35.0240 O   0  0  0  0  0  0  0  0  0  0  0  0
   38.8030   23.1350   34.6750 N   0  0  0  0  0  0  0  0  0  0  0  0
   38.2810   22.2860   33.7560 C   0  0  0  0  0  0  0  0  0  0  0  0
   37.6500   21.2670   34.2000 O   0  0  0  0  0  0  0  0  0  0  0  0
   39.1830   23.7320   30.9080 H   0  0  0  0  0  0  0  0  0  0  0  0
   40.1860   25.3610   32.5360 H   0  0  0  0  0  0  0  0  0  0  0  0
   36.4450   21.6630   31.3130 C   0  0  0  0  0  0  0  0  0  0  0  0
   37.8310   21.5570   31.5450 C   0  0  0  0  0  0  0  0  0  0  0  0
   38.5490   20.5260   30.9180 C   0  0  0  0  0  0  0  0  0  0  0  0
   37.8630   19.6800   30.1150 N   0  0  0  0  0  0  0  0  0  0  0  0
   36.5640   19.7790   29.8980 C   0  0  0  0  0  0  0  0  0  0  0  0
   35.8610   20.7630   30.4910 N   0  0  0  0  0  0  0  0  0  0  0  0
   39.5970   20.4660   31.1090 H   0  0  0  0  0  0  0  0  0  0  0  0
   35.9860   19.1100   29.2550 H   0  0  0  0  0  0  0  0  0  0  0  0
   35.4440   24.0550   31.5690 C   0  0  0  0  0  0  0  0  0  0  0  0
   36.0490   24.6050   30.6130 O   0  0  0  0  0  0  0  0  0  0  0  0
   35.6300   22.6670   31.8800 N   0  0  0  0  0  0  0  0  0  0  0  0
   34.7870   24.6970   32.1290 H   0  0  0  0  0  0  0  0  0  0  0  0
   35.0110   22.3960   32.7000 H   0  0  0  0  0  0  0  0  0  0  0  0
   38.9990   23.2640   39.8080 H   0  0  0  0  0  0  0  0  0  0  0  0
   38.8550   22.9880   38.8070 N   0  0  0  0  0  0  0  0  0  0  0  0
   40.1080   22.9740   38.1110 C   0  0  0  0  0  2  0  0  0  0  0  0
   39.8510   22.3110   36.7600 C   0  0  0  0  0  2  0  0  0  0  0  0
   38.6320   22.8640   36.0880 C   0  0  0  0  0  3  0  0  0  0  0  0
   38.0670   24.0990   36.7460 C   0  0  0  0  0  2  0  0  0  0  0  0
   37.9600   23.9680   38.2350 C   0  0  0  0  0  2  0  0  0  0  0  0
  1  7  1  0  0  0  0
  2  1  1  0  0  0  0
  2  3  2  0  0  0  0
  3  4  1  0  0  0  0
  4  6  1  0  0  0  0
  4  5  2  0  0  0  0
  6 28  1  0  0  0  0
  7  8  2  0  0  0  0
  7  6  1  0  0  0  0
  9  2  1  0  0  0  0
 10  3  1  0  0  0  0
 11 12  1  0  0  0  0
 11 21  1  0  0  0  0
 12  1  1  0  0  0  0
 13 17  1  0  0  0  0
 13 12  2  0  0  0  0
 14 13  1  0  0  0  0
 15 14  2  0  0  0  0
 15 16  1  0  0  0  0
 16 11  2  0  0  0  0
 18 15  1  0  0  0  0
 19 21  1  0  0  0  0
 19 22  1  0  0  0  0
 20 19  2  0  0  0  0
 21 23  1  0  0  0  0
 25 24  1  0  0  0  0
 26 25  1  0  0  0  0
 27 26  1  0  0  0  0
 28 29  1  0  0  0  0
 28 27  1  0  0  0  0
 29 30  1  0  0  0  0
 30 25  1  0  0  0  0
M  END
>  <minimizedAffinity>
-4.98181963

$$$$
