
 OpenBabel03272510253D

 30 33  0  0  0  0  0  0  0  0999 V2000
   35.9500   28.9190   32.8270 C   0  0  0  0  0  0  0  0  0  0  0  0
   36.0480   29.2680   34.1700 C   0  0  0  0  0  0  0  0  0  0  0  0
   36.6450   28.4120   35.0870 C   0  0  0  0  0  0  0  0  0  0  0  0
   37.1290   27.2060   34.5790 C   0  0  0  0  0  0  0  0  0  0  0  0
   37.7540   26.2070   35.2840 N   0  0  0  0  0  0  0  0  0  0  0  0
   38.0390   25.2520   34.3870 C   0  0  0  0  0  0  0  0  0  0  0  0
   37.6280   25.6030   33.1720 N   0  0  0  0  0  0  0  0  0  0  0  0
   37.0550   26.8210   33.2630 C   0  0  0  0  0  0  0  0  0  0  0  0
   36.4490   27.7050   32.3720 C   0  0  0  0  0  0  0  0  0  0  0  0
   35.4870   29.5760   32.1030 H   0  0  0  0  0  0  0  0  0  0  0  0
   36.7200   28.6810   36.1230 H   0  0  0  0  0  0  0  0  0  0  0  0
   37.9570   26.2170   36.3280 H   0  0  0  0  0  0  0  0  0  0  0  0
   36.3890   27.4050   31.3350 H   0  0  0  0  0  0  0  0  0  0  0  0
   35.3070   32.4960   35.9630 C   0  0  0  0  0  0  0  0  0  0  0  0
   35.8940   31.2730   35.6730 C   0  0  0  0  0  0  0  0  0  0  0  0
   35.5020   30.5520   34.5660 C   0  0  0  0  0  0  0  0  0  0  0  0
   34.5260   31.0990   33.7880 N   0  0  0  0  0  0  0  0  0  0  0  0
   33.9610   32.2960   34.0850 C   0  0  0  0  0  0  0  0  0  0  0  0
   34.3510   32.9780   35.1560 N   0  0  0  0  0  0  0  0  0  0  0  0
   35.6210   33.0560   36.8350 H   0  0  0  0  0  0  0  0  0  0  0  0
   36.6690   30.8490   36.2990 H   0  0  0  0  0  0  0  0  0  0  0  0
   33.1780   32.7260   33.4540 H   0  0  0  0  0  0  0  0  0  0  0  0
   38.6870   24.0790   34.7790 O   0  0  0  0  0  0  0  0  0  0  0  0
   41.2870   21.7070   38.3630 H   0  0  0  0  0  0  0  0  0  0  0  0
   40.4520   21.8300   37.7750 N   0  0  0  0  0  0  0  0  0  0  0  0
   39.6130   22.9350   38.1870 C   0  0  0  0  0  2  0  0  0  0  0  0
   38.6380   23.2530   37.0510 C   0  0  0  0  0  2  0  0  0  0  0  0
   39.4200   23.9620   35.9780 C   0  0  0  0  0  3  0  0  0  0  0  0
   40.7280   23.2630   35.7990 C   0  0  0  0  0  2  0  0  0  0  0  0
   40.7350   21.8510   36.3590 C   0  0  0  0  0  2  0  0  0  0  0  0
  1  2  1  0  0  0  0
  2 16  1  0  0  0  0
  2  3  2  0  0  0  0
  3 11  1  0  0  0  0
  4  3  1  0  0  0  0
  4  5  1  0  0  0  0
  5 12  1  0  0  0  0
  6 23  1  0  0  0  0
  6  5  1  0  0  0  0
  7  8  1  0  0  0  0
  7  6  2  0  0  0  0
  8  4  2  0  0  0  0
  9  1  2  0  0  0  0
  9  8  1  0  0  0  0
 10  1  1  0  0  0  0
 13  9  1  0  0  0  0
 14 20  1  0  0  0  0
 15 14  1  0  0  0  0
 15 21  1  0  0  0  0
 16 15  2  0  0  0  0
 17 18  2  0  0  0  0
 17 16  1  0  0  0  0
 18 19  1  0  0  0  0
 19 14  2  0  0  0  0
 22 18  1  0  0  0  0
 23 28  1  0  0  0  0
 25 26  1  0  0  0  0
 25 24  1  0  0  0  0
 27 26  1  0  0  0  0
 28 27  1  0  0  0  0
 29 28  1  0  0  0  0
 29 30  1  0  0  0  0
 30 25  1  0  0  0  0
M  END
>  <minimizedAffinity>
-5.65583467

$$$$

 OpenBabel03272510253D

 30 33  0  0  0  0  0  0  0  0999 V2000
   36.4120   27.9360   32.6470 C   0  0  0  0  0  0  0  0  0  0  0  0
   36.2800   28.4710   33.9240 C   0  0  0  0  0  0  0  0  0  0  0  0
   37.1110   28.0580   34.9590 C   0  0  0  0  0  0  0  0  0  0  0  0
   38.0650   27.0930   34.6340 C   0  0  0  0  0  0  0  0  0  0  0  0
   38.9910   26.5340   35.4800 N   0  0  0  0  0  0  0  0  0  0  0  0
   39.6860   25.6630   34.7340 C   0  0  0  0  0  0  0  0  0  0  0  0
   39.2440   25.6520   33.4790 N   0  0  0  0  0  0  0  0  0  0  0  0
   38.2310   26.5380   33.3890 C   0  0  0  0  0  0  0  0  0  0  0  0
   37.3790   26.9750   32.3760 C   0  0  0  0  0  0  0  0  0  0  0  0
   35.7710   28.2470   31.8330 H   0  0  0  0  0  0  0  0  0  0  0  0
   37.0090   28.4710   35.9440 H   0  0  0  0  0  0  0  0  0  0  0  0
   39.1090   26.7640   36.5120 H   0  0  0  0  0  0  0  0  0  0  0  0
   37.5060   26.5410   31.3950 H   0  0  0  0  0  0  0  0  0  0  0  0
   34.2960   31.4540   35.0850 C   0  0  0  0  0  0  0  0  0  0  0  0
   35.3460   30.5560   34.9650 C   0  0  0  0  0  0  0  0  0  0  0  0
   35.2460   29.4680   34.1250 C   0  0  0  0  0  0  0  0  0  0  0  0
   34.0810   29.3290   33.4330 N   0  0  0  0  0  0  0  0  0  0  0  0
   33.0630   30.2150   33.5610 C   0  0  0  0  0  0  0  0  0  0  0  0
   33.1750   31.2580   34.3760 N   0  0  0  0  0  0  0  0  0  0  0  0
   34.3830   32.3060   35.7480 H   0  0  0  0  0  0  0  0  0  0  0  0
   36.2670   30.6770   35.5210 H   0  0  0  0  0  0  0  0  0  0  0  0
   32.1310   30.0950   33.0010 H   0  0  0  0  0  0  0  0  0  0  0  0
   40.7210   24.9130   35.2960 O   0  0  0  0  0  0  0  0  0  0  0  0
   40.0980   20.8700   38.2100 H   0  0  0  0  0  0  0  0  0  0  0  0
   40.5740   21.7470   37.9600 N   0  0  0  0  0  0  0  0  0  0  0  0
   41.4690   21.6160   36.8300 C   0  0  0  0  0  2  0  0  0  0  0  0
   41.8170   23.0180   36.3240 C   0  0  0  0  0  2  0  0  0  0  0  0
   40.6110   23.5370   35.5880 C   0  0  0  0  0  3  0  0  0  0  0  0
   39.3880   23.2030   36.3780 C   0  0  0  0  0  2  0  0  0  0  0  0
   39.6840   22.8760   37.8310 C   0  0  0  0  0  2  0  0  0  0  0  0
  1  2  1  0  0  0  0
  2 16  1  0  0  0  0
  2  3  2  0  0  0  0
  3 11  1  0  0  0  0
  4  3  1  0  0  0  0
  4  5  1  0  0  0  0
  5 12  1  0  0  0  0
  6 23  1  0  0  0  0
  6  5  1  0  0  0  0
  7  6  2  0  0  0  0
  8  7  1  0  0  0  0
  8  4  2  0  0  0  0
  9  1  2  0  0  0  0
  9  8  1  0  0  0  0
 10  1  1  0  0  0  0
 13  9  1  0  0  0  0
 14 20  1  0  0  0  0
 15 14  1  0  0  0  0
 15 21  1  0  0  0  0
 16 15  2  0  0  0  0
 17 18  2  0  0  0  0
 17 16  1  0  0  0  0
 18 19  1  0  0  0  0
 19 14  2  0  0  0  0
 22 18  1  0  0  0  0
 23 28  1  0  0  0  0
 25 24  1  0  0  0  0
 26 25  1  0  0  0  0
 27 26  1  0  0  0  0
 28 27  1  0  0  0  0
 28 29  1  0  0  0  0
 29 30  1  0  0  0  0
 30 25  1  0  0  0  0
M  END
>  <minimizedAffinity>
-5.60027409

$$$$

 OpenBabel03272510253D

 30 33  0  0  0  0  0  0  0  0999 V2000
   36.4460   29.0470   32.4620 C   0  0  0  0  0  0  0  0  0  0  0  0
   37.2730   28.6410   31.4200 C   0  0  0  0  0  0  0  0  0  0  0  0
   38.0000   27.4600   31.5070 C   0  0  0  0  0  0  0  0  0  0  0  0
   37.8460   26.7270   32.6840 C   0  0  0  0  0  0  0  0  0  0  0  0
   38.4550   25.5380   32.9990 N   0  0  0  0  0  0  0  0  0  0  0  0
   38.0100   25.2130   34.2210 C   0  0  0  0  0  0  0  0  0  0  0  0
   37.1630   26.1320   34.6780 N   0  0  0  0  0  0  0  0  0  0  0  0
   37.0420   27.0890   33.7360 C   0  0  0  0  0  0  0  0  0  0  0  0
   36.3280   28.2800   33.6140 C   0  0  0  0  0  0  0  0  0  0  0  0
   35.8750   29.9650   32.4080 H   0  0  0  0  0  0  0  0  0  0  0  0
   38.6380   27.1470   30.7020 H   0  0  0  0  0  0  0  0  0  0  0  0
   39.1370   25.0060   32.3790 H   0  0  0  0  0  0  0  0  0  0  0  0
   35.6930   28.5690   34.4410 H   0  0  0  0  0  0  0  0  0  0  0  0
   36.9920   31.5290   29.0190 C   0  0  0  0  0  0  0  0  0  0  0  0
   36.8770   30.7930   30.1880 C   0  0  0  0  0  0  0  0  0  0  0  0
   37.3420   29.4970   30.2510 C   0  0  0  0  0  0  0  0  0  0  0  0
   37.9100   28.9910   29.1210 N   0  0  0  0  0  0  0  0  0  0  0  0
   38.0150   29.7230   27.9840 C   0  0  0  0  0  0  0  0  0  0  0  0
   37.5620   30.9700   27.9410 N   0  0  0  0  0  0  0  0  0  0  0  0
   36.6240   32.5460   28.9780 H   0  0  0  0  0  0  0  0  0  0  0  0
   36.4230   31.2060   31.0800 H   0  0  0  0  0  0  0  0  0  0  0  0
   38.4730   29.3070   27.0810 H   0  0  0  0  0  0  0  0  0  0  0  0
   38.4400   24.0410   34.8470 O   0  0  0  0  0  0  0  0  0  0  0  0
   40.9890   22.0040   38.6660 H   0  0  0  0  0  0  0  0  0  0  0  0
   40.1740   22.0560   38.0400 N   0  0  0  0  0  0  0  0  0  0  0  0
   39.2740   23.1450   38.3520 C   0  0  0  0  0  2  0  0  0  0  0  0
   38.3330   23.3510   37.1630 C   0  0  0  0  0  2  0  0  0  0  0  0
   39.1280   24.0290   36.0780 C   0  0  0  0  0  3  0  0  0  0  0  0
   40.4700   23.3780   35.9930 C   0  0  0  0  0  2  0  0  0  0  0  0
   40.5130   22.0040   36.6380 C   0  0  0  0  0  2  0  0  0  0  0  0
  1  9  1  0  0  0  0
  2  3  1  0  0  0  0
  2  1  2  0  0  0  0
  3  4  2  0  0  0  0
  4  5  1  0  0  0  0
  4  8  1  0  0  0  0
  5  6  1  0  0  0  0
  6  7  2  0  0  0  0
  6 23  1  0  0  0  0
  8  7  1  0  0  0  0
  9  8  2  0  0  0  0
  9 13  1  0  0  0  0
 10  1  1  0  0  0  0
 11  3  1  0  0  0  0
 12  5  1  0  0  0  0
 14 15  1  0  0  0  0
 15 16  2  0  0  0  0
 15 21  1  0  0  0  0
 16  2  1  0  0  0  0
 17 16  1  0  0  0  0
 18 17  2  0  0  0  0
 19 18  1  0  0  0  0
 19 14  2  0  0  0  0
 20 14  1  0  0  0  0
 22 18  1  0  0  0  0
 23 28  1  0  0  0  0
 25 26  1  0  0  0  0
 25 24  1  0  0  0  0
 27 26  1  0  0  0  0
 28 27  1  0  0  0  0
 29 28  1  0  0  0  0
 29 30  1  0  0  0  0
 30 25  1  0  0  0  0
M  END
>  <minimizedAffinity>
-5.53600836

$$$$

 OpenBabel03272510253D

 30 33  0  0  0  0  0  0  0  0999 V2000
   37.5360   28.3660   30.6770 C   0  0  0  0  0  0  0  0  0  0  0  0
   36.6690   28.8720   31.6400 C   0  0  0  0  0  0  0  0  0  0  0  0
   36.4460   28.1870   32.8290 C   0  0  0  0  0  0  0  0  0  0  0  0
   37.1370   26.9850   32.9850 C   0  0  0  0  0  0  0  0  0  0  0  0
   37.0810   26.1370   34.0640 N   0  0  0  0  0  0  0  0  0  0  0  0
   37.9030   25.1190   33.7710 C   0  0  0  0  0  0  0  0  0  0  0  0
   38.4630   25.2890   32.5760 N   0  0  0  0  0  0  0  0  0  0  0  0
   38.0010   26.4480   32.0630 C   0  0  0  0  0  0  0  0  0  0  0  0
   38.2000   27.1620   30.8820 C   0  0  0  0  0  0  0  0  0  0  0  0
   37.7180   28.8890   29.7480 H   0  0  0  0  0  0  0  0  0  0  0  0
   35.7780   28.5770   33.5720 H   0  0  0  0  0  0  0  0  0  0  0  0
   36.4950   26.2840   34.9400 H   0  0  0  0  0  0  0  0  0  0  0  0
   38.8800   26.7430   30.1540 H   0  0  0  0  0  0  0  0  0  0  0  0
   35.9080   32.3960   30.5530 C   0  0  0  0  0  0  0  0  0  0  0  0
   36.6260   31.2340   30.7910 C   0  0  0  0  0  0  0  0  0  0  0  0
   36.0150   30.1330   31.3510 C   0  0  0  0  0  0  0  0  0  0  0  0
   34.6910   30.2500   31.6520 N   0  0  0  0  0  0  0  0  0  0  0  0
   34.0020   31.3940   31.4140 C   0  0  0  0  0  0  0  0  0  0  0  0
   34.6070   32.4450   30.8730 N   0  0  0  0  0  0  0  0  0  0  0  0
   36.3960   33.2560   30.1120 H   0  0  0  0  0  0  0  0  0  0  0  0
   37.6780   31.1530   30.5470 H   0  0  0  0  0  0  0  0  0  0  0  0
   32.9390   31.4780   31.6600 H   0  0  0  0  0  0  0  0  0  0  0  0
   38.0810   24.0660   34.6700 O   0  0  0  0  0  0  0  0  0  0  0  0
   40.2990   22.6350   38.9440 H   0  0  0  0  0  0  0  0  0  0  0  0
   39.5600   22.5600   38.2330 N   0  0  0  0  0  0  0  0  0  0  0  0
   38.5640   23.6060   38.3220 C   0  0  0  0  0  2  0  0  0  0  0  0
   37.7540   23.6160   37.0240 C   0  0  0  0  0  2  0  0  0  0  0  0
   38.6240   24.2340   35.9610 C   0  0  0  0  0  3  0  0  0  0  0  0
   40.0050   23.6800   36.0930 C   0  0  0  0  0  2  0  0  0  0  0  0
   40.0590   22.3880   36.8890 C   0  0  0  0  0  2  0  0  0  0  0  0
  1  9  2  0  0  0  0
  1  2  1  0  0  0  0
  2  3  2  0  0  0  0
  3  4  1  0  0  0  0
  3 11  1  0  0  0  0
  4  5  1  0  0  0  0
  5 12  1  0  0  0  0
  6  5  1  0  0  0  0
  6 23  1  0  0  0  0
  7  6  2  0  0  0  0
  8  7  1  0  0  0  0
  8  4  2  0  0  0  0
  9  8  1  0  0  0  0
 10  1  1  0  0  0  0
 13  9  1  0  0  0  0
 14 15  2  0  0  0  0
 14 19  1  0  0  0  0
 15 16  1  0  0  0  0
 16  2  1  0  0  0  0
 16 17  2  0  0  0  0
 18 17  1  0  0  0  0
 18 22  1  0  0  0  0
 19 18  2  0  0  0  0
 20 14  1  0  0  0  0
 21 15  1  0  0  0  0
 23 28  1  0  0  0  0
 25 26  1  0  0  0  0
 25 24  1  0  0  0  0
 27 26  1  0  0  0  0
 28 29  1  0  0  0  0
 28 27  1  0  0  0  0
 29 30  1  0  0  0  0
 30 25  1  0  0  0  0
M  END
>  <minimizedAffinity>
-5.44113493

$$$$

 OpenBabel03272510253D

 30 33  0  0  0  0  0  0  0  0999 V2000
   37.5200   27.4760   32.9130 C   0  0  0  0  0  0  0  0  0  0  0  0
   36.5620   27.9420   32.0180 C   0  0  0  0  0  0  0  0  0  0  0  0
   35.7720   27.0560   31.2950 C   0  0  0  0  0  0  0  0  0  0  0  0
   36.0010   25.7000   31.5250 C   0  0  0  0  0  0  0  0  0  0  0  0
   35.3510   24.6440   30.9340 N   0  0  0  0  0  0  0  0  0  0  0  0
   35.9020   23.5390   31.4580 C   0  0  0  0  0  0  0  0  0  0  0  0
   36.8520   23.8510   32.3360 N   0  0  0  0  0  0  0  0  0  0  0  0
   36.9340   25.1960   32.3970 C   0  0  0  0  0  0  0  0  0  0  0  0
   37.7090   26.1130   33.1040 C   0  0  0  0  0  0  0  0  0  0  0  0
   38.1420   28.1550   33.4810 H   0  0  0  0  0  0  0  0  0  0  0  0
   35.0330   27.4160   30.6050 H   0  0  0  0  0  0  0  0  0  0  0  0
   34.5740   24.7180   30.2120 H   0  0  0  0  0  0  0  0  0  0  0  0
   38.4440   25.7200   33.7920 H   0  0  0  0  0  0  0  0  0  0  0  0
   35.7100   31.5740   32.5360 C   0  0  0  0  0  0  0  0  0  0  0  0
   35.7830   30.2080   32.7670 C   0  0  0  0  0  0  0  0  0  0  0  0
   36.4270   29.3790   31.8750 C   0  0  0  0  0  0  0  0  0  0  0  0
   36.9780   29.9670   30.7760 N   0  0  0  0  0  0  0  0  0  0  0  0
   36.8990   31.3030   30.5630 C   0  0  0  0  0  0  0  0  0  0  0  0
   36.2740   32.0880   31.4340 N   0  0  0  0  0  0  0  0  0  0  0  0
   35.2010   32.2180   33.2430 H   0  0  0  0  0  0  0  0  0  0  0  0
   35.3410   29.7530   33.6440 H   0  0  0  0  0  0  0  0  0  0  0  0
   37.3440   31.7650   29.6780 H   0  0  0  0  0  0  0  0  0  0  0  0
   35.4630   22.2720   31.0670 O   0  0  0  0  0  0  0  0  0  0  0  0
   36.4810   17.3650   31.4120 H   0  0  0  0  0  0  0  0  0  0  0  0
   35.8550   18.1520   31.1950 N   0  0  0  0  0  0  0  0  0  0  0  0
   35.3110   18.7990   32.3690 C   0  0  0  0  0  2  0  0  0  0  0  0
   34.7190   20.1460   31.9490 C   0  0  0  0  0  2  0  0  0  0  0  0
   35.8740   21.0810   31.7010 C   0  0  0  0  0  3  0  0  0  0  0  0
   36.9280   20.3450   30.9400 C   0  0  0  0  0  2  0  0  0  0  0  0
   36.4100   19.0940   30.2530 C   0  0  0  0  0  2  0  0  0  0  0  0
  1  9  1  0  0  0  0
  1 10  1  0  0  0  0
  2  1  2  0  0  0  0
  3  4  2  0  0  0  0
  3  2  1  0  0  0  0
  4  8  1  0  0  0  0
  5  6  1  0  0  0  0
  5  4  1  0  0  0  0
  6  7  2  0  0  0  0
  7  8  1  0  0  0  0
  8  9  2  0  0  0  0
  9 13  1  0  0  0  0
 11  3  1  0  0  0  0
 12  5  1  0  0  0  0
 14 15  1  0  0  0  0
 14 20  1  0  0  0  0
 15 21  1  0  0  0  0
 16  2  1  0  0  0  0
 16 15  2  0  0  0  0
 17 16  1  0  0  0  0
 18 17  2  0  0  0  0
 18 19  1  0  0  0  0
 19 14  2  0  0  0  0
 22 18  1  0  0  0  0
 23  6  1  0  0  0  0
 23 28  1  0  0  0  0
 25 24  1  0  0  0  0
 25 26  1  0  0  0  0
 27 26  1  0  0  0  0
 28 27  1  0  0  0  0
 29 28  1  0  0  0  0
 30 29  1  0  0  0  0
 30 25  1  0  0  0  0
M  END
>  <minimizedAffinity>
-5.41539764

$$$$

 OpenBabel03272510253D

 30 33  0  0  0  0  0  0  0  0999 V2000
   37.9710   24.9130   33.8220 C   0  0  0  0  0  0  0  0  0  0  0  0
   37.9740   25.3630   35.1390 C   0  0  0  0  0  0  0  0  0  0  0  0
   37.4400   26.6030   35.4690 C   0  0  0  0  0  0  0  0  0  0  0  0
   36.9140   27.3470   34.4130 C   0  0  0  0  0  0  0  0  0  0  0  0
   36.3370   28.5910   34.4900 N   0  0  0  0  0  0  0  0  0  0  0  0
   35.9830   28.9060   33.2350 C   0  0  0  0  0  0  0  0  0  0  0  0
   36.3070   27.9310   32.3900 N   0  0  0  0  0  0  0  0  0  0  0  0
   36.8900   26.9440   33.1010 C   0  0  0  0  0  0  0  0  0  0  0  0
   37.4340   25.6950   32.8060 C   0  0  0  0  0  0  0  0  0  0  0  0
   38.3830   23.9500   33.5510 H   0  0  0  0  0  0  0  0  0  0  0  0
   37.4430   26.9500   36.4840 H   0  0  0  0  0  0  0  0  0  0  0  0
   36.2120   29.1640   35.3770 H   0  0  0  0  0  0  0  0  0  0  0  0
   37.4170   25.3730   31.7740 H   0  0  0  0  0  0  0  0  0  0  0  0
   38.6800   23.4290   38.2920 C   0  0  0  0  0  0  0  0  0  0  0  0
   38.0490   24.2900   37.4070 C   0  0  0  0  0  0  0  0  0  0  0  0
   38.5530   24.4880   36.1400 C   0  0  0  0  0  0  0  0  0  0  0  0
   39.6840   23.8020   35.8130 N   0  0  0  0  0  0  0  0  0  0  0  0
   40.2910   22.9640   36.6890 C   0  0  0  0  0  0  0  0  0  0  0  0
   39.7910   22.7850   37.9060 N   0  0  0  0  0  0  0  0  0  0  0  0
   38.2780   23.2800   39.2860 H   0  0  0  0  0  0  0  0  0  0  0  0
   37.1510   24.8300   37.6790 H   0  0  0  0  0  0  0  0  0  0  0  0
   41.1980   22.4180   36.4160 H   0  0  0  0  0  0  0  0  0  0  0  0
   35.3600   30.1240   32.9570 O   0  0  0  0  0  0  0  0  0  0  0  0
   30.8610   29.6530   35.1420 H   0  0  0  0  0  0  0  0  0  0  0  0
   31.7120   29.2610   34.7150 N   0  0  0  0  0  0  0  0  0  0  0  0
   31.7380   29.3720   33.2730 C   0  0  0  0  0  2  0  0  0  0  0  0
   33.1690   29.1140   32.7930 C   0  0  0  0  0  2  0  0  0  0  0  0
   33.9760   30.3420   33.1210 C   0  0  0  0  0  3  0  0  0  0  0  0
   33.6140   30.7990   34.4970 C   0  0  0  0  0  2  0  0  0  0  0  0
   32.9350   29.7230   35.3260 C   0  0  0  0  0  2  0  0  0  0  0  0
  1  2  1  0  0  0  0
  2  3  2  0  0  0  0
  2 16  1  0  0  0  0
  3 11  1  0  0  0  0
  4  5  1  0  0  0  0
  4  3  1  0  0  0  0
  5 12  1  0  0  0  0
  6  5  1  0  0  0  0
  7  8  1  0  0  0  0
  7  6  2  0  0  0  0
  8  4  2  0  0  0  0
  9  8  1  0  0  0  0
  9  1  2  0  0  0  0
 10  1  1  0  0  0  0
 13  9  1  0  0  0  0
 14 20  1  0  0  0  0
 15 21  1  0  0  0  0
 15 14  2  0  0  0  0
 16 15  1  0  0  0  0
 17 16  2  0  0  0  0
 17 18  1  0  0  0  0
 18 19  2  0  0  0  0
 19 14  1  0  0  0  0
 22 18  1  0  0  0  0
 23 28  1  0  0  0  0
 23  6  1  0  0  0  0
 25 24  1  0  0  0  0
 25 30  1  0  0  0  0
 26 25  1  0  0  0  0
 27 28  1  0  0  0  0
 27 26  1  0  0  0  0
 28 29  1  0  0  0  0
 29 30  1  0  0  0  0
M  END
>  <minimizedAffinity>
-5.39577055

$$$$

 OpenBabel03272510253D

 30 33  0  0  0  0  0  0  0  0999 V2000
   38.1910   24.5430   33.7150 C   0  0  0  0  0  0  0  0  0  0  0  0
   38.4840   24.8800   35.0330 C   0  0  0  0  0  0  0  0  0  0  0  0
   38.0690   26.0950   35.5660 C   0  0  0  0  0  0  0  0  0  0  0  0
   37.3540   26.9310   34.7090 C   0  0  0  0  0  0  0  0  0  0  0  0
   36.8430   28.1710   35.0050 N   0  0  0  0  0  0  0  0  0  0  0  0
   36.2410   28.5940   33.8840 C   0  0  0  0  0  0  0  0  0  0  0  0
   36.3510   27.6890   32.9150 N   0  0  0  0  0  0  0  0  0  0  0  0
   37.0420   26.6390   33.4040 C   0  0  0  0  0  0  0  0  0  0  0  0
   37.4750   25.4130   32.9020 C   0  0  0  0  0  0  0  0  0  0  0  0
   38.5080   23.6010   33.2870 H   0  0  0  0  0  0  0  0  0  0  0  0
   38.2950   26.3550   36.5820 H   0  0  0  0  0  0  0  0  0  0  0  0
   36.9240   28.6680   35.9420 H   0  0  0  0  0  0  0  0  0  0  0  0
   37.2310   25.1790   31.8750 H   0  0  0  0  0  0  0  0  0  0  0  0
   40.9480   22.2750   36.1830 C   0  0  0  0  0  0  0  0  0  0  0  0
   40.2950   23.1710   35.3500 C   0  0  0  0  0  0  0  0  0  0  0  0
   39.2360   23.9180   35.8150 C   0  0  0  0  0  0  0  0  0  0  0  0
   38.8750   23.7310   37.1160 N   0  0  0  0  0  0  0  0  0  0  0  0
   39.5230   22.8510   37.9190 C   0  0  0  0  0  0  0  0  0  0  0  0
   40.5420   22.1390   37.4530 N   0  0  0  0  0  0  0  0  0  0  0  0
   41.7800   21.6920   35.8080 H   0  0  0  0  0  0  0  0  0  0  0  0
   40.5910   23.3100   34.3180 H   0  0  0  0  0  0  0  0  0  0  0  0
   39.2250   22.7080   38.9620 H   0  0  0  0  0  0  0  0  0  0  0  0
   35.6090   29.8380   33.8420 O   0  0  0  0  0  0  0  0  0  0  0  0
   33.5120   33.5570   36.4890 H   0  0  0  0  0  0  0  0  0  0  0  0
   34.2710   33.1620   35.9180 N   0  0  0  0  0  0  0  0  0  0  0  0
   35.1090   32.2280   36.6390 C   0  0  0  0  0  2  0  0  0  0  0  0
   35.9400   31.4400   35.6240 C   0  0  0  0  0  2  0  0  0  0  0  0
   35.0180   30.4450   34.9700 C   0  0  0  0  0  3  0  0  0  0  0  0
   33.7250   31.1260   34.6590 C   0  0  0  0  0  2  0  0  0  0  0  0
   33.8320   32.6400   34.6460 C   0  0  0  0  0  2  0  0  0  0  0  0
  1  2  1  0  0  0  0
  2  3  2  0  0  0  0
  2 16  1  0  0  0  0
  3 11  1  0  0  0  0
  4  5  1  0  0  0  0
  4  3  1  0  0  0  0
  5 12  1  0  0  0  0
  6  5  1  0  0  0  0
  7  8  1  0  0  0  0
  7  6  2  0  0  0  0
  8  4  2  0  0  0  0
  9  8  1  0  0  0  0
  9  1  2  0  0  0  0
 10  1  1  0  0  0  0
 13  9  1  0  0  0  0
 14 19  1  0  0  0  0
 15 16  1  0  0  0  0
 15 14  2  0  0  0  0
 16 17  2  0  0  0  0
 17 18  1  0  0  0  0
 18 22  1  0  0  0  0
 19 18  2  0  0  0  0
 20 14  1  0  0  0  0
 21 15  1  0  0  0  0
 23  6  1  0  0  0  0
 23 28  1  0  0  0  0
 25 24  1  0  0  0  0
 25 26  1  0  0  0  0
 27 26  1  0  0  0  0
 28 27  1  0  0  0  0
 29 28  1  0  0  0  0
 30 29  1  0  0  0  0
 30 25  1  0  0  0  0
M  END
>  <minimizedAffinity>
-5.301404

$$$$

 OpenBabel03272510253D

 30 33  0  0  0  0  0  0  0  0999 V2000
   35.7440   30.1700   32.8180 C   0  0  0  0  0  0  0  0  0  0  0  0
   35.7450   29.6940   34.1260 C   0  0  0  0  0  0  0  0  0  0  0  0
   36.3590   28.4890   34.4450 C   0  0  0  0  0  0  0  0  0  0  0  0
   36.9610   27.8060   33.3880 C   0  0  0  0  0  0  0  0  0  0  0  0
   37.6250   26.6060   33.4540 N   0  0  0  0  0  0  0  0  0  0  0  0
   38.0290   26.3430   32.2030 C   0  0  0  0  0  0  0  0  0  0  0  0
   37.6530   27.3100   31.3690 N   0  0  0  0  0  0  0  0  0  0  0  0
   36.9850   28.2380   32.0840 C   0  0  0  0  0  0  0  0  0  0  0  0
   36.3580   29.4500   31.8010 C   0  0  0  0  0  0  0  0  0  0  0  0
   35.2690   31.1060   32.5560 H   0  0  0  0  0  0  0  0  0  0  0  0
   36.3600   28.1220   35.4530 H   0  0  0  0  0  0  0  0  0  0  0  0
   37.7720   26.0260   34.3340 H   0  0  0  0  0  0  0  0  0  0  0  0
   36.3740   29.7930   30.7760 H   0  0  0  0  0  0  0  0  0  0  0  0
   34.9670   32.1880   36.8380 C   0  0  0  0  0  0  0  0  0  0  0  0
   35.6940   31.4670   35.9030 C   0  0  0  0  0  0  0  0  0  0  0  0
   35.0820   30.5040   35.1300 C   0  0  0  0  0  0  0  0  0  0  0  0
   33.7490   30.3060   35.3330 N   0  0  0  0  0  0  0  0  0  0  0  0
   33.0520   31.0190   36.2510 C   0  0  0  0  0  0  0  0  0  0  0  0
   33.6580   31.9440   36.9880 N   0  0  0  0  0  0  0  0  0  0  0  0
   35.4560   32.9430   37.4410 H   0  0  0  0  0  0  0  0  0  0  0  0
   36.7530   31.6330   35.7510 H   0  0  0  0  0  0  0  0  0  0  0  0
   31.9820   30.8530   36.4070 H   0  0  0  0  0  0  0  0  0  0  0  0
   38.7440   25.1790   31.9160 O   0  0  0  0  0  0  0  0  0  0  0  0
   34.9340   21.9450   31.4060 H   0  0  0  0  0  0  0  0  0  0  0  0
   35.5000   22.6070   31.9550 N   0  0  0  0  0  0  0  0  0  0  0  0
   36.7740   22.0660   32.3760 C   0  0  0  0  0  2  0  0  0  0  0  0
   37.6620   23.2240   32.8400 C   0  0  0  0  0  2  0  0  0  0  0  0
   38.1290   23.9480   31.6060 C   0  0  0  0  0  3  0  0  0  0  0  0
   36.9740   24.0900   30.6690 C   0  0  0  0  0  2  0  0  0  0  0  0
   35.6270   23.9090   31.3460 C   0  0  0  0  0  2  0  0  0  0  0  0
  1  2  1  0  0  0  0
  2  3  2  0  0  0  0
  2 16  1  0  0  0  0
  3 11  1  0  0  0  0
  4  5  1  0  0  0  0
  4  3  1  0  0  0  0
  5 12  1  0  0  0  0
  6  5  1  0  0  0  0
  7  8  1  0  0  0  0
  7  6  2  0  0  0  0
  8  4  2  0  0  0  0
  9  8  1  0  0  0  0
  9  1  2  0  0  0  0
 10  1  1  0  0  0  0
 13  9  1  0  0  0  0
 14 19  1  0  0  0  0
 14 20  1  0  0  0  0
 15 14  2  0  0  0  0
 16 17  2  0  0  0  0
 16 15  1  0  0  0  0
 17 18  1  0  0  0  0
 18 22  1  0  0  0  0
 18 19  2  0  0  0  0
 21 15  1  0  0  0  0
 23  6  1  0  0  0  0
 24 25  1  0  0  0  0
 25 26  1  0  0  0  0
 26 27  1  0  0  0  0
 28 23  1  0  0  0  0
 28 27  1  0  0  0  0
 29 30  1  0  0  0  0
 29 28  1  0  0  0  0
 30 25  1  0  0  0  0
M  END
>  <minimizedAffinity>
-5.29492474

$$$$

 OpenBabel03272510253D

 30 33  0  0  0  0  0  0  0  0999 V2000
   35.7200   26.4400   31.5570 C   0  0  0  0  0  0  0  0  0  0  0  0
   36.1290   27.5610   32.2730 C   0  0  0  0  0  0  0  0  0  0  0  0
   37.2200   27.4970   33.1330 C   0  0  0  0  0  0  0  0  0  0  0  0
   37.8590   26.2600   33.2240 C   0  0  0  0  0  0  0  0  0  0  0  0
   38.9500   25.9530   34.0000 N   0  0  0  0  0  0  0  0  0  0  0  0
   39.2100   24.6590   33.7670 C   0  0  0  0  0  0  0  0  0  0  0  0
   38.3460   24.1500   32.8930 N   0  0  0  0  0  0  0  0  0  0  0  0
   37.4900   25.1310   32.5370 C   0  0  0  0  0  0  0  0  0  0  0  0
   36.3920   25.2310   31.6850 C   0  0  0  0  0  0  0  0  0  0  0  0
   34.8720   26.4760   30.8850 H   0  0  0  0  0  0  0  0  0  0  0  0
   37.5360   28.3610   33.6850 H   0  0  0  0  0  0  0  0  0  0  0  0
   39.4630   26.6270   34.6460 H   0  0  0  0  0  0  0  0  0  0  0  0
   36.0980   24.3440   31.1420 H   0  0  0  0  0  0  0  0  0  0  0  0
   33.5410   30.2900   32.4580 C   0  0  0  0  0  0  0  0  0  0  0  0
   34.1840   29.0870   32.7080 C   0  0  0  0  0  0  0  0  0  0  0  0
   35.3750   28.7850   32.0850 C   0  0  0  0  0  0  0  0  0  0  0  0
   35.8750   29.7180   31.2260 N   0  0  0  0  0  0  0  0  0  0  0  0
   35.2350   30.8900   30.9910 C   0  0  0  0  0  0  0  0  0  0  0  0
   34.0870   31.1640   31.6010 N   0  0  0  0  0  0  0  0  0  0  0  0
   32.6050   30.5190   32.9520 H   0  0  0  0  0  0  0  0  0  0  0  0
   33.7770   28.3530   33.3920 H   0  0  0  0  0  0  0  0  0  0  0  0
   35.6440   31.6320   30.3000 H   0  0  0  0  0  0  0  0  0  0  0  0
   40.2740   24.0200   34.4070 O   0  0  0  0  0  0  0  0  0  0  0  0
   39.1730   21.9380   38.8430 H   0  0  0  0  0  0  0  0  0  0  0  0
   39.6920   22.6020   38.2530 N   0  0  0  0  0  0  0  0  0  0  0  0
   40.7420   21.9820   37.4740 C   0  0  0  0  0  2  0  0  0  0  0  0
   41.1800   22.9630   36.3850 C   0  0  0  0  0  2  0  0  0  0  0  0
   40.1030   22.9700   35.3320 C   0  0  0  0  0  3  0  0  0  0  0  0
   38.7730   22.9980   36.0110 C   0  0  0  0  0  2  0  0  0  0  0  0
   38.8460   23.4580   37.4560 C   0  0  0  0  0  2  0  0  0  0  0  0
  1  9  2  0  0  0  0
  1  2  1  0  0  0  0
  2  3  2  0  0  0  0
  3  4  1  0  0  0  0
  3 11  1  0  0  0  0
  4  5  1  0  0  0  0
  5 12  1  0  0  0  0
  6  5  1  0  0  0  0
  6 23  1  0  0  0  0
  7  6  2  0  0  0  0
  8  7  1  0  0  0  0
  8  4  2  0  0  0  0
  9  8  1  0  0  0  0
 10  1  1  0  0  0  0
 13  9  1  0  0  0  0
 14 15  1  0  0  0  0
 14 20  1  0  0  0  0
 15 21  1  0  0  0  0
 16  2  1  0  0  0  0
 16 15  2  0  0  0  0
 17 16  1  0  0  0  0
 18 17  2  0  0  0  0
 18 19  1  0  0  0  0
 19 14  2  0  0  0  0
 22 18  1  0  0  0  0
 23 28  1  0  0  0  0
 25 24  1  0  0  0  0
 26 25  1  0  0  0  0
 27 26  1  0  0  0  0
 28 29  1  0  0  0  0
 28 27  1  0  0  0  0
 29 30  1  0  0  0  0
 30 25  1  0  0  0  0
M  END
>  <minimizedAffinity>
-5.21451426

$$$$
