
 OpenBabel03272510123D

 33 36  0  0  0  0  0  0  0  0999 V2000
   33.8570   28.7150   48.4150 C   0  0  0  0  0  0  0  0  0  0  0  0
   34.6620   28.2510   49.4200 C   0  0  0  0  0  0  0  0  0  0  0  0
   35.7860   28.8990   49.8830 C   0  0  0  0  0  0  0  0  0  0  0  0
   36.1610   30.0880   49.3330 C   0  0  0  0  0  0  0  0  0  0  0  0
   35.3410   30.5680   48.3030 C   0  0  0  0  0  0  0  0  0  0  0  0
   34.2500   29.8990   47.8820 N   0  0  0  0  0  0  0  0  0  0  0  0
   34.4340   27.3140   49.9100 H   0  0  0  0  0  0  0  0  0  0  0  0
   36.4190   28.5290   50.6780 H   0  0  0  0  0  0  0  0  0  0  0  0
   35.5140   31.4960   47.7740 H   0  0  0  0  0  0  0  0  0  0  0  0
   31.6300   27.6360   48.7510 C   0  0  0  0  0  0  0  0  0  0  0  0
   32.6960   28.0330   47.9320 C   0  0  0  0  0  0  0  0  0  0  0  0
   32.5980   27.7280   46.6010 C   0  0  0  0  0  0  0  0  0  0  0  0
   31.4910   27.0620   46.1320 N   0  0  0  0  0  0  0  0  0  0  0  0
   30.4870   26.7030   46.9800 C   0  0  0  0  0  0  0  0  0  0  0  0
   30.5500   26.9850   48.2870 N   0  0  0  0  0  0  0  0  0  0  0  0
   31.6610   27.8520   49.7880 H   0  0  0  0  0  0  0  0  0  0  0  0
   33.3750   27.9950   45.8840 H   0  0  0  0  0  0  0  0  0  0  0  0
   29.6910   26.1860   46.4490 H   0  0  0  0  0  0  0  0  0  0  0  0
   37.2560   30.8750   49.6710 O   0  0  0  0  0  0  0  0  0  0  0  0
   38.0860   31.4350   48.7010 C   0  0  0  0  0  0  0  0  0  0  0  0
   38.3480   32.7840   48.9150 C   0  0  0  0  0  0  0  0  0  0  0  0
   39.1790   33.2030   47.8810 C   0  0  0  0  0  0  0  0  0  0  0  0
   39.3900   32.1390   47.0980 N   0  0  0  0  0  0  0  0  0  0  0  0
   38.7480   31.1080   47.5830 N   0  0  0  0  0  0  0  0  0  0  0  0
   38.0680   33.5380   49.6630 H   0  0  0  0  0  0  0  0  0  0  0  0
   39.6130   34.1820   47.6790 H   0  0  0  0  0  0  0  0  0  0  0  0
   39.0690   31.5660   42.4270 H   0  0  0  0  0  0  0  0  0  0  0  0
   39.8780   31.9530   42.9890 N   0  0  0  0  0  0  0  0  0  0  0  0
   40.4530   30.9230   43.7920 C   0  0  0  0  0  2  0  0  0  0  0  0
   39.8820   30.8200   45.1670 C   0  0  0  0  0  2  0  0  0  0  0  0
   40.1950   32.1120   45.9010 C   0  0  0  0  0  3  0  0  0  0  0  0
   40.0270   33.3250   45.0390 C   0  0  0  0  0  2  0  0  0  0  0  0
   39.3610   33.0660   43.7220 C   0  0  0  0  0  2  0  0  0  0  0  0
  1  2  1  0  0  0  0
  2  3  2  0  0  0  0
  2  7  1  0  0  0  0
  3  8  1  0  0  0  0
  4 19  1  0  0  0  0
  4  3  1  0  0  0  0
  5  4  2  0  0  0  0
  6  5  1  0  0  0  0
  6  1  2  0  0  0  0
  9  5  1  0  0  0  0
 10 16  1  0  0  0  0
 11  1  1  0  0  0  0
 11 10  2  0  0  0  0
 12 11  1  0  0  0  0
 13 12  2  0  0  0  0
 13 14  1  0  0  0  0
 14 15  2  0  0  0  0
 15 10  1  0  0  0  0
 17 12  1  0  0  0  0
 18 14  1  0  0  0  0
 20 21  1  0  0  0  0
 20 19  1  0  0  0  0
 21 25  1  0  0  0  0
 22 21  2  0  0  0  0
 23 24  1  0  0  0  0
 23 22  1  0  0  0  0
 24 20  2  0  0  0  0
 26 22  1  0  0  0  0
 27 28  1  0  0  0  0
 28 33  1  0  0  0  0
 28 29  1  0  0  0  0
 29 30  1  0  0  0  0
 30 31  1  0  0  0  0
 31 23  1  0  0  0  0
 32 31  1  0  0  0  0
 33 32  1  0  0  0  0
M  END
>  <minimizedAffinity>
-6.40559626

>  <minimizedRMSD>
1.58896732

$$$$
