
 OpenBabel03272507373D

 21 22  0  0  0  0  0  0  0  0999 V2000
   35.8680   29.1140   49.0000 C   0  0  0  0  0  0  0  0  0  0  0  0
   35.7830   30.0150   47.9430 C   0  0  0  0  0  0  0  0  0  0  0  0
   34.5760   30.1620   47.2910 C   0  0  0  0  0  0  0  0  0  0  0  0
   33.5160   29.4080   47.7200 N   0  0  0  0  0  0  0  0  0  0  0  0
   33.6200   28.5420   48.7460 C   0  0  0  0  0  0  0  0  0  0  0  0
   34.7880   28.4130   49.3630 N   0  0  0  0  0  0  0  0  0  0  0  0
   34.4310   30.8480   46.4530 H   0  0  0  0  0  0  0  0  0  0  0  0
   32.7870   27.9440   49.0910 H   0  0  0  0  0  0  0  0  0  0  0  0
   37.3590   31.8350   48.2540 C   0  0  0  0  0  0  0  0  0  0  0  0
   37.1260   32.3100   49.4100 O   0  0  0  0  0  0  0  0  0  0  0  0
   36.8170   30.8120   47.4540 N   0  0  0  0  0  0  0  0  0  0  0  0
   38.1490   32.5750   48.1840 H   0  0  0  0  0  0  0  0  0  0  0  0
   37.3300   30.8260   46.5480 H   0  0  0  0  0  0  0  0  0  0  0  0
   37.1400   29.0810   49.5500 O   0  0  0  0  0  0  0  0  0  0  0  0
   39.1220   28.3550   54.2030 H   0  0  0  0  0  0  0  0  0  0  0  0
   38.4670   28.3900   53.3800 N   0  0  0  0  0  0  0  0  0  0  0  0
   38.8640   27.4110   52.3920 C   0  0  0  0  0  2  0  0  0  0  0  0
   38.6320   27.8890   50.9830 C   0  0  0  0  0  2  0  0  0  0  0  0
   37.3340   28.6850   50.8890 C   0  0  0  0  0  3  0  0  0  0  0  0
   37.3650   29.8410   51.8340 C   0  0  0  0  0  2  0  0  0  0  0  0
   38.5360   29.7120   52.7950 C   0  0  0  0  0  2  0  0  0  0  0  0
  1  6  1  0  0  0  0
  1 14  1  0  0  0  0
  2  1  2  0  0  0  0
  3  4  2  0  0  0  0
  3  2  1  0  0  0  0
  4  5  1  0  0  0  0
  5  8  1  0  0  0  0
  5  6  2  0  0  0  0
  7  3  1  0  0  0  0
  9 10  2  0  0  0  0
 11  2  1  0  0  0  0
 11  9  1  0  0  0  0
 12  9  1  0  0  0  0
 13 11  1  0  0  0  0
 14 19  1  0  0  0  0
 16 15  1  0  0  0  0
 17 16  1  0  0  0  0
 18 17  1  0  0  0  0
 19 18  1  0  0  0  0
 19 20  1  0  0  0  0
 20 21  1  0  0  0  0
 21 16  1  0  0  0  0
M  END
>  <minimizedAffinity>
-0.825667143

>  <minimizedRMSD>
2.88493776

$$$$
