
 OpenBabel03272507373D

 21 22  0  0  0  0  0  0  0  0999 V2000
   36.8940   30.0420   50.8620 C   0  0  0  0  0  0  0  0  0  0  0  0
   36.3520   29.0160   50.0930 C   0  0  0  0  0  0  0  0  0  0  0  0
   35.7340   27.9610   50.7340 C   0  0  0  0  0  0  0  0  0  0  0  0
   35.6860   27.9780   52.1030 N   0  0  0  0  0  0  0  0  0  0  0  0
   36.2180   28.9810   52.8270 C   0  0  0  0  0  0  0  0  0  0  0  0
   36.8070   29.9880   52.1960 N   0  0  0  0  0  0  0  0  0  0  0  0
   35.2860   27.1200   50.2000 H   0  0  0  0  0  0  0  0  0  0  0  0
   36.1820   29.0010   53.9080 H   0  0  0  0  0  0  0  0  0  0  0  0
   35.2300   29.3160   47.9620 C   0  0  0  0  0  0  0  0  0  0  0  0
   34.0590   29.7300   48.2340 O   0  0  0  0  0  0  0  0  0  0  0  0
   36.3640   28.9340   48.7020 N   0  0  0  0  0  0  0  0  0  0  0  0
   34.9420   29.3950   46.9190 H   0  0  0  0  0  0  0  0  0  0  0  0
   37.0880   28.6270   48.0190 H   0  0  0  0  0  0  0  0  0  0  0  0
   37.4770   31.0240   50.0760 O   0  0  0  0  0  0  0  0  0  0  0  0
   39.2450   35.7560   50.8430 H   0  0  0  0  0  0  0  0  0  0  0  0
   38.9080   34.7690   50.9880 N   0  0  0  0  0  0  0  0  0  0  0  0
   39.8800   33.8360   50.4610 C   0  0  0  0  0  2  0  0  0  0  0  0
   39.2370   32.6200   49.8500 C   0  0  0  0  0  2  0  0  0  0  0  0
   38.0230   32.1830   50.6630 C   0  0  0  0  0  3  0  0  0  0  0  0
   37.0370   33.3000   50.7620 C   0  0  0  0  0  2  0  0  0  0  0  0
   37.6560   34.6020   50.2800 C   0  0  0  0  0  2  0  0  0  0  0  0
  1  6  1  0  0  0  0
  2  3  1  0  0  0  0
  2  1  2  0  0  0  0
  3  4  2  0  0  0  0
  4  5  1  0  0  0  0
  5  8  1  0  0  0  0
  6  5  2  0  0  0  0
  7  3  1  0  0  0  0
  9 10  2  0  0  0  0
  9 11  1  0  0  0  0
 11  2  1  0  0  0  0
 12  9  1  0  0  0  0
 13 11  1  0  0  0  0
 14 19  1  0  0  0  0
 14  1  1  0  0  0  0
 15 16  1  0  0  0  0
 17 16  1  0  0  0  0
 18 17  1  0  0  0  0
 18 19  1  0  0  0  0
 19 20  1  0  0  0  0
 21 20  1  0  0  0  0
 21 16  1  0  0  0  0
M  END
>  <minimizedAffinity>
9.03466129

>  <minimizedRMSD>
4.48436594

$$$$
