
 OpenBabel03272507593D

 37 40  0  0  0  0  0  0  0  0999 V2000
   36.9730   31.1180   48.4540 C   0  0  0  0  0  0  0  0  0  0  0  0
   37.1800   32.1440   49.3640 C   0  0  0  0  0  0  0  0  0  0  0  0
   38.1640   33.1000   49.0830 C   0  0  0  0  0  0  0  0  0  0  0  0
   38.9100   33.0170   47.9170 C   0  0  0  0  0  0  0  0  0  0  0  0
   38.6700   31.9760   47.0340 C   0  0  0  0  0  0  0  0  0  0  0  0
   37.7260   31.0860   47.3370 N   0  0  0  0  0  0  0  0  0  0  0  0
   36.7280   32.4220   50.3060 H   0  0  0  0  0  0  0  0  0  0  0  0
   38.4490   33.9440   49.6710 H   0  0  0  0  0  0  0  0  0  0  0  0
   39.6850   33.7090   47.6220 H   0  0  0  0  0  0  0  0  0  0  0  0
   35.0650   28.5720   50.4460 C   0  0  0  0  0  0  0  0  0  0  0  0
   36.1040   29.4580   50.0500 C   0  0  0  0  0  0  0  0  0  0  0  0
   35.9360   30.2160   48.8810 C   0  0  0  0  0  0  0  0  0  0  0  0
   34.7740   30.0500   48.1950 N   0  0  0  0  0  0  0  0  0  0  0  0
   33.8030   29.1900   48.6100 C   0  0  0  0  0  0  0  0  0  0  0  0
   33.9460   28.4630   49.7160 N   0  0  0  0  0  0  0  0  0  0  0  0
   32.6870   29.1970   47.7200 N   0  0  0  0  0  0  0  0  0  0  0  0
   35.2010   27.9880   51.3520 H   0  0  0  0  0  0  0  0  0  0  0  0
   32.7740   29.2360   46.6930 H   0  0  0  0  0  0  0  0  0  0  0  0
   31.7060   29.1620   48.1070 H   0  0  0  0  0  0  0  0  0  0  0  0
   37.3200   29.5400   50.8890 C   0  0  0  0  0  0  0  0  0  0  0  0
   38.4650   29.7460   50.1090 F   0  0  0  0  0  0  0  0  0  0  0  0
   37.2170   30.5690   51.7540 F   0  0  0  0  0  0  0  0  0  0  0  0
   37.5550   28.3780   51.6200 F   0  0  0  0  0  0  0  0  0  0  0  0
   39.4050   31.8270   45.7890 C   0  0  0  0  0  0  0  0  0  0  0  0
   40.6810   31.3310   45.6510 C   0  0  0  0  0  0  0  0  0  0  0  0
   41.0490   31.3390   44.3170 C   0  0  0  0  0  0  0  0  0  0  0  0
   39.9640   31.8500   43.6790 N   0  0  0  0  0  0  0  0  0  0  0  0
   39.0060   32.1330   44.5510 N   0  0  0  0  0  0  0  0  0  0  0  0
   41.3250   30.9770   46.4580 H   0  0  0  0  0  0  0  0  0  0  0  0
   41.9670   31.0190   43.8870 H   0  0  0  0  0  0  0  0  0  0  0  0
   37.7390   29.7740   40.1010 H   0  0  0  0  0  0  0  0  0  0  0  0
   37.8250   30.3470   40.9810 N   0  0  0  0  0  0  0  0  0  0  0  0
   38.9500   29.8260   41.7080 C   0  0  0  0  0  2  0  0  0  0  0  0
   40.1470   30.7320   41.5050 C   0  0  0  0  0  2  0  0  0  0  0  0
   39.9050   32.0430   42.2380 C   0  0  0  0  0  3  0  0  0  0  0  0
   38.5500   32.5330   41.7930 C   0  0  0  0  0  2  0  0  0  0  0  0
   38.0170   31.7450   40.6240 C   0  0  0  0  0  2  0  0  0  0  0  0
  1 12  1  0  0  0  0
  1  2  1  0  0  0  0
  2  7  1  0  0  0  0
  3  2  2  0  0  0  0
  3  8  1  0  0  0  0
  4  3  1  0  0  0  0
  5  6  1  0  0  0  0
  5  4  2  0  0  0  0
  6  1  2  0  0  0  0
  9  4  1  0  0  0  0
 10 17  1  0  0  0  0
 11 10  1  0  0  0  0
 11 20  1  0  0  0  0
 12 11  2  0  0  0  0
 13 14  2  0  0  0  0
 13 12  1  0  0  0  0
 14 15  1  0  0  0  0
 15 10  2  0  0  0  0
 16 19  1  0  0  0  0
 16 14  1  0  0  0  0
 18 16  1  0  0  0  0
 20 23  1  0  0  0  0
 20 22  1  0  0  0  0
 21 20  1  0  0  0  0
 24  5  1  0  0  0  0
 25 24  1  0  0  0  0
 25 29  1  0  0  0  0
 26 25  2  0  0  0  0
 27 26  1  0  0  0  0
 27 28  1  0  0  0  0
 28 24  2  0  0  0  0
 30 26  1  0  0  0  0
 31 32  1  0  0  0  0
 32 33  1  0  0  0  0
 34 33  1  0  0  0  0
 34 35  1  0  0  0  0
 35 27  1  0  0  0  0
 36 35  1  0  0  0  0
 37 32  1  0  0  0  0
 37 36  1  0  0  0  0
M  END
>  <minimizedAffinity>
-7.06948137

>  <minimizedRMSD>
1.82242727

$$$$
