
 OpenBabel03272507593D

 37 40  0  0  0  0  0  0  0  0999 V2000
   36.9620   31.1250   48.4520 C   0  0  0  0  0  0  0  0  0  0  0  0
   37.1870   32.1360   49.3740 C   0  0  0  0  0  0  0  0  0  0  0  0
   38.1660   33.0960   49.0900 C   0  0  0  0  0  0  0  0  0  0  0  0
   38.8910   33.0290   47.9100 C   0  0  0  0  0  0  0  0  0  0  0  0
   38.6350   32.0020   47.0150 C   0  0  0  0  0  0  0  0  0  0  0  0
   37.6950   31.1080   47.3220 N   0  0  0  0  0  0  0  0  0  0  0  0
   36.7520   32.4010   50.3280 H   0  0  0  0  0  0  0  0  0  0  0  0
   38.4620   33.9310   49.6840 H   0  0  0  0  0  0  0  0  0  0  0  0
   39.6610   33.7260   47.6110 H   0  0  0  0  0  0  0  0  0  0  0  0
   35.0780   28.5670   50.4530 C   0  0  0  0  0  0  0  0  0  0  0  0
   36.1110   29.4580   50.0520 C   0  0  0  0  0  0  0  0  0  0  0  0
   35.9320   30.2160   48.8840 C   0  0  0  0  0  0  0  0  0  0  0  0
   34.7680   30.0450   48.2040 N   0  0  0  0  0  0  0  0  0  0  0  0
   33.8030   29.1790   48.6240 C   0  0  0  0  0  0  0  0  0  0  0  0
   33.9560   28.4530   49.7280 N   0  0  0  0  0  0  0  0  0  0  0  0
   32.6820   29.1820   47.7400 N   0  0  0  0  0  0  0  0  0  0  0  0
   35.2220   27.9840   51.3570 H   0  0  0  0  0  0  0  0  0  0  0  0
   32.7640   29.2220   46.7120 H   0  0  0  0  0  0  0  0  0  0  0  0
   31.7040   29.1420   48.1320 H   0  0  0  0  0  0  0  0  0  0  0  0
   37.3300   29.5460   50.8840 C   0  0  0  0  0  0  0  0  0  0  0  0
   38.4690   29.7640   50.0990 F   0  0  0  0  0  0  0  0  0  0  0  0
   37.2240   30.5710   51.7550 F   0  0  0  0  0  0  0  0  0  0  0  0
   37.5780   28.3830   51.6090 F   0  0  0  0  0  0  0  0  0  0  0  0
   39.3480   31.8710   45.7550 C   0  0  0  0  0  0  0  0  0  0  0  0
   40.5930   31.3140   45.5790 C   0  0  0  0  0  0  0  0  0  0  0  0
   40.9480   31.3640   44.2420 C   0  0  0  0  0  0  0  0  0  0  0  0
   39.8850   31.9610   43.6420 N   0  0  0  0  0  0  0  0  0  0  0  0
   38.9530   32.2540   44.5380 N   0  0  0  0  0  0  0  0  0  0  0  0
   41.2250   30.8890   46.3600 H   0  0  0  0  0  0  0  0  0  0  0  0
   41.8420   31.0150   43.7860 H   0  0  0  0  0  0  0  0  0  0  0  0
   37.0980   30.6300   40.1030 H   0  0  0  0  0  0  0  0  0  0  0  0
   37.3500   31.1270   40.9960 N   0  0  0  0  0  0  0  0  0  0  0  0
   38.3440   30.3230   41.6550 C   0  0  0  0  0  2  0  0  0  0  0  0
   39.7150   30.9230   41.4280 C   0  0  0  0  0  2  0  0  0  0  0  0
   39.8210   32.2220   42.2120 C   0  0  0  0  0  3  0  0  0  0  0  0
   38.6090   33.0410   41.8450 C   0  0  0  0  0  2  0  0  0  0  0  0
   37.8600   32.4530   40.6770 C   0  0  0  0  0  2  0  0  0  0  0  0
  1 12  1  0  0  0  0
  1  2  1  0  0  0  0
  2  7  1  0  0  0  0
  3  2  2  0  0  0  0
  3  8  1  0  0  0  0
  4  3  1  0  0  0  0
  5  6  1  0  0  0  0
  5  4  2  0  0  0  0
  6  1  2  0  0  0  0
  9  4  1  0  0  0  0
 10 17  1  0  0  0  0
 11 10  1  0  0  0  0
 11 20  1  0  0  0  0
 12 11  2  0  0  0  0
 13 14  2  0  0  0  0
 13 12  1  0  0  0  0
 14 15  1  0  0  0  0
 15 10  2  0  0  0  0
 16 19  1  0  0  0  0
 16 14  1  0  0  0  0
 18 16  1  0  0  0  0
 20 23  1  0  0  0  0
 20 22  1  0  0  0  0
 21 20  1  0  0  0  0
 24  5  1  0  0  0  0
 25 24  1  0  0  0  0
 25 29  1  0  0  0  0
 26 25  2  0  0  0  0
 27 26  1  0  0  0  0
 27 28  1  0  0  0  0
 28 24  2  0  0  0  0
 30 26  1  0  0  0  0
 31 32  1  0  0  0  0
 32 33  1  0  0  0  0
 34 33  1  0  0  0  0
 34 35  1  0  0  0  0
 35 27  1  0  0  0  0
 36 35  1  0  0  0  0
 37 32  1  0  0  0  0
 37 36  1  0  0  0  0
M  END
>  <minimizedAffinity>
-7.09601879

>  <minimizedRMSD>
2.34862494

$$$$
