
 OpenBabel03272508163D

 29 31  0  0  0  0  0  0  0  0999 V2000
   34.7890   30.4500   46.7830 Cl  0  0  0  0  0  0  0  0  0  0  0  0
   34.9700   29.4570   45.3790 C   0  0  0  0  0  0  0  0  0  0  0  0
   34.1320   28.3880   45.3720 C   0  0  0  0  0  0  0  0  0  0  0  0
   34.1920   27.5020   44.2680 C   0  0  0  0  0  0  0  0  0  0  0  0
   35.0630   27.7100   43.2370 C   0  0  0  0  0  0  0  0  0  0  0  0
   35.8980   28.8010   43.2760 C   0  0  0  0  0  0  0  0  0  0  0  0
   37.0280   29.1140   41.9900 Cl  0  0  0  0  0  0  0  0  0  0  0  0
   35.8390   29.6500   44.3350 C   0  0  0  0  0  0  0  0  0  0  0  0
   33.5710   26.6300   44.1700 H   0  0  0  0  0  0  0  0  0  0  0  0
   35.1310   27.0500   42.3800 H   0  0  0  0  0  0  0  0  0  0  0  0
   33.4550   26.8990   47.2150 C   0  0  0  0  0  0  0  0  0  0  0  0
   33.1190   27.9650   46.3610 C   0  0  0  0  0  0  0  0  0  0  0  0
   31.8610   28.5770   46.4740 C   0  0  0  0  0  0  0  0  0  0  0  0
   31.0300   28.0710   47.4380 N   0  0  0  0  0  0  0  0  0  0  0  0
   31.3720   27.0530   48.2430 C   0  0  0  0  0  0  0  0  0  0  0  0
   32.6030   26.4520   48.1340 N   0  0  0  0  0  0  0  0  0  0  0  0
   34.4060   26.3920   47.1720 H   0  0  0  0  0  0  0  0  0  0  0  0
   31.6380   29.3750   45.8160 H   0  0  0  0  0  0  0  0  0  0  0  0
   30.6950   26.6940   48.9780 H   0  0  0  0  0  0  0  0  0  0  0  0
   36.6990   30.8440   44.4560 C   0  0  0  0  0  0  0  0  0  0  0  0
   36.6320   31.9340   43.8930 O   0  0  0  0  0  0  0  0  0  0  0  0
   37.8260   30.9710   45.2920 O   0  0  0  0  0  0  0  0  0  0  0  0
   39.1130   34.7370   47.9510 H   0  0  0  0  0  0  0  0  0  0  0  0
   39.3760   33.7440   47.8550 N   0  0  0  0  0  0  0  0  0  0  0  0
   40.1350   33.3920   46.7230 C   0  0  0  0  0  2  0  0  0  0  0  0
   39.4230   32.6510   45.6310 C   0  0  0  0  0  2  0  0  0  0  0  0
   38.0970   32.0840   46.0720 C   0  0  0  0  0  3  0  0  0  0  0  0
   38.1180   31.6570   47.5230 C   0  0  0  0  0  2  0  0  0  0  0  0
   38.5550   32.7640   48.4410 C   0  0  0  0  0  2  0  0  0  0  0  0
  2  1  1  0  0  0  0
  3  2  1  0  0  0  0
  3 12  1  0  0  0  0
  4  3  2  0  0  0  0
  5  6  2  0  0  0  0
  5  4  1  0  0  0  0
  6  8  1  0  0  0  0
  7  6  1  0  0  0  0
  8 20  1  0  0  0  0
  8  2  2  0  0  0  0
  9  4  1  0  0  0  0
 10  5  1  0  0  0  0
 11 16  1  0  0  0  0
 12 13  1  0  0  0  0
 12 11  2  0  0  0  0
 13 14  2  0  0  0  0
 14 15  1  0  0  0  0
 15 19  1  0  0  0  0
 16 15  2  0  0  0  0
 17 11  1  0  0  0  0
 18 13  1  0  0  0  0
 20 22  1  0  0  0  0
 21 20  2  0  0  0  0
 22 27  1  0  0  0  0
 24 23  1  0  0  0  0
 24 29  1  0  0  0  0
 25 24  1  0  0  0  0
 26 27  1  0  0  0  0
 26 25  1  0  0  0  0
 27 28  1  0  0  0  0
 28 29  1  0  0  0  0
M  END
>  <minimizedAffinity>
-4.25343895

>  <minimizedRMSD>
5.2451067

$$$$
