
 OpenBabel03272507373D

 21 22  0  0  0  0  0  0  0  0999 V2000
   36.0790   29.7370   48.8150 C   0  0  0  0  0  0  0  0  0  0  0  0
   35.0000   29.3540   48.0250 C   0  0  0  0  0  0  0  0  0  0  0  0
   33.8590   28.8820   48.6410 C   0  0  0  0  0  0  0  0  0  0  0  0
   33.8480   28.8120   50.0090 N   0  0  0  0  0  0  0  0  0  0  0  0
   34.9040   29.1890   50.7550 C   0  0  0  0  0  0  0  0  0  0  0  0
   35.9920   29.6420   50.1470 N   0  0  0  0  0  0  0  0  0  0  0  0
   32.9730   28.5610   48.0890 H   0  0  0  0  0  0  0  0  0  0  0  0
   34.9010   29.1380   51.8360 H   0  0  0  0  0  0  0  0  0  0  0  0
   33.9140   30.1100   45.9900 C   0  0  0  0  0  0  0  0  0  0  0  0
   32.8940   30.7740   46.3590 O   0  0  0  0  0  0  0  0  0  0  0  0
   34.9430   29.3970   46.6330 N   0  0  0  0  0  0  0  0  0  0  0  0
   33.6190   30.3520   44.9740 H   0  0  0  0  0  0  0  0  0  0  0  0
   35.5420   28.9850   45.8880 H   0  0  0  0  0  0  0  0  0  0  0  0
   37.1450   30.1880   48.0530 O   0  0  0  0  0  0  0  0  0  0  0  0
   39.9020   34.4890   48.1770 H   0  0  0  0  0  0  0  0  0  0  0  0
   39.1080   33.8010   48.1060 N   0  0  0  0  0  0  0  0  0  0  0  0
   38.8650   33.1990   49.4000 C   0  0  0  0  0  2  0  0  0  0  0  0
   38.4520   31.7540   49.2930 C   0  0  0  0  0  2  0  0  0  0  0  0
   37.5350   31.5420   48.0920 C   0  0  0  0  0  3  0  0  0  0  0  0
   38.2140   31.9840   46.8380 C   0  0  0  0  0  2  0  0  0  0  0  0
   39.4760   32.7680   47.1620 C   0  0  0  0  0  2  0  0  0  0  0  0
  1  6  1  0  0  0  0
  2  3  1  0  0  0  0
  2  1  2  0  0  0  0
  3  4  2  0  0  0  0
  4  5  1  0  0  0  0
  5  8  1  0  0  0  0
  6  5  2  0  0  0  0
  7  3  1  0  0  0  0
  9 10  2  0  0  0  0
  9 11  1  0  0  0  0
 11  2  1  0  0  0  0
 12  9  1  0  0  0  0
 13 11  1  0  0  0  0
 14 19  1  0  0  0  0
 14  1  1  0  0  0  0
 16 15  1  0  0  0  0
 16 17  1  0  0  0  0
 18 17  1  0  0  0  0
 19 18  1  0  0  0  0
 20 21  1  0  0  0  0
 20 19  1  0  0  0  0
 21 16  1  0  0  0  0
M  END
>  <minimizedAffinity>
-4.48426342

>  <minimizedRMSD>
5.53344488

$$$$
