
 OpenBabel03272502593D

 32 34  0  0  1  0  0  0  0  0999 V2000
   36.8190   30.2090   48.5680 N   0  0  0  0  0  0  0  0  0  0  0  0
   37.7150   29.7990   49.6260 C   0  0  0  0  0  0  0  0  0  0  0  0
   38.3310   30.8440   50.4480 C   0  0  0  0  0  0  0  0  0  0  0  0
   38.4800   32.1900   49.8760 C   0  0  0  0  0  0  0  0  0  0  0  0
   37.5550   32.4910   48.7370 C   0  0  0  0  0  0  0  0  0  0  0  0
   37.4530   31.2700   47.8220 C   0  0  1  0  0  0  0  0  0  0  0  0
   38.4970   29.1580   49.1450 H   0  0  0  0  0  0  0  0  0  0  0  0
   37.1320   29.0920   50.2530 H   0  0  0  0  0  0  0  0  0  0  0  0
   39.3310   30.4790   50.7720 H   0  0  0  0  0  0  0  0  0  0  0  0
   37.7560   30.9220   51.4180 H   0  0  0  0  0  0  0  0  0  0  0  0
   39.5200   32.4190   49.5380 H   0  0  0  0  0  0  0  0  0  0  0  0
   38.2760   32.9770   50.6500 H   0  0  0  0  0  0  0  0  0  0  0  0
   37.9190   33.3510   48.1450 H   0  0  0  0  0  0  0  0  0  0  0  0
   36.5190   32.6760   49.1200 H   0  0  0  0  0  0  0  0  0  0  0  0
   36.9180   31.5460   46.9050 H   0  0  0  0  0  0  0  0  0  0  0  0
   35.5220   29.6440   48.3150 C   0  0  0  0  0  0  0  0  0  0  0  0
   34.6970   30.0360   47.2640 C   0  0  0  0  0  0  0  0  0  0  0  0
   33.4580   29.3950   47.1470 C   0  0  0  0  0  0  0  0  0  0  0  0
   33.1370   28.4420   48.0520 N   0  0  0  0  0  0  0  0  0  0  0  0
   33.9720   28.0940   49.0610 C   0  0  0  0  0  0  0  0  0  0  0  0
   35.1680   28.7040   49.1840 N   0  0  0  0  0  0  0  0  0  0  0  0
   35.0460   30.7950   46.6080 H   0  0  0  0  0  0  0  0  0  0  0  0
   32.8160   29.6950   46.3320 H   0  0  0  0  0  0  0  0  0  0  0  0
   33.6650   27.3250   49.7580 H   0  0  0  0  0  0  0  0  0  0  0  0
   38.7780   30.9380   47.5010 O   0  0  0  0  0  0  0  0  0  0  0  0
   39.1680   34.2880   45.4460 H   0  0  0  0  0  0  0  0  0  0  0  0
   39.4440   33.3950   45.0060 N   0  0  0  0  0  0  0  0  0  0  0  0
   38.3940   32.5990   44.4610 C   0  0  0  0  0  0  0  0  0  0  0  0
   37.8570   31.5400   45.3780 C   0  0  0  0  0  0  0  0  0  0  0  0
   38.9290   30.8230   46.1300 C   0  0  0  0  0  0  0  0  0  0  0  0
   40.3320   31.2380   45.7780 C   0  0  0  0  0  0  0  0  0  0  0  0
   40.5350   32.6980   45.5910 C   0  0  0  0  0  0  0  0  0  0  0  0
  1  2  1  0  0  0  0
  2  8  1  0  0  0  0
  2  3  1  0  0  0  0
  3  9  1  0  0  0  0
  3 10  1  0  0  0  0
  4  3  1  0  0  0  0
  4 12  1  0  0  0  0
  5 14  1  0  0  0  0
  5  4  1  0  0  0  0
  6 15  1  6  0  0  0
  6  1  1  0  0  0  0
  6  5  1  0  0  0  0
  7  2  1  0  0  0  0
 11  4  1  0  0  0  0
 13  5  1  0  0  0  0
 16  1  1  0  0  0  0
 16 21  1  0  0  0  0
 17 16  2  0  0  0  0
 18 17  1  0  0  0  0
 18 19  2  0  0  0  0
 19 20  1  0  0  0  0
 20 21  2  0  0  0  0
 20 24  1  0  0  0  0
 22 17  1  0  0  0  0
 23 18  1  0  0  0  0
 25  6  1  0  0  0  0
 27 26  1  0  0  0  0
 27 32  1  0  0  0  0
 28 27  1  0  0  0  0
 28 29  1  0  0  0  0
 29 30  1  0  0  0  0
 30 25  1  0  0  0  0
 31 30  1  0  0  0  0
 32 31  1  0  0  0  0
M  END
>  <minimizedAffinity>
-5.90187693

>  <minimizedRMSD>
1.76859522

$$$$
