
 OpenBabel03272503003D

 32 34  0  0  1  0  0  0  0  0999 V2000
   38.2510   25.6500   33.5450 N   0  0  0  0  0  0  0  0  0  0  0  0
   37.0730   26.3740   33.9630 C   0  0  0  0  0  0  0  0  0  0  0  0
   37.2550   27.5420   34.8290 C   0  0  0  0  0  0  0  0  0  0  0  0
   38.4630   27.6140   35.6640 C   0  0  0  0  0  0  0  0  0  0  0  0
   39.6040   26.7700   35.1860 C   0  0  0  0  0  0  0  0  0  0  0  0
   39.0760   25.4170   34.7070 C   0  0  1  0  0  0  0  0  0  0  0  0
   36.3950   25.6230   34.4440 H   0  0  0  0  0  0  0  0  0  0  0  0
   36.5470   26.6540   33.0260 H   0  0  0  0  0  0  0  0  0  0  0  0
   36.3600   27.6240   35.4850 H   0  0  0  0  0  0  0  0  0  0  0  0
   37.1960   28.4740   34.1930 H   0  0  0  0  0  0  0  0  0  0  0  0
   38.2800   27.3620   36.7370 H   0  0  0  0  0  0  0  0  0  0  0  0
   38.8580   28.6640   35.7050 H   0  0  0  0  0  0  0  0  0  0  0  0
   40.3390   26.6000   35.9950 H   0  0  0  0  0  0  0  0  0  0  0  0
   40.0890   27.2440   34.2960 H   0  0  0  0  0  0  0  0  0  0  0  0
   39.9210   24.7420   34.5220 H   0  0  0  0  0  0  0  0  0  0  0  0
   38.5380   25.2370   32.1990 C   0  0  0  0  0  0  0  0  0  0  0  0
   39.5280   25.8100   31.4050 C   0  0  0  0  0  0  0  0  0  0  0  0
   39.6880   25.3020   30.1110 C   0  0  0  0  0  0  0  0  0  0  0  0
   38.8810   24.2950   29.7090 N   0  0  0  0  0  0  0  0  0  0  0  0
   37.9280   23.7670   30.5170 C   0  0  0  0  0  0  0  0  0  0  0  0
   37.7640   24.2480   31.7650 N   0  0  0  0  0  0  0  0  0  0  0  0
   40.1080   26.5980   31.8190 H   0  0  0  0  0  0  0  0  0  0  0  0
   40.4560   25.7440   29.4930 H   0  0  0  0  0  0  0  0  0  0  0  0
   37.3080   22.9610   30.1440 H   0  0  0  0  0  0  0  0  0  0  0  0
   38.3140   24.9200   35.7750 O   0  0  0  0  0  0  0  0  0  0  0  0
   39.7250   23.7150   39.2610 H   0  0  0  0  0  0  0  0  0  0  0  0
   39.2920   23.0220   38.6290 N   0  0  0  0  0  0  0  0  0  0  0  0
   40.1070   22.5280   37.5680 C   0  0  0  0  0  2  0  0  0  0  0  0
   39.9530   23.2470   36.2600 C   0  0  0  0  0  2  0  0  0  0  0  0
   38.5310   23.5610   35.9320 C   0  0  0  0  0  3  0  0  0  0  0  0
   37.5250   23.0390   36.9220 C   0  0  0  0  0  2  0  0  0  0  0  0
   37.9070   23.1790   38.3510 C   0  0  0  0  0  2  0  0  0  0  0  0
  1  2  1  0  0  0  0
  1  6  1  0  0  0  0
  2  7  1  0  0  0  0
  2  3  1  0  0  0  0
  3  9  1  0  0  0  0
  3  4  1  0  0  0  0
  4 12  1  0  0  0  0
  4 11  1  0  0  0  0
  5  4  1  0  0  0  0
  5 13  1  0  0  0  0
  6 15  1  6  0  0  0
  6  5  1  0  0  0  0
  6 25  1  0  0  0  0
  8  2  1  0  0  0  0
 10  3  1  0  0  0  0
 14  5  1  0  0  0  0
 16  1  1  0  0  0  0
 17 22  1  0  0  0  0
 17 16  2  0  0  0  0
 18 17  1  0  0  0  0
 19 18  2  0  0  0  0
 19 20  1  0  0  0  0
 20 21  2  0  0  0  0
 21 16  1  0  0  0  0
 23 18  1  0  0  0  0
 24 20  1  0  0  0  0
 25 30  1  0  0  0  0
 27 26  1  0  0  0  0
 28 27  1  0  0  0  0
 29 28  1  0  0  0  0
 30 29  1  0  0  0  0
 30 31  1  0  0  0  0
 31 32  1  0  0  0  0
 32 27  1  0  0  0  0
M  END
>  <minimizedAffinity>
-5.24626112

$$$$

 OpenBabel03272503003D

 32 34  0  0  1  0  0  0  0  0999 V2000
   37.9940   25.3510   33.7680 N   0  0  0  0  0  0  0  0  0  0  0  0
   37.7080   26.3630   34.7590 C   0  0  0  0  0  0  0  0  0  0  0  0
   38.7180   27.4000   34.9930 C   0  0  0  0  0  0  0  0  0  0  0  0
   40.1210   27.0970   34.6740 C   0  0  0  0  0  0  0  0  0  0  0  0
   40.3120   25.9830   33.6910 C   0  0  0  0  0  0  0  0  0  0  0  0
   39.3290   24.8520   34.0000 C   0  0  1  0  0  0  0  0  0  0  0  0
   37.4710   25.8170   35.7080 H   0  0  0  0  0  0  0  0  0  0  0  0
   36.7410   26.8140   34.4550 H   0  0  0  0  0  0  0  0  0  0  0  0
   38.6510   27.7070   36.0610 H   0  0  0  0  0  0  0  0  0  0  0  0
   38.4110   28.3320   34.4350 H   0  0  0  0  0  0  0  0  0  0  0  0
   40.7440   26.8680   35.5720 H   0  0  0  0  0  0  0  0  0  0  0  0
   40.6290   27.9910   34.2230 H   0  0  0  0  0  0  0  0  0  0  0  0
   41.3420   25.5830   33.7390 H   0  0  0  0  0  0  0  0  0  0  0  0
   40.0630   26.3330   32.6570 H   0  0  0  0  0  0  0  0  0  0  0  0
   39.5840   23.9730   33.3950 H   0  0  0  0  0  0  0  0  0  0  0  0
   37.0900   24.9240   32.7350 C   0  0  0  0  0  0  0  0  0  0  0  0
   36.9450   23.5990   32.3300 C   0  0  0  0  0  0  0  0  0  0  0  0
   36.0240   23.3380   31.3100 C   0  0  0  0  0  0  0  0  0  0  0  0
   35.3360   24.3740   30.7800 N   0  0  0  0  0  0  0  0  0  0  0  0
   35.5110   25.6490   31.2050 C   0  0  0  0  0  0  0  0  0  0  0  0
   36.3950   25.9140   32.1880 N   0  0  0  0  0  0  0  0  0  0  0  0
   37.5350   22.8600   32.8140 H   0  0  0  0  0  0  0  0  0  0  0  0
   35.9080   22.3110   30.9930 H   0  0  0  0  0  0  0  0  0  0  0  0
   34.9340   26.4420   30.7470 H   0  0  0  0  0  0  0  0  0  0  0  0
   39.5270   24.5520   35.3560 O   0  0  0  0  0  0  0  0  0  0  0  0
   40.3480   23.2410   38.9890 H   0  0  0  0  0  0  0  0  0  0  0  0
   39.8500   22.6180   38.3320 N   0  0  0  0  0  0  0  0  0  0  0  0
   40.6490   21.9370   37.3680 C   0  0  0  0  0  2  0  0  0  0  0  0
   40.7590   22.6200   36.0360 C   0  0  0  0  0  2  0  0  0  0  0  0
   39.4620   23.1840   35.5630 C   0  0  0  0  0  3  0  0  0  0  0  0
   38.2860   22.9030   36.4590 C   0  0  0  0  0  2  0  0  0  0  0  0
   38.5540   23.0240   37.9150 C   0  0  0  0  0  2  0  0  0  0  0  0
  1  6  1  0  0  0  0
  1  2  1  0  0  0  0
  2  3  1  0  0  0  0
  2  7  1  0  0  0  0
  3  9  1  0  0  0  0
  4  3  1  0  0  0  0
  4 11  1  0  0  0  0
  5 13  1  0  0  0  0
  5  6  1  0  0  0  0
  5  4  1  0  0  0  0
  6 15  1  6  0  0  0
  6 25  1  0  0  0  0
  8  2  1  0  0  0  0
 10  3  1  0  0  0  0
 12  4  1  0  0  0  0
 14  5  1  0  0  0  0
 16  1  1  0  0  0  0
 17 16  1  0  0  0  0
 17 22  1  0  0  0  0
 18 17  2  0  0  0  0
 19 20  2  0  0  0  0
 19 18  1  0  0  0  0
 20 21  1  0  0  0  0
 21 16  2  0  0  0  0
 23 18  1  0  0  0  0
 24 20  1  0  0  0  0
 25 30  1  0  0  0  0
 27 26  1  0  0  0  0
 28 27  1  0  0  0  0
 29 28  1  0  0  0  0
 30 29  1  0  0  0  0
 30 31  1  0  0  0  0
 31 32  1  0  0  0  0
 32 27  1  0  0  0  0
M  END
>  <minimizedAffinity>
-5.14304447

$$$$

 OpenBabel03272503003D

 32 34  0  0  1  0  0  0  0  0999 V2000
   37.1800   27.6150   33.3530 N   0  0  0  0  0  0  0  0  0  0  0  0
   36.9590   27.4810   34.7750 C   0  0  0  0  0  0  0  0  0  0  0  0
   38.1330   27.3790   35.6470 C   0  0  0  0  0  0  0  0  0  0  0  0
   39.3880   26.8710   35.0750 C   0  0  0  0  0  0  0  0  0  0  0  0
   39.4900   26.9890   33.5850 C   0  0  0  0  0  0  0  0  0  0  0  0
   38.1480   26.6220   32.9490 C   0  0  1  0  0  0  0  0  0  0  0  0
   36.2860   26.5960   34.9070 H   0  0  0  0  0  0  0  0  0  0  0  0
   36.3270   28.3480   35.0610 H   0  0  0  0  0  0  0  0  0  0  0  0
   37.8550   26.7480   36.5200 H   0  0  0  0  0  0  0  0  0  0  0  0
   38.3260   28.3910   36.1080 H   0  0  0  0  0  0  0  0  0  0  0  0
   39.6070   25.8100   35.3470 H   0  0  0  0  0  0  0  0  0  0  0  0
   40.2690   27.4340   35.4850 H   0  0  0  0  0  0  0  0  0  0  0  0
   40.2700   26.3160   33.1850 H   0  0  0  0  0  0  0  0  0  0  0  0
   39.6880   28.0520   33.2940 H   0  0  0  0  0  0  0  0  0  0  0  0
   38.2710   26.5410   31.8620 H   0  0  0  0  0  0  0  0  0  0  0  0
   36.5370   28.5770   32.5000 C   0  0  0  0  0  0  0  0  0  0  0  0
   36.9890   28.9090   31.2260 C   0  0  0  0  0  0  0  0  0  0  0  0
   36.2580   29.8670   30.5150 C   0  0  0  0  0  0  0  0  0  0  0  0
   35.1650   30.4090   31.0990 N   0  0  0  0  0  0  0  0  0  0  0  0
   34.7610   30.0540   32.3440 C   0  0  0  0  0  0  0  0  0  0  0  0
   35.4580   29.1340   33.0390 N   0  0  0  0  0  0  0  0  0  0  0  0
   37.8600   28.4230   30.8600 H   0  0  0  0  0  0  0  0  0  0  0  0
   36.6050   30.1270   29.5260 H   0  0  0  0  0  0  0  0  0  0  0  0
   33.8790   30.5200   32.7640 H   0  0  0  0  0  0  0  0  0  0  0  0
   37.8250   25.3610   33.4720 O   0  0  0  0  0  0  0  0  0  0  0  0
   34.7270   23.2330   32.2610 H   0  0  0  0  0  0  0  0  0  0  0  0
   35.5930   23.2230   31.6970 N   0  0  0  0  0  0  0  0  0  0  0  0
   36.6380   22.3640   32.1470 C   0  0  0  0  0  2  0  0  0  0  0  0
   37.6680   23.0190   33.0200 C   0  0  0  0  0  2  0  0  0  0  0  0
   38.0670   24.3720   32.5340 C   0  0  0  0  0  3  0  0  0  0  0  0
   37.4280   24.7910   31.2380 C   0  0  0  0  0  2  0  0  0  0  0  0
   35.9880   24.4500   31.1000 C   0  0  0  0  0  2  0  0  0  0  0  0
  1  2  1  0  0  0  0
  2  7  1  0  0  0  0
  2  8  1  0  0  0  0
  2  3  1  0  0  0  0
  3 10  1  0  0  0  0
  3  9  1  0  0  0  0
  4 11  1  0  0  0  0
  4 12  1  0  0  0  0
  4  3  1  0  0  0  0
  5  4  1  0  0  0  0
  6 15  1  6  0  0  0
  6  1  1  0  0  0  0
  6 25  1  0  0  0  0
  6  5  1  0  0  0  0
 13  5  1  0  0  0  0
 14  5  1  0  0  0  0
 16 21  1  0  0  0  0
 16  1  1  0  0  0  0
 17 16  2  0  0  0  0
 18 19  2  0  0  0  0
 18 17  1  0  0  0  0
 19 20  1  0  0  0  0
 20 24  1  0  0  0  0
 20 21  2  0  0  0  0
 22 17  1  0  0  0  0
 23 18  1  0  0  0  0
 27 28  1  0  0  0  0
 27 26  1  0  0  0  0
 28 29  1  0  0  0  0
 30 29  1  0  0  0  0
 30 25  1  0  0  0  0
 31 30  1  0  0  0  0
 32 31  1  0  0  0  0
 32 27  1  0  0  0  0
M  END
>  <minimizedAffinity>
-4.74738312

$$$$

 OpenBabel03272503003D

 32 34  0  0  1  0  0  0  0  0999 V2000
   38.9290   26.0940   33.7230 N   0  0  0  0  0  0  0  0  0  0  0  0
   39.7900   27.0270   34.4130 C   0  0  0  0  0  0  0  0  0  0  0  0
   41.2360   26.9140   34.2010 C   0  0  0  0  0  0  0  0  0  0  0  0
   41.7850   25.6140   33.7910 C   0  0  0  0  0  0  0  0  0  0  0  0
   40.7950   24.6910   33.1500 C   0  0  0  0  0  0  0  0  0  0  0  0
   39.4640   24.7650   33.9010 C   0  0  1  0  0  0  0  0  0  0  0  0
   39.5400   26.9400   35.5010 H   0  0  0  0  0  0  0  0  0  0  0  0
   39.4250   28.0360   34.1290 H   0  0  0  0  0  0  0  0  0  0  0  0
   41.7450   27.2410   35.1340 H   0  0  0  0  0  0  0  0  0  0  0  0
   41.5490   27.6950   33.4470 H   0  0  0  0  0  0  0  0  0  0  0  0
   42.2810   25.0560   34.6220 H   0  0  0  0  0  0  0  0  0  0  0  0
   42.6080   25.7470   33.0380 H   0  0  0  0  0  0  0  0  0  0  0  0
   41.1560   23.6460   33.1680 H   0  0  0  0  0  0  0  0  0  0  0  0
   40.5770   25.0240   32.1040 H   0  0  0  0  0  0  0  0  0  0  0  0
   38.7990   23.9690   33.5430 H   0  0  0  0  0  0  0  0  0  0  0  0
   37.7440   26.4460   32.9890 C   0  0  0  0  0  0  0  0  0  0  0  0
   37.1180   25.6030   32.0750 C   0  0  0  0  0  0  0  0  0  0  0  0
   35.9710   26.0870   31.4370 C   0  0  0  0  0  0  0  0  0  0  0  0
   35.5400   27.3330   31.7400 N   0  0  0  0  0  0  0  0  0  0  0  0
   36.1830   28.1200   32.6370 C   0  0  0  0  0  0  0  0  0  0  0  0
   37.2900   27.6650   33.2580 N   0  0  0  0  0  0  0  0  0  0  0  0
   37.5380   24.6410   31.9110 H   0  0  0  0  0  0  0  0  0  0  0  0
   35.4810   25.4350   30.7280 H   0  0  0  0  0  0  0  0  0  0  0  0
   35.7960   29.1100   32.8420 H   0  0  0  0  0  0  0  0  0  0  0  0
   39.7860   24.5270   35.2450 O   0  0  0  0  0  0  0  0  0  0  0  0
   40.1170   23.4660   39.0350 H   0  0  0  0  0  0  0  0  0  0  0  0
   39.7140   22.7960   38.3600 N   0  0  0  0  0  0  0  0  0  0  0  0
   40.6370   22.0620   37.5580 C   0  0  0  0  0  2  0  0  0  0  0  0
   40.9230   22.6580   36.2110 C   0  0  0  0  0  2  0  0  0  0  0  0
   39.6980   23.1750   35.5320 C   0  0  0  0  0  3  0  0  0  0  0  0
   38.4140   22.9380   36.2800 C   0  0  0  0  0  2  0  0  0  0  0  0
   38.4840   23.1580   37.7470 C   0  0  0  0  0  2  0  0  0  0  0  0
  1  6  1  0  0  0  0
  1  2  1  0  0  0  0
  2  7  1  0  0  0  0
  3  2  1  0  0  0  0
  3  9  1  0  0  0  0
  4  3  1  0  0  0  0
  4 11  1  0  0  0  0
  5 13  1  0  0  0  0
  5  4  1  0  0  0  0
  5  6  1  0  0  0  0
  6 15  1  6  0  0  0
  6 25  1  0  0  0  0
  8  2  1  0  0  0  0
 10  3  1  0  0  0  0
 12  4  1  0  0  0  0
 14  5  1  0  0  0  0
 16 21  1  0  0  0  0
 16  1  1  0  0  0  0
 17 16  2  0  0  0  0
 18 19  2  0  0  0  0
 18 17  1  0  0  0  0
 19 20  1  0  0  0  0
 20 24  1  0  0  0  0
 20 21  2  0  0  0  0
 22 17  1  0  0  0  0
 23 18  1  0  0  0  0
 25 30  1  0  0  0  0
 27 26  1  0  0  0  0
 28 27  1  0  0  0  0
 29 28  1  0  0  0  0
 30 29  1  0  0  0  0
 30 31  1  0  0  0  0
 31 32  1  0  0  0  0
 32 27  1  0  0  0  0
M  END
>  <minimizedAffinity>
-4.71159124

$$$$

 OpenBabel03272503003D

 32 34  0  0  1  0  0  0  0  0999 V2000
   39.4600   26.6360   33.8110 N   0  0  0  0  0  0  0  0  0  0  0  0
   38.2980   26.4570   32.9700 C   0  0  0  0  0  0  0  0  0  0  0  0
   37.0640   27.1530   33.3460 C   0  0  0  0  0  0  0  0  0  0  0  0
   36.8690   27.5200   34.7560 C   0  0  0  0  0  0  0  0  0  0  0  0
   38.1290   27.6090   35.5600 C   0  0  0  0  0  0  0  0  0  0  0  0
   39.0580   26.4530   35.1860 C   0  0  1  0  0  0  0  0  0  0  0  0
   38.1270   25.3530   32.9010 H   0  0  0  0  0  0  0  0  0  0  0  0
   38.6220   26.7480   31.9490 H   0  0  0  0  0  0  0  0  0  0  0  0
   36.2050   26.5280   33.0150 H   0  0  0  0  0  0  0  0  0  0  0  0
   36.9690   28.0820   32.7110 H   0  0  0  0  0  0  0  0  0  0  0  0
   36.1650   26.8450   35.3000 H   0  0  0  0  0  0  0  0  0  0  0  0
   36.3820   28.5290   34.8410 H   0  0  0  0  0  0  0  0  0  0  0  0
   37.9140   27.5570   36.6440 H   0  0  0  0  0  0  0  0  0  0  0  0
   38.6850   28.5460   35.3050 H   0  0  0  0  0  0  0  0  0  0  0  0
   39.8980   26.4180   35.8910 H   0  0  0  0  0  0  0  0  0  0  0  0
   40.7840   26.9420   33.3420 C   0  0  0  0  0  0  0  0  0  0  0  0
   41.9340   26.7950   34.1130 C   0  0  0  0  0  0  0  0  0  0  0  0
   43.1540   27.1350   33.5180 C   0  0  0  0  0  0  0  0  0  0  0  0
   43.1470   27.5820   32.2420 N   0  0  0  0  0  0  0  0  0  0  0  0
   42.0010   27.7100   31.5280 C   0  0  0  0  0  0  0  0  0  0  0  0
   40.8200   27.3850   32.0910 N   0  0  0  0  0  0  0  0  0  0  0  0
   41.8280   26.4340   35.1070 H   0  0  0  0  0  0  0  0  0  0  0  0
   44.0480   27.0220   34.1130 H   0  0  0  0  0  0  0  0  0  0  0  0
   42.0520   28.0730   30.5100 H   0  0  0  0  0  0  0  0  0  0  0  0
   38.2830   25.2940   35.3340 O   0  0  0  0  0  0  0  0  0  0  0  0
   36.0140   22.3810   36.7360 H   0  0  0  0  0  0  0  0  0  0  0  0
   37.0380   22.3260   36.8660 N   0  0  0  0  0  0  0  0  0  0  0  0
   37.5870   23.0860   37.9400 C   0  0  0  0  0  2  0  0  0  0  0  0
   38.0940   24.4470   37.5620 C   0  0  0  0  0  2  0  0  0  0  0  0
   38.8490   24.4500   36.2750 C   0  0  0  0  0  3  0  0  0  0  0  0
   39.0250   23.0960   35.6430 C   0  0  0  0  0  2  0  0  0  0  0  0
   37.8320   22.2120   35.6930 C   0  0  0  0  0  2  0  0  0  0  0  0
  1  6  1  0  0  0  0
  2  3  1  0  0  0  0
  2  1  1  0  0  0  0
  3  4  1  0  0  0  0
  4 12  1  0  0  0  0
  4 11  1  0  0  0  0
  4  5  1  0  0  0  0
  5 13  1  0  0  0  0
  6 25  1  0  0  0  0
  6  5  1  0  0  0  0
  6 15  1  1  0  0  0
  7  2  1  0  0  0  0
  8  2  1  0  0  0  0
  9  3  1  0  0  0  0
 10  3  1  0  0  0  0
 14  5  1  0  0  0  0
 16  1  1  0  0  0  0
 16 17  1  0  0  0  0
 17 22  1  0  0  0  0
 18 17  2  0  0  0  0
 18 23  1  0  0  0  0
 19 18  1  0  0  0  0
 20 21  1  0  0  0  0
 20 19  2  0  0  0  0
 21 16  2  0  0  0  0
 24 20  1  0  0  0  0
 25 30  1  0  0  0  0
 26 27  1  0  0  0  0
 27 28  1  0  0  0  0
 29 28  1  0  0  0  0
 30 29  1  0  0  0  0
 31 32  1  0  0  0  0
 31 30  1  0  0  0  0
 32 27  1  0  0  0  0
M  END
>  <minimizedAffinity>
-4.70399666

$$$$

 OpenBabel03272503003D

 32 34  0  0  1  0  0  0  0  0999 V2000
   39.3330   25.0620   34.7380 N   0  0  0  0  0  0  0  0  0  0  0  0
   39.8120   24.3740   33.5600 C   0  0  0  0  0  0  0  0  0  0  0  0
   40.9150   24.9830   32.8100 C   0  0  0  0  0  0  0  0  0  0  0  0
   41.1150   26.4360   32.9130 C   0  0  0  0  0  0  0  0  0  0  0  0
   40.5170   27.0640   34.1340 C   0  0  0  0  0  0  0  0  0  0  0  0
   39.1410   26.4540   34.4050 C   0  0  1  0  0  0  0  0  0  0  0  0
   38.9200   24.2200   32.9010 H   0  0  0  0  0  0  0  0  0  0  0  0
   40.0810   23.3520   33.9000 H   0  0  0  0  0  0  0  0  0  0  0  0
   40.7890   24.7120   31.7380 H   0  0  0  0  0  0  0  0  0  0  0  0
   41.8750   24.4620   33.0990 H   0  0  0  0  0  0  0  0  0  0  0  0
   40.7440   27.0020   32.0240 H   0  0  0  0  0  0  0  0  0  0  0  0
   42.2090   26.6870   32.9460 H   0  0  0  0  0  0  0  0  0  0  0  0
   40.4030   28.1570   34.0030 H   0  0  0  0  0  0  0  0  0  0  0  0
   41.1410   26.8300   35.0340 H   0  0  0  0  0  0  0  0  0  0  0  0
   38.6350   27.0300   35.1890 H   0  0  0  0  0  0  0  0  0  0  0  0
   39.0920   24.4480   36.0150 C   0  0  0  0  0  0  0  0  0  0  0  0
   38.0730   24.8350   36.8820 C   0  0  0  0  0  0  0  0  0  0  0  0
   37.9630   24.1440   38.0930 C   0  0  0  0  0  0  0  0  0  0  0  0
   38.8440   23.1500   38.3510 N   0  0  0  0  0  0  0  0  0  0  0  0
   39.8220   22.8080   37.4770 C   0  0  0  0  0  0  0  0  0  0  0  0
   39.9380   23.4670   36.3060 N   0  0  0  0  0  0  0  0  0  0  0  0
   37.4340   25.6290   36.5810 H   0  0  0  0  0  0  0  0  0  0  0  0
   37.1730   24.4400   38.7680 H   0  0  0  0  0  0  0  0  0  0  0  0
   40.5000   22.0050   37.7330 H   0  0  0  0  0  0  0  0  0  0  0  0
   38.4340   26.5910   33.2010 O   0  0  0  0  0  0  0  0  0  0  0  0
   36.7740   30.1090   32.5220 H   0  0  0  0  0  0  0  0  0  0  0  0
   36.1680   29.2770   32.6080 N   0  0  0  0  0  0  0  0  0  0  0  0
   35.8700   28.8370   33.9310 C   0  0  0  0  0  2  0  0  0  0  0  0
   36.7720   27.7610   34.4610 C   0  0  0  0  0  2  0  0  0  0  0  0
   37.0760   26.7070   33.4490 C   0  0  0  0  0  3  0  0  0  0  0  0
   36.3740   26.8760   32.1300 C   0  0  0  0  0  2  0  0  0  0  0  0
   36.3120   28.2690   31.6170 C   0  0  0  0  0  2  0  0  0  0  0  0
  1 16  1  0  0  0  0
  2  8  1  0  0  0  0
  2  1  1  0  0  0  0
  3  4  1  0  0  0  0
  3 10  1  0  0  0  0
  3  2  1  0  0  0  0
  4 12  1  0  0  0  0
  4  5  1  0  0  0  0
  5  6  1  0  0  0  0
  5 14  1  0  0  0  0
  6  1  1  0  0  0  0
  6 15  1  1  0  0  0
  7  2  1  0  0  0  0
  9  3  1  0  0  0  0
 11  4  1  0  0  0  0
 13  5  1  0  0  0  0
 16 21  2  0  0  0  0
 16 17  1  0  0  0  0
 17 18  2  0  0  0  0
 18 19  1  0  0  0  0
 18 23  1  0  0  0  0
 20 24  1  0  0  0  0
 20 19  2  0  0  0  0
 21 20  1  0  0  0  0
 22 17  1  0  0  0  0
 25 30  1  0  0  0  0
 25  6  1  0  0  0  0
 26 27  1  0  0  0  0
 27 28  1  0  0  0  0
 28 29  1  0  0  0  0
 30 29  1  0  0  0  0
 31 30  1  0  0  0  0
 32 31  1  0  0  0  0
 32 27  1  0  0  0  0
M  END
>  <minimizedAffinity>
-4.61848688

$$$$

 OpenBabel03272503003D

 32 34  0  0  1  0  0  0  0  0999 V2000
   37.9100   25.1740   33.9140 N   0  0  0  0  0  0  0  0  0  0  0  0
   38.0730   23.8520   34.4740 C   0  0  0  0  0  0  0  0  0  0  0  0
   38.0280   23.7140   35.9330 C   0  0  0  0  0  0  0  0  0  0  0  0
   38.3710   24.8810   36.7580 C   0  0  0  0  0  0  0  0  0  0  0  0
   38.2380   26.2010   36.0620 C   0  0  0  0  0  0  0  0  0  0  0  0
   38.7700   26.0830   34.6330 C   0  0  1  0  0  0  0  0  0  0  0  0
   39.0370   23.4550   34.0670 H   0  0  0  0  0  0  0  0  0  0  0  0
   37.2940   23.2250   33.9930 H   0  0  0  0  0  0  0  0  0  0  0  0
   38.6910   22.8670   36.2170 H   0  0  0  0  0  0  0  0  0  0  0  0
   37.0000   23.3500   36.2270 H   0  0  0  0  0  0  0  0  0  0  0  0
   39.3960   24.8320   37.1990 H   0  0  0  0  0  0  0  0  0  0  0  0
   37.7020   24.9440   37.6590 H   0  0  0  0  0  0  0  0  0  0  0  0
   38.8060   26.9890   36.5910 H   0  0  0  0  0  0  0  0  0  0  0  0
   37.1580   26.4800   35.9660 H   0  0  0  0  0  0  0  0  0  0  0  0
   38.8330   27.0820   34.1850 H   0  0  0  0  0  0  0  0  0  0  0  0
   37.0350   25.5100   32.8230 C   0  0  0  0  0  0  0  0  0  0  0  0
   36.7230   26.8150   32.4530 C   0  0  0  0  0  0  0  0  0  0  0  0
   35.8540   26.9840   31.3690 C   0  0  0  0  0  0  0  0  0  0  0  0
   35.3710   25.8820   30.7500 N   0  0  0  0  0  0  0  0  0  0  0  0
   35.7030   24.6290   31.1470 C   0  0  0  0  0  0  0  0  0  0  0  0
   36.5390   24.4530   32.1900 N   0  0  0  0  0  0  0  0  0  0  0  0
   37.1570   27.6110   33.0060 H   0  0  0  0  0  0  0  0  0  0  0  0
   35.6100   27.9950   31.0780 H   0  0  0  0  0  0  0  0  0  0  0  0
   35.2880   23.7810   30.6170 H   0  0  0  0  0  0  0  0  0  0  0  0
   40.0630   25.5540   34.7650 O   0  0  0  0  0  0  0  0  0  0  0  0
   43.0880   28.0920   34.8510 H   0  0  0  0  0  0  0  0  0  0  0  0
   43.0290   27.4090   34.0780 N   0  0  0  0  0  0  0  0  0  0  0  0
   42.1440   27.7300   33.0070 C   0  0  0  0  0  2  0  0  0  0  0  0
   40.7680   27.1430   33.1220 C   0  0  0  0  0  2  0  0  0  0  0  0
   40.7770   25.7260   33.5900 C   0  0  0  0  0  3  0  0  0  0  0  0
   42.1460   25.1340   33.7850 C   0  0  0  0  0  2  0  0  0  0  0  0
   43.1430   26.0340   34.4220 C   0  0  0  0  0  2  0  0  0  0  0  0
  1  2  1  0  0  0  0
  1  6  1  0  0  0  0
  2  3  1  0  0  0  0
  3  9  1  0  0  0  0
  3 10  1  0  0  0  0
  3  4  1  0  0  0  0
  4 11  1  0  0  0  0
  4 12  1  0  0  0  0
  5 13  1  0  0  0  0
  5  4  1  0  0  0  0
  6 15  1  6  0  0  0
  6 25  1  0  0  0  0
  6  5  1  0  0  0  0
  7  2  1  0  0  0  0
  8  2  1  0  0  0  0
 14  5  1  0  0  0  0
 16  1  1  0  0  0  0
 17 16  1  0  0  0  0
 17 22  1  0  0  0  0
 18 17  2  0  0  0  0
 19 20  2  0  0  0  0
 19 18  1  0  0  0  0
 20 21  1  0  0  0  0
 21 16  2  0  0  0  0
 23 18  1  0  0  0  0
 24 20  1  0  0  0  0
 27 32  1  0  0  0  0
 27 26  1  0  0  0  0
 28 29  1  0  0  0  0
 28 27  1  0  0  0  0
 29 30  1  0  0  0  0
 30 31  1  0  0  0  0
 30 25  1  0  0  0  0
 31 32  1  0  0  0  0
M  END
>  <minimizedAffinity>
-4.58866072

$$$$

 OpenBabel03272503003D

 32 34  0  0  1  0  0  0  0  0999 V2000
   35.4360   29.1320   32.5960 N   0  0  0  0  0  0  0  0  0  0  0  0
   36.1460   30.1660   31.8790 C   0  0  0  0  0  0  0  0  0  0  0  0
   36.5710   29.8820   30.5050 C   0  0  0  0  0  0  0  0  0  0  0  0
   36.7700   28.4800   30.1090 C   0  0  0  0  0  0  0  0  0  0  0  0
   36.0490   27.4810   30.9600 C   0  0  0  0  0  0  0  0  0  0  0  0
   36.1530   27.8890   32.4300 C   0  0  1  0  0  0  0  0  0  0  0  0
   37.0230   30.4460   32.5160 H   0  0  0  0  0  0  0  0  0  0  0  0
   35.4880   31.0590   31.9130 H   0  0  0  0  0  0  0  0  0  0  0  0
   37.5110   30.4460   30.3140 H   0  0  0  0  0  0  0  0  0  0  0  0
   35.8330   30.3590   29.7960 H   0  0  0  0  0  0  0  0  0  0  0  0
   37.8440   28.1760   30.0650 H   0  0  0  0  0  0  0  0  0  0  0  0
   36.4060   28.3060   29.0610 H   0  0  0  0  0  0  0  0  0  0  0  0
   36.4810   26.4700   30.8400 H   0  0  0  0  0  0  0  0  0  0  0  0
   34.9560   27.4830   30.7170 H   0  0  0  0  0  0  0  0  0  0  0  0
   35.7770   27.0740   33.0620 H   0  0  0  0  0  0  0  0  0  0  0  0
   34.2240   29.3250   33.3440 C   0  0  0  0  0  0  0  0  0  0  0  0
   34.1890   29.7580   34.6670 C   0  0  0  0  0  0  0  0  0  0  0  0
   32.9310   29.8980   35.2630 C   0  0  0  0  0  0  0  0  0  0  0  0
   31.8320   29.6070   34.5300 N   0  0  0  0  0  0  0  0  0  0  0  0
   31.9150   29.1870   33.2430 C   0  0  0  0  0  0  0  0  0  0  0  0
   33.1210   29.0480   32.6580 N   0  0  0  0  0  0  0  0  0  0  0  0
   35.1120   29.9600   35.1530 H   0  0  0  0  0  0  0  0  0  0  0  0
   32.8990   30.2340   36.2890 H   0  0  0  0  0  0  0  0  0  0  0  0
   31.0040   28.9680   32.7010 H   0  0  0  0  0  0  0  0  0  0  0  0
   37.5240   28.0640   32.6680 O   0  0  0  0  0  0  0  0  0  0  0  0
   39.5850   28.2980   36.0290 H   0  0  0  0  0  0  0  0  0  0  0  0
   39.2640   27.3730   35.7010 N   0  0  0  0  0  0  0  0  0  0  0  0
   40.0450   26.7490   34.6850 C   0  0  0  0  0  2  0  0  0  0  0  0
   39.5680   26.9840   33.2820 C   0  0  0  0  0  2  0  0  0  0  0  0
   38.0840   26.8920   33.1480 C   0  0  0  0  0  3  0  0  0  0  0  0
   37.3600   26.5100   34.4100 C   0  0  0  0  0  2  0  0  0  0  0  0
   37.8600   27.1570   35.6510 C   0  0  0  0  0  2  0  0  0  0  0  0
  1 16  1  0  0  0  0
  2  8  1  0  0  0  0
  2  7  1  0  0  0  0
  2  1  1  0  0  0  0
  3  2  1  0  0  0  0
  4  3  1  0  0  0  0
  4  5  1  0  0  0  0
  5  6  1  0  0  0  0
  6  1  1  0  0  0  0
  6 25  1  0  0  0  0
  6 15  1  1  0  0  0
  9  3  1  0  0  0  0
 10  3  1  0  0  0  0
 11  4  1  0  0  0  0
 12  4  1  0  0  0  0
 13  5  1  0  0  0  0
 14  5  1  0  0  0  0
 16 17  1  0  0  0  0
 17 22  1  0  0  0  0
 17 18  2  0  0  0  0
 18 23  1  0  0  0  0
 19 18  1  0  0  0  0
 20 19  2  0  0  0  0
 21 20  1  0  0  0  0
 21 16  2  0  0  0  0
 24 20  1  0  0  0  0
 25 30  1  0  0  0  0
 27 26  1  0  0  0  0
 28 27  1  0  0  0  0
 29 28  1  0  0  0  0
 30 29  1  0  0  0  0
 30 31  1  0  0  0  0
 31 32  1  0  0  0  0
 32 27  1  0  0  0  0
M  END
>  <minimizedAffinity>
-4.57174683

$$$$

 OpenBabel03272503003D

 32 34  0  0  1  0  0  0  0  0999 V2000
   35.4560   30.0730   33.5670 N   0  0  0  0  0  0  0  0  0  0  0  0
   35.7270   31.2690   32.8030 C   0  0  0  0  0  0  0  0  0  0  0  0
   36.2110   32.4500   33.5240 C   0  0  0  0  0  0  0  0  0  0  0  0
   35.8910   32.5790   34.9530 C   0  0  0  0  0  0  0  0  0  0  0  0
   35.5540   31.2900   35.6380 C   0  0  0  0  0  0  0  0  0  0  0  0
   34.6720   30.4390   34.7230 C   0  0  1  0  0  0  0  0  0  0  0  0
   34.7870   31.5040   32.2420 H   0  0  0  0  0  0  0  0  0  0  0  0
   36.4460   30.9640   32.0150 H   0  0  0  0  0  0  0  0  0  0  0  0
   35.8400   33.3520   32.9900 H   0  0  0  0  0  0  0  0  0  0  0  0
   37.3320   32.5140   33.3960 H   0  0  0  0  0  0  0  0  0  0  0  0
   35.0640   33.3010   35.1620 H   0  0  0  0  0  0  0  0  0  0  0  0
   36.7610   33.0060   35.5200 H   0  0  0  0  0  0  0  0  0  0  0  0
   35.0130   31.4720   36.5850 H   0  0  0  0  0  0  0  0  0  0  0  0
   36.4830   30.6910   35.8130 H   0  0  0  0  0  0  0  0  0  0  0  0
   34.2860   29.5800   35.2860 H   0  0  0  0  0  0  0  0  0  0  0  0
   35.9000   28.7500   33.2210 C   0  0  0  0  0  0  0  0  0  0  0  0
   36.6950   27.9570   34.0440 C   0  0  0  0  0  0  0  0  0  0  0  0
   37.0480   26.6900   33.5680 C   0  0  0  0  0  0  0  0  0  0  0  0
   36.6020   26.3100   32.3500 N   0  0  0  0  0  0  0  0  0  0  0  0
   35.8290   27.1170   31.5810 C   0  0  0  0  0  0  0  0  0  0  0  0
   35.4820   28.3400   32.0280 N   0  0  0  0  0  0  0  0  0  0  0  0
   36.9920   28.3520   34.9850 H   0  0  0  0  0  0  0  0  0  0  0  0
   37.6650   26.0720   34.2050 H   0  0  0  0  0  0  0  0  0  0  0  0
   35.4980   26.7630   30.6130 H   0  0  0  0  0  0  0  0  0  0  0  0
   33.6030   31.2720   34.3620 O   0  0  0  0  0  0  0  0  0  0  0  0
   32.8830   30.5260   38.1720 H   0  0  0  0  0  0  0  0  0  0  0  0
   32.0960   30.5200   37.5030 N   0  0  0  0  0  0  0  0  0  0  0  0
   31.9250   29.3370   36.7260 C   0  0  0  0  0  2  0  0  0  0  0  0
   32.5740   29.3650   35.3730 C   0  0  0  0  0  2  0  0  0  0  0  0
   32.3940   30.6690   34.6690 C   0  0  0  0  0  3  0  0  0  0  0  0
   31.5460   31.6710   35.4030 C   0  0  0  0  0  2  0  0  0  0  0  0
   31.7810   31.7520   36.8680 C   0  0  0  0  0  2  0  0  0  0  0  0
  1  6  1  0  0  0  0
  2  3  1  0  0  0  0
  2  1  1  0  0  0  0
  3  4  1  0  0  0  0
  4 11  1  0  0  0  0
  4 12  1  0  0  0  0
  4  5  1  0  0  0  0
  5 14  1  0  0  0  0
  5 13  1  0  0  0  0
  6 15  1  1  0  0  0
  6  5  1  0  0  0  0
  7  2  1  0  0  0  0
  8  2  1  0  0  0  0
  9  3  1  0  0  0  0
 10  3  1  0  0  0  0
 16  1  1  0  0  0  0
 16 17  1  0  0  0  0
 17 22  1  0  0  0  0
 18 17  2  0  0  0  0
 18 23  1  0  0  0  0
 19 18  1  0  0  0  0
 20 21  1  0  0  0  0
 20 19  2  0  0  0  0
 21 16  2  0  0  0  0
 24 20  1  0  0  0  0
 25 30  1  0  0  0  0
 25  6  1  0  0  0  0
 27 26  1  0  0  0  0
 28 27  1  0  0  0  0
 29 28  1  0  0  0  0
 30 29  1  0  0  0  0
 30 31  1  0  0  0  0
 31 32  1  0  0  0  0
 32 27  1  0  0  0  0
M  END
>  <minimizedAffinity>
-4.54619455

$$$$
