
 OpenBabel03272502583D

 32 34  0  0  1  0  0  0  0  0999 V2000
   36.4440   29.9600   48.5850 N   0  0  0  0  0  0  0  0  0  0  0  0
   37.3630   29.3050   49.4870 C   0  0  0  0  0  0  0  0  0  0  0  0
   37.9990   30.1160   50.5300 C   0  0  0  0  0  0  0  0  0  0  0  0
   38.1370   31.5620   50.3060 C   0  0  0  0  0  0  0  0  0  0  0  0
   37.1860   32.1320   49.2990 C   0  0  0  0  0  0  0  0  0  0  0  0
   37.0630   31.1760   48.1110 C   0  0  1  0  0  0  0  0  0  0  0  0
   38.1340   28.8070   48.8460 H   0  0  0  0  0  0  0  0  0  0  0  0
   36.7930   28.4620   49.9330 H   0  0  0  0  0  0  0  0  0  0  0  0
   39.0050   29.6860   50.7310 H   0  0  0  0  0  0  0  0  0  0  0  0
   37.4460   29.9490   51.5010 H   0  0  0  0  0  0  0  0  0  0  0  0
   39.1690   31.8730   50.0140 H   0  0  0  0  0  0  0  0  0  0  0  0
   37.9510   32.1320   51.2560 H   0  0  0  0  0  0  0  0  0  0  0  0
   37.5390   33.1140   48.9310 H   0  0  0  0  0  0  0  0  0  0  0  0
   36.1600   32.2120   49.7380 H   0  0  0  0  0  0  0  0  0  0  0  0
   36.5080   31.6690   47.3030 H   0  0  0  0  0  0  0  0  0  0  0  0
   35.1410   29.4710   48.2280 C   0  0  0  0  0  0  0  0  0  0  0  0
   34.4090   29.9340   47.1380 C   0  0  0  0  0  0  0  0  0  0  0  0
   33.1520   29.3610   46.9180 C   0  0  0  0  0  0  0  0  0  0  0  0
   32.7230   28.4000   47.7680 N   0  0  0  0  0  0  0  0  0  0  0  0
   33.4700   27.9810   48.8190 C   0  0  0  0  0  0  0  0  0  0  0  0
   34.6830   28.5250   49.0410 N   0  0  0  0  0  0  0  0  0  0  0  0
   34.8400   30.6930   46.5310 H   0  0  0  0  0  0  0  0  0  0  0  0
   32.5820   29.7170   46.0730 H   0  0  0  0  0  0  0  0  0  0  0  0
   33.0790   27.2090   49.4690 H   0  0  0  0  0  0  0  0  0  0  0  0
   38.3800   30.9400   47.6900 O   0  0  0  0  0  0  0  0  0  0  0  0
   40.1780   29.1220   44.6820 H   0  0  0  0  0  0  0  0  0  0  0  0
   39.7190   30.0320   44.5130 N   0  0  0  0  0  0  0  0  0  0  0  0
   40.4490   31.1950   44.8970 C   0  0  0  0  0  2  0  0  0  0  0  0
   40.1350   31.7210   46.2670 C   0  0  0  0  0  2  0  0  0  0  0  0
   38.6750   31.7060   46.5740 C   0  0  0  0  0  3  0  0  0  0  0  0
   37.7950   31.2450   45.4440 C   0  0  0  0  0  2  0  0  0  0  0  0
   38.3080   30.0820   44.6740 C   0  0  0  0  0  2  0  0  0  0  0  0
  1  2  1  0  0  0  0
  2  8  1  0  0  0  0
  2  3  1  0  0  0  0
  3  9  1  0  0  0  0
  3 10  1  0  0  0  0
  4  3  1  0  0  0  0
  4 12  1  0  0  0  0
  5 14  1  0  0  0  0
  5  4  1  0  0  0  0
  6 15  1  6  0  0  0
  6  1  1  0  0  0  0
  6  5  1  0  0  0  0
  7  2  1  0  0  0  0
 11  4  1  0  0  0  0
 13  5  1  0  0  0  0
 16  1  1  0  0  0  0
 16 21  1  0  0  0  0
 17 16  2  0  0  0  0
 18 17  1  0  0  0  0
 18 19  2  0  0  0  0
 19 20  1  0  0  0  0
 20 21  2  0  0  0  0
 20 24  1  0  0  0  0
 22 17  1  0  0  0  0
 23 18  1  0  0  0  0
 25  6  1  0  0  0  0
 27 32  1  0  0  0  0
 27 26  1  0  0  0  0
 27 28  1  0  0  0  0
 28 29  1  0  0  0  0
 29 30  1  0  0  0  0
 30 25  1  0  0  0  0
 31 30  1  0  0  0  0
 32 31  1  0  0  0  0
M  END
>  <minimizedAffinity>
-5.29174137

>  <minimizedRMSD>
1.47038174

$$$$
