
 OpenBabel03272502593D

 32 34  0  0  1  0  0  0  0  0999 V2000
   35.9350   29.7770   48.7390 N   0  0  0  0  0  0  0  0  0  0  0  0
   36.8650   29.0030   49.5310 C   0  0  0  0  0  0  0  0  0  0  0  0
   37.4430   29.6320   50.7220 C   0  0  0  0  0  0  0  0  0  0  0  0
   37.5200   31.0990   50.7710 C   0  0  0  0  0  0  0  0  0  0  0  0
   36.5650   31.8070   49.8600 C   0  0  0  0  0  0  0  0  0  0  0  0
   36.5080   31.0830   48.5140 C   0  0  1  0  0  0  0  0  0  0  0  0
   37.6700   28.6640   48.8290 H   0  0  0  0  0  0  0  0  0  0  0  0
   36.3250   28.0700   49.7980 H   0  0  0  0  0  0  0  0  0  0  0  0
   38.4640   29.2140   50.8680 H   0  0  0  0  0  0  0  0  0  0  0  0
   36.8800   29.2660   51.6300 H   0  0  0  0  0  0  0  0  0  0  0  0
   38.5430   31.5010   50.5690 H   0  0  0  0  0  0  0  0  0  0  0  0
   37.2910   31.4760   51.8040 H   0  0  0  0  0  0  0  0  0  0  0  0
   36.8800   32.8540   49.6890 H   0  0  0  0  0  0  0  0  0  0  0  0
   35.5280   31.7630   50.2780 H   0  0  0  0  0  0  0  0  0  0  0  0
   35.9470   31.6940   47.7960 H   0  0  0  0  0  0  0  0  0  0  0  0
   34.6620   29.3090   48.2630 C   0  0  0  0  0  0  0  0  0  0  0  0
   34.0780   29.7280   47.0710 C   0  0  0  0  0  0  0  0  0  0  0  0
   32.8320   29.1840   46.7410 C   0  0  0  0  0  0  0  0  0  0  0  0
   32.2720   28.2920   47.5900 N   0  0  0  0  0  0  0  0  0  0  0  0
   32.8780   27.9130   48.7420 C   0  0  0  0  0  0  0  0  0  0  0  0
   34.0780   28.4300   49.0710 N   0  0  0  0  0  0  0  0  0  0  0  0
   34.6040   30.4340   46.4760 H   0  0  0  0  0  0  0  0  0  0  0  0
   32.3750   29.5060   45.8170 H   0  0  0  0  0  0  0  0  0  0  0  0
   32.3850   27.1950   49.3850 H   0  0  0  0  0  0  0  0  0  0  0  0
   37.8420   30.9830   48.0930 O   0  0  0  0  0  0  0  0  0  0  0  0
   41.0260   30.1870   45.8970 H   0  0  0  0  0  0  0  0  0  0  0  0
   40.2740   30.7720   45.4950 N   0  0  0  0  0  0  0  0  0  0  0  0
   40.2640   32.1460   45.8730 C   0  0  0  0  0  2  0  0  0  0  0  0
   39.3780   32.4800   47.0380 C   0  0  0  0  0  2  0  0  0  0  0  0
   38.0590   31.7830   46.9830 C   0  0  0  0  0  3  0  0  0  0  0  0
   37.8360   30.9480   45.7530 C   0  0  0  0  0  2  0  0  0  0  0  0
   39.0090   30.1520   45.3030 C   0  0  0  0  0  2  0  0  0  0  0  0
  1  2  1  0  0  0  0
  2  8  1  0  0  0  0
  2  3  1  0  0  0  0
  3  4  1  0  0  0  0
  3  9  1  0  0  0  0
  3 10  1  0  0  0  0
  4 12  1  0  0  0  0
  5 14  1  0  0  0  0
  5  4  1  0  0  0  0
  6 15  1  6  0  0  0
  6  1  1  0  0  0  0
  6  5  1  0  0  0  0
  7  2  1  0  0  0  0
 11  4  1  0  0  0  0
 13  5  1  0  0  0  0
 16  1  1  0  0  0  0
 16 21  1  0  0  0  0
 17 16  2  0  0  0  0
 18 17  1  0  0  0  0
 18 19  2  0  0  0  0
 19 20  1  0  0  0  0
 20 21  2  0  0  0  0
 20 24  1  0  0  0  0
 22 17  1  0  0  0  0
 23 18  1  0  0  0  0
 25  6  1  0  0  0  0
 27 28  1  0  0  0  0
 27 26  1  0  0  0  0
 28 29  1  0  0  0  0
 30 29  1  0  0  0  0
 30 25  1  0  0  0  0
 31 30  1  0  0  0  0
 32 27  1  0  0  0  0
 32 31  1  0  0  0  0
M  END
>  <minimizedAffinity>
-5.55990696

>  <minimizedRMSD>
1.31404042

$$$$
