
 OpenBabel03272502593D

 32 34  0  0  1  0  0  0  0  0999 V2000
   36.7960   30.1750   48.5590 N   0  0  0  0  0  0  0  0  0  0  0  0
   37.6860   29.7820   49.6280 C   0  0  0  0  0  0  0  0  0  0  0  0
   38.3060   30.8420   50.4300 C   0  0  0  0  0  0  0  0  0  0  0  0
   38.4660   32.1730   49.8280 C   0  0  0  0  0  0  0  0  0  0  0  0
   37.5460   32.4550   48.6800 C   0  0  0  0  0  0  0  0  0  0  0  0
   37.4400   31.2150   47.7910 C   0  0  1  0  0  0  0  0  0  0  0  0
   38.4650   29.1260   49.1650 H   0  0  0  0  0  0  0  0  0  0  0  0
   37.0960   29.0940   50.2700 H   0  0  0  0  0  0  0  0  0  0  0  0
   39.3020   30.4770   50.7650 H   0  0  0  0  0  0  0  0  0  0  0  0
   37.7280   30.9450   51.3950 H   0  0  0  0  0  0  0  0  0  0  0  0
   39.5080   32.3880   49.4890 H   0  0  0  0  0  0  0  0  0  0  0  0
   38.2650   32.9790   50.5840 H   0  0  0  0  0  0  0  0  0  0  0  0
   37.9190   33.2990   48.0700 H   0  0  0  0  0  0  0  0  0  0  0  0
   36.5110   32.6550   49.0540 H   0  0  0  0  0  0  0  0  0  0  0  0
   36.9100   31.4740   46.8660 H   0  0  0  0  0  0  0  0  0  0  0  0
   35.4960   29.6130   48.3140 C   0  0  0  0  0  0  0  0  0  0  0  0
   34.6650   30.0060   47.2680 C   0  0  0  0  0  0  0  0  0  0  0  0
   33.4250   29.3680   47.1590 C   0  0  0  0  0  0  0  0  0  0  0  0
   33.1060   28.4170   48.0650 N   0  0  0  0  0  0  0  0  0  0  0  0
   33.9470   28.0660   49.0690 C   0  0  0  0  0  0  0  0  0  0  0  0
   35.1450   28.6740   49.1850 N   0  0  0  0  0  0  0  0  0  0  0  0
   35.0130   30.7650   46.6100 H   0  0  0  0  0  0  0  0  0  0  0  0
   32.7780   29.6700   46.3480 H   0  0  0  0  0  0  0  0  0  0  0  0
   33.6430   27.2980   49.7680 H   0  0  0  0  0  0  0  0  0  0  0  0
   38.7630   30.8670   47.4830 O   0  0  0  0  0  0  0  0  0  0  0  0
   38.7460   34.2490   45.4440 H   0  0  0  0  0  0  0  0  0  0  0  0
   39.1320   33.3980   45.0000 N   0  0  0  0  0  0  0  0  0  0  0  0
   38.1900   32.4830   44.4480 C   0  0  0  0  0  2  0  0  0  0  0  0
   37.7840   31.3600   45.3580 C   0  0  0  0  0  2  0  0  0  0  0  0
   38.9330   30.7780   46.1110 C   0  0  0  0  0  3  0  0  0  0  0  0
   40.2760   31.3640   45.7680 C   0  0  0  0  0  2  0  0  0  0  0  0
   40.2980   32.8390   45.5880 C   0  0  0  0  0  2  0  0  0  0  0  0
  1  2  1  0  0  0  0
  2  8  1  0  0  0  0
  2  3  1  0  0  0  0
  3  9  1  0  0  0  0
  3 10  1  0  0  0  0
  4  3  1  0  0  0  0
  4 12  1  0  0  0  0
  5 14  1  0  0  0  0
  5  4  1  0  0  0  0
  6 15  1  6  0  0  0
  6  1  1  0  0  0  0
  6  5  1  0  0  0  0
  7  2  1  0  0  0  0
 11  4  1  0  0  0  0
 13  5  1  0  0  0  0
 16  1  1  0  0  0  0
 16 21  1  0  0  0  0
 17 16  2  0  0  0  0
 18 17  1  0  0  0  0
 18 19  2  0  0  0  0
 19 20  1  0  0  0  0
 20 21  2  0  0  0  0
 20 24  1  0  0  0  0
 22 17  1  0  0  0  0
 23 18  1  0  0  0  0
 25  6  1  0  0  0  0
 27 26  1  0  0  0  0
 27 32  1  0  0  0  0
 28 27  1  0  0  0  0
 28 29  1  0  0  0  0
 29 30  1  0  0  0  0
 30 25  1  0  0  0  0
 31 30  1  0  0  0  0
 32 31  1  0  0  0  0
M  END
>  <minimizedAffinity>
-5.87206602

>  <minimizedRMSD>
1.52901769

$$$$
