
 OpenBabel03272502583D

 32 34  0  0  1  0  0  0  0  0999 V2000
   35.8120   29.6830   48.7340 N   0  0  0  0  0  0  0  0  0  0  0  0
   36.7160   28.9100   49.5550 C   0  0  0  0  0  0  0  0  0  0  0  0
   37.2910   29.5550   50.7390 C   0  0  0  0  0  0  0  0  0  0  0  0
   37.3970   31.0210   50.7560 C   0  0  0  0  0  0  0  0  0  0  0  0
   36.4680   31.7260   49.8160 C   0  0  0  0  0  0  0  0  0  0  0  0
   36.4130   30.9720   48.4870 C   0  0  1  0  0  0  0  0  0  0  0  0
   37.5220   28.5390   48.8730 H   0  0  0  0  0  0  0  0  0  0  0  0
   36.1540   27.9940   49.8370 H   0  0  0  0  0  0  0  0  0  0  0  0
   38.3010   29.1200   50.9080 H   0  0  0  0  0  0  0  0  0  0  0  0
   36.7090   29.2220   51.6480 H   0  0  0  0  0  0  0  0  0  0  0  0
   38.4300   31.3970   50.5580 H   0  0  0  0  0  0  0  0  0  0  0  0
   37.1620   31.4270   51.7760 H   0  0  0  0  0  0  0  0  0  0  0  0
   36.8060   32.7620   49.6250 H   0  0  0  0  0  0  0  0  0  0  0  0
   35.4240   31.7120   50.2210 H   0  0  0  0  0  0  0  0  0  0  0  0
   35.8730   31.5770   47.7470 H   0  0  0  0  0  0  0  0  0  0  0  0
   34.5360   29.2290   48.2530 C   0  0  0  0  0  0  0  0  0  0  0  0
   33.9690   29.6420   47.0500 C   0  0  0  0  0  0  0  0  0  0  0  0
   32.7170   29.1130   46.7160 C   0  0  0  0  0  0  0  0  0  0  0  0
   32.1350   28.2410   47.5700 N   0  0  0  0  0  0  0  0  0  0  0  0
   32.7250   27.8680   48.7330 C   0  0  0  0  0  0  0  0  0  0  0  0
   33.9310   28.3700   49.0660 N   0  0  0  0  0  0  0  0  0  0  0  0
   34.5110   30.3310   46.4510 H   0  0  0  0  0  0  0  0  0  0  0  0
   32.2740   29.4300   45.7830 H   0  0  0  0  0  0  0  0  0  0  0  0
   32.2150   27.1670   49.3810 H   0  0  0  0  0  0  0  0  0  0  0  0
   37.7500   30.8350   48.0850 O   0  0  0  0  0  0  0  0  0  0  0  0
   40.7270   29.8390   45.6910 H   0  0  0  0  0  0  0  0  0  0  0  0
   40.0420   30.5450   45.3710 N   0  0  0  0  0  0  0  0  0  0  0  0
   40.2210   31.8720   45.8570 C   0  0  0  0  0  2  0  0  0  0  0  0
   39.4270   32.2140   47.0830 C   0  0  0  0  0  2  0  0  0  0  0  0
   38.0290   31.6930   47.0340 C   0  0  0  0  0  3  0  0  0  0  0  0
   37.6570   30.9990   45.7530 C   0  0  0  0  0  2  0  0  0  0  0  0
   38.7030   30.1060   45.1880 C   0  0  0  0  0  2  0  0  0  0  0  0
  1  2  1  0  0  0  0
  2  8  1  0  0  0  0
  2  3  1  0  0  0  0
  3  4  1  0  0  0  0
  3  9  1  0  0  0  0
  3 10  1  0  0  0  0
  4 12  1  0  0  0  0
  5 14  1  0  0  0  0
  5  4  1  0  0  0  0
  6 15  1  6  0  0  0
  6  1  1  0  0  0  0
  6  5  1  0  0  0  0
  7  2  1  0  0  0  0
 11  4  1  0  0  0  0
 13  5  1  0  0  0  0
 16  1  1  0  0  0  0
 16 21  1  0  0  0  0
 17 16  2  0  0  0  0
 18 17  1  0  0  0  0
 18 19  2  0  0  0  0
 19 20  1  0  0  0  0
 20 21  2  0  0  0  0
 20 24  1  0  0  0  0
 22 17  1  0  0  0  0
 23 18  1  0  0  0  0
 25  6  1  0  0  0  0
 27 26  1  0  0  0  0
 27 28  1  0  0  0  0
 28 29  1  0  0  0  0
 30 29  1  0  0  0  0
 30 25  1  0  0  0  0
 31 30  1  0  0  0  0
 32 27  1  0  0  0  0
 32 31  1  0  0  0  0
M  END
>  <minimizedAffinity>
-5.536901

>  <minimizedRMSD>
1.11132598

$$$$
