
 OpenBabel03262520113D

 34 36  0  0  0  0  0  0  0  0999 V2000
   37.2950   31.7300   48.1910 Br  0  0  0  0  0  0  0  0  0  0  0  0
   36.5190   30.8310   46.6890 C   0  0  0  0  0  0  0  0  0  0  0  0
   37.1900   30.7510   45.4970 C   0  0  0  0  0  0  0  0  0  0  0  0
   36.5830   30.0940   44.4500 C   0  0  0  0  0  0  0  0  0  0  0  0
   35.3390   29.5240   44.5610 C   0  0  0  0  0  0  0  0  0  0  0  0
   34.6850   29.6220   45.7830 C   0  0  0  0  0  0  0  0  0  0  0  0
   35.2920   30.2830   46.8450 C   0  0  0  0  0  0  0  0  0  0  0  0
   37.1550   30.0580   43.5320 H   0  0  0  0  0  0  0  0  0  0  0  0
   34.9710   29.0410   43.6840 H   0  0  0  0  0  0  0  0  0  0  0  0
   33.7260   29.1360   45.7260 H   0  0  0  0  0  0  0  0  0  0  0  0
   39.7820   33.2170   44.7500 C   0  0  0  0  0  0  0  0  0  0  0  0
   40.9990   32.5140   44.9980 C   0  0  0  0  0  0  0  0  0  0  0  0
   40.8920   31.1980   45.4220 C   0  0  0  0  0  0  0  0  0  0  0  0
   39.6520   30.6320   45.5840 N   0  0  0  0  0  0  0  0  0  0  0  0
   38.5230   31.3490   45.3320 C   0  0  0  0  0  0  0  0  0  0  0  0
   38.6090   32.6310   44.9190 N   0  0  0  0  0  0  0  0  0  0  0  0
   39.8180   34.2300   44.4250 H   0  0  0  0  0  0  0  0  0  0  0  0
   41.9610   33.0130   44.8570 H   0  0  0  0  0  0  0  0  0  0  0  0
   41.8010   30.6160   45.6260 H   0  0  0  0  0  0  0  0  0  0  0  0
   34.4790   30.3140   48.0970 C   0  0  0  0  0  0  0  0  0  0  0  0
   33.4630   30.6700   47.8040 H   0  0  0  0  0  0  0  0  0  0  0  0
   34.8810   31.0620   48.8170 H   0  0  0  0  0  0  0  0  0  0  0  0
   34.3940   28.9940   48.7800 C   0  0  0  0  0  0  0  0  0  0  0  0
   33.9790   29.2280   49.8130 H   0  0  0  0  0  0  0  0  0  0  0  0
   33.7190   28.2540   48.3780 H   0  0  0  0  0  0  0  0  0  0  0  0
   35.7450   28.5360   49.0580 N   0  0  0  0  0  0  0  0  0  0  0  0
   36.0120   27.7030   48.4980 H   0  0  0  0  0  0  0  0  0  0  0  0
   38.4550   30.6050   52.2540 H   0  0  0  0  0  0  0  0  0  0  0  0
   37.7840   30.2890   51.5590 N   0  0  0  0  0  0  0  0  0  0  0  0
   36.4260   30.5870   51.6500 C   0  0  0  0  0  2  0  0  0  0  0  0
   35.4530   29.5190   51.2800 C   0  0  0  0  0  2  0  0  0  0  0  0
   35.9840   28.4000   50.4680 C   0  0  0  0  0  3  0  0  0  0  0  0
   37.4530   28.1260   50.6970 C   0  0  0  0  0  2  0  0  0  0  0  0
   38.2520   29.4310   50.5330 C   0  0  0  0  0  2  0  0  0  0  0  0
  2  7  1  0  0  0  0
  2  1  1  0  0  0  0
  3  2  2  0  0  0  0
  4  5  2  0  0  0  0
  4  3  1  0  0  0  0
  5  6  1  0  0  0  0
  6  7  2  0  0  0  0
  7 20  1  0  0  0  0
  8  4  1  0  0  0  0
  9  5  1  0  0  0  0
 10  6  1  0  0  0  0
 11 16  2  0  0  0  0
 11 12  1  0  0  0  0
 12 13  2  0  0  0  0
 13 14  1  0  0  0  0
 13 19  1  0  0  0  0
 15  3  1  0  0  0  0
 15 14  2  0  0  0  0
 16 15  1  0  0  0  0
 17 11  1  0  0  0  0
 18 12  1  0  0  0  0
 20 23  1  0  0  0  0
 20 22  1  0  0  0  0
 21 20  1  0  0  0  0
 23 26  1  0  0  0  0
 23 24  1  0  0  0  0
 25 23  1  0  0  0  0
 26 32  1  0  0  0  0
 27 26  1  0  0  0  0
 29 30  1  0  0  0  0
 29 28  1  0  0  0  0
 31 30  1  0  0  0  0
 32 33  1  0  0  0  0
 32 31  1  0  0  0  0
 34 33  1  0  0  0  0
 34 29  1  0  0  0  0
M  END
>  <minimizedAffinity>
-2.81196046

>  <minimizedRMSD>
0.9224841

$$$$
