
 OpenBabel03272503313D

 39 42  0  0  1  0  0  0  0  0999 V2000
   35.4880   29.5160   47.9040 C   0  0  0  0  0  0  0  0  0  0  0  0
   35.3730   30.0800   46.6270 C   0  0  0  0  0  0  0  0  0  0  0  0
   34.2690   29.7030   45.8560 C   0  0  0  0  0  0  0  0  0  0  0  0
   33.3800   28.8050   46.4120 N   0  0  0  0  0  0  0  0  0  0  0  0
   33.5300   28.2960   47.6280 C   0  0  0  0  0  0  0  0  0  0  0  0
   34.5850   28.6500   48.3790 N   0  0  0  0  0  0  0  0  0  0  0  0
   36.0550   30.7750   46.1850 H   0  0  0  0  0  0  0  0  0  0  0  0
   34.1040   30.0950   44.8520 H   0  0  0  0  0  0  0  0  0  0  0  0
   36.6250   29.9140   48.6780 N   0  0  0  0  0  0  0  0  0  0  0  0
   37.7480   30.6930   48.2580 C   0  0  0  0  0  0  0  0  0  0  0  0
   38.1940   31.3600   49.5480 C   0  0  2  0  0  0  0  0  0  0  0  0
   37.1690   30.9720   50.6050 C   0  0  0  0  0  0  0  0  0  0  0  0
   36.8510   29.5860   50.0850 C   0  0  0  0  0  0  0  0  0  0  0  0
   37.5240   31.4140   47.4600 H   0  0  0  0  0  0  0  0  0  0  0  0
   38.5510   29.9790   47.9140 H   0  0  0  0  0  0  0  0  0  0  0  0
   39.1580   30.9220   49.8940 H   0  0  0  0  0  0  0  0  0  0  0  0
   37.6050   30.9550   51.6140 H   0  0  0  0  0  0  0  0  0  0  0  0
   36.2900   31.6020   50.4960 H   0  0  0  0  0  0  0  0  0  0  0  0
   37.7160   28.8980   50.1760 H   0  0  0  0  0  0  0  0  0  0  0  0
   35.9230   29.1590   50.5080 H   0  0  0  0  0  0  0  0  0  0  0  0
   38.3230   32.8530   49.3980 C   0  0  0  0  0  0  0  0  0  0  0  0
   37.1440   33.3950   49.8660 F   0  0  0  0  0  0  0  0  0  0  0  0
   38.3790   33.1310   48.0630 F   0  0  0  0  0  0  0  0  0  0  0  0
   39.4120   33.3700   50.0540 F   0  0  0  0  0  0  0  0  0  0  0  0
   32.3480   27.1510   48.2800 S   0  0  0  0  0  0  0  0  0  0  0  0
   30.8300   27.7310   48.7340 C   0  0  0  0  0  0  0  0  0  0  0  0
   30.0420   27.9150   49.8320 C   0  0  0  0  0  0  0  0  0  0  0  0
   28.7970   28.4420   49.8200 C   0  0  0  0  0  0  0  0  0  0  0  0
   28.3290   28.8210   48.4600 C   0  0  0  0  0  0  0  0  0  0  0  0
   29.7250   28.3790   47.3720 S   0  0  0  0  0  0  0  0  0  0  0  0
   30.5400   27.5860   50.7310 H   0  0  0  0  0  0  0  0  0  0  0  0
   28.1750   28.5890   50.6800 H   0  0  0  0  0  0  0  0  0  0  0  0
   27.0800   29.3770   48.2110 N   0  0  0  0  0  0  0  0  0  0  0  0
   26.6370   30.7410   48.0310 C   0  0  0  0  0  0  0  0  0  0  0  0
   25.4710   31.1410   48.8650 C   0  0  0  0  0  0  0  0  0  0  0  0
   24.4810   30.0690   49.1700 C   0  0  0  0  0  0  0  0  0  0  0  0
   23.9440   30.2940   50.1000 H   0  0  0  0  0  0  0  0  0  0  0  0
   25.1410   28.7000   49.3770 C   0  0  0  0  0  0  0  0  0  0  0  0
   25.9450   28.4830   48.0900 C   0  0  0  0  0  0  0  0  0  0  0  0
  1  6  1  0  0  0  0
  1  9  1  0  0  0  0
  2  1  2  0  0  0  0
  3  4  2  0  0  0  0
  3  2  1  0  0  0  0
  4  5  1  0  0  0  0
  5 25  1  0  0  0  0
  5  6  2  0  0  0  0
  7  2  1  0  0  0  0
  8  3  1  0  0  0  0
  9 13  1  0  0  0  0
 10  9  1  0  0  0  0
 10 11  1  0  0  0  0
 11 16  1  1  0  0  0
 11 12  1  0  0  0  0
 12 17  1  0  0  0  0
 13 19  1  0  0  0  0
 13 20  1  0  0  0  0
 13 12  1  0  0  0  0
 14 10  1  0  0  0  0
 15 10  1  0  0  0  0
 18 12  1  0  0  0  0
 21 11  1  0  0  0  0
 21 22  1  0  0  0  0
 21 24  1  0  0  0  0
 23 21  1  0  0  0  0
 25 26  1  0  0  0  0
 26 27  2  0  0  0  0
 27 31  1  0  0  0  0
 28 27  1  0  0  0  0
 28 32  1  0  0  0  0
 29 28  2  0  0  0  0
 30 29  1  0  0  0  0
 30 26  1  0  0  0  0
 33 29  1  0  0  0  0
 34 33  1  0  0  0  0
 34 35  1  0  0  0  0
 35 36  1  0  0  0  0
 36 38  1  0  0  0  0
 36 37  1  0  0  0  0
 39 33  1  0  0  0  0
 39 38  1  0  0  0  0
M  END
>  <minimizedAffinity>
-7.90950298

>  <minimizedRMSD>
0.383937538

$$$$
