
 OpenBabel03272502383D

 38 41  0  0  1  0  0  0  0  0999 V2000
   31.7800   28.1240   45.9690 N   0  0  0  0  0  0  0  0  0  0  0  0
   32.9390   27.6700   45.2160 C   0  0  0  0  0  0  0  0  0  0  0  0
   34.0920   28.2480   45.9850 C   0  0  0  0  0  0  0  0  0  0  0  0
   33.4280   29.1400   47.1170 C   0  0  1  0  0  0  0  0  0  0  0  0
   32.1990   28.3860   47.3620 C   0  0  0  0  0  0  0  0  0  0  0  0
   32.9160   27.9470   44.1570 H   0  0  0  0  0  0  0  0  0  0  0  0
   32.9840   26.5510   45.3600 H   0  0  0  0  0  0  0  0  0  0  0  0
   34.6380   28.9370   45.3190 H   0  0  0  0  0  0  0  0  0  0  0  0
   34.7530   27.5280   46.4600 H   0  0  0  0  0  0  0  0  0  0  0  0
   33.3320   30.1060   46.6260 H   0  0  0  0  0  0  0  0  0  0  0  0
   32.3670   27.4070   47.8540 H   0  0  0  0  0  0  0  0  0  0  0  0
   31.3910   28.9580   47.8830 H   0  0  0  0  0  0  0  0  0  0  0  0
   35.7230   30.7900   46.9650 F   0  0  0  0  0  0  0  0  0  0  0  0
   35.4120   30.1060   48.0780 C   0  0  0  0  0  0  0  0  0  0  0  0
   34.3630   29.2390   48.2410 C   0  0  0  0  0  0  0  0  0  0  0  0
   34.2020   28.6090   49.4870 C   0  0  0  0  0  0  0  0  0  0  0  0
   35.0630   28.8390   50.5330 C   0  0  0  0  0  0  0  0  0  0  0  0
   36.1280   29.7250   50.3460 C   0  0  0  0  0  0  0  0  0  0  0  0
   36.2960   30.3590   49.1040 C   0  0  0  0  0  0  0  0  0  0  0  0
   33.3470   27.9480   49.5020 H   0  0  0  0  0  0  0  0  0  0  0  0
   34.8540   28.3090   51.4460 H   0  0  0  0  0  0  0  0  0  0  0  0
   36.7140   29.8130   51.2250 H   0  0  0  0  0  0  0  0  0  0  0  0
   37.3910   31.2390   48.9910 N   0  0  0  0  0  0  0  0  0  0  0  0
   38.6320   30.9980   48.3040 C   0  0  0  0  0  0  0  0  0  0  0  0
   38.6910   32.0810   47.2140 C   0  0  0  0  0  0  0  0  0  0  0  0
   39.1290   33.3400   47.9110 C   0  0  0  0  0  0  0  0  0  0  0  0
   40.2580   33.2970   47.9200 H   0  0  0  0  0  0  0  0  0  0  0  0
   38.6990   33.2820   49.3370 C   0  0  0  0  0  0  0  0  0  0  0  0
   37.3980   32.5570   49.5830 C   0  0  0  0  0  0  0  0  0  0  0  0
   30.4680   28.3020   45.4930 C   0  0  0  0  0  0  0  0  0  0  0  0
   30.3520   28.8960   44.2270 C   0  0  0  0  0  0  0  0  0  0  0  0
   29.0710   29.1100   43.6900 C   0  0  0  0  0  0  0  0  0  0  0  0
   28.0050   28.7080   44.4720 N   0  0  0  0  0  0  0  0  0  0  0  0
   28.1590   28.1420   45.6800 C   0  0  0  0  0  0  0  0  0  0  0  0
   29.3920   27.9390   46.1920 N   0  0  0  0  0  0  0  0  0  0  0  0
   31.1610   29.2220   43.5910 H   0  0  0  0  0  0  0  0  0  0  0  0
   28.9450   29.5600   42.7300 H   0  0  0  0  0  0  0  0  0  0  0  0
   27.2500   27.8690   46.1980 H   0  0  0  0  0  0  0  0  0  0  0  0
  1  5  1  0  0  0  0
  2  7  1  0  0  0  0
  2  1  1  0  0  0  0
  2  3  1  0  0  0  0
  3  9  1  0  0  0  0
  3  4  1  0  0  0  0
  4 10  1  6  0  0  0
  4  5  1  0  0  0  0
  4 15  1  0  0  0  0
  5 11  1  0  0  0  0
  5 12  1  0  0  0  0
  6  2  1  0  0  0  0
  8  3  1  0  0  0  0
 13 14  1  0  0  0  0
 14 15  2  0  0  0  0
 14 19  1  0  0  0  0
 15 16  1  0  0  0  0
 16 20  1  0  0  0  0
 16 17  2  0  0  0  0
 17 21  1  0  0  0  0
 18 17  1  0  0  0  0
 18 22  1  0  0  0  0
 19 18  2  0  0  0  0
 23 19  1  0  0  0  0
 23 29  1  0  0  0  0
 24 23  1  0  0  0  0
 25 26  1  0  0  0  0
 25 24  1  0  0  0  0
 26 27  1  0  0  0  0
 26 28  1  0  0  0  0
 28 29  1  0  0  0  0
 30  1  1  0  0  0  0
 30 35  1  0  0  0  0
 31 30  2  0  0  0  0
 32 31  1  0  0  0  0
 32 33  2  0  0  0  0
 33 34  1  0  0  0  0
 34 35  2  0  0  0  0
 34 38  1  0  0  0  0
 36 31  1  0  0  0  0
 37 32  1  0  0  0  0
M  END
>  <minimizedAffinity>
-5.53731585

>  <minimizedRMSD>
2.49376988

$$$$
