
 OpenBabel03272507593D

 30 32  0  0  0  0  0  0  0  0999 V2000
   38.4560   25.4260   35.3210 C   0  0  0  0  0  0  0  0  0  0  0  0
   38.3620   26.6570   35.9590 C   0  0  0  0  0  0  0  0  0  0  0  0
   37.7830   27.7210   35.2790 C   0  0  0  0  0  0  0  0  0  0  0  0
   37.3140   27.5350   33.9840 C   0  0  0  0  0  0  0  0  0  0  0  0
   37.4310   26.3010   33.3980 C   0  0  0  0  0  0  0  0  0  0  0  0
   37.9910   25.2970   34.0760 N   0  0  0  0  0  0  0  0  0  0  0  0
   38.6840   26.9480   36.9640 H   0  0  0  0  0  0  0  0  0  0  0  0
   37.6680   28.7120   35.6950 H   0  0  0  0  0  0  0  0  0  0  0  0
   36.8660   28.3670   33.4590 H   0  0  0  0  0  0  0  0  0  0  0  0
   36.9770   26.0250   32.0810 N   0  0  0  0  0  0  0  0  0  0  0  0
   37.6470   25.3080   31.0260 C   0  0  0  0  0  2  0  0  0  0  0  0
   36.9380   23.9970   30.8200 C   0  0  0  0  0  2  0  0  0  0  0  0
   35.4640   24.1770   30.5550 C   0  0  0  0  0  3  0  0  0  0  0  0
   35.3770   24.4170   29.4690 H   0  0  0  0  0  0  0  0  0  0  0  0
   34.8230   25.2520   31.3560 C   0  0  0  0  0  2  0  0  0  0  0  0
   35.6850   26.4680   31.6000 C   0  0  0  0  0  2  0  0  0  0  0  0
   40.9500   22.9630   36.6910 C   0  0  0  0  0  0  0  0  0  0  0  0
   40.3600   23.9480   35.8490 C   0  0  0  0  0  0  0  0  0  0  0  0
   39.0860   24.4170   36.1670 C   0  0  0  0  0  0  0  0  0  0  0  0
   38.4640   23.9080   37.2740 N   0  0  0  0  0  0  0  0  0  0  0  0
   39.0770   22.9640   38.0490 C   0  0  0  0  0  0  0  0  0  0  0  0
   40.2920   22.4970   37.7730 N   0  0  0  0  0  0  0  0  0  0  0  0
   38.2410   22.5870   39.1410 N   0  0  0  0  0  0  0  0  0  0  0  0
   41.9310   22.5810   36.4750 H   0  0  0  0  0  0  0  0  0  0  0  0
   38.1390   23.2600   39.9480 H   0  0  0  0  0  0  0  0  0  0  0  0
   37.7450   21.6520   39.1230 H   0  0  0  0  0  0  0  0  0  0  0  0
   41.1350   24.4280   34.6690 C   0  0  0  0  0  0  0  0  0  0  0  0
   41.2530   25.8080   34.6750 F   0  0  0  0  0  0  0  0  0  0  0  0
   42.3900   23.8850   34.7270 F   0  0  0  0  0  0  0  0  0  0  0  0
   40.5720   24.0540   33.4690 F   0  0  0  0  0  0  0  0  0  0  0  0
  1  2  1  0  0  0  0
  1 19  1  0  0  0  0
  2  7  1  0  0  0  0
  3  8  1  0  0  0  0
  3  2  2  0  0  0  0
  4  3  1  0  0  0  0
  5  4  2  0  0  0  0
  5  6  1  0  0  0  0
  6  1  2  0  0  0  0
  9  4  1  0  0  0  0
 10  5  1  0  0  0  0
 11 10  1  0  0  0  0
 12 11  1  0  0  0  0
 13 12  1  0  0  0  0
 13 15  1  0  0  0  0
 14 13  1  0  0  0  0
 15 16  1  0  0  0  0
 16 10  1  0  0  0  0
 17 22  1  0  0  0  0
 18 19  1  0  0  0  0
 18 17  2  0  0  0  0
 19 20  2  0  0  0  0
 20 21  1  0  0  0  0
 21 23  1  0  0  0  0
 22 21  2  0  0  0  0
 23 25  1  0  0  0  0
 24 17  1  0  0  0  0
 26 23  1  0  0  0  0
 27 28  1  0  0  0  0
 27 29  1  0  0  0  0
 27 18  1  0  0  0  0
 30 27  1  0  0  0  0
M  END
>  <minimizedAffinity>
-6.0589304

$$$$

 OpenBabel03272507593D

 30 32  0  0  0  0  0  0  0  0999 V2000
   39.9240   24.9340   34.5370 C   0  0  0  0  0  0  0  0  0  0  0  0
   40.6720   26.0920   34.7050 C   0  0  0  0  0  0  0  0  0  0  0  0
   40.5290   27.1210   33.7840 C   0  0  0  0  0  0  0  0  0  0  0  0
   39.6470   26.9730   32.7200 C   0  0  0  0  0  0  0  0  0  0  0  0
   38.9330   25.8090   32.5970 C   0  0  0  0  0  0  0  0  0  0  0  0
   39.0910   24.8380   33.4980 N   0  0  0  0  0  0  0  0  0  0  0  0
   41.3960   26.3480   35.4870 H   0  0  0  0  0  0  0  0  0  0  0  0
   41.0690   28.0570   33.8350 H   0  0  0  0  0  0  0  0  0  0  0  0
   39.5420   27.7770   32.0050 H   0  0  0  0  0  0  0  0  0  0  0  0
   38.0120   25.5760   31.5410 N   0  0  0  0  0  0  0  0  0  0  0  0
   37.8540   24.4010   30.7230 C   0  0  0  0  0  2  0  0  0  0  0  0
   36.5570   23.7360   31.0970 C   0  0  0  0  0  2  0  0  0  0  0  0
   35.3810   24.6740   30.9990 C   0  0  0  0  0  3  0  0  0  0  0  0
   35.0880   24.6840   29.9230 H   0  0  0  0  0  0  0  0  0  0  0  0
   35.6620   26.0610   31.4520 C   0  0  0  0  0  2  0  0  0  0  0  0
   37.0450   26.5720   31.1260 C   0  0  0  0  0  2  0  0  0  0  0  0
   39.6010   22.8850   37.6780 C   0  0  0  0  0  0  0  0  0  0  0  0
   39.3180   23.8510   36.6710 C   0  0  0  0  0  0  0  0  0  0  0  0
   40.1880   23.9520   35.5860 C   0  0  0  0  0  0  0  0  0  0  0  0
   41.2720   23.1190   35.5420 N   0  0  0  0  0  0  0  0  0  0  0  0
   41.4950   22.2090   36.5360 C   0  0  0  0  0  0  0  0  0  0  0  0
   40.6850   22.0870   37.5840 N   0  0  0  0  0  0  0  0  0  0  0  0
   42.6780   21.4570   36.2740 N   0  0  0  0  0  0  0  0  0  0  0  0
   38.9500   22.7800   38.5280 H   0  0  0  0  0  0  0  0  0  0  0  0
   42.6410   20.7110   35.5280 H   0  0  0  0  0  0  0  0  0  0  0  0
   43.5590   21.6560   36.8260 H   0  0  0  0  0  0  0  0  0  0  0  0
   38.1060   24.7040   36.8270 C   0  0  0  0  0  0  0  0  0  0  0  0
   37.2080   24.4940   35.7930 F   0  0  0  0  0  0  0  0  0  0  0  0
   37.4940   24.3730   38.0060 F   0  0  0  0  0  0  0  0  0  0  0  0
   38.3970   26.0490   36.8700 F   0  0  0  0  0  0  0  0  0  0  0  0
  1  2  1  0  0  0  0
  1 19  1  0  0  0  0
  2  7  1  0  0  0  0
  3  8  1  0  0  0  0
  3  2  2  0  0  0  0
  4  3  1  0  0  0  0
  5  4  2  0  0  0  0
  5  6  1  0  0  0  0
  6  1  2  0  0  0  0
  9  4  1  0  0  0  0
 10  5  1  0  0  0  0
 11 12  1  0  0  0  0
 11 10  1  0  0  0  0
 13 12  1  0  0  0  0
 13 15  1  0  0  0  0
 14 13  1  0  0  0  0
 16 15  1  0  0  0  0
 16 10  1  0  0  0  0
 17 24  1  0  0  0  0
 18 27  1  0  0  0  0
 18 17  2  0  0  0  0
 19 18  1  0  0  0  0
 20 19  2  0  0  0  0
 20 21  1  0  0  0  0
 21 22  2  0  0  0  0
 22 17  1  0  0  0  0
 23 21  1  0  0  0  0
 23 26  1  0  0  0  0
 25 23  1  0  0  0  0
 27 30  1  0  0  0  0
 27 29  1  0  0  0  0
 28 27  1  0  0  0  0
M  END
>  <minimizedAffinity>
-5.94151497

$$$$

 OpenBabel03272507593D

 30 32  0  0  0  0  0  0  0  0999 V2000
   35.2060   29.1800   33.7810 C   0  0  0  0  0  0  0  0  0  0  0  0
   35.1780   29.5380   32.4390 C   0  0  0  0  0  0  0  0  0  0  0  0
   36.1600   29.0410   31.5930 C   0  0  0  0  0  0  0  0  0  0  0  0
   37.1440   28.2020   32.1010 C   0  0  0  0  0  0  0  0  0  0  0  0
   37.1300   27.8790   33.4330 C   0  0  0  0  0  0  0  0  0  0  0  0
   36.1730   28.3720   34.2220 N   0  0  0  0  0  0  0  0  0  0  0  0
   34.4710   30.1810   31.9030 H   0  0  0  0  0  0  0  0  0  0  0  0
   36.2160   29.2650   30.5360 H   0  0  0  0  0  0  0  0  0  0  0  0
   37.9070   27.8190   31.4370 H   0  0  0  0  0  0  0  0  0  0  0  0
   38.0960   27.0300   34.0330 N   0  0  0  0  0  0  0  0  0  0  0  0
   38.8130   27.2070   35.2700 C   0  0  0  0  0  2  0  0  0  0  0  0
   38.2990   26.2000   36.2630 C   0  0  0  0  0  2  0  0  0  0  0  0
   38.3810   24.7870   35.7430 C   0  0  0  0  0  3  0  0  0  0  0  0
   39.4310   24.4570   35.9220 H   0  0  0  0  0  0  0  0  0  0  0  0
   38.0520   24.6440   34.3000 C   0  0  0  0  0  2  0  0  0  0  0  0
   38.5140   25.7830   33.4240 C   0  0  0  0  0  2  0  0  0  0  0  0
   33.2710   31.4540   36.0730 C   0  0  0  0  0  0  0  0  0  0  0  0
   34.3590   30.8860   35.3510 C   0  0  0  0  0  0  0  0  0  0  0  0
   34.1100   29.7840   34.5330 C   0  0  0  0  0  0  0  0  0  0  0  0
   32.8320   29.3020   34.4650 N   0  0  0  0  0  0  0  0  0  0  0  0
   31.8240   29.8860   35.1790 C   0  0  0  0  0  0  0  0  0  0  0  0
   32.0290   30.9380   35.9670 N   0  0  0  0  0  0  0  0  0  0  0  0
   30.5880   29.2140   34.9490 N   0  0  0  0  0  0  0  0  0  0  0  0
   33.4290   32.3040   36.7110 H   0  0  0  0  0  0  0  0  0  0  0  0
   30.0970   29.3710   34.0270 H   0  0  0  0  0  0  0  0  0  0  0  0
   30.1890   28.5790   35.6960 H   0  0  0  0  0  0  0  0  0  0  0  0
   35.7090   31.4980   35.5050 C   0  0  0  0  0  0  0  0  0  0  0  0
   36.1640   32.0180   34.3040 F   0  0  0  0  0  0  0  0  0  0  0  0
   35.6190   32.5190   36.4130 F   0  0  0  0  0  0  0  0  0  0  0  0
   36.6530   30.6090   35.9680 F   0  0  0  0  0  0  0  0  0  0  0  0
  1  6  1  0  0  0  0
  1 19  1  0  0  0  0
  2  1  2  0  0  0  0
  3  4  2  0  0  0  0
  3  2  1  0  0  0  0
  4  5  1  0  0  0  0
  5 10  1  0  0  0  0
  5  6  2  0  0  0  0
  7  2  1  0  0  0  0
  8  3  1  0  0  0  0
  9  4  1  0  0  0  0
 10 11  1  0  0  0  0
 11 12  1  0  0  0  0
 13 14  1  0  0  0  0
 13 12  1  0  0  0  0
 15 13  1  0  0  0  0
 16 10  1  0  0  0  0
 16 15  1  0  0  0  0
 17 24  1  0  0  0  0
 18 27  1  0  0  0  0
 18 17  2  0  0  0  0
 19 18  1  0  0  0  0
 20 19  2  0  0  0  0
 20 21  1  0  0  0  0
 21 22  2  0  0  0  0
 22 17  1  0  0  0  0
 23 21  1  0  0  0  0
 23 26  1  0  0  0  0
 25 23  1  0  0  0  0
 27 30  1  0  0  0  0
 27 29  1  0  0  0  0
 28 27  1  0  0  0  0
M  END
>  <minimizedAffinity>
-5.84070778

$$$$

 OpenBabel03272507593D

 30 32  0  0  0  0  0  0  0  0999 V2000
   38.5690   24.3490   34.4050 C   0  0  0  0  0  0  0  0  0  0  0  0
   37.7630   23.3830   34.9950 C   0  0  0  0  0  0  0  0  0  0  0  0
   38.3640   22.3370   35.6820 C   0  0  0  0  0  0  0  0  0  0  0  0
   39.7500   22.2780   35.7660 C   0  0  0  0  0  0  0  0  0  0  0  0
   40.5030   23.2550   35.1670 C   0  0  0  0  0  0  0  0  0  0  0  0
   39.8960   24.2470   34.5130 N   0  0  0  0  0  0  0  0  0  0  0  0
   36.6700   23.3010   35.0120 H   0  0  0  0  0  0  0  0  0  0  0  0
   37.8180   21.5430   36.1710 H   0  0  0  0  0  0  0  0  0  0  0  0
   40.2130   21.4600   36.3020 H   0  0  0  0  0  0  0  0  0  0  0  0
   41.9210   23.2690   35.2050 N   0  0  0  0  0  0  0  0  0  0  0  0
   42.8520   23.5130   34.1320 C   0  0  0  0  0  2  0  0  0  0  0  0
   43.5040   24.8490   34.3650 C   0  0  0  0  0  2  0  0  0  0  0  0
   44.1480   24.9440   35.7250 C   0  0  0  0  0  3  0  0  0  0  0  0
   45.1450   24.4520   35.6250 H   0  0  0  0  0  0  0  0  0  0  0  0
   43.3780   24.2910   36.8160 C   0  0  0  0  0  2  0  0  0  0  0  0
   42.6640   23.0200   36.4230 C   0  0  0  0  0  2  0  0  0  0  0  0
   36.9290   27.6360   33.5860 C   0  0  0  0  0  0  0  0  0  0  0  0
   37.7000   26.6550   34.2730 C   0  0  0  0  0  0  0  0  0  0  0  0
   37.7860   25.3760   33.7240 C   0  0  0  0  0  0  0  0  0  0  0  0
   37.1260   25.1260   32.5520 N   0  0  0  0  0  0  0  0  0  0  0  0
   36.4010   26.1050   31.9340 C   0  0  0  0  0  0  0  0  0  0  0  0
   36.2990   27.3350   32.4320 N   0  0  0  0  0  0  0  0  0  0  0  0
   35.8070   25.6120   30.7350 N   0  0  0  0  0  0  0  0  0  0  0  0
   36.8420   28.6320   33.9820 H   0  0  0  0  0  0  0  0  0  0  0  0
   36.4260   25.4670   29.8940 H   0  0  0  0  0  0  0  0  0  0  0  0
   34.7690   25.4050   30.7120 H   0  0  0  0  0  0  0  0  0  0  0  0
   38.3740   27.0450   35.5430 C   0  0  0  0  0  0  0  0  0  0  0  0
   39.7460   27.1410   35.3730 F   0  0  0  0  0  0  0  0  0  0  0  0
   37.8990   28.2700   35.9270 F   0  0  0  0  0  0  0  0  0  0  0  0
   38.1350   26.1620   36.5720 F   0  0  0  0  0  0  0  0  0  0  0  0
  1  6  2  0  0  0  0
  1  2  1  0  0  0  0
  2  7  1  0  0  0  0
  2  3  2  0  0  0  0
  3  4  1  0  0  0  0
  3  8  1  0  0  0  0
  4  9  1  0  0  0  0
  5 10  1  0  0  0  0
  5  4  2  0  0  0  0
  6  5  1  0  0  0  0
 10 16  1  0  0  0  0
 11 12  1  0  0  0  0
 11 10  1  0  0  0  0
 12 13  1  0  0  0  0
 13 15  1  0  0  0  0
 14 13  1  0  0  0  0
 16 15  1  0  0  0  0
 17 24  1  0  0  0  0
 17 18  1  0  0  0  0
 18 27  1  0  0  0  0
 19 18  2  0  0  0  0
 19  1  1  0  0  0  0
 20 19  1  0  0  0  0
 21 22  1  0  0  0  0
 21 20  2  0  0  0  0
 22 17  2  0  0  0  0
 23 21  1  0  0  0  0
 25 23  1  0  0  0  0
 26 23  1  0  0  0  0
 27 29  1  0  0  0  0
 27 30  1  0  0  0  0
 28 27  1  0  0  0  0
M  END
>  <minimizedAffinity>
-5.6058898

$$$$

 OpenBabel03272507593D

 30 32  0  0  0  0  0  0  0  0999 V2000
   36.3920   23.4290   31.7170 C   0  0  0  0  0  0  0  0  0  0  0  0
   35.5100   24.1100   30.8870 C   0  0  0  0  0  0  0  0  0  0  0  0
   35.3890   25.4860   31.0230 C   0  0  0  0  0  0  0  0  0  0  0  0
   36.1450   26.1510   31.9810 C   0  0  0  0  0  0  0  0  0  0  0  0
   37.0010   25.4340   32.7780 C   0  0  0  0  0  0  0  0  0  0  0  0
   37.0960   24.1120   32.6230 N   0  0  0  0  0  0  0  0  0  0  0  0
   34.8580   23.7240   30.0960 H   0  0  0  0  0  0  0  0  0  0  0  0
   34.7290   26.0970   30.4220 H   0  0  0  0  0  0  0  0  0  0  0  0
   36.0450   27.2220   32.0840 H   0  0  0  0  0  0  0  0  0  0  0  0
   37.8080   26.0340   33.7790 N   0  0  0  0  0  0  0  0  0  0  0  0
   38.0340   25.6050   35.1360 C   0  0  0  0  0  2  0  0  0  0  0  0
   39.4490   25.1060   35.2450 C   0  0  0  0  0  2  0  0  0  0  0  0
   40.4570   26.1300   34.7860 C   0  0  0  0  0  3  0  0  0  0  0  0
   40.6100   26.8160   35.6510 H   0  0  0  0  0  0  0  0  0  0  0  0
   40.0350   26.9150   33.5960 C   0  0  0  0  0  2  0  0  0  0  0  0
   38.5630   27.2470   33.5390 C   0  0  0  0  0  2  0  0  0  0  0  0
   37.4830   20.0200   30.5540 C   0  0  0  0  0  0  0  0  0  0  0  0
   37.5000   21.4220   30.8040 C   0  0  0  0  0  0  0  0  0  0  0  0
   36.4030   21.9940   31.4480 C   0  0  0  0  0  0  0  0  0  0  0  0
   35.3640   21.1810   31.8080 N   0  0  0  0  0  0  0  0  0  0  0  0
   35.4000   19.8410   31.5450 C   0  0  0  0  0  0  0  0  0  0  0  0
   36.4310   19.2640   30.9330 N   0  0  0  0  0  0  0  0  0  0  0  0
   34.2130   19.2030   32.0110 N   0  0  0  0  0  0  0  0  0  0  0  0
   38.3120   19.5470   30.0610 H   0  0  0  0  0  0  0  0  0  0  0  0
   34.1020   19.0500   33.0490 H   0  0  0  0  0  0  0  0  0  0  0  0
   33.4740   18.8990   31.3160 H   0  0  0  0  0  0  0  0  0  0  0  0
   38.6890   22.2060   30.3640 C   0  0  0  0  0  0  0  0  0  0  0  0
   39.4660   22.5860   31.4470 F   0  0  0  0  0  0  0  0  0  0  0  0
   39.4470   21.4160   29.5420 F   0  0  0  0  0  0  0  0  0  0  0  0
   38.3540   23.3420   29.6620 F   0  0  0  0  0  0  0  0  0  0  0  0
  1  6  1  0  0  0  0
  2  3  1  0  0  0  0
  2  1  2  0  0  0  0
  3  4  2  0  0  0  0
  4  9  1  0  0  0  0
  4  5  1  0  0  0  0
  5 10  1  0  0  0  0
  6  5  2  0  0  0  0
  7  2  1  0  0  0  0
  8  3  1  0  0  0  0
 10 11  1  0  0  0  0
 11 12  1  0  0  0  0
 13 12  1  0  0  0  0
 13 14  1  0  0  0  0
 15 13  1  0  0  0  0
 16 15  1  0  0  0  0
 16 10  1  0  0  0  0
 17 18  2  0  0  0  0
 17 22  1  0  0  0  0
 18 19  1  0  0  0  0
 19  1  1  0  0  0  0
 19 20  2  0  0  0  0
 21 20  1  0  0  0  0
 21 23  1  0  0  0  0
 22 21  2  0  0  0  0
 23 25  1  0  0  0  0
 24 17  1  0  0  0  0
 26 23  1  0  0  0  0
 27 18  1  0  0  0  0
 27 28  1  0  0  0  0
 29 27  1  0  0  0  0
 30 27  1  0  0  0  0
M  END
>  <minimizedAffinity>
-5.52257109

$$$$

 OpenBabel03272507593D

 30 32  0  0  0  0  0  0  0  0999 V2000
   39.3040   24.6150   34.6000 C   0  0  0  0  0  0  0  0  0  0  0  0
   38.8740   25.8300   35.1200 C   0  0  0  0  0  0  0  0  0  0  0  0
   37.8120   26.4820   34.5080 C   0  0  0  0  0  0  0  0  0  0  0  0
   37.2050   25.9120   33.3960 C   0  0  0  0  0  0  0  0  0  0  0  0
   37.6670   24.7130   32.9190 C   0  0  0  0  0  0  0  0  0  0  0  0
   38.6890   24.1090   33.5280 N   0  0  0  0  0  0  0  0  0  0  0  0
   39.2510   26.3920   35.9820 H   0  0  0  0  0  0  0  0  0  0  0  0
   37.4120   27.4290   34.8440 H   0  0  0  0  0  0  0  0  0  0  0  0
   36.3800   26.4260   32.9230 H   0  0  0  0  0  0  0  0  0  0  0  0
   37.1040   24.0620   31.7900 N   0  0  0  0  0  0  0  0  0  0  0  0
   37.7760   23.4460   30.6730 C   0  0  0  0  0  2  0  0  0  0  0  0
   37.5950   21.9560   30.7770 C   0  0  0  0  0  2  0  0  0  0  0  0
   36.1440   21.5580   30.8720 C   0  0  0  0  0  3  0  0  0  0  0  0
   35.7600   21.5520   29.8250 H   0  0  0  0  0  0  0  0  0  0  0  0
   35.3110   22.4680   31.7020 C   0  0  0  0  0  2  0  0  0  0  0  0
   35.6730   23.9310   31.6070 C   0  0  0  0  0  2  0  0  0  0  0  0
   42.7880   23.9770   35.8710 C   0  0  0  0  0  0  0  0  0  0  0  0
   41.7150   24.5360   35.1210 C   0  0  0  0  0  0  0  0  0  0  0  0
   40.4240   24.0610   35.3540 C   0  0  0  0  0  0  0  0  0  0  0  0
   40.2530   23.0790   36.2920 N   0  0  0  0  0  0  0  0  0  0  0  0
   41.3190   22.5790   36.9840 C   0  0  0  0  0  0  0  0  0  0  0  0
   42.5610   23.0110   36.7850 N   0  0  0  0  0  0  0  0  0  0  0  0
   40.8960   21.5720   37.9010 N   0  0  0  0  0  0  0  0  0  0  0  0
   43.7950   24.3210   35.7170 H   0  0  0  0  0  0  0  0  0  0  0  0
   40.4000   21.8740   38.7810 H   0  0  0  0  0  0  0  0  0  0  0  0
   41.0870   20.5530   37.6840 H   0  0  0  0  0  0  0  0  0  0  0  0
   42.0250   25.6010   34.1260 C   0  0  0  0  0  0  0  0  0  0  0  0
   41.3930   25.3570   32.9170 F   0  0  0  0  0  0  0  0  0  0  0  0
   41.5720   26.7960   34.6170 F   0  0  0  0  0  0  0  0  0  0  0  0
   43.3730   25.7320   33.8820 F   0  0  0  0  0  0  0  0  0  0  0  0
  1  2  1  0  0  0  0
  1 19  1  0  0  0  0
  2  7  1  0  0  0  0
  3  8  1  0  0  0  0
  3  2  2  0  0  0  0
  4  3  1  0  0  0  0
  5  4  2  0  0  0  0
  5  6  1  0  0  0  0
  6  1  2  0  0  0  0
  9  4  1  0  0  0  0
 10  5  1  0  0  0  0
 11 12  1  0  0  0  0
 11 10  1  0  0  0  0
 12 13  1  0  0  0  0
 13 15  1  0  0  0  0
 14 13  1  0  0  0  0
 16 15  1  0  0  0  0
 16 10  1  0  0  0  0
 17 22  1  0  0  0  0
 18 19  1  0  0  0  0
 18 17  2  0  0  0  0
 19 20  2  0  0  0  0
 20 21  1  0  0  0  0
 21 23  1  0  0  0  0
 22 21  2  0  0  0  0
 23 25  1  0  0  0  0
 24 17  1  0  0  0  0
 26 23  1  0  0  0  0
 27 29  1  0  0  0  0
 27 18  1  0  0  0  0
 28 27  1  0  0  0  0
 30 27  1  0  0  0  0
M  END
>  <minimizedAffinity>
-5.45764303

$$$$

 OpenBabel03272507593D

 30 32  0  0  0  0  0  0  0  0999 V2000
   38.6060   22.7600   34.3560 C   0  0  0  0  0  0  0  0  0  0  0  0
   37.9480   21.6150   33.9250 C   0  0  0  0  0  0  0  0  0  0  0  0
   36.9740   21.7310   32.9420 C   0  0  0  0  0  0  0  0  0  0  0  0
   36.6790   22.9820   32.4120 C   0  0  0  0  0  0  0  0  0  0  0  0
   37.3550   24.0830   32.8710 C   0  0  0  0  0  0  0  0  0  0  0  0
   38.2860   23.9390   33.8160 N   0  0  0  0  0  0  0  0  0  0  0  0
   38.0740   20.5760   34.2470 H   0  0  0  0  0  0  0  0  0  0  0  0
   36.4120   20.8960   32.5470 H   0  0  0  0  0  0  0  0  0  0  0  0
   35.9190   23.0660   31.6480 H   0  0  0  0  0  0  0  0  0  0  0  0
   37.1160   25.3940   32.3840 N   0  0  0  0  0  0  0  0  0  0  0  0
   36.9570   26.6190   33.1270 C   0  0  0  0  0  2  0  0  0  0  0  0
   38.1690   27.4780   32.8870 C   0  0  0  0  0  2  0  0  0  0  0  0
   38.4220   27.7180   31.4200 C   0  0  0  0  0  3  0  0  0  0  0  0
   37.7460   28.5550   31.1270 H   0  0  0  0  0  0  0  0  0  0  0  0
   38.1620   26.5400   30.5520 C   0  0  0  0  0  2  0  0  0  0  0  0
   36.9910   25.6830   30.9700 C   0  0  0  0  0  2  0  0  0  0  0  0
   40.3010   22.4890   37.7050 C   0  0  0  0  0  0  0  0  0  0  0  0
   39.3170   22.7830   36.7190 C   0  0  0  0  0  0  0  0  0  0  0  0
   39.5960   22.4700   35.3880 C   0  0  0  0  0  0  0  0  0  0  0  0
   40.8020   21.8940   35.0960 N   0  0  0  0  0  0  0  0  0  0  0  0
   41.7100   21.6320   36.0820 C   0  0  0  0  0  0  0  0  0  0  0  0
   41.4740   21.9180   37.3600 N   0  0  0  0  0  0  0  0  0  0  0  0
   42.8850   21.0340   35.5390 N   0  0  0  0  0  0  0  0  0  0  0  0
   40.1180   22.7170   38.7390 H   0  0  0  0  0  0  0  0  0  0  0  0
   42.8390   20.0230   35.2400 H   0  0  0  0  0  0  0  0  0  0  0  0
   43.7700   21.6070   35.4480 H   0  0  0  0  0  0  0  0  0  0  0  0
   38.0390   23.4120   37.1580 C   0  0  0  0  0  0  0  0  0  0  0  0
   37.9910   23.5380   38.5370 F   0  0  0  0  0  0  0  0  0  0  0  0
   37.9610   24.6620   36.6060 F   0  0  0  0  0  0  0  0  0  0  0  0
   36.9270   22.7070   36.7570 F   0  0  0  0  0  0  0  0  0  0  0  0
  1 19  1  0  0  0  0
  2  7  1  0  0  0  0
  2  1  1  0  0  0  0
  3  2  2  0  0  0  0
  4  5  2  0  0  0  0
  4  3  1  0  0  0  0
  5  6  1  0  0  0  0
  6  1  2  0  0  0  0
  8  3  1  0  0  0  0
  9  4  1  0  0  0  0
 10  5  1  0  0  0  0
 10 11  1  0  0  0  0
 12 11  1  0  0  0  0
 13 12  1  0  0  0  0
 14 13  1  0  0  0  0
 15 16  1  0  0  0  0
 15 13  1  0  0  0  0
 16 10  1  0  0  0  0
 17 24  1  0  0  0  0
 18 27  1  0  0  0  0
 18 17  2  0  0  0  0
 19 18  1  0  0  0  0
 20 19  2  0  0  0  0
 20 21  1  0  0  0  0
 21 22  2  0  0  0  0
 22 17  1  0  0  0  0
 23 21  1  0  0  0  0
 25 23  1  0  0  0  0
 26 23  1  0  0  0  0
 27 28  1  0  0  0  0
 29 27  1  0  0  0  0
 30 27  1  0  0  0  0
M  END
>  <minimizedAffinity>
-5.41859484

$$$$

 OpenBabel03272507593D

 30 32  0  0  0  0  0  0  0  0999 V2000
   37.0470   22.9240   31.7270 C   0  0  0  0  0  0  0  0  0  0  0  0
   35.9980   23.4350   30.9740 C   0  0  0  0  0  0  0  0  0  0  0  0
   35.6060   24.7510   31.1790 C   0  0  0  0  0  0  0  0  0  0  0  0
   36.2650   25.5250   32.1260 C   0  0  0  0  0  0  0  0  0  0  0  0
   37.2950   24.9740   32.8450 C   0  0  0  0  0  0  0  0  0  0  0  0
   37.6490   23.7070   32.6260 N   0  0  0  0  0  0  0  0  0  0  0  0
   35.3930   22.9490   30.2010 H   0  0  0  0  0  0  0  0  0  0  0  0
   34.8010   25.2320   30.6400 H   0  0  0  0  0  0  0  0  0  0  0  0
   35.9540   26.5480   32.2820 H   0  0  0  0  0  0  0  0  0  0  0  0
   38.0210   25.6940   33.8300 N   0  0  0  0  0  0  0  0  0  0  0  0
   38.4090   25.2750   35.1530 C   0  0  0  0  0  2  0  0  0  0  0  0
   39.9000   25.0760   35.1670 C   0  0  0  0  0  2  0  0  0  0  0  0
   40.6480   26.3010   34.7040 C   0  0  0  0  0  3  0  0  0  0  0  0
   40.7090   26.9740   35.5910 H   0  0  0  0  0  0  0  0  0  0  0  0
   40.0050   27.0210   33.5740 C   0  0  0  0  0  2  0  0  0  0  0  0
   38.4950   27.0440   33.6070 C   0  0  0  0  0  2  0  0  0  0  0  0
   37.0680   19.1610   31.8060 C   0  0  0  0  0  0  0  0  0  0  0  0
   36.7690   20.5090   32.1540 C   0  0  0  0  0  0  0  0  0  0  0  0
   37.3360   21.5320   31.3930 C   0  0  0  0  0  0  0  0  0  0  0  0
   38.1510   21.1900   30.3490 N   0  0  0  0  0  0  0  0  0  0  0  0
   38.4030   19.8800   30.0580 C   0  0  0  0  0  0  0  0  0  0  0  0
   37.8790   18.8810   30.7640 N   0  0  0  0  0  0  0  0  0  0  0  0
   39.2740   19.7710   28.9350 N   0  0  0  0  0  0  0  0  0  0  0  0
   36.6480   18.3480   32.3700 H   0  0  0  0  0  0  0  0  0  0  0  0
   38.8790   19.9630   27.9750 H   0  0  0  0  0  0  0  0  0  0  0  0
   40.2880   19.5040   29.0820 H   0  0  0  0  0  0  0  0  0  0  0  0
   35.8670   20.7580   33.3140 C   0  0  0  0  0  0  0  0  0  0  0  0
   34.7410   21.4680   32.9290 F   0  0  0  0  0  0  0  0  0  0  0  0
   35.4660   19.5490   33.8160 F   0  0  0  0  0  0  0  0  0  0  0  0
   36.4800   21.4520   34.3320 F   0  0  0  0  0  0  0  0  0  0  0  0
  1  6  1  0  0  0  0
  2  3  1  0  0  0  0
  2  1  2  0  0  0  0
  3  4  2  0  0  0  0
  4  9  1  0  0  0  0
  4  5  1  0  0  0  0
  5 10  1  0  0  0  0
  6  5  2  0  0  0  0
  7  2  1  0  0  0  0
  8  3  1  0  0  0  0
 10 11  1  0  0  0  0
 11 12  1  0  0  0  0
 13 12  1  0  0  0  0
 13 14  1  0  0  0  0
 15 16  1  0  0  0  0
 15 13  1  0  0  0  0
 16 10  1  0  0  0  0
 17 18  1  0  0  0  0
 17 24  1  0  0  0  0
 18 27  1  0  0  0  0
 19  1  1  0  0  0  0
 19 18  2  0  0  0  0
 20 19  1  0  0  0  0
 21 20  2  0  0  0  0
 21 22  1  0  0  0  0
 22 17  2  0  0  0  0
 23 26  1  0  0  0  0
 23 21  1  0  0  0  0
 25 23  1  0  0  0  0
 27 29  1  0  0  0  0
 27 30  1  0  0  0  0
 28 27  1  0  0  0  0
M  END
>  <minimizedAffinity>
-5.40303421

$$$$

 OpenBabel03272507593D

 30 32  0  0  0  0  0  0  0  0999 V2000
   39.7240   26.4730   34.2140 C   0  0  0  0  0  0  0  0  0  0  0  0
   38.8950   27.4010   34.8340 C   0  0  0  0  0  0  0  0  0  0  0  0
   38.1510   27.0020   35.9370 C   0  0  0  0  0  0  0  0  0  0  0  0
   38.2490   25.6940   36.3950 C   0  0  0  0  0  0  0  0  0  0  0  0
   39.0800   24.8160   35.7490 C   0  0  0  0  0  0  0  0  0  0  0  0
   39.7830   25.2280   34.6920 N   0  0  0  0  0  0  0  0  0  0  0  0
   38.7190   28.4530   34.5880 H   0  0  0  0  0  0  0  0  0  0  0  0
   37.4810   27.6540   36.4810 H   0  0  0  0  0  0  0  0  0  0  0  0
   37.6660   25.3890   37.2530 H   0  0  0  0  0  0  0  0  0  0  0  0
   39.2390   23.4640   36.1510 N   0  0  0  0  0  0  0  0  0  0  0  0
   39.2530   22.2740   35.3380 C   0  0  0  0  0  2  0  0  0  0  0  0
   40.6550   21.7290   35.3220 C   0  0  0  0  0  2  0  0  0  0  0  0
   41.1940   21.4890   36.7090 C   0  0  0  0  0  3  0  0  0  0  0  0
   40.7910   20.4990   37.0260 H   0  0  0  0  0  0  0  0  0  0  0  0
   40.8110   22.5250   37.7040 C   0  0  0  0  0  2  0  0  0  0  0  0
   39.4190   23.0870   37.5380 C   0  0  0  0  0  2  0  0  0  0  0  0
   40.5260   27.6660   30.7360 C   0  0  0  0  0  0  0  0  0  0  0  0
   39.8100   27.1010   31.8300 C   0  0  0  0  0  0  0  0  0  0  0  0
   40.4340   27.0470   33.0750 C   0  0  0  0  0  0  0  0  0  0  0  0
   41.7060   27.5390   33.1870 N   0  0  0  0  0  0  0  0  0  0  0  0
   42.3470   28.0720   32.1050 C   0  0  0  0  0  0  0  0  0  0  0  0
   41.7790   28.1380   30.9030 N   0  0  0  0  0  0  0  0  0  0  0  0
   43.6540   28.5170   32.4620 N   0  0  0  0  0  0  0  0  0  0  0  0
   40.0750   27.7240   29.7630 H   0  0  0  0  0  0  0  0  0  0  0  0
   43.7430   29.4090   33.0200 H   0  0  0  0  0  0  0  0  0  0  0  0
   44.4990   27.9530   32.1650 H   0  0  0  0  0  0  0  0  0  0  0  0
   38.4280   26.5970   31.5860 C   0  0  0  0  0  0  0  0  0  0  0  0
   38.1280   26.5900   30.2340 F   0  0  0  0  0  0  0  0  0  0  0  0
   38.3490   25.3130   32.0550 F   0  0  0  0  0  0  0  0  0  0  0  0
   37.4640   27.3380   32.2310 F   0  0  0  0  0  0  0  0  0  0  0  0
  1  6  2  0  0  0  0
  1  2  1  0  0  0  0
  2  3  2  0  0  0  0
  3  4  1  0  0  0  0
  3  8  1  0  0  0  0
  4  9  1  0  0  0  0
  5 10  1  0  0  0  0
  5  4  2  0  0  0  0
  6  5  1  0  0  0  0
  7  2  1  0  0  0  0
 10 16  1  0  0  0  0
 11 10  1  0  0  0  0
 12 11  1  0  0  0  0
 12 13  1  0  0  0  0
 13 14  1  0  0  0  0
 13 15  1  0  0  0  0
 16 15  1  0  0  0  0
 17 22  2  0  0  0  0
 17 18  1  0  0  0  0
 18 19  2  0  0  0  0
 19 20  1  0  0  0  0
 19  1  1  0  0  0  0
 21 23  1  0  0  0  0
 21 20  2  0  0  0  0
 22 21  1  0  0  0  0
 23 25  1  0  0  0  0
 24 17  1  0  0  0  0
 26 23  1  0  0  0  0
 27 18  1  0  0  0  0
 27 29  1  0  0  0  0
 27 30  1  0  0  0  0
 28 27  1  0  0  0  0
M  END
>  <minimizedAffinity>
-5.37107563

$$$$
