
 OpenBabel03272502213D

 24 26  0  0  0  0  0  0  0  0999 V2000
   35.8230   30.0640   47.4100 C   0  0  0  0  0  0  0  0  0  0  0  0
   34.9080   29.7800   46.4330 C   0  0  0  0  0  0  0  0  0  0  0  0
   35.1040   30.0360   45.0960 C   0  0  0  0  0  0  0  0  0  0  0  0
   36.2520   30.5970   44.7070 N   0  0  0  0  0  0  0  0  0  0  0  0
   37.1740   30.8880   45.6520 C   0  0  0  0  0  0  0  0  0  0  0  0
   36.9510   30.6260   46.9440 N   0  0  0  0  0  0  0  0  0  0  0  0
   33.9550   29.3220   46.6910 H   0  0  0  0  0  0  0  0  0  0  0  0
   34.3390   29.7900   44.3500 H   0  0  0  0  0  0  0  0  0  0  0  0
   38.3930   31.4860   45.2260 N   0  0  0  0  0  0  0  0  0  0  0  0
   38.9240   32.6150   45.9660 C   0  0  0  0  0  0  0  0  0  0  0  0
   40.0380   33.3040   45.2620 C   0  0  0  0  0  0  0  0  0  0  0  0
   41.1230   32.3060   44.9430 C   0  0  0  0  0  0  0  0  0  0  0  0
   41.5980   31.9890   45.9150 H   0  0  0  0  0  0  0  0  0  0  0  0
   40.6040   31.1260   44.1760 C   0  0  0  0  0  0  0  0  0  0  0  0
   39.1240   31.0180   44.0920 C   0  0  0  0  0  0  0  0  0  0  0  0
   36.2690   29.4200   51.1050 C   0  0  0  0  0  0  0  0  0  0  0  0
   36.6150   29.6950   49.7760 C   0  0  0  0  0  0  0  0  0  0  0  0
   35.5970   29.7850   48.8220 C   0  0  0  0  0  0  0  0  0  0  0  0
   34.3230   29.6010   49.2310 N   0  0  0  0  0  0  0  0  0  0  0  0
   34.0100   29.3360   50.5250 C   0  0  0  0  0  0  0  0  0  0  0  0
   34.9910   29.2480   51.4570 N   0  0  0  0  0  0  0  0  0  0  0  0
   37.0590   29.3550   51.8270 H   0  0  0  0  0  0  0  0  0  0  0  0
   37.6210   29.8410   49.4450 H   0  0  0  0  0  0  0  0  0  0  0  0
   32.9530   29.2020   50.7590 H   0  0  0  0  0  0  0  0  0  0  0  0
  1 18  1  0  0  0  0
  2  7  1  0  0  0  0
  2  1  2  0  0  0  0
  3  2  1  0  0  0  0
  4  3  2  0  0  0  0
  4  5  1  0  0  0  0
  5  6  2  0  0  0  0
  6  1  1  0  0  0  0
  8  3  1  0  0  0  0
  9  5  1  0  0  0  0
  9 10  1  0  0  0  0
 11 10  1  0  0  0  0
 12 11  1  0  0  0  0
 12 13  1  0  0  0  0
 14 12  1  0  0  0  0
 15 14  1  0  0  0  0
 15  9  1  0  0  0  0
 16 21  1  0  0  0  0
 16 22  1  0  0  0  0
 17 16  2  0  0  0  0
 18 19  2  0  0  0  0
 18 17  1  0  0  0  0
 19 20  1  0  0  0  0
 20 24  1  0  0  0  0
 20 21  2  0  0  0  0
 23 17  1  0  0  0  0
M  END
>  <minimizedAffinity>
-5.13094664

>  <minimizedRMSD>
2.89881706

$$$$
