
 OpenBabel03272510003D

 19 20  0  0  0  0  0  0  0  0999 V2000
   38.2240   33.0480   49.5180 C   0  0  0  0  0  0  0  0  0  0  0  0
   38.7300   32.9790   48.2200 C   0  0  0  0  0  0  0  0  0  0  0  0
   38.2270   31.9950   47.3730 C   0  0  0  0  0  0  0  0  0  0  0  0
   37.2740   31.1580   47.8600 N   0  0  0  0  0  0  0  0  0  0  0  0
   36.8130   31.2550   49.1120 C   0  0  0  0  0  0  0  0  0  0  0  0
   37.2860   32.1950   49.9350 N   0  0  0  0  0  0  0  0  0  0  0  0
   38.6750   33.8400   50.0930 H   0  0  0  0  0  0  0  0  0  0  0  0
   39.4730   33.6040   47.7850 H   0  0  0  0  0  0  0  0  0  0  0  0
   38.5950   31.7440   46.0210 N   0  0  0  0  0  0  0  0  0  0  0  0
   39.5710   30.7970   45.5820 C   0  0  0  0  0  2  0  0  0  0  0  0
   39.0810   29.8010   44.5830 C   0  0  0  0  0  2  0  0  0  0  0  0
   38.3930   30.4830   43.4220 C   0  0  0  0  0  3  0  0  0  0  0  0
   38.0050   29.7680   42.7000 H   0  0  0  0  0  0  0  0  0  0  0  0
   37.3000   31.3530   44.0440 C   0  0  0  0  0  2  0  0  0  0  0  0
   38.0490   32.4000   44.8570 C   0  0  0  0  0  2  0  0  0  0  0  0
   35.7680   30.3000   49.5690 C   0  0  0  0  0  0  0  0  0  0  0  0
   35.9540   29.8560   50.8550 F   0  0  0  0  0  0  0  0  0  0  0  0
   34.5010   30.8940   49.5300 F   0  0  0  0  0  0  0  0  0  0  0  0
   35.6590   29.1890   48.7550 F   0  0  0  0  0  0  0  0  0  0  0  0
  1  6  1  0  0  0  0
  1  7  1  0  0  0  0
  2  1  2  0  0  0  0
  3  4  2  0  0  0  0
  3  2  1  0  0  0  0
  4  5  1  0  0  0  0
  5 16  1  0  0  0  0
  5  6  2  0  0  0  0
  8  2  1  0  0  0  0
  9  3  1  0  0  0  0
 10  9  1  0  0  0  0
 11 10  1  0  0  0  0
 12 14  1  0  0  0  0
 12 11  1  0  0  0  0
 13 12  1  0  0  0  0
 14 15  1  0  0  0  0
 15  9  1  0  0  0  0
 16 17  1  0  0  0  0
 18 16  1  0  0  0  0
 19 16  1  0  0  0  0
M  END
>  <minimizedAffinity>
-5.22048187

>  <minimizedRMSD>
1.81643128

$$$$
