
 OpenBabel03272510003D

 19 20  0  0  0  0  0  0  0  0999 V2000
   37.9360   32.1040   49.6940 C   0  0  0  0  0  0  0  0  0  0  0  0
   38.5950   32.1820   48.4670 C   0  0  0  0  0  0  0  0  0  0  0  0
   37.9980   31.5790   47.3640 C   0  0  0  0  0  0  0  0  0  0  0  0
   36.8090   30.9490   47.5450 N   0  0  0  0  0  0  0  0  0  0  0  0
   36.2060   30.8950   48.7380 C   0  0  0  0  0  0  0  0  0  0  0  0
   36.7670   31.4690   49.8060 N   0  0  0  0  0  0  0  0  0  0  0  0
   38.4770   32.6000   50.4830 H   0  0  0  0  0  0  0  0  0  0  0  0
   39.5240   32.6600   48.2650 H   0  0  0  0  0  0  0  0  0  0  0  0
   38.4890   31.5350   46.0280 N   0  0  0  0  0  0  0  0  0  0  0  0
   39.4890   30.6430   45.5330 C   0  0  0  0  0  2  0  0  0  0  0  0
   39.0820   29.8320   44.3470 C   0  0  0  0  0  2  0  0  0  0  0  0
   38.5160   30.7090   43.2520 C   0  0  0  0  0  3  0  0  0  0  0  0
   38.1890   30.1280   42.3920 H   0  0  0  0  0  0  0  0  0  0  0  0
   37.3820   31.4990   43.9040 C   0  0  0  0  0  2  0  0  0  0  0  0
   38.0630   32.3820   44.9390 C   0  0  0  0  0  2  0  0  0  0  0  0
   34.9040   30.1840   48.8540 C   0  0  0  0  0  0  0  0  0  0  0  0
   34.2460   30.4310   50.0340 F   0  0  0  0  0  0  0  0  0  0  0  0
   34.0350   30.5690   47.8240 F   0  0  0  0  0  0  0  0  0  0  0  0
   35.0220   28.8150   48.7190 F   0  0  0  0  0  0  0  0  0  0  0  0
  1  6  1  0  0  0  0
  1  7  1  0  0  0  0
  2  1  2  0  0  0  0
  3  4  2  0  0  0  0
  3  2  1  0  0  0  0
  4  5  1  0  0  0  0
  5 16  1  0  0  0  0
  5  6  2  0  0  0  0
  8  2  1  0  0  0  0
  9  3  1  0  0  0  0
 10  9  1  0  0  0  0
 11 10  1  0  0  0  0
 12 14  1  0  0  0  0
 12 11  1  0  0  0  0
 13 12  1  0  0  0  0
 14 15  1  0  0  0  0
 15  9  1  0  0  0  0
 16 17  1  0  0  0  0
 18 16  1  0  0  0  0
 19 16  1  0  0  0  0
M  END
>  <minimizedAffinity>
-5.06506824

>  <minimizedRMSD>
1.97827148

$$$$
