
 OpenBabel03272509333D

 39 43  0  0  1  0  0  0  0  0999 V2000
   37.4120   31.4710   48.8250 C   0  0  1  0  0  0  0  0  0  0  0  0
   38.7340   32.1180   48.9160 C   0  0  0  0  0  0  0  0  0  0  0  0
   38.5660   31.0890   47.8570 C   0  0  2  0  0  0  0  0  0  0  0  0
   36.6050   31.9220   48.2720 H   0  0  0  0  0  0  0  0  0  0  0  0
   39.3250   31.8230   49.8480 H   0  0  0  0  0  0  0  0  0  0  0  0
   38.6580   33.1900   48.8550 H   0  0  0  0  0  0  0  0  0  0  0  0
   38.6760   30.0140   47.8590 H   0  0  0  0  0  0  0  0  0  0  0  0
   38.6060   31.7160   46.5120 C   0  0  0  0  0  0  0  0  0  0  0  0
   39.6950   32.5900   46.4140 C   0  0  0  0  0  0  0  0  0  0  0  0
   39.9940   33.2270   45.2270 C   0  0  0  0  0  0  0  0  0  0  0  0
   39.2140   33.0140   44.0860 C   0  0  0  0  0  0  0  0  0  0  0  0
   38.1500   32.1500   44.2080 C   0  0  0  0  0  0  0  0  0  0  0  0
   37.2850   31.8530   43.1790 C   0  0  0  0  0  0  0  0  0  0  0  0
   36.2060   31.0010   43.2850 C   0  0  0  0  0  0  0  0  0  0  0  0
   35.9660   30.3970   44.5060 C   0  0  0  0  0  0  0  0  0  0  0  0
   36.8170   30.6770   45.5520 C   0  0  0  0  0  0  0  0  0  0  0  0
   37.8790   31.5350   45.3930 C   0  0  0  0  0  0  0  0  0  0  0  0
   40.4760   32.9500   47.0510 H   0  0  0  0  0  0  0  0  0  0  0  0
   40.7780   33.9180   44.9770 H   0  0  0  0  0  0  0  0  0  0  0  0
   39.3040   33.4260   43.0880 H   0  0  0  0  0  0  0  0  0  0  0  0
   37.4490   32.3170   42.1960 H   0  0  0  0  0  0  0  0  0  0  0  0
   35.5580   30.8050   42.4390 H   0  0  0  0  0  0  0  0  0  0  0  0
   35.1420   29.7160   44.6730 H   0  0  0  0  0  0  0  0  0  0  0  0
   36.6060   30.1830   46.5180 H   0  0  0  0  0  0  0  0  0  0  0  0
   35.4640   29.1710   51.0920 C   0  0  0  0  0  0  0  0  0  0  0  0
   35.7660   30.2150   50.1620 C   0  0  0  0  0  0  0  0  0  0  0  0
   37.0810   30.3970   49.7880 C   0  0  0  0  0  0  0  0  0  0  0  0
   38.0260   29.5530   50.3410 N   0  0  0  0  0  0  0  0  0  0  0  0
   37.7080   28.5900   51.2050 C   0  0  0  0  0  0  0  0  0  0  0  0
   36.4290   28.3840   51.5920 N   0  0  0  0  0  0  0  0  0  0  0  0
   34.4240   29.0640   51.3580 H   0  0  0  0  0  0  0  0  0  0  0  0
   35.0260   30.8560   49.7450 H   0  0  0  0  0  0  0  0  0  0  0  0
   38.7210   27.7460   51.7440 N   0  0  0  0  0  0  0  0  0  0  0  0
   38.5950   27.1670   53.0690 C   0  0  0  0  0  2  0  0  0  0  0  0
   39.4860   25.9440   53.1200 C   0  0  0  0  0  2  0  0  0  0  0  0
   39.3360   25.1620   51.8550 C   0  0  0  0  0  3  0  0  0  0  0  0
   38.2360   25.0160   51.6580 H   0  0  0  0  0  0  0  0  0  0  0  0
   39.9500   25.9530   50.7200 C   0  0  0  0  0  2  0  0  0  0  0  0
   39.9150   27.4410   50.9780 C   0  0  0  0  0  2  0  0  0  0  0  0
  1  4  1  6  0  0  0
  1  2  1  0  0  0  0
  1 27  1  0  0  0  0
  2  5  1  0  0  0  0
  3  7  1  1  0  0  0
  3  1  1  0  0  0  0
  3  2  1  0  0  0  0
  6  2  1  0  0  0  0
  8  3  1  0  0  0  0
  9  8  1  0  0  0  0
  9 18  1  0  0  0  0
 10  9  2  0  0  0  0
 11 12  2  0  0  0  0
 11 10  1  0  0  0  0
 12 17  1  0  0  0  0
 13 14  2  0  0  0  0
 13 12  1  0  0  0  0
 14 15  1  0  0  0  0
 15 23  1  0  0  0  0
 15 16  2  0  0  0  0
 16 24  1  0  0  0  0
 17 16  1  0  0  0  0
 17  8  2  0  0  0  0
 19 10  1  0  0  0  0
 20 11  1  0  0  0  0
 21 13  1  0  0  0  0
 22 14  1  0  0  0  0
 25 31  1  0  0  0  0
 25 30  1  0  0  0  0
 26 25  2  0  0  0  0
 27 26  1  0  0  0  0
 27 28  2  0  0  0  0
 28 29  1  0  0  0  0
 29 30  2  0  0  0  0
 29 33  1  0  0  0  0
 32 26  1  0  0  0  0
 33 34  1  0  0  0  0
 34 35  1  0  0  0  0
 36 35  1  0  0  0  0
 37 36  1  0  0  0  0
 38 39  1  0  0  0  0
 38 36  1  0  0  0  0
 39 33  1  0  0  0  0
M  END
>  <minimizedAffinity>
0.859788179

>  <minimizedRMSD>
1.980775

$$$$
