
 OpenBabel03262520233D

 30 32  0  0  0  0  0  0  0  0999 V2000
   35.3070   29.4080   33.5290 C   0  0  0  0  0  0  0  0  0  0  0  0
   35.3190   29.8390   32.1890 C   0  0  0  0  0  0  0  0  0  0  0  0
   36.1240   29.3560   31.2110 C   0  0  0  0  0  0  0  0  0  0  0  0
   37.0100   28.3850   31.4720 C   0  0  0  0  0  0  0  0  0  0  0  0
   37.0040   27.9670   32.7610 C   0  0  0  0  0  0  0  0  0  0  0  0
   36.2040   28.4660   33.6750 N   0  0  0  0  0  0  0  0  0  0  0  0
   34.5920   30.6640   31.8910 H   0  0  0  0  0  0  0  0  0  0  0  0
   36.0240   29.7970   30.1800 H   0  0  0  0  0  0  0  0  0  0  0  0
   37.6630   27.9680   30.7510 H   0  0  0  0  0  0  0  0  0  0  0  0
   37.8960   26.9190   33.2420 N   0  0  0  0  0  0  0  0  0  0  0  0
   39.3060   27.1040   33.4860 C   0  0  0  0  0  2  0  0  0  0  0  0
   39.6870   26.8780   34.9370 C   0  0  0  0  0  2  0  0  0  0  0  0
   39.4200   25.4190   35.2470 C   0  0  0  0  0  3  0  0  0  0  0  0
   40.0240   24.8190   34.5400 H   0  0  0  0  0  0  0  0  0  0  0  0
   37.9560   25.1650   34.9760 C   0  0  0  0  0  2  0  0  0  0  0  0
   37.5580   25.5660   33.5520 C   0  0  0  0  0  2  0  0  0  0  0  0
   33.0700   29.3830   34.3130 C   0  0  0  0  0  0  0  0  0  0  0  0
   34.3530   29.9910   34.4650 C   0  0  0  0  0  0  0  0  0  0  0  0
   34.4740   30.9450   35.4360 C   0  0  0  0  0  0  0  0  0  0  0  0
   33.3590   31.2340   36.1810 N   0  0  0  0  0  0  0  0  0  0  0  0
   32.1670   30.6580   36.0300 C   0  0  0  0  0  0  0  0  0  0  0  0
   32.0460   29.7230   35.0780 N   0  0  0  0  0  0  0  0  0  0  0  0
   31.1610   31.0740   36.9080 N   0  0  0  0  0  0  0  0  0  0  0  0
   32.8330   28.6180   33.5890 H   0  0  0  0  0  0  0  0  0  0  0  0
   31.2220   31.0860   37.9500 H   0  0  0  0  0  0  0  0  0  0  0  0
   30.2380   31.4170   36.5370 H   0  0  0  0  0  0  0  0  0  0  0  0
   35.7670   31.6040   35.6400 C   0  0  0  0  0  0  0  0  0  0  0  0
   36.6540   30.7100   36.0230 F   0  0  0  0  0  0  0  0  0  0  0  0
   36.2360   32.2850   34.5300 F   0  0  0  0  0  0  0  0  0  0  0  0
   35.6690   32.5950   36.6610 F   0  0  0  0  0  0  0  0  0  0  0  0
  1  6  1  0  0  0  0
  1 18  1  0  0  0  0
  2  1  2  0  0  0  0
  3  4  2  0  0  0  0
  3  2  1  0  0  0  0
  4  5  1  0  0  0  0
  5 10  1  0  0  0  0
  5  6  2  0  0  0  0
  7  2  1  0  0  0  0
  8  3  1  0  0  0  0
  9  4  1  0  0  0  0
 10 11  1  0  0  0  0
 10 16  1  0  0  0  0
 11 12  1  0  0  0  0
 12 13  1  0  0  0  0
 14 13  1  0  0  0  0
 15 13  1  0  0  0  0
 16 15  1  0  0  0  0
 17 18  2  0  0  0  0
 17 22  1  0  0  0  0
 18 19  1  0  0  0  0
 19 27  1  0  0  0  0
 19 20  2  0  0  0  0
 21 20  1  0  0  0  0
 21 23  1  0  0  0  0
 22 21  2  0  0  0  0
 23 25  1  0  0  0  0
 24 17  1  0  0  0  0
 26 23  1  0  0  0  0
 27 28  1  0  0  0  0
 27 30  1  0  0  0  0
 29 27  1  0  0  0  0
M  END
>  <minimizedAffinity>
-6.10404396

$$$$

 OpenBabel03262520233D

 30 32  0  0  0  0  0  0  0  0999 V2000
   40.6400   24.5420   34.9030 C   0  0  0  0  0  0  0  0  0  0  0  0
   41.4590   25.6850   34.9690 C   0  0  0  0  0  0  0  0  0  0  0  0
   41.3190   26.8020   34.2150 C   0  0  0  0  0  0  0  0  0  0  0  0
   40.3380   26.8950   33.3060 C   0  0  0  0  0  0  0  0  0  0  0  0
   39.5480   25.7960   33.2360 C   0  0  0  0  0  0  0  0  0  0  0  0
   39.7230   24.7350   33.9900 N   0  0  0  0  0  0  0  0  0  0  0  0
   42.3160   25.6810   35.7200 H   0  0  0  0  0  0  0  0  0  0  0  0
   42.0490   27.6430   34.3750 H   0  0  0  0  0  0  0  0  0  0  0  0
   40.1780   27.7390   32.6880 H   0  0  0  0  0  0  0  0  0  0  0  0
   38.4260   25.7020   32.3080 N   0  0  0  0  0  0  0  0  0  0  0  0
   38.5660   25.4830   30.8880 C   0  0  0  0  0  2  0  0  0  0  0  0
   37.9200   24.1910   30.4260 C   0  0  0  0  0  2  0  0  0  0  0  0
   36.4280   24.3290   30.6610 C   0  0  0  0  0  3  0  0  0  0  0  0
   36.0890   25.2150   30.0900 H   0  0  0  0  0  0  0  0  0  0  0  0
   36.2310   24.5930   32.1350 C   0  0  0  0  0  2  0  0  0  0  0  0
   37.0350   25.8050   32.6140 C   0  0  0  0  0  2  0  0  0  0  0  0
   42.1730   22.8600   35.5680 C   0  0  0  0  0  0  0  0  0  0  0  0
   40.8850   23.4270   35.8100 C   0  0  0  0  0  0  0  0  0  0  0  0
   40.1480   22.8790   36.8230 C   0  0  0  0  0  0  0  0  0  0  0  0
   40.7080   21.8370   37.5190 N   0  0  0  0  0  0  0  0  0  0  0  0
   41.9120   21.3190   37.2840 C   0  0  0  0  0  0  0  0  0  0  0  0
   42.6350   21.8530   36.2910 N   0  0  0  0  0  0  0  0  0  0  0  0
   42.3130   20.2740   38.1240 N   0  0  0  0  0  0  0  0  0  0  0  0
   42.8580   23.1920   34.8030 H   0  0  0  0  0  0  0  0  0  0  0  0
   42.3310   20.2990   39.1680 H   0  0  0  0  0  0  0  0  0  0  0  0
   42.6350   19.3580   37.7190 H   0  0  0  0  0  0  0  0  0  0  0  0
   38.8190   23.4190   37.1190 C   0  0  0  0  0  0  0  0  0  0  0  0
   38.4130   22.9570   38.2830 F   0  0  0  0  0  0  0  0  0  0  0  0
   38.7560   24.8020   37.1150 F   0  0  0  0  0  0  0  0  0  0  0  0
   37.8780   23.0090   36.1290 F   0  0  0  0  0  0  0  0  0  0  0  0
  1  2  1  0  0  0  0
  1 18  1  0  0  0  0
  2  7  1  0  0  0  0
  3  8  1  0  0  0  0
  3  2  2  0  0  0  0
  4  3  1  0  0  0  0
  5  4  2  0  0  0  0
  5  6  1  0  0  0  0
  6  1  2  0  0  0  0
  9  4  1  0  0  0  0
 10 16  1  0  0  0  0
 10  5  1  0  0  0  0
 11 10  1  0  0  0  0
 12 13  1  0  0  0  0
 12 11  1  0  0  0  0
 13 15  1  0  0  0  0
 14 13  1  0  0  0  0
 15 16  1  0  0  0  0
 17 18  2  0  0  0  0
 17 22  1  0  0  0  0
 18 19  1  0  0  0  0
 19 27  1  0  0  0  0
 19 20  2  0  0  0  0
 21 20  1  0  0  0  0
 21 23  1  0  0  0  0
 22 21  2  0  0  0  0
 23 25  1  0  0  0  0
 24 17  1  0  0  0  0
 26 23  1  0  0  0  0
 27 28  1  0  0  0  0
 29 27  1  0  0  0  0
 30 27  1  0  0  0  0
M  END
>  <minimizedAffinity>
-5.94621897

$$$$

 OpenBabel03262520233D

 30 32  0  0  0  0  0  0  0  0999 V2000
   37.3020   22.8910   32.1350 C   0  0  0  0  0  0  0  0  0  0  0  0
   36.9650   24.1090   31.5160 C   0  0  0  0  0  0  0  0  0  0  0  0
   37.1410   25.3420   32.0510 C   0  0  0  0  0  0  0  0  0  0  0  0
   37.6770   25.4880   33.2710 C   0  0  0  0  0  0  0  0  0  0  0  0
   38.0020   24.3170   33.8720 C   0  0  0  0  0  0  0  0  0  0  0  0
   37.8120   23.1450   33.3130 N   0  0  0  0  0  0  0  0  0  0  0  0
   36.5030   24.0660   30.4760 H   0  0  0  0  0  0  0  0  0  0  0  0
   36.8240   26.2330   31.4410 H   0  0  0  0  0  0  0  0  0  0  0  0
   37.8390   26.4220   33.7410 H   0  0  0  0  0  0  0  0  0  0  0  0
   38.5960   24.2660   35.2030 N   0  0  0  0  0  0  0  0  0  0  0  0
   37.8640   24.4950   36.4260 C   0  0  0  0  0  2  0  0  0  0  0  0
   37.8550   23.2850   37.3410 C   0  0  0  0  0  2  0  0  0  0  0  0
   39.2870   23.0420   37.7760 C   0  0  0  0  0  3  0  0  0  0  0  0
   39.6360   23.9660   38.2770 H   0  0  0  0  0  0  0  0  0  0  0  0
   40.1030   22.8280   36.5230 C   0  0  0  0  0  2  0  0  0  0  0  0
   39.9570   23.9900   35.5370 C   0  0  0  0  0  2  0  0  0  0  0  0
   38.1550   21.4100   30.4920 C   0  0  0  0  0  0  0  0  0  0  0  0
   37.0930   21.6370   31.4190 C   0  0  0  0  0  0  0  0  0  0  0  0
   36.1270   20.6750   31.5010 C   0  0  0  0  0  0  0  0  0  0  0  0
   36.2590   19.5750   30.6910 N   0  0  0  0  0  0  0  0  0  0  0  0
   37.2560   19.3740   29.8310 C   0  0  0  0  0  0  0  0  0  0  0  0
   38.2040   20.3170   29.7470 N   0  0  0  0  0  0  0  0  0  0  0  0
   37.2240   18.1740   29.1120 N   0  0  0  0  0  0  0  0  0  0  0  0
   38.9820   22.0840   30.3240 H   0  0  0  0  0  0  0  0  0  0  0  0
   37.1460   17.2160   29.5210 H   0  0  0  0  0  0  0  0  0  0  0  0
   37.2790   18.1800   28.0620 H   0  0  0  0  0  0  0  0  0  0  0  0
   35.0120   20.8520   32.4360 C   0  0  0  0  0  0  0  0  0  0  0  0
   34.0350   20.0340   32.1060 F   0  0  0  0  0  0  0  0  0  0  0  0
   35.3530   20.6650   33.7640 F   0  0  0  0  0  0  0  0  0  0  0  0
   34.5110   22.1860   32.3720 F   0  0  0  0  0  0  0  0  0  0  0  0
  1  6  1  0  0  0  0
  2  3  1  0  0  0  0
  2  1  2  0  0  0  0
  3  4  2  0  0  0  0
  4  9  1  0  0  0  0
  4  5  1  0  0  0  0
  5 10  1  0  0  0  0
  6  5  2  0  0  0  0
  7  2  1  0  0  0  0
  8  3  1  0  0  0  0
 10 16  1  0  0  0  0
 10 11  1  0  0  0  0
 11 12  1  0  0  0  0
 12 13  1  0  0  0  0
 13 14  1  0  0  0  0
 15 13  1  0  0  0  0
 16 15  1  0  0  0  0
 17 18  1  0  0  0  0
 18 19  2  0  0  0  0
 18  1  1  0  0  0  0
 19 27  1  0  0  0  0
 20 19  1  0  0  0  0
 21 20  2  0  0  0  0
 22 21  1  0  0  0  0
 22 17  2  0  0  0  0
 23 25  1  0  0  0  0
 23 21  1  0  0  0  0
 24 17  1  0  0  0  0
 26 23  1  0  0  0  0
 27 29  1  0  0  0  0
 28 27  1  0  0  0  0
 30 27  1  0  0  0  0
M  END
>  <minimizedAffinity>
-5.85579681

$$$$

 OpenBabel03262520233D

 30 32  0  0  0  0  0  0  0  0999 V2000
   36.8200   23.1490   31.7520 C   0  0  0  0  0  0  0  0  0  0  0  0
   35.7110   23.5660   30.9940 C   0  0  0  0  0  0  0  0  0  0  0  0
   35.1990   24.8210   30.9660 C   0  0  0  0  0  0  0  0  0  0  0  0
   35.7470   25.7990   31.7010 C   0  0  0  0  0  0  0  0  0  0  0  0
   36.8160   25.4020   32.4350 C   0  0  0  0  0  0  0  0  0  0  0  0
   37.2760   24.1720   32.4290 N   0  0  0  0  0  0  0  0  0  0  0  0
   35.1900   22.7890   30.3430 H   0  0  0  0  0  0  0  0  0  0  0  0
   34.3040   25.0130   30.3110 H   0  0  0  0  0  0  0  0  0  0  0  0
   35.3940   26.7960   31.7210 H   0  0  0  0  0  0  0  0  0  0  0  0
   37.5480   26.3200   33.3000 N   0  0  0  0  0  0  0  0  0  0  0  0
   37.0630   26.7930   34.5740 C   0  0  0  0  0  2  0  0  0  0  0  0
   37.9520   26.3810   35.7320 C   0  0  0  0  0  2  0  0  0  0  0  0
   39.2890   27.0690   35.5360 C   0  0  0  0  0  3  0  0  0  0  0  0
   39.0930   28.1580   35.5040 H   0  0  0  0  0  0  0  0  0  0  0  0
   39.8260   26.6280   34.1950 C   0  0  0  0  0  2  0  0  0  0  0  0
   38.8310   26.9000   33.0620 C   0  0  0  0  0  2  0  0  0  0  0  0
   38.3760   21.6800   30.7320 C   0  0  0  0  0  0  0  0  0  0  0  0
   37.2860   21.7710   31.6490 C   0  0  0  0  0  0  0  0  0  0  0  0
   36.9040   20.6150   32.2720 C   0  0  0  0  0  0  0  0  0  0  0  0
   37.5990   19.4730   31.9650 N   0  0  0  0  0  0  0  0  0  0  0  0
   38.6150   19.4020   31.1080 C   0  0  0  0  0  0  0  0  0  0  0  0
   38.9910   20.5320   30.4950 N   0  0  0  0  0  0  0  0  0  0  0  0
   39.2100   18.1450   30.9520 N   0  0  0  0  0  0  0  0  0  0  0  0
   38.7810   22.5100   30.1710 H   0  0  0  0  0  0  0  0  0  0  0  0
   39.5820   17.5430   31.7190 H   0  0  0  0  0  0  0  0  0  0  0  0
   39.3150   17.7200   29.9950 H   0  0  0  0  0  0  0  0  0  0  0  0
   35.7920   20.6460   33.2260 C   0  0  0  0  0  0  0  0  0  0  0  0
   35.5560   19.4250   33.6560 F   0  0  0  0  0  0  0  0  0  0  0  0
   35.9930   21.4930   34.3020 F   0  0  0  0  0  0  0  0  0  0  0  0
   34.6060   21.1300   32.5980 F   0  0  0  0  0  0  0  0  0  0  0  0
  1  6  1  0  0  0  0
  2  1  2  0  0  0  0
  3  2  1  0  0  0  0
  3  4  2  0  0  0  0
  4  9  1  0  0  0  0
  4  5  1  0  0  0  0
  5 10  1  0  0  0  0
  6  5  2  0  0  0  0
  7  2  1  0  0  0  0
  8  3  1  0  0  0  0
 10 11  1  0  0  0  0
 11 12  1  0  0  0  0
 13 12  1  0  0  0  0
 14 13  1  0  0  0  0
 15 13  1  0  0  0  0
 16 10  1  0  0  0  0
 16 15  1  0  0  0  0
 17 18  1  0  0  0  0
 18  1  1  0  0  0  0
 18 19  2  0  0  0  0
 19 27  1  0  0  0  0
 20 19  1  0  0  0  0
 21 20  2  0  0  0  0
 22 17  2  0  0  0  0
 22 21  1  0  0  0  0
 23 21  1  0  0  0  0
 23 25  1  0  0  0  0
 24 17  1  0  0  0  0
 26 23  1  0  0  0  0
 27 28  1  0  0  0  0
 27 29  1  0  0  0  0
 30 27  1  0  0  0  0
M  END
>  <minimizedAffinity>
-5.77876139

$$$$

 OpenBabel03262520233D

 30 32  0  0  0  0  0  0  0  0999 V2000
   36.1490   23.7730   31.6770 C   0  0  0  0  0  0  0  0  0  0  0  0
   35.1760   24.4410   30.9110 C   0  0  0  0  0  0  0  0  0  0  0  0
   34.9790   25.7820   30.8790 C   0  0  0  0  0  0  0  0  0  0  0  0
   35.7390   26.6030   31.6170 C   0  0  0  0  0  0  0  0  0  0  0  0
   36.6770   25.9640   32.3590 C   0  0  0  0  0  0  0  0  0  0  0  0
   36.8310   24.6600   32.3560 N   0  0  0  0  0  0  0  0  0  0  0  0
   34.4900   23.8100   30.2560 H   0  0  0  0  0  0  0  0  0  0  0  0
   34.1600   26.1810   30.2170 H   0  0  0  0  0  0  0  0  0  0  0  0
   35.6330   27.6560   31.6350 H   0  0  0  0  0  0  0  0  0  0  0  0
   37.6010   26.6830   33.2290 N   0  0  0  0  0  0  0  0  0  0  0  0
   37.2350   27.2600   34.4990 C   0  0  0  0  0  2  0  0  0  0  0  0
   37.9920   26.6500   35.6640 C   0  0  0  0  0  2  0  0  0  0  0  0
   39.4550   27.0000   35.4770 C   0  0  0  0  0  3  0  0  0  0  0  0
   39.5250   28.1040   35.4430 H   0  0  0  0  0  0  0  0  0  0  0  0
   39.8810   26.4410   34.1400 C   0  0  0  0  0  2  0  0  0  0  0  0
   38.9870   26.9400   32.9990 C   0  0  0  0  0  2  0  0  0  0  0  0
   35.0960   21.6870   32.0730 C   0  0  0  0  0  0  0  0  0  0  0  0
   36.2740   22.3240   31.5770 C   0  0  0  0  0  0  0  0  0  0  0  0
   37.2570   21.5110   31.0870 C   0  0  0  0  0  0  0  0  0  0  0  0
   37.0280   20.1580   31.1090 N   0  0  0  0  0  0  0  0  0  0  0  0
   35.9230   19.5760   31.5730 C   0  0  0  0  0  0  0  0  0  0  0  0
   34.9590   20.3710   32.0560 N   0  0  0  0  0  0  0  0  0  0  0  0
   35.8720   18.1810   31.4840 N   0  0  0  0  0  0  0  0  0  0  0  0
   34.2440   22.2040   32.4880 H   0  0  0  0  0  0  0  0  0  0  0  0
   36.0220   17.6160   30.6190 H   0  0  0  0  0  0  0  0  0  0  0  0
   35.6700   17.5990   32.3370 H   0  0  0  0  0  0  0  0  0  0  0  0
   38.4890   22.1070   30.5630 C   0  0  0  0  0  0  0  0  0  0  0  0
   39.1660   21.1930   29.9020 F   0  0  0  0  0  0  0  0  0  0  0  0
   38.2840   23.2140   29.7580 F   0  0  0  0  0  0  0  0  0  0  0  0
   39.3100   22.5790   31.6290 F   0  0  0  0  0  0  0  0  0  0  0  0
  1  6  1  0  0  0  0
  2  1  2  0  0  0  0
  3  2  1  0  0  0  0
  3  4  2  0  0  0  0
  4  9  1  0  0  0  0
  4  5  1  0  0  0  0
  5 10  1  0  0  0  0
  6  5  2  0  0  0  0
  7  2  1  0  0  0  0
  8  3  1  0  0  0  0
 10 11  1  0  0  0  0
 11 12  1  0  0  0  0
 13 12  1  0  0  0  0
 14 13  1  0  0  0  0
 15 13  1  0  0  0  0
 16 10  1  0  0  0  0
 16 15  1  0  0  0  0
 17 24  1  0  0  0  0
 18  1  1  0  0  0  0
 18 17  2  0  0  0  0
 19 20  2  0  0  0  0
 19 18  1  0  0  0  0
 20 21  1  0  0  0  0
 21 22  2  0  0  0  0
 22 17  1  0  0  0  0
 23 21  1  0  0  0  0
 23 26  1  0  0  0  0
 25 23  1  0  0  0  0
 27 19  1  0  0  0  0
 27 30  1  0  0  0  0
 28 27  1  0  0  0  0
 29 27  1  0  0  0  0
M  END
>  <minimizedAffinity>
-5.77732515

$$$$

 OpenBabel03262520233D

 30 32  0  0  0  0  0  0  0  0999 V2000
   36.8620   27.4170   32.8380 C   0  0  0  0  0  0  0  0  0  0  0  0
   37.5600   27.9650   31.7460 C   0  0  0  0  0  0  0  0  0  0  0  0
   37.2400   29.1120   31.0970 C   0  0  0  0  0  0  0  0  0  0  0  0
   36.1780   29.8370   31.4760 C   0  0  0  0  0  0  0  0  0  0  0  0
   35.5010   29.3130   32.5260 C   0  0  0  0  0  0  0  0  0  0  0  0
   35.8500   28.1970   33.1230 N   0  0  0  0  0  0  0  0  0  0  0  0
   38.4760   27.4030   31.3650 H   0  0  0  0  0  0  0  0  0  0  0  0
   37.8900   29.4310   30.2360 H   0  0  0  0  0  0  0  0  0  0  0  0
   35.8780   30.7390   31.0100 H   0  0  0  0  0  0  0  0  0  0  0  0
   34.3160   29.9540   33.0850 N   0  0  0  0  0  0  0  0  0  0  0  0
   33.0160   29.9410   32.4580 C   0  0  0  0  0  2  0  0  0  0  0  0
   31.9630   29.2480   33.3020 C   0  0  0  0  0  2  0  0  0  0  0  0
   31.7870   30.0730   34.5620 C   0  0  0  0  0  3  0  0  0  0  0  0
   31.4910   31.0920   34.2450 H   0  0  0  0  0  0  0  0  0  0  0  0
   33.1340   30.1440   35.2410 C   0  0  0  0  0  2  0  0  0  0  0  0
   34.2200   30.6870   34.3070 C   0  0  0  0  0  2  0  0  0  0  0  0
   37.0820   25.0660   32.6300 C   0  0  0  0  0  0  0  0  0  0  0  0
   37.3490   26.1940   33.4640 C   0  0  0  0  0  0  0  0  0  0  0  0
   38.0140   25.9550   34.6350 C   0  0  0  0  0  0  0  0  0  0  0  0
   38.3680   24.6570   34.9060 N   0  0  0  0  0  0  0  0  0  0  0  0
   38.1140   23.6140   34.1180 C   0  0  0  0  0  0  0  0  0  0  0  0
   37.4620   23.8450   32.9720 N   0  0  0  0  0  0  0  0  0  0  0  0
   38.5820   22.3720   34.5620 N   0  0  0  0  0  0  0  0  0  0  0  0
   36.5680   25.1090   31.6820 H   0  0  0  0  0  0  0  0  0  0  0  0
   39.5640   22.1500   34.8410 H   0  0  0  0  0  0  0  0  0  0  0  0
   37.9270   21.5530   34.6430 H   0  0  0  0  0  0  0  0  0  0  0  0
   38.3170   27.0730   35.5310 C   0  0  0  0  0  0  0  0  0  0  0  0
   39.5020   27.5610   35.2310 F   0  0  0  0  0  0  0  0  0  0  0  0
   37.3740   28.0860   35.5120 F   0  0  0  0  0  0  0  0  0  0  0  0
   38.3520   26.6330   36.8880 F   0  0  0  0  0  0  0  0  0  0  0  0
  1  6  1  0  0  0  0
  1 18  1  0  0  0  0
  2  1  2  0  0  0  0
  3  4  2  0  0  0  0
  3  2  1  0  0  0  0
  4  5  1  0  0  0  0
  5 10  1  0  0  0  0
  5  6  2  0  0  0  0
  7  2  1  0  0  0  0
  8  3  1  0  0  0  0
  9  4  1  0  0  0  0
 10 16  1  0  0  0  0
 11 10  1  0  0  0  0
 11 12  1  0  0  0  0
 12 13  1  0  0  0  0
 13 15  1  0  0  0  0
 14 13  1  0  0  0  0
 16 15  1  0  0  0  0
 17 22  2  0  0  0  0
 17 18  1  0  0  0  0
 18 19  2  0  0  0  0
 19 20  1  0  0  0  0
 19 27  1  0  0  0  0
 21 23  1  0  0  0  0
 21 20  2  0  0  0  0
 22 21  1  0  0  0  0
 23 26  1  0  0  0  0
 23 25  1  0  0  0  0
 24 17  1  0  0  0  0
 27 30  1  0  0  0  0
 28 27  1  0  0  0  0
 29 27  1  0  0  0  0
M  END
>  <minimizedAffinity>
-5.76816034

$$$$

 OpenBabel03262520233D

 30 32  0  0  0  0  0  0  0  0999 V2000
   37.6010   25.2520   32.4550 C   0  0  0  0  0  0  0  0  0  0  0  0
   36.7290   26.1420   31.8010 C   0  0  0  0  0  0  0  0  0  0  0  0
   35.5790   25.8020   31.1710 C   0  0  0  0  0  0  0  0  0  0  0  0
   35.1760   24.5240   31.1260 C   0  0  0  0  0  0  0  0  0  0  0  0
   36.0130   23.6620   31.7520 C   0  0  0  0  0  0  0  0  0  0  0  0
   37.1190   24.0390   32.3510 N   0  0  0  0  0  0  0  0  0  0  0  0
   37.0050   27.2480   31.7970 H   0  0  0  0  0  0  0  0  0  0  0  0
   34.9780   26.6220   30.6880 H   0  0  0  0  0  0  0  0  0  0  0  0
   34.2890   24.1970   30.6490 H   0  0  0  0  0  0  0  0  0  0  0  0
   35.7500   22.2280   31.8120 N   0  0  0  0  0  0  0  0  0  0  0  0
   35.9250   21.3250   30.7000 C   0  0  0  0  0  2  0  0  0  0  0  0
   36.9670   20.2560   30.9690 C   0  0  0  0  0  2  0  0  0  0  0  0
   36.4400   19.3940   32.1000 C   0  0  0  0  0  3  0  0  0  0  0  0
   35.4670   18.9820   31.7700 H   0  0  0  0  0  0  0  0  0  0  0  0
   36.2100   20.3030   33.2840 C   0  0  0  0  0  2  0  0  0  0  0  0
   35.2880   21.4770   32.9350 C   0  0  0  0  0  2  0  0  0  0  0  0
   39.8800   25.8590   32.2170 C   0  0  0  0  0  0  0  0  0  0  0  0
   38.7860   25.7680   33.1300 C   0  0  0  0  0  0  0  0  0  0  0  0
   39.0110   26.1920   34.4100 C   0  0  0  0  0  0  0  0  0  0  0  0
   40.2630   26.6680   34.7070 N   0  0  0  0  0  0  0  0  0  0  0  0
   41.2760   26.7490   33.8450 C   0  0  0  0  0  0  0  0  0  0  0  0
   41.0580   26.3330   32.5900 N   0  0  0  0  0  0  0  0  0  0  0  0
   42.4690   27.2890   34.3370 N   0  0  0  0  0  0  0  0  0  0  0  0
   39.8440   25.5610   31.1800 H   0  0  0  0  0  0  0  0  0  0  0  0
   42.5730   28.2090   34.8200 H   0  0  0  0  0  0  0  0  0  0  0  0
   43.3740   26.7610   34.2390 H   0  0  0  0  0  0  0  0  0  0  0  0
   37.9260   26.1240   35.3920 C   0  0  0  0  0  0  0  0  0  0  0  0
   38.3250   26.6740   36.5190 F   0  0  0  0  0  0  0  0  0  0  0  0
   36.7470   26.7150   34.9720 F   0  0  0  0  0  0  0  0  0  0  0  0
   37.5770   24.7680   35.6620 F   0  0  0  0  0  0  0  0  0  0  0  0
  1 18  1  0  0  0  0
  2  1  2  0  0  0  0
  3  2  1  0  0  0  0
  4  3  2  0  0  0  0
  4  5  1  0  0  0  0
  5 10  1  0  0  0  0
  5  6  2  0  0  0  0
  6  1  1  0  0  0  0
  7  2  1  0  0  0  0
  8  3  1  0  0  0  0
  9  4  1  0  0  0  0
 10 16  1  0  0  0  0
 11 12  1  0  0  0  0
 11 10  1  0  0  0  0
 12 13  1  0  0  0  0
 13 15  1  0  0  0  0
 14 13  1  0  0  0  0
 16 15  1  0  0  0  0
 17 22  2  0  0  0  0
 17 18  1  0  0  0  0
 18 19  2  0  0  0  0
 19 20  1  0  0  0  0
 19 27  1  0  0  0  0
 21 23  1  0  0  0  0
 21 20  2  0  0  0  0
 22 21  1  0  0  0  0
 23 25  1  0  0  0  0
 24 17  1  0  0  0  0
 26 23  1  0  0  0  0
 27 30  1  0  0  0  0
 27 28  1  0  0  0  0
 29 27  1  0  0  0  0
M  END
>  <minimizedAffinity>
-5.75961733

$$$$

 OpenBabel03262520233D

 30 32  0  0  0  0  0  0  0  0999 V2000
   38.6900   23.8130   35.5180 C   0  0  0  0  0  0  0  0  0  0  0  0
   37.9490   23.8440   36.7130 C   0  0  0  0  0  0  0  0  0  0  0  0
   38.3980   23.4560   37.9320 C   0  0  0  0  0  0  0  0  0  0  0  0
   39.6460   22.9900   38.0840 C   0  0  0  0  0  0  0  0  0  0  0  0
   40.3640   22.9560   36.9350 C   0  0  0  0  0  0  0  0  0  0  0  0
   39.8850   23.3440   35.7760 N   0  0  0  0  0  0  0  0  0  0  0  0
   36.8770   24.2280   36.6640 H   0  0  0  0  0  0  0  0  0  0  0  0
   37.6930   23.5360   38.8060 H   0  0  0  0  0  0  0  0  0  0  0  0
   40.0530   22.6730   39.0090 H   0  0  0  0  0  0  0  0  0  0  0  0
   41.7420   22.4800   36.8940 N   0  0  0  0  0  0  0  0  0  0  0  0
   42.1220   21.0900   36.9730 C   0  0  0  0  0  2  0  0  0  0  0  0
   42.8420   20.6050   35.7290 C   0  0  0  0  0  2  0  0  0  0  0  0
   44.1490   21.3690   35.6440 C   0  0  0  0  0  3  0  0  0  0  0  0
   44.7070   21.1650   36.5780 H   0  0  0  0  0  0  0  0  0  0  0  0
   43.8040   22.8380   35.5900 C   0  0  0  0  0  2  0  0  0  0  0  0
   42.9280   23.2660   36.7710 C   0  0  0  0  0  2  0  0  0  0  0  0
   37.6600   23.2120   33.4690 C   0  0  0  0  0  0  0  0  0  0  0  0
   38.0880   24.3040   34.2840 C   0  0  0  0  0  0  0  0  0  0  0  0
   37.8440   25.5620   33.8100 C   0  0  0  0  0  0  0  0  0  0  0  0
   37.2080   25.6690   32.5990 N   0  0  0  0  0  0  0  0  0  0  0  0
   36.8120   24.6420   31.8490 C   0  0  0  0  0  0  0  0  0  0  0  0
   37.0520   23.4080   32.3100 N   0  0  0  0  0  0  0  0  0  0  0  0
   36.1570   24.9610   30.6550 N   0  0  0  0  0  0  0  0  0  0  0  0
   37.7890   22.1690   33.7180 H   0  0  0  0  0  0  0  0  0  0  0  0
   35.3230   25.5830   30.5600 H   0  0  0  0  0  0  0  0  0  0  0  0
   36.4940   24.5680   29.7390 H   0  0  0  0  0  0  0  0  0  0  0  0
   38.2590   26.7230   34.6030 C   0  0  0  0  0  0  0  0  0  0  0  0
   38.0960   27.8160   33.8890 F   0  0  0  0  0  0  0  0  0  0  0  0
   37.5980   26.8480   35.8120 F   0  0  0  0  0  0  0  0  0  0  0  0
   39.6390   26.6240   34.9510 F   0  0  0  0  0  0  0  0  0  0  0  0
  1  6  2  0  0  0  0
  1  2  1  0  0  0  0
  2  3  2  0  0  0  0
  3  4  1  0  0  0  0
  3  8  1  0  0  0  0
  4  9  1  0  0  0  0
  5  4  2  0  0  0  0
  6  5  1  0  0  0  0
  7  2  1  0  0  0  0
 10  5  1  0  0  0  0
 10 11  1  0  0  0  0
 12 11  1  0  0  0  0
 13 12  1  0  0  0  0
 13 14  1  0  0  0  0
 15 13  1  0  0  0  0
 15 16  1  0  0  0  0
 16 10  1  0  0  0  0
 17 24  1  0  0  0  0
 17 18  1  0  0  0  0
 18  1  1  0  0  0  0
 19 18  2  0  0  0  0
 19 27  1  0  0  0  0
 20 19  1  0  0  0  0
 21 22  1  0  0  0  0
 21 20  2  0  0  0  0
 22 17  2  0  0  0  0
 23 21  1  0  0  0  0
 25 23  1  0  0  0  0
 26 23  1  0  0  0  0
 27 30  1  0  0  0  0
 27 29  1  0  0  0  0
 28 27  1  0  0  0  0
M  END
>  <minimizedAffinity>
-5.69373178

$$$$

 OpenBabel03262520233D

 30 32  0  0  0  0  0  0  0  0999 V2000
   35.5170   29.9760   34.0450 C   0  0  0  0  0  0  0  0  0  0  0  0
   35.1640   30.2130   32.7030 C   0  0  0  0  0  0  0  0  0  0  0  0
   35.5670   29.4790   31.6380 C   0  0  0  0  0  0  0  0  0  0  0  0
   36.3740   28.4210   31.8030 C   0  0  0  0  0  0  0  0  0  0  0  0
   36.7180   28.1890   33.0930 C   0  0  0  0  0  0  0  0  0  0  0  0
   36.3010   28.9300   34.0940 N   0  0  0  0  0  0  0  0  0  0  0  0
   34.4790   31.0970   32.4830 H   0  0  0  0  0  0  0  0  0  0  0  0
   35.2060   29.7850   30.6170 H   0  0  0  0  0  0  0  0  0  0  0  0
   36.7220   27.8100   31.0120 H   0  0  0  0  0  0  0  0  0  0  0  0
   37.5900   27.0850   33.4780 N   0  0  0  0  0  0  0  0  0  0  0  0
   39.0190   27.0710   33.2710 C   0  0  0  0  0  2  0  0  0  0  0  0
   39.8000   26.9850   34.5690 C   0  0  0  0  0  2  0  0  0  0  0  0
   39.4770   25.6430   35.1970 C   0  0  0  0  0  3  0  0  0  0  0  0
   39.7620   24.8640   34.4650 H   0  0  0  0  0  0  0  0  0  0  0  0
   37.9820   25.5960   35.4050 C   0  0  0  0  0  2  0  0  0  0  0  0
   37.2130   25.8590   34.1060 C   0  0  0  0  0  2  0  0  0  0  0  0
   35.9380   31.7910   35.5100 C   0  0  0  0  0  0  0  0  0  0  0  0
   34.9700   30.8270   35.0950 C   0  0  0  0  0  0  0  0  0  0  0  0
   33.7440   30.8830   35.6970 C   0  0  0  0  0  0  0  0  0  0  0  0
   33.5490   31.8580   36.6430 N   0  0  0  0  0  0  0  0  0  0  0  0
   34.4610   32.7530   37.0190 C   0  0  0  0  0  0  0  0  0  0  0  0
   35.6630   32.6990   36.4320 N   0  0  0  0  0  0  0  0  0  0  0  0
   34.0560   33.6830   37.9830 N   0  0  0  0  0  0  0  0  0  0  0  0
   36.9430   31.8630   35.1200 H   0  0  0  0  0  0  0  0  0  0  0  0
   33.2150   34.2990   37.9260 H   0  0  0  0  0  0  0  0  0  0  0  0
   34.6140   33.8140   38.8660 H   0  0  0  0  0  0  0  0  0  0  0  0
   32.7090   29.9200   35.3120 C   0  0  0  0  0  0  0  0  0  0  0  0
   33.2240   28.7090   35.3070 F   0  0  0  0  0  0  0  0  0  0  0  0
   31.5830   29.9490   36.1160 F   0  0  0  0  0  0  0  0  0  0  0  0
   32.2270   30.2000   34.0000 F   0  0  0  0  0  0  0  0  0  0  0  0
  1  6  1  0  0  0  0
  1 18  1  0  0  0  0
  2  1  2  0  0  0  0
  3  4  2  0  0  0  0
  3  2  1  0  0  0  0
  4  5  1  0  0  0  0
  5 10  1  0  0  0  0
  5  6  2  0  0  0  0
  7  2  1  0  0  0  0
  8  3  1  0  0  0  0
  9  4  1  0  0  0  0
 10 16  1  0  0  0  0
 11 10  1  0  0  0  0
 11 12  1  0  0  0  0
 12 13  1  0  0  0  0
 13 15  1  0  0  0  0
 14 13  1  0  0  0  0
 16 15  1  0  0  0  0
 17 22  1  0  0  0  0
 18 17  2  0  0  0  0
 18 19  1  0  0  0  0
 19 20  2  0  0  0  0
 20 21  1  0  0  0  0
 21 23  1  0  0  0  0
 22 21  2  0  0  0  0
 23 26  1  0  0  0  0
 24 17  1  0  0  0  0
 25 23  1  0  0  0  0
 27 19  1  0  0  0  0
 27 29  1  0  0  0  0
 28 27  1  0  0  0  0
 30 27  1  0  0  0  0
M  END
>  <minimizedAffinity>
-5.6024785

$$$$
