
 OpenBabel03272507573D

 30 32  0  0  0  0  0  0  0  0999 V2000
   36.9250   31.3060   48.5150 C   0  0  0  0  0  0  0  0  0  0  0  0
   37.1610   32.1560   49.5880 C   0  0  0  0  0  0  0  0  0  0  0  0
   38.0900   33.1770   49.4420 C   0  0  0  0  0  0  0  0  0  0  0  0
   38.7610   33.3280   48.2340 C   0  0  0  0  0  0  0  0  0  0  0  0
   38.4940   32.4630   47.2050 C   0  0  0  0  0  0  0  0  0  0  0  0
   37.5950   31.4910   47.3750 N   0  0  0  0  0  0  0  0  0  0  0  0
   36.7120   32.1590   50.5870 H   0  0  0  0  0  0  0  0  0  0  0  0
   38.3370   33.8850   50.2220 H   0  0  0  0  0  0  0  0  0  0  0  0
   39.4840   34.1240   48.1270 H   0  0  0  0  0  0  0  0  0  0  0  0
   39.1330   32.5460   45.9400 N   0  0  0  0  0  0  0  0  0  0  0  0
   40.4540   33.0320   45.6260 C   0  0  0  0  0  2  0  0  0  0  0  0
   41.3070   31.8590   45.2280 C   0  0  0  0  0  2  0  0  0  0  0  0
   40.6970   31.0630   44.0990 C   0  0  0  0  0  3  0  0  0  0  0  0
   40.9680   31.6030   43.1630 H   0  0  0  0  0  0  0  0  0  0  0  0
   39.2200   30.9150   44.1800 C   0  0  0  0  0  2  0  0  0  0  0  0
   38.4850   32.1200   44.7170 C   0  0  0  0  0  2  0  0  0  0  0  0
   35.1620   28.4150   50.1580 C   0  0  0  0  0  0  0  0  0  0  0  0
   36.1550   29.3960   49.8740 C   0  0  0  0  0  0  0  0  0  0  0  0
   35.9250   30.2900   48.8290 C   0  0  0  0  0  0  0  0  0  0  0  0
   34.7560   30.1810   48.1260 N   0  0  0  0  0  0  0  0  0  0  0  0
   33.8370   29.2210   48.4420 C   0  0  0  0  0  0  0  0  0  0  0  0
   34.0260   28.3540   49.4330 N   0  0  0  0  0  0  0  0  0  0  0  0
   32.7060   29.3020   47.5770 N   0  0  0  0  0  0  0  0  0  0  0  0
   35.3070   27.7110   50.9570 H   0  0  0  0  0  0  0  0  0  0  0  0
   32.0160   30.0870   47.7280 H   0  0  0  0  0  0  0  0  0  0  0  0
   32.5800   28.5830   46.8100 H   0  0  0  0  0  0  0  0  0  0  0  0
   37.3890   29.4170   50.7090 C   0  0  0  0  0  0  0  0  0  0  0  0
   38.4900   29.8140   49.9670 F   0  0  0  0  0  0  0  0  0  0  0  0
   37.2070   30.3150   51.7270 F   0  0  0  0  0  0  0  0  0  0  0  0
   37.6760   28.1960   51.2750 F   0  0  0  0  0  0  0  0  0  0  0  0
  1 19  1  0  0  0  0
  1  2  1  0  0  0  0
  2  7  1  0  0  0  0
  3  2  2  0  0  0  0
  3  8  1  0  0  0  0
  4  3  1  0  0  0  0
  5  6  1  0  0  0  0
  5  4  2  0  0  0  0
  6  1  2  0  0  0  0
  9  4  1  0  0  0  0
 10  5  1  0  0  0  0
 11 10  1  0  0  0  0
 12 11  1  0  0  0  0
 13 15  1  0  0  0  0
 13 12  1  0  0  0  0
 14 13  1  0  0  0  0
 15 16  1  0  0  0  0
 16 10  1  0  0  0  0
 17 24  1  0  0  0  0
 18 17  1  0  0  0  0
 18 27  1  0  0  0  0
 19 18  2  0  0  0  0
 20 21  2  0  0  0  0
 20 19  1  0  0  0  0
 21 22  1  0  0  0  0
 22 17  2  0  0  0  0
 23 25  1  0  0  0  0
 23 21  1  0  0  0  0
 26 23  1  0  0  0  0
 27 30  1  0  0  0  0
 27 29  1  0  0  0  0
 28 27  1  0  0  0  0
M  END
>  <minimizedAffinity>
-7.64643049

>  <minimizedRMSD>
0.909968436

$$$$
