
 OpenBabel03272510003D

 19 20  0  0  0  0  0  0  0  0999 V2000
   38.1470   31.4530   50.3250 C   0  0  0  0  0  0  0  0  0  0  0  0
   38.7000   31.6670   49.0630 C   0  0  0  0  0  0  0  0  0  0  0  0
   38.0840   31.0680   47.9680 C   0  0  0  0  0  0  0  0  0  0  0  0
   36.9800   30.3100   48.1910 N   0  0  0  0  0  0  0  0  0  0  0  0
   36.4770   30.1280   49.4170 C   0  0  0  0  0  0  0  0  0  0  0  0
   37.0580   30.6960   50.4770 N   0  0  0  0  0  0  0  0  0  0  0  0
   38.6940   31.9570   51.1050 H   0  0  0  0  0  0  0  0  0  0  0  0
   39.5600   32.2480   48.8280 H   0  0  0  0  0  0  0  0  0  0  0  0
   38.4750   31.1500   46.6010 N   0  0  0  0  0  0  0  0  0  0  0  0
   37.5900   31.2420   45.4830 C   0  0  0  0  0  2  0  0  0  0  0  0
   37.8300   32.4090   44.5820 C   0  0  0  0  0  2  0  0  0  0  0  0
   39.2810   32.4870   44.1620 C   0  0  0  0  0  3  0  0  0  0  0  0
   39.4760   33.3500   43.5280 H   0  0  0  0  0  0  0  0  0  0  0  0
   40.0850   32.5110   45.4630 C   0  0  0  0  0  2  0  0  0  0  0  0
   39.8300   31.1540   46.1030 C   0  0  0  0  0  2  0  0  0  0  0  0
   35.2640   29.2820   49.5780 C   0  0  0  0  0  0  0  0  0  0  0  0
   35.0760   28.8280   50.8600 F   0  0  0  0  0  0  0  0  0  0  0  0
   34.1100   29.9980   49.2340 F   0  0  0  0  0  0  0  0  0  0  0  0
   35.2560   28.1830   48.7400 F   0  0  0  0  0  0  0  0  0  0  0  0
  1  6  1  0  0  0  0
  1  7  1  0  0  0  0
  2  1  2  0  0  0  0
  3  4  2  0  0  0  0
  3  2  1  0  0  0  0
  4  5  1  0  0  0  0
  5 16  1  0  0  0  0
  5  6  2  0  0  0  0
  8  2  1  0  0  0  0
  9  3  1  0  0  0  0
 10  9  1  0  0  0  0
 11 10  1  0  0  0  0
 12 11  1  0  0  0  0
 12 14  1  0  0  0  0
 13 12  1  0  0  0  0
 14 15  1  0  0  0  0
 15  9  1  0  0  0  0
 16 17  1  0  0  0  0
 18 16  1  0  0  0  0
 19 16  1  0  0  0  0
M  END
>  <minimizedAffinity>
-5.06016064

>  <minimizedRMSD>
1.77905786

$$$$
