
 OpenBabel03272506003D

 42 45  0  0  1  0  0  0  0  0999 V2000
   35.0920   29.5800   33.0470 C   0  0  2  0  0  0  0  0  0  0  0  0
   35.5240   28.1740   33.2370 C   0  0  0  0  0  0  0  0  0  0  0  0
   37.0160   27.9740   32.9330 C   0  0  2  0  0  0  0  0  0  0  0  0
   37.4250   28.4100   31.5990 C   0  0  0  0  0  0  0  0  0  0  0  0
   36.7260   29.6870   31.1370 C   0  0  0  0  0  0  0  0  0  0  0  0
   36.1060   30.4200   32.2980 C   0  0  0  0  0  0  0  0  0  0  0  0
   34.1540   29.6780   32.4210 H   0  0  0  0  0  0  0  0  0  0  0  0
   35.3910   27.6610   34.1570 H   0  0  0  0  0  0  0  0  0  0  0  0
   35.0210   27.5800   32.4020 H   0  0  0  0  0  0  0  0  0  0  0  0
   37.5920   28.4660   33.7340 H   0  0  0  0  0  0  0  0  0  0  0  0
   37.1850   27.6530   30.8290 H   0  0  0  0  0  0  0  0  0  0  0  0
   38.5280   28.5260   31.5640 H   0  0  0  0  0  0  0  0  0  0  0  0
   37.5150   30.3490   30.7290 H   0  0  0  0  0  0  0  0  0  0  0  0
   36.0030   29.5040   30.3200 H   0  0  0  0  0  0  0  0  0  0  0  0
   35.6040   31.3170   31.9040 H   0  0  0  0  0  0  0  0  0  0  0  0
   36.9320   30.6590   33.0140 H   0  0  0  0  0  0  0  0  0  0  0  0
   38.0080   27.1000   35.5710 Cl  0  0  0  0  0  0  0  0  0  0  0  0
   37.7100   25.9780   34.2550 C   0  0  0  0  0  0  0  0  0  0  0  0
   37.2100   26.4990   33.0780 C   0  0  0  0  0  0  0  0  0  0  0  0
   36.9850   25.5370   32.1130 C   0  0  0  0  0  0  0  0  0  0  0  0
   37.2400   24.1970   32.3180 C   0  0  0  0  0  0  0  0  0  0  0  0
   37.7450   23.7540   33.5340 C   0  0  0  0  0  0  0  0  0  0  0  0
   37.9860   24.6830   34.5350 C   0  0  0  0  0  0  0  0  0  0  0  0
   36.5880   25.8700   31.1620 H   0  0  0  0  0  0  0  0  0  0  0  0
   37.0250   23.5300   31.4830 H   0  0  0  0  0  0  0  0  0  0  0  0
   37.9280   22.7000   33.6470 H   0  0  0  0  0  0  0  0  0  0  0  0
   38.5030   24.2280   35.7830 N   0  0  0  0  0  0  0  0  0  0  0  0
   39.8810   23.8290   35.9240 C   0  0  0  0  0  2  0  0  0  0  0  0
   40.0760   22.8170   37.0290 C   0  0  0  0  0  2  0  0  0  0  0  0
   39.3820   23.4230   38.2570 C   0  0  0  0  0  3  0  0  0  0  0  0
   39.6430   22.8900   39.1850 H   0  0  0  0  0  0  0  0  0  0  0  0
   37.8940   23.3170   37.9770 C   0  0  0  0  0  2  0  0  0  0  0  0
   37.5250   24.2190   36.8240 C   0  0  0  0  0  2  0  0  0  0  0  0
   34.7950   30.2710   34.3100 C   0  0  0  0  0  0  0  0  0  0  0  0
   35.8870   30.9030   34.9090 C   0  0  0  0  0  0  0  0  0  0  0  0
   35.6580   31.5910   36.1080 C   0  0  0  0  0  0  0  0  0  0  0  0
   34.3720   31.6090   36.6390 N   0  0  0  0  0  0  0  0  0  0  0  0
   33.3510   30.9820   36.0240 C   0  0  0  0  0  0  0  0  0  0  0  0
   33.5950   30.3330   34.8810 N   0  0  0  0  0  0  0  0  0  0  0  0
   36.9400   31.0550   34.7570 H   0  0  0  0  0  0  0  0  0  0  0  0
   36.2860   32.1460   36.7590 H   0  0  0  0  0  0  0  0  0  0  0  0
   32.3520   30.9780   36.4070 H   0  0  0  0  0  0  0  0  0  0  0  0
  1  7  1  6  0  0  0
  1  2  1  0  0  0  0
  1 34  1  0  0  0  0
  2  8  1  0  0  0  0
  3 19  1  0  0  0  0
  3  2  1  0  0  0  0
  3 10  1  1  0  0  0
  4  3  1  0  0  0  0
  5  4  1  0  0  0  0
  5  6  1  0  0  0  0
  6 16  1  0  0  0  0
  6  1  1  0  0  0  0
  9  2  1  0  0  0  0
 11  4  1  0  0  0  0
 12  4  1  0  0  0  0
 13  5  1  0  0  0  0
 14  5  1  0  0  0  0
 15  6  1  0  0  0  0
 18 23  1  0  0  0  0
 18 17  1  0  0  0  0
 19 18  2  0  0  0  0
 20 21  2  0  0  0  0
 20 19  1  0  0  0  0
 21 22  1  0  0  0  0
 22 26  1  0  0  0  0
 22 23  2  0  0  0  0
 23 27  1  0  0  0  0
 24 20  1  0  0  0  0
 25 21  1  0  0  0  0
 27 28  1  0  0  0  0
 27 33  1  0  0  0  0
 28 29  1  0  0  0  0
 29 30  1  0  0  0  0
 30 31  1  0  0  0  0
 32 30  1  0  0  0  0
 33 32  1  0  0  0  0
 34 39  2  0  0  0  0
 34 35  1  0  0  0  0
 35 36  2  0  0  0  0
 36 37  1  0  0  0  0
 36 41  1  0  0  0  0
 38 42  1  0  0  0  0
 38 37  2  0  0  0  0
 39 38  1  0  0  0  0
 40 35  1  0  0  0  0
M  END
>  <minimizedAffinity>
-6.12498522

$$$$

 OpenBabel03272506003D

 42 45  0  0  1  0  0  0  0  0999 V2000
   35.5180   28.7780   31.8650 C   0  0  2  0  0  0  0  0  0  0  0  0
   35.8900   27.4180   32.3250 C   0  0  0  0  0  0  0  0  0  0  0  0
   37.3970   27.2790   32.5820 C   0  0  2  0  0  0  0  0  0  0  0  0
   38.2400   27.6310   31.4410 C   0  0  0  0  0  0  0  0  0  0  0  0
   37.7180   28.8260   30.6460 C   0  0  0  0  0  0  0  0  0  0  0  0
   36.7090   29.6120   31.4430 C   0  0  0  0  0  0  0  0  0  0  0  0
   34.8590   28.7720   30.9450 H   0  0  0  0  0  0  0  0  0  0  0  0
   35.4540   26.9720   33.1850 H   0  0  0  0  0  0  0  0  0  0  0  0
   35.7300   26.7320   31.4270 H   0  0  0  0  0  0  0  0  0  0  0  0
   37.6410   27.8650   33.4840 H   0  0  0  0  0  0  0  0  0  0  0  0
   38.3070   26.8040   30.7110 H   0  0  0  0  0  0  0  0  0  0  0  0
   39.2810   27.8070   31.7830 H   0  0  0  0  0  0  0  0  0  0  0  0
   38.5830   29.4980   30.4800 H   0  0  0  0  0  0  0  0  0  0  0  0
   37.3350   28.5390   29.6490 H   0  0  0  0  0  0  0  0  0  0  0  0
   36.3560   30.4450   30.8160 H   0  0  0  0  0  0  0  0  0  0  0  0
   37.2220   29.9540   32.3760 H   0  0  0  0  0  0  0  0  0  0  0  0
   38.1420   26.7370   35.3860 Cl  0  0  0  0  0  0  0  0  0  0  0  0
   37.9530   25.4620   34.1950 C   0  0  0  0  0  0  0  0  0  0  0  0
   37.5650   25.8340   32.9240 C   0  0  0  0  0  0  0  0  0  0  0  0
   37.4190   24.7600   32.0670 C   0  0  0  0  0  0  0  0  0  0  0  0
   37.6430   23.4550   32.4560 C   0  0  0  0  0  0  0  0  0  0  0  0
   38.0330   23.1670   33.7570 C   0  0  0  0  0  0  0  0  0  0  0  0
   38.1920   24.2120   34.6560 C   0  0  0  0  0  0  0  0  0  0  0  0
   37.1110   24.9730   31.0510 H   0  0  0  0  0  0  0  0  0  0  0  0
   37.4970   22.6910   31.6930 H   0  0  0  0  0  0  0  0  0  0  0  0
   38.1960   22.1350   34.0150 H   0  0  0  0  0  0  0  0  0  0  0  0
   38.5920   23.9150   35.9910 N   0  0  0  0  0  0  0  0  0  0  0  0
   39.9530   23.5610   36.3070 C   0  0  0  0  0  2  0  0  0  0  0  0
   40.0500   22.6880   37.5360 C   0  0  0  0  0  2  0  0  0  0  0  0
   39.2380   23.4190   38.6130 C   0  0  0  0  0  3  0  0  0  0  0  0
   39.4130   23.0020   39.6180 H   0  0  0  0  0  0  0  0  0  0  0  0
   37.7840   23.2520   38.2100 C   0  0  0  0  0  2  0  0  0  0  0  0
   37.5180   24.0070   36.9300 C   0  0  0  0  0  2  0  0  0  0  0  0
   34.7760   29.5470   32.8750 C   0  0  0  0  0  0  0  0  0  0  0  0
   35.5610   30.1120   33.8820 C   0  0  0  0  0  0  0  0  0  0  0  0
   34.9080   30.8710   34.8620 C   0  0  0  0  0  0  0  0  0  0  0  0
   33.5260   31.0210   34.7880 N   0  0  0  0  0  0  0  0  0  0  0  0
   32.8130   30.4550   33.7960 C   0  0  0  0  0  0  0  0  0  0  0  0
   33.4580   29.7370   32.8730 N   0  0  0  0  0  0  0  0  0  0  0  0
   36.5870   30.1680   34.1970 H   0  0  0  0  0  0  0  0  0  0  0  0
   35.2460   31.4000   35.7170 H   0  0  0  0  0  0  0  0  0  0  0  0
   31.7500   30.5520   33.7120 H   0  0  0  0  0  0  0  0  0  0  0  0
  1  7  1  6  0  0  0
  1  2  1  0  0  0  0
  1 34  1  0  0  0  0
  2  3  1  0  0  0  0
  2  8  1  0  0  0  0
  3 19  1  0  0  0  0
  3 10  1  1  0  0  0
  4 12  1  0  0  0  0
  4  3  1  0  0  0  0
  5  4  1  0  0  0  0
  5  6  1  0  0  0  0
  6  1  1  0  0  0  0
  6 16  1  0  0  0  0
  9  2  1  0  0  0  0
 11  4  1  0  0  0  0
 13  5  1  0  0  0  0
 14  5  1  0  0  0  0
 15  6  1  0  0  0  0
 18 23  1  0  0  0  0
 18 17  1  0  0  0  0
 19 18  2  0  0  0  0
 20 21  2  0  0  0  0
 20 19  1  0  0  0  0
 21 22  1  0  0  0  0
 22 26  1  0  0  0  0
 22 23  2  0  0  0  0
 23 27  1  0  0  0  0
 24 20  1  0  0  0  0
 25 21  1  0  0  0  0
 27 28  1  0  0  0  0
 27 33  1  0  0  0  0
 28 29  1  0  0  0  0
 29 30  1  0  0  0  0
 30 31  1  0  0  0  0
 32 30  1  0  0  0  0
 33 32  1  0  0  0  0
 34 35  1  0  0  0  0
 35 40  1  0  0  0  0
 35 36  2  0  0  0  0
 36 41  1  0  0  0  0
 37 36  1  0  0  0  0
 38 37  2  0  0  0  0
 39 34  2  0  0  0  0
 39 38  1  0  0  0  0
 42 38  1  0  0  0  0
M  END
>  <minimizedAffinity>
-5.98143291

$$$$

 OpenBabel03272506003D

 42 45  0  0  1  0  0  0  0  0999 V2000
   34.8140   30.2420   32.9280 C   0  0  2  0  0  0  0  0  0  0  0  0
   35.1220   28.7930   32.8740 C   0  0  0  0  0  0  0  0  0  0  0  0
   36.5790   28.5190   32.4730 C   0  0  2  0  0  0  0  0  0  0  0  0
   36.9810   29.1280   31.2050 C   0  0  0  0  0  0  0  0  0  0  0  0
   36.3850   30.5160   30.9830 C   0  0  0  0  0  0  0  0  0  0  0  0
   35.8730   31.1030   32.2730 C   0  0  0  0  0  0  0  0  0  0  0  0
   33.8670   30.5180   32.3700 H   0  0  0  0  0  0  0  0  0  0  0  0
   34.9740   28.1510   33.7080 H   0  0  0  0  0  0  0  0  0  0  0  0
   34.5410   28.3850   31.9810 H   0  0  0  0  0  0  0  0  0  0  0  0
   37.2240   28.8270   33.3130 H   0  0  0  0  0  0  0  0  0  0  0  0
   36.6480   28.5270   30.3390 H   0  0  0  0  0  0  0  0  0  0  0  0
   38.0880   29.1550   31.1370 H   0  0  0  0  0  0  0  0  0  0  0  0
   37.2180   31.1660   30.6470 H   0  0  0  0  0  0  0  0  0  0  0  0
   35.6220   30.5280   30.1830 H   0  0  0  0  0  0  0  0  0  0  0  0
   35.4420   32.0910   32.0480 H   0  0  0  0  0  0  0  0  0  0  0  0
   36.7410   31.1550   32.9770 H   0  0  0  0  0  0  0  0  0  0  0  0
   38.3470   27.2150   34.4430 Cl  0  0  0  0  0  0  0  0  0  0  0  0
   37.4700   26.3140   33.2180 C   0  0  0  0  0  0  0  0  0  0  0  0
   36.6440   27.0300   32.3750 C   0  0  0  0  0  0  0  0  0  0  0  0
   35.9790   26.2310   31.4650 C   0  0  0  0  0  0  0  0  0  0  0  0
   36.1360   24.8610   31.4140 C   0  0  0  0  0  0  0  0  0  0  0  0
   36.9910   24.2190   32.3000 C   0  0  0  0  0  0  0  0  0  0  0  0
   37.6800   24.9770   33.2350 C   0  0  0  0  0  0  0  0  0  0  0  0
   35.3070   26.7210   30.7720 H   0  0  0  0  0  0  0  0  0  0  0  0
   35.5610   24.3360   30.6520 H   0  0  0  0  0  0  0  0  0  0  0  0
   37.0820   23.1480   32.2230 H   0  0  0  0  0  0  0  0  0  0  0  0
   38.5560   24.3170   34.1440 N   0  0  0  0  0  0  0  0  0  0  0  0
   38.0810   23.7930   35.4000 C   0  0  0  0  0  2  0  0  0  0  0  0
   39.1660   23.7410   36.4490 C   0  0  0  0  0  2  0  0  0  0  0  0
   40.3410   23.0180   35.7770 C   0  0  0  0  0  3  0  0  0  0  0  0
   41.1130   22.7170   36.5040 H   0  0  0  0  0  0  0  0  0  0  0  0
   40.9060   24.0060   34.7730 C   0  0  0  0  0  2  0  0  0  0  0  0
   39.9030   24.2460   33.6710 C   0  0  0  0  0  2  0  0  0  0  0  0
   34.6230   30.7440   34.2970 C   0  0  0  0  0  0  0  0  0  0  0  0
   35.7710   31.2540   34.9050 C   0  0  0  0  0  0  0  0  0  0  0  0
   35.6440   31.7610   36.2050 C   0  0  0  0  0  0  0  0  0  0  0  0
   34.3960   31.7300   36.8200 N   0  0  0  0  0  0  0  0  0  0  0  0
   33.3170   31.2250   36.1910 C   0  0  0  0  0  0  0  0  0  0  0  0
   33.4640   30.7490   34.9520 N   0  0  0  0  0  0  0  0  0  0  0  0
   36.8170   31.4020   34.7050 H   0  0  0  0  0  0  0  0  0  0  0  0
   36.3310   32.1970   36.8860 H   0  0  0  0  0  0  0  0  0  0  0  0
   32.3460   31.1880   36.6380 H   0  0  0  0  0  0  0  0  0  0  0  0
  1  7  1  6  0  0  0
  1 34  1  0  0  0  0
  2  1  1  0  0  0  0
  2  8  1  0  0  0  0
  3  2  1  0  0  0  0
  3 10  1  1  0  0  0
  4  3  1  0  0  0  0
  5  4  1  0  0  0  0
  5  6  1  0  0  0  0
  6  1  1  0  0  0  0
  6 16  1  0  0  0  0
  9  2  1  0  0  0  0
 11  4  1  0  0  0  0
 12  4  1  0  0  0  0
 13  5  1  0  0  0  0
 14  5  1  0  0  0  0
 15  6  1  0  0  0  0
 18 23  1  0  0  0  0
 18 17  1  0  0  0  0
 19  3  1  0  0  0  0
 19 18  2  0  0  0  0
 20 19  1  0  0  0  0
 21 20  2  0  0  0  0
 21 22  1  0  0  0  0
 22 23  2  0  0  0  0
 23 27  1  0  0  0  0
 24 20  1  0  0  0  0
 25 21  1  0  0  0  0
 26 22  1  0  0  0  0
 27 28  1  0  0  0  0
 28 29  1  0  0  0  0
 30 29  1  0  0  0  0
 30 31  1  0  0  0  0
 32 30  1  0  0  0  0
 33 27  1  0  0  0  0
 33 32  1  0  0  0  0
 34 35  2  0  0  0  0
 34 39  1  0  0  0  0
 35 36  1  0  0  0  0
 36 37  2  0  0  0  0
 36 41  1  0  0  0  0
 38 42  1  0  0  0  0
 38 37  1  0  0  0  0
 39 38  2  0  0  0  0
 40 35  1  0  0  0  0
M  END
>  <minimizedAffinity>
-5.8009901

$$$$

 OpenBabel03272506003D

 42 45  0  0  1  0  0  0  0  0999 V2000
   35.1570   31.4760   35.9060 C   0  0  2  0  0  0  0  0  0  0  0  0
   35.8220   30.7810   34.7770 C   0  0  0  0  0  0  0  0  0  0  0  0
   34.8390   30.4090   33.6580 C   0  0  2  0  0  0  0  0  0  0  0  0
   33.7020   29.6010   34.0970 C   0  0  0  0  0  0  0  0  0  0  0  0
   33.1660   30.0020   35.4690 C   0  0  0  0  0  0  0  0  0  0  0  0
   33.6470   31.3750   35.8620 C   0  0  0  0  0  0  0  0  0  0  0  0
   35.4230   31.0400   36.9160 H   0  0  0  0  0  0  0  0  0  0  0  0
   36.6390   31.2100   34.2510 H   0  0  0  0  0  0  0  0  0  0  0  0
   36.1330   29.7600   35.1810 H   0  0  0  0  0  0  0  0  0  0  0  0
   34.5270   31.3410   33.1590 H   0  0  0  0  0  0  0  0  0  0  0  0
   33.9710   28.5330   34.1910 H   0  0  0  0  0  0  0  0  0  0  0  0
   32.8990   29.6360   33.3310 H   0  0  0  0  0  0  0  0  0  0  0  0
   32.0640   30.0680   35.3710 H   0  0  0  0  0  0  0  0  0  0  0  0
   33.3760   29.2440   36.2460 H   0  0  0  0  0  0  0  0  0  0  0  0
   33.2460   31.6010   36.8620 H   0  0  0  0  0  0  0  0  0  0  0  0
   33.2890   32.0860   35.0770 H   0  0  0  0  0  0  0  0  0  0  0  0
   36.3250   28.1430   34.8270 Cl  0  0  0  0  0  0  0  0  0  0  0  0
   36.4520   28.5830   33.1320 C   0  0  0  0  0  0  0  0  0  0  0  0
   35.6790   29.6390   32.6920 C   0  0  0  0  0  0  0  0  0  0  0  0
   35.8300   29.8920   31.3420 C   0  0  0  0  0  0  0  0  0  0  0  0
   36.6700   29.1580   30.5310 C   0  0  0  0  0  0  0  0  0  0  0  0
   37.4150   28.1090   31.0550 C   0  0  0  0  0  0  0  0  0  0  0  0
   37.2970   27.8150   32.4060 C   0  0  0  0  0  0  0  0  0  0  0  0
   35.2500   30.7050   30.9220 H   0  0  0  0  0  0  0  0  0  0  0  0
   36.7070   29.4500   29.4820 H   0  0  0  0  0  0  0  0  0  0  0  0
   38.0560   27.5650   30.3840 H   0  0  0  0  0  0  0  0  0  0  0  0
   38.0610   26.7390   32.9430 N   0  0  0  0  0  0  0  0  0  0  0  0
   37.5190   25.4070   33.0410 C   0  0  0  0  0  2  0  0  0  0  0  0
   38.1490   24.6100   34.1590 C   0  0  0  0  0  2  0  0  0  0  0  0
   39.6630   24.7470   33.9470 C   0  0  0  0  0  3  0  0  0  0  0  0
   40.2330   24.0310   34.5610 H   0  0  0  0  0  0  0  0  0  0  0  0
   40.0000   26.1750   34.3350 C   0  0  0  0  0  2  0  0  0  0  0  0
   39.3720   27.1340   33.3530 C   0  0  0  0  0  2  0  0  0  0  0  0
   35.5010   32.9030   35.9910 C   0  0  0  0  0  0  0  0  0  0  0  0
   36.6520   33.2760   35.2950 C   0  0  0  0  0  0  0  0  0  0  0  0
   37.0190   34.6280   35.3280 C   0  0  0  0  0  0  0  0  0  0  0  0
   36.2300   35.5220   36.0460 N   0  0  0  0  0  0  0  0  0  0  0  0
   35.1280   35.1120   36.7030 C   0  0  0  0  0  0  0  0  0  0  0  0
   34.7990   33.8180   36.6550 N   0  0  0  0  0  0  0  0  0  0  0  0
   37.4300   32.8450   34.6910 H   0  0  0  0  0  0  0  0  0  0  0  0
   37.8220   35.1740   34.9010 H   0  0  0  0  0  0  0  0  0  0  0  0
   34.5020   35.7750   37.2620 H   0  0  0  0  0  0  0  0  0  0  0  0
  1 34  1  0  0  0  0
  1  7  1  1  0  0  0
  2  9  1  0  0  0  0
  2  1  1  0  0  0  0
  3 10  1  6  0  0  0
  3  4  1  0  0  0  0
  3  2  1  0  0  0  0
  4 11  1  0  0  0  0
  4  5  1  0  0  0  0
  5  6  1  0  0  0  0
  5 14  1  0  0  0  0
  6  1  1  0  0  0  0
  6 15  1  0  0  0  0
  8  2  1  0  0  0  0
 12  4  1  0  0  0  0
 13  5  1  0  0  0  0
 16  6  1  0  0  0  0
 18 17  1  0  0  0  0
 19 18  1  0  0  0  0
 19  3  1  0  0  0  0
 20 19  2  0  0  0  0
 21 22  2  0  0  0  0
 21 20  1  0  0  0  0
 22 23  1  0  0  0  0
 23 27  1  0  0  0  0
 23 18  2  0  0  0  0
 24 20  1  0  0  0  0
 25 21  1  0  0  0  0
 26 22  1  0  0  0  0
 27 28  1  0  0  0  0
 27 33  1  0  0  0  0
 28 29  1  0  0  0  0
 30 29  1  0  0  0  0
 30 32  1  0  0  0  0
 30 31  1  0  0  0  0
 33 32  1  0  0  0  0
 34 39  1  0  0  0  0
 35 36  1  0  0  0  0
 35 34  2  0  0  0  0
 36 37  2  0  0  0  0
 37 38  1  0  0  0  0
 38 42  1  0  0  0  0
 39 38  2  0  0  0  0
 40 35  1  0  0  0  0
 41 36  1  0  0  0  0
M  END
>  <minimizedAffinity>
-5.72393894

$$$$

 OpenBabel03272506003D

 42 45  0  0  1  0  0  0  0  0999 V2000
   32.9040   30.1600   34.7220 C   0  0  2  0  0  0  0  0  0  0  0  0
   33.8530   29.4110   33.8640 C   0  0  0  0  0  0  0  0  0  0  0  0
   35.3000   29.5060   34.3700 C   0  0  2  0  0  0  0  0  0  0  0  0
   35.7960   30.8720   34.5310 C   0  0  0  0  0  0  0  0  0  0  0  0
   34.7430   31.8410   35.0670 C   0  0  0  0  0  0  0  0  0  0  0  0
   33.5890   31.1000   35.6910 C   0  0  0  0  0  0  0  0  0  0  0  0
   32.2140   30.8400   34.1360 H   0  0  0  0  0  0  0  0  0  0  0  0
   33.7350   28.3760   33.6570 H   0  0  0  0  0  0  0  0  0  0  0  0
   33.9000   29.9850   32.8790 H   0  0  0  0  0  0  0  0  0  0  0  0
   35.3710   28.9190   35.3000 H   0  0  0  0  0  0  0  0  0  0  0  0
   36.1230   31.3050   33.5670 H   0  0  0  0  0  0  0  0  0  0  0  0
   36.6990   30.8700   35.1750 H   0  0  0  0  0  0  0  0  0  0  0  0
   35.2290   32.4150   35.8810 H   0  0  0  0  0  0  0  0  0  0  0  0
   34.4120   32.5730   34.3070 H   0  0  0  0  0  0  0  0  0  0  0  0
   32.8590   31.8450   36.0420 H   0  0  0  0  0  0  0  0  0  0  0  0
   34.0080   30.4760   36.5190 H   0  0  0  0  0  0  0  0  0  0  0  0
   37.4440   27.7580   35.3980 Cl  0  0  0  0  0  0  0  0  0  0  0  0
   37.1430   27.9750   33.6830 C   0  0  0  0  0  0  0  0  0  0  0  0
   36.0880   28.7890   33.3220 C   0  0  0  0  0  0  0  0  0  0  0  0
   35.9160   28.8780   31.9540 C   0  0  0  0  0  0  0  0  0  0  0  0
   36.7250   28.2160   31.0530 C   0  0  0  0  0  0  0  0  0  0  0  0
   37.7680   27.4160   31.5010 C   0  0  0  0  0  0  0  0  0  0  0  0
   37.9800   27.2940   32.8660 C   0  0  0  0  0  0  0  0  0  0  0  0
   35.1030   29.4950   31.5940 H   0  0  0  0  0  0  0  0  0  0  0  0
   36.4950   28.3620   29.9980 H   0  0  0  0  0  0  0  0  0  0  0  0
   38.3730   26.9190   30.7610 H   0  0  0  0  0  0  0  0  0  0  0  0
   39.0510   26.4730   33.3240 N   0  0  0  0  0  0  0  0  0  0  0  0
   38.8550   25.0750   33.6150 C   0  0  0  0  0  2  0  0  0  0  0  0
   39.8290   24.5600   34.6480 C   0  0  0  0  0  2  0  0  0  0  0  0
   41.2130   24.9940   34.1470 C   0  0  0  0  0  3  0  0  0  0  0  0
   42.0280   24.4890   34.6910 H   0  0  0  0  0  0  0  0  0  0  0  0
   41.2730   26.4950   34.3630 C   0  0  0  0  0  2  0  0  0  0  0  0
   40.2850   27.1830   33.4520 C   0  0  0  0  0  2  0  0  0  0  0  0
   32.0190   29.2860   35.5070 C   0  0  0  0  0  0  0  0  0  0  0  0
   31.2200   28.4240   34.7530 C   0  0  0  0  0  0  0  0  0  0  0  0
   30.3690   27.5560   35.4500 C   0  0  0  0  0  0  0  0  0  0  0  0
   30.3590   27.5960   36.8410 N   0  0  0  0  0  0  0  0  0  0  0  0
   31.1490   28.4480   37.5230 C   0  0  0  0  0  0  0  0  0  0  0  0
   31.9520   29.2640   36.8360 N   0  0  0  0  0  0  0  0  0  0  0  0
   31.0090   28.1760   33.7290 H   0  0  0  0  0  0  0  0  0  0  0  0
   29.6730   26.8170   35.1410 H   0  0  0  0  0  0  0  0  0  0  0  0
   31.1630   28.5020   38.5910 H   0  0  0  0  0  0  0  0  0  0  0  0
  1  7  1  6  0  0  0
  1 34  1  0  0  0  0
  1  6  1  0  0  0  0
  2  3  1  0  0  0  0
  2  1  1  0  0  0  0
  3  4  1  0  0  0  0
  3 10  1  1  0  0  0
  4  5  1  0  0  0  0
  4 12  1  0  0  0  0
  5  6  1  0  0  0  0
  5 13  1  0  0  0  0
  6 15  1  0  0  0  0
  6 16  1  0  0  0  0
  8  2  1  0  0  0  0
  9  2  1  0  0  0  0
 11  4  1  0  0  0  0
 14  5  1  0  0  0  0
 18 17  1  0  0  0  0
 19 18  1  0  0  0  0
 19  3  1  0  0  0  0
 20 19  2  0  0  0  0
 21 22  2  0  0  0  0
 21 20  1  0  0  0  0
 22 23  1  0  0  0  0
 23 27  1  0  0  0  0
 23 18  2  0  0  0  0
 24 20  1  0  0  0  0
 25 21  1  0  0  0  0
 26 22  1  0  0  0  0
 27 33  1  0  0  0  0
 27 28  1  0  0  0  0
 28 29  1  0  0  0  0
 30 32  1  0  0  0  0
 30 29  1  0  0  0  0
 30 31  1  0  0  0  0
 33 32  1  0  0  0  0
 34 39  1  0  0  0  0
 35 36  1  0  0  0  0
 35 34  2  0  0  0  0
 36 37  2  0  0  0  0
 37 38  1  0  0  0  0
 38 42  1  0  0  0  0
 39 38  2  0  0  0  0
 40 35  1  0  0  0  0
 41 36  1  0  0  0  0
M  END
>  <minimizedAffinity>
-5.71491766

$$$$

 OpenBabel03272506003D

 42 45  0  0  1  0  0  0  0  0999 V2000
   32.6920   30.5580   35.4700 C   0  0  2  0  0  0  0  0  0  0  0  0
   33.4660   30.1400   34.2760 C   0  0  0  0  0  0  0  0  0  0  0  0
   34.9790   30.1200   34.5380 C   0  0  2  0  0  0  0  0  0  0  0  0
   35.5250   31.3850   35.0270 C   0  0  0  0  0  0  0  0  0  0  0  0
   34.6000   32.1080   36.0040 C   0  0  0  0  0  0  0  0  0  0  0  0
   33.5520   31.1750   36.5530 C   0  0  0  0  0  0  0  0  0  0  0  0
   31.9280   31.3640   35.2470 H   0  0  0  0  0  0  0  0  0  0  0  0
   33.2910   29.2160   33.7830 H   0  0  0  0  0  0  0  0  0  0  0  0
   33.3580   30.9910   33.5230 H   0  0  0  0  0  0  0  0  0  0  0  0
   35.1930   29.2770   35.2160 H   0  0  0  0  0  0  0  0  0  0  0  0
   35.6950   32.1030   34.2030 H   0  0  0  0  0  0  0  0  0  0  0  0
   36.5240   31.2130   35.4780 H   0  0  0  0  0  0  0  0  0  0  0  0
   35.2290   32.4190   36.8620 H   0  0  0  0  0  0  0  0  0  0  0  0
   34.1620   33.0280   35.5740 H   0  0  0  0  0  0  0  0  0  0  0  0
   32.9070   31.7530   37.2340 H   0  0  0  0  0  0  0  0  0  0  0  0
   34.0910   30.3400   37.0650 H   0  0  0  0  0  0  0  0  0  0  0  0
   36.5920   27.6500   34.4650 Cl  0  0  0  0  0  0  0  0  0  0  0  0
   36.3700   28.6750   33.0570 C   0  0  0  0  0  0  0  0  0  0  0  0
   35.5620   29.7850   33.2030 C   0  0  0  0  0  0  0  0  0  0  0  0
   35.4290   30.5140   32.0370 C   0  0  0  0  0  0  0  0  0  0  0  0
   36.0460   30.1560   30.8560 C   0  0  0  0  0  0  0  0  0  0  0  0
   36.8450   29.0220   30.7950 C   0  0  0  0  0  0  0  0  0  0  0  0
   37.0090   28.2570   31.9400 C   0  0  0  0  0  0  0  0  0  0  0  0
   34.8050   31.3980   32.0720 H   0  0  0  0  0  0  0  0  0  0  0  0
   35.8690   30.8080   30.0000 H   0  0  0  0  0  0  0  0  0  0  0  0
   37.3060   28.7820   29.8520 H   0  0  0  0  0  0  0  0  0  0  0  0
   37.8280   27.0930   31.8770 N   0  0  0  0  0  0  0  0  0  0  0  0
   39.2240   27.1350   32.2350 C   0  0  0  0  0  2  0  0  0  0  0  0
   40.0330   26.0780   31.5220 C   0  0  0  0  0  2  0  0  0  0  0  0
   39.2780   24.7640   31.7600 C   0  0  0  0  0  3  0  0  0  0  0  0
   39.8810   23.8830   31.4830 H   0  0  0  0  0  0  0  0  0  0  0  0
   38.0290   24.8500   30.9030 C   0  0  0  0  0  2  0  0  0  0  0  0
   37.1200   25.9340   31.4310 C   0  0  0  0  0  2  0  0  0  0  0  0
   31.9330   29.4580   36.0830 C   0  0  0  0  0  0  0  0  0  0  0  0
   31.3690   28.5540   35.1810 C   0  0  0  0  0  0  0  0  0  0  0  0
   30.6490   27.4750   35.7100 C   0  0  0  0  0  0  0  0  0  0  0  0
   30.5290   27.3600   37.0910 N   0  0  0  0  0  0  0  0  0  0  0  0
   31.0910   28.2590   37.9210 C   0  0  0  0  0  0  0  0  0  0  0  0
   31.7740   29.2780   37.3920 N   0  0  0  0  0  0  0  0  0  0  0  0
   31.2850   28.3870   34.1220 H   0  0  0  0  0  0  0  0  0  0  0  0
   30.1300   26.6610   35.2690 H   0  0  0  0  0  0  0  0  0  0  0  0
   31.0160   28.1970   38.9870 H   0  0  0  0  0  0  0  0  0  0  0  0
  1  7  1  6  0  0  0
  1 34  1  0  0  0  0
  1  6  1  0  0  0  0
  2  3  1  0  0  0  0
  2  1  1  0  0  0  0
  3  4  1  0  0  0  0
  3 10  1  1  0  0  0
  4 12  1  0  0  0  0
  4  5  1  0  0  0  0
  5  6  1  0  0  0  0
  5 13  1  0  0  0  0
  6 16  1  0  0  0  0
  6 15  1  0  0  0  0
  8  2  1  0  0  0  0
  9  2  1  0  0  0  0
 11  4  1  0  0  0  0
 14  5  1  0  0  0  0
 18 19  1  0  0  0  0
 18 17  1  0  0  0  0
 19  3  1  0  0  0  0
 20 24  1  0  0  0  0
 20 19  2  0  0  0  0
 21 20  1  0  0  0  0
 22 21  2  0  0  0  0
 22 23  1  0  0  0  0
 23 18  2  0  0  0  0
 25 21  1  0  0  0  0
 26 22  1  0  0  0  0
 27 23  1  0  0  0  0
 27 28  1  0  0  0  0
 29 30  1  0  0  0  0
 29 28  1  0  0  0  0
 31 30  1  0  0  0  0
 32 33  1  0  0  0  0
 32 30  1  0  0  0  0
 33 27  1  0  0  0  0
 34 39  1  0  0  0  0
 35 36  1  0  0  0  0
 35 34  2  0  0  0  0
 36 37  2  0  0  0  0
 37 38  1  0  0  0  0
 38 42  1  0  0  0  0
 39 38  2  0  0  0  0
 40 35  1  0  0  0  0
 41 36  1  0  0  0  0
M  END
>  <minimizedAffinity>
-5.67680597

$$$$

 OpenBabel03272506003D

 42 45  0  0  1  0  0  0  0  0999 V2000
   37.5600   27.0060   33.0540 C   0  0  2  0  0  0  0  0  0  0  0  0
   38.9610   26.5410   33.2010 C   0  0  0  0  0  0  0  0  0  0  0  0
   39.2830   26.0970   34.6350 C   0  0  2  0  0  0  0  0  0  0  0  0
   39.0200   27.1120   35.6550 C   0  0  0  0  0  0  0  0  0  0  0  0
   37.7610   27.9330   35.3840 C   0  0  0  0  0  0  0  0  0  0  0  0
   36.8700   27.2490   34.3800 C   0  0  0  0  0  0  0  0  0  0  0  0
   37.4750   28.0030   32.5250 H   0  0  0  0  0  0  0  0  0  0  0  0
   39.3620   25.7570   32.6070 H   0  0  0  0  0  0  0  0  0  0  0  0
   39.6110   27.4710   33.0800 H   0  0  0  0  0  0  0  0  0  0  0  0
   38.7420   25.1560   34.8260 H   0  0  0  0  0  0  0  0  0  0  0  0
   39.8400   27.8500   35.7190 H   0  0  0  0  0  0  0  0  0  0  0  0
   38.9760   26.6340   36.6560 H   0  0  0  0  0  0  0  0  0  0  0  0
   37.1970   27.9680   36.3370 H   0  0  0  0  0  0  0  0  0  0  0  0
   37.9880   28.9780   35.1030 H   0  0  0  0  0  0  0  0  0  0  0  0
   35.9920   27.8920   34.2130 H   0  0  0  0  0  0  0  0  0  0  0  0
   36.6040   26.2490   34.8040 H   0  0  0  0  0  0  0  0  0  0  0  0
   39.9590   23.2670   35.1280 Cl  0  0  0  0  0  0  0  0  0  0  0  0
   41.1810   24.4940   34.8420 C   0  0  0  0  0  0  0  0  0  0  0  0
   40.7420   25.7780   34.5860 C   0  0  0  0  0  0  0  0  0  0  0  0
   41.7740   26.6650   34.3500 C   0  0  0  0  0  0  0  0  0  0  0  0
   43.1030   26.2920   34.3720 C   0  0  0  0  0  0  0  0  0  0  0  0
   43.4590   24.9770   34.6400 C   0  0  0  0  0  0  0  0  0  0  0  0
   42.4570   24.0480   34.8820 C   0  0  0  0  0  0  0  0  0  0  0  0
   41.5080   27.6930   34.1360 H   0  0  0  0  0  0  0  0  0  0  0  0
   43.8300   27.0780   34.1720 H   0  0  0  0  0  0  0  0  0  0  0  0
   44.5070   24.7320   34.6470 H   0  0  0  0  0  0  0  0  0  0  0  0
   42.8240   22.6990   35.1560 N   0  0  0  0  0  0  0  0  0  0  0  0
   43.0690   21.7550   34.0940 C   0  0  0  0  0  2  0  0  0  0  0  0
   42.7990   20.3310   34.5160 C   0  0  0  0  0  2  0  0  0  0  0  0
   43.5780   20.1440   35.8250 C   0  0  0  0  0  3  0  0  0  0  0  0
   43.6460   19.0840   36.1190 H   0  0  0  0  0  0  0  0  0  0  0  0
   42.8180   20.9420   36.8680 C   0  0  0  0  0  2  0  0  0  0  0  0
   42.9130   22.4160   36.5540 C   0  0  0  0  0  2  0  0  0  0  0  0
   36.7200   26.0790   32.2830 C   0  0  0  0  0  0  0  0  0  0  0  0
   37.0430   24.7280   32.4280 C   0  0  0  0  0  0  0  0  0  0  0  0
   36.2640   23.7970   31.7280 C   0  0  0  0  0  0  0  0  0  0  0  0
   35.2210   24.2580   30.9310 N   0  0  0  0  0  0  0  0  0  0  0  0
   34.9490   25.5720   30.8230 C   0  0  0  0  0  0  0  0  0  0  0  0
   35.7050   26.4400   31.5010 N   0  0  0  0  0  0  0  0  0  0  0  0
   37.7520   24.0970   32.9330 H   0  0  0  0  0  0  0  0  0  0  0  0
   36.2850   22.7390   31.6570 H   0  0  0  0  0  0  0  0  0  0  0  0
   34.1540   25.9560   30.2180 H   0  0  0  0  0  0  0  0  0  0  0  0
  1  7  1  6  0  0  0
  1  2  1  0  0  0  0
  1  6  1  0  0  0  0
  2  3  1  0  0  0  0
  3 10  1  1  0  0  0
  3  4  1  0  0  0  0
  4 11  1  0  0  0  0
  4 12  1  0  0  0  0
  5  4  1  0  0  0  0
  5 13  1  0  0  0  0
  6 16  1  0  0  0  0
  6  5  1  0  0  0  0
  8  2  1  0  0  0  0
  9  2  1  0  0  0  0
 14  5  1  0  0  0  0
 15  6  1  0  0  0  0
 18 23  1  0  0  0  0
 18 17  1  0  0  0  0
 19  3  1  0  0  0  0
 19 18  2  0  0  0  0
 20 21  2  0  0  0  0
 20 19  1  0  0  0  0
 21 22  1  0  0  0  0
 22 26  1  0  0  0  0
 22 23  2  0  0  0  0
 23 27  1  0  0  0  0
 24 20  1  0  0  0  0
 25 21  1  0  0  0  0
 27 33  1  0  0  0  0
 28 29  1  0  0  0  0
 28 27  1  0  0  0  0
 29 30  1  0  0  0  0
 30 31  1  0  0  0  0
 30 32  1  0  0  0  0
 33 32  1  0  0  0  0
 34 35  1  0  0  0  0
 34  1  1  0  0  0  0
 35 40  1  0  0  0  0
 36 35  2  0  0  0  0
 37 36  1  0  0  0  0
 38 37  2  0  0  0  0
 38 39  1  0  0  0  0
 39 34  2  0  0  0  0
 41 36  1  0  0  0  0
 42 38  1  0  0  0  0
M  END
>  <minimizedAffinity>
-5.66032791

$$$$

 OpenBabel03272506003D

 42 45  0  0  1  0  0  0  0  0999 V2000
   37.9570   25.5900   32.9110 C   0  0  2  0  0  0  0  0  0  0  0  0
   37.7310   27.0470   32.7510 C   0  0  0  0  0  0  0  0  0  0  0  0
   36.3050   27.3700   32.2810 C   0  0  2  0  0  0  0  0  0  0  0  0
   35.9100   26.6990   31.0430 C   0  0  0  0  0  0  0  0  0  0  0  0
   36.4360   25.2700   30.9330 C   0  0  0  0  0  0  0  0  0  0  0  0
   36.8730   24.7450   32.2760 C   0  0  0  0  0  0  0  0  0  0  0  0
   38.9040   25.2290   32.4060 H   0  0  0  0  0  0  0  0  0  0  0  0
   37.8870   27.7350   33.5460 H   0  0  0  0  0  0  0  0  0  0  0  0
   38.3620   27.3630   31.8550 H   0  0  0  0  0  0  0  0  0  0  0  0
   35.6180   27.1540   33.1160 H   0  0  0  0  0  0  0  0  0  0  0  0
   36.3030   27.2220   30.1520 H   0  0  0  0  0  0  0  0  0  0  0  0
   34.8060   26.7260   30.9380 H   0  0  0  0  0  0  0  0  0  0  0  0
   35.5800   24.6430   30.6120 H   0  0  0  0  0  0  0  0  0  0  0  0
   37.2220   25.1630   30.1630 H   0  0  0  0  0  0  0  0  0  0  0  0
   37.2560   23.7230   32.1330 H   0  0  0  0  0  0  0  0  0  0  0  0
   35.9830   24.7870   32.9520 H   0  0  0  0  0  0  0  0  0  0  0  0
   35.3010   28.9460   34.5650 Cl  0  0  0  0  0  0  0  0  0  0  0  0
   35.8410   29.6890   33.0690 C   0  0  0  0  0  0  0  0  0  0  0  0
   36.3250   28.8510   32.0850 C   0  0  0  0  0  0  0  0  0  0  0  0
   36.7480   29.5290   30.9580 C   0  0  0  0  0  0  0  0  0  0  0  0
   36.6850   30.9030   30.8420 C   0  0  0  0  0  0  0  0  0  0  0  0
   36.1810   31.6730   31.8820 C   0  0  0  0  0  0  0  0  0  0  0  0
   35.7450   31.0380   33.0350 C   0  0  0  0  0  0  0  0  0  0  0  0
   37.1460   28.9380   30.1420 H   0  0  0  0  0  0  0  0  0  0  0  0
   37.0460   31.3270   29.9060 H   0  0  0  0  0  0  0  0  0  0  0  0
   36.1520   32.7410   31.7470 H   0  0  0  0  0  0  0  0  0  0  0  0
   35.2290   31.8300   34.1020 N   0  0  0  0  0  0  0  0  0  0  0  0
   36.0640   32.2480   35.2010 C   0  0  0  0  0  2  0  0  0  0  0  0
   35.2750   32.4750   36.4680 C   0  0  0  0  0  2  0  0  0  0  0  0
   34.1190   33.3990   36.0630 C   0  0  0  0  0  3  0  0  0  0  0  0
   33.6000   33.8210   36.9380 H   0  0  0  0  0  0  0  0  0  0  0  0
   33.1770   32.5380   35.2430 C   0  0  0  0  0  2  0  0  0  0  0  0
   33.8430   32.1400   33.9480 C   0  0  0  0  0  2  0  0  0  0  0  0
   38.0770   25.1730   34.3150 C   0  0  0  0  0  0  0  0  0  0  0  0
   38.1330   26.2180   35.2400 C   0  0  0  0  0  0  0  0  0  0  0  0
   38.2310   25.8780   36.5960 C   0  0  0  0  0  0  0  0  0  0  0  0
   38.2700   24.5330   36.9510 N   0  0  0  0  0  0  0  0  0  0  0  0
   38.2140   23.5610   36.0200 C   0  0  0  0  0  0  0  0  0  0  0  0
   38.1200   23.9100   34.7350 N   0  0  0  0  0  0  0  0  0  0  0  0
   38.1320   27.2920   35.2740 H   0  0  0  0  0  0  0  0  0  0  0  0
   38.2880   26.4510   37.4860 H   0  0  0  0  0  0  0  0  0  0  0  0
   38.2420   22.5190   36.2630 H   0  0  0  0  0  0  0  0  0  0  0  0
  1  7  1  6  0  0  0
  1 34  1  0  0  0  0
  2  1  1  0  0  0  0
  2  8  1  0  0  0  0
  3  2  1  0  0  0  0
  3 10  1  1  0  0  0
  4  3  1  0  0  0  0
  5  4  1  0  0  0  0
  5  6  1  0  0  0  0
  6  1  1  0  0  0  0
  6 16  1  0  0  0  0
  9  2  1  0  0  0  0
 11  4  1  0  0  0  0
 12  4  1  0  0  0  0
 13  5  1  0  0  0  0
 14  5  1  0  0  0  0
 15  6  1  0  0  0  0
 18 17  1  0  0  0  0
 19  3  1  0  0  0  0
 19 18  2  0  0  0  0
 20 19  1  0  0  0  0
 21 20  2  0  0  0  0
 21 22  1  0  0  0  0
 22 23  2  0  0  0  0
 23 18  1  0  0  0  0
 23 27  1  0  0  0  0
 24 20  1  0  0  0  0
 25 21  1  0  0  0  0
 26 22  1  0  0  0  0
 27 28  1  0  0  0  0
 28 29  1  0  0  0  0
 30 29  1  0  0  0  0
 30 31  1  0  0  0  0
 32 30  1  0  0  0  0
 33 27  1  0  0  0  0
 33 32  1  0  0  0  0
 34 39  2  0  0  0  0
 34 35  1  0  0  0  0
 35 40  1  0  0  0  0
 35 36  2  0  0  0  0
 36 37  1  0  0  0  0
 36 41  1  0  0  0  0
 38 42  1  0  0  0  0
 38 37  2  0  0  0  0
 39 38  1  0  0  0  0
M  END
>  <minimizedAffinity>
-5.57989502

$$$$

 OpenBabel03272506003D

 42 45  0  0  1  0  0  0  0  0999 V2000
   36.1670   28.7820   31.3600 C   0  0  2  0  0  0  0  0  0  0  0  0
   36.2560   27.3860   31.8510 C   0  0  0  0  0  0  0  0  0  0  0  0
   37.6880   26.8330   31.7880 C   0  0  2  0  0  0  0  0  0  0  0  0
   38.3040   26.9010   30.4640 C   0  0  0  0  0  0  0  0  0  0  0  0
   37.9510   28.1720   29.6940 C   0  0  0  0  0  0  0  0  0  0  0  0
   37.4060   29.2330   30.6150 C   0  0  0  0  0  0  0  0  0  0  0  0
   35.3350   28.9380   30.6080 H   0  0  0  0  0  0  0  0  0  0  0  0
   35.9290   27.1050   32.8220 H   0  0  0  0  0  0  0  0  0  0  0  0
   35.7130   26.7490   31.0760 H   0  0  0  0  0  0  0  0  0  0  0  0
   38.2830   27.3510   32.5580 H   0  0  0  0  0  0  0  0  0  0  0  0
   37.9730   26.0680   29.8150 H   0  0  0  0  0  0  0  0  0  0  0  0
   39.4030   26.7830   30.5550 H   0  0  0  0  0  0  0  0  0  0  0  0
   38.9020   28.5660   29.2840 H   0  0  0  0  0  0  0  0  0  0  0  0
   37.2830   27.9780   28.8350 H   0  0  0  0  0  0  0  0  0  0  0  0
   37.1550   30.1140   30.0060 H   0  0  0  0  0  0  0  0  0  0  0  0
   38.1960   29.4410   31.3800 H   0  0  0  0  0  0  0  0  0  0  0  0
   38.8920   26.1800   34.4020 Cl  0  0  0  0  0  0  0  0  0  0  0  0
   38.0940   24.9780   33.4020 C   0  0  0  0  0  0  0  0  0  0  0  0
   37.5350   25.4100   32.2160 C   0  0  0  0  0  0  0  0  0  0  0  0
   36.9090   24.3980   31.5140 C   0  0  0  0  0  0  0  0  0  0  0  0
   36.8580   23.0940   31.9630 C   0  0  0  0  0  0  0  0  0  0  0  0
   37.4490   22.7430   33.1700 C   0  0  0  0  0  0  0  0  0  0  0  0
   38.0890   23.7250   33.9130 C   0  0  0  0  0  0  0  0  0  0  0  0
   36.4420   24.6610   30.5730 H   0  0  0  0  0  0  0  0  0  0  0  0
   36.3380   22.3820   31.3240 H   0  0  0  0  0  0  0  0  0  0  0  0
   37.3840   21.7140   33.4810 H   0  0  0  0  0  0  0  0  0  0  0  0
   38.6940   23.3630   35.1510 N   0  0  0  0  0  0  0  0  0  0  0  0
   37.9380   23.3380   36.3790 C   0  0  0  0  0  2  0  0  0  0  0  0
   38.8040   23.5810   37.5920 C   0  0  0  0  0  2  0  0  0  0  0  0
   39.9720   22.5950   37.4570 C   0  0  0  0  0  3  0  0  0  0  0  0
   40.5560   22.5140   38.3890 H   0  0  0  0  0  0  0  0  0  0  0  0
   40.8330   23.1360   36.3300 C   0  0  0  0  0  2  0  0  0  0  0  0
   40.0810   23.0450   35.0240 C   0  0  0  0  0  2  0  0  0  0  0  0
   35.9170   29.7580   32.4310 C   0  0  0  0  0  0  0  0  0  0  0  0
   35.6190   29.2040   33.6770 C   0  0  0  0  0  0  0  0  0  0  0  0
   35.3880   30.0880   34.7400 C   0  0  0  0  0  0  0  0  0  0  0  0
   35.4620   31.4580   34.5040 N   0  0  0  0  0  0  0  0  0  0  0  0
   35.7520   31.9430   33.2810 C   0  0  0  0  0  0  0  0  0  0  0  0
   35.9700   31.0800   32.2850 N   0  0  0  0  0  0  0  0  0  0  0  0
   35.4890   28.2460   34.1470 H   0  0  0  0  0  0  0  0  0  0  0  0
   35.1490   29.9470   35.7640 H   0  0  0  0  0  0  0  0  0  0  0  0
   35.8160   32.9900   33.0690 H   0  0  0  0  0  0  0  0  0  0  0  0
  1  7  1  6  0  0  0
  1  2  1  0  0  0  0
  1 34  1  0  0  0  0
  2  8  1  0  0  0  0
  3  2  1  0  0  0  0
  3 19  1  0  0  0  0
  3 10  1  1  0  0  0
  4 12  1  0  0  0  0
  4  3  1  0  0  0  0
  5  4  1  0  0  0  0
  5  6  1  0  0  0  0
  6  1  1  0  0  0  0
  6 16  1  0  0  0  0
  9  2  1  0  0  0  0
 11  4  1  0  0  0  0
 13  5  1  0  0  0  0
 14  5  1  0  0  0  0
 15  6  1  0  0  0  0
 18 23  1  0  0  0  0
 18 17  1  0  0  0  0
 19 18  2  0  0  0  0
 20 21  2  0  0  0  0
 20 19  1  0  0  0  0
 21 22  1  0  0  0  0
 22 26  1  0  0  0  0
 22 23  2  0  0  0  0
 23 27  1  0  0  0  0
 24 20  1  0  0  0  0
 25 21  1  0  0  0  0
 27 28  1  0  0  0  0
 28 29  1  0  0  0  0
 30 29  1  0  0  0  0
 30 31  1  0  0  0  0
 32 30  1  0  0  0  0
 33 27  1  0  0  0  0
 33 32  1  0  0  0  0
 34 35  1  0  0  0  0
 35 40  1  0  0  0  0
 35 36  2  0  0  0  0
 36 41  1  0  0  0  0
 37 36  1  0  0  0  0
 38 37  2  0  0  0  0
 39 34  2  0  0  0  0
 39 38  1  0  0  0  0
 42 38  1  0  0  0  0
M  END
>  <minimizedAffinity>
-5.51990175

$$$$
