
 OpenBabel03272508383D

 30 32  0  0  1  0  0  0  0  0999 V2000
   36.6140   30.0900   48.8770 N   0  0  0  0  0  0  0  0  0  0  0  0
   35.5280   29.7580   47.9800 C   0  0  0  0  0  0  0  0  0  0  0  0
   34.2570   29.3690   48.6370 C   0  0  2  0  0  0  0  0  0  0  0  0
   34.3430   28.7800   49.9380 N   0  0  0  0  0  0  0  0  0  0  0  0
   35.3970   29.3470   50.7610 C   0  0  0  0  0  0  0  0  0  0  0  0
   36.6710   29.1540   49.9390 C   0  0  0  0  0  0  0  0  0  0  0  0
   35.9380   29.0650   47.2400 H   0  0  0  0  0  0  0  0  0  0  0  0
   35.3370   30.7070   47.3960 H   0  0  0  0  0  0  0  0  0  0  0  0
   33.5910   30.2530   48.7500 H   0  0  0  0  0  0  0  0  0  0  0  0
   34.3820   27.7350   49.9210 H   0  0  0  0  0  0  0  0  0  0  0  0
   35.4260   28.7620   51.6990 H   0  0  0  0  0  0  0  0  0  0  0  0
   35.1930   30.4170   50.8960 H   0  0  0  0  0  0  0  0  0  0  0  0
   36.6900   28.1100   49.5480 H   0  0  0  0  0  0  0  0  0  0  0  0
   37.5750   29.2290   50.5830 H   0  0  0  0  0  0  0  0  0  0  0  0
   37.4710   31.2040   48.6760 C   0  0  0  0  0  0  0  0  0  0  0  0
   37.5270   32.2820   49.5560 C   0  0  0  0  0  0  0  0  0  0  0  0
   38.3930   33.3400   49.2930 C   0  0  0  0  0  0  0  0  0  0  0  0
   39.1620   33.2670   48.1580 N   0  0  0  0  0  0  0  0  0  0  0  0
   39.0830   32.2060   47.3230 C   0  0  0  0  0  0  0  0  0  0  0  0
   38.2470   31.1780   47.5740 N   0  0  0  0  0  0  0  0  0  0  0  0
   36.8840   32.2760   50.4450 H   0  0  0  0  0  0  0  0  0  0  0  0
   38.4310   34.1730   49.9820 H   0  0  0  0  0  0  0  0  0  0  0  0
   39.7170   32.2070   46.4430 H   0  0  0  0  0  0  0  0  0  0  0  0
   33.5760   28.4450   47.8030 N   0  0  0  0  0  0  0  0  0  0  0  0
   33.8800   27.0920   47.8460 C   0  0  0  0  0  0  0  0  0  0  0  0
   33.5060   26.4290   46.5190 C   0  0  0  0  0  0  0  0  0  0  0  0
   33.8460   27.3040   45.3460 C   0  0  0  0  0  0  0  0  0  0  0  0
   33.3970   26.8040   44.4540 H   0  0  0  0  0  0  0  0  0  0  0  0
   33.2720   28.6830   45.4490 C   0  0  0  0  0  0  0  0  0  0  0  0
   32.7130   28.9490   46.8210 C   0  0  0  0  0  0  0  0  0  0  0  0
  1  6  1  0  0  0  0
  2  3  1  0  0  0  0
  2  1  1  0  0  0  0
  3  9  1  1  0  0  0
  3  4  1  0  0  0  0
  4  5  1  0  0  0  0
  5 12  1  0  0  0  0
  5 11  1  0  0  0  0
  6 14  1  0  0  0  0
  6  5  1  0  0  0  0
  7  2  1  0  0  0  0
  8  2  1  0  0  0  0
 10  4  1  0  0  0  0
 13  6  1  0  0  0  0
 15  1  1  0  0  0  0
 15 16  1  0  0  0  0
 16 21  1  0  0  0  0
 17 16  2  0  0  0  0
 17 22  1  0  0  0  0
 18 17  1  0  0  0  0
 19 20  1  0  0  0  0
 19 18  2  0  0  0  0
 20 15  2  0  0  0  0
 23 19  1  0  0  0  0
 24 25  1  0  0  0  0
 24  3  1  0  0  0  0
 26 25  1  0  0  0  0
 27 29  1  0  0  0  0
 27 26  1  0  0  0  0
 28 27  1  0  0  0  0
 29 30  1  0  0  0  0
 30 24  1  0  0  0  0
M  END
>  <minimizedAffinity>
-5.09317446

>  <minimizedRMSD>
6.37814331

$$$$
