
 OpenBabel03272504493D

 40 43  0  0  1  0  0  0  0  0999 V2000
   37.3350   31.1780   48.5630 N   0  0  0  0  0  0  0  0  0  0  0  0
   38.0090   31.0220   49.8240 C   0  0  0  0  0  0  0  0  0  0  0  0
   39.0860   32.0170   50.0750 C   0  0  0  0  0  0  0  0  0  0  0  0
   38.7140   33.3670   49.4660 C   0  0  0  0  0  0  0  0  0  0  0  0
   38.6990   33.1480   47.9800 C   0  0  0  0  0  0  0  0  0  0  0  0
   37.6530   32.1600   47.5760 C   0  0  1  0  0  0  0  0  0  0  0  0
   38.4170   30.0080   50.0020 H   0  0  0  0  0  0  0  0  0  0  0  0
   37.2210   31.1940   50.6060 H   0  0  0  0  0  0  0  0  0  0  0  0
   40.0510   31.7020   49.6370 H   0  0  0  0  0  0  0  0  0  0  0  0
   39.2130   32.1770   51.1640 H   0  0  0  0  0  0  0  0  0  0  0  0
   37.6540   33.5370   49.8170 H   0  0  0  0  0  0  0  0  0  0  0  0
   39.3460   34.1890   49.7900 H   0  0  0  0  0  0  0  0  0  0  0  0
   39.7180   32.8220   47.6830 H   0  0  0  0  0  0  0  0  0  0  0  0
   38.4970   34.1020   47.4440 H   0  0  0  0  0  0  0  0  0  0  0  0
   36.7130   32.7240   47.3840 H   0  0  0  0  0  0  0  0  0  0  0  0
   36.0410   29.1790   49.1170 C   0  0  0  0  0  0  0  0  0  0  0  0
   36.2680   30.2820   48.2740 C   0  0  0  0  0  0  0  0  0  0  0  0
   35.4230   30.4480   47.1810 C   0  0  0  0  0  0  0  0  0  0  0  0
   34.4280   29.5310   46.9950 N   0  0  0  0  0  0  0  0  0  0  0  0
   34.2310   28.4910   47.8090 C   0  0  0  0  0  0  0  0  0  0  0  0
   35.0430   28.3210   48.8700 N   0  0  0  0  0  0  0  0  0  0  0  0
   36.6580   28.9850   49.9880 H   0  0  0  0  0  0  0  0  0  0  0  0
   35.5580   31.2800   46.5080 H   0  0  0  0  0  0  0  0  0  0  0  0
   33.1580   27.5430   47.5680 C   0  0  0  0  0  0  0  0  0  0  0  0
   33.3890   26.2010   47.5750 C   0  0  0  0  0  0  0  0  0  0  0  0
   32.3980   25.2720   47.3520 C   0  0  0  0  0  0  0  0  0  0  0  0
   31.1440   25.8000   47.1180 C   0  0  0  0  0  0  0  0  0  0  0  0
   30.8510   27.1670   47.1000 C   0  0  0  0  0  0  0  0  0  0  0  0
   31.9060   28.0120   47.3340 N   0  0  0  0  0  0  0  0  0  0  0  0
   34.4030   25.8760   47.7670 H   0  0  0  0  0  0  0  0  0  0  0  0
   32.5640   24.2190   47.3540 H   0  0  0  0  0  0  0  0  0  0  0  0
   30.3010   25.1360   46.9310 H   0  0  0  0  0  0  0  0  0  0  0  0
   29.8570   27.5340   46.9140 H   0  0  0  0  0  0  0  0  0  0  0  0
   37.9740   31.4590   46.3580 N   0  0  0  0  0  0  0  0  0  0  0  0
   37.5510   32.1110   45.1700 C   0  0  0  0  0  0  0  0  0  0  0  0
   38.5920   31.9480   44.0630 C   0  0  0  0  0  0  0  0  0  0  0  0
   38.9720   30.5030   43.9100 C   0  0  0  0  0  0  0  0  0  0  0  0
   39.9310   30.4400   43.3360 H   0  0  0  0  0  0  0  0  0  0  0  0
   39.1380   29.7640   45.2050 C   0  0  0  0  0  0  0  0  0  0  0  0
   39.2340   30.8080   46.3250 C   0  0  0  0  0  0  0  0  0  0  0  0
  1  2  1  0  0  0  0
  2  7  1  0  0  0  0
  2  3  1  0  0  0  0
  2  8  1  0  0  0  0
  3 10  1  0  0  0  0
  4 12  1  0  0  0  0
  4 11  1  0  0  0  0
  4  3  1  0  0  0  0
  5  4  1  0  0  0  0
  6 15  1  6  0  0  0
  6  5  1  0  0  0  0
  6  1  1  0  0  0  0
  9  3  1  0  0  0  0
 13  5  1  0  0  0  0
 14  5  1  0  0  0  0
 16 22  1  0  0  0  0
 17  1  1  0  0  0  0
 17 16  2  0  0  0  0
 18 17  1  0  0  0  0
 19 18  2  0  0  0  0
 19 20  1  0  0  0  0
 20 21  2  0  0  0  0
 21 16  1  0  0  0  0
 23 18  1  0  0  0  0
 24 25  1  0  0  0  0
 24 20  1  0  0  0  0
 25 30  1  0  0  0  0
 26 31  1  0  0  0  0
 26 25  2  0  0  0  0
 27 26  1  0  0  0  0
 28 27  2  0  0  0  0
 28 29  1  0  0  0  0
 29 24  2  0  0  0  0
 32 27  1  0  0  0  0
 33 28  1  0  0  0  0
 34  6  1  0  0  0  0
 35 34  1  0  0  0  0
 36 35  1  0  0  0  0
 37 36  1  0  0  0  0
 37 39  1  0  0  0  0
 38 37  1  0  0  0  0
 39 40  1  0  0  0  0
 40 34  1  0  0  0  0
M  END
>  <minimizedAffinity>
-5.15765333

>  <minimizedRMSD>
1.19452953

$$$$
