
 OpenBabel03272504103D

 19 20  0  0  0  0  0  0  0  0999 V2000
   36.6790   29.8660   49.5840 C   0  0  0  0  0  0  0  0  0  0  0  0
   37.7680   30.4460   48.9180 C   0  0  0  0  0  0  0  0  0  0  0  0
   37.6260   30.7780   47.5730 C   0  0  0  0  0  0  0  0  0  0  0  0
   36.4310   30.5200   46.9780 N   0  0  0  0  0  0  0  0  0  0  0  0
   35.4000   29.9600   47.6440 C   0  0  0  0  0  0  0  0  0  0  0  0
   35.5180   29.6320   48.9430 N   0  0  0  0  0  0  0  0  0  0  0  0
   38.6870   30.6230   49.4530 H   0  0  0  0  0  0  0  0  0  0  0  0
   34.4920   29.7980   47.0730 H   0  0  0  0  0  0  0  0  0  0  0  0
   38.7070   31.3680   46.8610 N   0  0  0  0  0  0  0  0  0  0  0  0
   39.2060   30.6430   45.7070 C   0  0  0  0  0  0  0  0  0  0  0  0
   40.4690   31.2660   45.1580 C   0  0  0  0  0  0  0  0  0  0  0  0
   40.1490   32.7460   44.9920 C   0  0  0  0  0  0  0  0  0  0  0  0
   39.1650   32.9120   44.5130 H   0  0  0  0  0  0  0  0  0  0  0  0
   40.1110   33.3440   46.3750 C   0  0  0  0  0  0  0  0  0  0  0  0
   39.2220   32.6380   47.3370 C   0  0  0  0  0  0  0  0  0  0  0  0
   36.8260   29.5080   51.0290 C   0  0  0  0  0  0  0  0  0  0  0  0
   35.6030   29.1590   51.5580 F   0  0  0  0  0  0  0  0  0  0  0  0
   37.7820   28.5210   51.1180 F   0  0  0  0  0  0  0  0  0  0  0  0
   37.2430   30.6630   51.6900 F   0  0  0  0  0  0  0  0  0  0  0  0
  1 16  1  0  0  0  0
  2  7  1  0  0  0  0
  2  1  2  0  0  0  0
  3  2  1  0  0  0  0
  4  3  2  0  0  0  0
  4  5  1  0  0  0  0
  5  6  2  0  0  0  0
  6  1  1  0  0  0  0
  8  5  1  0  0  0  0
  9 15  1  0  0  0  0
  9  3  1  0  0  0  0
 10  9  1  0  0  0  0
 11 10  1  0  0  0  0
 12 11  1  0  0  0  0
 12 14  1  0  0  0  0
 13 12  1  0  0  0  0
 14 15  1  0  0  0  0
 16 18  1  0  0  0  0
 16 17  1  0  0  0  0
 16 19  1  0  0  0  0
M  END
>  <minimizedAffinity>
-6.27576876

>  <minimizedRMSD>
2.48619843

$$$$
