
 OpenBabel03272510003D

 19 20  0  0  0  0  0  0  0  0999 V2000
   38.2260   33.0450   49.5190 C   0  0  0  0  0  0  0  0  0  0  0  0
   38.7310   32.9770   48.2210 C   0  0  0  0  0  0  0  0  0  0  0  0
   38.2280   31.9930   47.3740 C   0  0  0  0  0  0  0  0  0  0  0  0
   37.2740   31.1570   47.8600 N   0  0  0  0  0  0  0  0  0  0  0  0
   36.8130   31.2540   49.1120 C   0  0  0  0  0  0  0  0  0  0  0  0
   37.2870   32.1920   49.9360 N   0  0  0  0  0  0  0  0  0  0  0  0
   38.6780   33.8370   50.0940 H   0  0  0  0  0  0  0  0  0  0  0  0
   39.4750   33.6010   47.7860 H   0  0  0  0  0  0  0  0  0  0  0  0
   38.5960   31.7430   46.0210 N   0  0  0  0  0  0  0  0  0  0  0  0
   39.5710   30.7960   45.5810 C   0  0  0  0  0  2  0  0  0  0  0  0
   39.0810   29.8010   44.5810 C   0  0  0  0  0  2  0  0  0  0  0  0
   38.3920   30.4830   43.4210 C   0  0  0  0  0  3  0  0  0  0  0  0
   38.0040   29.7690   42.6980 H   0  0  0  0  0  0  0  0  0  0  0  0
   37.3000   31.3530   44.0450 C   0  0  0  0  0  2  0  0  0  0  0  0
   38.0490   32.3990   44.8580 C   0  0  0  0  0  2  0  0  0  0  0  0
   35.7680   30.2990   49.5680 C   0  0  0  0  0  0  0  0  0  0  0  0
   35.9530   29.8550   50.8550 F   0  0  0  0  0  0  0  0  0  0  0  0
   34.5010   30.8940   49.5290 F   0  0  0  0  0  0  0  0  0  0  0  0
   35.6590   29.1880   48.7550 F   0  0  0  0  0  0  0  0  0  0  0  0
  1  6  1  0  0  0  0
  1  7  1  0  0  0  0
  2  1  2  0  0  0  0
  3  4  2  0  0  0  0
  3  2  1  0  0  0  0
  4  5  1  0  0  0  0
  5 16  1  0  0  0  0
  5  6  2  0  0  0  0
  8  2  1  0  0  0  0
  9  3  1  0  0  0  0
 10  9  1  0  0  0  0
 11 10  1  0  0  0  0
 12 14  1  0  0  0  0
 12 11  1  0  0  0  0
 13 12  1  0  0  0  0
 14 15  1  0  0  0  0
 15  9  1  0  0  0  0
 16 17  1  0  0  0  0
 18 16  1  0  0  0  0
 19 16  1  0  0  0  0
M  END
>  <minimizedAffinity>
-5.22075748

>  <minimizedRMSD>
1.76515734

$$$$
