
 OpenBabel03272510003D

 19 20  0  0  0  0  0  0  0  0999 V2000
   38.0900   31.6320   50.2800 C   0  0  0  0  0  0  0  0  0  0  0  0
   38.6490   31.8220   49.0170 C   0  0  0  0  0  0  0  0  0  0  0  0
   38.0690   31.1610   47.9380 C   0  0  0  0  0  0  0  0  0  0  0  0
   36.9910   30.3700   48.1780 N   0  0  0  0  0  0  0  0  0  0  0  0
   36.4820   30.2130   49.4050 C   0  0  0  0  0  0  0  0  0  0  0  0
   37.0290   30.8400   50.4490 N   0  0  0  0  0  0  0  0  0  0  0  0
   38.6090   32.1850   51.0460 H   0  0  0  0  0  0  0  0  0  0  0  0
   39.4890   32.4270   48.7690 H   0  0  0  0  0  0  0  0  0  0  0  0
   38.4710   31.2080   46.5730 N   0  0  0  0  0  0  0  0  0  0  0  0
   37.5980   31.2920   45.4460 C   0  0  0  0  0  2  0  0  0  0  0  0
   37.8630   32.4340   44.5230 C   0  0  0  0  0  2  0  0  0  0  0  0
   39.3190   32.4820   44.1140 C   0  0  0  0  0  3  0  0  0  0  0  0
   39.5330   33.3270   43.4630 H   0  0  0  0  0  0  0  0  0  0  0  0
   40.1120   32.5190   45.4210 C   0  0  0  0  0  2  0  0  0  0  0  0
   39.8310   31.1800   46.0870 C   0  0  0  0  0  2  0  0  0  0  0  0
   35.3000   29.3270   49.5840 C   0  0  0  0  0  0  0  0  0  0  0  0
   35.1540   28.8580   50.8660 F   0  0  0  0  0  0  0  0  0  0  0  0
   34.1170   30.0090   49.2700 F   0  0  0  0  0  0  0  0  0  0  0  0
   35.3100   28.2350   48.7380 F   0  0  0  0  0  0  0  0  0  0  0  0
  1  6  1  0  0  0  0
  1  7  1  0  0  0  0
  2  1  2  0  0  0  0
  3  4  2  0  0  0  0
  3  2  1  0  0  0  0
  4  5  1  0  0  0  0
  5 16  1  0  0  0  0
  5  6  2  0  0  0  0
  8  2  1  0  0  0  0
  9  3  1  0  0  0  0
 10  9  1  0  0  0  0
 11 10  1  0  0  0  0
 12 11  1  0  0  0  0
 12 14  1  0  0  0  0
 13 12  1  0  0  0  0
 14 15  1  0  0  0  0
 15  9  1  0  0  0  0
 16 17  1  0  0  0  0
 18 16  1  0  0  0  0
 19 16  1  0  0  0  0
M  END
>  <minimizedAffinity>
-5.07257175

>  <minimizedRMSD>
1.34229362

$$$$
