
 OpenBabel03272505353D

 33 35  0  0  1  0  0  0  0  0999 V2000
   36.6520   20.9750   32.8360 C   0  0  0  0  0  0  0  0  0  0  0  0
   37.5220   20.3930   31.9070 C   0  0  0  0  0  0  0  0  0  0  0  0
   38.6080   21.1580   31.4490 C   0  0  0  0  0  0  0  0  0  0  0  0
   38.7500   22.4350   31.9430 N   0  0  0  0  0  0  0  0  0  0  0  0
   37.8770   22.9390   32.8400 C   0  0  0  0  0  0  0  0  0  0  0  0
   36.8410   22.2260   33.2840 N   0  0  0  0  0  0  0  0  0  0  0  0
   38.1280   24.2650   33.2950 N   0  0  0  0  0  0  0  0  0  0  0  0
   37.5300   25.3780   32.5580 C   0  0  0  0  0  0  0  0  0  0  0  0
   38.5060   26.5160   32.3890 C   0  0  0  0  0  0  0  0  0  0  0  0
   39.1890   26.8350   33.5890 N   0  0  0  0  0  0  0  0  0  0  0  0
   38.8200   26.0440   34.7240 C   0  0  0  0  0  0  0  0  0  0  0  0
   38.9670   24.5430   34.4770 C   0  0  1  0  0  0  0  0  0  0  0  0
   37.3760   19.3750   31.5370 H   0  0  0  0  0  0  0  0  0  0  0  0
   39.3170   20.7660   30.7300 H   0  0  0  0  0  0  0  0  0  0  0  0
   37.1920   25.0330   31.5810 H   0  0  0  0  0  0  0  0  0  0  0  0
   36.7080   25.7560   33.2190 H   0  0  0  0  0  0  0  0  0  0  0  0
   37.8750   27.4030   32.0890 H   0  0  0  0  0  0  0  0  0  0  0  0
   39.1940   26.3310   31.5270 H   0  0  0  0  0  0  0  0  0  0  0  0
   39.0570   27.8300   33.8740 H   0  0  0  0  0  0  0  0  0  0  0  0
   39.6180   26.2650   35.4970 H   0  0  0  0  0  0  0  0  0  0  0  0
   37.8110   26.2840   35.0410 H   0  0  0  0  0  0  0  0  0  0  0  0
   40.0250   24.3330   34.2890 H   0  0  0  0  0  0  0  0  0  0  0  0
   38.4170   23.8530   35.6340 N   0  0  0  0  0  0  0  0  0  0  0  0
   38.2390   24.8390   36.6860 C   0  0  0  0  0  2  0  0  0  0  0  0
   37.8460   24.2480   38.0120 C   0  0  0  0  0  2  0  0  0  0  0  0
   38.7450   23.1010   38.4150 C   0  0  0  0  0  3  0  0  0  0  0  0
   39.0590   23.1570   39.4690 H   0  0  0  0  0  0  0  0  0  0  0  0
   39.9120   23.1420   37.4480 C   0  0  0  0  0  2  0  0  0  0  0  0
   39.3140   22.7960   36.0800 C   0  0  0  0  0  2  0  0  0  0  0  0
   35.5050   20.1610   33.3250 C   0  0  0  0  0  0  0  0  0  0  0  0
   35.7760   18.8010   33.1060 F   0  0  0  0  0  0  0  0  0  0  0  0
   35.2890   20.4620   34.6220 F   0  0  0  0  0  0  0  0  0  0  0  0
   34.4170   20.4520   32.5100 F   0  0  0  0  0  0  0  0  0  0  0  0
  1  6  1  0  0  0  0
  1 30  1  0  0  0  0
  2  1  2  0  0  0  0
  3  2  1  0  0  0  0
  3  4  2  0  0  0  0
  4  5  1  0  0  0  0
  5  6  2  0  0  0  0
  5  7  1  0  0  0  0
  7 12  1  0  0  0  0
  8 16  1  0  0  0  0
  8  7  1  0  0  0  0
  9  8  1  0  0  0  0
  9 10  1  0  0  0  0
 10 19  1  0  0  0  0
 10 11  1  0  0  0  0
 11 21  1  0  0  0  0
 11 20  1  0  0  0  0
 12 22  1  6  0  0  0
 12 11  1  0  0  0  0
 12 23  1  0  0  0  0
 13  2  1  0  0  0  0
 14  3  1  0  0  0  0
 15  8  1  0  0  0  0
 17  9  1  0  0  0  0
 18  9  1  0  0  0  0
 23 29  1  0  0  0  0
 23 24  1  0  0  0  0
 24 25  1  0  0  0  0
 25 26  1  0  0  0  0
 26 27  1  0  0  0  0
 28 26  1  0  0  0  0
 29 28  1  0  0  0  0
 30 32  1  0  0  0  0
 31 30  1  0  0  0  0
 33 30  1  0  0  0  0
M  END
>  <minimizedAffinity>
-5.6708498

$$$$

 OpenBabel03272505353D

 33 35  0  0  1  0  0  0  0  0999 V2000
   39.1550   23.0740   37.3490 C   0  0  0  0  0  0  0  0  0  0  0  0
   40.4250   22.5580   37.6310 C   0  0  0  0  0  0  0  0  0  0  0  0
   41.1610   21.9990   36.5730 C   0  0  0  0  0  0  0  0  0  0  0  0
   40.5870   21.9930   35.3220 N   0  0  0  0  0  0  0  0  0  0  0  0
   39.3580   22.5080   35.1150 C   0  0  0  0  0  0  0  0  0  0  0  0
   38.6460   23.0420   36.1080 N   0  0  0  0  0  0  0  0  0  0  0  0
   38.8680   22.4620   33.7770 N   0  0  0  0  0  0  0  0  0  0  0  0
   38.1040   21.2890   33.3560 C   0  0  0  0  0  0  0  0  0  0  0  0
   38.5000   20.8410   31.9710 C   0  0  0  0  0  0  0  0  0  0  0  0
   38.5840   21.9150   31.0510 N   0  0  0  0  0  0  0  0  0  0  0  0
   38.2660   23.2010   31.5920 C   0  0  0  0  0  0  0  0  0  0  0  0
   39.1070   23.5570   32.8160 C   0  0  1  0  0  0  0  0  0  0  0  0
   40.8480   22.5800   38.6390 H   0  0  0  0  0  0  0  0  0  0  0  0
   42.1500   21.5840   36.7250 H   0  0  0  0  0  0  0  0  0  0  0  0
   38.2580   20.4750   34.0660 H   0  0  0  0  0  0  0  0  0  0  0  0
   37.0430   21.6410   33.2880 H   0  0  0  0  0  0  0  0  0  0  0  0
   37.6730   20.1460   31.6390 H   0  0  0  0  0  0  0  0  0  0  0  0
   39.4250   20.2130   32.0010 H   0  0  0  0  0  0  0  0  0  0  0  0
   37.9600   21.7850   30.2240 H   0  0  0  0  0  0  0  0  0  0  0  0
   38.6190   23.9360   30.8050 H   0  0  0  0  0  0  0  0  0  0  0  0
   37.2080   23.2640   31.8210 H   0  0  0  0  0  0  0  0  0  0  0  0
   40.1560   23.6070   32.5040 H   0  0  0  0  0  0  0  0  0  0  0  0
   38.5860   24.8020   33.3600 N   0  0  0  0  0  0  0  0  0  0  0  0
   37.3860   25.1360   32.6110 C   0  0  0  0  0  2  0  0  0  0  0  0
   36.8280   26.4940   32.9330 C   0  0  0  0  0  2  0  0  0  0  0  0
   37.8840   27.5740   32.8810 C   0  0  0  0  0  3  0  0  0  0  0  0
   37.5450   28.4750   32.3460 H   0  0  0  0  0  0  0  0  0  0  0  0
   39.0930   26.9250   32.2360 C   0  0  0  0  0  2  0  0  0  0  0  0
   39.5680   25.8700   33.2410 C   0  0  0  0  0  2  0  0  0  0  0  0
   38.3780   23.6710   38.4700 C   0  0  0  0  0  0  0  0  0  0  0  0
   37.9840   24.9720   38.1190 F   0  0  0  0  0  0  0  0  0  0  0  0
   37.3420   22.8560   38.7550 F   0  0  0  0  0  0  0  0  0  0  0  0
   39.2540   23.8320   39.5370 F   0  0  0  0  0  0  0  0  0  0  0  0
  1  2  1  0  0  0  0
  1 30  1  0  0  0  0
  2 13  1  0  0  0  0
  3 14  1  0  0  0  0
  3  2  2  0  0  0  0
  4  3  1  0  0  0  0
  5  4  2  0  0  0  0
  5  6  1  0  0  0  0
  6  1  2  0  0  0  0
  7  5  1  0  0  0  0
  8  7  1  0  0  0  0
  8 15  1  0  0  0  0
  9 18  1  0  0  0  0
  9  8  1  0  0  0  0
 10 11  1  0  0  0  0
 10  9  1  0  0  0  0
 11 21  1  0  0  0  0
 11 12  1  0  0  0  0
 12 22  1  6  0  0  0
 12 23  1  0  0  0  0
 12  7  1  0  0  0  0
 16  8  1  0  0  0  0
 17  9  1  0  0  0  0
 19 10  1  0  0  0  0
 20 11  1  0  0  0  0
 24 25  1  0  0  0  0
 24 23  1  0  0  0  0
 26 25  1  0  0  0  0
 27 26  1  0  0  0  0
 28 26  1  0  0  0  0
 28 29  1  0  0  0  0
 29 23  1  0  0  0  0
 30 32  1  0  0  0  0
 30 33  1  0  0  0  0
 31 30  1  0  0  0  0
M  END
>  <minimizedAffinity>
-5.63320303

$$$$

 OpenBabel03272505353D

 33 35  0  0  1  0  0  0  0  0999 V2000
   37.0800   26.7760   32.1970 C   0  0  0  0  0  0  0  0  0  0  0  0
   38.3090   27.3460   31.8440 C   0  0  0  0  0  0  0  0  0  0  0  0
   39.4750   26.8010   32.4070 C   0  0  0  0  0  0  0  0  0  0  0  0
   39.3380   25.7400   33.2710 N   0  0  0  0  0  0  0  0  0  0  0  0
   38.1240   25.2340   33.5710 C   0  0  0  0  0  0  0  0  0  0  0  0
   37.0070   25.7390   33.0450 N   0  0  0  0  0  0  0  0  0  0  0  0
   38.1000   24.1250   34.4650 N   0  0  0  0  0  0  0  0  0  0  0  0
   37.9940   24.3910   35.8990 C   0  0  0  0  0  0  0  0  0  0  0  0
   38.9160   23.5000   36.6950 C   0  0  0  0  0  0  0  0  0  0  0  0
   38.8530   22.1440   36.2880 N   0  0  0  0  0  0  0  0  0  0  0  0
   37.9300   21.8730   35.2280 C   0  0  0  0  0  0  0  0  0  0  0  0
   38.1790   22.7300   33.9880 C   0  0  1  0  0  0  0  0  0  0  0  0
   38.3780   28.1900   31.1530 H   0  0  0  0  0  0  0  0  0  0  0  0
   40.4570   27.1970   32.1750 H   0  0  0  0  0  0  0  0  0  0  0  0
   38.2290   25.4370   36.0980 H   0  0  0  0  0  0  0  0  0  0  0  0
   36.9490   24.0980   36.1740 H   0  0  0  0  0  0  0  0  0  0  0  0
   38.5470   23.5730   37.7610 H   0  0  0  0  0  0  0  0  0  0  0  0
   39.9570   23.9080   36.7090 H   0  0  0  0  0  0  0  0  0  0  0  0
   38.5940   21.5020   37.0700 H   0  0  0  0  0  0  0  0  0  0  0  0
   38.1930   20.8260   34.8830 H   0  0  0  0  0  0  0  0  0  0  0  0
   36.9090   21.9870   35.5760 H   0  0  0  0  0  0  0  0  0  0  0  0
   39.1720   22.4850   33.5990 H   0  0  0  0  0  0  0  0  0  0  0  0
   37.0920   22.4760   33.0550 N   0  0  0  0  0  0  0  0  0  0  0  0
   36.3400   21.3400   33.5600 C   0  0  0  0  0  2  0  0  0  0  0  0
   35.2880   20.8380   32.6110 C   0  0  0  0  0  2  0  0  0  0  0  0
   35.8320   20.6200   31.2170 C   0  0  0  0  0  3  0  0  0  0  0  0
   35.5070   19.6650   30.7770 H   0  0  0  0  0  0  0  0  0  0  0  0
   37.3390   20.7250   31.3510 C   0  0  0  0  0  2  0  0  0  0  0  0
   37.6090   22.1870   31.7250 C   0  0  0  0  0  2  0  0  0  0  0  0
   35.8450   27.3500   31.5940 C   0  0  0  0  0  0  0  0  0  0  0  0
   34.9520   26.3100   31.2900 F   0  0  0  0  0  0  0  0  0  0  0  0
   35.3360   28.2600   32.4480 F   0  0  0  0  0  0  0  0  0  0  0  0
   36.2010   27.8940   30.3660 F   0  0  0  0  0  0  0  0  0  0  0  0
  1  6  1  0  0  0  0
  2  1  2  0  0  0  0
  2  3  1  0  0  0  0
  3  4  2  0  0  0  0
  4  5  1  0  0  0  0
  5  7  1  0  0  0  0
  6  5  2  0  0  0  0
  7  8  1  0  0  0  0
  8 15  1  0  0  0  0
  8 16  1  0  0  0  0
  8  9  1  0  0  0  0
  9 18  1  0  0  0  0
  9 17  1  0  0  0  0
 10  9  1  0  0  0  0
 10 19  1  0  0  0  0
 11 21  1  0  0  0  0
 11 10  1  0  0  0  0
 12 22  1  6  0  0  0
 12  7  1  0  0  0  0
 12 11  1  0  0  0  0
 13  2  1  0  0  0  0
 14  3  1  0  0  0  0
 20 11  1  0  0  0  0
 23 24  1  0  0  0  0
 23 12  1  0  0  0  0
 25 24  1  0  0  0  0
 26 28  1  0  0  0  0
 26 25  1  0  0  0  0
 27 26  1  0  0  0  0
 28 29  1  0  0  0  0
 29 23  1  0  0  0  0
 30  1  1  0  0  0  0
 30 32  1  0  0  0  0
 31 30  1  0  0  0  0
 33 30  1  0  0  0  0
M  END
>  <minimizedAffinity>
-5.45311737

$$$$

 OpenBabel03272505353D

 33 35  0  0  1  0  0  0  0  0999 V2000
   37.1790   26.2260   33.5540 C   0  0  0  0  0  0  0  0  0  0  0  0
   37.2490   27.5200   34.0850 C   0  0  0  0  0  0  0  0  0  0  0  0
   37.7930   27.6760   35.3720 C   0  0  0  0  0  0  0  0  0  0  0  0
   38.2230   26.5480   36.0310 N   0  0  0  0  0  0  0  0  0  0  0  0
   38.1290   25.3280   35.4630 C   0  0  0  0  0  0  0  0  0  0  0  0
   37.6160   25.1610   34.2430 N   0  0  0  0  0  0  0  0  0  0  0  0
   38.6180   24.2310   36.2290 N   0  0  0  0  0  0  0  0  0  0  0  0
   37.6920   23.5390   37.1240 C   0  0  0  0  0  0  0  0  0  0  0  0
   38.3370   23.2250   38.4510 C   0  0  0  0  0  0  0  0  0  0  0  0
   39.6310   22.6650   38.3120 N   0  0  0  0  0  0  0  0  0  0  0  0
   40.0720   22.4880   36.9610 C   0  0  0  0  0  0  0  0  0  0  0  0
   40.0210   23.7790   36.1450 C   0  0  1  0  0  0  0  0  0  0  0  0
   36.8960   28.3930   33.5310 H   0  0  0  0  0  0  0  0  0  0  0  0
   37.8740   28.6500   35.8390 H   0  0  0  0  0  0  0  0  0  0  0  0
   36.8040   24.1530   37.2820 H   0  0  0  0  0  0  0  0  0  0  0  0
   37.4850   22.5570   36.6270 H   0  0  0  0  0  0  0  0  0  0  0  0
   37.6630   22.4550   38.9310 H   0  0  0  0  0  0  0  0  0  0  0  0
   38.3120   24.1120   39.1310 H   0  0  0  0  0  0  0  0  0  0  0  0
   39.7160   21.7310   38.7690 H   0  0  0  0  0  0  0  0  0  0  0  0
   41.1810   22.2740   37.0490 H   0  0  0  0  0  0  0  0  0  0  0  0
   39.5010   21.7040   36.4760 H   0  0  0  0  0  0  0  0  0  0  0  0
   40.7120   24.4960   36.6000 H   0  0  0  0  0  0  0  0  0  0  0  0
   40.3380   23.4380   34.7660 N   0  0  0  0  0  0  0  0  0  0  0  0
   40.5320   22.0000   34.7060 C   0  0  0  0  0  2  0  0  0  0  0  0
   41.0450   21.5100   33.3810 C   0  0  0  0  0  2  0  0  0  0  0  0
   42.2480   22.2960   32.9080 C   0  0  0  0  0  3  0  0  0  0  0  0
   43.0520   21.6510   32.5210 H   0  0  0  0  0  0  0  0  0  0  0  0
   42.6800   23.1280   34.0990 C   0  0  0  0  0  2  0  0  0  0  0  0
   41.5410   24.1280   34.3260 C   0  0  0  0  0  2  0  0  0  0  0  0
   36.6080   26.0620   32.1880 C   0  0  0  0  0  0  0  0  0  0  0  0
   37.6400   26.1590   31.2410 F   0  0  0  0  0  0  0  0  0  0  0  0
   35.9450   24.8890   32.1400 F   0  0  0  0  0  0  0  0  0  0  0  0
   35.7910   27.1600   31.9490 F   0  0  0  0  0  0  0  0  0  0  0  0
  1  2  2  0  0  0  0
  1  6  1  0  0  0  0
  2  3  1  0  0  0  0
  3 14  1  0  0  0  0
  3  4  2  0  0  0  0
  5  4  1  0  0  0  0
  5  7  1  0  0  0  0
  6  5  2  0  0  0  0
  7  8  1  0  0  0  0
  8 15  1  0  0  0  0
  8  9  1  0  0  0  0
  9 17  1  0  0  0  0
  9 18  1  0  0  0  0
 10  9  1  0  0  0  0
 10 19  1  0  0  0  0
 11 20  1  0  0  0  0
 11 10  1  0  0  0  0
 12  7  1  0  0  0  0
 12 22  1  1  0  0  0
 12 11  1  0  0  0  0
 13  2  1  0  0  0  0
 16  8  1  0  0  0  0
 21 11  1  0  0  0  0
 23 12  1  0  0  0  0
 24 23  1  0  0  0  0
 25 24  1  0  0  0  0
 26 25  1  0  0  0  0
 26 28  1  0  0  0  0
 27 26  1  0  0  0  0
 28 29  1  0  0  0  0
 29 23  1  0  0  0  0
 30  1  1  0  0  0  0
 31 30  1  0  0  0  0
 32 30  1  0  0  0  0
 33 30  1  0  0  0  0
M  END
>  <minimizedAffinity>
-5.4180932

$$$$

 OpenBabel03272505353D

 33 35  0  0  1  0  0  0  0  0999 V2000
   38.3160   24.8750   36.3840 C   0  0  0  0  0  0  0  0  0  0  0  0
   38.2540   26.2670   36.5250 C   0  0  0  0  0  0  0  0  0  0  0  0
   38.4970   27.0570   35.3890 C   0  0  0  0  0  0  0  0  0  0  0  0
   38.7810   26.4140   34.2070 N   0  0  0  0  0  0  0  0  0  0  0  0
   38.8250   25.0680   34.1350 C   0  0  0  0  0  0  0  0  0  0  0  0
   38.5970   24.3030   35.2040 N   0  0  0  0  0  0  0  0  0  0  0  0
   39.1140   24.5080   32.8570 N   0  0  0  0  0  0  0  0  0  0  0  0
   40.5120   24.2580   32.5080 C   0  0  0  0  0  0  0  0  0  0  0  0
   40.8050   24.6620   31.0840 C   0  0  0  0  0  0  0  0  0  0  0  0
   39.8240   24.2030   30.1710 N   0  0  0  0  0  0  0  0  0  0  0  0
   38.7640   23.4390   30.7550 C   0  0  0  0  0  0  0  0  0  0  0  0
   38.0510   24.1780   31.8870 C   0  0  1  0  0  0  0  0  0  0  0  0
   38.0250   26.7410   37.4830 H   0  0  0  0  0  0  0  0  0  0  0  0
   38.4640   28.1390   35.4320 H   0  0  0  0  0  0  0  0  0  0  0  0
   41.1650   24.8040   33.1890 H   0  0  0  0  0  0  0  0  0  0  0  0
   40.6290   23.1450   32.5560 H   0  0  0  0  0  0  0  0  0  0  0  0
   41.7890   24.1650   30.8340 H   0  0  0  0  0  0  0  0  0  0  0  0
   40.9960   25.7610   31.0090 H   0  0  0  0  0  0  0  0  0  0  0  0
   40.2270   23.6080   29.4140 H   0  0  0  0  0  0  0  0  0  0  0  0
   37.9770   23.3760   29.9420 H   0  0  0  0  0  0  0  0  0  0  0  0
   39.1330   22.4780   31.0960 H   0  0  0  0  0  0  0  0  0  0  0  0
   37.5860   25.0750   31.4660 H   0  0  0  0  0  0  0  0  0  0  0  0
   37.1130   23.2470   32.4950 N   0  0  0  0  0  0  0  0  0  0  0  0
   37.6990   21.9200   32.4130 C   0  0  0  0  0  2  0  0  0  0  0  0
   36.7700   20.8180   32.8380 C   0  0  0  0  0  2  0  0  0  0  0  0
   35.4200   20.9160   32.1630 C   0  0  0  0  0  3  0  0  0  0  0  0
   35.0620   19.9470   31.7840 H   0  0  0  0  0  0  0  0  0  0  0  0
   35.5900   21.9520   31.0690 C   0  0  0  0  0  2  0  0  0  0  0  0
   35.8330   23.2760   31.8020 C   0  0  0  0  0  2  0  0  0  0  0  0
   38.0510   24.0380   37.5870 C   0  0  0  0  0  0  0  0  0  0  0  0
   37.8180   24.8750   38.6910 F   0  0  0  0  0  0  0  0  0  0  0  0
   37.0230   23.2110   37.3150 F   0  0  0  0  0  0  0  0  0  0  0  0
   39.2300   23.3630   37.8850 F   0  0  0  0  0  0  0  0  0  0  0  0
  1  2  1  0  0  0  0
  1 30  1  0  0  0  0
  2 13  1  0  0  0  0
  3 14  1  0  0  0  0
  3  2  2  0  0  0  0
  4  3  1  0  0  0  0
  5  4  2  0  0  0  0
  5  6  1  0  0  0  0
  6  1  2  0  0  0  0
  7  5  1  0  0  0  0
  8 16  1  0  0  0  0
  8  7  1  0  0  0  0
  8 15  1  0  0  0  0
  9  8  1  0  0  0  0
 10 11  1  0  0  0  0
 10  9  1  0  0  0  0
 11 21  1  0  0  0  0
 11 12  1  0  0  0  0
 12 22  1  6  0  0  0
 12 23  1  0  0  0  0
 12  7  1  0  0  0  0
 17  9  1  0  0  0  0
 18  9  1  0  0  0  0
 19 10  1  0  0  0  0
 20 11  1  0  0  0  0
 24 23  1  0  0  0  0
 24 25  1  0  0  0  0
 26 25  1  0  0  0  0
 27 26  1  0  0  0  0
 28 29  1  0  0  0  0
 28 26  1  0  0  0  0
 29 23  1  0  0  0  0
 30 33  1  0  0  0  0
 30 31  1  0  0  0  0
 32 30  1  0  0  0  0
M  END
>  <minimizedAffinity>
-5.31490278

$$$$

 OpenBabel03272505353D

 33 35  0  0  1  0  0  0  0  0999 V2000
   36.0470   21.0640   33.1080 C   0  0  0  0  0  0  0  0  0  0  0  0
   35.4700   20.5950   34.2940 C   0  0  0  0  0  0  0  0  0  0  0  0
   36.0920   20.9310   35.5080 C   0  0  0  0  0  0  0  0  0  0  0  0
   37.2320   21.7010   35.4570 N   0  0  0  0  0  0  0  0  0  0  0  0
   37.7380   22.1230   34.2800 C   0  0  0  0  0  0  0  0  0  0  0  0
   37.1600   21.8140   33.1180 N   0  0  0  0  0  0  0  0  0  0  0  0
   38.9120   22.9270   34.3450 N   0  0  0  0  0  0  0  0  0  0  0  0
   40.2130   22.2610   34.3060 C   0  0  0  0  0  0  0  0  0  0  0  0
   41.1730   22.8660   35.3010 C   0  0  0  0  0  0  0  0  0  0  0  0
   41.1760   24.2820   35.2680 N   0  0  0  0  0  0  0  0  0  0  0  0
   40.2980   24.8670   34.3000 C   0  0  0  0  0  0  0  0  0  0  0  0
   38.8510   24.3980   34.4500 C   0  0  1  0  0  0  0  0  0  0  0  0
   34.5630   19.9850   34.2940 H   0  0  0  0  0  0  0  0  0  0  0  0
   35.6960   20.5990   36.4600 H   0  0  0  0  0  0  0  0  0  0  0  0
   40.0890   21.1970   34.5130 H   0  0  0  0  0  0  0  0  0  0  0  0
   40.6250   22.4840   33.2880 H   0  0  0  0  0  0  0  0  0  0  0  0
   42.1940   22.4960   34.9880 H   0  0  0  0  0  0  0  0  0  0  0  0
   41.0050   22.4500   36.3260 H   0  0  0  0  0  0  0  0  0  0  0  0
   42.1230   24.6770   35.0750 H   0  0  0  0  0  0  0  0  0  0  0  0
   40.2520   25.9630   34.5820 H   0  0  0  0  0  0  0  0  0  0  0  0
   40.6610   24.6780   33.2960 H   0  0  0  0  0  0  0  0  0  0  0  0
   38.4880   24.7250   35.4300 H   0  0  0  0  0  0  0  0  0  0  0  0
   38.0990   24.9330   33.3250 N   0  0  0  0  0  0  0  0  0  0  0  0
   39.0590   25.3660   32.3240 C   0  0  0  0  0  2  0  0  0  0  0  0
   38.4430   26.1110   31.1730 C   0  0  0  0  0  2  0  0  0  0  0  0
   37.5220   27.2170   31.6350 C   0  0  0  0  0  3  0  0  0  0  0  0
   37.6760   28.1570   31.0830 H   0  0  0  0  0  0  0  0  0  0  0  0
   37.7750   27.3580   33.1240 C   0  0  0  0  0  2  0  0  0  0  0  0
   37.2680   26.0520   33.7440 C   0  0  0  0  0  2  0  0  0  0  0  0
   35.3830   20.7140   31.8210 C   0  0  0  0  0  0  0  0  0  0  0  0
   36.1290   19.7170   31.1720 F   0  0  0  0  0  0  0  0  0  0  0  0
   34.1120   20.3480   32.0820 F   0  0  0  0  0  0  0  0  0  0  0  0
   35.4710   21.8290   30.9960 F   0  0  0  0  0  0  0  0  0  0  0  0
  1  6  2  0  0  0  0
  1  2  1  0  0  0  0
  2 13  1  0  0  0  0
  2  3  2  0  0  0  0
  3 14  1  0  0  0  0
  4  3  1  0  0  0  0
  5  7  1  0  0  0  0
  5  4  2  0  0  0  0
  6  5  1  0  0  0  0
  7 12  1  0  0  0  0
  8  7  1  0  0  0  0
  8 15  1  0  0  0  0
  8  9  1  0  0  0  0
  9 18  1  0  0  0  0
 10  9  1  0  0  0  0
 11 12  1  0  0  0  0
 11 20  1  0  0  0  0
 11 10  1  0  0  0  0
 12 22  1  1  0  0  0
 16  8  1  0  0  0  0
 17  9  1  0  0  0  0
 19 10  1  0  0  0  0
 21 11  1  0  0  0  0
 23 29  1  0  0  0  0
 23 12  1  0  0  0  0
 24 23  1  0  0  0  0
 25 26  1  0  0  0  0
 25 24  1  0  0  0  0
 26 28  1  0  0  0  0
 27 26  1  0  0  0  0
 28 29  1  0  0  0  0
 30 32  1  0  0  0  0
 30  1  1  0  0  0  0
 31 30  1  0  0  0  0
 33 30  1  0  0  0  0
M  END
>  <minimizedAffinity>
-5.21511269

$$$$

 OpenBabel03272505353D

 33 35  0  0  1  0  0  0  0  0999 V2000
   37.6080   22.2100   34.3930 C   0  0  0  0  0  0  0  0  0  0  0  0
   37.4520   21.9570   35.7600 C   0  0  0  0  0  0  0  0  0  0  0  0
   38.1700   22.7560   36.6660 C   0  0  0  0  0  0  0  0  0  0  0  0
   38.9820   23.7400   36.1520 N   0  0  0  0  0  0  0  0  0  0  0  0
   39.0890   23.9350   34.8210 C   0  0  0  0  0  0  0  0  0  0  0  0
   38.4140   23.1860   33.9490 N   0  0  0  0  0  0  0  0  0  0  0  0
   39.9470   24.9920   34.4010 N   0  0  0  0  0  0  0  0  0  0  0  0
   41.3550   24.6860   34.1510 C   0  0  0  0  0  0  0  0  0  0  0  0
   42.2590   25.7590   34.7040 C   0  0  0  0  0  0  0  0  0  0  0  0
   41.8200   27.0670   34.3800 N   0  0  0  0  0  0  0  0  0  0  0  0
   40.6310   27.1260   33.5860 C   0  0  0  0  0  0  0  0  0  0  0  0
   39.4580   26.3720   34.2130 C   0  0  1  0  0  0  0  0  0  0  0  0
   36.7960   21.1640   36.1310 H   0  0  0  0  0  0  0  0  0  0  0  0
   38.0930   22.6100   37.7370 H   0  0  0  0  0  0  0  0  0  0  0  0
   41.6080   23.7240   34.5970 H   0  0  0  0  0  0  0  0  0  0  0  0
   41.4660   24.7160   33.0370 H   0  0  0  0  0  0  0  0  0  0  0  0
   43.2610   25.5840   34.2100 H   0  0  0  0  0  0  0  0  0  0  0  0
   42.4350   25.6130   35.7990 H   0  0  0  0  0  0  0  0  0  0  0  0
   42.5420   27.6160   33.8620 H   0  0  0  0  0  0  0  0  0  0  0  0
   40.3070   28.2110   33.6390 H   0  0  0  0  0  0  0  0  0  0  0  0
   40.8260   26.7650   32.5820 H   0  0  0  0  0  0  0  0  0  0  0  0
   39.2150   26.8550   35.1660 H   0  0  0  0  0  0  0  0  0  0  0  0
   38.3700   26.3740   33.2480 N   0  0  0  0  0  0  0  0  0  0  0  0
   38.7330   27.2910   32.1820 C   0  0  0  0  0  2  0  0  0  0  0  0
   37.6290   27.5420   31.1940 C   0  0  0  0  0  2  0  0  0  0  0  0
   36.3250   27.9000   31.8710 C   0  0  0  0  0  3  0  0  0  0  0  0
   35.8210   28.7570   31.3980 H   0  0  0  0  0  0  0  0  0  0  0  0
   36.6810   28.1540   33.3230 C   0  0  0  0  0  2  0  0  0  0  0  0
   37.1250   26.7940   33.8730 C   0  0  0  0  0  2  0  0  0  0  0  0
   36.8420   21.3660   33.4330 C   0  0  0  0  0  0  0  0  0  0  0  0
   36.1140   22.1960   32.5660 F   0  0  0  0  0  0  0  0  0  0  0  0
   37.7060   20.5520   32.7960 F   0  0  0  0  0  0  0  0  0  0  0  0
   35.8830   20.6770   34.1670 F   0  0  0  0  0  0  0  0  0  0  0  0
  1  2  1  0  0  0  0
  2 13  1  0  0  0  0
  2  3  2  0  0  0  0
  3 14  1  0  0  0  0
  4  3  1  0  0  0  0
  5  4  2  0  0  0  0
  6  1  2  0  0  0  0
  6  5  1  0  0  0  0
  7  5  1  0  0  0  0
  8  7  1  0  0  0  0
  8 15  1  0  0  0  0
  8  9  1  0  0  0  0
  9 18  1  0  0  0  0
 10  9  1  0  0  0  0
 11 20  1  0  0  0  0
 11 12  1  0  0  0  0
 11 10  1  0  0  0  0
 12  7  1  0  0  0  0
 12 22  1  1  0  0  0
 16  8  1  0  0  0  0
 17  9  1  0  0  0  0
 19 10  1  0  0  0  0
 21 11  1  0  0  0  0
 23 29  1  0  0  0  0
 23 12  1  0  0  0  0
 24 23  1  0  0  0  0
 25 26  1  0  0  0  0
 25 24  1  0  0  0  0
 26 28  1  0  0  0  0
 27 26  1  0  0  0  0
 28 29  1  0  0  0  0
 30 33  1  0  0  0  0
 30  1  1  0  0  0  0
 31 30  1  0  0  0  0
 32 30  1  0  0  0  0
M  END
>  <minimizedAffinity>
-5.17453861

$$$$

 OpenBabel03272505353D

 33 35  0  0  1  0  0  0  0  0999 V2000
   39.9780   23.0910   36.7940 C   0  0  0  0  0  0  0  0  0  0  0  0
   39.1270   23.1330   37.9050 C   0  0  0  0  0  0  0  0  0  0  0  0
   37.9450   23.8850   37.8020 C   0  0  0  0  0  0  0  0  0  0  0  0
   37.6950   24.5330   36.6150 N   0  0  0  0  0  0  0  0  0  0  0  0
   38.5560   24.4520   35.5790 C   0  0  0  0  0  0  0  0  0  0  0  0
   39.6830   23.7430   35.6600 N   0  0  0  0  0  0  0  0  0  0  0  0
   38.1900   25.1510   34.3930 N   0  0  0  0  0  0  0  0  0  0  0  0
   38.6280   26.5380   34.2400 C   0  0  0  0  0  0  0  0  0  0  0  0
   37.5300   27.4040   33.6740 C   0  0  0  0  0  0  0  0  0  0  0  0
   36.8810   26.8110   32.5630 N   0  0  0  0  0  0  0  0  0  0  0  0
   37.3900   25.5300   32.1780 C   0  0  0  0  0  0  0  0  0  0  0  0
   37.3890   24.5200   33.3250 C   0  0  1  0  0  0  0  0  0  0  0  0
   39.3600   22.6040   38.8330 H   0  0  0  0  0  0  0  0  0  0  0  0
   37.2450   23.9580   38.6250 H   0  0  0  0  0  0  0  0  0  0  0  0
   38.9500   26.9310   35.2040 H   0  0  0  0  0  0  0  0  0  0  0  0
   39.4390   26.5040   33.4680 H   0  0  0  0  0  0  0  0  0  0  0  0
   38.0480   28.3470   33.3270 H   0  0  0  0  0  0  0  0  0  0  0  0
   36.8220   27.7300   34.4760 H   0  0  0  0  0  0  0  0  0  0  0  0
   36.9220   27.4080   31.7080 H   0  0  0  0  0  0  0  0  0  0  0  0
   36.6150   25.1180   31.4620 H   0  0  0  0  0  0  0  0  0  0  0  0
   38.3840   25.6290   31.7540 H   0  0  0  0  0  0  0  0  0  0  0  0
   36.3510   24.3570   33.6330 H   0  0  0  0  0  0  0  0  0  0  0  0
   38.0680   23.3220   32.8540 N   0  0  0  0  0  0  0  0  0  0  0  0
   38.5850   23.6070   31.5270 C   0  0  0  0  0  2  0  0  0  0  0  0
   39.1590   22.4060   30.8280 C   0  0  0  0  0  2  0  0  0  0  0  0
   38.2190   21.2220   30.8610 C   0  0  0  0  0  3  0  0  0  0  0  0
   38.1370   20.7170   29.8870 H   0  0  0  0  0  0  0  0  0  0  0  0
   36.8950   21.7710   31.3560 C   0  0  0  0  0  2  0  0  0  0  0  0
   37.1510   22.1930   32.8070 C   0  0  0  0  0  2  0  0  0  0  0  0
   41.2290   22.2890   36.9020 C   0  0  0  0  0  0  0  0  0  0  0  0
   42.3310   23.1560   36.9630 F   0  0  0  0  0  0  0  0  0  0  0  0
   41.1260   21.4780   37.9740 F   0  0  0  0  0  0  0  0  0  0  0  0
   41.3770   21.5960   35.7060 F   0  0  0  0  0  0  0  0  0  0  0  0
  1 30  1  0  0  0  0
  1  2  1  0  0  0  0
  2 13  1  0  0  0  0
  3  2  2  0  0  0  0
  3 14  1  0  0  0  0
  4  3  1  0  0  0  0
  5  6  1  0  0  0  0
  5  4  2  0  0  0  0
  6  1  2  0  0  0  0
  7  5  1  0  0  0  0
  8  7  1  0  0  0  0
  8 15  1  0  0  0  0
  9  8  1  0  0  0  0
  9 18  1  0  0  0  0
 10  9  1  0  0  0  0
 11 10  1  0  0  0  0
 11 12  1  0  0  0  0
 12 22  1  1  0  0  0
 12  7  1  0  0  0  0
 16  8  1  0  0  0  0
 17  9  1  0  0  0  0
 19 10  1  0  0  0  0
 20 11  1  0  0  0  0
 21 11  1  0  0  0  0
 23 12  1  0  0  0  0
 24 23  1  0  0  0  0
 25 26  1  0  0  0  0
 25 24  1  0  0  0  0
 26 28  1  0  0  0  0
 27 26  1  0  0  0  0
 28 29  1  0  0  0  0
 29 23  1  0  0  0  0
 30 31  1  0  0  0  0
 30 32  1  0  0  0  0
 33 30  1  0  0  0  0
M  END
>  <minimizedAffinity>
-5.17155313

$$$$

 OpenBabel03272505353D

 33 35  0  0  1  0  0  0  0  0999 V2000
   37.3910   23.2510   31.4530 C   0  0  0  0  0  0  0  0  0  0  0  0
   37.9690   23.8360   30.3200 C   0  0  0  0  0  0  0  0  0  0  0  0
   38.5730   25.0970   30.4640 C   0  0  0  0  0  0  0  0  0  0  0  0
   38.5600   25.6790   31.7110 N   0  0  0  0  0  0  0  0  0  0  0  0
   37.9860   25.0620   32.7650 C   0  0  0  0  0  0  0  0  0  0  0  0
   37.4090   23.8660   32.6450 N   0  0  0  0  0  0  0  0  0  0  0  0
   38.0440   25.7490   34.0110 N   0  0  0  0  0  0  0  0  0  0  0  0
   36.9530   26.6610   34.3530 C   0  0  0  0  0  0  0  0  0  0  0  0
   37.4720   27.9350   34.9730 C   0  0  0  0  0  0  0  0  0  0  0  0
   38.4480   27.6990   35.9730 N   0  0  0  0  0  0  0  0  0  0  0  0
   38.7420   26.3200   36.2190 C   0  0  0  0  0  0  0  0  0  0  0  0
   39.1630   25.5670   34.9570 C   0  0  1  0  0  0  0  0  0  0  0  0
   37.9590   23.3430   29.3450 H   0  0  0  0  0  0  0  0  0  0  0  0
   39.0380   25.6030   29.6260 H   0  0  0  0  0  0  0  0  0  0  0  0
   36.3740   26.8950   33.4590 H   0  0  0  0  0  0  0  0  0  0  0  0
   36.3690   26.1320   35.1490 H   0  0  0  0  0  0  0  0  0  0  0  0
   36.5710   28.4160   35.4570 H   0  0  0  0  0  0  0  0  0  0  0  0
   37.8120   28.6550   34.1880 H   0  0  0  0  0  0  0  0  0  0  0  0
   38.1830   28.1080   36.8960 H   0  0  0  0  0  0  0  0  0  0  0  0
   39.6870   26.3370   36.8440 H   0  0  0  0  0  0  0  0  0  0  0  0
   37.8980   25.8320   36.6940 H   0  0  0  0  0  0  0  0  0  0  0  0
   40.0900   26.0170   34.5870 H   0  0  0  0  0  0  0  0  0  0  0  0
   39.2780   24.1590   35.3050 N   0  0  0  0  0  0  0  0  0  0  0  0
   39.0020   24.0370   36.7260 C   0  0  0  0  0  2  0  0  0  0  0  0
   39.2590   22.6630   37.2780 C   0  0  0  0  0  2  0  0  0  0  0  0
   40.6210   22.1350   36.8880 C   0  0  0  0  0  3  0  0  0  0  0  0
   41.1550   21.6720   37.7320 H   0  0  0  0  0  0  0  0  0  0  0  0
   41.3600   23.3210   36.3000 C   0  0  0  0  0  2  0  0  0  0  0  0
   40.6130   23.6610   35.0060 C   0  0  0  0  0  2  0  0  0  0  0  0
   36.7560   21.9120   31.3010 C   0  0  0  0  0  0  0  0  0  0  0  0
   37.4370   21.1860   30.3110 F   0  0  0  0  0  0  0  0  0  0  0  0
   36.7500   21.3030   32.5040 F   0  0  0  0  0  0  0  0  0  0  0  0
   35.4800   22.1190   30.7880 F   0  0  0  0  0  0  0  0  0  0  0  0
  1  6  1  0  0  0  0
  2  3  1  0  0  0  0
  2  1  2  0  0  0  0
  3  4  2  0  0  0  0
  4  5  1  0  0  0  0
  5  7  1  0  0  0  0
  6  5  2  0  0  0  0
  7  8  1  0  0  0  0
  7 12  1  0  0  0  0
  8  9  1  0  0  0  0
  8 16  1  0  0  0  0
  9 17  1  0  0  0  0
  9 10  1  0  0  0  0
 10 11  1  0  0  0  0
 10 19  1  0  0  0  0
 11 21  1  0  0  0  0
 11 20  1  0  0  0  0
 12 22  1  6  0  0  0
 12 23  1  0  0  0  0
 12 11  1  0  0  0  0
 13  2  1  0  0  0  0
 14  3  1  0  0  0  0
 15  8  1  0  0  0  0
 18  9  1  0  0  0  0
 23 24  1  0  0  0  0
 24 25  1  0  0  0  0
 26 25  1  0  0  0  0
 26 27  1  0  0  0  0
 28 26  1  0  0  0  0
 29 23  1  0  0  0  0
 29 28  1  0  0  0  0
 30  1  1  0  0  0  0
 30 32  1  0  0  0  0
 31 30  1  0  0  0  0
 33 30  1  0  0  0  0
M  END
>  <minimizedAffinity>
-5.15747452

$$$$
