
 OpenBabel03272507123D

 38 42  0  0  0  0  0  0  0  0999 V2000
   35.8510   29.2290   49.7840 C   0  0  0  0  0  0  0  0  0  0  0  0
   34.8150   29.7390   50.4840 C   0  0  0  0  0  0  0  0  0  0  0  0
   33.6460   29.1520   49.9820 C   0  0  0  0  0  0  0  0  0  0  0  0
   34.0770   28.2830   48.9620 C   0  0  0  0  0  0  0  0  0  0  0  0
   35.3680   28.3840   48.9060 O   0  0  0  0  0  0  0  0  0  0  0  0
   34.8350   30.4700   51.2940 H   0  0  0  0  0  0  0  0  0  0  0  0
   32.6720   29.3850   50.3680 H   0  0  0  0  0  0  0  0  0  0  0  0
   33.5670   26.5400   47.2740 C   0  0  0  0  0  0  0  0  0  0  0  0
   33.1310   27.4840   48.1960 C   0  0  0  0  0  0  0  0  0  0  0  0
   31.7940   27.7000   48.4190 C   0  0  0  0  0  0  0  0  0  0  0  0
   30.8790   26.9590   47.7090 C   0  0  0  0  0  0  0  0  0  0  0  0
   29.5360   26.9580   47.7230 N   0  0  0  0  0  0  0  0  0  0  0  0
   29.1220   26.0430   46.8400 N   0  0  0  0  0  0  0  0  0  0  0  0
   30.1900   25.4690   46.2700 C   0  0  0  0  0  0  0  0  0  0  0  0
   31.3450   26.0300   46.8020 C   0  0  0  0  0  0  0  0  0  0  0  0
   32.6790   25.7900   46.5560 C   0  0  0  0  0  0  0  0  0  0  0  0
   34.6350   26.3900   47.1170 H   0  0  0  0  0  0  0  0  0  0  0  0
   31.3860   28.4290   49.1300 H   0  0  0  0  0  0  0  0  0  0  0  0
   28.9080   27.5540   48.3090 H   0  0  0  0  0  0  0  0  0  0  0  0
   30.1290   24.6900   45.5150 H   0  0  0  0  0  0  0  0  0  0  0  0
   32.9870   25.0460   45.8300 H   0  0  0  0  0  0  0  0  0  0  0  0
   37.2220   29.6180   50.0390 C   0  0  0  0  0  0  0  0  0  0  0  0
   37.9040   28.9490   50.8610 O   0  0  0  0  0  0  0  0  0  0  0  0
   37.7380   30.7600   49.3340 C   0  0  0  0  0  0  0  0  0  0  0  0
   37.5410   32.0110   49.9140 C   0  0  0  0  0  0  0  0  0  0  0  0
   38.0210   33.1450   49.2700 C   0  0  0  0  0  0  0  0  0  0  0  0
   38.6720   32.9440   48.0790 N   0  0  0  0  0  0  0  0  0  0  0  0
   38.8490   31.7450   47.5440 C   0  0  0  0  0  0  0  0  0  0  0  0
   38.3880   30.6590   48.1630 N   0  0  0  0  0  0  0  0  0  0  0  0
   37.0200   32.1480   50.8630 H   0  0  0  0  0  0  0  0  0  0  0  0
   37.8980   34.1400   49.6710 H   0  0  0  0  0  0  0  0  0  0  0  0
   39.5420   31.6700   46.3030 N   0  0  0  0  0  0  0  0  0  0  0  0
   40.2990   32.8190   45.8410 C   0  0  0  0  0  2  0  0  0  0  0  0
   39.5540   33.2490   44.5810 C   0  0  0  0  0  2  0  0  0  0  0  0
   39.7210   32.1890   43.5560 C   0  0  0  0  0  3  0  0  0  0  0  0
   38.9240   32.3880   42.7780 H   0  0  0  0  0  0  0  0  0  0  0  0
   39.7150   30.7830   44.0070 C   0  0  0  0  0  3  0  0  0  0  0  0
   39.5460   30.5120   45.4500 C   0  0  0  0  0  3  0  0  0  0  0  0
  1 22  1  0  0  0  0
  1  2  2  0  0  0  0
  2  6  1  0  0  0  0
  3  7  1  0  0  0  0
  3  2  1  0  0  0  0
  4  3  2  0  0  0  0
  5  4  1  0  0  0  0
  5  1  1  0  0  0  0
  8  9  1  0  0  0  0
  9 10  2  0  0  0  0
  9  4  1  0  0  0  0
 10 18  1  0  0  0  0
 11 12  1  0  0  0  0
 11 10  1  0  0  0  0
 12 19  1  0  0  0  0
 13 12  1  0  0  0  0
 14 15  1  0  0  0  0
 14 13  2  0  0  0  0
 15 11  2  0  0  0  0
 16 15  1  0  0  0  0
 16  8  2  0  0  0  0
 17  8  1  0  0  0  0
 20 14  1  0  0  0  0
 21 16  1  0  0  0  0
 22 23  2  0  0  0  0
 24 25  1  0  0  0  0
 24 22  1  0  0  0  0
 25 30  1  0  0  0  0
 26 31  1  0  0  0  0
 26 25  2  0  0  0  0
 27 26  1  0  0  0  0
 28 27  2  0  0  0  0
 28 29  1  0  0  0  0
 29 24  2  0  0  0  0
 32 28  1  0  0  0  0
 33 32  1  0  0  0  0
 34 33  1  0  0  0  0
 35 37  1  0  0  0  0
 35 34  1  0  0  0  0
 36 35  1  0  0  0  0
 37 38  2  0  0  0  0
 38 32  1  0  0  0  0
M  END
>  <minimizedAffinity>
-7.45484114

>  <minimizedRMSD>
0.734119475

$$$$
