
 OpenBabel03272503033D

 26 28  0  0  0  0  0  0  0  0999 V2000
   37.6510   23.6460   33.2630 F   0  0  0  0  0  0  0  0  0  0  0  0
   36.8130   24.3510   32.4600 C   0  0  0  0  0  0  0  0  0  0  0  0
   35.9820   23.6960   31.6190 C   0  0  0  0  0  0  0  0  0  0  0  0
   35.1520   24.4570   30.8250 C   0  0  0  0  0  0  0  0  0  0  0  0
   35.1730   25.8480   30.8920 C   0  0  0  0  0  0  0  0  0  0  0  0
   36.0290   26.4790   31.7570 C   0  0  0  0  0  0  0  0  0  0  0  0
   36.8560   25.7250   32.5480 C   0  0  0  0  0  0  0  0  0  0  0  0
   34.4810   23.9480   30.1450 H   0  0  0  0  0  0  0  0  0  0  0  0
   34.4920   26.4000   30.2390 H   0  0  0  0  0  0  0  0  0  0  0  0
   36.0270   27.5730   31.7920 H   0  0  0  0  0  0  0  0  0  0  0  0
   35.1440   20.0500   32.2450 C   0  0  0  0  0  0  0  0  0  0  0  0
   35.0910   21.4460   32.2840 C   0  0  0  0  0  0  0  0  0  0  0  0
   36.0100   22.2300   31.5980 C   0  0  0  0  0  0  0  0  0  0  0  0
   36.9690   21.5670   30.8830 N   0  0  0  0  0  0  0  0  0  0  0  0
   36.9930   20.2180   30.8650 C   0  0  0  0  0  0  0  0  0  0  0  0
   36.1110   19.4720   31.5230 N   0  0  0  0  0  0  0  0  0  0  0  0
   34.3410   19.6330   32.8450 H   0  0  0  0  0  0  0  0  0  0  0  0
   34.3620   22.0390   32.8280 H   0  0  0  0  0  0  0  0  0  0  0  0
   37.7500   19.6860   30.3000 H   0  0  0  0  0  0  0  0  0  0  0  0
   37.7450   26.3850   33.4480 N   0  0  0  0  0  0  0  0  0  0  0  0
   38.9450   27.0290   32.9630 C   0  0  0  0  0  2  0  0  0  0  0  0
   40.1460   26.7200   33.8230 C   0  0  0  0  0  2  0  0  0  0  0  0
   39.8370   26.8340   35.2970 C   0  0  0  0  0  3  0  0  0  0  0  0
   39.8640   25.8570   35.8260 H   0  0  0  0  0  0  0  0  0  0  0  0
   38.4330   27.3920   35.5200 C   0  0  0  0  0  2  0  0  0  0  0  0
   37.4760   26.4300   34.8600 C   0  0  0  0  0  2  0  0  0  0  0  0
  2  7  1  0  0  0  0
  2  1  1  0  0  0  0
  3  2  2  0  0  0  0
  4  5  2  0  0  0  0
  4  3  1  0  0  0  0
  5  6  1  0  0  0  0
  6 10  1  0  0  0  0
  6  7  2  0  0  0  0
  7 20  1  0  0  0  0
  8  4  1  0  0  0  0
  9  5  1  0  0  0  0
 11 12  1  0  0  0  0
 11 17  1  0  0  0  0
 12 18  1  0  0  0  0
 13  3  1  0  0  0  0
 13 12  2  0  0  0  0
 14 13  1  0  0  0  0
 15 14  2  0  0  0  0
 15 16  1  0  0  0  0
 16 11  2  0  0  0  0
 19 15  1  0  0  0  0
 20 26  1  0  0  0  0
 21 20  1  0  0  0  0
 21 22  1  0  0  0  0
 22 23  1  0  0  0  0
 23 25  1  0  0  0  0
 23 24  1  0  0  0  0
 26 25  1  0  0  0  0
M  END
>  <minimizedAffinity>
-5.37725782

$$$$

 OpenBabel03272503033D

 26 28  0  0  0  0  0  0  0  0999 V2000
   37.3500   21.5350   34.5460 F   0  0  0  0  0  0  0  0  0  0  0  0
   37.6540   22.6740   33.8710 C   0  0  0  0  0  0  0  0  0  0  0  0
   38.2310   23.7070   34.5250 C   0  0  0  0  0  0  0  0  0  0  0  0
   38.5190   24.8390   33.7950 C   0  0  0  0  0  0  0  0  0  0  0  0
   38.2250   24.9110   32.4360 C   0  0  0  0  0  0  0  0  0  0  0  0
   37.6390   23.8440   31.8050 C   0  0  0  0  0  0  0  0  0  0  0  0
   37.3510   22.7150   32.5280 C   0  0  0  0  0  0  0  0  0  0  0  0
   38.9810   25.6760   34.3040 H   0  0  0  0  0  0  0  0  0  0  0  0
   38.4760   25.8350   31.9080 H   0  0  0  0  0  0  0  0  0  0  0  0
   37.4180   23.9230   30.7360 H   0  0  0  0  0  0  0  0  0  0  0  0
   37.9810   23.9300   38.3030 C   0  0  0  0  0  0  0  0  0  0  0  0
   37.6840   24.0800   36.9460 C   0  0  0  0  0  0  0  0  0  0  0  0
   38.5140   23.5660   35.9570 C   0  0  0  0  0  0  0  0  0  0  0  0
   39.6350   22.9060   36.3790 N   0  0  0  0  0  0  0  0  0  0  0  0
   39.8940   22.7770   37.6970 C   0  0  0  0  0  0  0  0  0  0  0  0
   39.0960   23.2710   38.6400 N   0  0  0  0  0  0  0  0  0  0  0  0
   37.2100   24.4010   38.9040 H   0  0  0  0  0  0  0  0  0  0  0  0
   36.8160   24.5890   36.5380 H   0  0  0  0  0  0  0  0  0  0  0  0
   40.7800   22.2560   38.0380 H   0  0  0  0  0  0  0  0  0  0  0  0
   36.7420   21.6070   31.8680 N   0  0  0  0  0  0  0  0  0  0  0  0
   35.3130   21.4000   31.9350 C   0  0  0  0  0  2  0  0  0  0  0  0
   34.9570   19.9590   32.2030 C   0  0  0  0  0  2  0  0  0  0  0  0
   35.7640   19.0030   31.3570 C   0  0  0  0  0  3  0  0  0  0  0  0
   36.4770   18.3900   31.9490 H   0  0  0  0  0  0  0  0  0  0  0  0
   36.6100   19.7590   30.3350 C   0  0  0  0  0  2  0  0  0  0  0  0
   37.5290   20.6630   31.1190 C   0  0  0  0  0  2  0  0  0  0  0  0
  2  3  1  0  0  0  0
  2  1  1  0  0  0  0
  3 13  1  0  0  0  0
  4  8  1  0  0  0  0
  4  3  2  0  0  0  0
  5  4  1  0  0  0  0
  6  5  2  0  0  0  0
  6  7  1  0  0  0  0
  7  2  2  0  0  0  0
  9  5  1  0  0  0  0
 10  6  1  0  0  0  0
 11 16  1  0  0  0  0
 11 17  1  0  0  0  0
 12 11  2  0  0  0  0
 13 14  2  0  0  0  0
 13 12  1  0  0  0  0
 14 15  1  0  0  0  0
 15 19  1  0  0  0  0
 15 16  2  0  0  0  0
 18 12  1  0  0  0  0
 20 21  1  0  0  0  0
 20  7  1  0  0  0  0
 21 22  1  0  0  0  0
 23 24  1  0  0  0  0
 23 22  1  0  0  0  0
 25 26  1  0  0  0  0
 25 23  1  0  0  0  0
 26 20  1  0  0  0  0
M  END
>  <minimizedAffinity>
-5.03430796

$$$$

 OpenBabel03272503033D

 26 28  0  0  0  0  0  0  0  0999 V2000
   37.6260   23.2770   33.3930 F   0  0  0  0  0  0  0  0  0  0  0  0
   36.8650   24.0400   32.5660 C   0  0  0  0  0  0  0  0  0  0  0  0
   36.9320   25.3880   32.6480 C   0  0  0  0  0  0  0  0  0  0  0  0
   36.1390   26.1170   31.7890 C   0  0  0  0  0  0  0  0  0  0  0  0
   35.3040   25.4830   30.8720 C   0  0  0  0  0  0  0  0  0  0  0  0
   35.2610   24.1140   30.8170 C   0  0  0  0  0  0  0  0  0  0  0  0
   36.0480   23.3860   31.6710 C   0  0  0  0  0  0  0  0  0  0  0  0
   36.1810   27.1980   31.8410 H   0  0  0  0  0  0  0  0  0  0  0  0
   34.6970   26.1120   30.2150 H   0  0  0  0  0  0  0  0  0  0  0  0
   34.5970   23.6380   30.0890 H   0  0  0  0  0  0  0  0  0  0  0  0
   39.9570   26.9810   34.2900 C   0  0  0  0  0  0  0  0  0  0  0  0
   39.1220   26.4090   33.3260 C   0  0  0  0  0  0  0  0  0  0  0  0
   37.8330   25.9920   33.6350 C   0  0  0  0  0  0  0  0  0  0  0  0
   37.4230   26.1700   34.9270 N   0  0  0  0  0  0  0  0  0  0  0  0
   38.2530   26.7250   35.8340 C   0  0  0  0  0  0  0  0  0  0  0  0
   39.4860   27.1230   35.5350 N   0  0  0  0  0  0  0  0  0  0  0  0
   40.9140   27.2350   33.8450 H   0  0  0  0  0  0  0  0  0  0  0  0
   39.3770   26.2380   32.2860 H   0  0  0  0  0  0  0  0  0  0  0  0
   37.9350   26.8690   36.8600 H   0  0  0  0  0  0  0  0  0  0  0  0
   36.0020   21.9610   31.6110 N   0  0  0  0  0  0  0  0  0  0  0  0
   34.9810   21.2230   32.3210 C   0  0  0  0  0  2  0  0  0  0  0  0
   35.5440   20.0250   33.0450 C   0  0  0  0  0  2  0  0  0  0  0  0
   36.5070   19.2390   32.1880 C   0  0  0  0  0  3  0  0  0  0  0  0
   37.5570   19.2910   32.5490 H   0  0  0  0  0  0  0  0  0  0  0  0
   36.5300   19.7760   30.7580 C   0  0  0  0  0  2  0  0  0  0  0  0
   36.9660   21.2170   30.8450 C   0  0  0  0  0  2  0  0  0  0  0  0
  2  3  1  0  0  0  0
  2  1  1  0  0  0  0
  3 13  1  0  0  0  0
  4  8  1  0  0  0  0
  4  3  2  0  0  0  0
  5  4  1  0  0  0  0
  6  5  2  0  0  0  0
  6  7  1  0  0  0  0
  7  2  2  0  0  0  0
  9  5  1  0  0  0  0
 10  6  1  0  0  0  0
 11 16  1  0  0  0  0
 12 13  1  0  0  0  0
 12 11  2  0  0  0  0
 13 14  2  0  0  0  0
 14 15  1  0  0  0  0
 15 19  1  0  0  0  0
 16 15  2  0  0  0  0
 17 11  1  0  0  0  0
 18 12  1  0  0  0  0
 20  7  1  0  0  0  0
 20 21  1  0  0  0  0
 21 22  1  0  0  0  0
 23 24  1  0  0  0  0
 23 22  1  0  0  0  0
 25 26  1  0  0  0  0
 25 23  1  0  0  0  0
 26 20  1  0  0  0  0
M  END
>  <minimizedAffinity>
-5.0077734

$$$$

 OpenBabel03272503033D

 26 28  0  0  0  0  0  0  0  0999 V2000
   37.4170   21.3930   35.0010 F   0  0  0  0  0  0  0  0  0  0  0  0
   37.6120   22.3740   34.0810 C   0  0  0  0  0  0  0  0  0  0  0  0
   37.2830   22.1540   32.7880 C   0  0  0  0  0  0  0  0  0  0  0  0
   37.5000   23.1810   31.8950 C   0  0  0  0  0  0  0  0  0  0  0  0
   38.0370   24.3950   32.3150 C   0  0  0  0  0  0  0  0  0  0  0  0
   38.3590   24.5830   33.6340 C   0  0  0  0  0  0  0  0  0  0  0  0
   38.1440   23.5640   34.5260 C   0  0  0  0  0  0  0  0  0  0  0  0
   37.2430   23.0210   30.8550 H   0  0  0  0  0  0  0  0  0  0  0  0
   38.1870   25.1740   31.5620 H   0  0  0  0  0  0  0  0  0  0  0  0
   38.7790   25.5460   33.9400 H   0  0  0  0  0  0  0  0  0  0  0  0
   34.8520   19.3420   32.0360 C   0  0  0  0  0  0  0  0  0  0  0  0
   35.3570   20.5940   32.3980 C   0  0  0  0  0  0  0  0  0  0  0  0
   36.7220   20.8530   32.4130 C   0  0  0  0  0  0  0  0  0  0  0  0
   37.5450   19.8220   32.0560 N   0  0  0  0  0  0  0  0  0  0  0  0
   37.0280   18.6250   31.7110 C   0  0  0  0  0  0  0  0  0  0  0  0
   35.7200   18.3820   31.6980 N   0  0  0  0  0  0  0  0  0  0  0  0
   33.7680   19.3510   32.0910 H   0  0  0  0  0  0  0  0  0  0  0  0
   34.7660   21.4560   32.6920 H   0  0  0  0  0  0  0  0  0  0  0  0
   37.6750   17.8030   31.4260 H   0  0  0  0  0  0  0  0  0  0  0  0
   38.4790   23.7620   35.8980 N   0  0  0  0  0  0  0  0  0  0  0  0
   39.8330   23.5640   36.3650 C   0  0  0  0  0  2  0  0  0  0  0  0
   39.8820   22.7890   37.6580 C   0  0  0  0  0  2  0  0  0  0  0  0
   38.8610   23.2780   38.6580 C   0  0  0  0  0  3  0  0  0  0  0  0
   38.0540   22.5400   38.8560 H   0  0  0  0  0  0  0  0  0  0  0  0
   38.1610   24.5380   38.1520 C   0  0  0  0  0  2  0  0  0  0  0  0
   37.4840   24.1640   36.8560 C   0  0  0  0  0  2  0  0  0  0  0  0
  2  7  1  0  0  0  0
  2  1  1  0  0  0  0
  3  2  2  0  0  0  0
  4  5  2  0  0  0  0
  4  3  1  0  0  0  0
  5  6  1  0  0  0  0
  6 10  1  0  0  0  0
  6  7  2  0  0  0  0
  7 20  1  0  0  0  0
  8  4  1  0  0  0  0
  9  5  1  0  0  0  0
 11 17  1  0  0  0  0
 11 12  1  0  0  0  0
 12 13  2  0  0  0  0
 12 18  1  0  0  0  0
 13  3  1  0  0  0  0
 14 13  1  0  0  0  0
 15 14  2  0  0  0  0
 16 15  1  0  0  0  0
 16 11  2  0  0  0  0
 19 15  1  0  0  0  0
 20 21  1  0  0  0  0
 20 26  1  0  0  0  0
 21 22  1  0  0  0  0
 22 23  1  0  0  0  0
 23 24  1  0  0  0  0
 25 23  1  0  0  0  0
 26 25  1  0  0  0  0
M  END
>  <minimizedAffinity>
-4.92632675

$$$$

 OpenBabel03272503033D

 26 28  0  0  0  0  0  0  0  0999 V2000
   37.0140   28.4970   35.4190 F   0  0  0  0  0  0  0  0  0  0  0  0
   36.6680   28.3150   34.1180 C   0  0  0  0  0  0  0  0  0  0  0  0
   37.2840   27.3570   33.3890 C   0  0  0  0  0  0  0  0  0  0  0  0
   36.8970   27.2130   32.0750 C   0  0  0  0  0  0  0  0  0  0  0  0
   35.9090   28.0260   31.5240 C   0  0  0  0  0  0  0  0  0  0  0  0
   35.3060   28.9870   32.2930 C   0  0  0  0  0  0  0  0  0  0  0  0
   35.6880   29.1330   33.6020 C   0  0  0  0  0  0  0  0  0  0  0  0
   37.3810   26.4510   31.4760 H   0  0  0  0  0  0  0  0  0  0  0  0
   35.6430   27.8660   30.4760 H   0  0  0  0  0  0  0  0  0  0  0  0
   34.5320   29.6130   31.8390 H   0  0  0  0  0  0  0  0  0  0  0  0
   40.6120   26.1100   34.7130 C   0  0  0  0  0  0  0  0  0  0  0  0
   39.6510   26.9150   34.0950 C   0  0  0  0  0  0  0  0  0  0  0  0
   38.3150   26.5360   34.0300 C   0  0  0  0  0  0  0  0  0  0  0  0
   37.9900   25.3370   34.6010 N   0  0  0  0  0  0  0  0  0  0  0  0
   38.9400   24.5830   35.1900 C   0  0  0  0  0  0  0  0  0  0  0  0
   40.2170   24.9500   35.2500 N   0  0  0  0  0  0  0  0  0  0  0  0
   41.5850   26.5860   34.6540 H   0  0  0  0  0  0  0  0  0  0  0  0
   39.8340   27.8750   33.6230 H   0  0  0  0  0  0  0  0  0  0  0  0
   38.6890   23.6320   35.6440 H   0  0  0  0  0  0  0  0  0  0  0  0
   35.0580   30.1350   34.3990 N   0  0  0  0  0  0  0  0  0  0  0  0
   35.7200   31.3920   34.6680 C   0  0  0  0  0  2  0  0  0  0  0  0
   35.6030   31.8000   36.1150 C   0  0  0  0  0  2  0  0  0  0  0  0
   34.2020   31.6190   36.6490 C   0  0  0  0  0  3  0  0  0  0  0  0
   34.1260   30.8160   37.4150 H   0  0  0  0  0  0  0  0  0  0  0  0
   33.2380   31.2240   35.5320 C   0  0  0  0  0  2  0  0  0  0  0  0
   33.7500   29.9250   34.9600 C   0  0  0  0  0  2  0  0  0  0  0  0
  2  1  1  0  0  0  0
  3 13  1  0  0  0  0
  3  2  2  0  0  0  0
  4  3  1  0  0  0  0
  5  4  2  0  0  0  0
  5  6  1  0  0  0  0
  6  7  2  0  0  0  0
  7  2  1  0  0  0  0
  7 20  1  0  0  0  0
  8  4  1  0  0  0  0
  9  5  1  0  0  0  0
 10  6  1  0  0  0  0
 11 16  1  0  0  0  0
 12 11  2  0  0  0  0
 13 12  1  0  0  0  0
 13 14  2  0  0  0  0
 14 15  1  0  0  0  0
 15 16  2  0  0  0  0
 15 19  1  0  0  0  0
 17 11  1  0  0  0  0
 18 12  1  0  0  0  0
 20 21  1  0  0  0  0
 20 26  1  0  0  0  0
 21 22  1  0  0  0  0
 22 23  1  0  0  0  0
 23 24  1  0  0  0  0
 25 23  1  0  0  0  0
 26 25  1  0  0  0  0
M  END
>  <minimizedAffinity>
-4.88461018

$$$$

 OpenBabel03272503033D

 26 28  0  0  0  0  0  0  0  0999 V2000
   35.6050   28.3390   34.2990 F   0  0  0  0  0  0  0  0  0  0  0  0
   35.8550   29.2190   33.2950 C   0  0  0  0  0  0  0  0  0  0  0  0
   35.5490   30.5260   33.4590 C   0  0  0  0  0  0  0  0  0  0  0  0
   35.8220   31.3780   32.4110 C   0  0  0  0  0  0  0  0  0  0  0  0
   36.3920   30.9050   31.2310 C   0  0  0  0  0  0  0  0  0  0  0  0
   36.6880   29.5730   31.1000 C   0  0  0  0  0  0  0  0  0  0  0  0
   36.4180   28.7220   32.1400 C   0  0  0  0  0  0  0  0  0  0  0  0
   35.5840   32.4280   32.5250 H   0  0  0  0  0  0  0  0  0  0  0  0
   36.5860   31.6270   30.4330 H   0  0  0  0  0  0  0  0  0  0  0  0
   37.1350   29.2250   30.1640 H   0  0  0  0  0  0  0  0  0  0  0  0
   35.0590   32.0650   36.8910 C   0  0  0  0  0  0  0  0  0  0  0  0
   35.6570   31.6670   35.6920 C   0  0  0  0  0  0  0  0  0  0  0  0
   34.9520   30.9590   34.7260 C   0  0  0  0  0  0  0  0  0  0  0  0
   33.6450   30.6720   35.0070 N   0  0  0  0  0  0  0  0  0  0  0  0
   33.0970   31.0710   36.1740 C   0  0  0  0  0  0  0  0  0  0  0  0
   33.7750   31.7480   37.0950 N   0  0  0  0  0  0  0  0  0  0  0  0
   35.7780   32.6010   37.5010 H   0  0  0  0  0  0  0  0  0  0  0  0
   36.6850   31.8580   35.4000 H   0  0  0  0  0  0  0  0  0  0  0  0
   32.0610   30.8470   36.4030 H   0  0  0  0  0  0  0  0  0  0  0  0
   36.7280   27.3370   32.0010 N   0  0  0  0  0  0  0  0  0  0  0  0
   37.9820   26.8060   32.4870 C   0  0  0  0  0  2  0  0  0  0  0  0
   38.6260   25.8680   31.4970 C   0  0  0  0  0  2  0  0  0  0  0  0
   37.6370   24.8940   30.9050 C   0  0  0  0  0  3  0  0  0  0  0  0
   37.4480   25.0650   29.8230 H   0  0  0  0  0  0  0  0  0  0  0  0
   36.2770   25.0110   31.5900 C   0  0  0  0  0  2  0  0  0  0  0  0
   35.8050   26.4280   31.3740 C   0  0  0  0  0  2  0  0  0  0  0  0
  2  3  1  0  0  0  0
  2  1  1  0  0  0  0
  3 13  1  0  0  0  0
  4  8  1  0  0  0  0
  4  3  2  0  0  0  0
  5  4  1  0  0  0  0
  6  5  2  0  0  0  0
  6  7  1  0  0  0  0
  7  2  2  0  0  0  0
  9  5  1  0  0  0  0
 10  6  1  0  0  0  0
 11 16  1  0  0  0  0
 11 17  1  0  0  0  0
 12 11  2  0  0  0  0
 13 14  2  0  0  0  0
 13 12  1  0  0  0  0
 14 15  1  0  0  0  0
 15 19  1  0  0  0  0
 15 16  2  0  0  0  0
 18 12  1  0  0  0  0
 20  7  1  0  0  0  0
 20 21  1  0  0  0  0
 22 21  1  0  0  0  0
 23 22  1  0  0  0  0
 23 25  1  0  0  0  0
 24 23  1  0  0  0  0
 26 25  1  0  0  0  0
 26 20  1  0  0  0  0
M  END
>  <minimizedAffinity>
-4.78039312

$$$$

 OpenBabel03272503033D

 26 28  0  0  0  0  0  0  0  0999 V2000
   38.4250   25.2800   34.2500 F   0  0  0  0  0  0  0  0  0  0  0  0
   37.9150   24.1570   33.6810 C   0  0  0  0  0  0  0  0  0  0  0  0
   37.9340   22.9920   34.3660 C   0  0  0  0  0  0  0  0  0  0  0  0
   37.4050   21.8820   33.7440 C   0  0  0  0  0  0  0  0  0  0  0  0
   36.8710   21.9640   32.4610 C   0  0  0  0  0  0  0  0  0  0  0  0
   36.8680   23.1630   31.7960 C   0  0  0  0  0  0  0  0  0  0  0  0
   37.3940   24.2700   32.4110 C   0  0  0  0  0  0  0  0  0  0  0  0
   37.4130   20.9400   34.2790 H   0  0  0  0  0  0  0  0  0  0  0  0
   36.4650   21.0510   32.0180 H   0  0  0  0  0  0  0  0  0  0  0  0
   36.4430   23.2040   30.7890 H   0  0  0  0  0  0  0  0  0  0  0  0
   40.3090   22.4890   37.2800 C   0  0  0  0  0  0  0  0  0  0  0  0
   39.7870   22.4930   35.9830 C   0  0  0  0  0  0  0  0  0  0  0  0
   38.5110   22.9740   35.7140 C   0  0  0  0  0  0  0  0  0  0  0  0
   37.7940   23.4420   36.7790 N   0  0  0  0  0  0  0  0  0  0  0  0
   38.3260   23.4250   38.0190 C   0  0  0  0  0  0  0  0  0  0  0  0
   39.5480   22.9640   38.2720 N   0  0  0  0  0  0  0  0  0  0  0  0
   41.3120   22.0750   37.2730 H   0  0  0  0  0  0  0  0  0  0  0  0
   40.2950   22.1390   35.0920 H   0  0  0  0  0  0  0  0  0  0  0  0
   37.7630   23.7950   38.8670 H   0  0  0  0  0  0  0  0  0  0  0  0
   37.3890   25.5160   31.7170 N   0  0  0  0  0  0  0  0  0  0  0  0
   38.5470   25.9510   30.9690 C   0  0  0  0  0  2  0  0  0  0  0  0
   38.8720   27.4040   31.2160 C   0  0  0  0  0  2  0  0  0  0  0  0
   37.6420   28.2800   31.1750 C   0  0  0  0  0  3  0  0  0  0  0  0
   37.3810   28.7140   32.1650 H   0  0  0  0  0  0  0  0  0  0  0  0
   36.4170   27.4830   30.7310 C   0  0  0  0  0  2  0  0  0  0  0  0
   36.2350   26.3750   31.7400 C   0  0  0  0  0  2  0  0  0  0  0  0
  2  1  1  0  0  0  0
  2  3  1  0  0  0  0
  3 13  1  0  0  0  0
  4  8  1  0  0  0  0
  4  3  2  0  0  0  0
  5  4  1  0  0  0  0
  6  7  1  0  0  0  0
  6  5  2  0  0  0  0
  7  2  2  0  0  0  0
  9  5  1  0  0  0  0
 10  6  1  0  0  0  0
 11 16  1  0  0  0  0
 12 11  2  0  0  0  0
 13 12  1  0  0  0  0
 13 14  2  0  0  0  0
 14 15  1  0  0  0  0
 15 16  2  0  0  0  0
 15 19  1  0  0  0  0
 17 11  1  0  0  0  0
 18 12  1  0  0  0  0
 20 26  1  0  0  0  0
 20  7  1  0  0  0  0
 21 22  1  0  0  0  0
 21 20  1  0  0  0  0
 23 22  1  0  0  0  0
 23 24  1  0  0  0  0
 25 23  1  0  0  0  0
 25 26  1  0  0  0  0
M  END
>  <minimizedAffinity>
-4.72812891

$$$$

 OpenBabel03272503033D

 26 28  0  0  0  0  0  0  0  0999 V2000
   35.3340   28.6070   33.9510 F   0  0  0  0  0  0  0  0  0  0  0  0
   35.6930   29.2670   32.8190 C   0  0  0  0  0  0  0  0  0  0  0  0
   36.1760   28.5720   31.7640 C   0  0  0  0  0  0  0  0  0  0  0  0
   36.5260   29.2880   30.6400 C   0  0  0  0  0  0  0  0  0  0  0  0
   36.3830   30.6730   30.5970 C   0  0  0  0  0  0  0  0  0  0  0  0
   35.8900   31.3440   31.6860 C   0  0  0  0  0  0  0  0  0  0  0  0
   35.5410   30.6350   32.8060 C   0  0  0  0  0  0  0  0  0  0  0  0
   36.9150   28.7470   29.7860 H   0  0  0  0  0  0  0  0  0  0  0  0
   36.6770   31.1880   29.6790 H   0  0  0  0  0  0  0  0  0  0  0  0
   35.7860   32.4320   31.6290 H   0  0  0  0  0  0  0  0  0  0  0  0
   35.6330   24.8480   31.2980 C   0  0  0  0  0  0  0  0  0  0  0  0
   35.4900   26.2330   31.1710 C   0  0  0  0  0  0  0  0  0  0  0  0
   36.3010   27.1160   31.8740 C   0  0  0  0  0  0  0  0  0  0  0  0
   37.2450   26.5620   32.6940 N   0  0  0  0  0  0  0  0  0  0  0  0
   37.3580   25.2220   32.7940 C   0  0  0  0  0  0  0  0  0  0  0  0
   36.5800   24.3800   32.1200 N   0  0  0  0  0  0  0  0  0  0  0  0
   34.9070   24.3430   30.6690 H   0  0  0  0  0  0  0  0  0  0  0  0
   34.7670   26.7420   30.5430 H   0  0  0  0  0  0  0  0  0  0  0  0
   38.1040   24.7770   33.4420 H   0  0  0  0  0  0  0  0  0  0  0  0
   35.0270   31.3370   33.9380 N   0  0  0  0  0  0  0  0  0  0  0  0
   35.9170   31.9910   34.8690 C   0  0  0  0  0  2  0  0  0  0  0  0
   35.5330   31.7300   36.3050 C   0  0  0  0  0  2  0  0  0  0  0  0
   34.0480   31.8760   36.5350 C   0  0  0  0  0  3  0  0  0  0  0  0
   33.5450   30.9140   36.7750 H   0  0  0  0  0  0  0  0  0  0  0  0
   33.3510   32.4120   35.2860 C   0  0  0  0  0  2  0  0  0  0  0  0
   33.6120   31.4140   34.1850 C   0  0  0  0  0  2  0  0  0  0  0  0
  2  1  1  0  0  0  0
  3 13  1  0  0  0  0
  3  2  2  0  0  0  0
  4  3  1  0  0  0  0
  5  4  2  0  0  0  0
  5  6  1  0  0  0  0
  6  7  2  0  0  0  0
  7  2  1  0  0  0  0
  7 20  1  0  0  0  0
  8  4  1  0  0  0  0
  9  5  1  0  0  0  0
 10  6  1  0  0  0  0
 11 16  1  0  0  0  0
 12 11  2  0  0  0  0
 12 13  1  0  0  0  0
 13 14  2  0  0  0  0
 14 15  1  0  0  0  0
 15 19  1  0  0  0  0
 16 15  2  0  0  0  0
 17 11  1  0  0  0  0
 18 12  1  0  0  0  0
 20 26  1  0  0  0  0
 20 21  1  0  0  0  0
 21 22  1  0  0  0  0
 22 23  1  0  0  0  0
 23 24  1  0  0  0  0
 25 23  1  0  0  0  0
 26 25  1  0  0  0  0
M  END
>  <minimizedAffinity>
-4.71518326

$$$$

 OpenBabel03272503033D

 26 28  0  0  0  0  0  0  0  0999 V2000
   37.2120   25.6880   33.9330 F   0  0  0  0  0  0  0  0  0  0  0  0
   38.5250   26.0310   33.9630 C   0  0  0  0  0  0  0  0  0  0  0  0
   38.9870   26.9870   33.1250 C   0  0  0  0  0  0  0  0  0  0  0  0
   40.3280   27.2980   33.1940 C   0  0  0  0  0  0  0  0  0  0  0  0
   41.1690   26.6500   34.0950 C   0  0  0  0  0  0  0  0  0  0  0  0
   40.6660   25.6860   34.9290 C   0  0  0  0  0  0  0  0  0  0  0  0
   39.3330   25.3730   34.8640 C   0  0  0  0  0  0  0  0  0  0  0  0
   40.7140   28.0610   32.5290 H   0  0  0  0  0  0  0  0  0  0  0  0
   42.2240   26.9380   34.1050 H   0  0  0  0  0  0  0  0  0  0  0  0
   41.3470   25.1900   35.6290 H   0  0  0  0  0  0  0  0  0  0  0  0
   37.2780   28.2030   29.9650 C   0  0  0  0  0  0  0  0  0  0  0  0
   38.1910   27.5790   30.8200 C   0  0  0  0  0  0  0  0  0  0  0  0
   38.0480   27.6300   32.2010 C   0  0  0  0  0  0  0  0  0  0  0  0
   36.9690   28.3200   32.6800 N   0  0  0  0  0  0  0  0  0  0  0  0
   36.1060   28.9110   31.8290 C   0  0  0  0  0  0  0  0  0  0  0  0
   36.2470   28.8600   30.5080 N   0  0  0  0  0  0  0  0  0  0  0  0
   37.5710   28.0430   28.9320 H   0  0  0  0  0  0  0  0  0  0  0  0
   39.0660   27.0150   30.5130 H   0  0  0  0  0  0  0  0  0  0  0  0
   35.2490   29.4600   32.2020 H   0  0  0  0  0  0  0  0  0  0  0  0
   38.8130   24.3700   35.7340 N   0  0  0  0  0  0  0  0  0  0  0  0
   38.9870   22.9670   35.4330 C   0  0  0  0  0  2  0  0  0  0  0  0
   37.7200   22.1760   35.6460 C   0  0  0  0  0  2  0  0  0  0  0  0
   37.0340   22.5340   36.9420 C   0  0  0  0  0  3  0  0  0  0  0  0
   36.0620   23.0540   36.7940 H   0  0  0  0  0  0  0  0  0  0  0  0
   37.8940   23.4850   37.7720 C   0  0  0  0  0  2  0  0  0  0  0  0
   38.1010   24.7220   36.9340 C   0  0  0  0  0  2  0  0  0  0  0  0
  1  2  1  0  0  0  0
  2  7  1  0  0  0  0
  3  4  1  0  0  0  0
  3  2  2  0  0  0  0
  4  5  2  0  0  0  0
  5  9  1  0  0  0  0
  5  6  1  0  0  0  0
  6 10  1  0  0  0  0
  7  6  2  0  0  0  0
  7 20  1  0  0  0  0
  8  4  1  0  0  0  0
 11 16  2  0  0  0  0
 11 12  1  0  0  0  0
 12 13  2  0  0  0  0
 13 14  1  0  0  0  0
 13  3  1  0  0  0  0
 15 19  1  0  0  0  0
 15 14  2  0  0  0  0
 16 15  1  0  0  0  0
 17 11  1  0  0  0  0
 18 12  1  0  0  0  0
 20 26  1  0  0  0  0
 21 22  1  0  0  0  0
 21 20  1  0  0  0  0
 22 23  1  0  0  0  0
 23 25  1  0  0  0  0
 24 23  1  0  0  0  0
 26 25  1  0  0  0  0
M  END
>  <minimizedAffinity>
-4.70586872

$$$$
