
 OpenBabel03272502543D

 40 43  0  0  0  0  0  0  0  0999 V2000
   36.9070   30.8410   49.3590 C   0  0  0  0  0  0  0  0  0  0  0  0
   37.0130   30.5260   50.7170 C   0  0  0  0  0  0  0  0  0  0  0  0
   36.1400   29.6220   51.2990 C   0  0  0  0  0  0  0  0  0  0  0  0
   35.1840   29.0680   50.4640 C   0  0  0  0  0  0  0  0  0  0  0  0
   35.0770   29.3790   49.1130 C   0  0  0  0  0  0  0  0  0  0  0  0
   35.9550   30.2670   48.6050 N   0  0  0  0  0  0  0  0  0  0  0  0
   34.0670   28.7550   48.3630 N   0  0  0  0  0  0  0  0  0  0  0  0
   33.0140   28.0570   49.0510 C   0  0  0  0  0  0  0  0  0  0  0  0
   32.1440   27.3960   48.0150 C   0  0  0  0  0  0  0  0  0  0  0  0
   31.5960   28.4270   47.0510 C   0  0  0  0  0  0  0  0  0  0  0  0
   32.6780   29.2830   46.4750 C   0  0  0  0  0  0  0  0  0  0  0  0
   34.0190   28.7690   46.9100 C   0  0  0  0  0  0  0  0  0  0  0  0
   37.7810   30.9890   51.3240 H   0  0  0  0  0  0  0  0  0  0  0  0
   36.2450   29.4010   52.3350 H   0  0  0  0  0  0  0  0  0  0  0  0
   34.5360   28.3650   51.0020 H   0  0  0  0  0  0  0  0  0  0  0  0
   32.3830   28.7480   49.6590 H   0  0  0  0  0  0  0  0  0  0  0  0
   33.4140   27.2600   49.7140 H   0  0  0  0  0  0  0  0  0  0  0  0
   31.3100   26.9150   48.5510 H   0  0  0  0  0  0  0  0  0  0  0  0
   32.7080   26.5910   47.5040 H   0  0  0  0  0  0  0  0  0  0  0  0
   31.1130   27.8780   46.2000 H   0  0  0  0  0  0  0  0  0  0  0  0
   30.7860   28.9860   47.5360 H   0  0  0  0  0  0  0  0  0  0  0  0
   32.6390   29.3120   45.3630 H   0  0  0  0  0  0  0  0  0  0  0  0
   32.5780   30.3170   46.8510 H   0  0  0  0  0  0  0  0  0  0  0  0
   34.8570   29.3830   46.5140 H   0  0  0  0  0  0  0  0  0  0  0  0
   34.1860   27.7450   46.5640 H   0  0  0  0  0  0  0  0  0  0  0  0
   39.1840   33.6860   49.0000 C   0  0  0  0  0  0  0  0  0  0  0  0
   39.6090   33.5780   47.6580 C   0  0  0  0  0  0  0  0  0  0  0  0
   39.1020   32.5340   46.9210 C   0  0  0  0  0  0  0  0  0  0  0  0
   38.2290   31.6700   47.5100 N   0  0  0  0  0  0  0  0  0  0  0  0
   37.8410   31.7960   48.7860 C   0  0  0  0  0  0  0  0  0  0  0  0
   38.3220   32.8060   49.5240 N   0  0  0  0  0  0  0  0  0  0  0  0
   39.5800   34.5050   49.5840 H   0  0  0  0  0  0  0  0  0  0  0  0
   40.2940   34.2820   47.2490 H   0  0  0  0  0  0  0  0  0  0  0  0
   39.4600   32.3310   45.5620 N   0  0  0  0  0  0  0  0  0  0  0  0
   39.8560   33.3910   44.6870 C   0  0  0  0  0  0  0  0  0  0  0  0
   39.4480   33.0310   43.2590 C   0  0  0  0  0  0  0  0  0  0  0  0
   40.1570   31.8090   42.7560 C   0  0  0  0  0  0  0  0  0  0  0  0
   39.4100   31.2040   42.1630 H   0  0  0  0  0  0  0  0  0  0  0  0
   40.5180   30.8840   43.9210 C   0  0  0  0  0  0  0  0  0  0  0  0
   39.4380   30.9990   44.9870 C   0  0  0  0  0  0  0  0  0  0  0  0
  1  2  1  0  0  0  0
  2  3  2  0  0  0  0
  2 13  1  0  0  0  0
  3 14  1  0  0  0  0
  4 15  1  0  0  0  0
  4  3  1  0  0  0  0
  5  4  2  0  0  0  0
  6  5  1  0  0  0  0
  6  1  2  0  0  0  0
  7  8  1  0  0  0  0
  7  5  1  0  0  0  0
  8 16  1  0  0  0  0
  8 17  1  0  0  0  0
  9 18  1  0  0  0  0
  9  8  1  0  0  0  0
 10 21  1  0  0  0  0
 10  9  1  0  0  0  0
 11 23  1  0  0  0  0
 11 12  1  0  0  0  0
 11 10  1  0  0  0  0
 12  7  1  0  0  0  0
 19  9  1  0  0  0  0
 20 10  1  0  0  0  0
 22 11  1  0  0  0  0
 24 12  1  0  0  0  0
 25 12  1  0  0  0  0
 26 31  1  0  0  0  0
 26 32  1  0  0  0  0
 27 26  2  0  0  0  0
 28 29  2  0  0  0  0
 28 27  1  0  0  0  0
 29 30  1  0  0  0  0
 30  1  1  0  0  0  0
 30 31  2  0  0  0  0
 33 27  1  0  0  0  0
 34 28  1  0  0  0  0
 35 34  1  0  0  0  0
 36 35  1  0  0  0  0
 37 36  1  0  0  0  0
 37 39  1  0  0  0  0
 38 37  1  0  0  0  0
 39 40  1  0  0  0  0
 40 34  1  0  0  0  0
M  END
>  <minimizedAffinity>
-7.17349529

>  <minimizedRMSD>
1.75845909

$$$$
