
 OpenBabel03262522093D

 27 29  0  0  0  0  0  0  0  0999 V2000
   37.4690   31.4670   47.4770 C   0  0  0  0  0  0  0  0  0  0  0  0
   37.8150   32.2030   48.5820 C   0  0  0  0  0  0  0  0  0  0  0  0
   38.9040   33.0510   48.5310 C   0  0  0  0  0  0  0  0  0  0  0  0
   39.5880   33.0940   47.3260 C   0  0  0  0  0  0  0  0  0  0  0  0
   39.2300   32.3530   46.2320 C   0  0  0  0  0  0  0  0  0  0  0  0
   38.1580   31.5320   46.3170 N   0  0  0  0  0  0  0  0  0  0  0  0
   37.2430   32.1330   49.5090 H   0  0  0  0  0  0  0  0  0  0  0  0
   39.2360   33.6610   49.3600 H   0  0  0  0  0  0  0  0  0  0  0  0
   40.4370   33.7380   47.2460 H   0  0  0  0  0  0  0  0  0  0  0  0
   39.8900   32.3540   44.9750 N   0  0  0  0  0  0  0  0  0  0  0  0
   40.7470   31.2900   44.4950 C   0  0  0  0  0  0  0  0  0  0  0  0
   40.5740   30.9960   43.0250 C   0  0  0  0  0  0  0  0  0  0  0  0
   39.1800   31.3930   42.5870 C   0  0  0  0  0  0  0  0  0  0  0  0
   38.9990   31.0780   41.5600 H   0  0  0  0  0  0  0  0  0  0  0  0
   39.1160   32.9020   42.7170 C   0  0  0  0  0  0  0  0  0  0  0  0
   39.8420   33.3680   43.9670 C   0  0  0  0  0  0  0  0  0  0  0  0
   36.3040   30.5930   47.6010 C   0  0  0  0  0  0  0  0  0  0  0  0
   35.6640   30.2310   46.6090 O   0  0  0  0  0  0  0  0  0  0  0  0
   36.7400   29.4780   49.7590 C   0  0  0  0  0  0  0  0  0  0  0  0
   35.8390   30.1040   48.8950 C   0  0  0  0  0  0  0  0  0  0  0  0
   34.5170   30.2340   49.3190 C   0  0  0  0  0  0  0  0  0  0  0  0
   34.1460   29.7550   50.5420 N   0  0  0  0  0  0  0  0  0  0  0  0
   35.0580   29.1520   51.3470 C   0  0  0  0  0  0  0  0  0  0  0  0
   36.3320   29.0130   50.9660 N   0  0  0  0  0  0  0  0  0  0  0  0
   37.7580   29.3760   49.4340 H   0  0  0  0  0  0  0  0  0  0  0  0
   33.7980   30.7140   48.6740 H   0  0  0  0  0  0  0  0  0  0  0  0
   34.8570   28.7480   52.3200 H   0  0  0  0  0  0  0  0  0  0  0  0
  1 17  1  0  0  0  0
  1  2  1  0  0  0  0
  2  7  1  0  0  0  0
  3  2  2  0  0  0  0
  3  8  1  0  0  0  0
  4  3  1  0  0  0  0
  5  6  1  0  0  0  0
  5  4  2  0  0  0  0
  6  1  2  0  0  0  0
  9  4  1  0  0  0  0
 10  5  1  0  0  0  0
 11 10  1  0  0  0  0
 12 11  1  0  0  0  0
 13 15  1  0  0  0  0
 13 12  1  0  0  0  0
 14 13  1  0  0  0  0
 15 16  1  0  0  0  0
 16 10  1  0  0  0  0
 17 20  1  0  0  0  0
 18 17  2  0  0  0  0
 19 24  1  0  0  0  0
 20 21  1  0  0  0  0
 20 19  2  0  0  0  0
 21 22  2  0  0  0  0
 22 23  1  0  0  0  0
 23 27  1  0  0  0  0
 24 23  2  0  0  0  0
 25 19  1  0  0  0  0
 26 21  1  0  0  0  0
M  END
>  <minimizedAffinity>
-5.64420938

>  <minimizedRMSD>
1.92389274

$$$$
