
 OpenBabel03272503213D

 33 36  0  0  0  0  0  0  0  0999 V2000
   36.9180   27.2910   32.9120 C   0  0  0  0  0  0  0  0  0  0  0  0
   36.2290   28.1020   32.1100 C   0  0  0  0  0  0  0  0  0  0  0  0
   35.5550   29.1600   32.6160 C   0  0  0  0  0  0  0  0  0  0  0  0
   35.6290   29.3360   33.9830 C   0  0  0  0  0  0  0  0  0  0  0  0
   36.6940   27.9400   34.5320 S   0  0  0  0  0  0  0  0  0  0  0  0
   36.2160   27.8980   31.0220 H   0  0  0  0  0  0  0  0  0  0  0  0
   34.9610   29.8910   32.0820 H   0  0  0  0  0  0  0  0  0  0  0  0
   39.7460   24.9700   32.0090 C   0  0  0  0  0  0  0  0  0  0  0  0
   39.0710   26.1770   32.2810 C   0  0  0  0  0  0  0  0  0  0  0  0
   37.7180   26.1050   32.6030 C   0  0  0  0  0  0  0  0  0  0  0  0
   37.1000   24.9000   32.6440 N   0  0  0  0  0  0  0  0  0  0  0  0
   37.7910   23.7660   32.3750 C   0  0  0  0  0  0  0  0  0  0  0  0
   39.0860   23.8050   32.0640 N   0  0  0  0  0  0  0  0  0  0  0  0
   40.7960   25.0680   31.7620 H   0  0  0  0  0  0  0  0  0  0  0  0
   39.5500   27.1330   32.2500 H   0  0  0  0  0  0  0  0  0  0  0  0
   37.1080   22.4990   32.4280 N   0  0  0  0  0  0  0  0  0  0  0  0
   35.9760   22.2550   31.5550 C   0  0  0  0  0  2  0  0  0  0  0  0
   34.9140   21.4480   32.2260 C   0  0  0  0  0  2  0  0  0  0  0  0
   35.4240   20.3640   33.1340 C   0  0  0  0  0  3  0  0  0  0  0  0
   34.5540   19.9630   33.6800 H   0  0  0  0  0  0  0  0  0  0  0  0
   36.3600   21.0070   34.1650 C   0  0  0  0  0  2  0  0  0  0  0  0
   37.5570   21.4760   33.3540 C   0  0  0  0  0  2  0  0  0  0  0  0
   32.6030   29.2690   34.2920 Cl  0  0  0  0  0  0  0  0  0  0  0  0
   33.7230   30.3490   35.0650 C   0  0  0  0  0  0  0  0  0  0  0  0
   35.0690   30.3170   34.8750 C   0  0  0  0  0  0  0  0  0  0  0  0
   35.9770   31.1490   35.4620 C   0  0  0  0  0  0  0  0  0  0  0  0
   35.5160   32.1300   36.3420 C   0  0  0  0  0  0  0  0  0  0  0  0
   34.1630   32.2150   36.5780 C   0  0  0  0  0  0  0  0  0  0  0  0
   33.5150   33.4190   37.6670 Cl  0  0  0  0  0  0  0  0  0  0  0  0
   33.2660   31.3330   35.9460 C   0  0  0  0  0  0  0  0  0  0  0  0
   37.0520   31.1120   35.3010 H   0  0  0  0  0  0  0  0  0  0  0  0
   36.1970   32.8140   36.8330 H   0  0  0  0  0  0  0  0  0  0  0  0
   32.1920   31.3930   36.1270 H   0  0  0  0  0  0  0  0  0  0  0  0
  1  5  1  0  0  0  0
  2  3  1  0  0  0  0
  2  1  2  0  0  0  0
  3  4  2  0  0  0  0
  4  5  1  0  0  0  0
  4 25  1  0  0  0  0
  6  2  1  0  0  0  0
  7  3  1  0  0  0  0
  8 13  2  0  0  0  0
  8  9  1  0  0  0  0
  9 10  2  0  0  0  0
 10 11  1  0  0  0  0
 10  1  1  0  0  0  0
 12 16  1  0  0  0  0
 12 11  2  0  0  0  0
 13 12  1  0  0  0  0
 14  8  1  0  0  0  0
 15  9  1  0  0  0  0
 16 22  1  0  0  0  0
 17 18  1  0  0  0  0
 17 16  1  0  0  0  0
 18 19  1  0  0  0  0
 19 20  1  0  0  0  0
 19 21  1  0  0  0  0
 22 21  1  0  0  0  0
 23 24  1  0  0  0  0
 24 30  1  0  0  0  0
 25 24  2  0  0  0  0
 25 26  1  0  0  0  0
 26 27  2  0  0  0  0
 27 28  1  0  0  0  0
 27 32  1  0  0  0  0
 28 29  1  0  0  0  0
 30 33  1  0  0  0  0
 30 28  2  0  0  0  0
 31 26  1  0  0  0  0
M  END
>  <minimizedAffinity>
-6.51705885

$$$$

 OpenBabel03272503213D

 33 36  0  0  0  0  0  0  0  0999 V2000
   37.2860   27.4630   34.5190 C   0  0  0  0  0  0  0  0  0  0  0  0
   38.0470   27.7380   35.5770 C   0  0  0  0  0  0  0  0  0  0  0  0
   38.9220   26.8220   36.0510 C   0  0  0  0  0  0  0  0  0  0  0  0
   38.9700   25.6160   35.3820 C   0  0  0  0  0  0  0  0  0  0  0  0
   37.7220   25.8250   34.0450 S   0  0  0  0  0  0  0  0  0  0  0  0
   37.9540   28.7280   36.0630 H   0  0  0  0  0  0  0  0  0  0  0  0
   39.5940   26.9140   36.8950 H   0  0  0  0  0  0  0  0  0  0  0  0
   35.1730   29.1350   31.8840 C   0  0  0  0  0  0  0  0  0  0  0  0
   36.1770   28.3180   32.4420 C   0  0  0  0  0  0  0  0  0  0  0  0
   36.2870   28.2800   33.8290 C   0  0  0  0  0  0  0  0  0  0  0  0
   35.4410   29.0170   34.5900 N   0  0  0  0  0  0  0  0  0  0  0  0
   34.4910   29.7880   34.0080 C   0  0  0  0  0  0  0  0  0  0  0  0
   34.3630   29.8430   32.6840 N   0  0  0  0  0  0  0  0  0  0  0  0
   35.1200   29.1370   30.8020 H   0  0  0  0  0  0  0  0  0  0  0  0
   36.8490   27.7330   31.8490 H   0  0  0  0  0  0  0  0  0  0  0  0
   33.6060   30.5590   34.8440 N   0  0  0  0  0  0  0  0  0  0  0  0
   34.1520   31.5580   35.7410 C   0  0  0  0  0  2  0  0  0  0  0  0
   33.4080   31.6180   37.0340 C   0  0  0  0  0  2  0  0  0  0  0  0
   31.9210   31.4300   36.9160 C   0  0  0  0  0  3  0  0  0  0  0  0
   31.5240   31.3330   37.9400 H   0  0  0  0  0  0  0  0  0  0  0  0
   31.6640   30.1020   36.1940 C   0  0  0  0  0  2  0  0  0  0  0  0
   32.1740   30.3300   34.7800 C   0  0  0  0  0  2  0  0  0  0  0  0
   37.7940   23.5590   37.2910 Cl  0  0  0  0  0  0  0  0  0  0  0  0
   39.2880   23.4550   36.4100 C   0  0  0  0  0  0  0  0  0  0  0  0
   39.7490   24.4210   35.5720 C   0  0  0  0  0  0  0  0  0  0  0  0
   40.9170   24.3740   34.8670 C   0  0  0  0  0  0  0  0  0  0  0  0
   41.7330   23.2480   34.9950 C   0  0  0  0  0  0  0  0  0  0  0  0
   41.3220   22.2330   35.8290 C   0  0  0  0  0  0  0  0  0  0  0  0
   42.2930   20.7950   36.0380 Cl  0  0  0  0  0  0  0  0  0  0  0  0
   40.1090   22.3300   36.5360 C   0  0  0  0  0  0  0  0  0  0  0  0
   41.2730   25.1550   34.1990 H   0  0  0  0  0  0  0  0  0  0  0  0
   42.6680   23.1650   34.4560 H   0  0  0  0  0  0  0  0  0  0  0  0
   39.7750   21.5310   37.1990 H   0  0  0  0  0  0  0  0  0  0  0  0
  1  2  2  0  0  0  0
  2  3  1  0  0  0  0
  2  6  1  0  0  0  0
  3  7  1  0  0  0  0
  4 25  1  0  0  0  0
  4  3  2  0  0  0  0
  5  1  1  0  0  0  0
  5  4  1  0  0  0  0
  8  9  2  0  0  0  0
  8 13  1  0  0  0  0
  9 10  1  0  0  0  0
 10  1  1  0  0  0  0
 10 11  2  0  0  0  0
 12 11  1  0  0  0  0
 12 16  1  0  0  0  0
 13 12  2  0  0  0  0
 14  8  1  0  0  0  0
 15  9  1  0  0  0  0
 16 17  1  0  0  0  0
 17 18  1  0  0  0  0
 19 18  1  0  0  0  0
 19 20  1  0  0  0  0
 21 19  1  0  0  0  0
 22 16  1  0  0  0  0
 22 21  1  0  0  0  0
 24 30  1  0  0  0  0
 24 23  1  0  0  0  0
 25 24  2  0  0  0  0
 26 27  2  0  0  0  0
 26 25  1  0  0  0  0
 27 28  1  0  0  0  0
 28 29  1  0  0  0  0
 28 30  2  0  0  0  0
 30 33  1  0  0  0  0
 31 26  1  0  0  0  0
 32 27  1  0  0  0  0
M  END
>  <minimizedAffinity>
-6.31058979

$$$$

 OpenBabel03272503213D

 33 36  0  0  0  0  0  0  0  0999 V2000
   37.3520   27.5170   34.1120 C   0  0  0  0  0  0  0  0  0  0  0  0
   37.7510   27.7640   35.3580 C   0  0  0  0  0  0  0  0  0  0  0  0
   38.4970   26.8600   36.0340 C   0  0  0  0  0  0  0  0  0  0  0  0
   38.8080   25.6960   35.3600 C   0  0  0  0  0  0  0  0  0  0  0  0
   38.0010   25.9270   33.7230 S   0  0  0  0  0  0  0  0  0  0  0  0
   37.4630   28.7200   35.8350 H   0  0  0  0  0  0  0  0  0  0  0  0
   38.8840   26.9330   37.0420 H   0  0  0  0  0  0  0  0  0  0  0  0
   34.6080   29.5730   32.5480 C   0  0  0  0  0  0  0  0  0  0  0  0
   35.2820   28.7920   33.5090 C   0  0  0  0  0  0  0  0  0  0  0  0
   36.5560   28.3290   33.1910 C   0  0  0  0  0  0  0  0  0  0  0  0
   37.1020   28.6360   31.9880 N   0  0  0  0  0  0  0  0  0  0  0  0
   36.4150   29.3900   31.0970 C   0  0  0  0  0  0  0  0  0  0  0  0
   35.1950   29.8470   31.3750 N   0  0  0  0  0  0  0  0  0  0  0  0
   33.6200   29.9140   32.8330 H   0  0  0  0  0  0  0  0  0  0  0  0
   34.8590   28.5440   34.4600 H   0  0  0  0  0  0  0  0  0  0  0  0
   37.0220   29.7010   29.8270 N   0  0  0  0  0  0  0  0  0  0  0  0
   37.4030   28.6280   28.9300 C   0  0  0  0  0  2  0  0  0  0  0  0
   38.6730   28.9270   28.2050 C   0  0  0  0  0  2  0  0  0  0  0  0
   38.8410   30.3630   27.7910 C   0  0  0  0  0  3  0  0  0  0  0  0
   39.8730   30.4750   27.4200 H   0  0  0  0  0  0  0  0  0  0  0  0
   38.7020   31.2390   29.0420 C   0  0  0  0  0  2  0  0  0  0  0  0
   37.2470   31.0860   29.4570 C   0  0  0  0  0  2  0  0  0  0  0  0
   37.4160   23.7580   37.2470 Cl  0  0  0  0  0  0  0  0  0  0  0  0
   39.0070   23.6130   36.5640 C   0  0  0  0  0  0  0  0  0  0  0  0
   39.5630   24.5260   35.7240 C   0  0  0  0  0  0  0  0  0  0  0  0
   40.8080   24.4470   35.1710 C   0  0  0  0  0  0  0  0  0  0  0  0
   41.6070   23.3420   35.4740 C   0  0  0  0  0  0  0  0  0  0  0  0
   41.1010   22.3800   36.3190 C   0  0  0  0  0  0  0  0  0  0  0  0
   42.0440   20.9710   36.7420 Cl  0  0  0  0  0  0  0  0  0  0  0  0
   39.8100   22.5100   36.8640 C   0  0  0  0  0  0  0  0  0  0  0  0
   41.2410   25.1850   34.5010 H   0  0  0  0  0  0  0  0  0  0  0  0
   42.6010   23.2340   35.0600 H   0  0  0  0  0  0  0  0  0  0  0  0
   39.4010   21.7520   37.5350 H   0  0  0  0  0  0  0  0  0  0  0  0
  1  2  2  0  0  0  0
  2  6  1  0  0  0  0
  2  3  1  0  0  0  0
  3  7  1  0  0  0  0
  4 25  1  0  0  0  0
  4  3  2  0  0  0  0
  5  1  1  0  0  0  0
  5  4  1  0  0  0  0
  8 14  1  0  0  0  0
  8  9  1  0  0  0  0
  9 15  1  0  0  0  0
 10  9  2  0  0  0  0
 10  1  1  0  0  0  0
 11 10  1  0  0  0  0
 12 13  1  0  0  0  0
 12 11  2  0  0  0  0
 13  8  2  0  0  0  0
 16 12  1  0  0  0  0
 17 16  1  0  0  0  0
 18 17  1  0  0  0  0
 19 18  1  0  0  0  0
 19 21  1  0  0  0  0
 20 19  1  0  0  0  0
 21 22  1  0  0  0  0
 22 16  1  0  0  0  0
 24 30  1  0  0  0  0
 24 23  1  0  0  0  0
 25 24  2  0  0  0  0
 26 27  2  0  0  0  0
 26 25  1  0  0  0  0
 27 28  1  0  0  0  0
 28 29  1  0  0  0  0
 28 30  2  0  0  0  0
 30 33  1  0  0  0  0
 31 26  1  0  0  0  0
 32 27  1  0  0  0  0
M  END
>  <minimizedAffinity>
-6.19417048

$$$$

 OpenBabel03272503213D

 33 36  0  0  0  0  0  0  0  0999 V2000
   36.7130   27.3380   32.8360 C   0  0  0  0  0  0  0  0  0  0  0  0
   36.1770   28.2710   32.0520 C   0  0  0  0  0  0  0  0  0  0  0  0
   35.5990   29.3710   32.5880 C   0  0  0  0  0  0  0  0  0  0  0  0
   35.6050   29.4560   33.9660 C   0  0  0  0  0  0  0  0  0  0  0  0
   36.4640   27.9120   34.4810 S   0  0  0  0  0  0  0  0  0  0  0  0
   36.2090   28.1350   30.9540 H   0  0  0  0  0  0  0  0  0  0  0  0
   35.1300   30.1980   32.0720 H   0  0  0  0  0  0  0  0  0  0  0  0
   38.2200   24.4320   30.9680 C   0  0  0  0  0  0  0  0  0  0  0  0
   37.5460   25.6520   31.1810 C   0  0  0  0  0  0  0  0  0  0  0  0
   37.3880   26.0850   32.4950 C   0  0  0  0  0  0  0  0  0  0  0  0
   37.8770   25.3340   33.5120 N   0  0  0  0  0  0  0  0  0  0  0  0
   38.5170   24.1680   33.2580 C   0  0  0  0  0  0  0  0  0  0  0  0
   38.6830   23.7300   32.0110 N   0  0  0  0  0  0  0  0  0  0  0  0
   38.3230   24.1300   29.9330 H   0  0  0  0  0  0  0  0  0  0  0  0
   37.1580   26.2500   30.3840 H   0  0  0  0  0  0  0  0  0  0  0  0
   39.0260   23.3930   34.3610 N   0  0  0  0  0  0  0  0  0  0  0  0
   38.1160   22.9030   35.3770 C   0  0  0  0  0  2  0  0  0  0  0  0
   38.7240   22.9390   36.7400 C   0  0  0  0  0  2  0  0  0  0  0  0
   40.1840   22.5850   36.7900 C   0  0  0  0  0  3  0  0  0  0  0  0
   40.5370   22.8080   37.8100 H   0  0  0  0  0  0  0  0  0  0  0  0
   40.9330   23.5140   35.8280 C   0  0  0  0  0  2  0  0  0  0  0  0
   40.4470   23.1080   34.4460 C   0  0  0  0  0  2  0  0  0  0  0  0
   32.6210   29.3380   34.5450 Cl  0  0  0  0  0  0  0  0  0  0  0  0
   33.7840   30.4530   35.1970 C   0  0  0  0  0  0  0  0  0  0  0  0
   35.1080   30.4420   34.8880 C   0  0  0  0  0  0  0  0  0  0  0  0
   36.0480   31.3020   35.3780 C   0  0  0  0  0  0  0  0  0  0  0  0
   35.6470   32.2900   36.2790 C   0  0  0  0  0  0  0  0  0  0  0  0
   34.3190   32.3540   36.6340 C   0  0  0  0  0  0  0  0  0  0  0  0
   33.7460   33.5650   37.7560 Cl  0  0  0  0  0  0  0  0  0  0  0  0
   33.3880   31.4440   36.0990 C   0  0  0  0  0  0  0  0  0  0  0  0
   37.1040   31.2810   35.1220 H   0  0  0  0  0  0  0  0  0  0  0  0
   36.3560   32.9950   36.6960 H   0  0  0  0  0  0  0  0  0  0  0  0
   32.3330   31.4870   36.3740 H   0  0  0  0  0  0  0  0  0  0  0  0
  1  5  1  0  0  0  0
  2  3  1  0  0  0  0
  2  1  2  0  0  0  0
  3  4  2  0  0  0  0
  4  5  1  0  0  0  0
  4 25  1  0  0  0  0
  6  2  1  0  0  0  0
  7  3  1  0  0  0  0
  8  9  2  0  0  0  0
  8 13  1  0  0  0  0
  9 10  1  0  0  0  0
 10  1  1  0  0  0  0
 10 11  2  0  0  0  0
 12 11  1  0  0  0  0
 12 16  1  0  0  0  0
 13 12  2  0  0  0  0
 14  8  1  0  0  0  0
 15  9  1  0  0  0  0
 16 22  1  0  0  0  0
 16 17  1  0  0  0  0
 17 18  1  0  0  0  0
 18 19  1  0  0  0  0
 19 20  1  0  0  0  0
 21 19  1  0  0  0  0
 22 21  1  0  0  0  0
 23 24  1  0  0  0  0
 24 30  1  0  0  0  0
 25 24  2  0  0  0  0
 25 26  1  0  0  0  0
 26 27  2  0  0  0  0
 27 28  1  0  0  0  0
 27 32  1  0  0  0  0
 28 29  1  0  0  0  0
 30 33  1  0  0  0  0
 30 28  2  0  0  0  0
 31 26  1  0  0  0  0
M  END
>  <minimizedAffinity>
-6.15375853

$$$$

 OpenBabel03272503213D

 33 36  0  0  0  0  0  0  0  0999 V2000
   37.5340   27.3380   34.0780 C   0  0  0  0  0  0  0  0  0  0  0  0
   37.8520   27.5260   35.3570 C   0  0  0  0  0  0  0  0  0  0  0  0
   38.6300   26.6330   36.0110 C   0  0  0  0  0  0  0  0  0  0  0  0
   39.0610   25.5450   35.2800 C   0  0  0  0  0  0  0  0  0  0  0  0
   38.3190   25.8300   33.6200 S   0  0  0  0  0  0  0  0  0  0  0  0
   37.4700   28.4230   35.8800 H   0  0  0  0  0  0  0  0  0  0  0  0
   38.9610   26.6640   37.0410 H   0  0  0  0  0  0  0  0  0  0  0  0
   36.2330   29.1860   31.0620 C   0  0  0  0  0  0  0  0  0  0  0  0
   37.0930   28.3930   31.8490 C   0  0  0  0  0  0  0  0  0  0  0  0
   36.7250   28.1520   33.1700 C   0  0  0  0  0  0  0  0  0  0  0  0
   35.5730   28.6800   33.6530 N   0  0  0  0  0  0  0  0  0  0  0  0
   34.7800   29.4360   32.8590 C   0  0  0  0  0  0  0  0  0  0  0  0
   35.1060   29.6820   31.5910 N   0  0  0  0  0  0  0  0  0  0  0  0
   36.5540   29.3500   30.0400 H   0  0  0  0  0  0  0  0  0  0  0  0
   38.0030   27.9730   31.4760 H   0  0  0  0  0  0  0  0  0  0  0  0
   33.5610   29.9820   33.4000 N   0  0  0  0  0  0  0  0  0  0  0  0
   33.6170   30.8790   34.5380 C   0  0  0  0  0  2  0  0  0  0  0  0
   32.4750   30.6670   35.4760 C   0  0  0  0  0  2  0  0  0  0  0  0
   31.1620   30.3590   34.8130 C   0  0  0  0  0  3  0  0  0  0  0  0
   30.4570   30.0680   35.6090 H   0  0  0  0  0  0  0  0  0  0  0  0
   31.3610   29.1390   33.9050 C   0  0  0  0  0  2  0  0  0  0  0  0
   32.2860   29.6300   32.8030 C   0  0  0  0  0  2  0  0  0  0  0  0
   41.9650   25.7150   34.3880 Cl  0  0  0  0  0  0  0  0  0  0  0  0
   41.1930   24.4120   35.2410 C   0  0  0  0  0  0  0  0  0  0  0  0
   39.8830   24.4090   35.6060 C   0  0  0  0  0  0  0  0  0  0  0  0
   39.2440   23.4060   36.2740 C   0  0  0  0  0  0  0  0  0  0  0  0
   39.9710   22.2670   36.6280 C   0  0  0  0  0  0  0  0  0  0  0  0
   41.3030   22.2080   36.2870 C   0  0  0  0  0  0  0  0  0  0  0  0
   42.2740   20.8150   36.6980 Cl  0  0  0  0  0  0  0  0  0  0  0  0
   41.9160   23.2710   35.5970 C   0  0  0  0  0  0  0  0  0  0  0  0
   38.1950   23.4170   36.5600 H   0  0  0  0  0  0  0  0  0  0  0  0
   39.5080   21.4440   37.1580 H   0  0  0  0  0  0  0  0  0  0  0  0
   42.9710   23.2330   35.3230 H   0  0  0  0  0  0  0  0  0  0  0  0
  1  2  2  0  0  0  0
  2  6  1  0  0  0  0
  2  3  1  0  0  0  0
  3  7  1  0  0  0  0
  4 25  1  0  0  0  0
  4  3  2  0  0  0  0
  5  1  1  0  0  0  0
  5  4  1  0  0  0  0
  8 13  2  0  0  0  0
  8  9  1  0  0  0  0
  9 10  2  0  0  0  0
 10 11  1  0  0  0  0
 10  1  1  0  0  0  0
 12 16  1  0  0  0  0
 12 11  2  0  0  0  0
 13 12  1  0  0  0  0
 14  8  1  0  0  0  0
 15  9  1  0  0  0  0
 16 17  1  0  0  0  0
 17 18  1  0  0  0  0
 19 18  1  0  0  0  0
 19 20  1  0  0  0  0
 21 19  1  0  0  0  0
 22 16  1  0  0  0  0
 22 21  1  0  0  0  0
 23 24  1  0  0  0  0
 24 30  2  0  0  0  0
 24 25  1  0  0  0  0
 25 26  2  0  0  0  0
 26 31  1  0  0  0  0
 26 27  1  0  0  0  0
 27 32  1  0  0  0  0
 28 27  2  0  0  0  0
 28 29  1  0  0  0  0
 30 28  1  0  0  0  0
 33 30  1  0  0  0  0
M  END
>  <minimizedAffinity>
-6.04296398

$$$$

 OpenBabel03272503213D

 33 36  0  0  0  0  0  0  0  0999 V2000
   36.9420   27.8860   32.9890 C   0  0  0  0  0  0  0  0  0  0  0  0
   37.6390   27.1150   32.1570 C   0  0  0  0  0  0  0  0  0  0  0  0
   38.3820   26.0870   32.6290 C   0  0  0  0  0  0  0  0  0  0  0  0
   38.3660   25.8980   33.9960 C   0  0  0  0  0  0  0  0  0  0  0  0
   37.2550   27.2370   34.5960 S   0  0  0  0  0  0  0  0  0  0  0  0
   37.6030   27.3260   31.0710 H   0  0  0  0  0  0  0  0  0  0  0  0
   38.9900   25.3890   32.0680 H   0  0  0  0  0  0  0  0  0  0  0  0
   34.8540   30.5220   31.2880 C   0  0  0  0  0  0  0  0  0  0  0  0
   35.7000   29.4030   31.4310 C   0  0  0  0  0  0  0  0  0  0  0  0
   36.0750   29.0330   32.7200 C   0  0  0  0  0  0  0  0  0  0  0  0
   35.6260   29.7470   33.7810 N   0  0  0  0  0  0  0  0  0  0  0  0
   34.8140   30.8150   33.5940 C   0  0  0  0  0  0  0  0  0  0  0  0
   34.4390   31.1910   32.3720 N   0  0  0  0  0  0  0  0  0  0  0  0
   34.5850   30.7770   30.2710 H   0  0  0  0  0  0  0  0  0  0  0  0
   36.0590   28.8340   30.5990 H   0  0  0  0  0  0  0  0  0  0  0  0
   34.3520   31.5540   34.7420 N   0  0  0  0  0  0  0  0  0  0  0  0
   35.3120   32.1840   35.6260 C   0  0  0  0  0  2  0  0  0  0  0  0
   34.8890   32.1130   37.0560 C   0  0  0  0  0  2  0  0  0  0  0  0
   33.4130   32.2840   37.2870 C   0  0  0  0  0  3  0  0  0  0  0  0
   33.2210   32.0490   38.3470 H   0  0  0  0  0  0  0  0  0  0  0  0
   32.6740   31.2390   36.4420 C   0  0  0  0  0  2  0  0  0  0  0  0
   32.9290   31.6610   35.0040 C   0  0  0  0  0  2  0  0  0  0  0  0
   41.4090   25.9180   33.9730 Cl  0  0  0  0  0  0  0  0  0  0  0  0
   40.3630   24.8880   34.9040 C   0  0  0  0  0  0  0  0  0  0  0  0
   39.0050   24.9400   34.8590 C   0  0  0  0  0  0  0  0  0  0  0  0
   38.1530   24.1470   35.5730 C   0  0  0  0  0  0  0  0  0  0  0  0
   38.6920   23.1900   36.4350 C   0  0  0  0  0  0  0  0  0  0  0  0
   40.0620   23.0870   36.5260 C   0  0  0  0  0  0  0  0  0  0  0  0
   40.8060   21.9120   37.5830 Cl  0  0  0  0  0  0  0  0  0  0  0  0
   40.8970   23.9280   35.7670 C   0  0  0  0  0  0  0  0  0  0  0  0
   37.0680   24.1990   35.5280 H   0  0  0  0  0  0  0  0  0  0  0  0
   38.0580   22.5380   37.0220 H   0  0  0  0  0  0  0  0  0  0  0  0
   41.9840   23.8550   35.8320 H   0  0  0  0  0  0  0  0  0  0  0  0
  1  5  1  0  0  0  0
  2  3  1  0  0  0  0
  2  1  2  0  0  0  0
  3  4  2  0  0  0  0
  4  5  1  0  0  0  0
  4 25  1  0  0  0  0
  6  2  1  0  0  0  0
  7  3  1  0  0  0  0
  8  9  2  0  0  0  0
  8 13  1  0  0  0  0
  9 10  1  0  0  0  0
 10  1  1  0  0  0  0
 10 11  2  0  0  0  0
 12 11  1  0  0  0  0
 12 16  1  0  0  0  0
 13 12  2  0  0  0  0
 14  8  1  0  0  0  0
 15  9  1  0  0  0  0
 16 22  1  0  0  0  0
 16 17  1  0  0  0  0
 17 18  1  0  0  0  0
 18 19  1  0  0  0  0
 19 20  1  0  0  0  0
 21 19  1  0  0  0  0
 22 21  1  0  0  0  0
 23 24  1  0  0  0  0
 24 30  1  0  0  0  0
 25 24  2  0  0  0  0
 25 26  1  0  0  0  0
 26 27  2  0  0  0  0
 27 28  1  0  0  0  0
 27 32  1  0  0  0  0
 28 29  1  0  0  0  0
 30 33  1  0  0  0  0
 30 28  2  0  0  0  0
 31 26  1  0  0  0  0
M  END
>  <minimizedAffinity>
-6.01284933

$$$$

 OpenBabel03272503213D

 33 36  0  0  0  0  0  0  0  0999 V2000
   37.3590   27.5430   34.1030 C   0  0  0  0  0  0  0  0  0  0  0  0
   37.7570   27.8020   35.3470 C   0  0  0  0  0  0  0  0  0  0  0  0
   38.5230   26.9150   36.0220 C   0  0  0  0  0  0  0  0  0  0  0  0
   38.8570   25.7570   35.3500 C   0  0  0  0  0  0  0  0  0  0  0  0
   38.0400   25.9670   33.7150 S   0  0  0  0  0  0  0  0  0  0  0  0
   37.4500   28.7530   35.8230 H   0  0  0  0  0  0  0  0  0  0  0  0
   38.9120   26.9990   37.0300 H   0  0  0  0  0  0  0  0  0  0  0  0
   34.5640   29.5290   32.5380 C   0  0  0  0  0  0  0  0  0  0  0  0
   35.2560   28.7630   33.4980 C   0  0  0  0  0  0  0  0  0  0  0  0
   36.5440   28.3370   33.1820 C   0  0  0  0  0  0  0  0  0  0  0  0
   37.0840   28.6630   31.9820 N   0  0  0  0  0  0  0  0  0  0  0  0
   36.3790   29.4010   31.0920 C   0  0  0  0  0  0  0  0  0  0  0  0
   35.1460   29.8230   31.3680 N   0  0  0  0  0  0  0  0  0  0  0  0
   33.5660   29.8420   32.8220 H   0  0  0  0  0  0  0  0  0  0  0  0
   34.8380   28.5010   34.4470 H   0  0  0  0  0  0  0  0  0  0  0  0
   36.9810   29.7330   29.8250 N   0  0  0  0  0  0  0  0  0  0  0  0
   37.3930   28.6740   28.9250 C   0  0  0  0  0  2  0  0  0  0  0  0
   38.6560   29.0110   28.2040 C   0  0  0  0  0  2  0  0  0  0  0  0
   38.7860   30.4520   27.7960 C   0  0  0  0  0  3  0  0  0  0  0  0
   39.8150   30.5940   27.4280 H   0  0  0  0  0  0  0  0  0  0  0  0
   38.6200   31.3190   29.0500 C   0  0  0  0  0  2  0  0  0  0  0  0
   37.1690   31.1250   29.4600 C   0  0  0  0  0  2  0  0  0  0  0  0
   41.6960   25.6820   34.2560 Cl  0  0  0  0  0  0  0  0  0  0  0  0
   40.9170   24.5000   35.2640 C   0  0  0  0  0  0  0  0  0  0  0  0
   39.6380   24.6040   35.7150 C   0  0  0  0  0  0  0  0  0  0  0  0
   38.9940   23.6960   36.5040 C   0  0  0  0  0  0  0  0  0  0  0  0
   39.6820   22.5480   36.9030 C   0  0  0  0  0  0  0  0  0  0  0  0
   40.9810   22.3830   36.4800 C   0  0  0  0  0  0  0  0  0  0  0  0
   41.9020   20.9700   36.9400 Cl  0  0  0  0  0  0  0  0  0  0  0  0
   41.6000   23.3490   35.6650 C   0  0  0  0  0  0  0  0  0  0  0  0
   37.9710   23.7930   36.8580 H   0  0  0  0  0  0  0  0  0  0  0  0
   39.2140   21.7990   37.5300 H   0  0  0  0  0  0  0  0  0  0  0  0
   42.6300   23.2260   35.3250 H   0  0  0  0  0  0  0  0  0  0  0  0
  1  2  2  0  0  0  0
  2  6  1  0  0  0  0
  2  3  1  0  0  0  0
  3  7  1  0  0  0  0
  4 25  1  0  0  0  0
  4  3  2  0  0  0  0
  5  1  1  0  0  0  0
  5  4  1  0  0  0  0
  8 14  1  0  0  0  0
  8  9  1  0  0  0  0
  9 15  1  0  0  0  0
 10  9  2  0  0  0  0
 10  1  1  0  0  0  0
 11 10  1  0  0  0  0
 12 13  1  0  0  0  0
 12 11  2  0  0  0  0
 13  8  2  0  0  0  0
 16 12  1  0  0  0  0
 17 16  1  0  0  0  0
 18 17  1  0  0  0  0
 19 18  1  0  0  0  0
 19 21  1  0  0  0  0
 20 19  1  0  0  0  0
 21 22  1  0  0  0  0
 22 16  1  0  0  0  0
 23 24  1  0  0  0  0
 24 30  2  0  0  0  0
 24 25  1  0  0  0  0
 25 26  2  0  0  0  0
 26 31  1  0  0  0  0
 26 27  1  0  0  0  0
 27 32  1  0  0  0  0
 28 27  2  0  0  0  0
 28 29  1  0  0  0  0
 30 28  1  0  0  0  0
 33 30  1  0  0  0  0
M  END
>  <minimizedAffinity>
-5.98949242

$$$$

 OpenBabel03272503213D

 33 36  0  0  0  0  0  0  0  0999 V2000
   38.2540   24.9830   34.5500 C   0  0  0  0  0  0  0  0  0  0  0  0
   37.6480   24.5220   33.4580 C   0  0  0  0  0  0  0  0  0  0  0  0
   37.3200   25.3600   32.4480 C   0  0  0  0  0  0  0  0  0  0  0  0
   37.6500   26.6880   32.6220 C   0  0  0  0  0  0  0  0  0  0  0  0
   38.4460   26.7120   34.2810 S   0  0  0  0  0  0  0  0  0  0  0  0
   37.4150   23.4420   33.3880 H   0  0  0  0  0  0  0  0  0  0  0  0
   36.8300   25.1190   31.5130 H   0  0  0  0  0  0  0  0  0  0  0  0
   38.4390   23.4400   37.9840 C   0  0  0  0  0  0  0  0  0  0  0  0
   37.9050   24.1420   36.8840 C   0  0  0  0  0  0  0  0  0  0  0  0
   38.7060   24.2820   35.7530 C   0  0  0  0  0  0  0  0  0  0  0  0
   39.9530   23.7520   35.7440 N   0  0  0  0  0  0  0  0  0  0  0  0
   40.4230   23.0870   36.8250 C   0  0  0  0  0  0  0  0  0  0  0  0
   39.6790   22.9360   37.9200 N   0  0  0  0  0  0  0  0  0  0  0  0
   37.7860   23.3530   38.8440 H   0  0  0  0  0  0  0  0  0  0  0  0
   36.9220   24.5640   36.8830 H   0  0  0  0  0  0  0  0  0  0  0  0
   41.7530   22.5320   36.7850 N   0  0  0  0  0  0  0  0  0  0  0  0
   42.8910   23.4070   36.5780 C   0  0  0  0  0  2  0  0  0  0  0  0
   43.9410   22.7700   35.7300 C   0  0  0  0  0  2  0  0  0  0  0  0
   44.1440   21.3000   35.9730 C   0  0  0  0  0  3  0  0  0  0  0  0
   44.8170   20.9310   35.1820 H   0  0  0  0  0  0  0  0  0  0  0  0
   42.7930   20.5970   35.7950 C   0  0  0  0  0  2  0  0  0  0  0  0
   41.9430   21.1040   36.9510 C   0  0  0  0  0  2  0  0  0  0  0  0
   35.5820   28.6970   33.5960 Cl  0  0  0  0  0  0  0  0  0  0  0  0
   36.5700   28.8000   32.1700 C   0  0  0  0  0  0  0  0  0  0  0  0
   37.4760   27.8560   31.7990 C   0  0  0  0  0  0  0  0  0  0  0  0
   38.2660   27.9030   30.6880 C   0  0  0  0  0  0  0  0  0  0  0  0
   38.1600   29.0030   29.8350 C   0  0  0  0  0  0  0  0  0  0  0  0
   37.2600   29.9940   30.1540 C   0  0  0  0  0  0  0  0  0  0  0  0
   37.0730   31.4000   29.1330 Cl  0  0  0  0  0  0  0  0  0  0  0  0
   36.4670   29.8990   31.3130 C   0  0  0  0  0  0  0  0  0  0  0  0
   38.9880   27.1400   30.4040 H   0  0  0  0  0  0  0  0  0  0  0  0
   38.7650   29.0850   28.9410 H   0  0  0  0  0  0  0  0  0  0  0  0
   35.7510   30.6800   31.5740 H   0  0  0  0  0  0  0  0  0  0  0  0
  1 10  1  0  0  0  0
  2  1  2  0  0  0  0
  3  4  2  0  0  0  0
  3  2  1  0  0  0  0
  4  5  1  0  0  0  0
  5  1  1  0  0  0  0
  6  2  1  0  0  0  0
  7  3  1  0  0  0  0
  8 14  1  0  0  0  0
  9  8  2  0  0  0  0
 10  9  1  0  0  0  0
 11 10  2  0  0  0  0
 11 12  1  0  0  0  0
 12 13  2  0  0  0  0
 13  8  1  0  0  0  0
 15  9  1  0  0  0  0
 16 12  1  0  0  0  0
 16 22  1  0  0  0  0
 17 16  1  0  0  0  0
 18 19  1  0  0  0  0
 18 17  1  0  0  0  0
 20 19  1  0  0  0  0
 21 19  1  0  0  0  0
 21 22  1  0  0  0  0
 24 23  1  0  0  0  0
 25 24  1  0  0  0  0
 25  4  1  0  0  0  0
 26 25  2  0  0  0  0
 27 28  2  0  0  0  0
 27 26  1  0  0  0  0
 28 30  1  0  0  0  0
 29 28  1  0  0  0  0
 30 33  1  0  0  0  0
 30 24  2  0  0  0  0
 31 26  1  0  0  0  0
 32 27  1  0  0  0  0
M  END
>  <minimizedAffinity>
-5.98095226

$$$$

 OpenBabel03272503213D

 33 36  0  0  0  0  0  0  0  0999 V2000
   36.4560   27.5780   32.2160 C   0  0  0  0  0  0  0  0  0  0  0  0
   37.0740   26.9380   33.2070 C   0  0  0  0  0  0  0  0  0  0  0  0
   37.2330   25.5950   33.1640 C   0  0  0  0  0  0  0  0  0  0  0  0
   36.7250   24.9530   32.0540 C   0  0  0  0  0  0  0  0  0  0  0  0
   36.0070   26.3270   31.0620 S   0  0  0  0  0  0  0  0  0  0  0  0
   37.4560   27.5200   34.0670 H   0  0  0  0  0  0  0  0  0  0  0  0
   37.7110   24.9560   33.8960 H   0  0  0  0  0  0  0  0  0  0  0  0
   35.9840   31.0150   30.7430 C   0  0  0  0  0  0  0  0  0  0  0  0
   36.2880   29.6400   30.8030 C   0  0  0  0  0  0  0  0  0  0  0  0
   36.1740   29.0030   32.0360 C   0  0  0  0  0  0  0  0  0  0  0  0
   35.7830   29.7110   33.1230 N   0  0  0  0  0  0  0  0  0  0  0  0
   35.5010   31.0310   33.0170 C   0  0  0  0  0  0  0  0  0  0  0  0
   35.6010   31.6660   31.8500 N   0  0  0  0  0  0  0  0  0  0  0  0
   36.0840   31.4740   29.7670 H   0  0  0  0  0  0  0  0  0  0  0  0
   36.5980   29.0740   29.9490 H   0  0  0  0  0  0  0  0  0  0  0  0
   35.0850   31.7570   34.1910 N   0  0  0  0  0  0  0  0  0  0  0  0
   35.9670   31.8320   35.3390 C   0  0  0  0  0  2  0  0  0  0  0  0
   35.2160   31.7770   36.6280 C   0  0  0  0  0  2  0  0  0  0  0  0
   33.9030   32.5080   36.6250 C   0  0  0  0  0  3  0  0  0  0  0  0
   33.3870   32.2520   37.5650 H   0  0  0  0  0  0  0  0  0  0  0  0
   33.0550   31.9620   35.4700 C   0  0  0  0  0  2  0  0  0  0  0  0
   33.7880   32.4060   34.2140 C   0  0  0  0  0  2  0  0  0  0  0  0
   39.3200   23.8620   30.8990 Cl  0  0  0  0  0  0  0  0  0  0  0  0
   37.8200   23.0130   31.1230 C   0  0  0  0  0  0  0  0  0  0  0  0
   36.6970   23.5720   31.6480 C   0  0  0  0  0  0  0  0  0  0  0  0
   35.5040   22.9380   31.8370 C   0  0  0  0  0  0  0  0  0  0  0  0
   35.3930   21.5950   31.4700 C   0  0  0  0  0  0  0  0  0  0  0  0
   36.4950   20.9700   30.9320 C   0  0  0  0  0  0  0  0  0  0  0  0
   36.4290   19.2920   30.4490 Cl  0  0  0  0  0  0  0  0  0  0  0  0
   37.7040   21.6690   30.7570 C   0  0  0  0  0  0  0  0  0  0  0  0
   34.6130   23.3980   32.2590 H   0  0  0  0  0  0  0  0  0  0  0  0
   34.4670   21.0490   31.6000 H   0  0  0  0  0  0  0  0  0  0  0  0
   38.5830   21.1820   30.3310 H   0  0  0  0  0  0  0  0  0  0  0  0
  1  2  2  0  0  0  0
  2  6  1  0  0  0  0
  3  2  1  0  0  0  0
  3  7  1  0  0  0  0
  4  3  2  0  0  0  0
  5  4  1  0  0  0  0
  5  1  1  0  0  0  0
  8  9  2  0  0  0  0
  8 13  1  0  0  0  0
  9 10  1  0  0  0  0
 10  1  1  0  0  0  0
 10 11  2  0  0  0  0
 12 11  1  0  0  0  0
 12 16  1  0  0  0  0
 13 12  2  0  0  0  0
 14  8  1  0  0  0  0
 15  9  1  0  0  0  0
 16 22  1  0  0  0  0
 16 17  1  0  0  0  0
 17 18  1  0  0  0  0
 19 18  1  0  0  0  0
 19 20  1  0  0  0  0
 21 19  1  0  0  0  0
 22 21  1  0  0  0  0
 23 24  1  0  0  0  0
 24 25  1  0  0  0  0
 25 26  2  0  0  0  0
 25  4  1  0  0  0  0
 26 31  1  0  0  0  0
 27 32  1  0  0  0  0
 27 26  1  0  0  0  0
 28 27  2  0  0  0  0
 29 28  1  0  0  0  0
 30 28  1  0  0  0  0
 30 24  2  0  0  0  0
 33 30  1  0  0  0  0
M  END
>  <minimizedAffinity>
-5.91418123

$$$$
