
 OpenBabel03272505283D

 29 31  0  0  0  0  0  0  0  0999 V2000
   38.1530   23.8270   34.3920 N   0  0  0  0  0  0  0  0  0  0  0  0
   38.1330   25.1250   33.9880 C   0  0  0  0  0  0  0  0  0  0  0  0
   37.4880   25.5290   32.8290 C   0  0  0  0  0  0  0  0  0  0  0  0
   36.8440   24.5370   32.0740 C   0  0  0  0  0  0  0  0  0  0  0  0
   36.2480   24.8600   31.0200 O   0  0  0  0  0  0  0  0  0  0  0  0
   36.8660   23.2260   32.4860 N   0  0  0  0  0  0  0  0  0  0  0  0
   37.5180   22.9660   33.6130 C   0  0  0  0  0  0  0  0  0  0  0  0
   37.5170   21.7640   33.9520 O   0  0  0  0  0  0  0  0  0  0  0  0
   38.6280   25.8970   34.5660 H   0  0  0  0  0  0  0  0  0  0  0  0
   38.9120   23.2250   37.9740 C   0  0  0  0  0  0  0  0  0  0  0  0
   38.2550   23.6230   36.8030 C   0  0  0  0  0  0  0  0  0  0  0  0
   38.8110   23.4390   35.5620 C   0  0  0  0  0  0  0  0  0  0  0  0
   40.0360   22.8530   35.5030 N   0  0  0  0  0  0  0  0  0  0  0  0
   40.7000   22.4570   36.6210 C   0  0  0  0  0  0  0  0  0  0  0  0
   40.1420   22.6410   37.8540 N   0  0  0  0  0  0  0  0  0  0  0  0
   38.5290   23.3400   38.9780 H   0  0  0  0  0  0  0  0  0  0  0  0
   37.3280   24.0660   37.0490 H   0  0  0  0  0  0  0  0  0  0  0  0
   41.6770   21.9900   36.5760 H   0  0  0  0  0  0  0  0  0  0  0  0
   37.4720   26.8910   32.4120 N   0  0  0  0  0  0  0  0  0  0  0  0
   38.3590   27.5100   31.4420 C   0  0  0  0  0  2  0  0  0  0  0  0
   37.5650   28.2600   30.4040 C   0  0  0  0  0  2  0  0  0  0  0  0
   36.8610   29.3910   31.1440 C   0  0  0  0  0  3  0  0  0  0  0  0
   36.2750   29.9660   30.4020 H   0  0  0  0  0  0  0  0  0  0  0  0
   35.8970   28.7700   32.0940 C   0  0  0  0  0  2  0  0  0  0  0  0
   36.4830   27.7370   33.0110 C   0  0  0  0  0  2  0  0  0  0  0  0
   36.1920   22.2080   31.7030 C   0  0  0  0  0  0  0  0  0  0  0  0
   35.4090   22.7860   30.7580 F   0  0  0  0  0  0  0  0  0  0  0  0
   35.3600   21.4050   32.4670 F   0  0  0  0  0  0  0  0  0  0  0  0
   37.1530   21.4360   31.0640 F   0  0  0  0  0  0  0  0  0  0  0  0
  1 12  1  0  0  0  0
  2  1  1  0  0  0  0
  2  9  1  0  0  0  0
  3  2  2  0  0  0  0
  4  6  1  0  0  0  0
  4  3  1  0  0  0  0
  5  4  2  0  0  0  0
  6  7  1  0  0  0  0
  7  8  2  0  0  0  0
  7  1  1  0  0  0  0
 10 16  1  0  0  0  0
 11 17  1  0  0  0  0
 11 10  2  0  0  0  0
 12 11  1  0  0  0  0
 13 12  2  0  0  0  0
 13 14  1  0  0  0  0
 14 15  2  0  0  0  0
 15 10  1  0  0  0  0
 18 14  1  0  0  0  0
 19  3  1  0  0  0  0
 19 25  1  0  0  0  0
 20 19  1  0  0  0  0
 21 22  1  0  0  0  0
 21 20  1  0  0  0  0
 22 24  1  0  0  0  0
 23 22  1  0  0  0  0
 24 25  1  0  0  0  0
 26 28  1  0  0  0  0
 26  6  1  0  0  0  0
 27 26  1  0  0  0  0
 29 26  1  0  0  0  0
M  END
>  <minimizedAffinity>
-5.68695641

$$$$

 OpenBabel03272505283D

 29 31  0  0  0  0  0  0  0  0999 V2000
   38.1720   24.1180   34.7220 N   0  0  0  0  0  0  0  0  0  0  0  0
   37.8100   23.1520   33.8360 C   0  0  0  0  0  0  0  0  0  0  0  0
   37.5150   23.4370   32.5110 C   0  0  0  0  0  0  0  0  0  0  0  0
   37.6050   24.7780   32.1080 C   0  0  0  0  0  0  0  0  0  0  0  0
   37.3480   25.0780   30.9190 O   0  0  0  0  0  0  0  0  0  0  0  0
   37.9720   25.7510   33.0060 N   0  0  0  0  0  0  0  0  0  0  0  0
   38.2280   25.3520   34.2460 C   0  0  0  0  0  0  0  0  0  0  0  0
   38.5550   26.2650   35.0330 O   0  0  0  0  0  0  0  0  0  0  0  0
   37.7390   22.1140   34.1400 H   0  0  0  0  0  0  0  0  0  0  0  0
   39.9210   22.8840   37.7530 C   0  0  0  0  0  0  0  0  0  0  0  0
   39.6270   23.1820   36.4180 C   0  0  0  0  0  0  0  0  0  0  0  0
   38.4630   23.8110   36.0550 C   0  0  0  0  0  0  0  0  0  0  0  0
   37.5910   24.1380   37.0440 N   0  0  0  0  0  0  0  0  0  0  0  0
   37.8460   23.8610   38.3500 C   0  0  0  0  0  0  0  0  0  0  0  0
   39.0070   23.2370   38.7070 N   0  0  0  0  0  0  0  0  0  0  0  0
   40.8170   22.3940   38.1040 H   0  0  0  0  0  0  0  0  0  0  0  0
   40.4120   22.8440   35.7970 H   0  0  0  0  0  0  0  0  0  0  0  0
   37.1510   24.1210   39.1400 H   0  0  0  0  0  0  0  0  0  0  0  0
   37.1360   22.4190   31.5890 N   0  0  0  0  0  0  0  0  0  0  0  0
   38.0140   21.7090   30.6750 C   0  0  0  0  0  2  0  0  0  0  0  0
   37.8200   20.2200   30.8070 C   0  0  0  0  0  2  0  0  0  0  0  0
   36.3920   19.9360   30.3600 C   0  0  0  0  0  3  0  0  0  0  0  0
   36.2240   18.8450   30.4390 H   0  0  0  0  0  0  0  0  0  0  0  0
   35.4800   20.6020   31.3310 C   0  0  0  0  0  2  0  0  0  0  0  0
   35.7500   22.0600   31.5600 C   0  0  0  0  0  2  0  0  0  0  0  0
   38.0690   27.1340   32.5800 C   0  0  0  0  0  0  0  0  0  0  0  0
   37.4210   27.9410   33.4570 F   0  0  0  0  0  0  0  0  0  0  0  0
   37.4900   27.3560   31.3400 F   0  0  0  0  0  0  0  0  0  0  0  0
   39.4090   27.4950   32.5570 F   0  0  0  0  0  0  0  0  0  0  0  0
  1 12  1  0  0  0  0
  2  9  1  0  0  0  0
  2  1  1  0  0  0  0
  3  2  2  0  0  0  0
  4  3  1  0  0  0  0
  4  6  1  0  0  0  0
  5  4  2  0  0  0  0
  6  7  1  0  0  0  0
  7  1  1  0  0  0  0
  7  8  2  0  0  0  0
 10 16  1  0  0  0  0
 10 15  1  0  0  0  0
 11 10  2  0  0  0  0
 12 11  1  0  0  0  0
 12 13  2  0  0  0  0
 13 14  1  0  0  0  0
 14 15  2  0  0  0  0
 14 18  1  0  0  0  0
 17 11  1  0  0  0  0
 19  3  1  0  0  0  0
 20 21  1  0  0  0  0
 20 19  1  0  0  0  0
 22 23  1  0  0  0  0
 22 21  1  0  0  0  0
 22 24  1  0  0  0  0
 24 25  1  0  0  0  0
 25 19  1  0  0  0  0
 26  6  1  0  0  0  0
 26 27  1  0  0  0  0
 28 26  1  0  0  0  0
 29 26  1  0  0  0  0
M  END
>  <minimizedAffinity>
-5.68037462

$$$$

 OpenBabel03272505283D

 29 31  0  0  0  0  0  0  0  0999 V2000
   37.2940   24.8770   32.5330 N   0  0  0  0  0  0  0  0  0  0  0  0
   37.9320   24.4980   33.6730 C   0  0  0  0  0  0  0  0  0  0  0  0
   37.8930   23.1940   34.1430 C   0  0  0  0  0  0  0  0  0  0  0  0
   37.1600   22.2630   33.3910 C   0  0  0  0  0  0  0  0  0  0  0  0
   37.1000   21.0730   33.7810 O   0  0  0  0  0  0  0  0  0  0  0  0
   36.5170   22.6500   32.2400 N   0  0  0  0  0  0  0  0  0  0  0  0
   36.6300   23.9270   31.8950 C   0  0  0  0  0  0  0  0  0  0  0  0
   36.0300   24.2400   30.8460 O   0  0  0  0  0  0  0  0  0  0  0  0
   38.4990   25.2120   34.2590 H   0  0  0  0  0  0  0  0  0  0  0  0
   38.3390   27.9430   30.7230 C   0  0  0  0  0  0  0  0  0  0  0  0
   38.2960   26.6230   31.1860 C   0  0  0  0  0  0  0  0  0  0  0  0
   37.3430   26.1980   32.0770 C   0  0  0  0  0  0  0  0  0  0  0  0
   36.4300   27.1100   32.5030 N   0  0  0  0  0  0  0  0  0  0  0  0
   36.4450   28.3990   32.0730 C   0  0  0  0  0  0  0  0  0  0  0  0
   37.3950   28.8180   31.1850 N   0  0  0  0  0  0  0  0  0  0  0  0
   39.0600   28.3400   30.0230 H   0  0  0  0  0  0  0  0  0  0  0  0
   39.0870   26.0700   30.7560 H   0  0  0  0  0  0  0  0  0  0  0  0
   35.7170   29.1280   32.4120 H   0  0  0  0  0  0  0  0  0  0  0  0
   38.5640   22.8050   35.3380 N   0  0  0  0  0  0  0  0  0  0  0  0
   39.9060   22.2580   35.4380 C   0  0  0  0  0  2  0  0  0  0  0  0
   40.7100   23.0180   36.4610 C   0  0  0  0  0  2  0  0  0  0  0  0
   40.0310   22.7730   37.8030 C   0  0  0  0  0  3  0  0  0  0  0  0
   40.6080   23.3150   38.5770 H   0  0  0  0  0  0  0  0  0  0  0  0
   38.6780   23.3910   37.7370 C   0  0  0  0  0  2  0  0  0  0  0  0
   37.8410   22.9690   36.5640 C   0  0  0  0  0  2  0  0  0  0  0  0
   35.7680   21.6790   31.4650 C   0  0  0  0  0  0  0  0  0  0  0  0
   35.1490   22.2900   30.4240 F   0  0  0  0  0  0  0  0  0  0  0  0
   34.7750   21.0550   32.2020 F   0  0  0  0  0  0  0  0  0  0  0  0
   36.6560   20.7390   30.9600 F   0  0  0  0  0  0  0  0  0  0  0  0
  1  2  1  0  0  0  0
  2  3  2  0  0  0  0
  2  9  1  0  0  0  0
  3 19  1  0  0  0  0
  4  5  2  0  0  0  0
  4  3  1  0  0  0  0
  6  4  1  0  0  0  0
  7  6  1  0  0  0  0
  7  1  1  0  0  0  0
  8  7  2  0  0  0  0
 10 15  2  0  0  0  0
 10 11  1  0  0  0  0
 11 12  2  0  0  0  0
 12 13  1  0  0  0  0
 12  1  1  0  0  0  0
 14 18  1  0  0  0  0
 14 13  2  0  0  0  0
 15 14  1  0  0  0  0
 16 10  1  0  0  0  0
 17 11  1  0  0  0  0
 19 20  1  0  0  0  0
 19 25  1  0  0  0  0
 20 21  1  0  0  0  0
 21 22  1  0  0  0  0
 22 23  1  0  0  0  0
 24 22  1  0  0  0  0
 25 24  1  0  0  0  0
 26 28  1  0  0  0  0
 26  6  1  0  0  0  0
 27 26  1  0  0  0  0
 29 26  1  0  0  0  0
M  END
>  <minimizedAffinity>
-5.67378569

$$$$

 OpenBabel03272505283D

 29 31  0  0  0  0  0  0  0  0999 V2000
   37.9260   23.3260   34.3570 N   0  0  0  0  0  0  0  0  0  0  0  0
   37.9140   24.5160   33.6990 C   0  0  0  0  0  0  0  0  0  0  0  0
   37.2550   24.6850   32.4900 C   0  0  0  0  0  0  0  0  0  0  0  0
   36.5920   23.5680   31.9590 C   0  0  0  0  0  0  0  0  0  0  0  0
   35.9840   23.6790   30.8690 O   0  0  0  0  0  0  0  0  0  0  0  0
   36.6070   22.3670   32.6270 N   0  0  0  0  0  0  0  0  0  0  0  0
   37.2730   22.3330   33.7750 C   0  0  0  0  0  0  0  0  0  0  0  0
   37.2650   21.2250   34.3510 O   0  0  0  0  0  0  0  0  0  0  0  0
   38.4240   25.3830   34.1030 H   0  0  0  0  0  0  0  0  0  0  0  0
   38.6960   23.3730   37.9870 C   0  0  0  0  0  0  0  0  0  0  0  0
   38.0260   23.5330   36.7680 C   0  0  0  0  0  0  0  0  0  0  0  0
   38.5980   23.1740   35.5740 C   0  0  0  0  0  0  0  0  0  0  0  0
   39.8520   22.6530   35.6090 N   0  0  0  0  0  0  0  0  0  0  0  0
   40.5300   22.4850   36.7760 C   0  0  0  0  0  0  0  0  0  0  0  0
   39.9560   22.8430   37.9630 N   0  0  0  0  0  0  0  0  0  0  0  0
   38.3020   23.6330   38.9590 H   0  0  0  0  0  0  0  0  0  0  0  0
   37.0750   23.9610   36.9390 H   0  0  0  0  0  0  0  0  0  0  0  0
   41.5310   22.0700   36.8060 H   0  0  0  0  0  0  0  0  0  0  0  0
   37.2470   25.9350   31.8070 N   0  0  0  0  0  0  0  0  0  0  0  0
   36.2100   26.9500   31.8730 C   0  0  0  0  0  2  0  0  0  0  0  0
   36.8100   28.2980   32.1840 C   0  0  0  0  0  2  0  0  0  0  0  0
   37.6990   28.6500   30.9980 C   0  0  0  0  0  3  0  0  0  0  0  0
   38.1480   29.6430   31.1960 H   0  0  0  0  0  0  0  0  0  0  0  0
   38.8070   27.6560   30.9610 C   0  0  0  0  0  2  0  0  0  0  0  0
   38.3740   26.2190   30.9690 C   0  0  0  0  0  2  0  0  0  0  0  0
   35.9130   21.2200   32.0750 C   0  0  0  0  0  0  0  0  0  0  0  0
   36.5060   20.0720   32.4870 F   0  0  0  0  0  0  0  0  0  0  0  0
   35.9310   21.1970   30.6890 F   0  0  0  0  0  0  0  0  0  0  0  0
   34.6050   21.2310   32.5390 F   0  0  0  0  0  0  0  0  0  0  0  0
  1 12  1  0  0  0  0
  2  9  1  0  0  0  0
  2  1  1  0  0  0  0
  3  2  2  0  0  0  0
  4  3  1  0  0  0  0
  4  6  1  0  0  0  0
  5  4  2  0  0  0  0
  6  7  1  0  0  0  0
  7  8  2  0  0  0  0
  7  1  1  0  0  0  0
 10 16  1  0  0  0  0
 11 17  1  0  0  0  0
 11 10  2  0  0  0  0
 12 13  2  0  0  0  0
 12 11  1  0  0  0  0
 13 14  1  0  0  0  0
 14 18  1  0  0  0  0
 14 15  2  0  0  0  0
 15 10  1  0  0  0  0
 19 20  1  0  0  0  0
 19  3  1  0  0  0  0
 20 21  1  0  0  0  0
 22 23  1  0  0  0  0
 22 21  1  0  0  0  0
 24 25  1  0  0  0  0
 24 22  1  0  0  0  0
 25 19  1  0  0  0  0
 26 27  1  0  0  0  0
 26 29  1  0  0  0  0
 26  6  1  0  0  0  0
 28 26  1  0  0  0  0
M  END
>  <minimizedAffinity>
-5.58589172

$$$$

 OpenBabel03272505283D

 29 31  0  0  0  0  0  0  0  0999 V2000
   36.5010   27.1750   32.6570 N   0  0  0  0  0  0  0  0  0  0  0  0
   36.4560   26.0310   31.9220 C   0  0  0  0  0  0  0  0  0  0  0  0
   36.9810   24.8340   32.3850 C   0  0  0  0  0  0  0  0  0  0  0  0
   37.5700   24.8430   33.6590 C   0  0  0  0  0  0  0  0  0  0  0  0
   38.0560   23.7810   34.1150 O   0  0  0  0  0  0  0  0  0  0  0  0
   37.6130   26.0000   34.3980 N   0  0  0  0  0  0  0  0  0  0  0  0
   37.0770   27.0810   33.8440 C   0  0  0  0  0  0  0  0  0  0  0  0
   37.1380   28.1120   34.5450 O   0  0  0  0  0  0  0  0  0  0  0  0
   36.0020   26.0180   30.9380 H   0  0  0  0  0  0  0  0  0  0  0  0
   36.0840   30.3260   30.7410 C   0  0  0  0  0  0  0  0  0  0  0  0
   36.6230   29.1320   31.2330 C   0  0  0  0  0  0  0  0  0  0  0  0
   35.9680   28.3730   32.1710 C   0  0  0  0  0  0  0  0  0  0  0  0
   34.7660   28.8240   32.6150 N   0  0  0  0  0  0  0  0  0  0  0  0
   34.2160   29.9800   32.1580 C   0  0  0  0  0  0  0  0  0  0  0  0
   34.8700   30.7310   31.2240 N   0  0  0  0  0  0  0  0  0  0  0  0
   36.5460   30.9670   30.0040 H   0  0  0  0  0  0  0  0  0  0  0  0
   37.5620   28.9540   30.7830 H   0  0  0  0  0  0  0  0  0  0  0  0
   33.2570   30.3400   32.5120 H   0  0  0  0  0  0  0  0  0  0  0  0
   36.9300   23.6410   31.6100 N   0  0  0  0  0  0  0  0  0  0  0  0
   37.9840   23.1160   30.7580 C   0  0  0  0  0  2  0  0  0  0  0  0
   38.2490   21.6680   31.0790 C   0  0  0  0  0  2  0  0  0  0  0  0
   36.9750   20.9130   30.7220 C   0  0  0  0  0  3  0  0  0  0  0  0
   37.1450   19.8410   30.9390 H   0  0  0  0  0  0  0  0  0  0  0  0
   35.9020   21.3920   31.6360 C   0  0  0  0  0  2  0  0  0  0  0  0
   35.7170   22.8810   31.6750 C   0  0  0  0  0  2  0  0  0  0  0  0
   38.2180   25.9980   35.7160 C   0  0  0  0  0  0  0  0  0  0  0  0
   37.6040   25.0850   36.5110 F   0  0  0  0  0  0  0  0  0  0  0  0
   38.1070   27.2190   36.3610 F   0  0  0  0  0  0  0  0  0  0  0  0
   39.5540   25.6410   35.5870 F   0  0  0  0  0  0  0  0  0  0  0  0
  1  7  1  0  0  0  0
  2  3  2  0  0  0  0
  2  1  1  0  0  0  0
  3  4  1  0  0  0  0
  4  5  2  0  0  0  0
  4  6  1  0  0  0  0
  6 26  1  0  0  0  0
  7  6  1  0  0  0  0
  7  8  2  0  0  0  0
  9  2  1  0  0  0  0
 10 15  2  0  0  0  0
 10 11  1  0  0  0  0
 11 12  2  0  0  0  0
 12 13  1  0  0  0  0
 12  1  1  0  0  0  0
 14 18  1  0  0  0  0
 14 13  2  0  0  0  0
 15 14  1  0  0  0  0
 16 10  1  0  0  0  0
 17 11  1  0  0  0  0
 19 25  1  0  0  0  0
 19  3  1  0  0  0  0
 20 21  1  0  0  0  0
 20 19  1  0  0  0  0
 22 23  1  0  0  0  0
 22 21  1  0  0  0  0
 22 24  1  0  0  0  0
 24 25  1  0  0  0  0
 26 28  1  0  0  0  0
 26 27  1  0  0  0  0
 29 26  1  0  0  0  0
M  END
>  <minimizedAffinity>
-5.51410818

$$$$

 OpenBabel03272505283D

 29 31  0  0  0  0  0  0  0  0999 V2000
   37.2200   22.9020   32.6590 N   0  0  0  0  0  0  0  0  0  0  0  0
   37.6970   22.8870   33.9330 C   0  0  0  0  0  0  0  0  0  0  0  0
   38.0810   24.0460   34.5920 C   0  0  0  0  0  0  0  0  0  0  0  0
   37.9600   25.2540   33.8880 C   0  0  0  0  0  0  0  0  0  0  0  0
   38.2970   26.3240   34.4480 O   0  0  0  0  0  0  0  0  0  0  0  0
   37.4780   25.2640   32.6020 N   0  0  0  0  0  0  0  0  0  0  0  0
   37.1430   24.0900   32.0810 C   0  0  0  0  0  0  0  0  0  0  0  0
   36.7120   24.1410   30.9100 O   0  0  0  0  0  0  0  0  0  0  0  0
   37.7930   21.9580   34.4820 H   0  0  0  0  0  0  0  0  0  0  0  0
   37.2950   19.8860   30.4980 C   0  0  0  0  0  0  0  0  0  0  0  0
   37.6740   21.0710   31.1400 C   0  0  0  0  0  0  0  0  0  0  0  0
   36.8390   21.7230   32.0110 C   0  0  0  0  0  0  0  0  0  0  0  0
   35.6150   21.1770   32.2360 N   0  0  0  0  0  0  0  0  0  0  0  0
   35.2160   20.0280   31.6290 C   0  0  0  0  0  0  0  0  0  0  0  0
   36.0520   19.3820   30.7630 N   0  0  0  0  0  0  0  0  0  0  0  0
   37.9040   19.3250   29.8050 H   0  0  0  0  0  0  0  0  0  0  0  0
   38.6470   21.3460   30.8330 H   0  0  0  0  0  0  0  0  0  0  0  0
   34.2400   19.5920   31.8070 H   0  0  0  0  0  0  0  0  0  0  0  0
   38.5800   24.0220   35.9260 N   0  0  0  0  0  0  0  0  0  0  0  0
   37.8860   24.4790   37.1170 C   0  0  0  0  0  2  0  0  0  0  0  0
   37.9170   23.4170   38.1860 C   0  0  0  0  0  2  0  0  0  0  0  0
   39.3810   23.2400   38.5670 C   0  0  0  0  0  3  0  0  0  0  0  0
   39.4340   22.4690   39.3600 H   0  0  0  0  0  0  0  0  0  0  0  0
   40.0910   22.7040   37.3720 C   0  0  0  0  0  2  0  0  0  0  0  0
   39.8990   23.4940   36.1110 C   0  0  0  0  0  2  0  0  0  0  0  0
   37.3490   26.5180   31.8850 C   0  0  0  0  0  0  0  0  0  0  0  0
   37.6780   26.3470   30.5800 F   0  0  0  0  0  0  0  0  0  0  0  0
   38.1890   27.5060   32.3750 F   0  0  0  0  0  0  0  0  0  0  0  0
   36.0260   26.9320   31.9540 F   0  0  0  0  0  0  0  0  0  0  0  0
  1  2  1  0  0  0  0
  2  9  1  0  0  0  0
  2  3  2  0  0  0  0
  3 19  1  0  0  0  0
  4  5  2  0  0  0  0
  4  3  1  0  0  0  0
  6  4  1  0  0  0  0
  7  6  1  0  0  0  0
  7  1  1  0  0  0  0
  8  7  2  0  0  0  0
 10 15  2  0  0  0  0
 10 11  1  0  0  0  0
 11 12  2  0  0  0  0
 12 13  1  0  0  0  0
 12  1  1  0  0  0  0
 14 18  1  0  0  0  0
 14 13  2  0  0  0  0
 15 14  1  0  0  0  0
 16 10  1  0  0  0  0
 17 11  1  0  0  0  0
 19 25  1  0  0  0  0
 19 20  1  0  0  0  0
 20 21  1  0  0  0  0
 21 22  1  0  0  0  0
 22 23  1  0  0  0  0
 24 22  1  0  0  0  0
 25 24  1  0  0  0  0
 26 29  1  0  0  0  0
 26 28  1  0  0  0  0
 26  6  1  0  0  0  0
 27 26  1  0  0  0  0
M  END
>  <minimizedAffinity>
-5.50859833

$$$$

 OpenBabel03272505283D

 29 31  0  0  0  0  0  0  0  0999 V2000
   37.2910   25.4510   32.3710 N   0  0  0  0  0  0  0  0  0  0  0  0
   37.9350   25.3240   33.5620 C   0  0  0  0  0  0  0  0  0  0  0  0
   38.0150   24.1130   34.2330 C   0  0  0  0  0  0  0  0  0  0  0  0
   37.3990   23.0050   33.6330 C   0  0  0  0  0  0  0  0  0  0  0  0
   37.4480   21.8920   34.2070 O   0  0  0  0  0  0  0  0  0  0  0  0
   36.7490   23.1370   32.4290 N   0  0  0  0  0  0  0  0  0  0  0  0
   36.7420   24.3490   31.8860 C   0  0  0  0  0  0  0  0  0  0  0  0
   36.1400   24.4290   30.7950 O   0  0  0  0  0  0  0  0  0  0  0  0
   38.4140   26.1760   34.0310 H   0  0  0  0  0  0  0  0  0  0  0  0
   36.1960   28.8490   31.3580 C   0  0  0  0  0  0  0  0  0  0  0  0
   36.2610   27.6150   32.0140 C   0  0  0  0  0  0  0  0  0  0  0  0
   37.2190   26.6810   31.7100 C   0  0  0  0  0  0  0  0  0  0  0  0
   38.1150   26.9950   30.7370 N   0  0  0  0  0  0  0  0  0  0  0  0
   38.0790   28.1850   30.0810 C   0  0  0  0  0  0  0  0  0  0  0  0
   37.1240   29.1110   30.3890 N   0  0  0  0  0  0  0  0  0  0  0  0
   35.4700   29.6260   31.5510 H   0  0  0  0  0  0  0  0  0  0  0  0
   35.4810   27.5480   32.7240 H   0  0  0  0  0  0  0  0  0  0  0  0
   38.7930   28.4360   29.3040 H   0  0  0  0  0  0  0  0  0  0  0  0
   38.6910   23.9890   35.4810 N   0  0  0  0  0  0  0  0  0  0  0  0
   38.1700   24.3510   36.7880 C   0  0  0  0  0  2  0  0  0  0  0  0
   38.3390   23.2100   37.7580 C   0  0  0  0  0  2  0  0  0  0  0  0
   39.8400   23.0090   37.9200 C   0  0  0  0  0  3  0  0  0  0  0  0
   39.9940   22.1800   38.6370 H   0  0  0  0  0  0  0  0  0  0  0  0
   40.3760   22.5690   36.6020 C   0  0  0  0  0  2  0  0  0  0  0  0
   40.0190   23.4530   35.4430 C   0  0  0  0  0  2  0  0  0  0  0  0
   36.1210   21.9850   31.8130 C   0  0  0  0  0  0  0  0  0  0  0  0
   35.3150   22.3800   30.7950 F   0  0  0  0  0  0  0  0  0  0  0  0
   35.3220   21.2730   32.6930 F   0  0  0  0  0  0  0  0  0  0  0  0
   37.1150   21.1660   31.2940 F   0  0  0  0  0  0  0  0  0  0  0  0
  1  2  1  0  0  0  0
  2  9  1  0  0  0  0
  2  3  2  0  0  0  0
  3 19  1  0  0  0  0
  4  5  2  0  0  0  0
  4  3  1  0  0  0  0
  6  4  1  0  0  0  0
  7  1  1  0  0  0  0
  7  6  1  0  0  0  0
  8  7  2  0  0  0  0
 10 16  1  0  0  0  0
 10 11  1  0  0  0  0
 11 17  1  0  0  0  0
 12 11  2  0  0  0  0
 12  1  1  0  0  0  0
 13 12  1  0  0  0  0
 14 15  1  0  0  0  0
 14 13  2  0  0  0  0
 15 10  2  0  0  0  0
 18 14  1  0  0  0  0
 19 20  1  0  0  0  0
 20 21  1  0  0  0  0
 21 22  1  0  0  0  0
 22 23  1  0  0  0  0
 24 22  1  0  0  0  0
 25 19  1  0  0  0  0
 25 24  1  0  0  0  0
 26  6  1  0  0  0  0
 26 28  1  0  0  0  0
 27 26  1  0  0  0  0
 29 26  1  0  0  0  0
M  END
>  <minimizedAffinity>
-5.49081469

$$$$

 OpenBabel03272505283D

 29 31  0  0  0  0  0  0  0  0999 V2000
   37.7550   22.7750   33.8120 N   0  0  0  0  0  0  0  0  0  0  0  0
   37.7570   23.9630   33.1480 C   0  0  0  0  0  0  0  0  0  0  0  0
   37.9210   25.1750   33.8030 C   0  0  0  0  0  0  0  0  0  0  0  0
   38.0870   25.1340   35.1950 C   0  0  0  0  0  0  0  0  0  0  0  0
   38.2390   26.2080   35.8250 O   0  0  0  0  0  0  0  0  0  0  0  0
   38.0850   23.9330   35.8620 N   0  0  0  0  0  0  0  0  0  0  0  0
   37.9190   22.8420   35.1240 C   0  0  0  0  0  0  0  0  0  0  0  0
   37.9210   21.7710   35.7650 O   0  0  0  0  0  0  0  0  0  0  0  0
   37.6290   24.0010   32.0730 H   0  0  0  0  0  0  0  0  0  0  0  0
   36.1870   19.7630   32.3160 C   0  0  0  0  0  0  0  0  0  0  0  0
   36.3560   20.9720   33.0020 C   0  0  0  0  0  0  0  0  0  0  0  0
   37.5860   21.5640   33.1350 C   0  0  0  0  0  0  0  0  0  0  0  0
   38.6510   20.9330   32.5740 N   0  0  0  0  0  0  0  0  0  0  0  0
   38.5210   19.7580   31.9030 C   0  0  0  0  0  0  0  0  0  0  0  0
   37.2940   19.1730   31.7720 N   0  0  0  0  0  0  0  0  0  0  0  0
   35.2490   19.2470   32.1750 H   0  0  0  0  0  0  0  0  0  0  0  0
   35.4240   21.3010   33.3760 H   0  0  0  0  0  0  0  0  0  0  0  0
   39.3700   19.2540   31.4550 H   0  0  0  0  0  0  0  0  0  0  0  0
   37.9210   26.4140   33.1000 N   0  0  0  0  0  0  0  0  0  0  0  0
   39.0830   27.1150   32.5830 C   0  0  0  0  0  2  0  0  0  0  0  0
   38.8790   27.4780   31.1350 C   0  0  0  0  0  2  0  0  0  0  0  0
   37.7180   28.4630   31.1030 C   0  0  0  0  0  3  0  0  0  0  0  0
   37.5510   28.7540   30.0480 H   0  0  0  0  0  0  0  0  0  0  0  0
   36.5040   27.7350   31.5650 C   0  0  0  0  0  2  0  0  0  0  0  0
   36.6460   27.0310   32.8830 C   0  0  0  0  0  2  0  0  0  0  0  0
   38.2650   23.9000   37.3000 C   0  0  0  0  0  0  0  0  0  0  0  0
   37.3600   23.0630   37.8660 F   0  0  0  0  0  0  0  0  0  0  0  0
   38.0790   25.1390   37.8940 F   0  0  0  0  0  0  0  0  0  0  0  0
   39.5390   23.4210   37.5750 F   0  0  0  0  0  0  0  0  0  0  0  0
  1  7  1  0  0  0  0
  2  3  2  0  0  0  0
  2  1  1  0  0  0  0
  3  4  1  0  0  0  0
  4  5  2  0  0  0  0
  4  6  1  0  0  0  0
  6 26  1  0  0  0  0
  7  8  2  0  0  0  0
  7  6  1  0  0  0  0
  9  2  1  0  0  0  0
 10 11  1  0  0  0  0
 11 12  2  0  0  0  0
 11 17  1  0  0  0  0
 12  1  1  0  0  0  0
 13 12  1  0  0  0  0
 14 13  2  0  0  0  0
 15 14  1  0  0  0  0
 15 10  2  0  0  0  0
 16 10  1  0  0  0  0
 18 14  1  0  0  0  0
 19  3  1  0  0  0  0
 20 19  1  0  0  0  0
 21 20  1  0  0  0  0
 22 21  1  0  0  0  0
 22 24  1  0  0  0  0
 23 22  1  0  0  0  0
 24 25  1  0  0  0  0
 25 19  1  0  0  0  0
 26 29  1  0  0  0  0
 26 27  1  0  0  0  0
 26 28  1  0  0  0  0
M  END
>  <minimizedAffinity>
-5.46366835

$$$$

 OpenBabel03272505283D

 29 31  0  0  0  0  0  0  0  0999 V2000
   36.0780   28.1600   32.0800 N   0  0  0  0  0  0  0  0  0  0  0  0
   35.6980   28.6570   33.2880 C   0  0  0  0  0  0  0  0  0  0  0  0
   35.5940   30.0190   33.5270 C   0  0  0  0  0  0  0  0  0  0  0  0
   35.9000   30.8820   32.4640 C   0  0  0  0  0  0  0  0  0  0  0  0
   35.8180   32.1210   32.6390 O   0  0  0  0  0  0  0  0  0  0  0  0
   36.2840   30.3760   31.2450 N   0  0  0  0  0  0  0  0  0  0  0  0
   36.3460   29.0540   31.1420 C   0  0  0  0  0  0  0  0  0  0  0  0
   36.7000   28.6340   30.0210 O   0  0  0  0  0  0  0  0  0  0  0  0
   35.4600   27.9960   34.1140 H   0  0  0  0  0  0  0  0  0  0  0  0
   37.3510   24.6750   32.0820 C   0  0  0  0  0  0  0  0  0  0  0  0
   37.2560   26.0550   32.2970 C   0  0  0  0  0  0  0  0  0  0  0  0
   36.1790   26.7840   31.8590 C   0  0  0  0  0  0  0  0  0  0  0  0
   35.1950   26.1170   31.2010 N   0  0  0  0  0  0  0  0  0  0  0  0
   35.2580   24.7780   30.9760 C   0  0  0  0  0  0  0  0  0  0  0  0
   36.3310   24.0560   31.4150 N   0  0  0  0  0  0  0  0  0  0  0  0
   38.1690   24.0450   32.4020 H   0  0  0  0  0  0  0  0  0  0  0  0
   38.1150   26.3950   32.8100 H   0  0  0  0  0  0  0  0  0  0  0  0
   34.4730   24.2450   30.4510 H   0  0  0  0  0  0  0  0  0  0  0  0
   35.1950   30.5310   34.7950 N   0  0  0  0  0  0  0  0  0  0  0  0
   36.0610   31.1220   35.8010 C   0  0  0  0  0  2  0  0  0  0  0  0
   35.5170   32.4550   36.2490 C   0  0  0  0  0  2  0  0  0  0  0  0
   34.1850   32.1640   36.9270 C   0  0  0  0  0  3  0  0  0  0  0  0
   33.7650   33.1280   37.2750 H   0  0  0  0  0  0  0  0  0  0  0  0
   33.2650   31.6230   35.8890 C   0  0  0  0  0  2  0  0  0  0  0  0
   33.7990   30.4560   35.1100 C   0  0  0  0  0  2  0  0  0  0  0  0
   36.5920   31.2760   30.1510 C   0  0  0  0  0  0  0  0  0  0  0  0
   35.5470   32.1120   29.9250 F   0  0  0  0  0  0  0  0  0  0  0  0
   36.8270   30.6100   28.9580 F   0  0  0  0  0  0  0  0  0  0  0  0
   37.6970   32.0380   30.5040 F   0  0  0  0  0  0  0  0  0  0  0  0
  1  2  1  0  0  0  0
  2  3  2  0  0  0  0
  2  9  1  0  0  0  0
  3 19  1  0  0  0  0
  4  5  2  0  0  0  0
  4  3  1  0  0  0  0
  6  4  1  0  0  0  0
  7  6  1  0  0  0  0
  7  1  1  0  0  0  0
  8  7  2  0  0  0  0
 10 11  1  0  0  0  0
 10 16  1  0  0  0  0
 11 17  1  0  0  0  0
 12  1  1  0  0  0  0
 12 11  2  0  0  0  0
 13 12  1  0  0  0  0
 14 13  2  0  0  0  0
 14 15  1  0  0  0  0
 15 10  2  0  0  0  0
 18 14  1  0  0  0  0
 19 25  1  0  0  0  0
 19 20  1  0  0  0  0
 20 21  1  0  0  0  0
 21 22  1  0  0  0  0
 22 23  1  0  0  0  0
 24 22  1  0  0  0  0
 25 24  1  0  0  0  0
 26 29  1  0  0  0  0
 26  6  1  0  0  0  0
 27 26  1  0  0  0  0
 28 26  1  0  0  0  0
M  END
>  <minimizedAffinity>
-5.34527922

$$$$
