
 OpenBabel03272502243D

 27 29  0  0  0  0  0  0  0  0999 V2000
   36.6090   23.0870   31.5890 C   0  0  0  0  0  0  0  0  0  0  0  0
   37.3580   22.6950   32.6960 C   0  0  0  0  0  0  0  0  0  0  0  0
   37.8170   23.6570   33.5700 C   0  0  0  0  0  0  0  0  0  0  0  0
   37.5060   24.9400   33.2920 N   0  0  0  0  0  0  0  0  0  0  0  0
   36.7810   25.3100   32.2190 C   0  0  0  0  0  0  0  0  0  0  0  0
   36.3300   24.3780   31.3620 N   0  0  0  0  0  0  0  0  0  0  0  0
   36.2570   22.3060   30.9120 H   0  0  0  0  0  0  0  0  0  0  0  0
   37.6160   21.6830   32.9350 H   0  0  0  0  0  0  0  0  0  0  0  0
   36.4890   26.6820   31.9850 N   0  0  0  0  0  0  0  0  0  0  0  0
   36.3120   27.2000   30.6420 C   0  0  0  0  0  2  0  0  0  0  0  0
   37.2010   28.4230   30.5560 C   0  0  0  0  0  2  0  0  0  0  0  0
   36.8130   29.4710   31.5500 C   0  0  0  0  0  3  0  0  0  0  0  0
   36.4200   30.3680   31.0500 H   0  0  0  0  0  0  0  0  0  0  0  0
   35.8200   28.9300   32.5570 C   0  0  0  0  0  2  0  0  0  0  0  0
   36.3600   27.6030   33.0970 C   0  0  0  0  0  2  0  0  0  0  0  0
   38.6020   23.3740   34.7640 C   0  0  0  0  0  0  0  0  0  0  0  0
   39.8460   22.7710   34.6880 C   0  0  0  0  0  0  0  0  0  0  0  0
   40.6110   22.4950   35.8040 C   0  0  0  0  0  0  0  0  0  0  0  0
   40.1310   22.8220   37.0250 N   0  0  0  0  0  0  0  0  0  0  0  0
   38.9300   23.4020   37.0790 C   0  0  0  0  0  0  0  0  0  0  0  0
   38.1860   23.6720   36.0020 N   0  0  0  0  0  0  0  0  0  0  0  0
   40.2770   22.4890   33.7320 H   0  0  0  0  0  0  0  0  0  0  0  0
   41.5740   22.0260   35.7010 H   0  0  0  0  0  0  0  0  0  0  0  0
   38.3660   23.7780   38.4130 C   0  0  0  0  0  0  0  0  0  0  0  0
   37.9470   25.1030   38.3460 F   0  0  0  0  0  0  0  0  0  0  0  0
   37.3270   22.9310   38.7610 F   0  0  0  0  0  0  0  0  0  0  0  0
   39.3120   23.7180   39.3990 F   0  0  0  0  0  0  0  0  0  0  0  0
  1  2  1  0  0  0  0
  2  8  1  0  0  0  0
  2  3  2  0  0  0  0
  3 16  1  0  0  0  0
  4  3  1  0  0  0  0
  5  4  2  0  0  0  0
  6  1  2  0  0  0  0
  6  5  1  0  0  0  0
  7  1  1  0  0  0  0
  9  5  1  0  0  0  0
  9 15  1  0  0  0  0
 10  9  1  0  0  0  0
 11 10  1  0  0  0  0
 11 12  1  0  0  0  0
 12 14  1  0  0  0  0
 13 12  1  0  0  0  0
 14 15  1  0  0  0  0
 16 21  1  0  0  0  0
 17 16  2  0  0  0  0
 17 18  1  0  0  0  0
 18 19  2  0  0  0  0
 19 20  1  0  0  0  0
 20 24  1  0  0  0  0
 21 20  2  0  0  0  0
 22 17  1  0  0  0  0
 23 18  1  0  0  0  0
 24 26  1  0  0  0  0
 24 27  1  0  0  0  0
 25 24  1  0  0  0  0
M  END
>  <minimizedAffinity>
-5.96103525

$$$$

 OpenBabel03272502243D

 27 29  0  0  0  0  0  0  0  0999 V2000
   36.1710   25.2290   31.1620 C   0  0  0  0  0  0  0  0  0  0  0  0
   37.0400   24.6020   32.0520 C   0  0  0  0  0  0  0  0  0  0  0  0
   37.4950   25.3000   33.1500 C   0  0  0  0  0  0  0  0  0  0  0  0
   37.0610   26.5690   33.2940 N   0  0  0  0  0  0  0  0  0  0  0  0
   36.2210   27.1680   32.4300 C   0  0  0  0  0  0  0  0  0  0  0  0
   35.7730   26.4940   31.3560 N   0  0  0  0  0  0  0  0  0  0  0  0
   35.8250   24.6540   30.3000 H   0  0  0  0  0  0  0  0  0  0  0  0
   37.3960   23.5960   31.9540 H   0  0  0  0  0  0  0  0  0  0  0  0
   35.8020   28.5100   32.6430 N   0  0  0  0  0  0  0  0  0  0  0  0
   35.4710   29.3860   31.5350 C   0  0  0  0  0  2  0  0  0  0  0  0
   36.2510   30.6610   31.7750 C   0  0  0  0  0  2  0  0  0  0  0  0
   35.8680   31.3190   33.0630 C   0  0  0  0  0  3  0  0  0  0  0  0
   35.3640   32.2810   32.8830 H   0  0  0  0  0  0  0  0  0  0  0  0
   35.0100   30.4050   33.9110 C   0  0  0  0  0  2  0  0  0  0  0  0
   35.6970   29.0390   33.9890 C   0  0  0  0  0  2  0  0  0  0  0  0
   38.3980   24.7540   34.1520 C   0  0  0  0  0  0  0  0  0  0  0  0
   39.7130   24.4430   33.8520 C   0  0  0  0  0  0  0  0  0  0  0  0
   40.5910   23.9270   34.7860 C   0  0  0  0  0  0  0  0  0  0  0  0
   40.1540   23.7120   36.0470 N   0  0  0  0  0  0  0  0  0  0  0  0
   38.8830   24.0170   36.3180 C   0  0  0  0  0  0  0  0  0  0  0  0
   38.0310   24.5170   35.4190 N   0  0  0  0  0  0  0  0  0  0  0  0
   40.1140   24.5970   32.8540 H   0  0  0  0  0  0  0  0  0  0  0  0
   41.6060   23.7000   34.5110 H   0  0  0  0  0  0  0  0  0  0  0  0
   38.3640   23.7930   37.7040 C   0  0  0  0  0  0  0  0  0  0  0  0
   37.2060   23.0270   37.6130 F   0  0  0  0  0  0  0  0  0  0  0  0
   39.3230   23.1760   38.4910 F   0  0  0  0  0  0  0  0  0  0  0  0
   38.0090   24.9670   38.3080 F   0  0  0  0  0  0  0  0  0  0  0  0
  1  6  2  0  0  0  0
  1  2  1  0  0  0  0
  2  3  2  0  0  0  0
  3  4  1  0  0  0  0
  3 16  1  0  0  0  0
  5  9  1  0  0  0  0
  5  4  2  0  0  0  0
  6  5  1  0  0  0  0
  7  1  1  0  0  0  0
  8  2  1  0  0  0  0
  9 15  1  0  0  0  0
 10 11  1  0  0  0  0
 10  9  1  0  0  0  0
 11 12  1  0  0  0  0
 12 14  1  0  0  0  0
 13 12  1  0  0  0  0
 14 15  1  0  0  0  0
 16 21  1  0  0  0  0
 17 16  2  0  0  0  0
 17 18  1  0  0  0  0
 18 19  2  0  0  0  0
 19 20  1  0  0  0  0
 20 24  1  0  0  0  0
 21 20  2  0  0  0  0
 22 17  1  0  0  0  0
 23 18  1  0  0  0  0
 24 27  1  0  0  0  0
 24 26  1  0  0  0  0
 25 24  1  0  0  0  0
M  END
>  <minimizedAffinity>
-5.72763538

$$$$

 OpenBabel03272502243D

 27 29  0  0  0  0  0  0  0  0999 V2000
   40.5460   26.8950   33.9840 C   0  0  0  0  0  0  0  0  0  0  0  0
   39.4100   26.6500   33.2170 C   0  0  0  0  0  0  0  0  0  0  0  0
   38.7680   25.4360   33.3370 C   0  0  0  0  0  0  0  0  0  0  0  0
   39.2910   24.5470   34.2060 N   0  0  0  0  0  0  0  0  0  0  0  0
   40.3900   24.7920   34.9450 C   0  0  0  0  0  0  0  0  0  0  0  0
   41.0220   25.9740   34.8330 N   0  0  0  0  0  0  0  0  0  0  0  0
   41.0370   27.8640   33.8700 H   0  0  0  0  0  0  0  0  0  0  0  0
   38.9800   27.3420   32.5210 H   0  0  0  0  0  0  0  0  0  0  0  0
   40.8890   23.8100   35.8440 N   0  0  0  0  0  0  0  0  0  0  0  0
   42.3020   23.7160   36.1560 C   0  0  0  0  0  2  0  0  0  0  0  0
   42.6680   22.2600   35.9600 C   0  0  0  0  0  2  0  0  0  0  0  0
   41.8950   21.3590   36.8710 C   0  0  0  0  0  3  0  0  0  0  0  0
   42.5540   20.8820   37.6120 H   0  0  0  0  0  0  0  0  0  0  0  0
   40.7640   22.1050   37.5480 C   0  0  0  0  0  2  0  0  0  0  0  0
   39.9840   22.8690   36.4750 C   0  0  0  0  0  2  0  0  0  0  0  0
   37.5710   25.0650   32.5970 C   0  0  0  0  0  0  0  0  0  0  0  0
   36.7670   26.0160   31.9910 C   0  0  0  0  0  0  0  0  0  0  0  0
   35.6280   25.6890   31.2820 C   0  0  0  0  0  0  0  0  0  0  0  0
   35.2760   24.3890   31.1690 N   0  0  0  0  0  0  0  0  0  0  0  0
   36.0620   23.4860   31.7590 C   0  0  0  0  0  0  0  0  0  0  0  0
   37.1650   23.7970   32.4460 N   0  0  0  0  0  0  0  0  0  0  0  0
   37.0060   27.0740   32.0510 H   0  0  0  0  0  0  0  0  0  0  0  0
   35.0310   26.4610   30.8260 H   0  0  0  0  0  0  0  0  0  0  0  0
   35.7050   22.0370   31.6560 C   0  0  0  0  0  0  0  0  0  0  0  0
   34.8290   21.7330   32.6930 F   0  0  0  0  0  0  0  0  0  0  0  0
   35.1470   21.7580   30.4180 F   0  0  0  0  0  0  0  0  0  0  0  0
   36.7980   21.2320   31.8200 F   0  0  0  0  0  0  0  0  0  0  0  0
  1  6  1  0  0  0  0
  2  3  1  0  0  0  0
  2  1  2  0  0  0  0
  3  4  2  0  0  0  0
  4  5  1  0  0  0  0
  5  9  1  0  0  0  0
  6  5  2  0  0  0  0
  7  1  1  0  0  0  0
  8  2  1  0  0  0  0
  9 10  1  0  0  0  0
  9 15  1  0  0  0  0
 11 10  1  0  0  0  0
 11 12  1  0  0  0  0
 12 14  1  0  0  0  0
 12 13  1  0  0  0  0
 15 14  1  0  0  0  0
 16  3  1  0  0  0  0
 17 22  1  0  0  0  0
 17 16  2  0  0  0  0
 18 17  1  0  0  0  0
 19 18  2  0  0  0  0
 19 20  1  0  0  0  0
 20 21  2  0  0  0  0
 21 16  1  0  0  0  0
 23 18  1  0  0  0  0
 24 20  1  0  0  0  0
 24 27  1  0  0  0  0
 24 25  1  0  0  0  0
 26 24  1  0  0  0  0
M  END
>  <minimizedAffinity>
-5.65055132

$$$$

 OpenBabel03272502243D

 27 29  0  0  0  0  0  0  0  0999 V2000
   35.2830   25.7520   30.9980 C   0  0  0  0  0  0  0  0  0  0  0  0
   35.1310   24.3740   30.8690 C   0  0  0  0  0  0  0  0  0  0  0  0
   35.9240   23.5380   31.6250 C   0  0  0  0  0  0  0  0  0  0  0  0
   36.8120   24.1200   32.4580 N   0  0  0  0  0  0  0  0  0  0  0  0
   36.9520   25.4540   32.5770 C   0  0  0  0  0  0  0  0  0  0  0  0
   36.1820   26.2760   31.8410 N   0  0  0  0  0  0  0  0  0  0  0  0
   34.6420   26.3920   30.3870 H   0  0  0  0  0  0  0  0  0  0  0  0
   34.4330   23.8920   30.2140 H   0  0  0  0  0  0  0  0  0  0  0  0
   37.9090   26.0010   33.4750 N   0  0  0  0  0  0  0  0  0  0  0  0
   38.5470   27.2780   33.2160 C   0  0  0  0  0  2  0  0  0  0  0  0
   40.0320   27.0330   33.3830 C   0  0  0  0  0  2  0  0  0  0  0  0
   40.3730   26.5760   34.7660 C   0  0  0  0  0  3  0  0  0  0  0  0
   40.9700   27.3310   35.2990 H   0  0  0  0  0  0  0  0  0  0  0  0
   39.1270   26.2170   35.5470 C   0  0  0  0  0  2  0  0  0  0  0  0
   38.2710   25.2870   34.6840 C   0  0  0  0  0  2  0  0  0  0  0  0
   35.8550   22.0840   31.5860 C   0  0  0  0  0  0  0  0  0  0  0  0
   35.1090   21.3680   32.5060 C   0  0  0  0  0  0  0  0  0  0  0  0
   35.0260   19.9890   32.4890 C   0  0  0  0  0  0  0  0  0  0  0  0
   35.6990   19.3030   31.5370 N   0  0  0  0  0  0  0  0  0  0  0  0
   36.4130   20.0110   30.6590 C   0  0  0  0  0  0  0  0  0  0  0  0
   36.4960   21.3440   30.6710 N   0  0  0  0  0  0  0  0  0  0  0  0
   34.5500   21.8700   33.2900 H   0  0  0  0  0  0  0  0  0  0  0  0
   34.4340   19.4700   33.2230 H   0  0  0  0  0  0  0  0  0  0  0  0
   37.1710   19.2870   29.5910 C   0  0  0  0  0  0  0  0  0  0  0  0
   37.8270   18.2110   30.1810 F   0  0  0  0  0  0  0  0  0  0  0  0
   36.3170   18.8730   28.5820 F   0  0  0  0  0  0  0  0  0  0  0  0
   38.1380   20.0750   29.0320 F   0  0  0  0  0  0  0  0  0  0  0  0
  1  6  1  0  0  0  0
  2  1  2  0  0  0  0
  2  3  1  0  0  0  0
  3  4  2  0  0  0  0
  4  5  1  0  0  0  0
  5  9  1  0  0  0  0
  6  5  2  0  0  0  0
  7  1  1  0  0  0  0
  8  2  1  0  0  0  0
  9 15  1  0  0  0  0
 10 11  1  0  0  0  0
 10  9  1  0  0  0  0
 11 12  1  0  0  0  0
 12 13  1  0  0  0  0
 12 14  1  0  0  0  0
 15 14  1  0  0  0  0
 16  3  1  0  0  0  0
 16 17  1  0  0  0  0
 17 22  1  0  0  0  0
 18 17  2  0  0  0  0
 18 23  1  0  0  0  0
 19 18  1  0  0  0  0
 20 21  1  0  0  0  0
 20 19  2  0  0  0  0
 21 16  2  0  0  0  0
 24 25  1  0  0  0  0
 24 20  1  0  0  0  0
 26 24  1  0  0  0  0
 27 24  1  0  0  0  0
M  END
>  <minimizedAffinity>
-5.5788393

$$$$

 OpenBabel03272502243D

 27 29  0  0  0  0  0  0  0  0999 V2000
   35.5260   27.6160   31.9110 C   0  0  0  0  0  0  0  0  0  0  0  0
   36.4110   26.7030   32.4790 C   0  0  0  0  0  0  0  0  0  0  0  0
   37.0670   27.0400   33.6430 C   0  0  0  0  0  0  0  0  0  0  0  0
   36.8050   28.2560   34.1670 N   0  0  0  0  0  0  0  0  0  0  0  0
   35.9480   29.1330   33.6110 C   0  0  0  0  0  0  0  0  0  0  0  0
   35.3040   28.8100   32.4750 N   0  0  0  0  0  0  0  0  0  0  0  0
   35.0190   27.3240   30.9890 H   0  0  0  0  0  0  0  0  0  0  0  0
   36.6340   25.7340   32.0800 H   0  0  0  0  0  0  0  0  0  0  0  0
   35.7170   30.3990   34.2160 N   0  0  0  0  0  0  0  0  0  0  0  0
   35.3670   31.5630   33.4260 C   0  0  0  0  0  2  0  0  0  0  0  0
   36.3130   32.6580   33.8710 C   0  0  0  0  0  2  0  0  0  0  0  0
   36.1590   32.9770   35.3240 C   0  0  0  0  0  3  0  0  0  0  0  0
   35.7550   33.9900   35.4690 H   0  0  0  0  0  0  0  0  0  0  0  0
   35.3020   31.9430   36.0240 C   0  0  0  0  0  2  0  0  0  0  0  0
   35.8280   30.5540   35.6530 C   0  0  0  0  0  2  0  0  0  0  0  0
   38.0080   26.1720   34.3360 C   0  0  0  0  0  0  0  0  0  0  0  0
   39.2860   25.9520   33.8500 C   0  0  0  0  0  0  0  0  0  0  0  0
   40.1980   25.1360   34.4890 C   0  0  0  0  0  0  0  0  0  0  0  0
   39.8360   24.5220   35.6380 N   0  0  0  0  0  0  0  0  0  0  0  0
   38.6010   24.7460   36.0920 C   0  0  0  0  0  0  0  0  0  0  0  0
   37.7150   25.5350   35.4780 N   0  0  0  0  0  0  0  0  0  0  0  0
   39.6270   26.4210   32.9310 H   0  0  0  0  0  0  0  0  0  0  0  0
   41.1820   24.9920   34.0770 H   0  0  0  0  0  0  0  0  0  0  0  0
   38.1650   24.0840   37.3610 C   0  0  0  0  0  0  0  0  0  0  0  0
   38.0720   25.0600   38.3480 F   0  0  0  0  0  0  0  0  0  0  0  0
   36.9590   23.4260   37.1790 F   0  0  0  0  0  0  0  0  0  0  0  0
   39.0840   23.1710   37.7990 F   0  0  0  0  0  0  0  0  0  0  0  0
  1  6  2  0  0  0  0
  1  2  1  0  0  0  0
  2  3  2  0  0  0  0
  3  4  1  0  0  0  0
  3 16  1  0  0  0  0
  5  4  2  0  0  0  0
  5  9  1  0  0  0  0
  6  5  1  0  0  0  0
  7  1  1  0  0  0  0
  8  2  1  0  0  0  0
  9 15  1  0  0  0  0
 10 11  1  0  0  0  0
 10  9  1  0  0  0  0
 11 12  1  0  0  0  0
 12 13  1  0  0  0  0
 12 14  1  0  0  0  0
 15 14  1  0  0  0  0
 16 21  1  0  0  0  0
 17 16  2  0  0  0  0
 17 18  1  0  0  0  0
 18 19  2  0  0  0  0
 19 20  1  0  0  0  0
 20 24  1  0  0  0  0
 21 20  2  0  0  0  0
 22 17  1  0  0  0  0
 23 18  1  0  0  0  0
 24 27  1  0  0  0  0
 24 25  1  0  0  0  0
 26 24  1  0  0  0  0
M  END
>  <minimizedAffinity>
-5.47698689

$$$$

 OpenBabel03272502243D

 27 29  0  0  0  0  0  0  0  0999 V2000
   38.5690   26.9350   35.9900 C   0  0  0  0  0  0  0  0  0  0  0  0
   38.6680   25.6400   35.4860 C   0  0  0  0  0  0  0  0  0  0  0  0
   37.9460   25.3010   34.3620 C   0  0  0  0  0  0  0  0  0  0  0  0
   37.1750   26.2620   33.8130 N   0  0  0  0  0  0  0  0  0  0  0  0
   37.0850   27.5120   34.3060 C   0  0  0  0  0  0  0  0  0  0  0  0
   37.7870   27.8500   35.4030 N   0  0  0  0  0  0  0  0  0  0  0  0
   39.1510   27.1790   36.8810 H   0  0  0  0  0  0  0  0  0  0  0  0
   39.2730   24.8630   35.9080 H   0  0  0  0  0  0  0  0  0  0  0  0
   36.2530   28.4780   33.6770 N   0  0  0  0  0  0  0  0  0  0  0  0
   35.6230   29.5430   34.4330 C   0  0  0  0  0  2  0  0  0  0  0  0
   34.1610   29.5140   34.0380 C   0  0  0  0  0  2  0  0  0  0  0  0
   33.9700   29.7600   32.5750 C   0  0  0  0  0  3  0  0  0  0  0  0
   33.4590   30.7180   32.3960 H   0  0  0  0  0  0  0  0  0  0  0  0
   35.2880   29.7000   31.8330 C   0  0  0  0  0  2  0  0  0  0  0  0
   36.0140   28.4180   32.2480 C   0  0  0  0  0  2  0  0  0  0  0  0
   37.9700   23.9860   33.7370 C   0  0  0  0  0  0  0  0  0  0  0  0
   38.9980   23.0890   33.9750 C   0  0  0  0  0  0  0  0  0  0  0  0
   39.0430   21.8350   33.3970 C   0  0  0  0  0  0  0  0  0  0  0  0
   38.0470   21.4620   32.5630 N   0  0  0  0  0  0  0  0  0  0  0  0
   37.0650   22.3390   32.3460 C   0  0  0  0  0  0  0  0  0  0  0  0
   37.0160   23.5530   32.9030 N   0  0  0  0  0  0  0  0  0  0  0  0
   39.8220   23.3400   34.6360 H   0  0  0  0  0  0  0  0  0  0  0  0
   39.8610   21.1680   33.6080 H   0  0  0  0  0  0  0  0  0  0  0  0
   35.9450   21.9600   31.4290 C   0  0  0  0  0  0  0  0  0  0  0  0
   35.5430   23.1020   30.7430 F   0  0  0  0  0  0  0  0  0  0  0  0
   36.3430   20.9570   30.5600 F   0  0  0  0  0  0  0  0  0  0  0  0
   34.8520   21.5150   32.1200 F   0  0  0  0  0  0  0  0  0  0  0  0
  1  7  1  0  0  0  0
  2  8  1  0  0  0  0
  2  1  1  0  0  0  0
  3  2  2  0  0  0  0
  4  5  2  0  0  0  0
  4  3  1  0  0  0  0
  5  6  1  0  0  0  0
  6  1  2  0  0  0  0
  9  5  1  0  0  0  0
  9 10  1  0  0  0  0
 11 10  1  0  0  0  0
 12 11  1  0  0  0  0
 13 12  1  0  0  0  0
 14 15  1  0  0  0  0
 14 12  1  0  0  0  0
 15  9  1  0  0  0  0
 16 17  1  0  0  0  0
 16  3  1  0  0  0  0
 17 22  1  0  0  0  0
 18 23  1  0  0  0  0
 18 17  2  0  0  0  0
 19 18  1  0  0  0  0
 20 19  2  0  0  0  0
 20 21  1  0  0  0  0
 21 16  2  0  0  0  0
 24 27  1  0  0  0  0
 24 20  1  0  0  0  0
 25 24  1  0  0  0  0
 26 24  1  0  0  0  0
M  END
>  <minimizedAffinity>
-5.39240217

$$$$

 OpenBabel03272502243D

 27 29  0  0  0  0  0  0  0  0999 V2000
   35.9540   24.5650   31.1530 C   0  0  0  0  0  0  0  0  0  0  0  0
   35.6850   25.9310   31.1490 C   0  0  0  0  0  0  0  0  0  0  0  0
   36.2730   26.7340   32.1020 C   0  0  0  0  0  0  0  0  0  0  0  0
   37.0880   26.1330   32.9940 N   0  0  0  0  0  0  0  0  0  0  0  0
   37.3440   24.8110   32.9910 C   0  0  0  0  0  0  0  0  0  0  0  0
   36.7730   24.0210   32.0640 N   0  0  0  0  0  0  0  0  0  0  0  0
   35.4750   23.9510   30.3880 H   0  0  0  0  0  0  0  0  0  0  0  0
   35.0410   26.4270   30.4510 H   0  0  0  0  0  0  0  0  0  0  0  0
   38.2140   24.2420   33.9610 N   0  0  0  0  0  0  0  0  0  0  0  0
   38.0470   22.8770   34.4210 C   0  0  0  0  0  2  0  0  0  0  0  0
   38.0610   22.9500   35.9330 C   0  0  0  0  0  2  0  0  0  0  0  0
   39.3500   23.4990   36.4570 C   0  0  0  0  0  3  0  0  0  0  0  0
   39.9120   22.7330   37.0120 H   0  0  0  0  0  0  0  0  0  0  0  0
   40.1880   24.0870   35.3420 C   0  0  0  0  0  2  0  0  0  0  0  0
   39.3000   25.0240   34.5190 C   0  0  0  0  0  2  0  0  0  0  0  0
   36.0770   28.1730   32.1980 C   0  0  0  0  0  0  0  0  0  0  0  0
   36.1560   28.9920   31.0850 C   0  0  0  0  0  0  0  0  0  0  0  0
   35.9710   30.3590   31.1490 C   0  0  0  0  0  0  0  0  0  0  0  0
   35.7020   30.9290   32.3440 N   0  0  0  0  0  0  0  0  0  0  0  0
   35.6290   30.1250   33.4070 C   0  0  0  0  0  0  0  0  0  0  0  0
   35.8060   28.8010   33.3500 N   0  0  0  0  0  0  0  0  0  0  0  0
   36.3700   28.5840   30.1010 H   0  0  0  0  0  0  0  0  0  0  0  0
   36.0410   30.9600   30.2580 H   0  0  0  0  0  0  0  0  0  0  0  0
   35.3320   30.7190   34.7470 C   0  0  0  0  0  0  0  0  0  0  0  0
   35.2280   32.0990   34.5940 F   0  0  0  0  0  0  0  0  0  0  0  0
   34.1730   30.1750   35.2770 F   0  0  0  0  0  0  0  0  0  0  0  0
   36.3480   30.5010   35.6350 F   0  0  0  0  0  0  0  0  0  0  0  0
  1  6  1  0  0  0  0
  2  1  2  0  0  0  0
  2  3  1  0  0  0  0
  3 16  1  0  0  0  0
  3  4  2  0  0  0  0
  5  4  1  0  0  0  0
  5  9  1  0  0  0  0
  6  5  2  0  0  0  0
  7  1  1  0  0  0  0
  8  2  1  0  0  0  0
  9 10  1  0  0  0  0
  9 15  1  0  0  0  0
 10 11  1  0  0  0  0
 11 12  1  0  0  0  0
 12 13  1  0  0  0  0
 14 12  1  0  0  0  0
 15 14  1  0  0  0  0
 16 21  1  0  0  0  0
 17 18  1  0  0  0  0
 17 16  2  0  0  0  0
 18 19  2  0  0  0  0
 19 20  1  0  0  0  0
 20 24  1  0  0  0  0
 21 20  2  0  0  0  0
 22 17  1  0  0  0  0
 23 18  1  0  0  0  0
 24 26  1  0  0  0  0
 24 27  1  0  0  0  0
 25 24  1  0  0  0  0
M  END
>  <minimizedAffinity>
-5.38692093

$$$$

 OpenBabel03272502243D

 27 29  0  0  0  0  0  0  0  0999 V2000
   36.7980   27.7610   33.3040 C   0  0  0  0  0  0  0  0  0  0  0  0
   36.9960   26.6890   34.1720 C   0  0  0  0  0  0  0  0  0  0  0  0
   38.0720   25.8520   33.9690 C   0  0  0  0  0  0  0  0  0  0  0  0
   38.8790   26.1300   32.9250 N   0  0  0  0  0  0  0  0  0  0  0  0
   38.6820   27.1680   32.0910 C   0  0  0  0  0  0  0  0  0  0  0  0
   37.6340   27.9900   32.2820 N   0  0  0  0  0  0  0  0  0  0  0  0
   35.9380   28.4090   33.4870 H   0  0  0  0  0  0  0  0  0  0  0  0
   36.3660   26.4510   35.0050 H   0  0  0  0  0  0  0  0  0  0  0  0
   39.5730   27.4050   31.0090 N   0  0  0  0  0  0  0  0  0  0  0  0
   39.1220   28.0270   29.7780 C   0  0  0  0  0  2  0  0  0  0  0  0
   39.6180   27.1310   28.6630 C   0  0  0  0  0  2  0  0  0  0  0  0
   41.1090   27.0220   28.6500 C   0  0  0  0  0  3  0  0  0  0  0  0
   41.5350   27.4930   27.7510 H   0  0  0  0  0  0  0  0  0  0  0  0
   41.7120   27.6080   29.9090 C   0  0  0  0  0  2  0  0  0  0  0  0
   40.9680   27.0240   31.1130 C   0  0  0  0  0  2  0  0  0  0  0  0
   38.3880   24.7050   34.8080 C   0  0  0  0  0  0  0  0  0  0  0  0
   38.8690   23.5230   34.2710 C   0  0  0  0  0  0  0  0  0  0  0  0
   39.1800   22.4230   35.0450 C   0  0  0  0  0  0  0  0  0  0  0  0
   39.0090   22.4930   36.3840 N   0  0  0  0  0  0  0  0  0  0  0  0
   38.5440   23.6400   36.8850 C   0  0  0  0  0  0  0  0  0  0  0  0
   38.2430   24.7080   36.1400 N   0  0  0  0  0  0  0  0  0  0  0  0
   39.0250   23.4150   33.2010 H   0  0  0  0  0  0  0  0  0  0  0  0
   39.5520   21.5220   34.5860 H   0  0  0  0  0  0  0  0  0  0  0  0
   38.3420   23.7560   38.3620 C   0  0  0  0  0  0  0  0  0  0  0  0
   37.2810   22.9300   38.7200 F   0  0  0  0  0  0  0  0  0  0  0  0
   39.5020   23.4200   39.0420 F   0  0  0  0  0  0  0  0  0  0  0  0
   37.9890   25.0250   38.7280 F   0  0  0  0  0  0  0  0  0  0  0  0
  1  7  1  0  0  0  0
  1  2  1  0  0  0  0
  2  8  1  0  0  0  0
  3  2  2  0  0  0  0
  3 16  1  0  0  0  0
  4  3  1  0  0  0  0
  5  6  1  0  0  0  0
  5  4  2  0  0  0  0
  6  1  2  0  0  0  0
  9 15  1  0  0  0  0
  9  5  1  0  0  0  0
 10  9  1  0  0  0  0
 11 10  1  0  0  0  0
 12 11  1  0  0  0  0
 12 14  1  0  0  0  0
 13 12  1  0  0  0  0
 14 15  1  0  0  0  0
 16 21  1  0  0  0  0
 17 16  2  0  0  0  0
 17 18  1  0  0  0  0
 18 19  2  0  0  0  0
 19 20  1  0  0  0  0
 20 24  1  0  0  0  0
 21 20  2  0  0  0  0
 22 17  1  0  0  0  0
 23 18  1  0  0  0  0
 24 25  1  0  0  0  0
 24 27  1  0  0  0  0
 24 26  1  0  0  0  0
M  END
>  <minimizedAffinity>
-5.38275719

$$$$

 OpenBabel03272502243D

 27 29  0  0  0  0  0  0  0  0999 V2000
   36.4650   28.9680   30.8430 C   0  0  0  0  0  0  0  0  0  0  0  0
   36.8920   27.7170   31.2820 C   0  0  0  0  0  0  0  0  0  0  0  0
   36.8350   27.4220   32.6270 C   0  0  0  0  0  0  0  0  0  0  0  0
   36.3590   28.3820   33.4470 N   0  0  0  0  0  0  0  0  0  0  0  0
   35.9470   29.5890   33.0140 C   0  0  0  0  0  0  0  0  0  0  0  0
   36.0010   29.8840   31.7030 N   0  0  0  0  0  0  0  0  0  0  0  0
   36.5210   29.1770   29.7720 H   0  0  0  0  0  0  0  0  0  0  0  0
   37.2730   26.9430   30.6470 H   0  0  0  0  0  0  0  0  0  0  0  0
   35.4560   30.5560   33.9340 N   0  0  0  0  0  0  0  0  0  0  0  0
   35.6040   31.9780   33.6900 C   0  0  0  0  0  2  0  0  0  0  0  0
   36.1900   32.5520   34.9620 C   0  0  0  0  0  2  0  0  0  0  0  0
   35.2930   32.3390   36.1400 C   0  0  0  0  0  3  0  0  0  0  0  0
   34.8940   33.2940   36.5140 H   0  0  0  0  0  0  0  0  0  0  0  0
   34.1740   31.3750   35.8080 C   0  0  0  0  0  2  0  0  0  0  0  0
   34.7880   30.1360   35.1510 C   0  0  0  0  0  2  0  0  0  0  0  0
   37.2440   26.1510   33.2060 C   0  0  0  0  0  0  0  0  0  0  0  0
   37.3880   25.0130   32.4310 C   0  0  0  0  0  0  0  0  0  0  0  0
   37.7780   23.7970   32.9560 C   0  0  0  0  0  0  0  0  0  0  0  0
   38.0300   23.7050   34.2810 N   0  0  0  0  0  0  0  0  0  0  0  0
   37.8860   24.8120   35.0130 C   0  0  0  0  0  0  0  0  0  0  0  0
   37.5100   25.9910   34.5100 N   0  0  0  0  0  0  0  0  0  0  0  0
   37.1980   25.0330   31.3620 H   0  0  0  0  0  0  0  0  0  0  0  0
   37.8790   22.9360   32.3180 H   0  0  0  0  0  0  0  0  0  0  0  0
   38.1560   24.7490   36.4830 C   0  0  0  0  0  0  0  0  0  0  0  0
   37.0690   24.1340   37.0970 F   0  0  0  0  0  0  0  0  0  0  0  0
   39.3360   24.0680   36.7340 F   0  0  0  0  0  0  0  0  0  0  0  0
   38.2610   25.9960   37.0330 F   0  0  0  0  0  0  0  0  0  0  0  0
  1  2  2  0  0  0  0
  1  6  1  0  0  0  0
  2  3  1  0  0  0  0
  3 16  1  0  0  0  0
  3  4  2  0  0  0  0
  5  4  1  0  0  0  0
  5  9  1  0  0  0  0
  6  5  2  0  0  0  0
  7  1  1  0  0  0  0
  8  2  1  0  0  0  0
  9 15  1  0  0  0  0
 10  9  1  0  0  0  0
 10 11  1  0  0  0  0
 11 12  1  0  0  0  0
 12 13  1  0  0  0  0
 14 12  1  0  0  0  0
 15 14  1  0  0  0  0
 16 21  1  0  0  0  0
 17 18  1  0  0  0  0
 17 16  2  0  0  0  0
 18 19  2  0  0  0  0
 19 20  1  0  0  0  0
 20 24  1  0  0  0  0
 21 20  2  0  0  0  0
 22 17  1  0  0  0  0
 23 18  1  0  0  0  0
 24 26  1  0  0  0  0
 24 27  1  0  0  0  0
 24 25  1  0  0  0  0
M  END
>  <minimizedAffinity>
-5.33818197

$$$$
