
 OpenBabel03272507083D

 37 41  0  0  0  0  0  0  0  0999 V2000
   35.8840   23.9630   31.4430 C   0  0  0  0  0  0  0  0  0  0  0  0
   35.6410   25.3280   31.1490 C   0  0  0  0  0  0  0  0  0  0  0  0
   36.4300   26.2550   31.8280 C   0  0  0  0  0  0  0  0  0  0  0  0
   37.3700   25.8270   32.7170 N   0  0  0  0  0  0  0  0  0  0  0  0
   37.5560   24.5050   32.9560 C   0  0  0  0  0  0  0  0  0  0  0  0
   36.8240   23.5870   32.3290 N   0  0  0  0  0  0  0  0  0  0  0  0
   35.2630   23.2440   30.9080 H   0  0  0  0  0  0  0  0  0  0  0  0
   34.9160   25.6880   30.4620 H   0  0  0  0  0  0  0  0  0  0  0  0
   36.3200   27.7010   31.6520 C   0  0  0  0  0  0  0  0  0  0  0  0
   36.6400   28.3530   30.4880 C   0  0  0  0  0  0  0  0  0  0  0  0
   36.5540   29.7110   30.2760 C   0  0  0  0  0  0  0  0  0  0  0  0
   36.1110   30.4440   31.3190 N   0  0  0  0  0  0  0  0  0  0  0  0
   35.7920   29.8500   32.4580 C   0  0  0  0  0  0  0  0  0  0  0  0
   35.8910   28.5360   32.6200 N   0  0  0  0  0  0  0  0  0  0  0  0
   37.0020   27.7600   29.6350 H   0  0  0  0  0  0  0  0  0  0  0  0
   36.8280   30.1420   29.3210 H   0  0  0  0  0  0  0  0  0  0  0  0
   35.3310   30.7180   33.5100 N   0  0  0  0  0  0  0  0  0  0  0  0
   34.9590   30.1770   34.7850 C   0  0  0  0  0  2  0  0  0  0  0  0
   34.9280   31.3150   35.7840 C   0  0  0  0  0  2  0  0  0  0  0  0
   36.2200   32.0840   35.6160 C   0  0  0  0  0  3  0  0  0  0  0  0
   36.3880   32.8370   36.4070 H   0  0  0  0  0  0  0  0  0  0  0  0
   36.2490   32.7850   34.2670 C   0  0  0  0  0  2  0  0  0  0  0  0
   35.2170   32.1460   33.3540 C   0  0  0  0  0  2  0  0  0  0  0  0
   39.8920   24.5540   33.7150 C   0  0  0  0  0  0  0  0  0  0  0  0
   38.5880   24.1290   33.9270 C   0  0  0  0  0  0  0  0  0  0  0  0
   38.2930   23.3770   35.0200 C   0  0  0  0  0  0  0  0  0  0  0  0
   39.2480   23.0190   35.9370 C   0  0  0  0  0  0  0  0  0  0  0  0
   39.2310   22.3020   37.0760 N   0  0  0  0  0  0  0  0  0  0  0  0
   40.5100   22.3130   37.5160 C   0  0  0  0  0  0  0  0  0  0  0  0
   41.2880   23.0080   36.6840 N   0  0  0  0  0  0  0  0  0  0  0  0
   40.5380   23.4710   35.6770 C   0  0  0  0  0  0  0  0  0  0  0  0
   40.9010   24.2270   34.5990 C   0  0  0  0  0  0  0  0  0  0  0  0
   40.0850   25.1490   32.8350 H   0  0  0  0  0  0  0  0  0  0  0  0
   37.2730   23.0390   35.1960 H   0  0  0  0  0  0  0  0  0  0  0  0
   38.3880   21.8370   37.5160 H   0  0  0  0  0  0  0  0  0  0  0  0
   40.8480   21.8130   38.4360 H   0  0  0  0  0  0  0  0  0  0  0  0
   41.9270   24.5520   34.4470 H   0  0  0  0  0  0  0  0  0  0  0  0
  1  6  1  0  0  0  0
  2  1  2  0  0  0  0
  2  3  1  0  0  0  0
  3  4  2  0  0  0  0
  4  5  1  0  0  0  0
  5 25  1  0  0  0  0
  6  5  2  0  0  0  0
  7  1  1  0  0  0  0
  8  2  1  0  0  0  0
  9  3  1  0  0  0  0
  9 14  1  0  0  0  0
 10  9  2  0  0  0  0
 11 10  1  0  0  0  0
 11 12  2  0  0  0  0
 12 13  1  0  0  0  0
 13 14  2  0  0  0  0
 13 17  1  0  0  0  0
 15 10  1  0  0  0  0
 16 11  1  0  0  0  0
 17 18  1  0  0  0  0
 18 19  1  0  0  0  0
 20 19  1  0  0  0  0
 20 21  1  0  0  0  0
 22 20  1  0  0  0  0
 23 17  1  0  0  0  0
 23 22  1  0  0  0  0
 24 25  2  0  0  0  0
 24 32  1  0  0  0  0
 25 26  1  0  0  0  0
 26 34  1  0  0  0  0
 26 27  2  0  0  0  0
 27 28  1  0  0  0  0
 28 29  1  0  0  0  0
 28 35  1  0  0  0  0
 29 36  1  0  0  0  0
 30 29  2  0  0  0  0
 31 27  1  0  0  0  0
 31 30  1  0  0  0  0
 32 31  2  0  0  0  0
 33 24  1  0  0  0  0
 37 32  1  0  0  0  0
M  END
>  <minimizedAffinity>
-6.82689381

$$$$

 OpenBabel03272507083D

 37 41  0  0  0  0  0  0  0  0999 V2000
   36.4000   29.6900   30.5870 C   0  0  0  0  0  0  0  0  0  0  0  0
   36.6090   28.2890   30.5600 C   0  0  0  0  0  0  0  0  0  0  0  0
   36.3110   27.5990   31.7340 C   0  0  0  0  0  0  0  0  0  0  0  0
   35.8470   28.2750   32.8220 N   0  0  0  0  0  0  0  0  0  0  0  0
   35.6670   29.6200   32.7860 C   0  0  0  0  0  0  0  0  0  0  0  0
   35.9400   30.3170   31.6850 N   0  0  0  0  0  0  0  0  0  0  0  0
   36.6360   30.2230   29.6650 H   0  0  0  0  0  0  0  0  0  0  0  0
   36.9690   27.7370   29.7280 H   0  0  0  0  0  0  0  0  0  0  0  0
   36.4640   26.1540   31.8910 C   0  0  0  0  0  0  0  0  0  0  0  0
   35.8780   25.2320   31.0610 C   0  0  0  0  0  0  0  0  0  0  0  0
   35.9920   23.8640   31.1690 C   0  0  0  0  0  0  0  0  0  0  0  0
   36.7560   23.4150   32.1880 N   0  0  0  0  0  0  0  0  0  0  0  0
   37.3380   24.2750   33.0080 C   0  0  0  0  0  0  0  0  0  0  0  0
   37.2000   25.5870   32.8680 N   0  0  0  0  0  0  0  0  0  0  0  0
   35.2550   25.5930   30.2300 H   0  0  0  0  0  0  0  0  0  0  0  0
   35.4930   23.2080   30.4670 H   0  0  0  0  0  0  0  0  0  0  0  0
   38.1300   23.6970   34.0620 N   0  0  0  0  0  0  0  0  0  0  0  0
   38.8050   24.5400   35.0080 C   0  0  0  0  0  2  0  0  0  0  0  0
   39.1880   23.6900   36.2010 C   0  0  0  0  0  2  0  0  0  0  0  0
   37.9540   22.9090   36.6010 C   0  0  0  0  0  3  0  0  0  0  0  0
   38.0640   22.3810   37.5650 H   0  0  0  0  0  0  0  0  0  0  0  0
   37.6000   21.8920   35.5280 C   0  0  0  0  0  2  0  0  0  0  0  0
   38.2920   22.2750   34.2320 C   0  0  0  0  0  2  0  0  0  0  0  0
   36.0290   31.0680   34.7380 C   0  0  0  0  0  0  0  0  0  0  0  0
   35.1650   30.2710   33.9990 C   0  0  0  0  0  0  0  0  0  0  0  0
   33.8790   30.1080   34.4100 C   0  0  0  0  0  0  0  0  0  0  0  0
   33.3960   30.7120   35.5430 C   0  0  0  0  0  0  0  0  0  0  0  0
   32.2010   30.7210   36.1610 N   0  0  0  0  0  0  0  0  0  0  0  0
   32.3720   31.5140   37.2440 C   0  0  0  0  0  0  0  0  0  0  0  0
   33.6230   31.9770   37.2950 N   0  0  0  0  0  0  0  0  0  0  0  0
   34.3030   31.4990   36.2460 C   0  0  0  0  0  0  0  0  0  0  0  0
   35.6060   31.7020   35.8880 C   0  0  0  0  0  0  0  0  0  0  0  0
   37.0420   31.1710   34.3780 H   0  0  0  0  0  0  0  0  0  0  0  0
   33.1940   29.4860   33.8380 H   0  0  0  0  0  0  0  0  0  0  0  0
   31.3260   30.2110   35.8520 H   0  0  0  0  0  0  0  0  0  0  0  0
   31.5800   31.7380   37.9740 H   0  0  0  0  0  0  0  0  0  0  0  0
   36.2690   32.3300   36.4770 H   0  0  0  0  0  0  0  0  0  0  0  0
  1  6  1  0  0  0  0
  2  1  2  0  0  0  0
  2  3  1  0  0  0  0
  3  9  1  0  0  0  0
  3  4  2  0  0  0  0
  5  4  1  0  0  0  0
  5 25  1  0  0  0  0
  6  5  2  0  0  0  0
  7  1  1  0  0  0  0
  8  2  1  0  0  0  0
  9 14  1  0  0  0  0
 10 11  1  0  0  0  0
 10  9  2  0  0  0  0
 11 12  2  0  0  0  0
 12 13  1  0  0  0  0
 13 17  1  0  0  0  0
 14 13  2  0  0  0  0
 15 10  1  0  0  0  0
 16 11  1  0  0  0  0
 17 23  1  0  0  0  0
 17 18  1  0  0  0  0
 18 19  1  0  0  0  0
 19 20  1  0  0  0  0
 20 21  1  0  0  0  0
 22 20  1  0  0  0  0
 23 22  1  0  0  0  0
 24 32  1  0  0  0  0
 25 26  1  0  0  0  0
 25 24  2  0  0  0  0
 26 27  2  0  0  0  0
 27 28  1  0  0  0  0
 27 31  1  0  0  0  0
 28 29  1  0  0  0  0
 29 30  2  0  0  0  0
 29 36  1  0  0  0  0
 31 30  1  0  0  0  0
 32 31  2  0  0  0  0
 32 37  1  0  0  0  0
 33 24  1  0  0  0  0
 34 26  1  0  0  0  0
 35 28  1  0  0  0  0
M  END
>  <minimizedAffinity>
-6.73809576

$$$$

 OpenBabel03272507083D

 37 41  0  0  0  0  0  0  0  0999 V2000
   36.4290   29.2000   30.9600 C   0  0  0  0  0  0  0  0  0  0  0  0
   37.0440   27.9440   31.1900 C   0  0  0  0  0  0  0  0  0  0  0  0
   36.9980   27.4650   32.4980 C   0  0  0  0  0  0  0  0  0  0  0  0
   36.3850   28.1970   33.4700 N   0  0  0  0  0  0  0  0  0  0  0  0
   35.8120   29.3950   33.1870 C   0  0  0  0  0  0  0  0  0  0  0  0
   35.8340   29.8880   31.9520 N   0  0  0  0  0  0  0  0  0  0  0  0
   36.4690   29.5680   29.9350 H   0  0  0  0  0  0  0  0  0  0  0  0
   37.5280   27.3540   30.4520 H   0  0  0  0  0  0  0  0  0  0  0  0
   37.5790   26.1920   32.9200 C   0  0  0  0  0  0  0  0  0  0  0  0
   38.7210   26.0890   33.6730 C   0  0  0  0  0  0  0  0  0  0  0  0
   39.3040   24.9140   34.0920 C   0  0  0  0  0  0  0  0  0  0  0  0
   38.6780   23.7770   33.7190 N   0  0  0  0  0  0  0  0  0  0  0  0
   37.5730   23.8390   32.9920 C   0  0  0  0  0  0  0  0  0  0  0  0
   37.0450   24.9940   32.6080 N   0  0  0  0  0  0  0  0  0  0  0  0
   39.2350   27.0110   33.9800 H   0  0  0  0  0  0  0  0  0  0  0  0
   40.2090   24.9250   34.6860 H   0  0  0  0  0  0  0  0  0  0  0  0
   36.9810   22.5740   32.6450 N   0  0  0  0  0  0  0  0  0  0  0  0
   35.7820   22.5250   31.8590 C   0  0  0  0  0  2  0  0  0  0  0  0
   35.6380   21.1210   31.3120 C   0  0  0  0  0  2  0  0  0  0  0  0
   36.9750   20.7440   30.7090 C   0  0  0  0  0  3  0  0  0  0  0  0
   36.9440   19.8060   30.1260 H   0  0  0  0  0  0  0  0  0  0  0  0
   38.0270   20.6050   31.7970 C   0  0  0  0  0  2  0  0  0  0  0  0
   37.5400   21.3080   33.0510 C   0  0  0  0  0  2  0  0  0  0  0  0
   35.9630   30.8920   35.1290 C   0  0  0  0  0  0  0  0  0  0  0  0
   35.1730   30.1190   34.2900 C   0  0  0  0  0  0  0  0  0  0  0  0
   33.8330   30.0450   34.5030 C   0  0  0  0  0  0  0  0  0  0  0  0
   33.2220   30.7170   35.5310 C   0  0  0  0  0  0  0  0  0  0  0  0
   31.9500   30.8180   35.9580 N   0  0  0  0  0  0  0  0  0  0  0  0
   32.0040   31.6410   37.0310 C   0  0  0  0  0  0  0  0  0  0  0  0
   33.2590   32.0340   37.2590 N   0  0  0  0  0  0  0  0  0  0  0  0
   34.0590   31.4780   36.3410 C   0  0  0  0  0  0  0  0  0  0  0  0
   35.4110   31.5940   36.1820 C   0  0  0  0  0  0  0  0  0  0  0  0
   37.0230   30.9240   34.9250 H   0  0  0  0  0  0  0  0  0  0  0  0
   33.2050   29.4420   33.8510 H   0  0  0  0  0  0  0  0  0  0  0  0
   31.1020   30.3470   35.5330 H   0  0  0  0  0  0  0  0  0  0  0  0
   31.1270   31.9360   37.6240 H   0  0  0  0  0  0  0  0  0  0  0  0
   36.0150   32.2040   36.8470 H   0  0  0  0  0  0  0  0  0  0  0  0
  1  2  2  0  0  0  0
  1  6  1  0  0  0  0
  2  3  1  0  0  0  0
  3  9  1  0  0  0  0
  3  4  2  0  0  0  0
  5  4  1  0  0  0  0
  5 25  1  0  0  0  0
  6  5  2  0  0  0  0
  7  1  1  0  0  0  0
  8  2  1  0  0  0  0
  9 10  1  0  0  0  0
 10 15  1  0  0  0  0
 10 11  2  0  0  0  0
 11 16  1  0  0  0  0
 12 11  1  0  0  0  0
 13 12  2  0  0  0  0
 14  9  2  0  0  0  0
 14 13  1  0  0  0  0
 17 13  1  0  0  0  0
 17 23  1  0  0  0  0
 18 17  1  0  0  0  0
 19 18  1  0  0  0  0
 20 19  1  0  0  0  0
 20 22  1  0  0  0  0
 21 20  1  0  0  0  0
 22 23  1  0  0  0  0
 24 32  1  0  0  0  0
 25 26  1  0  0  0  0
 25 24  2  0  0  0  0
 26 27  2  0  0  0  0
 27 28  1  0  0  0  0
 27 31  1  0  0  0  0
 28 29  1  0  0  0  0
 29 30  2  0  0  0  0
 29 36  1  0  0  0  0
 31 30  1  0  0  0  0
 32 31  2  0  0  0  0
 32 37  1  0  0  0  0
 33 24  1  0  0  0  0
 34 26  1  0  0  0  0
 35 28  1  0  0  0  0
M  END
>  <minimizedAffinity>
-6.48714733

$$$$

 OpenBabel03272507083D

 37 41  0  0  0  0  0  0  0  0999 V2000
   36.6640   29.1390   30.9000 C   0  0  0  0  0  0  0  0  0  0  0  0
   37.2660   27.8820   31.1530 C   0  0  0  0  0  0  0  0  0  0  0  0
   37.0870   27.3580   32.4320 C   0  0  0  0  0  0  0  0  0  0  0  0
   36.3640   28.0510   33.3560 N   0  0  0  0  0  0  0  0  0  0  0  0
   35.8110   29.2520   33.0540 C   0  0  0  0  0  0  0  0  0  0  0  0
   35.9580   29.7880   31.8450 N   0  0  0  0  0  0  0  0  0  0  0  0
   36.8090   29.5430   29.8980 H   0  0  0  0  0  0  0  0  0  0  0  0
   37.8340   27.3210   30.4520 H   0  0  0  0  0  0  0  0  0  0  0  0
   37.6350   26.0760   32.8710 C   0  0  0  0  0  0  0  0  0  0  0  0
   38.7690   25.9540   33.6330 C   0  0  0  0  0  0  0  0  0  0  0  0
   39.3220   24.7700   34.0690 C   0  0  0  0  0  0  0  0  0  0  0  0
   38.6720   23.6450   33.7030 N   0  0  0  0  0  0  0  0  0  0  0  0
   37.5750   23.7250   32.9670 C   0  0  0  0  0  0  0  0  0  0  0  0
   37.0750   24.8870   32.5680 N   0  0  0  0  0  0  0  0  0  0  0  0
   39.3020   26.8680   33.9340 H   0  0  0  0  0  0  0  0  0  0  0  0
   40.2230   24.7670   34.6700 H   0  0  0  0  0  0  0  0  0  0  0  0
   36.9560   22.4700   32.6290 N   0  0  0  0  0  0  0  0  0  0  0  0
   35.7610   22.4410   31.8350 C   0  0  0  0  0  2  0  0  0  0  0  0
   35.5890   21.0350   31.3000 C   0  0  0  0  0  2  0  0  0  0  0  0
   36.9210   20.6210   30.7110 C   0  0  0  0  0  3  0  0  0  0  0  0
   36.8720   19.6770   30.1380 H   0  0  0  0  0  0  0  0  0  0  0  0
   37.9610   20.4680   31.8090 C   0  0  0  0  0  2  0  0  0  0  0  0
   37.4820   21.1960   33.0520 C   0  0  0  0  0  2  0  0  0  0  0  0
   33.6980   29.6450   34.2440 C   0  0  0  0  0  0  0  0  0  0  0  0
   35.0490   29.9320   34.1050 C   0  0  0  0  0  0  0  0  0  0  0  0
   35.6360   30.8320   34.9370 C   0  0  0  0  0  0  0  0  0  0  0  0
   34.9360   31.4750   35.9250 C   0  0  0  0  0  0  0  0  0  0  0  0
   35.2600   32.3850   36.8620 N   0  0  0  0  0  0  0  0  0  0  0  0
   34.1100   32.6210   37.5350 C   0  0  0  0  0  0  0  0  0  0  0  0
   33.1130   31.8870   37.0350 N   0  0  0  0  0  0  0  0  0  0  0  0
   33.5860   31.1510   36.0210 C   0  0  0  0  0  0  0  0  0  0  0  0
   32.9350   30.2590   35.2180 C   0  0  0  0  0  0  0  0  0  0  0  0
   33.2690   28.9250   33.5630 H   0  0  0  0  0  0  0  0  0  0  0  0
   36.6950   31.0640   34.8370 H   0  0  0  0  0  0  0  0  0  0  0  0
   36.2140   32.8130   37.0220 H   0  0  0  0  0  0  0  0  0  0  0  0
   34.0220   33.3230   38.3760 H   0  0  0  0  0  0  0  0  0  0  0  0
   31.8770   30.0440   35.3400 H   0  0  0  0  0  0  0  0  0  0  0  0
  1  2  2  0  0  0  0
  1  6  1  0  0  0  0
  2  3  1  0  0  0  0
  3  9  1  0  0  0  0
  3  4  2  0  0  0  0
  5  4  1  0  0  0  0
  5 25  1  0  0  0  0
  6  5  2  0  0  0  0
  7  1  1  0  0  0  0
  8  2  1  0  0  0  0
  9 10  1  0  0  0  0
 10 15  1  0  0  0  0
 10 11  2  0  0  0  0
 11 16  1  0  0  0  0
 12 11  1  0  0  0  0
 13 12  2  0  0  0  0
 14  9  2  0  0  0  0
 14 13  1  0  0  0  0
 17 13  1  0  0  0  0
 17 23  1  0  0  0  0
 18 17  1  0  0  0  0
 19 18  1  0  0  0  0
 20 19  1  0  0  0  0
 20 22  1  0  0  0  0
 21 20  1  0  0  0  0
 22 23  1  0  0  0  0
 24 32  1  0  0  0  0
 25 24  2  0  0  0  0
 25 26  1  0  0  0  0
 26 27  2  0  0  0  0
 27 31  1  0  0  0  0
 27 28  1  0  0  0  0
 28 35  1  0  0  0  0
 28 29  1  0  0  0  0
 29 36  1  0  0  0  0
 30 29  2  0  0  0  0
 31 30  1  0  0  0  0
 32 37  1  0  0  0  0
 32 31  2  0  0  0  0
 33 24  1  0  0  0  0
 34 26  1  0  0  0  0
M  END
>  <minimizedAffinity>
-6.47697449

$$$$

 OpenBabel03272507083D

 37 41  0  0  0  0  0  0  0  0999 V2000
   37.0300   28.3540   31.8240 C   0  0  0  0  0  0  0  0  0  0  0  0
   37.7370   27.2920   32.4400 C   0  0  0  0  0  0  0  0  0  0  0  0
   37.5330   27.1280   33.8090 C   0  0  0  0  0  0  0  0  0  0  0  0
   36.6910   27.9660   34.4770 N   0  0  0  0  0  0  0  0  0  0  0  0
   36.0420   28.9670   33.8300 C   0  0  0  0  0  0  0  0  0  0  0  0
   36.2090   29.1580   32.5240 N   0  0  0  0  0  0  0  0  0  0  0  0
   37.1950   28.4760   30.7530 H   0  0  0  0  0  0  0  0  0  0  0  0
   38.3970   26.6240   31.9440 H   0  0  0  0  0  0  0  0  0  0  0  0
   38.1760   26.0870   34.6090 C   0  0  0  0  0  0  0  0  0  0  0  0
   37.5740   25.4650   35.6730 C   0  0  0  0  0  0  0  0  0  0  0  0
   38.1400   24.4820   36.4560 C   0  0  0  0  0  0  0  0  0  0  0  0
   39.3960   24.1150   36.1250 N   0  0  0  0  0  0  0  0  0  0  0  0
   40.0080   24.6940   35.1040 C   0  0  0  0  0  0  0  0  0  0  0  0
   39.4260   25.6380   34.3760 N   0  0  0  0  0  0  0  0  0  0  0  0
   36.5510   25.7610   35.9470 H   0  0  0  0  0  0  0  0  0  0  0  0
   37.5900   24.0450   37.2790 H   0  0  0  0  0  0  0  0  0  0  0  0
   41.3440   24.2330   34.8320 N   0  0  0  0  0  0  0  0  0  0  0  0
   42.0980   24.7930   33.7480 C   0  0  0  0  0  2  0  0  0  0  0  0
   43.5550   24.4410   33.9600 C   0  0  0  0  0  2  0  0  0  0  0  0
   43.8880   24.7890   35.3950 C   0  0  0  0  0  3  0  0  0  0  0  0
   44.9690   24.7340   35.6190 H   0  0  0  0  0  0  0  0  0  0  0  0
   43.1470   23.8660   36.3490 C   0  0  0  0  0  2  0  0  0  0  0  0
   41.9950   23.2090   35.6110 C   0  0  0  0  0  2  0  0  0  0  0  0
   33.7830   29.6790   34.4800 C   0  0  0  0  0  0  0  0  0  0  0  0
   35.1550   29.8240   34.6230 C   0  0  0  0  0  0  0  0  0  0  0  0
   35.6500   30.7500   35.4860 C   0  0  0  0  0  0  0  0  0  0  0  0
   34.8320   31.5580   36.2340 C   0  0  0  0  0  0  0  0  0  0  0  0
   35.0500   32.5290   37.1390 N   0  0  0  0  0  0  0  0  0  0  0  0
   33.8170   32.9410   37.5140 C   0  0  0  0  0  0  0  0  0  0  0  0
   32.8740   32.2530   36.8680 N   0  0  0  0  0  0  0  0  0  0  0  0
   33.4650   31.3720   36.0520 C   0  0  0  0  0  0  0  0  0  0  0  0
   32.9040   30.4620   35.2020 C   0  0  0  0  0  0  0  0  0  0  0  0
   33.4300   28.9330   33.7830 H   0  0  0  0  0  0  0  0  0  0  0  0
   36.7250   30.8710   35.6060 H   0  0  0  0  0  0  0  0  0  0  0  0
   35.9900   32.8820   37.4720 H   0  0  0  0  0  0  0  0  0  0  0  0
   33.6320   33.7360   38.2520 H   0  0  0  0  0  0  0  0  0  0  0  0
   31.8270   30.3610   35.1020 H   0  0  0  0  0  0  0  0  0  0  0  0
  1  2  2  0  0  0  0
  1  6  1  0  0  0  0
  2  3  1  0  0  0  0
  3  4  2  0  0  0  0
  3  9  1  0  0  0  0
  5  4  1  0  0  0  0
  5 25  1  0  0  0  0
  6  5  2  0  0  0  0
  7  1  1  0  0  0  0
  8  2  1  0  0  0  0
  9 10  1  0  0  0  0
 10 15  1  0  0  0  0
 10 11  2  0  0  0  0
 11 16  1  0  0  0  0
 12 11  1  0  0  0  0
 13 12  2  0  0  0  0
 14  9  2  0  0  0  0
 14 13  1  0  0  0  0
 17 13  1  0  0  0  0
 17 23  1  0  0  0  0
 18 19  1  0  0  0  0
 18 17  1  0  0  0  0
 19 20  1  0  0  0  0
 20 21  1  0  0  0  0
 20 22  1  0  0  0  0
 23 22  1  0  0  0  0
 24 25  2  0  0  0  0
 24 32  1  0  0  0  0
 25 26  1  0  0  0  0
 26 34  1  0  0  0  0
 26 27  2  0  0  0  0
 27 28  1  0  0  0  0
 28 35  1  0  0  0  0
 28 29  1  0  0  0  0
 29 36  1  0  0  0  0
 30 29  2  0  0  0  0
 31 27  1  0  0  0  0
 31 30  1  0  0  0  0
 32 31  2  0  0  0  0
 33 24  1  0  0  0  0
 37 32  1  0  0  0  0
M  END
>  <minimizedAffinity>
-6.44877529

$$$$

 OpenBabel03272507083D

 37 41  0  0  0  0  0  0  0  0999 V2000
   37.2150   27.6940   31.7410 C   0  0  0  0  0  0  0  0  0  0  0  0
   36.3920   28.7270   32.2520 C   0  0  0  0  0  0  0  0  0  0  0  0
   36.1370   28.6920   33.6220 C   0  0  0  0  0  0  0  0  0  0  0  0
   36.6710   27.7000   34.3880 N   0  0  0  0  0  0  0  0  0  0  0  0
   37.4530   26.7360   33.8400 C   0  0  0  0  0  0  0  0  0  0  0  0
   37.7210   26.7330   32.5360 N   0  0  0  0  0  0  0  0  0  0  0  0
   37.4100   27.7280   30.6690 H   0  0  0  0  0  0  0  0  0  0  0  0
   35.9640   29.5120   31.6790 H   0  0  0  0  0  0  0  0  0  0  0  0
   35.3110   29.6740   34.3220 C   0  0  0  0  0  0  0  0  0  0  0  0
   34.0000   29.4600   34.6640 C   0  0  0  0  0  0  0  0  0  0  0  0
   33.1830   30.3540   35.3210 C   0  0  0  0  0  0  0  0  0  0  0  0
   33.7470   31.5360   35.6500 N   0  0  0  0  0  0  0  0  0  0  0  0
   35.0100   31.7770   35.3360 C   0  0  0  0  0  0  0  0  0  0  0  0
   35.7610   30.8870   34.7010 N   0  0  0  0  0  0  0  0  0  0  0  0
   33.5360   28.4990   34.3980 H   0  0  0  0  0  0  0  0  0  0  0  0
   32.1570   30.1010   35.5520 H   0  0  0  0  0  0  0  0  0  0  0  0
   35.5170   33.0660   35.7290 N   0  0  0  0  0  0  0  0  0  0  0  0
   36.8740   33.4300   35.4380 C   0  0  0  0  0  2  0  0  0  0  0  0
   36.9940   34.9330   35.5770 C   0  0  0  0  0  2  0  0  0  0  0  0
   35.8460   35.5400   34.8000 C   0  0  0  0  0  3  0  0  0  0  0  0
   35.9250   36.6370   34.6860 H   0  0  0  0  0  0  0  0  0  0  0  0
   34.5210   35.2180   35.4730 C   0  0  0  0  0  2  0  0  0  0  0  0
   34.7180   34.0460   36.4190 C   0  0  0  0  0  2  0  0  0  0  0  0
   38.8590   24.7570   34.2160 C   0  0  0  0  0  0  0  0  0  0  0  0
   37.9870   25.7050   34.7340 C   0  0  0  0  0  0  0  0  0  0  0  0
   37.6460   25.6610   36.0490 C   0  0  0  0  0  0  0  0  0  0  0  0
   38.1390   24.7030   36.8970 C   0  0  0  0  0  0  0  0  0  0  0  0
   37.9720   24.4350   38.2050 N   0  0  0  0  0  0  0  0  0  0  0  0
   38.7380   23.3450   38.4400 C   0  0  0  0  0  0  0  0  0  0  0  0
   39.3550   22.9530   37.3230 N   0  0  0  0  0  0  0  0  0  0  0  0
   39.0090   23.7770   36.3270 C   0  0  0  0  0  0  0  0  0  0  0  0
   39.3900   23.7650   35.0160 C   0  0  0  0  0  0  0  0  0  0  0  0
   39.1050   24.8270   33.1670 H   0  0  0  0  0  0  0  0  0  0  0  0
   36.9640   26.4000   36.4650 H   0  0  0  0  0  0  0  0  0  0  0  0
   37.3670   24.9720   38.8870 H   0  0  0  0  0  0  0  0  0  0  0  0
   38.8310   22.8580   39.4220 H   0  0  0  0  0  0  0  0  0  0  0  0
   40.0740   23.0160   34.6260 H   0  0  0  0  0  0  0  0  0  0  0  0
  1  2  2  0  0  0  0
  1  6  1  0  0  0  0
  2  3  1  0  0  0  0
  3  9  1  0  0  0  0
  3  4  2  0  0  0  0
  5  4  1  0  0  0  0
  5 25  1  0  0  0  0
  6  5  2  0  0  0  0
  7  1  1  0  0  0  0
  8  2  1  0  0  0  0
  9 10  2  0  0  0  0
  9 14  1  0  0  0  0
 10 11  1  0  0  0  0
 11 16  1  0  0  0  0
 11 12  2  0  0  0  0
 13 12  1  0  0  0  0
 13 17  1  0  0  0  0
 14 13  2  0  0  0  0
 15 10  1  0  0  0  0
 17 23  1  0  0  0  0
 18 19  1  0  0  0  0
 18 17  1  0  0  0  0
 20 22  1  0  0  0  0
 20 19  1  0  0  0  0
 21 20  1  0  0  0  0
 22 23  1  0  0  0  0
 24 25  2  0  0  0  0
 24 32  1  0  0  0  0
 25 26  1  0  0  0  0
 26 34  1  0  0  0  0
 26 27  2  0  0  0  0
 27 28  1  0  0  0  0
 28 29  1  0  0  0  0
 28 35  1  0  0  0  0
 29 36  1  0  0  0  0
 30 29  2  0  0  0  0
 31 27  1  0  0  0  0
 31 30  1  0  0  0  0
 32 31  2  0  0  0  0
 33 24  1  0  0  0  0
 37 32  1  0  0  0  0
M  END
>  <minimizedAffinity>
-6.41527939

$$$$

 OpenBabel03272507083D

 37 41  0  0  0  0  0  0  0  0999 V2000
   36.6690   29.9600   30.0860 C   0  0  0  0  0  0  0  0  0  0  0  0
   36.0280   30.5260   31.2160 C   0  0  0  0  0  0  0  0  0  0  0  0
   35.7010   29.6450   32.2450 C   0  0  0  0  0  0  0  0  0  0  0  0
   36.0010   28.3210   32.1290 N   0  0  0  0  0  0  0  0  0  0  0  0
   36.6170   27.8380   31.0200 C   0  0  0  0  0  0  0  0  0  0  0  0
   36.9460   28.6450   30.0140 N   0  0  0  0  0  0  0  0  0  0  0  0
   36.9210   30.6550   29.2850 H   0  0  0  0  0  0  0  0  0  0  0  0
   35.7830   31.5520   31.3330 H   0  0  0  0  0  0  0  0  0  0  0  0
   35.0390   30.0490   33.4830 C   0  0  0  0  0  0  0  0  0  0  0  0
   35.5490   30.9820   34.3500 C   0  0  0  0  0  0  0  0  0  0  0  0
   34.9620   31.3930   35.5270 C   0  0  0  0  0  0  0  0  0  0  0  0
   33.7810   30.8150   35.8300 N   0  0  0  0  0  0  0  0  0  0  0  0
   33.2580   29.9110   35.0170 C   0  0  0  0  0  0  0  0  0  0  0  0
   33.8580   29.5430   33.8920 N   0  0  0  0  0  0  0  0  0  0  0  0
   36.5110   31.4560   34.1070 H   0  0  0  0  0  0  0  0  0  0  0  0
   35.4370   32.1380   36.1520 H   0  0  0  0  0  0  0  0  0  0  0  0
   31.9970   29.3530   35.4300 N   0  0  0  0  0  0  0  0  0  0  0  0
   31.3420   28.3650   34.6220 C   0  0  0  0  0  2  0  0  0  0  0  0
   30.2990   27.6780   35.4780 C   0  0  0  0  0  2  0  0  0  0  0  0
   30.9770   27.2930   36.7750 C   0  0  0  0  0  3  0  0  0  0  0  0
   30.3610   26.6330   37.4120 H   0  0  0  0  0  0  0  0  0  0  0  0
   31.3410   28.5350   37.5720 C   0  0  0  0  0  2  0  0  0  0  0  0
   31.3290   29.7390   36.6470 C   0  0  0  0  0  2  0  0  0  0  0  0
   38.1800   25.9850   30.6200 C   0  0  0  0  0  0  0  0  0  0  0  0
   36.9040   26.4010   30.9740 C   0  0  0  0  0  0  0  0  0  0  0  0
   35.9510   25.4780   31.2690 C   0  0  0  0  0  0  0  0  0  0  0  0
   36.2050   24.1310   31.2310 C   0  0  0  0  0  0  0  0  0  0  0  0
   35.4670   23.0320   31.4690 N   0  0  0  0  0  0  0  0  0  0  0  0
   36.3070   21.9920   31.2550 C   0  0  0  0  0  0  0  0  0  0  0  0
   37.5160   22.4300   30.8980 N   0  0  0  0  0  0  0  0  0  0  0  0
   37.5000   23.7680   30.8690 C   0  0  0  0  0  0  0  0  0  0  0  0
   38.5020   24.6440   30.5600 C   0  0  0  0  0  0  0  0  0  0  0  0
   38.9080   26.7490   30.3920 H   0  0  0  0  0  0  0  0  0  0  0  0
   34.9480   25.7940   31.5490 H   0  0  0  0  0  0  0  0  0  0  0  0
   34.4500   23.0060   31.7600 H   0  0  0  0  0  0  0  0  0  0  0  0
   36.0190   20.9370   31.3640 H   0  0  0  0  0  0  0  0  0  0  0  0
   39.4950   24.3020   30.2850 H   0  0  0  0  0  0  0  0  0  0  0  0
  1  2  1  0  0  0  0
  2  8  1  0  0  0  0
  2  3  2  0  0  0  0
  3  9  1  0  0  0  0
  4  3  1  0  0  0  0
  5  4  2  0  0  0  0
  6  1  2  0  0  0  0
  6  5  1  0  0  0  0
  7  1  1  0  0  0  0
  9 14  2  0  0  0  0
  9 10  1  0  0  0  0
 10 11  2  0  0  0  0
 11 12  1  0  0  0  0
 11 16  1  0  0  0  0
 13 17  1  0  0  0  0
 13 12  2  0  0  0  0
 14 13  1  0  0  0  0
 15 10  1  0  0  0  0
 17 23  1  0  0  0  0
 18 17  1  0  0  0  0
 18 19  1  0  0  0  0
 19 20  1  0  0  0  0
 20 21  1  0  0  0  0
 20 22  1  0  0  0  0
 23 22  1  0  0  0  0
 24 25  1  0  0  0  0
 25  5  1  0  0  0  0
 25 26  2  0  0  0  0
 26 34  1  0  0  0  0
 27 26  1  0  0  0  0
 27 28  1  0  0  0  0
 28 35  1  0  0  0  0
 29 36  1  0  0  0  0
 29 28  1  0  0  0  0
 30 29  2  0  0  0  0
 31 30  1  0  0  0  0
 31 27  2  0  0  0  0
 32 24  2  0  0  0  0
 32 31  1  0  0  0  0
 33 24  1  0  0  0  0
 37 32  1  0  0  0  0
M  END
>  <minimizedAffinity>
-6.35865164

$$$$

 OpenBabel03272507083D

 37 41  0  0  0  0  0  0  0  0999 V2000
   36.6230   29.6300   30.3010 C   0  0  0  0  0  0  0  0  0  0  0  0
   35.6240   30.0930   31.1920 C   0  0  0  0  0  0  0  0  0  0  0  0
   35.0310   29.1290   32.0060 C   0  0  0  0  0  0  0  0  0  0  0  0
   35.4220   27.8270   31.9170 N   0  0  0  0  0  0  0  0  0  0  0  0
   36.3860   27.4460   31.0420 C   0  0  0  0  0  0  0  0  0  0  0  0
   36.9780   28.3330   30.2460 N   0  0  0  0  0  0  0  0  0  0  0  0
   37.0830   30.3890   29.6670 H   0  0  0  0  0  0  0  0  0  0  0  0
   35.3000   31.1000   31.2830 H   0  0  0  0  0  0  0  0  0  0  0  0
   33.9840   29.4220   32.9840 C   0  0  0  0  0  0  0  0  0  0  0  0
   32.7010   28.9460   32.8900 C   0  0  0  0  0  0  0  0  0  0  0  0
   31.6830   29.1950   33.7840 C   0  0  0  0  0  0  0  0  0  0  0  0
   32.0010   29.9770   34.8380 N   0  0  0  0  0  0  0  0  0  0  0  0
   33.2290   30.4540   34.9610 C   0  0  0  0  0  0  0  0  0  0  0  0
   34.1810   30.1900   34.0750 N   0  0  0  0  0  0  0  0  0  0  0  0
   32.4370   28.3080   32.0340 H   0  0  0  0  0  0  0  0  0  0  0  0
   30.6960   28.7770   33.6320 H   0  0  0  0  0  0  0  0  0  0  0  0
   33.4680   31.2780   36.1170 N   0  0  0  0  0  0  0  0  0  0  0  0
   34.7650   31.8460   36.3470 C   0  0  0  0  0  2  0  0  0  0  0  0
   34.6130   32.9630   37.3580 C   0  0  0  0  0  2  0  0  0  0  0  0
   33.4610   33.8270   36.8900 C   0  0  0  0  0  3  0  0  0  0  0  0
   33.3640   34.7710   37.4550 H   0  0  0  0  0  0  0  0  0  0  0  0
   32.1510   33.0630   36.9920 C   0  0  0  0  0  2  0  0  0  0  0  0
   32.4490   31.5770   37.0910 C   0  0  0  0  0  2  0  0  0  0  0  0
   38.0660   25.6780   30.7460 C   0  0  0  0  0  0  0  0  0  0  0  0
   36.7490   26.0260   31.0080 C   0  0  0  0  0  0  0  0  0  0  0  0
   35.8250   25.0530   31.2260 C   0  0  0  0  0  0  0  0  0  0  0  0
   36.1500   23.7210   31.1970 C   0  0  0  0  0  0  0  0  0  0  0  0
   35.4530   22.5830   31.3730 N   0  0  0  0  0  0  0  0  0  0  0  0
   36.3580   21.5900   31.2150 C   0  0  0  0  0  0  0  0  0  0  0  0
   37.5660   22.0920   30.9510 N   0  0  0  0  0  0  0  0  0  0  0  0
   37.4840   23.4270   30.9300 C   0  0  0  0  0  0  0  0  0  0  0  0
   38.4600   24.3550   30.7020 C   0  0  0  0  0  0  0  0  0  0  0  0
   38.7700   26.4800   30.5790 H   0  0  0  0  0  0  0  0  0  0  0  0
   34.7890   25.3150   31.4320 H   0  0  0  0  0  0  0  0  0  0  0  0
   34.4200   22.5030   31.5880 H   0  0  0  0  0  0  0  0  0  0  0  0
   36.1170   20.5200   31.2950 H   0  0  0  0  0  0  0  0  0  0  0  0
   39.4870   24.0670   30.4990 H   0  0  0  0  0  0  0  0  0  0  0  0
  1  2  1  0  0  0  0
  2  8  1  0  0  0  0
  2  3  2  0  0  0  0
  3  9  1  0  0  0  0
  4  3  1  0  0  0  0
  5  4  2  0  0  0  0
  6  1  2  0  0  0  0
  6  5  1  0  0  0  0
  7  1  1  0  0  0  0
  9 14  1  0  0  0  0
 10  9  2  0  0  0  0
 10 11  1  0  0  0  0
 11 12  2  0  0  0  0
 12 13  1  0  0  0  0
 13 17  1  0  0  0  0
 14 13  2  0  0  0  0
 15 10  1  0  0  0  0
 16 11  1  0  0  0  0
 17 18  1  0  0  0  0
 17 23  1  0  0  0  0
 18 19  1  0  0  0  0
 20 22  1  0  0  0  0
 20 19  1  0  0  0  0
 20 21  1  0  0  0  0
 22 23  1  0  0  0  0
 24 25  1  0  0  0  0
 25  5  1  0  0  0  0
 25 26  2  0  0  0  0
 26 34  1  0  0  0  0
 27 26  1  0  0  0  0
 27 28  1  0  0  0  0
 28 35  1  0  0  0  0
 29 36  1  0  0  0  0
 29 28  1  0  0  0  0
 30 29  2  0  0  0  0
 31 30  1  0  0  0  0
 31 27  2  0  0  0  0
 32 24  2  0  0  0  0
 32 31  1  0  0  0  0
 33 24  1  0  0  0  0
 37 32  1  0  0  0  0
M  END
>  <minimizedAffinity>
-6.26896477

$$$$

 OpenBabel03272507083D

 37 41  0  0  0  0  0  0  0  0999 V2000
   37.6040   28.0090   31.4330 C   0  0  0  0  0  0  0  0  0  0  0  0
   36.6800   28.9990   31.8510 C   0  0  0  0  0  0  0  0  0  0  0  0
   36.1460   28.8440   33.1290 C   0  0  0  0  0  0  0  0  0  0  0  0
   36.5210   27.7850   33.9000 N   0  0  0  0  0  0  0  0  0  0  0  0
   37.4120   26.8690   33.4440 C   0  0  0  0  0  0  0  0  0  0  0  0
   37.9450   26.9790   32.2290 N   0  0  0  0  0  0  0  0  0  0  0  0
   38.0170   28.1370   30.4320 H   0  0  0  0  0  0  0  0  0  0  0  0
   36.3710   29.8330   31.2720 H   0  0  0  0  0  0  0  0  0  0  0  0
   35.1810   29.7660   33.7250 C   0  0  0  0  0  0  0  0  0  0  0  0
   35.4830   31.0540   34.0890 C   0  0  0  0  0  0  0  0  0  0  0  0
   34.6100   31.9570   34.6540 C   0  0  0  0  0  0  0  0  0  0  0  0
   33.3510   31.5120   34.8550 N   0  0  0  0  0  0  0  0  0  0  0  0
   33.0230   30.2760   34.5160 C   0  0  0  0  0  0  0  0  0  0  0  0
   33.8980   29.4370   33.9750 N   0  0  0  0  0  0  0  0  0  0  0  0
   36.5080   31.4210   33.9270 H   0  0  0  0  0  0  0  0  0  0  0  0
   34.9350   32.9570   34.9100 H   0  0  0  0  0  0  0  0  0  0  0  0
   31.6580   29.8970   34.7710 N   0  0  0  0  0  0  0  0  0  0  0  0
   31.1970   28.5790   34.4420 C   0  0  0  0  0  2  0  0  0  0  0  0
   29.8990   28.3390   35.1840 C   0  0  0  0  0  2  0  0  0  0  0  0
   30.1350   28.7400   36.6250 C   0  0  0  0  0  3  0  0  0  0  0  0
   29.3100   28.4490   37.3010 H   0  0  0  0  0  0  0  0  0  0  0  0
   30.3410   30.2420   36.7300 C   0  0  0  0  0  2  0  0  0  0  0  0
   30.6930   30.7920   35.3590 C   0  0  0  0  0  2  0  0  0  0  0  0
   38.1860   24.5610   33.7780 C   0  0  0  0  0  0  0  0  0  0  0  0
   37.7620   25.7590   34.3350 C   0  0  0  0  0  0  0  0  0  0  0  0
   37.6770   25.8830   35.6870 C   0  0  0  0  0  0  0  0  0  0  0  0
   38.0010   24.8530   36.5330 C   0  0  0  0  0  0  0  0  0  0  0  0
   38.0090   24.7080   37.8710 N   0  0  0  0  0  0  0  0  0  0  0  0
   38.4330   23.4410   38.0840 C   0  0  0  0  0  0  0  0  0  0  0  0
   38.6780   22.8260   36.9240 N   0  0  0  0  0  0  0  0  0  0  0  0
   38.4210   23.6750   35.9220 C   0  0  0  0  0  0  0  0  0  0  0  0
   38.5260   23.4850   34.5740 C   0  0  0  0  0  0  0  0  0  0  0  0
   38.2390   24.5040   32.7010 H   0  0  0  0  0  0  0  0  0  0  0  0
   37.3460   26.8180   36.1340 H   0  0  0  0  0  0  0  0  0  0  0  0
   37.7380   25.4390   38.5860 H   0  0  0  0  0  0  0  0  0  0  0  0
   38.5540   22.9920   39.0800 H   0  0  0  0  0  0  0  0  0  0  0  0
   38.8610   22.5420   34.1530 H   0  0  0  0  0  0  0  0  0  0  0  0
  1  2  2  0  0  0  0
  1  6  1  0  0  0  0
  2  3  1  0  0  0  0
  3  9  1  0  0  0  0
  3  4  2  0  0  0  0
  5  4  1  0  0  0  0
  5 25  1  0  0  0  0
  6  5  2  0  0  0  0
  7  1  1  0  0  0  0
  8  2  1  0  0  0  0
  9 14  2  0  0  0  0
  9 10  1  0  0  0  0
 10 11  2  0  0  0  0
 11 12  1  0  0  0  0
 11 16  1  0  0  0  0
 13 17  1  0  0  0  0
 13 12  2  0  0  0  0
 14 13  1  0  0  0  0
 15 10  1  0  0  0  0
 17 23  1  0  0  0  0
 18 17  1  0  0  0  0
 18 19  1  0  0  0  0
 19 20  1  0  0  0  0
 20 22  1  0  0  0  0
 20 21  1  0  0  0  0
 23 22  1  0  0  0  0
 24 25  2  0  0  0  0
 24 32  1  0  0  0  0
 25 26  1  0  0  0  0
 26 34  1  0  0  0  0
 26 27  2  0  0  0  0
 27 28  1  0  0  0  0
 28 29  1  0  0  0  0
 28 35  1  0  0  0  0
 29 36  1  0  0  0  0
 30 29  2  0  0  0  0
 31 27  1  0  0  0  0
 31 30  1  0  0  0  0
 32 31  2  0  0  0  0
 33 24  1  0  0  0  0
 37 32  1  0  0  0  0
M  END
>  <minimizedAffinity>
-6.1732564

$$$$
