
 OpenBabel03272502083D

 37 40  0  0  0  0  0  0  0  0999 V2000
   35.4220   28.0400   34.0830 F   0  0  0  0  0  0  0  0  0  0  0  0
   35.7160   28.8280   32.9990 C   0  0  0  0  0  0  0  0  0  0  0  0
   36.2110   28.2930   31.8280 C   0  0  0  0  0  0  0  0  0  0  0  0
   36.4700   29.1420   30.7730 C   0  0  0  0  0  0  0  0  0  0  0  0
   36.2330   30.5100   30.8900 C   0  0  0  0  0  0  0  0  0  0  0  0
   35.7360   30.9860   32.0900 C   0  0  0  0  0  0  0  0  0  0  0  0
   35.4710   30.1930   33.1430 C   0  0  0  0  0  0  0  0  0  0  0  0
   36.8610   28.6560   29.8750 H   0  0  0  0  0  0  0  0  0  0  0  0
   36.4510   31.1310   30.0360 H   0  0  0  0  0  0  0  0  0  0  0  0
   35.5820   32.0570   32.0950 H   0  0  0  0  0  0  0  0  0  0  0  0
   37.5370   26.3900   32.4780 C   0  0  0  0  0  0  0  0  0  0  0  0
   36.4100   26.8760   31.8350 C   0  0  0  0  0  0  0  0  0  0  0  0
   35.5630   25.9490   31.2550 C   0  0  0  0  0  0  0  0  0  0  0  0
   35.8500   24.6270   31.3290 N   0  0  0  0  0  0  0  0  0  0  0  0
   36.9460   24.1930   31.9570 C   0  0  0  0  0  0  0  0  0  0  0  0
   37.7750   25.0570   32.5220 N   0  0  0  0  0  0  0  0  0  0  0  0
   38.2360   27.0520   32.9490 H   0  0  0  0  0  0  0  0  0  0  0  0
   34.6940   26.3080   30.7570 H   0  0  0  0  0  0  0  0  0  0  0  0
   37.1800   22.7890   31.9930 N   0  0  0  0  0  0  0  0  0  0  0  0
   36.9500   22.0370   33.2130 C   0  0  0  0  0  2  0  0  0  0  0  0
   35.6770   21.2420   33.0060 C   0  0  0  0  0  2  0  0  0  0  0  0
   35.4860   20.9880   31.5430 C   0  0  0  0  0  3  0  0  0  0  0  0
   34.9650   19.9910   31.4650 H   0  0  0  0  0  0  0  0  0  0  0  0
   36.7850   20.7940   30.7820 C   0  0  0  0  0  2  0  0  0  0  0  0
   37.6510   22.0340   30.8450 C   0  0  0  0  0  2  0  0  0  0  0  0
   32.4250   29.8090   33.7550 Br  0  0  0  0  0  0  0  0  0  0  0  0
   33.6870   30.6780   34.8860 C   0  0  0  0  0  0  0  0  0  0  0  0
   34.9610   30.7420   34.3850 C   0  0  0  0  0  0  0  0  0  0  0  0
   35.9370   31.4010   35.1520 C   0  0  0  0  0  0  0  0  0  0  0  0
   35.6250   31.9540   36.3520 C   0  0  0  0  0  0  0  0  0  0  0  0
   34.3150   31.8520   36.8030 C   0  0  0  0  0  0  0  0  0  0  0  0
   33.3230   31.2040   36.0640 C   0  0  0  0  0  0  0  0  0  0  0  0
   36.9630   31.4980   34.8330 H   0  0  0  0  0  0  0  0  0  0  0  0
   36.3310   32.4730   36.9860 H   0  0  0  0  0  0  0  0  0  0  0  0
   34.0290   32.2820   37.7580 H   0  0  0  0  0  0  0  0  0  0  0  0
   32.0230   31.0650   36.4450 O   0  0  0  0  0  0  0  0  0  0  0  0
   31.3270   31.6610   35.9870 H   0  0  0  0  0  0  0  0  0  0  0  0
  2  7  1  0  0  0  0
  2  1  1  0  0  0  0
  3 12  1  0  0  0  0
  3  2  2  0  0  0  0
  4  5  2  0  0  0  0
  4  3  1  0  0  0  0
  5  6  1  0  0  0  0
  6 10  1  0  0  0  0
  6  7  2  0  0  0  0
  7 28  1  0  0  0  0
  8  4  1  0  0  0  0
  9  5  1  0  0  0  0
 11 16  1  0  0  0  0
 11 17  1  0  0  0  0
 12 11  2  0  0  0  0
 13 14  2  0  0  0  0
 13 12  1  0  0  0  0
 14 15  1  0  0  0  0
 15 19  1  0  0  0  0
 15 16  2  0  0  0  0
 18 13  1  0  0  0  0
 19 20  1  0  0  0  0
 21 20  1  0  0  0  0
 22 21  1  0  0  0  0
 23 22  1  0  0  0  0
 24 25  1  0  0  0  0
 24 22  1  0  0  0  0
 25 19  1  0  0  0  0
 26 27  1  0  0  0  0
 27 32  1  0  0  0  0
 28 27  2  0  0  0  0
 28 29  1  0  0  0  0
 29 30  2  0  0  0  0
 30 31  1  0  0  0  0
 30 34  1  0  0  0  0
 31 35  1  0  0  0  0
 32 36  1  0  0  0  0
 32 31  2  0  0  0  0
 33 29  1  0  0  0  0
 37 36  1  0  0  0  0
M  END
>  <minimizedAffinity>
-6.78313923

$$$$

 OpenBabel03272502083D

 37 40  0  0  0  0  0  0  0  0999 V2000
   36.3430   27.9450   35.2860 F   0  0  0  0  0  0  0  0  0  0  0  0
   36.5360   28.2960   33.9740 C   0  0  0  0  0  0  0  0  0  0  0  0
   37.3490   27.5590   33.1390 C   0  0  0  0  0  0  0  0  0  0  0  0
   37.4840   27.9600   31.8270 C   0  0  0  0  0  0  0  0  0  0  0  0
   36.8110   29.0860   31.3580 C   0  0  0  0  0  0  0  0  0  0  0  0
   36.0100   29.7840   32.2440 C   0  0  0  0  0  0  0  0  0  0  0  0
   35.8520   29.4270   33.5310 C   0  0  0  0  0  0  0  0  0  0  0  0
   38.1430   27.3340   31.2190 H   0  0  0  0  0  0  0  0  0  0  0  0
   36.9490   29.3580   30.3240 H   0  0  0  0  0  0  0  0  0  0  0  0
   35.5260   30.6420   31.7990 H   0  0  0  0  0  0  0  0  0  0  0  0
   37.5350   25.1680   33.3710 C   0  0  0  0  0  0  0  0  0  0  0  0
   37.9830   26.4250   33.7420 C   0  0  0  0  0  0  0  0  0  0  0  0
   39.0110   26.4850   34.6650 C   0  0  0  0  0  0  0  0  0  0  0  0
   39.5390   25.3430   35.1670 N   0  0  0  0  0  0  0  0  0  0  0  0
   39.0840   24.1460   34.7870 C   0  0  0  0  0  0  0  0  0  0  0  0
   38.1000   24.0580   33.9050 N   0  0  0  0  0  0  0  0  0  0  0  0
   36.7410   25.0490   32.6610 H   0  0  0  0  0  0  0  0  0  0  0  0
   39.3650   27.4440   34.9600 H   0  0  0  0  0  0  0  0  0  0  0  0
   39.6890   22.9910   35.3600 N   0  0  0  0  0  0  0  0  0  0  0  0
   40.6120   22.1840   34.5820 C   0  0  0  0  0  2  0  0  0  0  0  0
   42.0020   22.4740   35.1110 C   0  0  0  0  0  2  0  0  0  0  0  0
   41.9050   22.9060   36.5410 C   0  0  0  0  0  3  0  0  0  0  0  0
   42.8490   22.5450   37.0400 H   0  0  0  0  0  0  0  0  0  0  0  0
   40.7870   22.2270   37.3110 C   0  0  0  0  0  2  0  0  0  0  0  0
   39.4330   22.5540   36.7200 C   0  0  0  0  0  2  0  0  0  0  0  0
   32.7520   29.1940   33.1610 Br  0  0  0  0  0  0  0  0  0  0  0  0
   33.6400   30.2410   34.4810 C   0  0  0  0  0  0  0  0  0  0  0  0
   35.0090   30.1990   34.4240 C   0  0  0  0  0  0  0  0  0  0  0  0
   35.7300   30.9760   35.3470 C   0  0  0  0  0  0  0  0  0  0  0  0
   35.0870   31.7420   36.2660 C   0  0  0  0  0  0  0  0  0  0  0  0
   33.6980   31.7380   36.2700 C   0  0  0  0  0  0  0  0  0  0  0  0
   32.9540   30.9770   35.3670 C   0  0  0  0  0  0  0  0  0  0  0  0
   36.8080   31.0020   35.3710 H   0  0  0  0  0  0  0  0  0  0  0  0
   35.5860   32.3600   37.0000 H   0  0  0  0  0  0  0  0  0  0  0  0
   33.1510   32.3380   36.9910 H   0  0  0  0  0  0  0  0  0  0  0  0
   31.5950   30.9240   35.3160 O   0  0  0  0  0  0  0  0  0  0  0  0
   31.1260   31.4340   34.5610 H   0  0  0  0  0  0  0  0  0  0  0  0
  2  1  1  0  0  0  0
  3 12  1  0  0  0  0
  3  2  2  0  0  0  0
  4  3  1  0  0  0  0
  5  4  2  0  0  0  0
  5  6  1  0  0  0  0
  6  7  2  0  0  0  0
  7  2  1  0  0  0  0
  7 28  1  0  0  0  0
  8  4  1  0  0  0  0
  9  5  1  0  0  0  0
 10  6  1  0  0  0  0
 11 12  2  0  0  0  0
 11 16  1  0  0  0  0
 12 13  1  0  0  0  0
 13 18  1  0  0  0  0
 13 14  2  0  0  0  0
 15 14  1  0  0  0  0
 15 19  1  0  0  0  0
 16 15  2  0  0  0  0
 17 11  1  0  0  0  0
 19 25  1  0  0  0  0
 20 21  1  0  0  0  0
 20 19  1  0  0  0  0
 21 22  1  0  0  0  0
 22 23  1  0  0  0  0
 22 24  1  0  0  0  0
 25 24  1  0  0  0  0
 26 27  1  0  0  0  0
 27 32  1  0  0  0  0
 28 27  2  0  0  0  0
 28 29  1  0  0  0  0
 29 33  1  0  0  0  0
 29 30  2  0  0  0  0
 30 31  1  0  0  0  0
 30 34  1  0  0  0  0
 31 35  1  0  0  0  0
 32 31  2  0  0  0  0
 36 32  1  0  0  0  0
 37 36  1  0  0  0  0
M  END
>  <minimizedAffinity>
-6.71238279

$$$$

 OpenBabel03272502083D

 37 40  0  0  0  0  0  0  0  0999 V2000
   38.6430   26.2980   35.4330 F   0  0  0  0  0  0  0  0  0  0  0  0
   38.2560   25.6110   34.3110 C   0  0  0  0  0  0  0  0  0  0  0  0
   37.3350   26.1300   33.4250 C   0  0  0  0  0  0  0  0  0  0  0  0
   37.0050   25.3920   32.3090 C   0  0  0  0  0  0  0  0  0  0  0  0
   37.5920   24.1490   32.0820 C   0  0  0  0  0  0  0  0  0  0  0  0
   38.5100   23.6820   33.0070 C   0  0  0  0  0  0  0  0  0  0  0  0
   38.8590   24.3700   34.1080 C   0  0  0  0  0  0  0  0  0  0  0  0
   36.2690   25.8590   31.6490 H   0  0  0  0  0  0  0  0  0  0  0  0
   37.3010   23.6120   31.1940 H   0  0  0  0  0  0  0  0  0  0  0  0
   38.9170   22.7130   32.7540 H   0  0  0  0  0  0  0  0  0  0  0  0
   36.0880   28.0950   32.8020 C   0  0  0  0  0  0  0  0  0  0  0  0
   36.8060   27.4140   33.7720 C   0  0  0  0  0  0  0  0  0  0  0  0
   36.9500   28.0300   35.0020 C   0  0  0  0  0  0  0  0  0  0  0  0
   36.4000   29.2490   35.2190 N   0  0  0  0  0  0  0  0  0  0  0  0
   35.7140   29.8780   34.2610 C   0  0  0  0  0  0  0  0  0  0  0  0
   35.5590   29.3130   33.0730 N   0  0  0  0  0  0  0  0  0  0  0  0
   35.9380   27.6760   31.8260 H   0  0  0  0  0  0  0  0  0  0  0  0
   37.4990   27.5190   35.7560 H   0  0  0  0  0  0  0  0  0  0  0  0
   35.1660   31.1570   34.5650 N   0  0  0  0  0  0  0  0  0  0  0  0
   33.7430   31.3070   34.8050 C   0  0  0  0  0  2  0  0  0  0  0  0
   33.5690   31.5120   36.2960 C   0  0  0  0  0  2  0  0  0  0  0  0
   34.8170   32.1160   36.8610 C   0  0  0  0  0  3  0  0  0  0  0  0
   34.4870   32.7680   37.7190 H   0  0  0  0  0  0  0  0  0  0  0  0
   35.5170   33.0710   35.9110 C   0  0  0  0  0  2  0  0  0  0  0  0
   35.9700   32.3630   34.6520 C   0  0  0  0  0  2  0  0  0  0  0  0
   37.7380   23.0480   36.7150 Br  0  0  0  0  0  0  0  0  0  0  0  0
   39.5770   23.1850   36.2380 C   0  0  0  0  0  0  0  0  0  0  0  0
   39.8180   23.8320   35.0540 C   0  0  0  0  0  0  0  0  0  0  0  0
   41.1550   24.0000   34.6570 C   0  0  0  0  0  0  0  0  0  0  0  0
   42.1740   23.5330   35.4240 C   0  0  0  0  0  0  0  0  0  0  0  0
   41.8610   22.8850   36.6120 C   0  0  0  0  0  0  0  0  0  0  0  0
   40.5420   22.7030   37.0340 C   0  0  0  0  0  0  0  0  0  0  0  0
   41.4340   24.4970   33.7410 H   0  0  0  0  0  0  0  0  0  0  0  0
   43.2210   23.6320   35.1720 H   0  0  0  0  0  0  0  0  0  0  0  0
   42.6490   22.4990   37.2500 H   0  0  0  0  0  0  0  0  0  0  0  0
   40.1630   22.0770   38.1820 O   0  0  0  0  0  0  0  0  0  0  0  0
   39.8430   22.6620   38.9590 H   0  0  0  0  0  0  0  0  0  0  0  0
  2  1  1  0  0  0  0
  3 12  1  0  0  0  0
  3  2  2  0  0  0  0
  4  3  1  0  0  0  0
  5  4  2  0  0  0  0
  5  6  1  0  0  0  0
  6  7  2  0  0  0  0
  7  2  1  0  0  0  0
  7 28  1  0  0  0  0
  8  4  1  0  0  0  0
  9  5  1  0  0  0  0
 10  6  1  0  0  0  0
 11 16  2  0  0  0  0
 11 12  1  0  0  0  0
 12 13  2  0  0  0  0
 13 14  1  0  0  0  0
 13 18  1  0  0  0  0
 15 19  1  0  0  0  0
 15 14  2  0  0  0  0
 16 15  1  0  0  0  0
 17 11  1  0  0  0  0
 19 25  1  0  0  0  0
 19 20  1  0  0  0  0
 20 21  1  0  0  0  0
 21 22  1  0  0  0  0
 22 23  1  0  0  0  0
 24 22  1  0  0  0  0
 25 24  1  0  0  0  0
 27 26  1  0  0  0  0
 27 32  1  0  0  0  0
 28 27  2  0  0  0  0
 29 28  1  0  0  0  0
 29 30  2  0  0  0  0
 30 31  1  0  0  0  0
 31 32  2  0  0  0  0
 31 35  1  0  0  0  0
 32 36  1  0  0  0  0
 33 29  1  0  0  0  0
 34 30  1  0  0  0  0
 36 37  1  0  0  0  0
M  END
>  <minimizedAffinity>
-6.62716961

$$$$

 OpenBabel03272502083D

 37 40  0  0  0  0  0  0  0  0999 V2000
   35.7290   28.1730   34.8600 F   0  0  0  0  0  0  0  0  0  0  0  0
   35.6350   28.8840   33.6910 C   0  0  0  0  0  0  0  0  0  0  0  0
   36.2740   28.4740   32.5390 C   0  0  0  0  0  0  0  0  0  0  0  0
   36.1220   29.2280   31.3960 C   0  0  0  0  0  0  0  0  0  0  0  0
   35.3380   30.3800   31.4070 C   0  0  0  0  0  0  0  0  0  0  0  0
   34.7220   30.7400   32.5920 C   0  0  0  0  0  0  0  0  0  0  0  0
   34.8450   30.0320   33.7290 C   0  0  0  0  0  0  0  0  0  0  0  0
   36.6540   28.8490   30.5200 H   0  0  0  0  0  0  0  0  0  0  0  0
   35.2500   30.9350   30.4860 H   0  0  0  0  0  0  0  0  0  0  0  0
   34.1340   31.6440   32.5120 H   0  0  0  0  0  0  0  0  0  0  0  0
   38.3670   27.4030   33.0660 C   0  0  0  0  0  0  0  0  0  0  0  0
   37.0480   27.2750   32.6600 C   0  0  0  0  0  0  0  0  0  0  0  0
   36.5830   25.9970   32.4090 C   0  0  0  0  0  0  0  0  0  0  0  0
   37.4080   24.9330   32.5610 N   0  0  0  0  0  0  0  0  0  0  0  0
   38.6740   25.0920   32.9540 C   0  0  0  0  0  0  0  0  0  0  0  0
   39.1470   26.3030   33.2030 N   0  0  0  0  0  0  0  0  0  0  0  0
   38.7920   28.3640   33.2780 H   0  0  0  0  0  0  0  0  0  0  0  0
   35.5730   25.8840   32.0960 H   0  0  0  0  0  0  0  0  0  0  0  0
   39.4790   23.9250   33.0920 N   0  0  0  0  0  0  0  0  0  0  0  0
   39.7990   23.4050   34.4090 C   0  0  0  0  0  2  0  0  0  0  0  0
   38.9640   22.1570   34.6040 C   0  0  0  0  0  2  0  0  0  0  0  0
   38.6500   21.5590   33.2680 C   0  0  0  0  0  3  0  0  0  0  0  0
   38.5910   20.4460   33.4310 H   0  0  0  0  0  0  0  0  0  0  0  0
   39.7580   21.7330   32.2450 C   0  0  0  0  0  2  0  0  0  0  0  0
   40.0190   23.1960   31.9590 C   0  0  0  0  0  2  0  0  0  0  0  0
   36.2710   32.2200   35.4540 Br  0  0  0  0  0  0  0  0  0  0  0  0
   34.5920   31.4120   35.8480 C   0  0  0  0  0  0  0  0  0  0  0  0
   34.1880   30.4580   34.9510 C   0  0  0  0  0  0  0  0  0  0  0  0
   32.9740   29.7950   35.1970 C   0  0  0  0  0  0  0  0  0  0  0  0
   32.2270   30.0930   36.2900 C   0  0  0  0  0  0  0  0  0  0  0  0
   32.6930   31.0710   37.1600 C   0  0  0  0  0  0  0  0  0  0  0  0
   33.8950   31.7480   36.9420 C   0  0  0  0  0  0  0  0  0  0  0  0
   32.5830   29.0310   34.5440 H   0  0  0  0  0  0  0  0  0  0  0  0
   31.2860   29.6180   36.5340 H   0  0  0  0  0  0  0  0  0  0  0  0
   32.1210   31.3360   38.0440 H   0  0  0  0  0  0  0  0  0  0  0  0
   34.4090   32.7160   37.7490 O   0  0  0  0  0  0  0  0  0  0  0  0
   35.1960   32.4630   38.3540 H   0  0  0  0  0  0  0  0  0  0  0  0
  2  7  1  0  0  0  0
  2  1  1  0  0  0  0
  3 12  1  0  0  0  0
  3  2  2  0  0  0  0
  4  5  2  0  0  0  0
  4  3  1  0  0  0  0
  5  6  1  0  0  0  0
  6  7  2  0  0  0  0
  7 28  1  0  0  0  0
  8  4  1  0  0  0  0
  9  5  1  0  0  0  0
 10  6  1  0  0  0  0
 11 16  1  0  0  0  0
 11 17  1  0  0  0  0
 12 11  2  0  0  0  0
 13 14  2  0  0  0  0
 13 12  1  0  0  0  0
 14 15  1  0  0  0  0
 15 19  1  0  0  0  0
 15 16  2  0  0  0  0
 18 13  1  0  0  0  0
 19 20  1  0  0  0  0
 20 21  1  0  0  0  0
 22 23  1  0  0  0  0
 22 21  1  0  0  0  0
 24 22  1  0  0  0  0
 25 24  1  0  0  0  0
 25 19  1  0  0  0  0
 26 27  1  0  0  0  0
 27 32  1  0  0  0  0
 28 29  1  0  0  0  0
 28 27  2  0  0  0  0
 29 30  2  0  0  0  0
 30 34  1  0  0  0  0
 30 31  1  0  0  0  0
 31 35  1  0  0  0  0
 32 31  2  0  0  0  0
 32 36  1  0  0  0  0
 33 29  1  0  0  0  0
 36 37  1  0  0  0  0
M  END
>  <minimizedAffinity>
-6.37448263

$$$$

 OpenBabel03272502083D

 37 40  0  0  0  0  0  0  0  0999 V2000
   35.9860   28.2830   34.5080 F   0  0  0  0  0  0  0  0  0  0  0  0
   35.9380   28.9800   33.3280 C   0  0  0  0  0  0  0  0  0  0  0  0
   36.4540   28.4610   32.1580 C   0  0  0  0  0  0  0  0  0  0  0  0
   36.3560   29.2090   31.0050 C   0  0  0  0  0  0  0  0  0  0  0  0
   35.7480   30.4620   31.0240 C   0  0  0  0  0  0  0  0  0  0  0  0
   35.2500   30.9290   32.2270 C   0  0  0  0  0  0  0  0  0  0  0  0
   35.3250   30.2310   33.3740 C   0  0  0  0  0  0  0  0  0  0  0  0
   36.7850   28.7410   30.1150 H   0  0  0  0  0  0  0  0  0  0  0  0
   35.6960   31.0080   30.0950 H   0  0  0  0  0  0  0  0  0  0  0  0
   34.7950   31.9070   32.1520 H   0  0  0  0  0  0  0  0  0  0  0  0
   38.4070   27.1080   32.5530 C   0  0  0  0  0  0  0  0  0  0  0  0
   37.0520   27.1650   32.2730 C   0  0  0  0  0  0  0  0  0  0  0  0
   36.3830   25.9630   32.1300 C   0  0  0  0  0  0  0  0  0  0  0  0
   37.0530   24.7930   32.2650 N   0  0  0  0  0  0  0  0  0  0  0  0
   38.3610   24.7740   32.5360 C   0  0  0  0  0  0  0  0  0  0  0  0
   39.0280   25.9090   32.6780 N   0  0  0  0  0  0  0  0  0  0  0  0
   38.9870   28.0010   32.6770 H   0  0  0  0  0  0  0  0  0  0  0  0
   35.3420   25.9910   31.9130 H   0  0  0  0  0  0  0  0  0  0  0  0
   38.9960   23.5060   32.6630 N   0  0  0  0  0  0  0  0  0  0  0  0
   39.3600   22.9950   33.9710 C   0  0  0  0  0  2  0  0  0  0  0  0
   38.3730   21.8950   34.3040 C   0  0  0  0  0  2  0  0  0  0  0  0
   37.8490   21.3000   33.0330 C   0  0  0  0  0  3  0  0  0  0  0  0
   37.6440   20.2150   33.2590 H   0  0  0  0  0  0  0  0  0  0  0  0
   38.8690   21.2660   31.9090 C   0  0  0  0  0  2  0  0  0  0  0  0
   39.3130   22.6610   31.5250 C   0  0  0  0  0  2  0  0  0  0  0  0
   32.3870   29.4750   34.1480 Br  0  0  0  0  0  0  0  0  0  0  0  0
   33.5660   30.5600   35.1780 C   0  0  0  0  0  0  0  0  0  0  0  0
   34.7970   30.7690   34.6140 C   0  0  0  0  0  0  0  0  0  0  0  0
   35.7060   31.5890   35.3030 C   0  0  0  0  0  0  0  0  0  0  0  0
   35.3720   32.1550   36.4910 C   0  0  0  0  0  0  0  0  0  0  0  0
   34.1080   31.9020   37.0090 C   0  0  0  0  0  0  0  0  0  0  0  0
   33.1830   31.0910   36.3470 C   0  0  0  0  0  0  0  0  0  0  0  0
   36.6950   31.8070   34.9310 H   0  0  0  0  0  0  0  0  0  0  0  0
   36.0260   32.7950   37.0680 H   0  0  0  0  0  0  0  0  0  0  0  0
   33.8060   32.3370   37.9560 H   0  0  0  0  0  0  0  0  0  0  0  0
   31.9310   30.7990   36.7960 O   0  0  0  0  0  0  0  0  0  0  0  0
   31.1420   31.2730   36.3470 H   0  0  0  0  0  0  0  0  0  0  0  0
  2  7  1  0  0  0  0
  2  1  1  0  0  0  0
  3 12  1  0  0  0  0
  3  2  2  0  0  0  0
  4  5  2  0  0  0  0
  4  3  1  0  0  0  0
  5  6  1  0  0  0  0
  6  7  2  0  0  0  0
  7 28  1  0  0  0  0
  8  4  1  0  0  0  0
  9  5  1  0  0  0  0
 10  6  1  0  0  0  0
 11 17  1  0  0  0  0
 11 16  1  0  0  0  0
 12 11  2  0  0  0  0
 13 14  2  0  0  0  0
 13 12  1  0  0  0  0
 14 15  1  0  0  0  0
 15 19  1  0  0  0  0
 15 16  2  0  0  0  0
 18 13  1  0  0  0  0
 19 20  1  0  0  0  0
 20 21  1  0  0  0  0
 22 23  1  0  0  0  0
 22 21  1  0  0  0  0
 24 22  1  0  0  0  0
 25 24  1  0  0  0  0
 25 19  1  0  0  0  0
 26 27  1  0  0  0  0
 27 32  1  0  0  0  0
 28 27  2  0  0  0  0
 28 29  1  0  0  0  0
 29 30  2  0  0  0  0
 30 31  1  0  0  0  0
 30 34  1  0  0  0  0
 31 35  1  0  0  0  0
 32 36  1  0  0  0  0
 32 31  2  0  0  0  0
 33 29  1  0  0  0  0
 37 36  1  0  0  0  0
M  END
>  <minimizedAffinity>
-6.37125254

$$$$

 OpenBabel03272502083D

 37 40  0  0  0  0  0  0  0  0999 V2000
   35.5030   28.3450   34.4360 F   0  0  0  0  0  0  0  0  0  0  0  0
   35.7120   29.1670   33.3590 C   0  0  0  0  0  0  0  0  0  0  0  0
   36.2490   28.6940   32.1790 C   0  0  0  0  0  0  0  0  0  0  0  0
   36.4160   29.5730   31.1310 C   0  0  0  0  0  0  0  0  0  0  0  0
   36.0480   30.9110   31.2630 C   0  0  0  0  0  0  0  0  0  0  0  0
   35.5160   31.3250   32.4710 C   0  0  0  0  0  0  0  0  0  0  0  0
   35.3370   30.5000   33.5170 C   0  0  0  0  0  0  0  0  0  0  0  0
   36.8460   29.1360   30.2260 H   0  0  0  0  0  0  0  0  0  0  0  0
   36.1980   31.5580   30.4140 H   0  0  0  0  0  0  0  0  0  0  0  0
   35.2580   32.3760   32.4870 H   0  0  0  0  0  0  0  0  0  0  0  0
   35.7100   26.4360   31.5360 C   0  0  0  0  0  0  0  0  0  0  0  0
   36.5840   27.3020   32.1710 C   0  0  0  0  0  0  0  0  0  0  0  0
   37.7160   26.7520   32.7450 C   0  0  0  0  0  0  0  0  0  0  0  0
   37.9330   25.4170   32.6730 N   0  0  0  0  0  0  0  0  0  0  0  0
   37.0680   24.6100   32.0520 C   0  0  0  0  0  0  0  0  0  0  0  0
   35.9760   25.1080   31.4930 N   0  0  0  0  0  0  0  0  0  0  0  0
   34.8130   26.7950   31.0700 H   0  0  0  0  0  0  0  0  0  0  0  0
   38.3960   27.4050   33.2370 H   0  0  0  0  0  0  0  0  0  0  0  0
   37.3660   23.2170   32.0170 N   0  0  0  0  0  0  0  0  0  0  0  0
   37.8470   22.6000   30.7950 C   0  0  0  0  0  2  0  0  0  0  0  0
   39.3240   22.3280   30.9930 C   0  0  0  0  0  2  0  0  0  0  0  0
   39.6050   22.1640   32.4550 C   0  0  0  0  0  3  0  0  0  0  0  0
   40.4560   21.4280   32.5280 H   0  0  0  0  0  0  0  0  0  0  0  0
   38.4720   21.5090   33.2240 C   0  0  0  0  0  2  0  0  0  0  0  0
   37.2120   22.3450   33.1670 C   0  0  0  0  0  2  0  0  0  0  0  0
   32.3570   29.7870   34.1600 Br  0  0  0  0  0  0  0  0  0  0  0  0
   33.5310   30.7820   35.2830 C   0  0  0  0  0  0  0  0  0  0  0  0
   34.7840   30.9860   34.7680 C   0  0  0  0  0  0  0  0  0  0  0  0
   35.6920   31.7430   35.5280 C   0  0  0  0  0  0  0  0  0  0  0  0
   35.3360   32.2540   36.7340 C   0  0  0  0  0  0  0  0  0  0  0  0
   34.0500   32.0090   37.1990 C   0  0  0  0  0  0  0  0  0  0  0  0
   33.1250   31.2610   36.4670 C   0  0  0  0  0  0  0  0  0  0  0  0
   36.6980   31.9520   35.1980 H   0  0  0  0  0  0  0  0  0  0  0  0
   35.9890   32.8440   37.3640 H   0  0  0  0  0  0  0  0  0  0  0  0
   33.7310   32.4020   38.1590 H   0  0  0  0  0  0  0  0  0  0  0  0
   31.8530   30.9810   36.8610 O   0  0  0  0  0  0  0  0  0  0  0  0
   31.0910   31.5000   36.4150 H   0  0  0  0  0  0  0  0  0  0  0  0
  2  7  1  0  0  0  0
  2  1  1  0  0  0  0
  3  2  2  0  0  0  0
  4  5  2  0  0  0  0
  4  3  1  0  0  0  0
  5  6  1  0  0  0  0
  6 10  1  0  0  0  0
  6  7  2  0  0  0  0
  7 28  1  0  0  0  0
  8  4  1  0  0  0  0
  9  5  1  0  0  0  0
 11 12  1  0  0  0  0
 12  3  1  0  0  0  0
 12 13  2  0  0  0  0
 13 18  1  0  0  0  0
 14 13  1  0  0  0  0
 15 14  2  0  0  0  0
 16 11  2  0  0  0  0
 16 15  1  0  0  0  0
 17 11  1  0  0  0  0
 19 15  1  0  0  0  0
 19 25  1  0  0  0  0
 20 21  1  0  0  0  0
 20 19  1  0  0  0  0
 21 22  1  0  0  0  0
 22 23  1  0  0  0  0
 22 24  1  0  0  0  0
 25 24  1  0  0  0  0
 26 27  1  0  0  0  0
 27 32  1  0  0  0  0
 28 27  2  0  0  0  0
 28 29  1  0  0  0  0
 29 30  2  0  0  0  0
 30 31  1  0  0  0  0
 30 34  1  0  0  0  0
 31 35  1  0  0  0  0
 32 36  1  0  0  0  0
 32 31  2  0  0  0  0
 33 29  1  0  0  0  0
 37 36  1  0  0  0  0
M  END
>  <minimizedAffinity>
-6.34352398

$$$$

 OpenBabel03272502083D

 37 40  0  0  0  0  0  0  0  0999 V2000
   36.3910   29.4830   35.3000 F   0  0  0  0  0  0  0  0  0  0  0  0
   35.8640   29.7300   34.0580 C   0  0  0  0  0  0  0  0  0  0  0  0
   36.0040   28.8320   33.0190 C   0  0  0  0  0  0  0  0  0  0  0  0
   35.4340   29.1380   31.8020 C   0  0  0  0  0  0  0  0  0  0  0  0
   34.7320   30.3290   31.6280 C   0  0  0  0  0  0  0  0  0  0  0  0
   34.6260   31.1880   32.7060 C   0  0  0  0  0  0  0  0  0  0  0  0
   35.1670   30.9290   33.9100 C   0  0  0  0  0  0  0  0  0  0  0  0
   35.5820   28.3860   31.0230 H   0  0  0  0  0  0  0  0  0  0  0  0
   34.3050   30.5210   30.6560 H   0  0  0  0  0  0  0  0  0  0  0  0
   34.0660   32.0870   32.4850 H   0  0  0  0  0  0  0  0  0  0  0  0
   37.3830   27.0000   32.2810 C   0  0  0  0  0  0  0  0  0  0  0  0
   36.7470   27.6480   33.3280 C   0  0  0  0  0  0  0  0  0  0  0  0
   36.8850   27.1000   34.5900 C   0  0  0  0  0  0  0  0  0  0  0  0
   37.6180   25.9740   34.7640 N   0  0  0  0  0  0  0  0  0  0  0  0
   38.2190   25.3740   33.7330 C   0  0  0  0  0  0  0  0  0  0  0  0
   38.1040   25.8770   32.5130 N   0  0  0  0  0  0  0  0  0  0  0  0
   37.3170   27.3700   31.2770 H   0  0  0  0  0  0  0  0  0  0  0  0
   36.4010   27.5860   35.4030 H   0  0  0  0  0  0  0  0  0  0  0  0
   38.9720   24.1950   33.9960 N   0  0  0  0  0  0  0  0  0  0  0  0
   40.4230   24.2370   34.0010 C   0  0  0  0  0  2  0  0  0  0  0  0
   40.8600   24.1520   35.4480 C   0  0  0  0  0  2  0  0  0  0  0  0
   39.8100   23.4360   36.2400 C   0  0  0  0  0  3  0  0  0  0  0  0
   40.3570   22.8870   37.0580 H   0  0  0  0  0  0  0  0  0  0  0  0
   39.0980   22.3430   35.4630 C   0  0  0  0  0  2  0  0  0  0  0  0
   38.3600   22.9070   34.2680 C   0  0  0  0  0  2  0  0  0  0  0  0
   36.8580   33.5590   33.7710 Br  0  0  0  0  0  0  0  0  0  0  0  0
   35.6430   33.0890   35.1600 C   0  0  0  0  0  0  0  0  0  0  0  0
   35.0380   31.8690   35.0080 C   0  0  0  0  0  0  0  0  0  0  0  0
   34.1540   31.4420   36.0130 C   0  0  0  0  0  0  0  0  0  0  0  0
   33.9080   32.2170   37.1000 C   0  0  0  0  0  0  0  0  0  0  0  0
   34.5530   33.4440   37.1930 C   0  0  0  0  0  0  0  0  0  0  0  0
   35.4360   33.8960   36.2100 C   0  0  0  0  0  0  0  0  0  0  0  0
   33.6370   30.4960   35.9730 H   0  0  0  0  0  0  0  0  0  0  0  0
   33.2400   31.9440   37.9060 H   0  0  0  0  0  0  0  0  0  0  0  0
   34.3800   34.0900   38.0480 H   0  0  0  0  0  0  0  0  0  0  0  0
   36.0990   35.0850   36.2360 O   0  0  0  0  0  0  0  0  0  0  0  0
   37.0960   35.0690   36.4700 H   0  0  0  0  0  0  0  0  0  0  0  0
  2  1  1  0  0  0  0
  3 12  1  0  0  0  0
  3  2  2  0  0  0  0
  4  3  1  0  0  0  0
  5  4  2  0  0  0  0
  5  6  1  0  0  0  0
  6  7  2  0  0  0  0
  7  2  1  0  0  0  0
  7 28  1  0  0  0  0
  8  4  1  0  0  0  0
  9  5  1  0  0  0  0
 10  6  1  0  0  0  0
 11 16  2  0  0  0  0
 11 12  1  0  0  0  0
 12 13  2  0  0  0  0
 13 14  1  0  0  0  0
 13 18  1  0  0  0  0
 15 19  1  0  0  0  0
 15 14  2  0  0  0  0
 16 15  1  0  0  0  0
 17 11  1  0  0  0  0
 19 20  1  0  0  0  0
 19 25  1  0  0  0  0
 20 21  1  0  0  0  0
 21 22  1  0  0  0  0
 22 23  1  0  0  0  0
 24 22  1  0  0  0  0
 25 24  1  0  0  0  0
 26 27  1  0  0  0  0
 27 32  1  0  0  0  0
 28 27  2  0  0  0  0
 28 29  1  0  0  0  0
 29 30  2  0  0  0  0
 30 31  1  0  0  0  0
 30 34  1  0  0  0  0
 31 35  1  0  0  0  0
 32 36  1  0  0  0  0
 32 31  2  0  0  0  0
 33 29  1  0  0  0  0
 36 37  1  0  0  0  0
M  END
>  <minimizedAffinity>
-6.30429363

$$$$

 OpenBabel03272502083D

 37 40  0  0  0  0  0  0  0  0999 V2000
   35.8160   28.2540   34.8630 F   0  0  0  0  0  0  0  0  0  0  0  0
   35.6640   28.9390   33.6840 C   0  0  0  0  0  0  0  0  0  0  0  0
   36.2970   28.5370   32.5260 C   0  0  0  0  0  0  0  0  0  0  0  0
   36.0860   29.2630   31.3740 C   0  0  0  0  0  0  0  0  0  0  0  0
   35.2500   30.3780   31.3820 C   0  0  0  0  0  0  0  0  0  0  0  0
   34.6440   30.7310   32.5740 C   0  0  0  0  0  0  0  0  0  0  0  0
   34.8230   30.0500   33.7200 C   0  0  0  0  0  0  0  0  0  0  0  0
   36.6160   28.8930   30.4920 H   0  0  0  0  0  0  0  0  0  0  0  0
   35.1170   30.9110   30.4540 H   0  0  0  0  0  0  0  0  0  0  0  0
   34.0130   31.6050   32.4920 H   0  0  0  0  0  0  0  0  0  0  0  0
   36.5590   26.1480   32.3620 C   0  0  0  0  0  0  0  0  0  0  0  0
   37.1280   27.3780   32.6500 C   0  0  0  0  0  0  0  0  0  0  0  0
   38.4570   27.3880   33.0320 C   0  0  0  0  0  0  0  0  0  0  0  0
   39.1490   26.2250   33.1120 N   0  0  0  0  0  0  0  0  0  0  0  0
   38.5690   25.0560   32.8270 C   0  0  0  0  0  0  0  0  0  0  0  0
   37.2980   25.0160   32.4580 N   0  0  0  0  0  0  0  0  0  0  0  0
   35.5340   26.0680   32.0600 H   0  0  0  0  0  0  0  0  0  0  0  0
   38.9070   28.3250   33.2580 H   0  0  0  0  0  0  0  0  0  0  0  0
   39.3610   23.8780   32.9330 N   0  0  0  0  0  0  0  0  0  0  0  0
   39.8470   23.2090   31.7400 C   0  0  0  0  0  2  0  0  0  0  0  0
   41.3290   23.5090   31.6420 C   0  0  0  0  0  2  0  0  0  0  0  0
   41.8710   23.7760   33.0120 C   0  0  0  0  0  3  0  0  0  0  0  0
   42.9370   23.4100   33.0020 H   0  0  0  0  0  0  0  0  0  0  0  0
   41.2020   22.9600   34.1030 C   0  0  0  0  0  2  0  0  0  0  0  0
   39.7270   23.2810   34.2050 C   0  0  0  0  0  2  0  0  0  0  0  0
   36.2510   32.2400   35.4430 Br  0  0  0  0  0  0  0  0  0  0  0  0
   34.5790   31.4200   35.8460 C   0  0  0  0  0  0  0  0  0  0  0  0
   34.1730   30.4680   34.9480 C   0  0  0  0  0  0  0  0  0  0  0  0
   32.9650   29.7970   35.2020 C   0  0  0  0  0  0  0  0  0  0  0  0
   32.2250   30.0870   36.3020 C   0  0  0  0  0  0  0  0  0  0  0  0
   32.6920   31.0640   37.1720 C   0  0  0  0  0  0  0  0  0  0  0  0
   33.8890   31.7480   36.9470 C   0  0  0  0  0  0  0  0  0  0  0  0
   32.5730   29.0340   34.5480 H   0  0  0  0  0  0  0  0  0  0  0  0
   31.2880   29.6060   36.5510 H   0  0  0  0  0  0  0  0  0  0  0  0
   32.1260   31.3220   38.0610 H   0  0  0  0  0  0  0  0  0  0  0  0
   34.4040   32.7160   37.7540 O   0  0  0  0  0  0  0  0  0  0  0  0
   35.1970   32.4650   38.3510 H   0  0  0  0  0  0  0  0  0  0  0  0
  2  7  1  0  0  0  0
  2  1  1  0  0  0  0
  3 12  1  0  0  0  0
  3  2  2  0  0  0  0
  4  5  2  0  0  0  0
  4  3  1  0  0  0  0
  5  6  1  0  0  0  0
  6  7  2  0  0  0  0
  7 28  1  0  0  0  0
  8  4  1  0  0  0  0
  9  5  1  0  0  0  0
 10  6  1  0  0  0  0
 11 16  2  0  0  0  0
 11 12  1  0  0  0  0
 12 13  2  0  0  0  0
 13 14  1  0  0  0  0
 13 18  1  0  0  0  0
 15 19  1  0  0  0  0
 15 14  2  0  0  0  0
 16 15  1  0  0  0  0
 17 11  1  0  0  0  0
 19 25  1  0  0  0  0
 20 19  1  0  0  0  0
 21 20  1  0  0  0  0
 21 22  1  0  0  0  0
 22 24  1  0  0  0  0
 23 22  1  0  0  0  0
 24 25  1  0  0  0  0
 26 27  1  0  0  0  0
 27 32  1  0  0  0  0
 28 29  1  0  0  0  0
 28 27  2  0  0  0  0
 29 30  2  0  0  0  0
 30 34  1  0  0  0  0
 30 31  1  0  0  0  0
 31 35  1  0  0  0  0
 32 31  2  0  0  0  0
 32 36  1  0  0  0  0
 33 29  1  0  0  0  0
 36 37  1  0  0  0  0
M  END
>  <minimizedAffinity>
-6.18199062

$$$$

 OpenBabel03272502083D

 37 40  0  0  0  0  0  0  0  0999 V2000
   38.5950   27.1430   32.7000 F   0  0  0  0  0  0  0  0  0  0  0  0
   37.6040   26.3070   32.2520 C   0  0  0  0  0  0  0  0  0  0  0  0
   37.5590   24.9770   32.6150 C   0  0  0  0  0  0  0  0  0  0  0  0
   36.5250   24.1990   32.1420 C   0  0  0  0  0  0  0  0  0  0  0  0
   35.5470   24.7470   31.3140 C   0  0  0  0  0  0  0  0  0  0  0  0
   35.6470   26.0870   30.9850 C   0  0  0  0  0  0  0  0  0  0  0  0
   36.6400   26.8810   31.4250 C   0  0  0  0  0  0  0  0  0  0  0  0
   36.5470   23.1550   32.4660 H   0  0  0  0  0  0  0  0  0  0  0  0
   34.7580   24.0970   30.9700 H   0  0  0  0  0  0  0  0  0  0  0  0
   34.8490   26.4310   30.3410 H   0  0  0  0  0  0  0  0  0  0  0  0
   38.5370   24.8580   34.8130 C   0  0  0  0  0  0  0  0  0  0  0  0
   38.6210   24.5370   33.4680 C   0  0  0  0  0  0  0  0  0  0  0  0
   39.7240   23.8120   33.0580 C   0  0  0  0  0  0  0  0  0  0  0  0
   40.6690   23.4440   33.9580 N   0  0  0  0  0  0  0  0  0  0  0  0
   40.5570   23.7710   35.2480 C   0  0  0  0  0  0  0  0  0  0  0  0
   39.5110   24.4640   35.6700 N   0  0  0  0  0  0  0  0  0  0  0  0
   37.7090   25.4180   35.2000 H   0  0  0  0  0  0  0  0  0  0  0  0
   39.8030   23.5590   32.0270 H   0  0  0  0  0  0  0  0  0  0  0  0
   41.5890   23.3490   36.1330 N   0  0  0  0  0  0  0  0  0  0  0  0
   41.3680   22.2420   37.0450 C   0  0  0  0  0  2  0  0  0  0  0  0
   42.1400   21.0590   36.4970 C   0  0  0  0  0  2  0  0  0  0  0  0
   43.2930   21.5580   35.6820 C   0  0  0  0  0  3  0  0  0  0  0  0
   44.1120   20.7930   35.8020 H   0  0  0  0  0  0  0  0  0  0  0  0
   43.9000   22.8460   36.2080 C   0  0  0  0  0  2  0  0  0  0  0  0
   42.8970   23.9780   36.1830 C   0  0  0  0  0  2  0  0  0  0  0  0
   35.6340   29.0020   33.4960 Br  0  0  0  0  0  0  0  0  0  0  0  0
   36.3600   29.3820   31.7770 C   0  0  0  0  0  0  0  0  0  0  0  0
   36.7070   28.2790   31.0420 C   0  0  0  0  0  0  0  0  0  0  0  0
   37.2180   28.4830   29.7490 C   0  0  0  0  0  0  0  0  0  0  0  0
   37.3630   29.7360   29.2480 C   0  0  0  0  0  0  0  0  0  0  0  0
   36.9940   30.8120   30.0450 C   0  0  0  0  0  0  0  0  0  0  0  0
   36.4830   30.6410   31.3340 C   0  0  0  0  0  0  0  0  0  0  0  0
   37.5140   27.6720   29.1030 H   0  0  0  0  0  0  0  0  0  0  0  0
   37.7490   29.9580   28.2610 H   0  0  0  0  0  0  0  0  0  0  0  0
   37.0960   31.8280   29.6770 H   0  0  0  0  0  0  0  0  0  0  0  0
   36.1040   31.6460   32.1690 O   0  0  0  0  0  0  0  0  0  0  0  0
   35.1010   31.8100   32.2930 H   0  0  0  0  0  0  0  0  0  0  0  0
  2  3  1  0  0  0  0
  2  1  1  0  0  0  0
  3 12  1  0  0  0  0
  4  8  1  0  0  0  0
  4  3  2  0  0  0  0
  5  4  1  0  0  0  0
  6  5  2  0  0  0  0
  6  7  1  0  0  0  0
  7  2  2  0  0  0  0
  9  5  1  0  0  0  0
 10  6  1  0  0  0  0
 11 17  1  0  0  0  0
 11 16  1  0  0  0  0
 12 11  2  0  0  0  0
 13 12  1  0  0  0  0
 13 14  2  0  0  0  0
 14 15  1  0  0  0  0
 15 16  2  0  0  0  0
 15 19  1  0  0  0  0
 18 13  1  0  0  0  0
 19 25  1  0  0  0  0
 19 20  1  0  0  0  0
 21 20  1  0  0  0  0
 22 23  1  0  0  0  0
 22 24  1  0  0  0  0
 22 21  1  0  0  0  0
 25 24  1  0  0  0  0
 27 26  1  0  0  0  0
 28  7  1  0  0  0  0
 28 27  2  0  0  0  0
 29 28  1  0  0  0  0
 30 29  2  0  0  0  0
 30 31  1  0  0  0  0
 31 32  2  0  0  0  0
 32 27  1  0  0  0  0
 32 36  1  0  0  0  0
 33 29  1  0  0  0  0
 34 30  1  0  0  0  0
 35 31  1  0  0  0  0
 36 37  1  0  0  0  0
M  END
>  <minimizedAffinity>
-6.12320518

$$$$
