
 OpenBabel03272510323D

 26 28  0  0  0  0  0  0  0  0999 V2000
   35.9390   30.1660   47.7580 C   0  0  0  0  0  0  0  0  0  0  0  0
   35.3490   30.2010   46.5200 C   0  0  0  0  0  0  0  0  0  0  0  0
   34.3600   29.3080   46.1650 C   0  0  0  0  0  0  0  0  0  0  0  0
   33.9730   28.3620   47.1070 C   0  0  0  0  0  0  0  0  0  0  0  0
   34.5580   28.3060   48.3740 C   0  0  0  0  0  0  0  0  0  0  0  0
   35.5500   29.2220   48.6930 C   0  0  0  0  0  0  0  0  0  0  0  0
   35.6420   30.9370   45.7700 H   0  0  0  0  0  0  0  0  0  0  0  0
   33.8900   29.3300   45.1890 H   0  0  0  0  0  0  0  0  0  0  0  0
   33.1960   27.6810   46.7920 H   0  0  0  0  0  0  0  0  0  0  0  0
   34.2150   27.5480   49.0670 H   0  0  0  0  0  0  0  0  0  0  0  0
   37.7090   32.8790   49.4260 C   0  0  0  0  0  0  0  0  0  0  0  0
   38.8640   33.0610   48.6690 C   0  0  0  0  0  0  0  0  0  0  0  0
   39.0370   32.2130   47.5390 C   0  0  0  0  0  0  0  0  0  0  0  0
   38.0800   31.2880   47.2670 N   0  0  0  0  0  0  0  0  0  0  0  0
   36.9700   31.1490   48.0350 C   0  0  0  0  0  0  0  0  0  0  0  0
   36.8050   31.9530   49.1080 N   0  0  0  0  0  0  0  0  0  0  0  0
   37.5120   33.4870   50.2980 H   0  0  0  0  0  0  0  0  0  0  0  0
   39.5940   33.7960   48.9100 H   0  0  0  0  0  0  0  0  0  0  0  0
   39.9240   32.3070   46.9040 H   0  0  0  0  0  0  0  0  0  0  0  0
   36.1640   29.1830   49.9830 N   0  0  0  0  0  0  0  0  0  0  0  0
   35.5810   29.4170   51.3140 C   0  0  0  0  0  2  0  0  0  0  0  0
   36.5680   30.2100   52.1470 C   0  0  0  0  0  2  0  0  0  0  0  0
   37.9140   29.5600   52.2160 C   0  0  0  0  0  3  0  0  0  0  0  0
   38.6930   30.2960   51.9250 H   0  0  0  0  0  0  0  0  0  0  0  0
   38.0360   28.3980   51.2380 C   0  0  0  0  0  2  0  0  0  0  0  0
   37.5730   28.8560   49.8890 C   0  0  0  0  0  2  0  0  0  0  0  0
  1 15  1  0  0  0  0
  1  6  1  0  0  0  0
  2  1  2  0  0  0  0
  3  2  1  0  0  0  0
  3  4  2  0  0  0  0
  4  5  1  0  0  0  0
  5  6  2  0  0  0  0
  5 10  1  0  0  0  0
  6 20  1  0  0  0  0
  7  2  1  0  0  0  0
  8  3  1  0  0  0  0
  9  4  1  0  0  0  0
 11 17  1  0  0  0  0
 12 18  1  0  0  0  0
 12 11  2  0  0  0  0
 13 12  1  0  0  0  0
 14 13  2  0  0  0  0
 14 15  1  0  0  0  0
 15 16  2  0  0  0  0
 16 11  1  0  0  0  0
 19 13  1  0  0  0  0
 20 21  1  0  0  0  0
 21 22  1  0  0  0  0
 22 23  1  0  0  0  0
 24 23  1  0  0  0  0
 25 23  1  0  0  0  0
 26 20  1  0  0  0  0
 26 25  1  0  0  0  0
M  END
>  <minimizedAffinity>
-3.73149109

>  <minimizedRMSD>
1.22834849

$$$$
