
 OpenBabel03272510183D

 34 37  0  0  0  0  0  0  0  0999 V2000
   37.4120   29.1160   50.7820 Br  0  0  0  0  0  0  0  0  0  0  0  0
   36.0090   29.2940   49.4940 C   0  0  0  0  0  0  0  0  0  0  0  0
   36.0070   30.3370   48.5810 C   0  0  0  0  0  0  0  0  0  0  0  0
   34.9700   30.3970   47.6920 C   0  0  0  0  0  0  0  0  0  0  0  0
   33.9440   29.4880   47.6560 C   0  0  0  0  0  0  0  0  0  0  0  0
   33.9710   28.4650   48.5710 C   0  0  0  0  0  0  0  0  0  0  0  0
   34.9970   28.3740   49.4790 C   0  0  0  0  0  0  0  0  0  0  0  0
   34.9450   31.2040   46.9670 H   0  0  0  0  0  0  0  0  0  0  0  0
   33.1830   27.7220   48.5810 H   0  0  0  0  0  0  0  0  0  0  0  0
   34.9710   27.5450   50.1810 H   0  0  0  0  0  0  0  0  0  0  0  0
   32.8430   29.5520   46.7120 C   0  0  0  0  0  0  0  0  0  0  0  0
   31.8570   28.5870   46.5810 C   0  0  0  0  0  0  0  0  0  0  0  0
   30.8220   28.6950   45.6610 C   0  0  0  0  0  0  0  0  0  0  0  0
   30.7600   29.7630   44.8600 N   0  0  0  0  0  0  0  0  0  0  0  0
   31.7160   30.7140   44.9770 C   0  0  0  0  0  0  0  0  0  0  0  0
   32.7000   30.5920   45.8660 N   0  0  0  0  0  0  0  0  0  0  0  0
   31.9100   27.7200   47.2320 H   0  0  0  0  0  0  0  0  0  0  0  0
   30.0920   27.9060   45.6150 H   0  0  0  0  0  0  0  0  0  0  0  0
   31.6120   31.8360   44.1060 N   0  0  0  0  0  0  0  0  0  0  0  0
   32.2380   31.8360   42.8180 C   0  0  0  0  0  2  0  0  0  0  0  0
   31.5390   32.6510   41.7780 C   0  0  0  0  0  2  0  0  0  0  0  0
   30.7080   33.7620   42.3000 C   0  0  0  0  0  3  0  0  0  0  0  0
   30.8190   34.6430   41.6340 H   0  0  0  0  0  0  0  0  0  0  0  0
   31.0890   34.1950   43.6930 C   0  0  0  0  0  2  0  0  0  0  0  0
   30.8430   32.9880   44.5690 C   0  0  0  0  0  2  0  0  0  0  0  0
   37.9890   33.2250   49.6040 C   0  0  0  0  0  0  0  0  0  0  0  0
   39.0660   33.2330   48.6530 C   0  0  0  0  0  0  0  0  0  0  0  0
   39.0780   32.2480   47.6920 C   0  0  0  0  0  0  0  0  0  0  0  0
   38.0770   31.3180   47.6850 N   0  0  0  0  0  0  0  0  0  0  0  0
   37.0770   31.3270   48.5840 C   0  0  0  0  0  0  0  0  0  0  0  0
   37.0370   32.2910   49.5510 N   0  0  0  0  0  0  0  0  0  0  0  0
   38.0030   34.0150   50.3560 H   0  0  0  0  0  0  0  0  0  0  0  0
   39.8390   33.9880   48.6940 H   0  0  0  0  0  0  0  0  0  0  0  0
   39.8490   32.1810   46.9400 H   0  0  0  0  0  0  0  0  0  0  0  0
  2  1  1  0  0  0  0
  3 30  1  0  0  0  0
  3  2  2  0  0  0  0
  4  3  1  0  0  0  0
  5  4  2  0  0  0  0
  5  6  1  0  0  0  0
  6  9  1  0  0  0  0
  6  7  2  0  0  0  0
  7  2  1  0  0  0  0
  7 10  1  0  0  0  0
  8  4  1  0  0  0  0
 11  5  1  0  0  0  0
 12 11  1  0  0  0  0
 12 17  1  0  0  0  0
 13 12  2  0  0  0  0
 14 15  2  0  0  0  0
 14 13  1  0  0  0  0
 15 16  1  0  0  0  0
 16 11  2  0  0  0  0
 18 13  1  0  0  0  0
 19 25  1  0  0  0  0
 19 15  1  0  0  0  0
 20 19  1  0  0  0  0
 21 22  1  0  0  0  0
 21 20  1  0  0  0  0
 22 24  1  0  0  0  0
 23 22  1  0  0  0  0
 24 25  1  0  0  0  0
 26 32  1  0  0  0  0
 27 33  1  0  0  0  0
 27 26  2  0  0  0  0
 28 27  1  0  0  0  0
 29 28  2  0  0  0  0
 29 30  1  0  0  0  0
 30 31  2  0  0  0  0
 31 26  1  0  0  0  0
 34 28  1  0  0  0  0
M  END
>  <minimizedAffinity>
-6.67530203

>  <minimizedRMSD>
0.67807591

$$$$
