
 OpenBabel03272507243D

 28 30  0  0  1  0  0  0  0  0999 V2000
   39.9540   24.1280   35.3670 C   0  0  0  0  0  0  0  0  0  0  0  0
   39.2010   24.3280   34.1920 C   0  0  0  0  0  0  0  0  0  0  0  0
   38.1310   23.4500   33.9300 C   0  0  0  0  0  0  0  0  0  0  0  0
   37.9040   22.4800   34.8280 N   0  0  0  0  0  0  0  0  0  0  0  0
   38.6300   22.2990   35.9460 C   0  0  0  0  0  0  0  0  0  0  0  0
   39.6550   23.1260   36.2140 N   0  0  0  0  0  0  0  0  0  0  0  0
   37.3600   23.6150   32.7650 N   0  0  0  0  0  0  0  0  0  0  0  0
   37.0670   24.9060   32.1250 C   0  0  0  0  0  0  0  0  0  0  0  0
   36.0780   24.5900   31.0410 C   0  0  0  0  0  0  0  0  0  0  0  0
   35.5120   23.2790   31.5040 C   0  0  0  0  0  0  0  0  0  0  0  0
   36.7510   22.5900   32.0110 C   0  0  2  0  0  0  0  0  0  0  0  0
   40.7930   24.7780   35.6190 H   0  0  0  0  0  0  0  0  0  0  0  0
   39.4560   25.1440   33.5190 H   0  0  0  0  0  0  0  0  0  0  0  0
   38.3920   21.4860   36.6370 H   0  0  0  0  0  0  0  0  0  0  0  0
   38.0120   25.2040   31.6240 H   0  0  0  0  0  0  0  0  0  0  0  0
   36.7340   25.6640   32.8310 H   0  0  0  0  0  0  0  0  0  0  0  0
   35.3270   25.4000   30.9370 H   0  0  0  0  0  0  0  0  0  0  0  0
   36.5610   24.4810   30.0530 H   0  0  0  0  0  0  0  0  0  0  0  0
   35.0590   22.7820   30.6490 H   0  0  0  0  0  0  0  0  0  0  0  0
   34.8000   23.5320   32.3140 H   0  0  0  0  0  0  0  0  0  0  0  0
   37.4050   22.4900   31.0860 H   0  0  0  0  0  0  0  0  0  0  0  0
   36.5750   21.3060   32.5340 N   0  0  0  0  0  0  0  0  0  0  0  0
   35.3070   20.9080   33.0170 C   0  0  0  0  0  2  0  0  0  0  0  0
   34.6880   19.8480   32.0850 C   0  0  0  0  0  2  0  0  0  0  0  0
   35.5140   18.5920   32.2530 C   0  0  0  0  0  3  0  0  0  0  0  0
   35.0890   17.8320   31.5520 H   0  0  0  0  0  0  0  0  0  0  0  0
   36.9440   18.9440   31.9490 C   0  0  0  0  0  2  0  0  0  0  0  0
   37.0920   20.3650   31.5510 C   0  0  0  0  0  2  0  0  0  0  0  0
  1 12  1  0  0  0  0
  1  6  1  0  0  0  0
  2  1  2  0  0  0  0
  3  2  1  0  0  0  0
  3  4  2  0  0  0  0
  4  5  1  0  0  0  0
  5  6  2  0  0  0  0
  5 14  1  0  0  0  0
  7  3  1  0  0  0  0
  8  7  1  0  0  0  0
  8 16  1  0  0  0  0
  9 10  1  0  0  0  0
  9  8  1  0  0  0  0
 10 11  1  0  0  0  0
 10 20  1  0  0  0  0
 11 21  1  6  0  0  0
 11 22  1  0  0  0  0
 11  7  1  0  0  0  0
 13  2  1  0  0  0  0
 15  8  1  0  0  0  0
 17  9  1  0  0  0  0
 18  9  1  0  0  0  0
 19 10  1  0  0  0  0
 22 23  1  0  0  0  0
 24 25  1  0  0  0  0
 24 23  1  0  0  0  0
 26 25  1  0  0  0  0
 27 25  1  0  0  0  0
 28 27  1  0  0  0  0
 28 22  1  0  0  0  0
M  END
>  <minimizedAffinity>
-4.73692942

$$$$

 OpenBabel03272507243D

 28 30  0  0  1  0  0  0  0  0999 V2000
   35.4330   21.6400   31.6700 C   0  0  0  0  0  0  0  0  0  0  0  0
   36.6100   22.4080   31.7820 C   0  0  0  0  0  0  0  0  0  0  0  0
   37.3530   22.3170   32.9750 C   0  0  0  0  0  0  0  0  0  0  0  0
   36.8820   21.4970   33.9260 N   0  0  0  0  0  0  0  0  0  0  0  0
   35.7570   20.7680   33.8070 C   0  0  0  0  0  0  0  0  0  0  0  0
   35.0350   20.8410   32.6770 N   0  0  0  0  0  0  0  0  0  0  0  0
   38.5290   23.0730   33.1250 N   0  0  0  0  0  0  0  0  0  0  0  0
   39.4480   23.4270   32.0340 C   0  0  0  0  0  0  0  0  0  0  0  0
   40.6270   24.0690   32.7060 C   0  0  0  0  0  0  0  0  0  0  0  0
   40.5110   23.5480   34.1090 C   0  0  0  0  0  0  0  0  0  0  0  0
   39.0230   23.6260   34.3260 C   0  0  2  0  0  0  0  0  0  0  0  0
   34.8200   21.6720   30.7690 H   0  0  0  0  0  0  0  0  0  0  0  0
   36.9180   23.0480   30.9580 H   0  0  0  0  0  0  0  0  0  0  0  0
   35.4290   20.1180   34.6230 H   0  0  0  0  0  0  0  0  0  0  0  0
   38.9290   24.2240   31.4620 H   0  0  0  0  0  0  0  0  0  0  0  0
   39.6990   22.5800   31.3980 H   0  0  0  0  0  0  0  0  0  0  0  0
   41.5750   23.7980   32.1960 H   0  0  0  0  0  0  0  0  0  0  0  0
   40.5660   25.1720   32.6920 H   0  0  0  0  0  0  0  0  0  0  0  0
   41.0790   24.2040   34.7650 H   0  0  0  0  0  0  0  0  0  0  0  0
   40.8850   22.5060   34.0710 H   0  0  0  0  0  0  0  0  0  0  0  0
   38.7930   24.7360   34.2440 H   0  0  0  0  0  0  0  0  0  0  0  0
   38.5560   23.1970   35.5720 N   0  0  0  0  0  0  0  0  0  0  0  0
   39.3090   22.2680   36.3270 C   0  0  0  0  0  2  0  0  0  0  0  0
   39.9050   22.9510   37.5740 C   0  0  0  0  0  2  0  0  0  0  0  0
   38.7440   23.2590   38.4930 C   0  0  0  0  0  3  0  0  0  0  0  0
   39.1700   23.7850   39.3820 H   0  0  0  0  0  0  0  0  0  0  0  0
   37.7630   24.0990   37.7210 C   0  0  0  0  0  2  0  0  0  0  0  0
   38.2440   24.3890   36.3480 C   0  0  0  0  0  2  0  0  0  0  0  0
  1  2  2  0  0  0  0
  1  6  1  0  0  0  0
  2  3  1  0  0  0  0
  3  7  1  0  0  0  0
  3  4  2  0  0  0  0
  5  4  1  0  0  0  0
  5 14  1  0  0  0  0
  6  5  2  0  0  0  0
  7 11  1  0  0  0  0
  8  9  1  0  0  0  0
  8  7  1  0  0  0  0
  9 10  1  0  0  0  0
 10 11  1  0  0  0  0
 10 19  1  0  0  0  0
 11 21  1  6  0  0  0
 11 22  1  0  0  0  0
 12  1  1  0  0  0  0
 13  2  1  0  0  0  0
 15  8  1  0  0  0  0
 16  8  1  0  0  0  0
 17  9  1  0  0  0  0
 18  9  1  0  0  0  0
 20 10  1  0  0  0  0
 22 23  1  0  0  0  0
 22 28  1  0  0  0  0
 23 24  1  0  0  0  0
 24 25  1  0  0  0  0
 25 26  1  0  0  0  0
 27 25  1  0  0  0  0
 28 27  1  0  0  0  0
M  END
>  <minimizedAffinity>
-4.70652819

$$$$

 OpenBabel03272507243D

 28 30  0  0  1  0  0  0  0  0999 V2000
   37.5510   22.6650   31.8920 C   0  0  0  0  0  0  0  0  0  0  0  0
   37.9590   23.6620   32.8000 C   0  0  0  0  0  0  0  0  0  0  0  0
   37.2250   24.8640   32.8430 C   0  0  0  0  0  0  0  0  0  0  0  0
   36.1800   24.9700   32.0100 N   0  0  0  0  0  0  0  0  0  0  0  0
   35.8000   24.0100   31.1470 C   0  0  0  0  0  0  0  0  0  0  0  0
   36.4870   22.8570   31.0910 N   0  0  0  0  0  0  0  0  0  0  0  0
   37.6060   25.8850   33.7330 N   0  0  0  0  0  0  0  0  0  0  0  0
   38.2150   25.6670   35.0530 C   0  0  0  0  0  0  0  0  0  0  0  0
   38.2710   27.0270   35.6880 C   0  0  0  0  0  0  0  0  0  0  0  0
   37.2280   27.7780   34.9130 C   0  0  0  0  0  0  0  0  0  0  0  0
   37.4830   27.2730   33.5170 C   0  0  2  0  0  0  0  0  0  0  0  0
   38.0830   21.7160   31.8170 H   0  0  0  0  0  0  0  0  0  0  0  0
   38.8210   23.4900   33.4420 H   0  0  0  0  0  0  0  0  0  0  0  0
   34.9360   24.1620   30.4930 H   0  0  0  0  0  0  0  0  0  0  0  0
   39.2630   25.3650   34.8450 H   0  0  0  0  0  0  0  0  0  0  0  0
   37.6940   24.9160   35.6430 H   0  0  0  0  0  0  0  0  0  0  0  0
   38.0730   26.9670   36.7780 H   0  0  0  0  0  0  0  0  0  0  0  0
   39.2610   27.5010   35.5740 H   0  0  0  0  0  0  0  0  0  0  0  0
   37.4170   28.8430   35.0300 H   0  0  0  0  0  0  0  0  0  0  0  0
   36.2540   27.4410   35.3190 H   0  0  0  0  0  0  0  0  0  0  0  0
   38.5420   27.6210   33.2910 H   0  0  0  0  0  0  0  0  0  0  0  0
   36.6570   27.7850   32.5130 N   0  0  0  0  0  0  0  0  0  0  0  0
   35.6120   28.6790   32.8460 C   0  0  0  0  0  2  0  0  0  0  0  0
   35.9320   30.0930   32.3240 C   0  0  0  0  0  2  0  0  0  0  0  0
   35.8420   30.0280   30.8150 C   0  0  0  0  0  3  0  0  0  0  0  0
   36.1080   31.0430   30.4340 H   0  0  0  0  0  0  0  0  0  0  0  0
   36.7870   28.9530   30.3500 C   0  0  0  0  0  2  0  0  0  0  0  0
   37.5220   28.3360   31.4800 C   0  0  0  0  0  2  0  0  0  0  0  0
  1  2  1  0  0  0  0
  2  3  2  0  0  0  0
  2 13  1  0  0  0  0
  3  7  1  0  0  0  0
  4  3  1  0  0  0  0
  5  4  2  0  0  0  0
  6  5  1  0  0  0  0
  6  1  2  0  0  0  0
  7  8  1  0  0  0  0
  8 16  1  0  0  0  0
  8  9  1  0  0  0  0
  9 17  1  0  0  0  0
 10 19  1  0  0  0  0
 10 20  1  0  0  0  0
 10  9  1  0  0  0  0
 11 21  1  6  0  0  0
 11  7  1  0  0  0  0
 11 10  1  0  0  0  0
 12  1  1  0  0  0  0
 14  5  1  0  0  0  0
 15  8  1  0  0  0  0
 18  9  1  0  0  0  0
 22 23  1  0  0  0  0
 22 11  1  0  0  0  0
 24 23  1  0  0  0  0
 25 24  1  0  0  0  0
 26 25  1  0  0  0  0
 27 25  1  0  0  0  0
 27 28  1  0  0  0  0
 28 22  1  0  0  0  0
M  END
>  <minimizedAffinity>
-4.64952278

$$$$

 OpenBabel03272507243D

 28 30  0  0  1  0  0  0  0  0999 V2000
   42.4350   21.0330   36.4980 C   0  0  0  0  0  0  0  0  0  0  0  0
   41.4680   21.8430   37.1270 C   0  0  0  0  0  0  0  0  0  0  0  0
   40.5520   22.5380   36.3140 C   0  0  0  0  0  0  0  0  0  0  0  0
   40.6670   22.3740   34.9880 N   0  0  0  0  0  0  0  0  0  0  0  0
   41.5940   21.5970   34.4000 C   0  0  0  0  0  0  0  0  0  0  0  0
   42.4770   20.9260   35.1580 N   0  0  0  0  0  0  0  0  0  0  0  0
   39.5770   23.3610   36.9050 N   0  0  0  0  0  0  0  0  0  0  0  0
   38.9430   23.1130   38.2090 C   0  0  0  0  0  0  0  0  0  0  0  0
   37.8600   24.1470   38.3210 C   0  0  0  0  0  0  0  0  0  0  0  0
   37.6360   24.5240   36.8850 C   0  0  0  0  0  0  0  0  0  0  0  0
   39.0500   24.5550   36.3680 C   0  0  2  0  0  0  0  0  0  0  0  0
   43.1680   20.4720   37.0790 H   0  0  0  0  0  0  0  0  0  0  0  0
   41.4480   21.9180   38.2130 H   0  0  0  0  0  0  0  0  0  0  0  0
   41.6330   21.5070   33.3100 H   0  0  0  0  0  0  0  0  0  0  0  0
   39.7160   23.3730   38.9620 H   0  0  0  0  0  0  0  0  0  0  0  0
   38.6000   22.0880   38.3260 H   0  0  0  0  0  0  0  0  0  0  0  0
   36.9640   23.7330   38.8290 H   0  0  0  0  0  0  0  0  0  0  0  0
   38.1790   25.0250   38.9110 H   0  0  0  0  0  0  0  0  0  0  0  0
   37.1440   25.4940   36.8600 H   0  0  0  0  0  0  0  0  0  0  0  0
   37.0380   23.6990   36.4500 H   0  0  0  0  0  0  0  0  0  0  0  0
   39.5430   25.3820   36.9730 H   0  0  0  0  0  0  0  0  0  0  0  0
   39.2080   24.8790   35.0180 N   0  0  0  0  0  0  0  0  0  0  0  0
   38.0890   24.8660   34.1520 C   0  0  0  0  0  2  0  0  0  0  0  0
   37.7250   26.3010   33.7260 C   0  0  0  0  0  2  0  0  0  0  0  0
   38.8380   26.7780   32.8200 C   0  0  0  0  0  3  0  0  0  0  0  0
   38.5930   27.8310   32.5380 H   0  0  0  0  0  0  0  0  0  0  0  0
   40.1290   26.6520   33.5800 C   0  0  0  0  0  2  0  0  0  0  0  0
   39.9130   26.1510   34.9590 C   0  0  0  0  0  2  0  0  0  0  0  0
  1 12  1  0  0  0  0
  1  2  1  0  0  0  0
  2 13  1  0  0  0  0
  3  7  1  0  0  0  0
  3  2  2  0  0  0  0
  4  3  1  0  0  0  0
  5  4  2  0  0  0  0
  5  6  1  0  0  0  0
  6  1  2  0  0  0  0
  7  8  1  0  0  0  0
  8  9  1  0  0  0  0
  8 16  1  0  0  0  0
  8 15  1  0  0  0  0
  9 17  1  0  0  0  0
  9 18  1  0  0  0  0
 10  9  1  0  0  0  0
 11 10  1  0  0  0  0
 11  7  1  0  0  0  0
 11 21  1  1  0  0  0
 14  5  1  0  0  0  0
 19 10  1  0  0  0  0
 20 10  1  0  0  0  0
 22 11  1  0  0  0  0
 23 22  1  0  0  0  0
 24 23  1  0  0  0  0
 25 27  1  0  0  0  0
 25 24  1  0  0  0  0
 26 25  1  0  0  0  0
 27 28  1  0  0  0  0
 28 22  1  0  0  0  0
M  END
>  <minimizedAffinity>
-4.47957277

$$$$

 OpenBabel03272507243D

 28 30  0  0  1  0  0  0  0  0999 V2000
   35.5120   24.1590   31.1710 C   0  0  0  0  0  0  0  0  0  0  0  0
   36.4490   25.0670   31.7050 C   0  0  0  0  0  0  0  0  0  0  0  0
   37.4260   24.5710   32.5900 C   0  0  0  0  0  0  0  0  0  0  0  0
   37.3940   23.2590   32.8610 N   0  0  0  0  0  0  0  0  0  0  0  0
   36.4940   22.4020   32.3440 C   0  0  0  0  0  0  0  0  0  0  0  0
   35.5540   22.8550   31.4990 N   0  0  0  0  0  0  0  0  0  0  0  0
   38.3740   25.4490   33.1480 N   0  0  0  0  0  0  0  0  0  0  0  0
   38.9180   26.6370   32.4750 C   0  0  0  0  0  0  0  0  0  0  0  0
   40.0080   27.1340   33.3810 C   0  0  0  0  0  0  0  0  0  0  0  0
   40.3300   25.9100   34.1870 C   0  0  0  0  0  0  0  0  0  0  0  0
   38.9520   25.3520   34.4310 C   0  0  2  0  0  0  0  0  0  0  0  0
   34.7340   24.4890   30.4810 H   0  0  0  0  0  0  0  0  0  0  0  0
   36.4010   26.1190   31.4290 H   0  0  0  0  0  0  0  0  0  0  0  0
   36.5240   21.3400   32.6080 H   0  0  0  0  0  0  0  0  0  0  0  0
   38.1030   27.3900   32.5080 H   0  0  0  0  0  0  0  0  0  0  0  0
   39.2370   26.4400   31.4540 H   0  0  0  0  0  0  0  0  0  0  0  0
   40.8630   27.5320   32.7960 H   0  0  0  0  0  0  0  0  0  0  0  0
   39.6650   27.9550   34.0360 H   0  0  0  0  0  0  0  0  0  0  0  0
   40.8370   26.2240   35.0970 H   0  0  0  0  0  0  0  0  0  0  0  0
   40.9410   25.2680   33.5230 H   0  0  0  0  0  0  0  0  0  0  0  0
   38.4340   26.1610   35.0380 H   0  0  0  0  0  0  0  0  0  0  0  0
   38.8860   24.1700   35.1730 N   0  0  0  0  0  0  0  0  0  0  0  0
   39.9990   23.2970   35.2140 C   0  0  0  0  0  2  0  0  0  0  0  0
   40.6380   23.3110   36.6160 C   0  0  0  0  0  2  0  0  0  0  0  0
   39.6550   22.6340   37.5450 C   0  0  0  0  0  3  0  0  0  0  0  0
   40.1010   22.6740   38.5680 H   0  0  0  0  0  0  0  0  0  0  0  0
   38.3480   23.3720   37.4390 C   0  0  0  0  0  2  0  0  0  0  0  0
   38.4380   24.5250   36.5120 C   0  0  0  0  0  2  0  0  0  0  0  0
  1  6  2  0  0  0  0
  1  2  1  0  0  0  0
  2  3  2  0  0  0  0
  3  4  1  0  0  0  0
  3  7  1  0  0  0  0
  5 14  1  0  0  0  0
  5  4  2  0  0  0  0
  6  5  1  0  0  0  0
  7 11  1  0  0  0  0
  8 15  1  0  0  0  0
  8  7  1  0  0  0  0
  8  9  1  0  0  0  0
  9 18  1  0  0  0  0
  9 10  1  0  0  0  0
 10 11  1  0  0  0  0
 10 19  1  0  0  0  0
 11 21  1  1  0  0  0
 11 22  1  0  0  0  0
 12  1  1  0  0  0  0
 13  2  1  0  0  0  0
 16  8  1  0  0  0  0
 17  9  1  0  0  0  0
 20 10  1  0  0  0  0
 22 23  1  0  0  0  0
 22 28  1  0  0  0  0
 23 24  1  0  0  0  0
 24 25  1  0  0  0  0
 25 26  1  0  0  0  0
 27 25  1  0  0  0  0
 28 27  1  0  0  0  0
M  END
>  <minimizedAffinity>
-4.41123581

$$$$

 OpenBabel03272507243D

 28 30  0  0  1  0  0  0  0  0999 V2000
   40.1530   23.0350   36.5560 C   0  0  0  0  0  0  0  0  0  0  0  0
   40.4850   23.9060   35.4990 C   0  0  0  0  0  0  0  0  0  0  0  0
   39.4400   24.5930   34.8500 C   0  0  0  0  0  0  0  0  0  0  0  0
   38.1950   24.3670   35.2930 N   0  0  0  0  0  0  0  0  0  0  0  0
   37.8910   23.5330   36.3050 C   0  0  0  0  0  0  0  0  0  0  0  0
   38.8730   22.8680   36.9350 N   0  0  0  0  0  0  0  0  0  0  0  0
   39.7320   25.4660   33.7870 N   0  0  0  0  0  0  0  0  0  0  0  0
   40.9570   26.2690   33.6690 C   0  0  0  0  0  0  0  0  0  0  0  0
   40.7290   27.1600   32.4820 C   0  0  0  0  0  0  0  0  0  0  0  0
   39.2320   27.1590   32.3710 C   0  0  0  0  0  0  0  0  0  0  0  0
   38.9200   25.7140   32.6600 C   0  0  2  0  0  0  0  0  0  0  0  0
   40.9220   22.4780   37.0930 H   0  0  0  0  0  0  0  0  0  0  0  0
   41.5260   24.0290   35.2060 H   0  0  0  0  0  0  0  0  0  0  0  0
   36.8510   23.3940   36.6160 H   0  0  0  0  0  0  0  0  0  0  0  0
   41.7520   25.5480   33.3840 H   0  0  0  0  0  0  0  0  0  0  0  0
   41.2090   26.7980   34.5860 H   0  0  0  0  0  0  0  0  0  0  0  0
   41.1740   28.1640   32.6440 H   0  0  0  0  0  0  0  0  0  0  0  0
   41.1900   26.7570   31.5620 H   0  0  0  0  0  0  0  0  0  0  0  0
   38.9640   27.4670   31.3630 H   0  0  0  0  0  0  0  0  0  0  0  0
   38.8750   27.8420   33.1670 H   0  0  0  0  0  0  0  0  0  0  0  0
   39.4290   25.1510   31.8130 H   0  0  0  0  0  0  0  0  0  0  0  0
   37.5690   25.3580   32.6420 N   0  0  0  0  0  0  0  0  0  0  0  0
   36.5790   26.3480   32.4390 C   0  0  0  0  0  2  0  0  0  0  0  0
   35.9180   26.1690   31.0590 C   0  0  0  0  0  2  0  0  0  0  0  0
   35.1020   24.8980   31.1320 C   0  0  0  0  0  3  0  0  0  0  0  0
   34.6500   24.7470   30.1220 H   0  0  0  0  0  0  0  0  0  0  0  0
   36.0290   23.7850   31.5390 C   0  0  0  0  0  2  0  0  0  0  0  0
   37.4260   24.2590   31.6980 C   0  0  0  0  0  2  0  0  0  0  0  0
  1  6  1  0  0  0  0
  1 12  1  0  0  0  0
  2  1  2  0  0  0  0
  3  4  2  0  0  0  0
  3  2  1  0  0  0  0
  4  5  1  0  0  0  0
  5 14  1  0  0  0  0
  5  6  2  0  0  0  0
  7  3  1  0  0  0  0
  8  7  1  0  0  0  0
  8 16  1  0  0  0  0
  9 17  1  0  0  0  0
  9  8  1  0  0  0  0
 10  9  1  0  0  0  0
 10 11  1  0  0  0  0
 10 20  1  0  0  0  0
 11 21  1  6  0  0  0
 11  7  1  0  0  0  0
 13  2  1  0  0  0  0
 15  8  1  0  0  0  0
 18  9  1  0  0  0  0
 19 10  1  0  0  0  0
 22 11  1  0  0  0  0
 23 22  1  0  0  0  0
 24 25  1  0  0  0  0
 24 23  1  0  0  0  0
 25 27  1  0  0  0  0
 26 25  1  0  0  0  0
 27 28  1  0  0  0  0
 28 22  1  0  0  0  0
M  END
>  <minimizedAffinity>
-4.38521767

$$$$

 OpenBabel03272507243D

 28 30  0  0  1  0  0  0  0  0999 V2000
   35.9010   20.6610   32.1870 C   0  0  0  0  0  0  0  0  0  0  0  0
   35.5630   22.0150   31.9880 C   0  0  0  0  0  0  0  0  0  0  0  0
   36.5870   22.9770   32.0860 C   0  0  0  0  0  0  0  0  0  0  0  0
   37.8210   22.5290   32.3620 N   0  0  0  0  0  0  0  0  0  0  0  0
   38.1300   21.2330   32.5490 C   0  0  0  0  0  0  0  0  0  0  0  0
   37.1680   20.3000   32.4610 N   0  0  0  0  0  0  0  0  0  0  0  0
   36.2870   24.3390   31.9000 N   0  0  0  0  0  0  0  0  0  0  0  0
   35.2510   24.8560   30.9950 C   0  0  0  0  0  0  0  0  0  0  0  0
   35.4310   26.3470   31.0050 C   0  0  0  0  0  0  0  0  0  0  0  0
   36.8490   26.4890   31.4750 C   0  0  0  0  0  0  0  0  0  0  0  0
   36.9090   25.4290   32.5440 C   0  0  2  0  0  0  0  0  0  0  0  0
   35.1480   19.8740   32.1230 H   0  0  0  0  0  0  0  0  0  0  0  0
   34.5340   22.2890   31.7670 H   0  0  0  0  0  0  0  0  0  0  0  0
   39.1590   20.9350   32.7730 H   0  0  0  0  0  0  0  0  0  0  0  0
   34.2870   24.6440   31.5040 H   0  0  0  0  0  0  0  0  0  0  0  0
   35.2860   24.4050   30.0050 H   0  0  0  0  0  0  0  0  0  0  0  0
   35.2380   26.7790   30.0010 H   0  0  0  0  0  0  0  0  0  0  0  0
   34.7350   26.8470   31.7020 H   0  0  0  0  0  0  0  0  0  0  0  0
   36.9820   27.4980   31.8580 H   0  0  0  0  0  0  0  0  0  0  0  0
   37.4800   26.2470   30.5970 H   0  0  0  0  0  0  0  0  0  0  0  0
   36.1480   25.7770   33.3140 H   0  0  0  0  0  0  0  0  0  0  0  0
   38.1320   25.2850   33.2050 N   0  0  0  0  0  0  0  0  0  0  0  0
   39.2920   25.9080   32.6880 C   0  0  0  0  0  2  0  0  0  0  0  0
   39.7340   27.0630   33.6070 C   0  0  0  0  0  2  0  0  0  0  0  0
   40.2410   26.4290   34.8840 C   0  0  0  0  0  3  0  0  0  0  0  0
   40.5300   27.2650   35.5650 H   0  0  0  0  0  0  0  0  0  0  0  0
   39.1360   25.5690   35.4340 C   0  0  0  0  0  2  0  0  0  0  0  0
   37.9120   25.6400   34.5990 C   0  0  0  0  0  2  0  0  0  0  0  0
  1  6  1  0  0  0  0
  2  3  1  0  0  0  0
  2  1  2  0  0  0  0
  3  4  2  0  0  0  0
  4  5  1  0  0  0  0
  5 14  1  0  0  0  0
  6  5  2  0  0  0  0
  7  3  1  0  0  0  0
  7 11  1  0  0  0  0
  8  9  1  0  0  0  0
  8 15  1  0  0  0  0
  8  7  1  0  0  0  0
  9 10  1  0  0  0  0
  9 18  1  0  0  0  0
 10 19  1  0  0  0  0
 10 11  1  0  0  0  0
 11 22  1  0  0  0  0
 11 21  1  1  0  0  0
 12  1  1  0  0  0  0
 13  2  1  0  0  0  0
 16  8  1  0  0  0  0
 17  9  1  0  0  0  0
 20 10  1  0  0  0  0
 22 28  1  0  0  0  0
 23 22  1  0  0  0  0
 23 24  1  0  0  0  0
 24 25  1  0  0  0  0
 25 27  1  0  0  0  0
 25 26  1  0  0  0  0
 28 27  1  0  0  0  0
M  END
>  <minimizedAffinity>
-4.37184954

$$$$

 OpenBabel03272507243D

 28 30  0  0  1  0  0  0  0  0999 V2000
   36.8430   26.4210   31.1590 C   0  0  0  0  0  0  0  0  0  0  0  0
   37.7650   25.3820   30.9160 C   0  0  0  0  0  0  0  0  0  0  0  0
   37.2670   24.0720   30.7700 C   0  0  0  0  0  0  0  0  0  0  0  0
   35.9400   23.9090   30.8720 N   0  0  0  0  0  0  0  0  0  0  0  0
   35.0710   24.9090   31.1040 C   0  0  0  0  0  0  0  0  0  0  0  0
   35.5250   26.1650   31.2470 N   0  0  0  0  0  0  0  0  0  0  0  0
   38.1570   23.0090   30.5310 N   0  0  0  0  0  0  0  0  0  0  0  0
   39.4120   23.1160   29.7730 C   0  0  0  0  0  0  0  0  0  0  0  0
   39.9090   21.7050   29.6380 C   0  0  0  0  0  0  0  0  0  0  0  0
   38.6560   20.9080   29.8560 C   0  0  0  0  0  0  0  0  0  0  0  0
   38.0120   21.6790   30.9780 C   0  0  2  0  0  0  0  0  0  0  0  0
   37.1730   27.4530   31.2810 H   0  0  0  0  0  0  0  0  0  0  0  0
   38.8270   25.6070   30.8470 H   0  0  0  0  0  0  0  0  0  0  0  0
   33.9980   24.7060   31.1770 H   0  0  0  0  0  0  0  0  0  0  0  0
   40.1170   23.6440   30.4480 H   0  0  0  0  0  0  0  0  0  0  0  0
   39.2950   23.6430   28.8280 H   0  0  0  0  0  0  0  0  0  0  0  0
   40.3870   21.5420   28.6500 H   0  0  0  0  0  0  0  0  0  0  0  0
   40.6690   21.4560   30.4000 H   0  0  0  0  0  0  0  0  0  0  0  0
   38.9390   19.8960   30.1330 H   0  0  0  0  0  0  0  0  0  0  0  0
   38.0890   20.9800   28.9070 H   0  0  0  0  0  0  0  0  0  0  0  0
   38.7540   21.5840   31.8340 H   0  0  0  0  0  0  0  0  0  0  0  0
   36.7850   21.1940   31.4380 N   0  0  0  0  0  0  0  0  0  0  0  0
   36.1820   20.0830   30.8030 C   0  0  0  0  0  2  0  0  0  0  0  0
   36.2140   18.8530   31.7310 C   0  0  0  0  0  2  0  0  0  0  0  0
   35.2580   19.1430   32.8660 C   0  0  0  0  0  3  0  0  0  0  0  0
   35.3070   18.2680   33.5580 H   0  0  0  0  0  0  0  0  0  0  0  0
   35.6930   20.4330   33.5080 C   0  0  0  0  0  2  0  0  0  0  0  0
   36.9140   20.9830   32.8720 C   0  0  0  0  0  2  0  0  0  0  0  0
  1  6  1  0  0  0  0
  1 12  1  0  0  0  0
  2  1  2  0  0  0  0
  3  4  2  0  0  0  0
  3  2  1  0  0  0  0
  4  5  1  0  0  0  0
  5 14  1  0  0  0  0
  5  6  2  0  0  0  0
  7  3  1  0  0  0  0
  7 11  1  0  0  0  0
  8 15  1  0  0  0  0
  8  7  1  0  0  0  0
  9  8  1  0  0  0  0
  9 10  1  0  0  0  0
  9 18  1  0  0  0  0
 10 19  1  0  0  0  0
 10 11  1  0  0  0  0
 11 22  1  0  0  0  0
 11 21  1  1  0  0  0
 13  2  1  0  0  0  0
 16  8  1  0  0  0  0
 17  9  1  0  0  0  0
 20 10  1  0  0  0  0
 22 28  1  0  0  0  0
 23 22  1  0  0  0  0
 23 24  1  0  0  0  0
 24 25  1  0  0  0  0
 25 27  1  0  0  0  0
 25 26  1  0  0  0  0
 28 27  1  0  0  0  0
M  END
>  <minimizedAffinity>
-4.33850765

$$$$

 OpenBabel03272507243D

 28 30  0  0  1  0  0  0  0  0999 V2000
   35.5060   20.7430   33.3150 C   0  0  0  0  0  0  0  0  0  0  0  0
   36.0940   21.6450   32.4060 C   0  0  0  0  0  0  0  0  0  0  0  0
   37.1060   22.5030   32.8800 C   0  0  0  0  0  0  0  0  0  0  0  0
   37.4390   22.3960   34.1750 N   0  0  0  0  0  0  0  0  0  0  0  0
   36.8700   21.5300   35.0330 C   0  0  0  0  0  0  0  0  0  0  0  0
   35.9030   20.7040   34.6000 N   0  0  0  0  0  0  0  0  0  0  0  0
   37.7120   23.4200   32.0030 N   0  0  0  0  0  0  0  0  0  0  0  0
   37.9340   23.1930   30.5680 C   0  0  0  0  0  0  0  0  0  0  0  0
   38.7610   24.3590   30.1090 C   0  0  0  0  0  0  0  0  0  0  0  0
   39.3660   24.8400   31.3960 C   0  0  0  0  0  0  0  0  0  0  0  0
   38.1980   24.7020   32.3370 C   0  0  2  0  0  0  0  0  0  0  0  0
   34.7190   20.0560   33.0020 H   0  0  0  0  0  0  0  0  0  0  0  0
   35.7610   21.6630   31.3700 H   0  0  0  0  0  0  0  0  0  0  0  0
   37.1890   21.4950   36.0790 H   0  0  0  0  0  0  0  0  0  0  0  0
   36.9340   23.3020   30.0980 H   0  0  0  0  0  0  0  0  0  0  0  0
   38.3700   22.2200   30.3540 H   0  0  0  0  0  0  0  0  0  0  0  0
   39.5020   24.0470   29.3450 H   0  0  0  0  0  0  0  0  0  0  0  0
   38.1460   25.1510   29.6460 H   0  0  0  0  0  0  0  0  0  0  0  0
   39.6910   25.8690   31.2560 H   0  0  0  0  0  0  0  0  0  0  0  0
   40.1850   24.1300   31.6230 H   0  0  0  0  0  0  0  0  0  0  0  0
   37.4230   25.4190   31.9140 H   0  0  0  0  0  0  0  0  0  0  0  0
   38.4260   25.0730   33.6640 N   0  0  0  0  0  0  0  0  0  0  0  0
   39.7270   25.4380   34.0830 C   0  0  0  0  0  2  0  0  0  0  0  0
   39.7870   26.9470   34.3910 C   0  0  0  0  0  2  0  0  0  0  0  0
   38.9650   27.1650   35.6420 C   0  0  0  0  0  3  0  0  0  0  0  0
   38.9780   28.2630   35.8470 H   0  0  0  0  0  0  0  0  0  0  0  0
   37.5850   26.6270   35.3780 C   0  0  0  0  0  2  0  0  0  0  0  0
   37.4500   26.1010   33.9990 C   0  0  0  0  0  2  0  0  0  0  0  0
  1  6  1  0  0  0  0
  2  3  1  0  0  0  0
  2  1  2  0  0  0  0
  3  4  2  0  0  0  0
  4  5  1  0  0  0  0
  5 14  1  0  0  0  0
  6  5  2  0  0  0  0
  7 11  1  0  0  0  0
  7  3  1  0  0  0  0
  8  7  1  0  0  0  0
  9  8  1  0  0  0  0
  9 10  1  0  0  0  0
 10 20  1  0  0  0  0
 10 11  1  0  0  0  0
 11 21  1  6  0  0  0
 11 22  1  0  0  0  0
 12  1  1  0  0  0  0
 13  2  1  0  0  0  0
 15  8  1  0  0  0  0
 16  8  1  0  0  0  0
 17  9  1  0  0  0  0
 18  9  1  0  0  0  0
 19 10  1  0  0  0  0
 22 28  1  0  0  0  0
 22 23  1  0  0  0  0
 23 24  1  0  0  0  0
 24 25  1  0  0  0  0
 25 26  1  0  0  0  0
 27 25  1  0  0  0  0
 28 27  1  0  0  0  0
M  END
>  <minimizedAffinity>
-4.32967234

$$$$
