
 OpenBabel03272510323D

 26 28  0  0  0  0  0  0  0  0999 V2000
   36.2010   30.4520   46.3380 C   0  0  0  0  0  0  0  0  0  0  0  0
   35.4450   30.3610   45.1970 C   0  0  0  0  0  0  0  0  0  0  0  0
   34.1330   29.9420   45.2310 C   0  0  0  0  0  0  0  0  0  0  0  0
   33.5900   29.6100   46.4670 C   0  0  0  0  0  0  0  0  0  0  0  0
   34.3380   29.6940   47.6430 C   0  0  0  0  0  0  0  0  0  0  0  0
   35.6570   30.1200   47.5670 C   0  0  0  0  0  0  0  0  0  0  0  0
   35.8560   30.6180   44.2200 H   0  0  0  0  0  0  0  0  0  0  0  0
   33.5290   29.8690   44.3330 H   0  0  0  0  0  0  0  0  0  0  0  0
   32.5590   29.2870   46.4530 H   0  0  0  0  0  0  0  0  0  0  0  0
   33.8630   29.4230   48.5770 H   0  0  0  0  0  0  0  0  0  0  0  0
   39.1510   32.5630   46.6770 C   0  0  0  0  0  0  0  0  0  0  0  0
   40.1550   31.8730   45.9990 C   0  0  0  0  0  0  0  0  0  0  0  0
   39.7970   30.6310   45.4040 C   0  0  0  0  0  0  0  0  0  0  0  0
   38.5170   30.1950   45.5270 N   0  0  0  0  0  0  0  0  0  0  0  0
   37.5730   30.9030   46.1970 C   0  0  0  0  0  0  0  0  0  0  0  0
   37.9120   32.0830   46.7630 N   0  0  0  0  0  0  0  0  0  0  0  0
   39.3520   33.5120   47.1540 H   0  0  0  0  0  0  0  0  0  0  0  0
   41.1490   32.2440   45.9220 H   0  0  0  0  0  0  0  0  0  0  0  0
   40.5410   30.0420   44.8570 H   0  0  0  0  0  0  0  0  0  0  0  0
   36.4430   30.2120   48.7570 N   0  0  0  0  0  0  0  0  0  0  0  0
   37.5730   29.3860   49.2110 C   0  0  0  0  0  2  0  0  0  0  0  0
   37.4390   29.1520   50.7020 C   0  0  0  0  0  2  0  0  0  0  0  0
   37.3130   30.4250   51.4750 C   0  0  0  0  0  3  0  0  0  0  0  0
   36.4190   30.3720   52.1310 H   0  0  0  0  0  0  0  0  0  0  0  0
   37.1030   31.6260   50.5620 C   0  0  0  0  0  2  0  0  0  0  0  0
   36.0020   31.3100   49.5970 C   0  0  0  0  0  2  0  0  0  0  0  0
  1  6  1  0  0  0  0
  2  3  1  0  0  0  0
  2  1  2  0  0  0  0
  3  4  2  0  0  0  0
  4  5  1  0  0  0  0
  5 10  1  0  0  0  0
  6  5  2  0  0  0  0
  6 20  1  0  0  0  0
  7  2  1  0  0  0  0
  8  3  1  0  0  0  0
  9  4  1  0  0  0  0
 11 16  1  0  0  0  0
 11 17  1  0  0  0  0
 12 11  2  0  0  0  0
 13 14  2  0  0  0  0
 13 12  1  0  0  0  0
 14 15  1  0  0  0  0
 15  1  1  0  0  0  0
 15 16  2  0  0  0  0
 18 12  1  0  0  0  0
 19 13  1  0  0  0  0
 20 21  1  0  0  0  0
 20 26  1  0  0  0  0
 21 22  1  0  0  0  0
 22 23  1  0  0  0  0
 23 24  1  0  0  0  0
 25 23  1  0  0  0  0
 26 25  1  0  0  0  0
M  END
>  <minimizedAffinity>
-4.88423586

>  <minimizedRMSD>
2.62636232

$$$$
