
 OpenBabel03272506593D

 33 36  0  0  0  0  0  0  0  0999 V2000
   37.8560   30.8930   47.2600 C   0  0  0  0  0  0  0  0  0  0  0  0
   38.2410   31.5650   48.4040 C   0  0  0  0  0  0  0  0  0  0  0  0
   37.5080   31.6750   49.5540 C   0  0  0  0  0  0  0  0  0  0  0  0
   36.2990   31.0570   49.5420 N   0  0  0  0  0  0  0  0  0  0  0  0
   35.8890   30.3910   48.4420 C   0  0  0  0  0  0  0  0  0  0  0  0
   36.6500   30.3120   47.3330 N   0  0  0  0  0  0  0  0  0  0  0  0
   39.2140   32.0530   48.3980 H   0  0  0  0  0  0  0  0  0  0  0  0
   37.8690   32.2140   50.4020 H   0  0  0  0  0  0  0  0  0  0  0  0
   34.6200   29.6920   48.3100 C   0  0  0  0  0  0  0  0  0  0  0  0
   33.7990   30.0860   47.2610 C   0  0  0  0  0  0  0  0  0  0  0  0
   32.6680   29.3140   47.2930 N   0  0  0  0  0  0  0  0  0  0  0  0
   32.8030   28.4610   48.3550 C   0  0  0  0  0  0  0  0  0  0  0  0
   33.9860   28.6850   48.9780 N   0  0  0  0  0  0  0  0  0  0  0  0
   33.9200   30.8530   46.4820 H   0  0  0  0  0  0  0  0  0  0  0  0
   31.8660   29.3970   46.6060 H   0  0  0  0  0  0  0  0  0  0  0  0
   31.7690   27.5370   48.6110 N   0  0  0  0  0  0  0  0  0  0  0  0
   31.8580   26.1690   48.0720 C   0  0  0  0  0  0  0  0  0  0  0  0
   30.9410   26.1420   46.8640 C   0  0  0  0  0  0  0  0  0  0  0  0
   29.7420   27.0470   47.0800 C   0  0  0  0  0  0  0  0  0  0  0  0
   29.9520   28.0950   46.8210 H   0  0  0  0  0  0  0  0  0  0  0  0
   29.4110   27.0560   48.5640 C   0  0  0  0  0  0  0  0  0  0  0  0
   30.5510   27.6990   49.3620 C   0  0  0  0  0  0  0  0  0  0  0  0
   39.0110   30.1020   43.9210 C   0  0  0  0  0  0  0  0  0  0  0  0
   40.2950   30.6380   43.8240 C   0  0  0  0  0  0  0  0  0  0  0  0
   40.7480   31.2930   44.9640 C   0  0  0  0  0  0  0  0  0  0  0  0
   39.9560   31.3680   46.0480 N   0  0  0  0  0  0  0  0  0  0  0  0
   38.7260   30.8320   46.0860 C   0  0  0  0  0  0  0  0  0  0  0  0
   38.1920   30.1630   45.0010 N   0  0  0  0  0  0  0  0  0  0  0  0
   38.5890   29.5750   43.0650 H   0  0  0  0  0  0  0  0  0  0  0  0
   41.7380   31.7280   44.9400 H   0  0  0  0  0  0  0  0  0  0  0  0
   41.0480   30.5010   42.6350 N   0  0  0  0  0  0  0  0  0  0  0  0
   40.4970   30.7230   41.7540 H   0  0  0  0  0  0  0  0  0  0  0  0
   42.0610   30.2100   42.5760 H   0  0  0  0  0  0  0  0  0  0  0  0
  1  6  2  0  0  0  0
  1  2  1  0  0  0  0
  2  3  2  0  0  0  0
  3  8  1  0  0  0  0
  4  3  1  0  0  0  0
  5  4  2  0  0  0  0
  6  5  1  0  0  0  0
  7  2  1  0  0  0  0
  9  5  1  0  0  0  0
  9 13  1  0  0  0  0
 10 11  1  0  0  0  0
 10  9  2  0  0  0  0
 11 12  1  0  0  0  0
 12 16  1  0  0  0  0
 12 13  2  0  0  0  0
 14 10  1  0  0  0  0
 15 11  1  0  0  0  0
 16 22  1  0  0  0  0
 17 16  1  0  0  0  0
 18 19  1  0  0  0  0
 18 17  1  0  0  0  0
 19 21  1  0  0  0  0
 20 19  1  0  0  0  0
 21 22  1  0  0  0  0
 23 28  1  0  0  0  0
 24 23  2  0  0  0  0
 24 25  1  0  0  0  0
 25 26  2  0  0  0  0
 26 27  1  0  0  0  0
 27  1  1  0  0  0  0
 28 27  2  0  0  0  0
 29 23  1  0  0  0  0
 30 25  1  0  0  0  0
 31 24  1  0  0  0  0
 32 31  1  0  0  0  0
 33 31  1  0  0  0  0
M  END
>  <minimizedAffinity>
-6.1375351

>  <minimizedRMSD>
1.87381279

$$$$
