
 OpenBabel03272506193D

 32 34  0  0  0  0  0  0  0  0999 V2000
   36.3930   21.5160   31.6300 C   0  0  0  0  0  0  0  0  0  0  0  0
   35.3430   21.2320   32.6850 C   0  0  0  0  0  0  0  0  0  0  0  0
   35.4050   19.8210   33.1930 C   0  0  0  0  0  0  0  0  0  0  0  0
   35.3070   18.8050   32.0890 C   0  0  0  0  0  0  0  0  0  0  0  0
   36.1440   19.1440   30.8930 C   0  0  0  0  0  0  0  0  0  0  0  0
   37.0990   20.2900   31.1600 C   0  0  0  0  0  0  0  0  0  0  0  0
   35.9200   22.0260   30.7620 H   0  0  0  0  0  0  0  0  0  0  0  0
   35.3880   21.9240   33.5350 H   0  0  0  0  0  0  0  0  0  0  0  0
   34.3430   21.3500   32.2140 H   0  0  0  0  0  0  0  0  0  0  0  0
   34.5410   19.6810   33.8640 H   0  0  0  0  0  0  0  0  0  0  0  0
   36.3620   19.6590   33.7680 H   0  0  0  0  0  0  0  0  0  0  0  0
   35.7260   17.8360   32.4830 H   0  0  0  0  0  0  0  0  0  0  0  0
   34.2450   18.6180   31.8470 H   0  0  0  0  0  0  0  0  0  0  0  0
   35.4740   19.4830   30.0580 H   0  0  0  0  0  0  0  0  0  0  0  0
   36.7400   18.3100   30.4850 H   0  0  0  0  0  0  0  0  0  0  0  0
   37.6690   20.4920   30.2560 H   0  0  0  0  0  0  0  0  0  0  0  0
   37.7520   19.9320   32.0060 H   0  0  0  0  0  0  0  0  0  0  0  0
   37.4160   22.4520   32.1780 C   0  0  0  0  0  0  0  0  0  0  0  0
   37.5890   22.4540   33.5720 C   0  0  0  0  0  0  0  0  0  0  0  0
   38.5330   23.3300   34.0950 C   0  0  0  0  0  0  0  0  0  0  0  0
   39.2420   24.1400   33.2500 N   0  0  0  0  0  0  0  0  0  0  0  0
   39.0480   24.1110   31.8940 C   0  0  0  0  0  0  0  0  0  0  0  0
   38.1360   23.2660   31.3820 N   0  0  0  0  0  0  0  0  0  0  0  0
   37.0730   21.8580   34.2840 H   0  0  0  0  0  0  0  0  0  0  0  0
   39.6350   24.7730   31.2700 H   0  0  0  0  0  0  0  0  0  0  0  0
   38.7660   23.3900   35.4960 N   0  0  0  0  0  0  0  0  0  0  0  0
   39.5010   22.3530   36.1550 C   0  0  0  0  0  2  0  0  0  0  0  0
   39.9450   22.8010   37.5330 C   0  0  0  0  0  2  0  0  0  0  0  0
   38.7880   23.2690   38.3830 C   0  0  0  0  0  3  0  0  0  0  0  0
   39.2110   23.8880   39.2160 H   0  0  0  0  0  0  0  0  0  0  0  0
   37.7700   24.0740   37.6280 C   0  0  0  0  0  2  0  0  0  0  0  0
   38.2520   24.5110   36.2600 C   0  0  0  0  0  2  0  0  0  0  0  0
  1 18  1  0  0  0  0
  1  2  1  0  0  0  0
  2  3  1  0  0  0  0
  2  8  1  0  0  0  0
  3 11  1  0  0  0  0
  3 10  1  0  0  0  0
  4 12  1  0  0  0  0
  4  3  1  0  0  0  0
  5  6  1  0  0  0  0
  5  4  1  0  0  0  0
  6  1  1  0  0  0  0
  6 17  1  0  0  0  0
  7  1  1  0  0  0  0
  9  2  1  0  0  0  0
 13  4  1  0  0  0  0
 14  5  1  0  0  0  0
 15  5  1  0  0  0  0
 16  6  1  0  0  0  0
 18 19  1  0  0  0  0
 19 20  2  0  0  0  0
 19 24  1  0  0  0  0
 20 26  1  0  0  0  0
 21 20  1  0  0  0  0
 22 21  2  0  0  0  0
 23 22  1  0  0  0  0
 23 18  2  0  0  0  0
 25 22  1  0  0  0  0
 26 27  1  0  0  0  0
 26 32  1  0  0  0  0
 27 28  1  0  0  0  0
 28 29  1  0  0  0  0
 29 30  1  0  0  0  0
 31 29  1  0  0  0  0
 32 31  1  0  0  0  0
M  END
>  <minimizedAffinity>
-5.49056101

$$$$

 OpenBabel03272506193D

 32 34  0  0  0  0  0  0  0  0999 V2000
   37.3840   27.0650   33.6410 C   0  0  0  0  0  0  0  0  0  0  0  0
   37.5220   26.9530   35.1460 C   0  0  0  0  0  0  0  0  0  0  0  0
   38.9240   27.2150   35.6160 C   0  0  0  0  0  0  0  0  0  0  0  0
   39.9350   26.3290   34.9430 C   0  0  0  0  0  0  0  0  0  0  0  0
   39.7160   26.1930   33.4670 C   0  0  0  0  0  0  0  0  0  0  0  0
   38.6940   27.1790   32.9390 C   0  0  0  0  0  0  0  0  0  0  0  0
   36.8310   26.1830   33.2510 H   0  0  0  0  0  0  0  0  0  0  0  0
   36.8300   27.6060   35.6930 H   0  0  0  0  0  0  0  0  0  0  0  0
   37.2880   25.9060   35.4350 H   0  0  0  0  0  0  0  0  0  0  0  0
   38.9470   27.0010   36.6980 H   0  0  0  0  0  0  0  0  0  0  0  0
   39.1960   28.2960   35.4380 H   0  0  0  0  0  0  0  0  0  0  0  0
   40.9420   26.8190   35.0540 H   0  0  0  0  0  0  0  0  0  0  0  0
   39.9910   25.3600   35.4720 H   0  0  0  0  0  0  0  0  0  0  0  0
   39.3080   25.1700   33.2460 H   0  0  0  0  0  0  0  0  0  0  0  0
   40.6230   26.2980   32.8470 H   0  0  0  0  0  0  0  0  0  0  0  0
   38.5760   27.0260   31.8680 H   0  0  0  0  0  0  0  0  0  0  0  0
   39.1190   28.1950   33.1800 H   0  0  0  0  0  0  0  0  0  0  0  0
   36.5750   28.2700   33.2990 C   0  0  0  0  0  0  0  0  0  0  0  0
   35.8920   28.8940   34.3570 C   0  0  0  0  0  0  0  0  0  0  0  0
   35.1260   30.0120   34.0470 C   0  0  0  0  0  0  0  0  0  0  0  0
   35.0680   30.4520   32.7520 N   0  0  0  0  0  0  0  0  0  0  0  0
   35.7470   29.8180   31.7450 C   0  0  0  0  0  0  0  0  0  0  0  0
   36.4900   28.7360   32.0380 N   0  0  0  0  0  0  0  0  0  0  0  0
   35.8900   28.6060   35.3780 H   0  0  0  0  0  0  0  0  0  0  0  0
   35.6670   30.2070   30.7380 H   0  0  0  0  0  0  0  0  0  0  0  0
   34.4060   30.6990   35.0620 N   0  0  0  0  0  0  0  0  0  0  0  0
   35.0920   31.5430   35.9940 C   0  0  0  0  0  2  0  0  0  0  0  0
   34.1160   32.4460   36.7210 C   0  0  0  0  0  2  0  0  0  0  0  0
   33.0160   31.6680   37.4030 C   0  0  0  0  0  3  0  0  0  0  0  0
   32.1770   32.3820   37.6080 H   0  0  0  0  0  0  0  0  0  0  0  0
   32.5030   30.5110   36.5940 C   0  0  0  0  0  2  0  0  0  0  0  0
   32.9680   30.5400   35.1530 C   0  0  0  0  0  2  0  0  0  0  0  0
  1  2  1  0  0  0  0
  2  9  1  0  0  0  0
  2  3  1  0  0  0  0
  2  8  1  0  0  0  0
  3 10  1  0  0  0  0
  4 12  1  0  0  0  0
  4 13  1  0  0  0  0
  4  3  1  0  0  0  0
  5  4  1  0  0  0  0
  6 17  1  0  0  0  0
  6  5  1  0  0  0  0
  6  1  1  0  0  0  0
  7  1  1  0  0  0  0
 11  3  1  0  0  0  0
 14  5  1  0  0  0  0
 15  5  1  0  0  0  0
 16  6  1  0  0  0  0
 18  1  1  0  0  0  0
 18 19  1  0  0  0  0
 19 24  1  0  0  0  0
 20 19  2  0  0  0  0
 20 26  1  0  0  0  0
 21 20  1  0  0  0  0
 22 23  1  0  0  0  0
 22 21  2  0  0  0  0
 23 18  2  0  0  0  0
 25 22  1  0  0  0  0
 26 32  1  0  0  0  0
 26 27  1  0  0  0  0
 27 28  1  0  0  0  0
 28 29  1  0  0  0  0
 29 30  1  0  0  0  0
 31 29  1  0  0  0  0
 32 31  1  0  0  0  0
M  END
>  <minimizedAffinity>
-5.46279478

$$$$

 OpenBabel03272506193D

 32 34  0  0  0  0  0  0  0  0999 V2000
   37.3540   26.5890   34.7020 C   0  0  0  0  0  0  0  0  0  0  0  0
   38.4470   27.0760   35.6320 C   0  0  0  0  0  0  0  0  0  0  0  0
   39.8220   26.7750   35.1090 C   0  0  0  0  0  0  0  0  0  0  0  0
   40.0200   25.3150   34.8100 C   0  0  0  0  0  0  0  0  0  0  0  0
   38.8590   24.6930   34.0950 C   0  0  0  0  0  0  0  0  0  0  0  0
   37.8630   25.7230   33.6020 C   0  0  0  0  0  0  0  0  0  0  0  0
   36.5890   26.0330   35.2870 H   0  0  0  0  0  0  0  0  0  0  0  0
   38.3740   28.1470   35.8590 H   0  0  0  0  0  0  0  0  0  0  0  0
   38.3520   26.5260   36.5920 H   0  0  0  0  0  0  0  0  0  0  0  0
   40.5370   27.0630   35.8990 H   0  0  0  0  0  0  0  0  0  0  0  0
   40.0230   27.3790   34.1780 H   0  0  0  0  0  0  0  0  0  0  0  0
   40.8900   25.2300   34.1000 H   0  0  0  0  0  0  0  0  0  0  0  0
   40.3080   24.7810   35.7340 H   0  0  0  0  0  0  0  0  0  0  0  0
   38.2990   24.0300   34.8080 H   0  0  0  0  0  0  0  0  0  0  0  0
   39.1240   24.0560   33.2340 H   0  0  0  0  0  0  0  0  0  0  0  0
   37.0440   25.2090   33.1000 H   0  0  0  0  0  0  0  0  0  0  0  0
   38.4490   26.3800   32.8980 H   0  0  0  0  0  0  0  0  0  0  0  0
   36.6630   27.7560   34.0840 C   0  0  0  0  0  0  0  0  0  0  0  0
   36.2670   28.7890   34.9500 C   0  0  0  0  0  0  0  0  0  0  0  0
   35.6120   29.8770   34.3860 C   0  0  0  0  0  0  0  0  0  0  0  0
   35.3820   29.9000   33.0360 N   0  0  0  0  0  0  0  0  0  0  0  0
   35.7820   28.8750   32.2200 C   0  0  0  0  0  0  0  0  0  0  0  0
   36.4160   27.8190   32.7610 N   0  0  0  0  0  0  0  0  0  0  0  0
   36.4090   28.8340   36.0020 H   0  0  0  0  0  0  0  0  0  0  0  0
   35.5760   28.9430   31.1600 H   0  0  0  0  0  0  0  0  0  0  0  0
   35.1810   30.9630   35.1970 N   0  0  0  0  0  0  0  0  0  0  0  0
   36.1270   31.9120   35.7000 C   0  0  0  0  0  2  0  0  0  0  0  0
   35.4240   33.1570   36.2030 C   0  0  0  0  0  2  0  0  0  0  0  0
   34.3700   32.8410   37.2370 C   0  0  0  0  0  3  0  0  0  0  0  0
   33.6820   33.7230   37.2970 H   0  0  0  0  0  0  0  0  0  0  0  0
   33.5740   31.6050   36.9300 C   0  0  0  0  0  2  0  0  0  0  0  0
   33.7740   31.1040   35.5150 C   0  0  0  0  0  2  0  0  0  0  0  0
  1  7  1  0  0  0  0
  1  2  1  0  0  0  0
  2  8  1  0  0  0  0
  2  9  1  0  0  0  0
  3  2  1  0  0  0  0
  3 10  1  0  0  0  0
  4  3  1  0  0  0  0
  4 13  1  0  0  0  0
  5 14  1  0  0  0  0
  5  4  1  0  0  0  0
  6  5  1  0  0  0  0
  6  1  1  0  0  0  0
 11  3  1  0  0  0  0
 12  4  1  0  0  0  0
 15  5  1  0  0  0  0
 16  6  1  0  0  0  0
 17  6  1  0  0  0  0
 18  1  1  0  0  0  0
 18 19  1  0  0  0  0
 19 24  1  0  0  0  0
 20 19  2  0  0  0  0
 20 26  1  0  0  0  0
 21 20  1  0  0  0  0
 22 23  1  0  0  0  0
 22 21  2  0  0  0  0
 23 18  2  0  0  0  0
 25 22  1  0  0  0  0
 26 32  1  0  0  0  0
 26 27  1  0  0  0  0
 27 28  1  0  0  0  0
 28 29  1  0  0  0  0
 29 30  1  0  0  0  0
 31 29  1  0  0  0  0
 32 31  1  0  0  0  0
M  END
>  <minimizedAffinity>
-5.3864727

$$$$

 OpenBabel03272506193D

 32 34  0  0  0  0  0  0  0  0999 V2000
   38.1170   25.6780   33.6180 C   0  0  0  0  0  0  0  0  0  0  0  0
   38.5170   24.7340   34.7340 C   0  0  0  0  0  0  0  0  0  0  0  0
   37.9690   25.1560   36.0670 C   0  0  0  0  0  0  0  0  0  0  0  0
   38.3480   26.5640   36.4290 C   0  0  0  0  0  0  0  0  0  0  0  0
   38.2080   27.5290   35.2890 C   0  0  0  0  0  0  0  0  0  0  0  0
   37.4720   26.9280   34.1090 C   0  0  0  0  0  0  0  0  0  0  0  0
   39.0120   25.9370   33.0110 H   0  0  0  0  0  0  0  0  0  0  0  0
   38.2340   23.6920   34.5400 H   0  0  0  0  0  0  0  0  0  0  0  0
   39.6240   24.7650   34.8290 H   0  0  0  0  0  0  0  0  0  0  0  0
   38.4030   24.4790   36.8230 H   0  0  0  0  0  0  0  0  0  0  0  0
   36.8450   25.0570   36.0710 H   0  0  0  0  0  0  0  0  0  0  0  0
   37.6220   26.9200   37.2130 H   0  0  0  0  0  0  0  0  0  0  0  0
   39.3510   26.5730   36.8940 H   0  0  0  0  0  0  0  0  0  0  0  0
   39.2290   27.8060   34.9140 H   0  0  0  0  0  0  0  0  0  0  0  0
   37.7070   28.4790   35.5380 H   0  0  0  0  0  0  0  0  0  0  0  0
   37.4100   27.6710   33.3170 H   0  0  0  0  0  0  0  0  0  0  0  0
   36.4570   26.6480   34.5120 H   0  0  0  0  0  0  0  0  0  0  0  0
   37.1570   24.9960   32.7040 C   0  0  0  0  0  0  0  0  0  0  0  0
   37.1290   23.5920   32.7480 C   0  0  0  0  0  0  0  0  0  0  0  0
   36.2450   22.9450   31.8920 C   0  0  0  0  0  0  0  0  0  0  0  0
   35.4520   23.6850   31.0570 N   0  0  0  0  0  0  0  0  0  0  0  0
   35.5050   25.0540   31.0400 C   0  0  0  0  0  0  0  0  0  0  0  0
   36.3590   25.6860   31.8650 N   0  0  0  0  0  0  0  0  0  0  0  0
   37.7150   22.9580   33.3660 H   0  0  0  0  0  0  0  0  0  0  0  0
   34.8570   25.5920   30.3600 H   0  0  0  0  0  0  0  0  0  0  0  0
   36.1580   21.5260   31.8790 N   0  0  0  0  0  0  0  0  0  0  0  0
   35.4940   20.8300   32.9400 C   0  0  0  0  0  2  0  0  0  0  0  0
   35.1950   19.3990   32.5400 C   0  0  0  0  0  2  0  0  0  0  0  0
   36.4340   18.6580   32.0970 C   0  0  0  0  0  3  0  0  0  0  0  0
   36.0990   17.7660   31.5070 H   0  0  0  0  0  0  0  0  0  0  0  0
   37.3690   19.4870   31.2640 C   0  0  0  0  0  2  0  0  0  0  0  0
   36.7490   20.7830   30.7840 C   0  0  0  0  0  2  0  0  0  0  0  0
  1  6  1  0  0  0  0
  1  2  1  0  0  0  0
  2  9  1  0  0  0  0
  2  3  1  0  0  0  0
  3 11  1  0  0  0  0
  3  4  1  0  0  0  0
  3 10  1  0  0  0  0
  4 13  1  0  0  0  0
  4 12  1  0  0  0  0
  5 15  1  0  0  0  0
  5  4  1  0  0  0  0
  6 17  1  0  0  0  0
  6  5  1  0  0  0  0
  7  1  1  0  0  0  0
  8  2  1  0  0  0  0
 14  5  1  0  0  0  0
 16  6  1  0  0  0  0
 18 19  1  0  0  0  0
 18  1  1  0  0  0  0
 19 24  1  0  0  0  0
 20 19  2  0  0  0  0
 21 20  1  0  0  0  0
 22 21  2  0  0  0  0
 22 23  1  0  0  0  0
 23 18  2  0  0  0  0
 25 22  1  0  0  0  0
 26 20  1  0  0  0  0
 26 27  1  0  0  0  0
 28 27  1  0  0  0  0
 29 28  1  0  0  0  0
 30 29  1  0  0  0  0
 31 29  1  0  0  0  0
 32 31  1  0  0  0  0
 32 26  1  0  0  0  0
M  END
>  <minimizedAffinity>
-5.27025414

$$$$

 OpenBabel03272506193D

 32 34  0  0  0  0  0  0  0  0999 V2000
   35.7970   22.1370   31.2060 C   0  0  0  0  0  0  0  0  0  0  0  0
   34.8370   21.5430   32.2160 C   0  0  0  0  0  0  0  0  0  0  0  0
   35.5350   20.7080   33.2510 C   0  0  0  0  0  0  0  0  0  0  0  0
   36.3760   19.6200   32.6450 C   0  0  0  0  0  0  0  0  0  0  0  0
   37.1840   20.0790   31.4690 C   0  0  0  0  0  0  0  0  0  0  0  0
   37.1780   21.5870   31.3140 C   0  0  0  0  0  0  0  0  0  0  0  0
   35.4100   21.9640   30.1780 H   0  0  0  0  0  0  0  0  0  0  0  0
   34.2180   22.2970   32.7180 H   0  0  0  0  0  0  0  0  0  0  0  0
   34.1500   20.8570   31.6750 H   0  0  0  0  0  0  0  0  0  0  0  0
   34.7510   20.2340   33.8650 H   0  0  0  0  0  0  0  0  0  0  0  0
   36.1820   21.3630   33.9030 H   0  0  0  0  0  0  0  0  0  0  0  0
   37.1280   19.3010   33.4200 H   0  0  0  0  0  0  0  0  0  0  0  0
   35.7460   18.7380   32.4300 H   0  0  0  0  0  0  0  0  0  0  0  0
   36.7340   19.6650   30.5270 H   0  0  0  0  0  0  0  0  0  0  0  0
   38.2390   19.7550   31.4690 H   0  0  0  0  0  0  0  0  0  0  0  0
   37.7730   21.8540   30.4440 H   0  0  0  0  0  0  0  0  0  0  0  0
   37.6230   21.9780   32.2730 H   0  0  0  0  0  0  0  0  0  0  0  0
   35.8770   23.6130   31.3960 C   0  0  0  0  0  0  0  0  0  0  0  0
   36.8940   24.0880   32.2420 C   0  0  0  0  0  0  0  0  0  0  0  0
   36.9710   25.4620   32.4360 C   0  0  0  0  0  0  0  0  0  0  0  0
   36.0730   26.2830   31.8080 N   0  0  0  0  0  0  0  0  0  0  0  0
   35.0940   25.7860   30.9890 C   0  0  0  0  0  0  0  0  0  0  0  0
   35.0130   24.4570   30.7980 N   0  0  0  0  0  0  0  0  0  0  0  0
   37.6190   23.5100   32.7610 H   0  0  0  0  0  0  0  0  0  0  0  0
   34.4090   26.4790   30.5170 H   0  0  0  0  0  0  0  0  0  0  0  0
   37.9730   26.0190   33.2770 N   0  0  0  0  0  0  0  0  0  0  0  0
   39.3320   26.1000   32.8320 C   0  0  0  0  0  2  0  0  0  0  0  0
   40.1290   27.0460   33.7060 C   0  0  0  0  0  2  0  0  0  0  0  0
   40.0580   26.6720   35.1670 C   0  0  0  0  0  3  0  0  0  0  0  0
   40.3590   27.5730   35.7600 H   0  0  0  0  0  0  0  0  0  0  0  0
   38.6980   26.2130   35.6090 C   0  0  0  0  0  2  0  0  0  0  0  0
   37.6120   26.5060   34.5940 C   0  0  0  0  0  2  0  0  0  0  0  0
  1  6  1  0  0  0  0
  1 18  1  0  0  0  0
  1  2  1  0  0  0  0
  2  8  1  0  0  0  0
  2  3  1  0  0  0  0
  3 10  1  0  0  0  0
  3 11  1  0  0  0  0
  4  3  1  0  0  0  0
  4 12  1  0  0  0  0
  5 15  1  0  0  0  0
  5  4  1  0  0  0  0
  6  5  1  0  0  0  0
  6 17  1  0  0  0  0
  7  1  1  0  0  0  0
  9  2  1  0  0  0  0
 13  4  1  0  0  0  0
 14  5  1  0  0  0  0
 16  6  1  0  0  0  0
 18 19  1  0  0  0  0
 19 20  2  0  0  0  0
 19 24  1  0  0  0  0
 20 26  1  0  0  0  0
 21 20  1  0  0  0  0
 22 21  2  0  0  0  0
 23 22  1  0  0  0  0
 23 18  2  0  0  0  0
 25 22  1  0  0  0  0
 26 32  1  0  0  0  0
 27 26  1  0  0  0  0
 27 28  1  0  0  0  0
 28 29  1  0  0  0  0
 29 31  1  0  0  0  0
 29 30  1  0  0  0  0
 32 31  1  0  0  0  0
M  END
>  <minimizedAffinity>
-5.2355051

$$$$

 OpenBabel03272506193D

 32 34  0  0  0  0  0  0  0  0999 V2000
   38.9510   24.0620   35.7050 C   0  0  0  0  0  0  0  0  0  0  0  0
   40.4010   23.6830   35.4830 C   0  0  0  0  0  0  0  0  0  0  0  0
   40.7890   22.4360   36.2240 C   0  0  0  0  0  0  0  0  0  0  0  0
   40.5040   22.5260   37.6970 C   0  0  0  0  0  0  0  0  0  0  0  0
   39.1650   23.1250   38.0080 C   0  0  0  0  0  0  0  0  0  0  0  0
   38.2920   23.2630   36.7770 C   0  0  0  0  0  0  0  0  0  0  0  0
   38.8830   25.1440   35.9550 H   0  0  0  0  0  0  0  0  0  0  0  0
   40.6600   23.5690   34.4230 H   0  0  0  0  0  0  0  0  0  0  0  0
   41.0350   24.4980   35.8940 H   0  0  0  0  0  0  0  0  0  0  0  0
   41.8770   22.3070   36.0930 H   0  0  0  0  0  0  0  0  0  0  0  0
   40.2470   21.5450   35.7910 H   0  0  0  0  0  0  0  0  0  0  0  0
   40.4630   21.4750   38.0990 H   0  0  0  0  0  0  0  0  0  0  0  0
   41.3430   23.0310   38.2090 H   0  0  0  0  0  0  0  0  0  0  0  0
   39.3100   24.1640   38.4090 H   0  0  0  0  0  0  0  0  0  0  0  0
   38.5750   22.5850   38.7680 H   0  0  0  0  0  0  0  0  0  0  0  0
   37.3420   23.7080   37.0660 H   0  0  0  0  0  0  0  0  0  0  0  0
   38.1710   22.2120   36.3880 H   0  0  0  0  0  0  0  0  0  0  0  0
   38.1800   23.8590   34.4450 C   0  0  0  0  0  0  0  0  0  0  0  0
   37.8220   22.5380   34.1280 C   0  0  0  0  0  0  0  0  0  0  0  0
   37.1120   22.3370   32.9500 C   0  0  0  0  0  0  0  0  0  0  0  0
   36.7970   23.4090   32.1600 N   0  0  0  0  0  0  0  0  0  0  0  0
   37.1630   24.6850   32.5000 C   0  0  0  0  0  0  0  0  0  0  0  0
   37.8500   24.8870   33.6390 N   0  0  0  0  0  0  0  0  0  0  0  0
   38.0350   21.6630   34.6910 H   0  0  0  0  0  0  0  0  0  0  0  0
   36.8890   25.4980   31.8400 H   0  0  0  0  0  0  0  0  0  0  0  0
   36.7120   21.0280   32.5610 N   0  0  0  0  0  0  0  0  0  0  0  0
   35.6200   20.3780   33.2200 C   0  0  0  0  0  2  0  0  0  0  0  0
   35.1380   19.1880   32.4140 C   0  0  0  0  0  2  0  0  0  0  0  0
   36.2490   18.2120   32.1140 C   0  0  0  0  0  3  0  0  0  0  0  0
   35.9140   17.5730   31.2570 H   0  0  0  0  0  0  0  0  0  0  0  0
   37.5540   18.8690   31.7680 C   0  0  0  0  0  2  0  0  0  0  0  0
   37.4190   20.3520   31.4910 C   0  0  0  0  0  2  0  0  0  0  0  0
  1  7  1  0  0  0  0
  1  6  1  0  0  0  0
  2  1  1  0  0  0  0
  2  9  1  0  0  0  0
  2  3  1  0  0  0  0
  3  4  1  0  0  0  0
  4  5  1  0  0  0  0
  4 12  1  0  0  0  0
  4 13  1  0  0  0  0
  5 14  1  0  0  0  0
  5 15  1  0  0  0  0
  6 16  1  0  0  0  0
  6  5  1  0  0  0  0
  8  2  1  0  0  0  0
 10  3  1  0  0  0  0
 11  3  1  0  0  0  0
 17  6  1  0  0  0  0
 18  1  1  0  0  0  0
 19 18  1  0  0  0  0
 19 24  1  0  0  0  0
 20 19  2  0  0  0  0
 21 22  2  0  0  0  0
 21 20  1  0  0  0  0
 22 23  1  0  0  0  0
 23 18  2  0  0  0  0
 25 22  1  0  0  0  0
 26 20  1  0  0  0  0
 26 27  1  0  0  0  0
 28 27  1  0  0  0  0
 29 28  1  0  0  0  0
 30 29  1  0  0  0  0
 31 29  1  0  0  0  0
 32 31  1  0  0  0  0
 32 26  1  0  0  0  0
M  END
>  <minimizedAffinity>
-5.17381144

$$$$

 OpenBabel03272506193D

 32 34  0  0  0  0  0  0  0  0999 V2000
   38.7430   24.7630   35.8660 C   0  0  0  0  0  0  0  0  0  0  0  0
   39.9700   23.8790   35.9540 C   0  0  0  0  0  0  0  0  0  0  0  0
   39.7480   22.6710   36.8170 C   0  0  0  0  0  0  0  0  0  0  0  0
   39.2750   23.0270   38.1990 C   0  0  0  0  0  0  0  0  0  0  0  0
   38.2150   24.0870   38.2100 C   0  0  0  0  0  0  0  0  0  0  0  0
   37.6700   24.3750   36.8250 C   0  0  0  0  0  0  0  0  0  0  0  0
   39.0330   25.8220   36.0440 H   0  0  0  0  0  0  0  0  0  0  0  0
   40.3420   23.5580   34.9730 H   0  0  0  0  0  0  0  0  0  0  0  0
   40.7800   24.4630   36.4400 H   0  0  0  0  0  0  0  0  0  0  0  0
   40.7190   22.1570   36.9090 H   0  0  0  0  0  0  0  0  0  0  0  0
   38.9990   21.9810   36.3310 H   0  0  0  0  0  0  0  0  0  0  0  0
   38.7880   22.1110   38.6370 H   0  0  0  0  0  0  0  0  0  0  0  0
   40.1430   23.2640   38.8410 H   0  0  0  0  0  0  0  0  0  0  0  0
   38.6600   25.0500   38.5790 H   0  0  0  0  0  0  0  0  0  0  0  0
   37.3520   23.8810   38.8650 H   0  0  0  0  0  0  0  0  0  0  0  0
   36.9140   25.1550   36.9000 H   0  0  0  0  0  0  0  0  0  0  0  0
   37.2400   23.3950   36.4730 H   0  0  0  0  0  0  0  0  0  0  0  0
   38.1720   24.6960   34.4900 C   0  0  0  0  0  0  0  0  0  0  0  0
   37.9170   25.9210   33.8500 C   0  0  0  0  0  0  0  0  0  0  0  0
   37.3750   25.8690   32.5720 C   0  0  0  0  0  0  0  0  0  0  0  0
   37.1160   24.6550   31.9970 N   0  0  0  0  0  0  0  0  0  0  0  0
   37.3770   23.4790   32.6500 C   0  0  0  0  0  0  0  0  0  0  0  0
   37.9010   23.5210   33.8880 N   0  0  0  0  0  0  0  0  0  0  0  0
   38.0910   26.8940   34.2370 H   0  0  0  0  0  0  0  0  0  0  0  0
   37.1520   22.5450   32.1510 H   0  0  0  0  0  0  0  0  0  0  0  0
   37.0900   27.0660   31.8590 N   0  0  0  0  0  0  0  0  0  0  0  0
   38.1490   27.8340   31.2780 C   0  0  0  0  0  2  0  0  0  0  0  0
   37.6040   28.8280   30.2720 C   0  0  0  0  0  2  0  0  0  0  0  0
   36.5480   29.7260   30.8690 C   0  0  0  0  0  3  0  0  0  0  0  0
   35.9650   30.1710   30.0220 H   0  0  0  0  0  0  0  0  0  0  0  0
   35.6100   29.0170   31.8040 C   0  0  0  0  0  2  0  0  0  0  0  0
   35.7160   27.5090   31.7230 C   0  0  0  0  0  2  0  0  0  0  0  0
  1  2  1  0  0  0  0
  1  7  1  0  0  0  0
  1  6  1  0  0  0  0
  2  9  1  0  0  0  0
  2  3  1  0  0  0  0
  3 10  1  0  0  0  0
  3  4  1  0  0  0  0
  4  5  1  0  0  0  0
  4 12  1  0  0  0  0
  4 13  1  0  0  0  0
  5 14  1  0  0  0  0
  5 15  1  0  0  0  0
  6 16  1  0  0  0  0
  6  5  1  0  0  0  0
  8  2  1  0  0  0  0
 11  3  1  0  0  0  0
 17  6  1  0  0  0  0
 18  1  1  0  0  0  0
 19 24  1  0  0  0  0
 19 18  2  0  0  0  0
 20 19  1  0  0  0  0
 21 20  2  0  0  0  0
 21 22  1  0  0  0  0
 22 23  2  0  0  0  0
 23 18  1  0  0  0  0
 25 22  1  0  0  0  0
 26 20  1  0  0  0  0
 27 26  1  0  0  0  0
 28 29  1  0  0  0  0
 28 27  1  0  0  0  0
 29 31  1  0  0  0  0
 30 29  1  0  0  0  0
 32 31  1  0  0  0  0
 32 26  1  0  0  0  0
M  END
>  <minimizedAffinity>
-5.16540051

$$$$

 OpenBabel03272506193D

 32 34  0  0  0  0  0  0  0  0999 V2000
   36.3720   21.7000   32.4090 C   0  0  0  0  0  0  0  0  0  0  0  0
   37.4750   20.9920   31.6490 C   0  0  0  0  0  0  0  0  0  0  0  0
   36.9450   20.1220   30.5450 C   0  0  0  0  0  0  0  0  0  0  0  0
   35.9350   19.1210   31.0310 C   0  0  0  0  0  0  0  0  0  0  0  0
   34.9400   19.6990   31.9920 C   0  0  0  0  0  0  0  0  0  0  0  0
   35.0090   21.2110   32.0570 C   0  0  0  0  0  0  0  0  0  0  0  0
   36.5370   21.5800   33.5020 H   0  0  0  0  0  0  0  0  0  0  0  0
   38.2260   21.6780   31.2390 H   0  0  0  0  0  0  0  0  0  0  0  0
   37.9970   20.3120   32.3560 H   0  0  0  0  0  0  0  0  0  0  0  0
   37.8040   19.5690   30.1300 H   0  0  0  0  0  0  0  0  0  0  0  0
   36.4810   20.7610   29.7390 H   0  0  0  0  0  0  0  0  0  0  0  0
   35.3330   18.7870   30.1400 H   0  0  0  0  0  0  0  0  0  0  0  0
   36.4550   18.2260   31.4190 H   0  0  0  0  0  0  0  0  0  0  0  0
   35.1690   19.3290   33.0270 H   0  0  0  0  0  0  0  0  0  0  0  0
   33.8890   19.4270   31.7980 H   0  0  0  0  0  0  0  0  0  0  0  0
   34.2700   21.5670   32.7730 H   0  0  0  0  0  0  0  0  0  0  0  0
   34.7870   21.5570   31.0080 H   0  0  0  0  0  0  0  0  0  0  0  0
   36.4220   23.1620   32.1210 C   0  0  0  0  0  0  0  0  0  0  0  0
   37.5370   23.8650   32.6080 C   0  0  0  0  0  0  0  0  0  0  0  0
   37.5890   25.2300   32.3550 C   0  0  0  0  0  0  0  0  0  0  0  0
   36.5740   25.8260   31.6560 N   0  0  0  0  0  0  0  0  0  0  0  0
   35.5000   25.1090   31.1950 C   0  0  0  0  0  0  0  0  0  0  0  0
   35.4440   23.7880   31.4380 N   0  0  0  0  0  0  0  0  0  0  0  0
   38.3550   23.4690   33.1580 H   0  0  0  0  0  0  0  0  0  0  0  0
   34.7240   25.6290   30.6480 H   0  0  0  0  0  0  0  0  0  0  0  0
   38.6860   26.0100   32.8150 N   0  0  0  0  0  0  0  0  0  0  0  0
   39.9550   25.9350   32.1570 C   0  0  0  0  0  2  0  0  0  0  0  0
   40.8400   27.0970   32.5610 C   0  0  0  0  0  2  0  0  0  0  0  0
   41.0090   27.1950   34.0580 C   0  0  0  0  0  3  0  0  0  0  0  0
   41.3620   28.2320   34.2900 H   0  0  0  0  0  0  0  0  0  0  0  0
   39.7520   26.9090   34.8280 C   0  0  0  0  0  2  0  0  0  0  0  0
   38.5130   26.8850   33.9580 C   0  0  0  0  0  2  0  0  0  0  0  0
  1  7  1  0  0  0  0
  2  9  1  0  0  0  0
  2  1  1  0  0  0  0
  3  4  1  0  0  0  0
  3  2  1  0  0  0  0
  4 13  1  0  0  0  0
  4  5  1  0  0  0  0
  5  6  1  0  0  0  0
  5 14  1  0  0  0  0
  6  1  1  0  0  0  0
  6 16  1  0  0  0  0
  8  2  1  0  0  0  0
 10  3  1  0  0  0  0
 11  3  1  0  0  0  0
 12  4  1  0  0  0  0
 15  5  1  0  0  0  0
 17  6  1  0  0  0  0
 18  1  1  0  0  0  0
 18 19  1  0  0  0  0
 19 24  1  0  0  0  0
 20 19  2  0  0  0  0
 20 26  1  0  0  0  0
 21 20  1  0  0  0  0
 22 23  1  0  0  0  0
 22 21  2  0  0  0  0
 23 18  2  0  0  0  0
 25 22  1  0  0  0  0
 26 32  1  0  0  0  0
 27 28  1  0  0  0  0
 27 26  1  0  0  0  0
 28 29  1  0  0  0  0
 29 30  1  0  0  0  0
 29 31  1  0  0  0  0
 32 31  1  0  0  0  0
M  END
>  <minimizedAffinity>
-5.08335543

$$$$

 OpenBabel03272506193D

 32 34  0  0  0  0  0  0  0  0999 V2000
   36.0500   22.0990   31.3790 C   0  0  0  0  0  0  0  0  0  0  0  0
   35.0360   21.4550   32.3040 C   0  0  0  0  0  0  0  0  0  0  0  0
   35.4450   20.0760   32.7340 C   0  0  0  0  0  0  0  0  0  0  0  0
   35.7240   19.1660   31.5700 C   0  0  0  0  0  0  0  0  0  0  0  0
   36.5290   19.8180   30.4870 C   0  0  0  0  0  0  0  0  0  0  0  0
   37.1040   21.1530   30.9150 C   0  0  0  0  0  0  0  0  0  0  0  0
   35.5270   22.5320   30.4980 H   0  0  0  0  0  0  0  0  0  0  0  0
   34.8170   22.0610   33.1920 H   0  0  0  0  0  0  0  0  0  0  0  0
   34.0860   21.3360   31.7410 H   0  0  0  0  0  0  0  0  0  0  0  0
   34.6010   19.6530   33.3050 H   0  0  0  0  0  0  0  0  0  0  0  0
   36.3590   20.1320   33.3940 H   0  0  0  0  0  0  0  0  0  0  0  0
   36.3610   18.3180   31.9490 H   0  0  0  0  0  0  0  0  0  0  0  0
   34.7790   18.7200   31.2110 H   0  0  0  0  0  0  0  0  0  0  0  0
   35.8630   20.0300   29.6080 H   0  0  0  0  0  0  0  0  0  0  0  0
   37.3650   19.2130   30.0950 H   0  0  0  0  0  0  0  0  0  0  0  0
   37.6690   21.5760   30.0860 H   0  0  0  0  0  0  0  0  0  0  0  0
   37.7590   20.9160   31.8010 H   0  0  0  0  0  0  0  0  0  0  0  0
   36.7240   23.2280   32.0810 C   0  0  0  0  0  0  0  0  0  0  0  0
   36.5230   24.5130   31.5500 C   0  0  0  0  0  0  0  0  0  0  0  0
   37.1560   25.5720   32.1900 C   0  0  0  0  0  0  0  0  0  0  0  0
   37.9350   25.3280   33.2890 N   0  0  0  0  0  0  0  0  0  0  0  0
   38.1100   24.0600   33.7800 C   0  0  0  0  0  0  0  0  0  0  0  0
   37.5000   23.0310   33.1640 N   0  0  0  0  0  0  0  0  0  0  0  0
   35.9370   24.7730   30.7030 H   0  0  0  0  0  0  0  0  0  0  0  0
   38.7370   23.9220   34.6510 H   0  0  0  0  0  0  0  0  0  0  0  0
   37.0000   26.9030   31.7130 N   0  0  0  0  0  0  0  0  0  0  0  0
   35.7800   27.6170   31.9410 C   0  0  0  0  0  2  0  0  0  0  0  0
   35.9710   29.1000   31.6920 C   0  0  0  0  0  2  0  0  0  0  0  0
   36.5150   29.3830   30.3130 C   0  0  0  0  0  3  0  0  0  0  0  0
   36.9450   30.4170   30.3270 H   0  0  0  0  0  0  0  0  0  0  0  0
   37.5680   28.4090   29.8670 C   0  0  0  0  0  2  0  0  0  0  0  0
   38.0860   27.5360   30.9910 C   0  0  0  0  0  2  0  0  0  0  0  0
  1 18  1  0  0  0  0
  1  2  1  0  0  0  0
  2  3  1  0  0  0  0
  2  8  1  0  0  0  0
  3 10  1  0  0  0  0
  3 11  1  0  0  0  0
  4 12  1  0  0  0  0
  4  3  1  0  0  0  0
  5  6  1  0  0  0  0
  5  4  1  0  0  0  0
  6  1  1  0  0  0  0
  6 17  1  0  0  0  0
  7  1  1  0  0  0  0
  9  2  1  0  0  0  0
 13  4  1  0  0  0  0
 14  5  1  0  0  0  0
 15  5  1  0  0  0  0
 16  6  1  0  0  0  0
 18 23  1  0  0  0  0
 19 18  2  0  0  0  0
 19 20  1  0  0  0  0
 20 21  2  0  0  0  0
 21 22  1  0  0  0  0
 22 25  1  0  0  0  0
 23 22  2  0  0  0  0
 24 19  1  0  0  0  0
 26 27  1  0  0  0  0
 26 20  1  0  0  0  0
 28 27  1  0  0  0  0
 29 30  1  0  0  0  0
 29 28  1  0  0  0  0
 31 29  1  0  0  0  0
 31 32  1  0  0  0  0
 32 26  1  0  0  0  0
M  END
>  <minimizedAffinity>
-5.01555729

$$$$
