
 OpenBabel03272510183D

 34 37  0  0  0  0  0  0  0  0999 V2000
   37.4250   29.1780   50.8540 Br  0  0  0  0  0  0  0  0  0  0  0  0
   36.0320   29.3070   49.5500 C   0  0  0  0  0  0  0  0  0  0  0  0
   36.0270   30.3240   48.6090 C   0  0  0  0  0  0  0  0  0  0  0  0
   34.9980   30.3490   47.7100 C   0  0  0  0  0  0  0  0  0  0  0  0
   33.9800   29.4290   47.6910 C   0  0  0  0  0  0  0  0  0  0  0  0
   34.0100   28.4320   48.6330 C   0  0  0  0  0  0  0  0  0  0  0  0
   35.0290   28.3760   49.5520 C   0  0  0  0  0  0  0  0  0  0  0  0
   34.9710   31.1360   46.9630 H   0  0  0  0  0  0  0  0  0  0  0  0
   33.2280   27.6820   48.6580 H   0  0  0  0  0  0  0  0  0  0  0  0
   35.0050   27.5670   50.2770 H   0  0  0  0  0  0  0  0  0  0  0  0
   32.8870   29.4560   46.7360 C   0  0  0  0  0  0  0  0  0  0  0  0
   31.9070   28.4820   46.6290 C   0  0  0  0  0  0  0  0  0  0  0  0
   30.8800   28.5540   45.6970 C   0  0  0  0  0  0  0  0  0  0  0  0
   30.8180   29.5960   44.8620 N   0  0  0  0  0  0  0  0  0  0  0  0
   31.7680   30.5550   44.9550 C   0  0  0  0  0  0  0  0  0  0  0  0
   32.7450   30.4680   45.8560 N   0  0  0  0  0  0  0  0  0  0  0  0
   31.9600   27.6370   47.3080 H   0  0  0  0  0  0  0  0  0  0  0  0
   30.1540   27.7600   45.6710 H   0  0  0  0  0  0  0  0  0  0  0  0
   31.6650   31.6480   44.0470 N   0  0  0  0  0  0  0  0  0  0  0  0
   30.5090   32.4930   44.0320 C   0  0  0  0  0  2  0  0  0  0  0  0
   30.7670   33.9050   43.6170 C   0  0  0  0  0  2  0  0  0  0  0  0
   31.9540   34.1020   42.7500 C   0  0  0  0  0  3  0  0  0  0  0  0
   31.7170   34.8610   41.9760 H   0  0  0  0  0  0  0  0  0  0  0  0
   32.3910   32.8480   42.0380 C   0  0  0  0  0  2  0  0  0  0  0  0
   32.7790   31.8780   43.1310 C   0  0  0  0  0  2  0  0  0  0  0  0
   37.9910   33.2400   49.5870 C   0  0  0  0  0  0  0  0  0  0  0  0
   39.0590   33.2490   48.6260 C   0  0  0  0  0  0  0  0  0  0  0  0
   39.0720   32.2560   47.6740 C   0  0  0  0  0  0  0  0  0  0  0  0
   38.0800   31.3160   47.6860 N   0  0  0  0  0  0  0  0  0  0  0  0
   37.0880   31.3240   48.5930 C   0  0  0  0  0  0  0  0  0  0  0  0
   37.0470   32.2970   49.5510 N   0  0  0  0  0  0  0  0  0  0  0  0
   38.0030   34.0380   50.3310 H   0  0  0  0  0  0  0  0  0  0  0  0
   39.8250   34.0120   48.6530 H   0  0  0  0  0  0  0  0  0  0  0  0
   39.8370   32.1890   46.9170 H   0  0  0  0  0  0  0  0  0  0  0  0
  2  7  1  0  0  0  0
  2  1  1  0  0  0  0
  3  2  2  0  0  0  0
  4  3  1  0  0  0  0
  5  4  2  0  0  0  0
  5  6  1  0  0  0  0
  6  9  1  0  0  0  0
  6  7  2  0  0  0  0
  7 10  1  0  0  0  0
  8  4  1  0  0  0  0
 11  5  1  0  0  0  0
 12 11  1  0  0  0  0
 12 17  1  0  0  0  0
 13 12  2  0  0  0  0
 14 15  2  0  0  0  0
 14 13  1  0  0  0  0
 15 16  1  0  0  0  0
 16 11  2  0  0  0  0
 18 13  1  0  0  0  0
 19 15  1  0  0  0  0
 20 19  1  0  0  0  0
 21 20  1  0  0  0  0
 22 21  1  0  0  0  0
 23 22  1  0  0  0  0
 24 22  1  0  0  0  0
 24 25  1  0  0  0  0
 25 19  1  0  0  0  0
 26 32  1  0  0  0  0
 27 33  1  0  0  0  0
 27 26  2  0  0  0  0
 28 29  2  0  0  0  0
 28 27  1  0  0  0  0
 29 30  1  0  0  0  0
 30  3  1  0  0  0  0
 30 31  2  0  0  0  0
 31 26  1  0  0  0  0
 34 28  1  0  0  0  0
M  END
>  <minimizedAffinity>
-6.63754177

>  <minimizedRMSD>
0.727062404

$$$$
