
 OpenBabel03272510323D

 26 28  0  0  0  0  0  0  0  0999 V2000
   35.9690   30.0280   48.1130 C   0  0  0  0  0  0  0  0  0  0  0  0
   35.0690   30.0360   47.0780 C   0  0  0  0  0  0  0  0  0  0  0  0
   34.0100   29.1540   47.0340 C   0  0  0  0  0  0  0  0  0  0  0  0
   33.8780   28.2480   48.0790 C   0  0  0  0  0  0  0  0  0  0  0  0
   34.7800   28.2190   49.1450 C   0  0  0  0  0  0  0  0  0  0  0  0
   35.8330   29.1230   49.1520 C   0  0  0  0  0  0  0  0  0  0  0  0
   35.1590   30.7410   46.2500 H   0  0  0  0  0  0  0  0  0  0  0  0
   33.2950   29.1550   46.2190 H   0  0  0  0  0  0  0  0  0  0  0  0
   33.0360   27.5740   48.0100 H   0  0  0  0  0  0  0  0  0  0  0  0
   34.6260   27.4920   49.9320 H   0  0  0  0  0  0  0  0  0  0  0  0
   38.0310   32.8880   49.0320 C   0  0  0  0  0  0  0  0  0  0  0  0
   39.0550   32.8990   48.0880 C   0  0  0  0  0  0  0  0  0  0  0  0
   39.0310   31.8770   47.0970 C   0  0  0  0  0  0  0  0  0  0  0  0
   38.0260   30.9640   47.1260 N   0  0  0  0  0  0  0  0  0  0  0  0
   37.0490   30.9950   48.0670 C   0  0  0  0  0  0  0  0  0  0  0  0
   37.0710   31.9640   49.0090 N   0  0  0  0  0  0  0  0  0  0  0  0
   37.9860   33.6330   49.8140 H   0  0  0  0  0  0  0  0  0  0  0  0
   39.8280   33.6290   48.0930 H   0  0  0  0  0  0  0  0  0  0  0  0
   39.8090   31.8320   46.3260 H   0  0  0  0  0  0  0  0  0  0  0  0
   36.7700   29.1120   50.2320 N   0  0  0  0  0  0  0  0  0  0  0  0
   38.1640   28.6430   50.2700 C   0  0  0  0  0  2  0  0  0  0  0  0
   38.4020   27.9230   51.5820 C   0  0  0  0  0  2  0  0  0  0  0  0
   38.0470   28.7600   52.7700 C   0  0  0  0  0  3  0  0  0  0  0  0
   37.3580   28.1910   53.4280 H   0  0  0  0  0  0  0  0  0  0  0  0
   37.3040   30.0290   52.3690 C   0  0  0  0  0  2  0  0  0  0  0  0
   36.1870   29.6600   51.4410 C   0  0  0  0  0  2  0  0  0  0  0  0
  1  6  1  0  0  0  0
  2  1  2  0  0  0  0
  3  2  1  0  0  0  0
  3  4  2  0  0  0  0
  4  5  1  0  0  0  0
  5  6  2  0  0  0  0
  5 10  1  0  0  0  0
  6 20  1  0  0  0  0
  7  2  1  0  0  0  0
  8  3  1  0  0  0  0
  9  4  1  0  0  0  0
 11 17  1  0  0  0  0
 12 18  1  0  0  0  0
 12 11  2  0  0  0  0
 13 14  2  0  0  0  0
 13 12  1  0  0  0  0
 14 15  1  0  0  0  0
 15  1  1  0  0  0  0
 15 16  2  0  0  0  0
 16 11  1  0  0  0  0
 19 13  1  0  0  0  0
 20 21  1  0  0  0  0
 20 26  1  0  0  0  0
 21 22  1  0  0  0  0
 22 23  1  0  0  0  0
 23 24  1  0  0  0  0
 25 23  1  0  0  0  0
 26 25  1  0  0  0  0
M  END
>  <minimizedAffinity>
-3.18858957

>  <minimizedRMSD>
0.704726636

$$$$
