
 OpenBabel03272507033D

 29 32  0  0  0  0  0  0  0  0999 V2000
   38.2000   32.5450   49.5640 C   0  0  0  0  0  0  0  0  0  0  0  0
   38.8120   32.8610   48.3310 C   0  0  0  0  0  0  0  0  0  0  0  0
   38.3200   32.2010   47.1910 C   0  0  0  0  0  0  0  0  0  0  0  0
   37.3000   31.3130   47.3430 N   0  0  0  0  0  0  0  0  0  0  0  0
   36.7470   31.0420   48.5350 C   0  0  0  0  0  0  0  0  0  0  0  0
   37.1930   31.6530   49.6380 N   0  0  0  0  0  0  0  0  0  0  0  0
   38.5840   33.0560   50.4330 H   0  0  0  0  0  0  0  0  0  0  0  0
   39.6080   33.5510   48.1940 H   0  0  0  0  0  0  0  0  0  0  0  0
   38.8200   32.4020   45.8740 N   0  0  0  0  0  0  0  0  0  0  0  0
   40.2180   32.7660   45.6240 C   0  0  0  0  0  0  0  0  0  0  0  0
   40.6050   32.0120   44.3490 C   0  0  0  0  0  0  0  0  0  0  0  0
   39.8310   32.6630   43.2270 C   0  0  0  0  0  0  0  0  0  0  0  0
   40.2760   33.6810   43.1000 H   0  0  0  0  0  0  0  0  0  0  0  0
   38.3610   32.7120   43.4620 C   0  0  0  0  0  0  0  0  0  0  0  0
   37.8920   32.2290   44.7890 C   0  0  0  0  0  0  0  0  0  0  0  0
   35.6950   29.0750   49.5600 C   0  0  0  0  0  0  0  0  0  0  0  0
   35.6560   30.0750   48.6030 C   0  0  0  0  0  0  0  0  0  0  0  0
   34.6020   30.1650   47.7170 C   0  0  0  0  0  0  0  0  0  0  0  0
   33.5580   29.2590   47.7640 C   0  0  0  0  0  0  0  0  0  0  0  0
   32.4290   29.1200   47.0340 N   0  0  0  0  0  0  0  0  0  0  0  0
   31.8160   28.0380   47.5720 C   0  0  0  0  0  0  0  0  0  0  0  0
   32.5420   27.5310   48.5940 N   0  0  0  0  0  0  0  0  0  0  0  0
   33.6360   28.2850   48.7270 C   0  0  0  0  0  0  0  0  0  0  0  0
   34.6560   28.1560   49.6220 C   0  0  0  0  0  0  0  0  0  0  0  0
   36.5000   28.9700   50.2690 H   0  0  0  0  0  0  0  0  0  0  0  0
   34.6310   30.9730   46.9920 H   0  0  0  0  0  0  0  0  0  0  0  0
   32.2080   29.7650   46.2680 H   0  0  0  0  0  0  0  0  0  0  0  0
   30.8700   27.7000   47.1670 H   0  0  0  0  0  0  0  0  0  0  0  0
   34.6620   27.3590   50.3670 H   0  0  0  0  0  0  0  0  0  0  0  0
  1  6  1  0  0  0  0
  1  7  1  0  0  0  0
  2  1  2  0  0  0  0
  3  4  2  0  0  0  0
  3  2  1  0  0  0  0
  4  5  1  0  0  0  0
  5 17  1  0  0  0  0
  5  6  2  0  0  0  0
  8  2  1  0  0  0  0
  9  3  1  0  0  0  0
 10  9  1  0  0  0  0
 11 10  1  0  0  0  0
 12 14  1  0  0  0  0
 12 11  1  0  0  0  0
 13 12  1  0  0  0  0
 14 15  1  0  0  0  0
 15  9  1  0  0  0  0
 16 24  1  0  0  0  0
 16 25  1  0  0  0  0
 17 16  2  0  0  0  0
 18 19  2  0  0  0  0
 18 17  1  0  0  0  0
 19 23  1  0  0  0  0
 20 21  1  0  0  0  0
 20 19  1  0  0  0  0
 21 22  2  0  0  0  0
 22 23  1  0  0  0  0
 23 24  2  0  0  0  0
 24 29  1  0  0  0  0
 26 18  1  0  0  0  0
 27 20  1  0  0  0  0
 28 21  1  0  0  0  0
M  END
>  <minimizedAffinity>
-7.25437641

>  <minimizedRMSD>
2.05518508

$$$$
