
 OpenBabel03272510323D

 26 28  0  0  0  0  0  0  0  0999 V2000
   35.9380   30.1670   47.7580 C   0  0  0  0  0  0  0  0  0  0  0  0
   35.3480   30.2010   46.5200 C   0  0  0  0  0  0  0  0  0  0  0  0
   34.3590   29.3090   46.1650 C   0  0  0  0  0  0  0  0  0  0  0  0
   33.9720   28.3630   47.1060 C   0  0  0  0  0  0  0  0  0  0  0  0
   34.5560   28.3060   48.3740 C   0  0  0  0  0  0  0  0  0  0  0  0
   35.5490   29.2220   48.6920 C   0  0  0  0  0  0  0  0  0  0  0  0
   35.6410   30.9380   45.7700 H   0  0  0  0  0  0  0  0  0  0  0  0
   33.8890   29.3310   45.1880 H   0  0  0  0  0  0  0  0  0  0  0  0
   33.1940   27.6820   46.7920 H   0  0  0  0  0  0  0  0  0  0  0  0
   34.2140   27.5480   49.0660 H   0  0  0  0  0  0  0  0  0  0  0  0
   37.7080   32.8790   49.4270 C   0  0  0  0  0  0  0  0  0  0  0  0
   38.8640   33.0610   48.6700 C   0  0  0  0  0  0  0  0  0  0  0  0
   39.0360   32.2120   47.5390 C   0  0  0  0  0  0  0  0  0  0  0  0
   38.0790   31.2880   47.2670 N   0  0  0  0  0  0  0  0  0  0  0  0
   36.9690   31.1490   48.0350 C   0  0  0  0  0  0  0  0  0  0  0  0
   36.8040   31.9530   49.1080 N   0  0  0  0  0  0  0  0  0  0  0  0
   37.5110   33.4870   50.2990 H   0  0  0  0  0  0  0  0  0  0  0  0
   39.5930   33.7950   48.9110 H   0  0  0  0  0  0  0  0  0  0  0  0
   39.9240   32.3060   46.9040 H   0  0  0  0  0  0  0  0  0  0  0  0
   36.1630   29.1820   49.9830 N   0  0  0  0  0  0  0  0  0  0  0  0
   35.5810   29.4170   51.3140 C   0  0  0  0  0  2  0  0  0  0  0  0
   36.5680   30.2100   52.1460 C   0  0  0  0  0  2  0  0  0  0  0  0
   37.9130   29.5610   52.2150 C   0  0  0  0  0  3  0  0  0  0  0  0
   38.6930   30.2960   51.9240 H   0  0  0  0  0  0  0  0  0  0  0  0
   38.0350   28.3990   51.2370 C   0  0  0  0  0  2  0  0  0  0  0  0
   37.5710   28.8560   49.8870 C   0  0  0  0  0  2  0  0  0  0  0  0
  1 15  1  0  0  0  0
  1  6  1  0  0  0  0
  2  1  2  0  0  0  0
  3  2  1  0  0  0  0
  3  4  2  0  0  0  0
  4  5  1  0  0  0  0
  5  6  2  0  0  0  0
  5 10  1  0  0  0  0
  6 20  1  0  0  0  0
  7  2  1  0  0  0  0
  8  3  1  0  0  0  0
  9  4  1  0  0  0  0
 11 17  1  0  0  0  0
 12 18  1  0  0  0  0
 12 11  2  0  0  0  0
 13 12  1  0  0  0  0
 14 13  2  0  0  0  0
 14 15  1  0  0  0  0
 15 16  2  0  0  0  0
 16 11  1  0  0  0  0
 19 13  1  0  0  0  0
 20 21  1  0  0  0  0
 21 22  1  0  0  0  0
 22 23  1  0  0  0  0
 24 23  1  0  0  0  0
 25 23  1  0  0  0  0
 26 20  1  0  0  0  0
 26 25  1  0  0  0  0
M  END
>  <minimizedAffinity>
-3.73252463

>  <minimizedRMSD>
1.03862584

$$$$
