
 OpenBabel03272510143D

 39 42  0  0  0  0  0  0  0  0999 V2000
   37.4710   25.0080   32.1470 C   0  0  0  0  0  0  0  0  0  0  0  0
   36.5000   24.0770   31.8330 C   0  0  0  0  0  0  0  0  0  0  0  0
   36.8670   22.8760   32.4550 C   0  0  0  0  0  0  0  0  0  0  0  0
   38.0160   23.1120   33.1080 N   0  0  0  0  0  0  0  0  0  0  0  0
   38.3510   24.3580   32.9160 N   0  0  0  0  0  0  0  0  0  0  0  0
   35.5690   24.0670   31.2450 H   0  0  0  0  0  0  0  0  0  0  0  0
   36.3610   21.9160   32.4460 H   0  0  0  0  0  0  0  0  0  0  0  0
   38.7410   22.1310   33.8830 C   0  0  0  0  0  0  0  0  0  0  0  0
   39.7780   22.5430   34.0480 H   0  0  0  0  0  0  0  0  0  0  0  0
   38.8560   21.1570   33.4030 H   0  0  0  0  0  0  0  0  0  0  0  0
   38.0780   22.0470   35.2270 C   0  0  0  0  0  0  0  0  0  0  0  0
   38.4720   21.2130   35.8390 H   0  0  0  0  0  0  0  0  0  0  0  0
   36.9730   21.9250   35.1500 H   0  0  0  0  0  0  0  0  0  0  0  0
   38.3280   23.3130   35.9100 N   0  0  0  0  0  0  0  0  0  0  0  0
   39.6990   23.3930   36.3680 C   0  0  0  0  0  2  0  0  0  0  0  0
   39.9450   22.7940   37.7110 C   0  0  0  0  0  2  0  0  0  0  0  0
   38.9690   23.2920   38.7530 C   0  0  0  0  0  3  0  0  0  0  0  0
   39.4340   23.8100   39.5960 H   0  0  0  0  0  0  0  0  0  0  0  0
   38.0240   24.2660   38.0870 C   0  0  0  0  0  2  0  0  0  0  0  0
   37.3650   23.5630   36.9340 C   0  0  0  0  0  2  0  0  0  0  0  0
   37.2470   26.2530   31.6020 O   0  0  0  0  0  0  0  0  0  0  0  0
   35.6440   29.2770   34.0520 C   0  0  0  0  0  0  0  0  0  0  0  0
   35.3550   29.2210   32.7170 C   0  0  0  0  0  0  0  0  0  0  0  0
   35.8390   28.2640   31.8530 C   0  0  0  0  0  0  0  0  0  0  0  0
   36.6680   27.2860   32.3170 C   0  0  0  0  0  0  0  0  0  0  0  0
   36.9640   27.3400   33.6740 C   0  0  0  0  0  0  0  0  0  0  0  0
   36.4710   28.2940   34.4940 N   0  0  0  0  0  0  0  0  0  0  0  0
   34.7050   29.9520   32.2530 H   0  0  0  0  0  0  0  0  0  0  0  0
   35.6050   28.2240   30.7960 H   0  0  0  0  0  0  0  0  0  0  0  0
   37.6130   26.6240   34.1800 H   0  0  0  0  0  0  0  0  0  0  0  0
   35.9310   31.1620   35.6650 C   0  0  0  0  0  0  0  0  0  0  0  0
   35.1390   30.2810   34.9280 C   0  0  0  0  0  0  0  0  0  0  0  0
   33.7760   30.4090   35.0790 C   0  0  0  0  0  0  0  0  0  0  0  0
   33.2600   31.3610   35.9190 N   0  0  0  0  0  0  0  0  0  0  0  0
   34.0810   32.1880   36.6080 C   0  0  0  0  0  0  0  0  0  0  0  0
   35.4370   32.1050   36.4960 N   0  0  0  0  0  0  0  0  0  0  0  0
   37.0060   31.0850   35.5660 H   0  0  0  0  0  0  0  0  0  0  0  0
   33.0710   29.7670   34.5450 H   0  0  0  0  0  0  0  0  0  0  0  0
   33.7100   32.9490   37.2770 H   0  0  0  0  0  0  0  0  0  0  0  0
  1  5  2  0  0  0  0
  2  1  1  0  0  0  0
  2  3  2  0  0  0  0
  3  4  1  0  0  0  0
  4  8  1  0  0  0  0
  5  4  1  0  0  0  0
  6  2  1  0  0  0  0
  7  3  1  0  0  0  0
  8  9  1  0  0  0  0
  8 11  1  0  0  0  0
 10  8  1  0  0  0  0
 11 12  1  0  0  0  0
 11 14  1  0  0  0  0
 13 11  1  0  0  0  0
 14 15  1  0  0  0  0
 14 20  1  0  0  0  0
 15 16  1  0  0  0  0
 16 17  1  0  0  0  0
 17 18  1  0  0  0  0
 19 17  1  0  0  0  0
 20 19  1  0  0  0  0
 21  1  1  0  0  0  0
 21 25  1  0  0  0  0
 22 27  1  0  0  0  0
 22 32  1  0  0  0  0
 23 22  2  0  0  0  0
 24 25  2  0  0  0  0
 24 23  1  0  0  0  0
 25 26  1  0  0  0  0
 26 30  1  0  0  0  0
 26 27  2  0  0  0  0
 28 23  1  0  0  0  0
 29 24  1  0  0  0  0
 31 36  1  0  0  0  0
 32 33  1  0  0  0  0
 32 31  2  0  0  0  0
 33 34  2  0  0  0  0
 34 35  1  0  0  0  0
 35 39  1  0  0  0  0
 36 35  2  0  0  0  0
 37 31  1  0  0  0  0
 38 33  1  0  0  0  0
M  END
>  <minimizedAffinity>
-5.80691051

$$$$

 OpenBabel03272510143D

 39 42  0  0  0  0  0  0  0  0999 V2000
   37.0810   24.8710   32.1570 C   0  0  0  0  0  0  0  0  0  0  0  0
   36.2670   23.9110   31.5840 C   0  0  0  0  0  0  0  0  0  0  0  0
   36.6470   22.6760   32.1260 C   0  0  0  0  0  0  0  0  0  0  0  0
   37.6480   22.9200   32.9850 N   0  0  0  0  0  0  0  0  0  0  0  0
   37.8860   24.2020   32.9890 N   0  0  0  0  0  0  0  0  0  0  0  0
   35.4480   23.9010   30.8490 H   0  0  0  0  0  0  0  0  0  0  0  0
   36.2460   21.6870   31.9270 H   0  0  0  0  0  0  0  0  0  0  0  0
   38.3340   21.9110   33.7610 C   0  0  0  0  0  0  0  0  0  0  0  0
   38.9440   21.2970   33.0380 H   0  0  0  0  0  0  0  0  0  0  0  0
   37.6810   21.2180   34.2980 H   0  0  0  0  0  0  0  0  0  0  0  0
   39.2990   22.6230   34.6630 C   0  0  0  0  0  0  0  0  0  0  0  0
   39.2360   23.7250   34.5600 H   0  0  0  0  0  0  0  0  0  0  0  0
   40.3560   22.3220   34.4800 H   0  0  0  0  0  0  0  0  0  0  0  0
   38.9690   22.2430   36.0330 N   0  0  0  0  0  0  0  0  0  0  0  0
   37.5880   22.5480   36.3390 C   0  0  0  0  0  2  0  0  0  0  0  0
   37.3480   23.9350   36.8280 C   0  0  0  0  0  2  0  0  0  0  0  0
   38.2770   24.3170   37.9590 C   0  0  0  0  0  3  0  0  0  0  0  0
   37.7690   24.5760   38.8920 H   0  0  0  0  0  0  0  0  0  0  0  0
   39.1820   23.1400   38.2450 C   0  0  0  0  0  2  0  0  0  0  0  0
   39.8990   22.7840   36.9730 C   0  0  0  0  0  2  0  0  0  0  0  0
   36.8260   26.1510   31.7200 O   0  0  0  0  0  0  0  0  0  0  0  0
   35.6140   29.4070   34.0980 C   0  0  0  0  0  0  0  0  0  0  0  0
   36.4800   28.4640   34.5780 C   0  0  0  0  0  0  0  0  0  0  0  0
   36.9220   27.3730   33.8620 C   0  0  0  0  0  0  0  0  0  0  0  0
   36.4930   27.1800   32.5830 C   0  0  0  0  0  0  0  0  0  0  0  0
   35.6130   28.1380   32.0910 C   0  0  0  0  0  0  0  0  0  0  0  0
   35.1990   29.1960   32.8220 N   0  0  0  0  0  0  0  0  0  0  0  0
   36.8780   28.5280   35.5830 H   0  0  0  0  0  0  0  0  0  0  0  0
   37.6090   26.6300   34.2480 H   0  0  0  0  0  0  0  0  0  0  0  0
   35.1890   28.1100   31.0860 H   0  0  0  0  0  0  0  0  0  0  0  0
   35.9640   31.2750   35.7190 C   0  0  0  0  0  0  0  0  0  0  0  0
   35.1620   30.5240   34.8580 C   0  0  0  0  0  0  0  0  0  0  0  0
   33.8430   30.9070   34.7580 C   0  0  0  0  0  0  0  0  0  0  0  0
   33.3770   31.9740   35.4820 N   0  0  0  0  0  0  0  0  0  0  0  0
   34.2050   32.6650   36.3010 C   0  0  0  0  0  0  0  0  0  0  0  0
   35.5190   32.3270   36.4370 N   0  0  0  0  0  0  0  0  0  0  0  0
   37.0050   30.9960   35.8170 H   0  0  0  0  0  0  0  0  0  0  0  0
   33.1350   30.3850   34.1110 H   0  0  0  0  0  0  0  0  0  0  0  0
   33.8730   33.5090   36.8840 H   0  0  0  0  0  0  0  0  0  0  0  0
  1  5  2  0  0  0  0
  2  3  2  0  0  0  0
  2  1  1  0  0  0  0
  3  4  1  0  0  0  0
  4  5  1  0  0  0  0
  4  8  1  0  0  0  0
  6  2  1  0  0  0  0
  7  3  1  0  0  0  0
  8 10  1  0  0  0  0
  8 11  1  0  0  0  0
  9  8  1  0  0  0  0
 11 14  1  0  0  0  0
 12 11  1  0  0  0  0
 13 11  1  0  0  0  0
 14 15  1  0  0  0  0
 14 20  1  0  0  0  0
 15 16  1  0  0  0  0
 16 17  1  0  0  0  0
 17 19  1  0  0  0  0
 17 18  1  0  0  0  0
 20 19  1  0  0  0  0
 21  1  1  0  0  0  0
 21 25  1  0  0  0  0
 22 23  1  0  0  0  0
 22 32  1  0  0  0  0
 23 28  1  0  0  0  0
 24 29  1  0  0  0  0
 24 23  2  0  0  0  0
 25 24  1  0  0  0  0
 26 25  2  0  0  0  0
 26 27  1  0  0  0  0
 27 22  2  0  0  0  0
 30 26  1  0  0  0  0
 31 37  1  0  0  0  0
 31 36  1  0  0  0  0
 32 31  2  0  0  0  0
 33 32  1  0  0  0  0
 33 34  2  0  0  0  0
 34 35  1  0  0  0  0
 35 36  2  0  0  0  0
 35 39  1  0  0  0  0
 38 33  1  0  0  0  0
M  END
>  <minimizedAffinity>
-5.6792841

$$$$

 OpenBabel03272510143D

 39 42  0  0  0  0  0  0  0  0999 V2000
   36.2480   26.1850   31.2980 C   0  0  0  0  0  0  0  0  0  0  0  0
   35.0250   25.6450   30.9470 C   0  0  0  0  0  0  0  0  0  0  0  0
   35.1310   24.2570   31.0990 C   0  0  0  0  0  0  0  0  0  0  0  0
   36.3790   24.0060   31.5250 N   0  0  0  0  0  0  0  0  0  0  0  0
   37.0140   25.1410   31.6340 N   0  0  0  0  0  0  0  0  0  0  0  0
   34.0560   26.0350   30.5990 H   0  0  0  0  0  0  0  0  0  0  0  0
   34.3860   23.4880   30.9220 H   0  0  0  0  0  0  0  0  0  0  0  0
   36.9070   22.6900   31.8040 C   0  0  0  0  0  0  0  0  0  0  0  0
   37.6770   22.8100   32.6190 H   0  0  0  0  0  0  0  0  0  0  0  0
   37.4060   22.2040   30.9620 H   0  0  0  0  0  0  0  0  0  0  0  0
   35.7840   21.8720   32.3720 C   0  0  0  0  0  0  0  0  0  0  0  0
   34.8740   22.4760   32.5540 H   0  0  0  0  0  0  0  0  0  0  0  0
   36.0610   21.3720   33.3290 H   0  0  0  0  0  0  0  0  0  0  0  0
   35.4850   20.8210   31.4040 N   0  0  0  0  0  0  0  0  0  0  0  0
   34.6660   19.7860   31.9980 C   0  0  0  0  0  2  0  0  0  0  0  0
   35.4270   18.7130   32.6990 C   0  0  0  0  0  2  0  0  0  0  0  0
   36.5350   18.1390   31.8440 C   0  0  0  0  0  3  0  0  0  0  0  0
   36.4410   17.0680   31.6430 H   0  0  0  0  0  0  0  0  0  0  0  0
   36.5230   18.8540   30.5130 C   0  0  0  0  0  2  0  0  0  0  0  0
   36.6670   20.3270   30.7730 C   0  0  0  0  0  2  0  0  0  0  0  0
   36.3020   27.5570   31.2000 O   0  0  0  0  0  0  0  0  0  0  0  0
   35.4040   30.3120   34.2530 C   0  0  0  0  0  0  0  0  0  0  0  0
   36.0300   29.1290   34.5300 C   0  0  0  0  0  0  0  0  0  0  0  0
   36.3570   28.1790   33.5870 C   0  0  0  0  0  0  0  0  0  0  0  0
   36.0540   28.3910   32.2750 C   0  0  0  0  0  0  0  0  0  0  0  0
   35.4160   29.5940   31.9900 C   0  0  0  0  0  0  0  0  0  0  0  0
   35.1100   30.5030   32.9410 N   0  0  0  0  0  0  0  0  0  0  0  0
   36.3130   28.8680   35.5420 H   0  0  0  0  0  0  0  0  0  0  0  0
   36.8550   27.2440   33.8130 H   0  0  0  0  0  0  0  0  0  0  0  0
   35.1150   29.8950   30.9860 H   0  0  0  0  0  0  0  0  0  0  0  0
   33.9580   31.1950   36.0890 C   0  0  0  0  0  0  0  0  0  0  0  0
   35.0660   31.2780   35.2450 C   0  0  0  0  0  0  0  0  0  0  0  0
   35.8730   32.3830   35.3990 C   0  0  0  0  0  0  0  0  0  0  0  0
   35.5710   33.3330   36.3410 N   0  0  0  0  0  0  0  0  0  0  0  0
   34.4810   33.1960   37.1310 C   0  0  0  0  0  0  0  0  0  0  0  0
   33.6490   32.1220   37.0200 N   0  0  0  0  0  0  0  0  0  0  0  0
   33.3070   30.3360   35.9900 H   0  0  0  0  0  0  0  0  0  0  0  0
   36.7640   32.5400   34.7880 H   0  0  0  0  0  0  0  0  0  0  0  0
   34.2130   33.9220   37.8820 H   0  0  0  0  0  0  0  0  0  0  0  0
  1  5  2  0  0  0  0
  2  3  2  0  0  0  0
  2  1  1  0  0  0  0
  3  4  1  0  0  0  0
  4  5  1  0  0  0  0
  4  8  1  0  0  0  0
  6  2  1  0  0  0  0
  7  3  1  0  0  0  0
  8 11  1  0  0  0  0
  8  9  1  0  0  0  0
 10  8  1  0  0  0  0
 11 12  1  0  0  0  0
 11 13  1  0  0  0  0
 14 15  1  0  0  0  0
 14 11  1  0  0  0  0
 15 16  1  0  0  0  0
 17 16  1  0  0  0  0
 18 17  1  0  0  0  0
 19 20  1  0  0  0  0
 19 17  1  0  0  0  0
 20 14  1  0  0  0  0
 21  1  1  0  0  0  0
 21 25  1  0  0  0  0
 22 23  1  0  0  0  0
 22 32  1  0  0  0  0
 23 28  1  0  0  0  0
 24 29  1  0  0  0  0
 24 23  2  0  0  0  0
 25 24  1  0  0  0  0
 26 25  2  0  0  0  0
 26 27  1  0  0  0  0
 27 22  2  0  0  0  0
 30 26  1  0  0  0  0
 31 36  1  0  0  0  0
 32 33  1  0  0  0  0
 32 31  2  0  0  0  0
 33 34  2  0  0  0  0
 34 35  1  0  0  0  0
 35 39  1  0  0  0  0
 36 35  2  0  0  0  0
 37 31  1  0  0  0  0
 38 33  1  0  0  0  0
M  END
>  <minimizedAffinity>
-5.6435461

$$$$

 OpenBabel03272510143D

 39 42  0  0  0  0  0  0  0  0999 V2000
   35.4400   28.8100   32.3050 C   0  0  0  0  0  0  0  0  0  0  0  0
   35.7170   29.8850   31.4810 C   0  0  0  0  0  0  0  0  0  0  0  0
   34.8020   30.8950   31.8040 C   0  0  0  0  0  0  0  0  0  0  0  0
   34.0230   30.4140   32.7850 N   0  0  0  0  0  0  0  0  0  0  0  0
   34.4090   29.2000   33.0630 N   0  0  0  0  0  0  0  0  0  0  0  0
   36.4430   30.1080   30.6840 H   0  0  0  0  0  0  0  0  0  0  0  0
   34.6980   31.8880   31.3790 H   0  0  0  0  0  0  0  0  0  0  0  0
   32.9400   31.1410   33.4110 C   0  0  0  0  0  0  0  0  0  0  0  0
   32.9110   30.8220   34.4920 H   0  0  0  0  0  0  0  0  0  0  0  0
   31.9500   30.9440   32.9920 H   0  0  0  0  0  0  0  0  0  0  0  0
   33.3080   32.5950   33.3850 C   0  0  0  0  0  0  0  0  0  0  0  0
   32.4610   33.2380   33.0770 H   0  0  0  0  0  0  0  0  0  0  0  0
   34.1650   32.8070   32.7050 H   0  0  0  0  0  0  0  0  0  0  0  0
   33.7260   32.9570   34.7360 N   0  0  0  0  0  0  0  0  0  0  0  0
   35.0770   33.4790   34.7400 C   0  0  0  0  0  2  0  0  0  0  0  0
   36.1450   32.4460   34.8500 C   0  0  0  0  0  2  0  0  0  0  0  0
   35.9050   31.4860   35.9940 C   0  0  0  0  0  3  0  0  0  0  0  0
   36.6960   31.4780   36.7490 H   0  0  0  0  0  0  0  0  0  0  0  0
   34.6210   31.8870   36.6850 C   0  0  0  0  0  2  0  0  0  0  0  0
   33.5220   31.8880   35.6610 C   0  0  0  0  0  2  0  0  0  0  0  0
   36.2650   27.7260   32.1040 O   0  0  0  0  0  0  0  0  0  0  0  0
   38.0430   25.3260   35.0700 C   0  0  0  0  0  0  0  0  0  0  0  0
   37.6860   26.6200   35.3280 C   0  0  0  0  0  0  0  0  0  0  0  0
   37.1010   27.4660   34.4120 C   0  0  0  0  0  0  0  0  0  0  0  0
   36.8410   27.0250   33.1480 C   0  0  0  0  0  0  0  0  0  0  0  0
   37.2030   25.7090   32.8820 C   0  0  0  0  0  0  0  0  0  0  0  0
   37.7760   24.9060   33.8060 N   0  0  0  0  0  0  0  0  0  0  0  0
   37.8500   27.0630   36.3020 H   0  0  0  0  0  0  0  0  0  0  0  0
   36.8190   28.4900   34.6230 H   0  0  0  0  0  0  0  0  0  0  0  0
   37.0550   25.2250   31.9160 H   0  0  0  0  0  0  0  0  0  0  0  0
   38.1500   24.2160   37.3050 C   0  0  0  0  0  0  0  0  0  0  0  0
   38.6560   24.4690   36.0300 C   0  0  0  0  0  0  0  0  0  0  0  0
   39.8350   23.8380   35.7020 C   0  0  0  0  0  0  0  0  0  0  0  0
   40.4520   23.0130   36.6070 N   0  0  0  0  0  0  0  0  0  0  0  0
   39.9110   22.8060   37.8300 C   0  0  0  0  0  0  0  0  0  0  0  0
   38.7450   23.4070   38.2060 N   0  0  0  0  0  0  0  0  0  0  0  0
   37.2230   24.6990   37.5900 H   0  0  0  0  0  0  0  0  0  0  0  0
   40.3120   23.9700   34.7290 H   0  0  0  0  0  0  0  0  0  0  0  0
   40.3670   22.1640   38.5660 H   0  0  0  0  0  0  0  0  0  0  0  0
  1  5  2  0  0  0  0
  2  3  2  0  0  0  0
  2  1  1  0  0  0  0
  3  4  1  0  0  0  0
  4  5  1  0  0  0  0
  4  8  1  0  0  0  0
  6  2  1  0  0  0  0
  7  3  1  0  0  0  0
  8  9  1  0  0  0  0
 10  8  1  0  0  0  0
 11  8  1  0  0  0  0
 11 14  1  0  0  0  0
 12 11  1  0  0  0  0
 13 11  1  0  0  0  0
 14 15  1  0  0  0  0
 14 20  1  0  0  0  0
 15 16  1  0  0  0  0
 16 17  1  0  0  0  0
 17 19  1  0  0  0  0
 17 18  1  0  0  0  0
 20 19  1  0  0  0  0
 21  1  1  0  0  0  0
 21 25  1  0  0  0  0
 22 23  1  0  0  0  0
 22 32  1  0  0  0  0
 23 28  1  0  0  0  0
 24 29  1  0  0  0  0
 24 23  2  0  0  0  0
 25 24  1  0  0  0  0
 26 25  2  0  0  0  0
 26 27  1  0  0  0  0
 27 22  2  0  0  0  0
 30 26  1  0  0  0  0
 31 37  1  0  0  0  0
 31 36  1  0  0  0  0
 32 31  2  0  0  0  0
 33 32  1  0  0  0  0
 33 34  2  0  0  0  0
 34 35  1  0  0  0  0
 35 36  2  0  0  0  0
 35 39  1  0  0  0  0
 38 33  1  0  0  0  0
M  END
>  <minimizedAffinity>
-5.60018158

$$$$

 OpenBabel03272510143D

 39 42  0  0  0  0  0  0  0  0999 V2000
   36.0140   27.9330   32.5430 C   0  0  0  0  0  0  0  0  0  0  0  0
   36.4820   28.2220   33.8110 C   0  0  0  0  0  0  0  0  0  0  0  0
   35.5920   29.1450   34.3750 C   0  0  0  0  0  0  0  0  0  0  0  0
   34.6400   29.3780   33.4570 N   0  0  0  0  0  0  0  0  0  0  0  0
   34.9040   28.6630   32.3990 N   0  0  0  0  0  0  0  0  0  0  0  0
   37.3370   27.9130   34.4310 H   0  0  0  0  0  0  0  0  0  0  0  0
   35.6170   29.6130   35.3540 H   0  0  0  0  0  0  0  0  0  0  0  0
   33.5230   30.2780   33.6370 C   0  0  0  0  0  0  0  0  0  0  0  0
   32.5920   29.7060   33.3600 H   0  0  0  0  0  0  0  0  0  0  0  0
   33.5470   31.1740   33.0120 H   0  0  0  0  0  0  0  0  0  0  0  0
   33.4340   30.5880   35.1030 C   0  0  0  0  0  0  0  0  0  0  0  0
   33.8000   31.6060   35.3400 H   0  0  0  0  0  0  0  0  0  0  0  0
   34.0040   29.8640   35.7280 H   0  0  0  0  0  0  0  0  0  0  0  0
   32.0280   30.4760   35.4820 N   0  0  0  0  0  0  0  0  0  0  0  0
   31.8730   29.6590   36.6660 C   0  0  0  0  0  2  0  0  0  0  0  0
   31.7620   28.1960   36.4050 C   0  0  0  0  0  2  0  0  0  0  0  0
   30.7220   27.8750   35.3540 C   0  0  0  0  0  3  0  0  0  0  0  0
   29.9090   27.2340   35.7060 H   0  0  0  0  0  0  0  0  0  0  0  0
   30.1080   29.1740   34.8860 C   0  0  0  0  0  2  0  0  0  0  0  0
   31.2140   30.0590   34.3850 C   0  0  0  0  0  2  0  0  0  0  0  0
   36.7920   27.0290   31.8540 O   0  0  0  0  0  0  0  0  0  0  0  0
   36.1580   22.8680   31.9060 C   0  0  0  0  0  0  0  0  0  0  0  0
   35.3360   23.6990   31.1980 C   0  0  0  0  0  0  0  0  0  0  0  0
   35.4790   25.0680   31.1320 C   0  0  0  0  0  0  0  0  0  0  0  0
   36.4960   25.6780   31.8030 C   0  0  0  0  0  0  0  0  0  0  0  0
   37.3340   24.8350   32.5250 C   0  0  0  0  0  0  0  0  0  0  0  0
   37.1650   23.4950   32.5680 N   0  0  0  0  0  0  0  0  0  0  0  0
   34.5000   23.3110   30.6310 H   0  0  0  0  0  0  0  0  0  0  0  0
   34.8250   25.7210   30.5680 H   0  0  0  0  0  0  0  0  0  0  0  0
   38.1870   25.1850   33.1090 H   0  0  0  0  0  0  0  0  0  0  0  0
   36.1360   20.5880   30.8850 C   0  0  0  0  0  0  0  0  0  0  0  0
   35.9880   21.4540   31.9690 C   0  0  0  0  0  0  0  0  0  0  0  0
   35.6480   20.8770   33.1720 C   0  0  0  0  0  0  0  0  0  0  0  0
   35.4720   19.5200   33.2630 N   0  0  0  0  0  0  0  0  0  0  0  0
   35.6300   18.7320   32.1740 C   0  0  0  0  0  0  0  0  0  0  0  0
   35.9650   19.2520   30.9590 N   0  0  0  0  0  0  0  0  0  0  0  0
   36.4030   21.0150   29.9260 H   0  0  0  0  0  0  0  0  0  0  0  0
   35.5100   21.4680   34.0800 H   0  0  0  0  0  0  0  0  0  0  0  0
   35.4990   17.6620   32.2080 H   0  0  0  0  0  0  0  0  0  0  0  0
  1  2  1  0  0  0  0
  2  3  2  0  0  0  0
  2  6  1  0  0  0  0
  3  7  1  0  0  0  0
  4  8  1  0  0  0  0
  4  3  1  0  0  0  0
  5  1  2  0  0  0  0
  5  4  1  0  0  0  0
  8 11  1  0  0  0  0
  9  8  1  0  0  0  0
 10  8  1  0  0  0  0
 11 12  1  0  0  0  0
 11 14  1  0  0  0  0
 11 13  1  0  0  0  0
 14 15  1  0  0  0  0
 16 15  1  0  0  0  0
 17 18  1  0  0  0  0
 17 16  1  0  0  0  0
 19 17  1  0  0  0  0
 20 19  1  0  0  0  0
 20 14  1  0  0  0  0
 21  1  1  0  0  0  0
 22 32  1  0  0  0  0
 22 27  1  0  0  0  0
 23 22  2  0  0  0  0
 24 23  1  0  0  0  0
 24 25  2  0  0  0  0
 25 21  1  0  0  0  0
 25 26  1  0  0  0  0
 26 27  2  0  0  0  0
 26 30  1  0  0  0  0
 28 23  1  0  0  0  0
 29 24  1  0  0  0  0
 31 36  2  0  0  0  0
 31 32  1  0  0  0  0
 32 33  2  0  0  0  0
 33 34  1  0  0  0  0
 33 38  1  0  0  0  0
 35 39  1  0  0  0  0
 35 34  2  0  0  0  0
 36 35  1  0  0  0  0
 37 31  1  0  0  0  0
M  END
>  <minimizedAffinity>
-5.51525545

$$$$

 OpenBabel03272510143D

 39 42  0  0  0  0  0  0  0  0999 V2000
   36.1090   27.9720   32.5000 C   0  0  0  0  0  0  0  0  0  0  0  0
   36.4550   28.1860   33.8220 C   0  0  0  0  0  0  0  0  0  0  0  0
   35.5730   29.1500   34.3250 C   0  0  0  0  0  0  0  0  0  0  0  0
   34.7440   29.4800   33.3220 N   0  0  0  0  0  0  0  0  0  0  0  0
   35.0720   28.7840   32.2690 N   0  0  0  0  0  0  0  0  0  0  0  0
   37.2150   27.7960   34.5160 H   0  0  0  0  0  0  0  0  0  0  0  0
   35.5220   29.5810   35.3200 H   0  0  0  0  0  0  0  0  0  0  0  0
   33.6760   30.4500   33.4190 C   0  0  0  0  0  0  0  0  0  0  0  0
   33.3530   30.4780   34.4980 H   0  0  0  0  0  0  0  0  0  0  0  0
   32.7890   30.2210   32.8240 H   0  0  0  0  0  0  0  0  0  0  0  0
   34.2660   31.7930   33.0970 C   0  0  0  0  0  0  0  0  0  0  0  0
   33.8480   32.2230   32.1650 H   0  0  0  0  0  0  0  0  0  0  0  0
   35.3740   31.7580   32.9920 H   0  0  0  0  0  0  0  0  0  0  0  0
   33.9620   32.6760   34.2190 N   0  0  0  0  0  0  0  0  0  0  0  0
   35.1700   33.2630   34.7590 C   0  0  0  0  0  2  0  0  0  0  0  0
   35.8570   32.4370   35.7920 C   0  0  0  0  0  2  0  0  0  0  0  0
   34.9150   31.9740   36.8810 C   0  0  0  0  0  3  0  0  0  0  0  0
   35.1820   32.3170   37.8850 H   0  0  0  0  0  0  0  0  0  0  0  0
   33.5350   32.5080   36.5700 C   0  0  0  0  0  2  0  0  0  0  0  0
   33.1490   32.0300   35.1990 C   0  0  0  0  0  2  0  0  0  0  0  0
   36.8950   27.0390   31.8620 O   0  0  0  0  0  0  0  0  0  0  0  0
   36.1780   22.8920   31.9500 C   0  0  0  0  0  0  0  0  0  0  0  0
   35.3690   23.7350   31.2390 C   0  0  0  0  0  0  0  0  0  0  0  0
   35.5390   25.0990   31.1620 C   0  0  0  0  0  0  0  0  0  0  0  0
   36.5720   25.6940   31.8230 C   0  0  0  0  0  0  0  0  0  0  0  0
   37.3970   24.8400   32.5470 C   0  0  0  0  0  0  0  0  0  0  0  0
   37.2000   23.5040   32.6010 N   0  0  0  0  0  0  0  0  0  0  0  0
   34.5220   23.3590   30.6790 H   0  0  0  0  0  0  0  0  0  0  0  0
   34.8950   25.7620   30.5970 H   0  0  0  0  0  0  0  0  0  0  0  0
   38.2590   25.1770   33.1230 H   0  0  0  0  0  0  0  0  0  0  0  0
   36.0770   20.6100   30.9400 C   0  0  0  0  0  0  0  0  0  0  0  0
   35.9790   21.4830   32.0230 C   0  0  0  0  0  0  0  0  0  0  0  0
   35.6630   20.9180   33.2390 C   0  0  0  0  0  0  0  0  0  0  0  0
   35.4590   19.5660   33.3410 N   0  0  0  0  0  0  0  0  0  0  0  0
   35.5690   18.7700   32.2520 C   0  0  0  0  0  0  0  0  0  0  0  0
   35.8800   19.2770   31.0250 N   0  0  0  0  0  0  0  0  0  0  0  0
   36.3260   21.0260   29.9720 H   0  0  0  0  0  0  0  0  0  0  0  0
   35.5630   21.5160   34.1480 H   0  0  0  0  0  0  0  0  0  0  0  0
   35.4170   17.7030   32.2950 H   0  0  0  0  0  0  0  0  0  0  0  0
  1  2  1  0  0  0  0
  2  3  2  0  0  0  0
  2  6  1  0  0  0  0
  3  7  1  0  0  0  0
  4  8  1  0  0  0  0
  4  3  1  0  0  0  0
  5  1  2  0  0  0  0
  5  4  1  0  0  0  0
  8  9  1  0  0  0  0
 10  8  1  0  0  0  0
 11  8  1  0  0  0  0
 11 14  1  0  0  0  0
 12 11  1  0  0  0  0
 13 11  1  0  0  0  0
 14 15  1  0  0  0  0
 14 20  1  0  0  0  0
 15 16  1  0  0  0  0
 16 17  1  0  0  0  0
 17 18  1  0  0  0  0
 19 17  1  0  0  0  0
 20 19  1  0  0  0  0
 21  1  1  0  0  0  0
 22 32  1  0  0  0  0
 22 27  1  0  0  0  0
 23 22  2  0  0  0  0
 24 23  1  0  0  0  0
 24 25  2  0  0  0  0
 25 21  1  0  0  0  0
 25 26  1  0  0  0  0
 26 27  2  0  0  0  0
 26 30  1  0  0  0  0
 28 23  1  0  0  0  0
 29 24  1  0  0  0  0
 31 36  2  0  0  0  0
 31 32  1  0  0  0  0
 32 33  2  0  0  0  0
 33 34  1  0  0  0  0
 33 38  1  0  0  0  0
 35 39  1  0  0  0  0
 35 34  2  0  0  0  0
 36 35  1  0  0  0  0
 37 31  1  0  0  0  0
M  END
>  <minimizedAffinity>
-5.51085663

$$$$

 OpenBabel03272510143D

 39 42  0  0  0  0  0  0  0  0999 V2000
   35.4460   29.4260   33.0890 C   0  0  0  0  0  0  0  0  0  0  0  0
   34.1120   29.1680   32.8360 C   0  0  0  0  0  0  0  0  0  0  0  0
   33.3880   30.2860   33.2700 C   0  0  0  0  0  0  0  0  0  0  0  0
   34.2810   31.1620   33.7560 N   0  0  0  0  0  0  0  0  0  0  0  0
   35.4730   30.6430   33.6430 N   0  0  0  0  0  0  0  0  0  0  0  0
   33.5320   28.3380   32.4030 H   0  0  0  0  0  0  0  0  0  0  0  0
   32.3180   30.4640   33.2420 H   0  0  0  0  0  0  0  0  0  0  0  0
   33.9510   32.4550   34.3120 C   0  0  0  0  0  0  0  0  0  0  0  0
   32.8270   32.5090   34.3760 H   0  0  0  0  0  0  0  0  0  0  0  0
   34.2780   33.3110   33.7160 H   0  0  0  0  0  0  0  0  0  0  0  0
   34.4780   32.4840   35.7160 C   0  0  0  0  0  0  0  0  0  0  0  0
   35.2380   33.2760   35.8640 H   0  0  0  0  0  0  0  0  0  0  0  0
   34.9310   31.5130   36.0220 H   0  0  0  0  0  0  0  0  0  0  0  0
   33.3410   32.7300   36.5980 N   0  0  0  0  0  0  0  0  0  0  0  0
   33.0990   31.5940   37.4620 C   0  0  0  0  0  2  0  0  0  0  0  0
   32.2220   30.5400   36.8770 C   0  0  0  0  0  2  0  0  0  0  0  0
   30.9390   31.1060   36.3100 C   0  0  0  0  0  3  0  0  0  0  0  0
   30.0300   30.7150   36.7750 H   0  0  0  0  0  0  0  0  0  0  0  0
   30.9500   32.6030   36.5200 C   0  0  0  0  0  2  0  0  0  0  0  0
   32.1880   33.1550   35.8720 C   0  0  0  0  0  2  0  0  0  0  0  0
   36.2920   28.4080   32.7130 O   0  0  0  0  0  0  0  0  0  0  0  0
   38.1120   25.5940   35.2610 C   0  0  0  0  0  0  0  0  0  0  0  0
   37.8890   26.8790   35.6710 C   0  0  0  0  0  0  0  0  0  0  0  0
   37.3000   27.8550   34.8970 C   0  0  0  0  0  0  0  0  0  0  0  0
   36.8950   27.5640   33.6280 C   0  0  0  0  0  0  0  0  0  0  0  0
   37.1210   26.2570   33.2080 C   0  0  0  0  0  0  0  0  0  0  0  0
   37.7030   25.3250   33.9940 N   0  0  0  0  0  0  0  0  0  0  0  0
   38.1740   27.2090   36.6620 H   0  0  0  0  0  0  0  0  0  0  0  0
   37.1240   28.8710   35.2280 H   0  0  0  0  0  0  0  0  0  0  0  0
   36.8500   25.8850   32.2190 H   0  0  0  0  0  0  0  0  0  0  0  0
   39.8940   23.9090   35.7340 C   0  0  0  0  0  0  0  0  0  0  0  0
   38.7320   24.6020   36.0750 C   0  0  0  0  0  0  0  0  0  0  0  0
   38.1600   24.2840   37.2870 C   0  0  0  0  0  0  0  0  0  0  0  0
   38.7300   23.3290   38.0890 N   0  0  0  0  0  0  0  0  0  0  0  0
   39.8590   22.6900   37.7030 C   0  0  0  0  0  0  0  0  0  0  0  0
   40.4650   22.9670   36.5140 N   0  0  0  0  0  0  0  0  0  0  0  0
   40.3650   24.1400   34.7870 H   0  0  0  0  0  0  0  0  0  0  0  0
   37.2510   24.7700   37.6440 H   0  0  0  0  0  0  0  0  0  0  0  0
   40.3350   21.9350   38.3090 H   0  0  0  0  0  0  0  0  0  0  0  0
  1  5  2  0  0  0  0
  2  1  1  0  0  0  0
  2  3  2  0  0  0  0
  3  4  1  0  0  0  0
  4  8  1  0  0  0  0
  5  4  1  0  0  0  0
  6  2  1  0  0  0  0
  7  3  1  0  0  0  0
  8  9  1  0  0  0  0
  8 11  1  0  0  0  0
 10  8  1  0  0  0  0
 11 12  1  0  0  0  0
 11 13  1  0  0  0  0
 11 14  1  0  0  0  0
 14 15  1  0  0  0  0
 16 15  1  0  0  0  0
 17 19  1  0  0  0  0
 17 18  1  0  0  0  0
 17 16  1  0  0  0  0
 20 19  1  0  0  0  0
 20 14  1  0  0  0  0
 21  1  1  0  0  0  0
 21 25  1  0  0  0  0
 22 23  1  0  0  0  0
 22 32  1  0  0  0  0
 23 28  1  0  0  0  0
 24 29  1  0  0  0  0
 24 23  2  0  0  0  0
 25 24  1  0  0  0  0
 26 25  2  0  0  0  0
 26 27  1  0  0  0  0
 27 22  2  0  0  0  0
 30 26  1  0  0  0  0
 31 32  2  0  0  0  0
 31 36  1  0  0  0  0
 32 33  1  0  0  0  0
 33 38  1  0  0  0  0
 33 34  2  0  0  0  0
 35 34  1  0  0  0  0
 35 39  1  0  0  0  0
 36 35  2  0  0  0  0
 37 31  1  0  0  0  0
M  END
>  <minimizedAffinity>
-5.28345251

$$$$

 OpenBabel03272510143D

 39 42  0  0  0  0  0  0  0  0999 V2000
   36.2620   28.5330   32.5070 C   0  0  0  0  0  0  0  0  0  0  0  0
   36.0200   29.7200   31.8410 C   0  0  0  0  0  0  0  0  0  0  0  0
   35.2700   30.5290   32.7050 C   0  0  0  0  0  0  0  0  0  0  0  0
   35.0890   29.8270   33.8340 N   0  0  0  0  0  0  0  0  0  0  0  0
   35.6730   28.6680   33.7000 N   0  0  0  0  0  0  0  0  0  0  0  0
   36.2650   30.1400   30.8540 H   0  0  0  0  0  0  0  0  0  0  0  0
   34.8860   31.5310   32.5460 H   0  0  0  0  0  0  0  0  0  0  0  0
   34.3600   30.2980   34.9910 C   0  0  0  0  0  0  0  0  0  0  0  0
   34.8320   29.8180   35.8950 H   0  0  0  0  0  0  0  0  0  0  0  0
   33.2990   30.0360   35.0060 H   0  0  0  0  0  0  0  0  0  0  0  0
   34.6000   31.7760   35.0950 C   0  0  0  0  0  0  0  0  0  0  0  0
   33.8540   32.3640   34.5250 H   0  0  0  0  0  0  0  0  0  0  0  0
   35.6140   32.0700   34.7390 H   0  0  0  0  0  0  0  0  0  0  0  0
   34.5180   32.1260   36.5100 N   0  0  0  0  0  0  0  0  0  0  0  0
   33.2360   31.7480   37.0660 C   0  0  0  0  0  2  0  0  0  0  0  0
   32.1610   32.7690   36.9070 C   0  0  0  0  0  2  0  0  0  0  0  0
   32.5960   34.1420   37.3680 C   0  0  0  0  0  3  0  0  0  0  0  0
   31.9970   34.5550   38.1840 H   0  0  0  0  0  0  0  0  0  0  0  0
   34.0240   34.0450   37.8570 C   0  0  0  0  0  2  0  0  0  0  0  0
   34.8630   33.4930   36.7400 C   0  0  0  0  0  2  0  0  0  0  0  0
   36.9970   27.6250   31.7780 O   0  0  0  0  0  0  0  0  0  0  0  0
   36.2280   23.4890   31.6490 C   0  0  0  0  0  0  0  0  0  0  0  0
   35.3410   24.3890   31.1280 C   0  0  0  0  0  0  0  0  0  0  0  0
   35.5220   25.7550   31.1320 C   0  0  0  0  0  0  0  0  0  0  0  0
   36.6480   26.2890   31.6830 C   0  0  0  0  0  0  0  0  0  0  0  0
   37.5520   25.3760   32.2140 C   0  0  0  0  0  0  0  0  0  0  0  0
   37.3420   24.0410   32.1930 N   0  0  0  0  0  0  0  0  0  0  0  0
   34.4170   24.0640   30.6670 H   0  0  0  0  0  0  0  0  0  0  0  0
   34.8160   26.4630   30.7160 H   0  0  0  0  0  0  0  0  0  0  0  0
   38.4930   25.6610   32.6860 H   0  0  0  0  0  0  0  0  0  0  0  0
   34.9610   21.4310   32.2850 C   0  0  0  0  0  0  0  0  0  0  0  0
   36.0170   22.0790   31.6420 C   0  0  0  0  0  0  0  0  0  0  0  0
   36.9070   21.2760   30.9640 C   0  0  0  0  0  0  0  0  0  0  0  0
   36.7340   19.9160   30.9440 N   0  0  0  0  0  0  0  0  0  0  0  0
   35.6880   19.3460   31.5880 C   0  0  0  0  0  0  0  0  0  0  0  0
   34.7790   20.0940   32.2740 N   0  0  0  0  0  0  0  0  0  0  0  0
   34.2460   22.0380   32.8260 H   0  0  0  0  0  0  0  0  0  0  0  0
   37.7660   21.6860   30.4280 H   0  0  0  0  0  0  0  0  0  0  0  0
   35.5210   18.2810   31.5930 H   0  0  0  0  0  0  0  0  0  0  0  0
  1  5  2  0  0  0  0
  2  1  1  0  0  0  0
  2  3  2  0  0  0  0
  3  4  1  0  0  0  0
  4  8  1  0  0  0  0
  5  4  1  0  0  0  0
  6  2  1  0  0  0  0
  7  3  1  0  0  0  0
  8 10  1  0  0  0  0
  8 11  1  0  0  0  0
  8  9  1  0  0  0  0
 11 14  1  0  0  0  0
 12 11  1  0  0  0  0
 13 11  1  0  0  0  0
 14 20  1  0  0  0  0
 14 15  1  0  0  0  0
 16 15  1  0  0  0  0
 16 17  1  0  0  0  0
 17 19  1  0  0  0  0
 17 18  1  0  0  0  0
 20 19  1  0  0  0  0
 21  1  1  0  0  0  0
 22 27  1  0  0  0  0
 23 24  1  0  0  0  0
 23 22  2  0  0  0  0
 24 25  2  0  0  0  0
 25 21  1  0  0  0  0
 25 26  1  0  0  0  0
 26 30  1  0  0  0  0
 27 26  2  0  0  0  0
 28 23  1  0  0  0  0
 29 24  1  0  0  0  0
 31 37  1  0  0  0  0
 32 22  1  0  0  0  0
 32 31  2  0  0  0  0
 33 32  1  0  0  0  0
 34 33  2  0  0  0  0
 34 35  1  0  0  0  0
 35 39  1  0  0  0  0
 35 36  2  0  0  0  0
 36 31  1  0  0  0  0
 38 33  1  0  0  0  0
M  END
>  <minimizedAffinity>
-5.2680974

$$$$

 OpenBabel03272510143D

 39 42  0  0  0  0  0  0  0  0999 V2000
   36.0620   28.2940   31.7840 C   0  0  0  0  0  0  0  0  0  0  0  0
   36.2400   29.4220   31.0040 C   0  0  0  0  0  0  0  0  0  0  0  0
   35.2080   30.3120   31.3280 C   0  0  0  0  0  0  0  0  0  0  0  0
   34.4590   29.7130   32.2680 N   0  0  0  0  0  0  0  0  0  0  0  0
   34.9720   28.5400   32.5190 N   0  0  0  0  0  0  0  0  0  0  0  0
   36.9590   29.7520   30.2390 H   0  0  0  0  0  0  0  0  0  0  0  0
   35.0050   31.3010   30.9320 H   0  0  0  0  0  0  0  0  0  0  0  0
   33.2840   30.2910   32.8790 C   0  0  0  0  0  0  0  0  0  0  0  0
   32.3890   29.8710   32.3370 H   0  0  0  0  0  0  0  0  0  0  0  0
   33.2160   31.3800   32.8120 H   0  0  0  0  0  0  0  0  0  0  0  0
   33.2240   29.7870   34.2920 C   0  0  0  0  0  0  0  0  0  0  0  0
   33.7040   30.4830   35.0070 H   0  0  0  0  0  0  0  0  0  0  0  0
   33.7040   28.7890   34.4100 H   0  0  0  0  0  0  0  0  0  0  0  0
   31.8130   29.6340   34.6350 N   0  0  0  0  0  0  0  0  0  0  0  0
   31.6020   29.8150   36.0550 C   0  0  0  0  0  2  0  0  0  0  0  0
   31.7790   28.5830   36.8750 C   0  0  0  0  0  2  0  0  0  0  0  0
   30.9950   27.4090   36.3300 C   0  0  0  0  0  3  0  0  0  0  0  0
   30.2520   27.0030   37.0220 H   0  0  0  0  0  0  0  0  0  0  0  0
   30.2600   27.8670   35.0910 C   0  0  0  0  0  2  0  0  0  0  0  0
   31.2720   28.4150   34.1250 C   0  0  0  0  0  2  0  0  0  0  0  0
   37.0100   27.3180   31.5770 O   0  0  0  0  0  0  0  0  0  0  0  0
   38.7600   25.0380   34.6520 C   0  0  0  0  0  0  0  0  0  0  0  0
   39.0910   26.3520   34.4690 C   0  0  0  0  0  0  0  0  0  0  0  0
   38.5630   27.1610   33.4880 C   0  0  0  0  0  0  0  0  0  0  0  0
   37.6420   26.6600   32.6170 C   0  0  0  0  0  0  0  0  0  0  0  0
   37.3020   25.3240   32.8000 C   0  0  0  0  0  0  0  0  0  0  0  0
   37.8420   24.5580   33.7740 N   0  0  0  0  0  0  0  0  0  0  0  0
   39.8130   26.8420   35.1110 H   0  0  0  0  0  0  0  0  0  0  0  0
   38.8290   28.2020   33.3490 H   0  0  0  0  0  0  0  0  0  0  0  0
   36.5810   24.7930   32.1770 H   0  0  0  0  0  0  0  0  0  0  0  0
   40.5930   23.6360   35.6070 C   0  0  0  0  0  0  0  0  0  0  0  0
   39.3260   24.2150   35.6690 C   0  0  0  0  0  0  0  0  0  0  0  0
   38.5870   23.9540   36.8020 C   0  0  0  0  0  0  0  0  0  0  0  0
   39.1010   23.1610   37.7940 N   0  0  0  0  0  0  0  0  0  0  0  0
   40.3400   22.6270   37.6760 C   0  0  0  0  0  0  0  0  0  0  0  0
   41.1130   22.8530   36.5760 N   0  0  0  0  0  0  0  0  0  0  0  0
   41.1960   23.8240   34.7280 H   0  0  0  0  0  0  0  0  0  0  0  0
   37.5840   24.3610   36.9460 H   0  0  0  0  0  0  0  0  0  0  0  0
   40.7760   22.0000   38.4370 H   0  0  0  0  0  0  0  0  0  0  0  0
  1  5  2  0  0  0  0
  2  3  2  0  0  0  0
  2  1  1  0  0  0  0
  3  4  1  0  0  0  0
  4  5  1  0  0  0  0
  4  8  1  0  0  0  0
  6  2  1  0  0  0  0
  7  3  1  0  0  0  0
  8 11  1  0  0  0  0
  9  8  1  0  0  0  0
 10  8  1  0  0  0  0
 11 13  1  0  0  0  0
 11 14  1  0  0  0  0
 11 12  1  0  0  0  0
 14 15  1  0  0  0  0
 15 16  1  0  0  0  0
 17 16  1  0  0  0  0
 17 18  1  0  0  0  0
 19 17  1  0  0  0  0
 20 14  1  0  0  0  0
 20 19  1  0  0  0  0
 21  1  1  0  0  0  0
 21 25  1  0  0  0  0
 22 32  1  0  0  0  0
 23 22  1  0  0  0  0
 23 28  1  0  0  0  0
 24 23  2  0  0  0  0
 25 26  2  0  0  0  0
 25 24  1  0  0  0  0
 26 27  1  0  0  0  0
 27 22  2  0  0  0  0
 29 24  1  0  0  0  0
 30 26  1  0  0  0  0
 31 32  2  0  0  0  0
 31 36  1  0  0  0  0
 32 33  1  0  0  0  0
 33 38  1  0  0  0  0
 33 34  2  0  0  0  0
 35 34  1  0  0  0  0
 35 39  1  0  0  0  0
 36 35  2  0  0  0  0
 37 31  1  0  0  0  0
M  END
>  <minimizedAffinity>
-5.26555872

$$$$
