
 OpenBabel03272509463D

 23 24  0  0  0  0  0  0  0  0999 V2000
   33.6090   28.6870   49.1790 C   0  0  0  0  0  0  0  0  0  0  0  0
   33.8160   29.5340   48.5100 H   0  0  0  0  0  0  0  0  0  0  0  0
   32.9910   29.0280   50.0300 H   0  0  0  0  0  0  0  0  0  0  0  0
   32.9030   27.6250   48.3730 C   0  0  0  0  0  0  0  0  0  0  0  0
   33.4640   27.5330   47.4130 H   0  0  0  0  0  0  0  0  0  0  0  0
   33.0400   26.6740   48.9510 H   0  0  0  0  0  0  0  0  0  0  0  0
   31.5190   27.8560   48.2130 N   0  0  0  0  0  0  0  0  0  0  0  0
   30.6590   27.5460   49.2920 C   0  0  0  0  0  0  0  0  0  0  0  0
   29.2210   27.7200   48.9060 C   0  0  0  0  0  0  0  0  0  0  0  0
   28.9970   28.8970   47.9890 C   0  0  0  0  0  0  0  0  0  0  0  0
   27.9400   28.8410   47.6580 H   0  0  0  0  0  0  0  0  0  0  0  0
   29.8670   28.8430   46.7690 C   0  0  0  0  0  0  0  0  0  0  0  0
   30.9730   27.7880   46.9060 C   0  0  0  0  0  0  0  0  0  0  0  0
   34.8070   28.1490   49.7170 O   0  0  0  0  0  0  0  0  0  0  0  0
   37.2580   30.2400   51.3750 C   0  0  0  0  0  0  0  0  0  0  0  0
   37.9690   30.7120   50.2640 C   0  0  0  0  0  0  0  0  0  0  0  0
   37.5630   30.2820   49.0030 C   0  0  0  0  0  0  0  0  0  0  0  0
   36.4870   29.4220   48.9600 N   0  0  0  0  0  0  0  0  0  0  0  0
   35.8340   28.9940   50.0390 C   0  0  0  0  0  0  0  0  0  0  0  0
   36.2250   29.4090   51.2680 N   0  0  0  0  0  0  0  0  0  0  0  0
   37.5720   30.5750   52.3630 H   0  0  0  0  0  0  0  0  0  0  0  0
   38.8130   31.3920   50.3940 H   0  0  0  0  0  0  0  0  0  0  0  0
   38.0780   30.6170   48.1180 H   0  0  0  0  0  0  0  0  0  0  0  0
  1 14  1  0  0  0  0
  1  3  1  0  0  0  0
  2  1  1  0  0  0  0
  4  6  1  0  0  0  0
  4  1  1  0  0  0  0
  5  4  1  0  0  0  0
  7  4  1  0  0  0  0
  7  8  1  0  0  0  0
  9  8  1  0  0  0  0
 10  9  1  0  0  0  0
 11 10  1  0  0  0  0
 12 13  1  0  0  0  0
 12 10  1  0  0  0  0
 13  7  1  0  0  0  0
 14 19  1  0  0  0  0
 15 21  1  0  0  0  0
 16 22  1  0  0  0  0
 16 15  2  0  0  0  0
 17 16  1  0  0  0  0
 18 17  2  0  0  0  0
 18 19  1  0  0  0  0
 19 20  2  0  0  0  0
 20 15  1  0  0  0  0
 23 17  1  0  0  0  0
M  END
>  <minimizedAffinity>
-4.19795465

>  <minimizedRMSD>
2.53796911

$$$$
