
 OpenBabel03272510073D

 28 30  0  0  0  0  0  0  0  0999 V2000
   37.1980   24.2310   32.5930 C   0  0  0  0  0  0  0  0  0  0  0  0
   36.1990   23.5210   31.9180 C   0  0  0  0  0  0  0  0  0  0  0  0
   35.3410   24.2270   31.0750 C   0  0  0  0  0  0  0  0  0  0  0  0
   35.5140   25.5670   30.9480 N   0  0  0  0  0  0  0  0  0  0  0  0
   36.4770   26.2250   31.6020 C   0  0  0  0  0  0  0  0  0  0  0  0
   37.3160   25.5820   32.4190 N   0  0  0  0  0  0  0  0  0  0  0  0
   36.5990   27.6430   31.4180 N   0  0  0  0  0  0  0  0  0  0  0  0
   36.8340   28.2580   30.1130 C   0  0  0  0  0  0  0  0  0  0  0  0
   36.6160   29.7130   30.3330 C   0  0  0  0  0  0  0  0  0  0  0  0
   36.0600   29.8620   31.7200 C   0  0  0  0  0  0  0  0  0  0  0  0
   36.5110   28.6460   32.4550 C   0  0  0  0  0  0  0  0  0  0  0  0
   37.9200   23.8330   33.2630 H   0  0  0  0  0  0  0  0  0  0  0  0
   34.5820   23.6850   30.5630 H   0  0  0  0  0  0  0  0  0  0  0  0
   37.8740   28.0000   29.8080 H   0  0  0  0  0  0  0  0  0  0  0  0
   36.1690   27.7990   29.3510 H   0  0  0  0  0  0  0  0  0  0  0  0
   35.8100   30.0390   29.6180 H   0  0  0  0  0  0  0  0  0  0  0  0
   37.5060   30.3290   30.1460 H   0  0  0  0  0  0  0  0  0  0  0  0
   36.5870   30.7530   32.1660 H   0  0  0  0  0  0  0  0  0  0  0  0
   34.9890   30.0830   31.7650 H   0  0  0  0  0  0  0  0  0  0  0  0
   37.4470   28.7660   33.0280 H   0  0  0  0  0  0  0  0  0  0  0  0
   35.6940   28.3600   33.1520 H   0  0  0  0  0  0  0  0  0  0  0  0
   36.1370   22.1270   32.1460 N   0  0  0  0  0  0  0  0  0  0  0  0
   35.5240   21.3010   31.1560 C   0  0  0  0  0  2  0  0  0  0  0  0
   35.8020   19.8290   31.3560 C   0  0  0  0  0  2  0  0  0  0  0  0
   35.4350   19.3670   32.7460 C   0  0  0  0  0  3  0  0  0  0  0  0
   34.3930   19.0020   32.8350 H   0  0  0  0  0  0  0  0  0  0  0  0
   35.6190   20.4600   33.7710 C   0  0  0  0  0  2  0  0  0  0  0  0
   36.6610   21.4780   33.3300 C   0  0  0  0  0  2  0  0  0  0  0  0
  1 12  1  0  0  0  0
  2 22  1  0  0  0  0
  2  1  2  0  0  0  0
  3  2  1  0  0  0  0
  4  3  2  0  0  0  0
  4  5  1  0  0  0  0
  5  6  2  0  0  0  0
  6  1  1  0  0  0  0
  7  5  1  0  0  0  0
  7 11  1  0  0  0  0
  8  9  1  0  0  0  0
  8  7  1  0  0  0  0
  9 10  1  0  0  0  0
 10 19  1  0  0  0  0
 10 18  1  0  0  0  0
 10 11  1  0  0  0  0
 11 20  1  0  0  0  0
 11 21  1  0  0  0  0
 13  3  1  0  0  0  0
 14  8  1  0  0  0  0
 15  8  1  0  0  0  0
 16  9  1  0  0  0  0
 17  9  1  0  0  0  0
 22 28  1  0  0  0  0
 23 24  1  0  0  0  0
 23 22  1  0  0  0  0
 24 25  1  0  0  0  0
 25 26  1  0  0  0  0
 25 27  1  0  0  0  0
 28 27  1  0  0  0  0
M  END
>  <minimizedAffinity>
-4.99288464

$$$$

 OpenBabel03272510073D

 28 30  0  0  0  0  0  0  0  0999 V2000
   37.7620   25.1480   33.6930 C   0  0  0  0  0  0  0  0  0  0  0  0
   37.9350   25.4990   35.0360 C   0  0  0  0  0  0  0  0  0  0  0  0
   37.6290   26.8040   35.4230 C   0  0  0  0  0  0  0  0  0  0  0  0
   37.1800   27.6720   34.4800 N   0  0  0  0  0  0  0  0  0  0  0  0
   37.0230   27.3130   33.2010 C   0  0  0  0  0  0  0  0  0  0  0  0
   37.3060   26.0720   32.7960 N   0  0  0  0  0  0  0  0  0  0  0  0
   36.5430   28.2850   32.2610 N   0  0  0  0  0  0  0  0  0  0  0  0
   35.2560   28.9630   32.4040 C   0  0  0  0  0  0  0  0  0  0  0  0
   35.2870   30.0560   31.3960 C   0  0  0  0  0  0  0  0  0  0  0  0
   36.6840   30.0960   30.8440 C   0  0  0  0  0  0  0  0  0  0  0  0
   37.2330   28.7280   31.0710 C   0  0  0  0  0  0  0  0  0  0  0  0
   37.9520   24.1990   33.2540 H   0  0  0  0  0  0  0  0  0  0  0  0
   37.7610   27.0700   36.4450 H   0  0  0  0  0  0  0  0  0  0  0  0
   34.4610   28.2050   32.2200 H   0  0  0  0  0  0  0  0  0  0  0  0
   35.1190   29.3010   33.4520 H   0  0  0  0  0  0  0  0  0  0  0  0
   35.1240   31.0220   31.9500 H   0  0  0  0  0  0  0  0  0  0  0  0
   34.5110   29.9720   30.6240 H   0  0  0  0  0  0  0  0  0  0  0  0
   36.5690   30.2460   29.7340 H   0  0  0  0  0  0  0  0  0  0  0  0
   37.2970   30.9270   31.2050 H   0  0  0  0  0  0  0  0  0  0  0  0
   37.1250   28.0340   30.2180 H   0  0  0  0  0  0  0  0  0  0  0  0
   38.3120   28.8420   31.3110 H   0  0  0  0  0  0  0  0  0  0  0  0
   38.4100   24.4930   35.9080 N   0  0  0  0  0  0  0  0  0  0  0  0
   38.1400   24.6160   37.3050 C   0  0  0  0  0  2  0  0  0  0  0  0
   38.4090   23.3450   38.0760 C   0  0  0  0  0  2  0  0  0  0  0  0
   39.8070   22.8240   37.8410 C   0  0  0  0  0  3  0  0  0  0  0  0
   40.5540   23.2110   38.5610 H   0  0  0  0  0  0  0  0  0  0  0  0
   40.3050   23.1510   36.4530 C   0  0  0  0  0  2  0  0  0  0  0  0
   39.1580   23.3320   35.4700 C   0  0  0  0  0  2  0  0  0  0  0  0
  1  2  1  0  0  0  0
  2  3  2  0  0  0  0
  2 22  1  0  0  0  0
  3 13  1  0  0  0  0
  4  3  1  0  0  0  0
  5  4  2  0  0  0  0
  6  5  1  0  0  0  0
  6  1  2  0  0  0  0
  7  8  1  0  0  0  0
  7  5  1  0  0  0  0
  8 15  1  0  0  0  0
  9 16  1  0  0  0  0
  9  8  1  0  0  0  0
 10 11  1  0  0  0  0
 10 19  1  0  0  0  0
 10  9  1  0  0  0  0
 11 21  1  0  0  0  0
 11  7  1  0  0  0  0
 12  1  1  0  0  0  0
 14  8  1  0  0  0  0
 17  9  1  0  0  0  0
 18 10  1  0  0  0  0
 20 11  1  0  0  0  0
 22 23  1  0  0  0  0
 23 24  1  0  0  0  0
 25 24  1  0  0  0  0
 25 26  1  0  0  0  0
 27 25  1  0  0  0  0
 28 22  1  0  0  0  0
 28 27  1  0  0  0  0
M  END
>  <minimizedAffinity>
-4.83857918

$$$$

 OpenBabel03272510073D

 28 30  0  0  0  0  0  0  0  0999 V2000
   35.4520   24.1360   31.0300 C   0  0  0  0  0  0  0  0  0  0  0  0
   36.2790   23.5690   32.0060 C   0  0  0  0  0  0  0  0  0  0  0  0
   37.1220   24.4120   32.7300 C   0  0  0  0  0  0  0  0  0  0  0  0
   37.1030   25.7410   32.4540 N   0  0  0  0  0  0  0  0  0  0  0  0
   36.3040   26.2610   31.5170 C   0  0  0  0  0  0  0  0  0  0  0  0
   35.4840   25.4840   30.8040 N   0  0  0  0  0  0  0  0  0  0  0  0
   36.3380   27.6760   31.2810 N   0  0  0  0  0  0  0  0  0  0  0  0
   36.0430   28.6630   32.3190 C   0  0  0  0  0  0  0  0  0  0  0  0
   36.4610   29.9660   31.7350 C   0  0  0  0  0  0  0  0  0  0  0  0
   37.1750   29.6550   30.4510 C   0  0  0  0  0  0  0  0  0  0  0  0
   36.6590   28.3220   30.0280 C   0  0  0  0  0  0  0  0  0  0  0  0
   34.7620   23.6250   30.4050 H   0  0  0  0  0  0  0  0  0  0  0  0
   37.7500   23.9780   33.4720 H   0  0  0  0  0  0  0  0  0  0  0  0
   34.9530   28.5960   32.5370 H   0  0  0  0  0  0  0  0  0  0  0  0
   36.5610   28.3890   33.2620 H   0  0  0  0  0  0  0  0  0  0  0  0
   37.2190   30.4140   32.4350 H   0  0  0  0  0  0  0  0  0  0  0  0
   35.6390   30.6840   31.6190 H   0  0  0  0  0  0  0  0  0  0  0  0
   36.8130   30.4200   29.7070 H   0  0  0  0  0  0  0  0  0  0  0  0
   38.2640   29.7590   30.4940 H   0  0  0  0  0  0  0  0  0  0  0  0
   35.8110   28.3510   29.3220 H   0  0  0  0  0  0  0  0  0  0  0  0
   37.5040   27.7750   29.5570 H   0  0  0  0  0  0  0  0  0  0  0  0
   36.1930   22.1690   32.1860 N   0  0  0  0  0  0  0  0  0  0  0  0
   35.5800   21.3860   31.1610 C   0  0  0  0  0  2  0  0  0  0  0  0
   35.8340   19.9040   31.3140 C   0  0  0  0  0  2  0  0  0  0  0  0
   35.4450   19.4010   32.6840 C   0  0  0  0  0  3  0  0  0  0  0  0
   34.3970   19.0490   32.7490 H   0  0  0  0  0  0  0  0  0  0  0  0
   35.6340   20.4560   33.7480 C   0  0  0  0  0  2  0  0  0  0  0  0
   36.6950   21.4720   33.3520 C   0  0  0  0  0  2  0  0  0  0  0  0
  1  2  1  0  0  0  0
  2 22  1  0  0  0  0
  2  3  2  0  0  0  0
  3 13  1  0  0  0  0
  4  3  1  0  0  0  0
  5  4  2  0  0  0  0
  6  1  2  0  0  0  0
  6  5  1  0  0  0  0
  7  5  1  0  0  0  0
  7  8  1  0  0  0  0
  8 14  1  0  0  0  0
  8 15  1  0  0  0  0
  9  8  1  0  0  0  0
  9 16  1  0  0  0  0
 10 19  1  0  0  0  0
 10  9  1  0  0  0  0
 11 10  1  0  0  0  0
 11  7  1  0  0  0  0
 12  1  1  0  0  0  0
 17  9  1  0  0  0  0
 18 10  1  0  0  0  0
 20 11  1  0  0  0  0
 21 11  1  0  0  0  0
 22 28  1  0  0  0  0
 23 24  1  0  0  0  0
 23 22  1  0  0  0  0
 24 25  1  0  0  0  0
 25 26  1  0  0  0  0
 25 27  1  0  0  0  0
 28 27  1  0  0  0  0
M  END
>  <minimizedAffinity>
-4.83510494

$$$$

 OpenBabel03272510073D

 28 30  0  0  0  0  0  0  0  0999 V2000
   34.9110   29.2200   32.8820 C   0  0  0  0  0  0  0  0  0  0  0  0
   35.4930   29.3660   34.1460 C   0  0  0  0  0  0  0  0  0  0  0  0
   36.4490   28.4310   34.5460 C   0  0  0  0  0  0  0  0  0  0  0  0
   36.7680   27.4250   33.6930 N   0  0  0  0  0  0  0  0  0  0  0  0
   36.1990   27.3060   32.4890 C   0  0  0  0  0  0  0  0  0  0  0  0
   35.2800   28.1820   32.0730 N   0  0  0  0  0  0  0  0  0  0  0  0
   36.5870   26.2160   31.6410 N   0  0  0  0  0  0  0  0  0  0  0  0
   37.9640   26.0050   31.1960 C   0  0  0  0  0  0  0  0  0  0  0  0
   37.9650   24.6470   30.5890 C   0  0  0  0  0  0  0  0  0  0  0  0
   36.6260   24.0370   30.8920 C   0  0  0  0  0  0  0  0  0  0  0  0
   35.7110   25.1930   31.1150 C   0  0  0  0  0  0  0  0  0  0  0  0
   34.1750   29.8490   32.4440 H   0  0  0  0  0  0  0  0  0  0  0  0
   36.8900   28.5440   35.5080 H   0  0  0  0  0  0  0  0  0  0  0  0
   38.2060   26.8200   30.4750 H   0  0  0  0  0  0  0  0  0  0  0  0
   38.6630   26.1340   32.0490 H   0  0  0  0  0  0  0  0  0  0  0  0
   38.7360   24.0400   31.1400 H   0  0  0  0  0  0  0  0  0  0  0  0
   38.2220   24.6370   29.5220 H   0  0  0  0  0  0  0  0  0  0  0  0
   36.3070   23.5180   29.9450 H   0  0  0  0  0  0  0  0  0  0  0  0
   36.6360   23.2720   31.6750 H   0  0  0  0  0  0  0  0  0  0  0  0
   35.1430   25.5190   30.2260 H   0  0  0  0  0  0  0  0  0  0  0  0
   34.9960   24.8980   31.9130 H   0  0  0  0  0  0  0  0  0  0  0  0
   35.0640   30.4630   34.9290 N   0  0  0  0  0  0  0  0  0  0  0  0
   36.0310   31.1600   35.7150 C   0  0  0  0  0  2  0  0  0  0  0  0
   35.5250   32.4830   36.2410 C   0  0  0  0  0  2  0  0  0  0  0  0
   34.2240   32.3330   36.9930 C   0  0  0  0  0  3  0  0  0  0  0  0
   34.3540   32.1520   38.0780 H   0  0  0  0  0  0  0  0  0  0  0  0
   33.3810   31.2070   36.4450 C   0  0  0  0  0  2  0  0  0  0  0  0
   33.6940   30.9290   34.9820 C   0  0  0  0  0  2  0  0  0  0  0  0
  1  2  1  0  0  0  0
  2  3  2  0  0  0  0
  2 22  1  0  0  0  0
  3 13  1  0  0  0  0
  4  3  1  0  0  0  0
  5  4  2  0  0  0  0
  6  5  1  0  0  0  0
  6  1  2  0  0  0  0
  7  5  1  0  0  0  0
  8  7  1  0  0  0  0
  8 15  1  0  0  0  0
  9 10  1  0  0  0  0
  9 16  1  0  0  0  0
  9  8  1  0  0  0  0
 10 11  1  0  0  0  0
 10 19  1  0  0  0  0
 11  7  1  0  0  0  0
 11 21  1  0  0  0  0
 12  1  1  0  0  0  0
 14  8  1  0  0  0  0
 17  9  1  0  0  0  0
 18 10  1  0  0  0  0
 20 11  1  0  0  0  0
 22 28  1  0  0  0  0
 22 23  1  0  0  0  0
 23 24  1  0  0  0  0
 24 25  1  0  0  0  0
 25 26  1  0  0  0  0
 27 25  1  0  0  0  0
 28 27  1  0  0  0  0
M  END
>  <minimizedAffinity>
-4.77702045

$$$$

 OpenBabel03272510073D

 28 30  0  0  0  0  0  0  0  0999 V2000
   37.3290   25.4190   32.1350 C   0  0  0  0  0  0  0  0  0  0  0  0
   36.2970   26.1750   31.5710 C   0  0  0  0  0  0  0  0  0  0  0  0
   35.1960   25.5010   31.0410 C   0  0  0  0  0  0  0  0  0  0  0  0
   35.1770   24.1450   31.0980 N   0  0  0  0  0  0  0  0  0  0  0  0
   36.1750   23.4420   31.6440 C   0  0  0  0  0  0  0  0  0  0  0  0
   37.2450   24.0540   32.1590 N   0  0  0  0  0  0  0  0  0  0  0  0
   36.0850   22.0110   31.6680 N   0  0  0  0  0  0  0  0  0  0  0  0
   34.9960   21.2930   32.3280 C   0  0  0  0  0  0  0  0  0  0  0  0
   35.1410   19.8830   31.8790 C   0  0  0  0  0  0  0  0  0  0  0  0
   36.1940   19.8760   30.8080 C   0  0  0  0  0  0  0  0  0  0  0  0
   37.0220   21.0900   31.0650 C   0  0  0  0  0  0  0  0  0  0  0  0
   38.2230   25.7890   32.5740 H   0  0  0  0  0  0  0  0  0  0  0  0
   34.4110   26.0790   30.6120 H   0  0  0  0  0  0  0  0  0  0  0  0
   35.1270   21.4310   33.4260 H   0  0  0  0  0  0  0  0  0  0  0  0
   34.0230   21.7630   32.0750 H   0  0  0  0  0  0  0  0  0  0  0  0
   34.1710   19.5900   31.3900 H   0  0  0  0  0  0  0  0  0  0  0  0
   35.3390   19.1750   32.6950 H   0  0  0  0  0  0  0  0  0  0  0  0
   36.8320   18.9700   31.0120 H   0  0  0  0  0  0  0  0  0  0  0  0
   35.8120   19.7620   29.7880 H   0  0  0  0  0  0  0  0  0  0  0  0
   37.9240   20.9190   31.6800 H   0  0  0  0  0  0  0  0  0  0  0  0
   37.3280   21.4960   30.0780 H   0  0  0  0  0  0  0  0  0  0  0  0
   36.4510   27.5810   31.5800 N   0  0  0  0  0  0  0  0  0  0  0  0
   35.4370   28.3740   32.1980 C   0  0  0  0  0  2  0  0  0  0  0  0
   35.8610   29.8060   32.4290 C   0  0  0  0  0  2  0  0  0  0  0  0
   36.3610   30.4590   31.1630 C   0  0  0  0  0  3  0  0  0  0  0  0
   35.5690   30.9730   30.5830 H   0  0  0  0  0  0  0  0  0  0  0  0
   37.0260   29.4670   30.2390 C   0  0  0  0  0  2  0  0  0  0  0  0
   37.5830   28.2730   31.0010 C   0  0  0  0  0  2  0  0  0  0  0  0
  1  6  1  0  0  0  0
  1 12  1  0  0  0  0
  2 22  1  0  0  0  0
  2  1  2  0  0  0  0
  3  4  2  0  0  0  0
  3  2  1  0  0  0  0
  4  5  1  0  0  0  0
  5  7  1  0  0  0  0
  5  6  2  0  0  0  0
  7  8  1  0  0  0  0
  8 14  1  0  0  0  0
  9  8  1  0  0  0  0
  9 17  1  0  0  0  0
 10 18  1  0  0  0  0
 10 11  1  0  0  0  0
 10  9  1  0  0  0  0
 11  7  1  0  0  0  0
 11 20  1  0  0  0  0
 13  3  1  0  0  0  0
 15  8  1  0  0  0  0
 16  9  1  0  0  0  0
 19 10  1  0  0  0  0
 21 11  1  0  0  0  0
 22 23  1  0  0  0  0
 23 24  1  0  0  0  0
 25 24  1  0  0  0  0
 26 25  1  0  0  0  0
 27 28  1  0  0  0  0
 27 25  1  0  0  0  0
 28 22  1  0  0  0  0
M  END
>  <minimizedAffinity>
-4.72015953

$$$$

 OpenBabel03272510073D

 28 30  0  0  0  0  0  0  0  0999 V2000
   37.7460   26.8210   35.5320 C   0  0  0  0  0  0  0  0  0  0  0  0
   37.8360   25.5320   34.9960 C   0  0  0  0  0  0  0  0  0  0  0  0
   37.4230   25.3340   33.6780 C   0  0  0  0  0  0  0  0  0  0  0  0
   36.9540   26.3980   32.9780 N   0  0  0  0  0  0  0  0  0  0  0  0
   36.8780   27.6220   33.5110 C   0  0  0  0  0  0  0  0  0  0  0  0
   37.2630   27.8490   34.7700 N   0  0  0  0  0  0  0  0  0  0  0  0
   36.3720   28.6990   32.7100 N   0  0  0  0  0  0  0  0  0  0  0  0
   36.9830   29.1060   31.4460 C   0  0  0  0  0  0  0  0  0  0  0  0
   36.0020   30.0400   30.8320 C   0  0  0  0  0  0  0  0  0  0  0  0
   34.7610   29.9810   31.6750 C   0  0  0  0  0  0  0  0  0  0  0  0
   35.2210   29.5180   33.0160 C   0  0  0  0  0  0  0  0  0  0  0  0
   38.0200   27.1230   36.5130 H   0  0  0  0  0  0  0  0  0  0  0  0
   37.4920   24.3520   33.2720 H   0  0  0  0  0  0  0  0  0  0  0  0
   37.9630   29.5780   31.6890 H   0  0  0  0  0  0  0  0  0  0  0  0
   37.2180   28.2110   30.8330 H   0  0  0  0  0  0  0  0  0  0  0  0
   35.7350   29.6230   29.8210 H   0  0  0  0  0  0  0  0  0  0  0  0
   36.3880   31.0580   30.6880 H   0  0  0  0  0  0  0  0  0  0  0  0
   34.4090   31.0460   31.7760 H   0  0  0  0  0  0  0  0  0  0  0  0
   33.9300   29.4220   31.2320 H   0  0  0  0  0  0  0  0  0  0  0  0
   35.4380   30.3250   33.7390 H   0  0  0  0  0  0  0  0  0  0  0  0
   34.4240   28.8650   33.4310 H   0  0  0  0  0  0  0  0  0  0  0  0
   38.3440   24.5190   35.8410 N   0  0  0  0  0  0  0  0  0  0  0  0
   38.1070   24.6190   37.2460 C   0  0  0  0  0  2  0  0  0  0  0  0
   38.4090   23.3400   37.9920 C   0  0  0  0  0  2  0  0  0  0  0  0
   39.8060   22.8400   37.7140 C   0  0  0  0  0  3  0  0  0  0  0  0
   40.5670   23.2240   38.4220 H   0  0  0  0  0  0  0  0  0  0  0  0
   40.2660   23.1920   36.3210 C   0  0  0  0  0  2  0  0  0  0  0  0
   39.0940   23.3740   35.3680 C   0  0  0  0  0  2  0  0  0  0  0  0
  1 12  1  0  0  0  0
  2  1  1  0  0  0  0
  2 22  1  0  0  0  0
  3  2  2  0  0  0  0
  4  5  2  0  0  0  0
  4  3  1  0  0  0  0
  5  6  1  0  0  0  0
  6  1  2  0  0  0  0
  7 11  1  0  0  0  0
  7  5  1  0  0  0  0
  8 14  1  0  0  0  0
  8  7  1  0  0  0  0
  9  8  1  0  0  0  0
  9 10  1  0  0  0  0
 10 18  1  0  0  0  0
 10 11  1  0  0  0  0
 11 21  1  0  0  0  0
 11 20  1  0  0  0  0
 13  3  1  0  0  0  0
 15  8  1  0  0  0  0
 16  9  1  0  0  0  0
 17  9  1  0  0  0  0
 19 10  1  0  0  0  0
 22 23  1  0  0  0  0
 23 24  1  0  0  0  0
 25 24  1  0  0  0  0
 25 26  1  0  0  0  0
 27 25  1  0  0  0  0
 28 22  1  0  0  0  0
 28 27  1  0  0  0  0
M  END
>  <minimizedAffinity>
-4.68445063

$$$$

 OpenBabel03272510073D

 28 30  0  0  0  0  0  0  0  0999 V2000
   36.9550   26.0120   32.1900 C   0  0  0  0  0  0  0  0  0  0  0  0
   35.8900   26.6290   31.5250 C   0  0  0  0  0  0  0  0  0  0  0  0
   34.9370   25.8190   30.9080 C   0  0  0  0  0  0  0  0  0  0  0  0
   35.0870   24.4710   30.9800 N   0  0  0  0  0  0  0  0  0  0  0  0
   36.1130   23.9030   31.6230 C   0  0  0  0  0  0  0  0  0  0  0  0
   37.0450   24.6490   32.2240 N   0  0  0  0  0  0  0  0  0  0  0  0
   36.2060   22.4720   31.6580 N   0  0  0  0  0  0  0  0  0  0  0  0
   35.1620   21.6210   32.2260 C   0  0  0  0  0  0  0  0  0  0  0  0
   35.5270   20.2410   31.8100 C   0  0  0  0  0  0  0  0  0  0  0  0
   36.6650   20.3680   30.8390 C   0  0  0  0  0  0  0  0  0  0  0  0
   37.3030   21.6790   31.1530 C   0  0  0  0  0  0  0  0  0  0  0  0
   37.7510   26.4950   32.7020 H   0  0  0  0  0  0  0  0  0  0  0  0
   34.1280   26.2900   30.4020 H   0  0  0  0  0  0  0  0  0  0  0  0
   35.1730   21.7770   33.3290 H   0  0  0  0  0  0  0  0  0  0  0  0
   34.1630   21.9620   31.8800 H   0  0  0  0  0  0  0  0  0  0  0  0
   34.6500   19.8250   31.2400 H   0  0  0  0  0  0  0  0  0  0  0  0
   35.7380   19.5650   32.6500 H   0  0  0  0  0  0  0  0  0  0  0  0
   37.3920   19.5520   31.1110 H   0  0  0  0  0  0  0  0  0  0  0  0
   36.3950   20.2040   29.7900 H   0  0  0  0  0  0  0  0  0  0  0  0
   38.1600   21.6260   31.8490 H   0  0  0  0  0  0  0  0  0  0  0  0
   37.6440   22.1190   30.1920 H   0  0  0  0  0  0  0  0  0  0  0  0
   35.8610   28.0430   31.5300 N   0  0  0  0  0  0  0  0  0  0  0  0
   36.8080   28.7480   30.7260 C   0  0  0  0  0  2  0  0  0  0  0  0
   36.4760   30.2130   30.5650 C   0  0  0  0  0  2  0  0  0  0  0  0
   36.2800   30.8990   31.8950 C   0  0  0  0  0  3  0  0  0  0  0  0
   37.2090   31.3370   32.3120 H   0  0  0  0  0  0  0  0  0  0  0  0
   35.7150   29.9630   32.9370 C   0  0  0  0  0  2  0  0  0  0  0  0
   34.9230   28.8290   32.3040 C   0  0  0  0  0  2  0  0  0  0  0  0
  1  6  1  0  0  0  0
  1 12  1  0  0  0  0
  2 22  1  0  0  0  0
  2  1  2  0  0  0  0
  3  4  2  0  0  0  0
  3  2  1  0  0  0  0
  4  5  1  0  0  0  0
  5  7  1  0  0  0  0
  5  6  2  0  0  0  0
  7  8  1  0  0  0  0
  8 14  1  0  0  0  0
  9  8  1  0  0  0  0
  9 17  1  0  0  0  0
 10 18  1  0  0  0  0
 10 11  1  0  0  0  0
 10  9  1  0  0  0  0
 11  7  1  0  0  0  0
 11 20  1  0  0  0  0
 13  3  1  0  0  0  0
 15  8  1  0  0  0  0
 16  9  1  0  0  0  0
 19 10  1  0  0  0  0
 21 11  1  0  0  0  0
 22 28  1  0  0  0  0
 23 22  1  0  0  0  0
 24 23  1  0  0  0  0
 24 25  1  0  0  0  0
 25 26  1  0  0  0  0
 25 27  1  0  0  0  0
 28 27  1  0  0  0  0
M  END
>  <minimizedAffinity>
-4.62057686

$$$$

 OpenBabel03272510073D

 28 30  0  0  0  0  0  0  0  0999 V2000
   36.5150   28.4050   34.6980 C   0  0  0  0  0  0  0  0  0  0  0  0
   35.5860   29.2540   34.0890 C   0  0  0  0  0  0  0  0  0  0  0  0
   35.1680   28.9550   32.7910 C   0  0  0  0  0  0  0  0  0  0  0  0
   35.6830   27.8570   32.1820 N   0  0  0  0  0  0  0  0  0  0  0  0
   36.5700   27.0590   32.7840 C   0  0  0  0  0  0  0  0  0  0  0  0
   36.9930   27.3140   34.0260 N   0  0  0  0  0  0  0  0  0  0  0  0
   37.0700   25.9150   32.0770 N   0  0  0  0  0  0  0  0  0  0  0  0
   36.2040   24.8500   31.5730 C   0  0  0  0  0  0  0  0  0  0  0  0
   37.0780   24.0360   30.6870 C   0  0  0  0  0  0  0  0  0  0  0  0
   38.3730   24.7840   30.5510 C   0  0  0  0  0  0  0  0  0  0  0  0
   38.4550   25.6480   31.7630 C   0  0  0  0  0  0  0  0  0  0  0  0
   36.9230   28.5030   35.6750 H   0  0  0  0  0  0  0  0  0  0  0  0
   34.4610   29.6020   32.3290 H   0  0  0  0  0  0  0  0  0  0  0  0
   35.8160   24.2940   32.4560 H   0  0  0  0  0  0  0  0  0  0  0  0
   35.3150   25.2890   31.0730 H   0  0  0  0  0  0  0  0  0  0  0  0
   36.5960   24.0220   29.6690 H   0  0  0  0  0  0  0  0  0  0  0  0
   37.2020   22.9970   31.0180 H   0  0  0  0  0  0  0  0  0  0  0  0
   39.1840   24.0050   30.6220 H   0  0  0  0  0  0  0  0  0  0  0  0
   38.5140   25.2880   29.5890 H   0  0  0  0  0  0  0  0  0  0  0  0
   39.0200   25.2150   32.6080 H   0  0  0  0  0  0  0  0  0  0  0  0
   38.9370   26.6010   31.4570 H   0  0  0  0  0  0  0  0  0  0  0  0
   35.1360   30.3620   34.8430 N   0  0  0  0  0  0  0  0  0  0  0  0
   36.0680   31.0340   35.6900 C   0  0  0  0  0  2  0  0  0  0  0  0
   35.5640   32.3710   36.1850 C   0  0  0  0  0  2  0  0  0  0  0  0
   34.2150   32.2550   36.8520 C   0  0  0  0  0  3  0  0  0  0  0  0
   34.2700   32.0710   37.9430 H   0  0  0  0  0  0  0  0  0  0  0  0
   33.3790   31.1510   36.2500 C   0  0  0  0  0  2  0  0  0  0  0  0
   33.7780   30.8630   34.8100 C   0  0  0  0  0  2  0  0  0  0  0  0
  1 12  1  0  0  0  0
  2  1  1  0  0  0  0
  2 22  1  0  0  0  0
  3  2  2  0  0  0  0
  4  5  2  0  0  0  0
  4  3  1  0  0  0  0
  5  6  1  0  0  0  0
  6  1  2  0  0  0  0
  7  5  1  0  0  0  0
  8  7  1  0  0  0  0
  8 14  1  0  0  0  0
  9 17  1  0  0  0  0
  9  8  1  0  0  0  0
 10 18  1  0  0  0  0
 10  9  1  0  0  0  0
 10 11  1  0  0  0  0
 11  7  1  0  0  0  0
 11 20  1  0  0  0  0
 13  3  1  0  0  0  0
 15  8  1  0  0  0  0
 16  9  1  0  0  0  0
 19 10  1  0  0  0  0
 21 11  1  0  0  0  0
 22 23  1  0  0  0  0
 23 24  1  0  0  0  0
 24 25  1  0  0  0  0
 25 26  1  0  0  0  0
 27 25  1  0  0  0  0
 28 22  1  0  0  0  0
 28 27  1  0  0  0  0
M  END
>  <minimizedAffinity>
-4.60191536

$$$$

 OpenBabel03272510073D

 28 30  0  0  0  0  0  0  0  0999 V2000
   38.7640   24.7730   33.4640 C   0  0  0  0  0  0  0  0  0  0  0  0
   38.2210   25.3000   34.6410 C   0  0  0  0  0  0  0  0  0  0  0  0
   37.6230   26.5590   34.5870 C   0  0  0  0  0  0  0  0  0  0  0  0
   37.5970   27.2140   33.3980 N   0  0  0  0  0  0  0  0  0  0  0  0
   38.1230   26.6900   32.2860 C   0  0  0  0  0  0  0  0  0  0  0  0
   38.7030   25.4870   32.3010 N   0  0  0  0  0  0  0  0  0  0  0  0
   38.0570   27.4410   31.0650 N   0  0  0  0  0  0  0  0  0  0  0  0
   36.7970   27.8760   30.4660 C   0  0  0  0  0  0  0  0  0  0  0  0
   37.1930   28.8350   29.4000 C   0  0  0  0  0  0  0  0  0  0  0  0
   38.6670   29.0750   29.5600 C   0  0  0  0  0  0  0  0  0  0  0  0
   39.1850   27.8700   30.2690 C   0  0  0  0  0  0  0  0  0  0  0  0
   39.2480   23.8330   33.3520 H   0  0  0  0  0  0  0  0  0  0  0  0
   37.2110   26.9580   35.4830 H   0  0  0  0  0  0  0  0  0  0  0  0
   36.2820   26.9660   30.0820 H   0  0  0  0  0  0  0  0  0  0  0  0
   36.1310   28.2990   31.2460 H   0  0  0  0  0  0  0  0  0  0  0  0
   36.6750   29.8090   29.6210 H   0  0  0  0  0  0  0  0  0  0  0  0
   36.9060   28.5190   28.3880 H   0  0  0  0  0  0  0  0  0  0  0  0
   39.0920   29.0740   28.5160 H   0  0  0  0  0  0  0  0  0  0  0  0
   38.9310   30.0420   29.9990 H   0  0  0  0  0  0  0  0  0  0  0  0
   39.5840   27.0760   29.6130 H   0  0  0  0  0  0  0  0  0  0  0  0
   39.9900   28.2110   30.9550 H   0  0  0  0  0  0  0  0  0  0  0  0
   38.3210   24.5060   35.8070 N   0  0  0  0  0  0  0  0  0  0  0  0
   38.0780   25.1200   37.0730 C   0  0  0  0  0  2  0  0  0  0  0  0
   37.8980   24.1200   38.1920 C   0  0  0  0  0  2  0  0  0  0  0  0
   39.0500   23.1480   38.2750 C   0  0  0  0  0  3  0  0  0  0  0  0
   39.8690   23.4830   38.9430 H   0  0  0  0  0  0  0  0  0  0  0  0
   39.6560   22.8740   36.9200 C   0  0  0  0  0  2  0  0  0  0  0  0
   38.6530   23.0960   35.7980 C   0  0  0  0  0  2  0  0  0  0  0  0
  1  2  1  0  0  0  0
  2 22  1  0  0  0  0
  3  2  2  0  0  0  0
  3 13  1  0  0  0  0
  4  3  1  0  0  0  0
  5  6  1  0  0  0  0
  5  4  2  0  0  0  0
  6  1  2  0  0  0  0
  7  5  1  0  0  0  0
  8  7  1  0  0  0  0
  8 15  1  0  0  0  0
  9 10  1  0  0  0  0
  9 16  1  0  0  0  0
  9  8  1  0  0  0  0
 10 19  1  0  0  0  0
 10 11  1  0  0  0  0
 11 21  1  0  0  0  0
 11  7  1  0  0  0  0
 12  1  1  0  0  0  0
 14  8  1  0  0  0  0
 17  9  1  0  0  0  0
 18 10  1  0  0  0  0
 20 11  1  0  0  0  0
 22 23  1  0  0  0  0
 23 24  1  0  0  0  0
 24 25  1  0  0  0  0
 25 26  1  0  0  0  0
 27 25  1  0  0  0  0
 28 22  1  0  0  0  0
 28 27  1  0  0  0  0
M  END
>  <minimizedAffinity>
-4.56917429

$$$$
