
 OpenBabel03272510323D

 26 28  0  0  0  0  0  0  0  0999 V2000
   37.7670   30.9470   47.2970 C   0  0  0  0  0  0  0  0  0  0  0  0
   37.8750   30.8250   48.6590 C   0  0  0  0  0  0  0  0  0  0  0  0
   36.8460   30.3180   49.4230 C   0  0  0  0  0  0  0  0  0  0  0  0
   35.6840   29.9270   48.7680 C   0  0  0  0  0  0  0  0  0  0  0  0
   35.5490   30.0390   47.3830 C   0  0  0  0  0  0  0  0  0  0  0  0
   36.6080   30.5560   46.6490 C   0  0  0  0  0  0  0  0  0  0  0  0
   38.7800   31.1280   49.1880 H   0  0  0  0  0  0  0  0  0  0  0  0
   36.9250   30.2190   50.5000 H   0  0  0  0  0  0  0  0  0  0  0  0
   34.9010   29.5340   49.4010 H   0  0  0  0  0  0  0  0  0  0  0  0
   34.6210   29.7180   46.9280 H   0  0  0  0  0  0  0  0  0  0  0  0
   40.7600   31.0610   45.2220 C   0  0  0  0  0  0  0  0  0  0  0  0
   41.1050   32.4100   45.1800 C   0  0  0  0  0  0  0  0  0  0  0  0
   40.2700   33.3130   45.8950 C   0  0  0  0  0  0  0  0  0  0  0  0
   39.2010   32.8170   46.5700 N   0  0  0  0  0  0  0  0  0  0  0  0
   38.9050   31.4930   46.5820 C   0  0  0  0  0  0  0  0  0  0  0  0
   39.6970   30.6340   45.9030 N   0  0  0  0  0  0  0  0  0  0  0  0
   41.3490   30.3180   44.7020 H   0  0  0  0  0  0  0  0  0  0  0  0
   41.9510   32.7650   44.6420 H   0  0  0  0  0  0  0  0  0  0  0  0
   40.4890   34.3870   45.9010 H   0  0  0  0  0  0  0  0  0  0  0  0
   36.4920   30.6820   45.2300 N   0  0  0  0  0  0  0  0  0  0  0  0
   36.8820   31.7880   44.3420 C   0  0  0  0  0  2  0  0  0  0  0  0
   35.8130   31.9700   43.2850 C   0  0  0  0  0  2  0  0  0  0  0  0
   35.5260   30.7070   42.5350 C   0  0  0  0  0  3  0  0  0  0  0  0
   34.4350   30.5060   42.5560 H   0  0  0  0  0  0  0  0  0  0  0  0
   36.1960   29.5000   43.1780 C   0  0  0  0  0  2  0  0  0  0  0  0
   35.8860   29.5020   44.6430 C   0  0  0  0  0  2  0  0  0  0  0  0
  1  2  1  0  0  0  0
  2  7  1  0  0  0  0
  2  3  2  0  0  0  0
  3  8  1  0  0  0  0
  4  9  1  0  0  0  0
  4  3  1  0  0  0  0
  5  4  2  0  0  0  0
  6  1  2  0  0  0  0
  6  5  1  0  0  0  0
 10  5  1  0  0  0  0
 11 16  1  0  0  0  0
 12 11  2  0  0  0  0
 12 13  1  0  0  0  0
 13 19  1  0  0  0  0
 13 14  2  0  0  0  0
 14 15  1  0  0  0  0
 15  1  1  0  0  0  0
 16 15  2  0  0  0  0
 17 11  1  0  0  0  0
 18 12  1  0  0  0  0
 20  6  1  0  0  0  0
 21 20  1  0  0  0  0
 22 21  1  0  0  0  0
 23 24  1  0  0  0  0
 23 25  1  0  0  0  0
 23 22  1  0  0  0  0
 25 26  1  0  0  0  0
 26 20  1  0  0  0  0
M  END
>  <minimizedAffinity>
-4.70099211

>  <minimizedRMSD>
5.79105186

$$$$
