
 OpenBabel03272510193D

 34 37  0  0  0  0  0  0  0  0999 V2000
   37.2310   29.2850   51.0030 Br  0  0  0  0  0  0  0  0  0  0  0  0
   35.9190   29.3290   49.6120 C   0  0  0  0  0  0  0  0  0  0  0  0
   35.9670   30.2920   48.6160 C   0  0  0  0  0  0  0  0  0  0  0  0
   34.9940   30.2580   47.6570 C   0  0  0  0  0  0  0  0  0  0  0  0
   33.9830   29.3310   47.6280 C   0  0  0  0  0  0  0  0  0  0  0  0
   33.9600   28.3890   48.6260 C   0  0  0  0  0  0  0  0  0  0  0  0
   34.9210   28.3930   49.6060 C   0  0  0  0  0  0  0  0  0  0  0  0
   35.0100   31.0010   46.8660 H   0  0  0  0  0  0  0  0  0  0  0  0
   33.1810   27.6360   48.6460 H   0  0  0  0  0  0  0  0  0  0  0  0
   34.8570   27.6250   50.3730 H   0  0  0  0  0  0  0  0  0  0  0  0
   32.9500   29.2960   46.6090 C   0  0  0  0  0  0  0  0  0  0  0  0
   32.3690   28.1400   46.1130 C   0  0  0  0  0  0  0  0  0  0  0  0
   31.3810   28.1590   45.1370 C   0  0  0  0  0  0  0  0  0  0  0  0
   30.9630   29.3290   44.6430 N   0  0  0  0  0  0  0  0  0  0  0  0
   31.5220   30.4670   45.1190 C   0  0  0  0  0  0  0  0  0  0  0  0
   32.4680   30.4270   46.0560 N   0  0  0  0  0  0  0  0  0  0  0  0
   32.7100   27.1910   46.5150 H   0  0  0  0  0  0  0  0  0  0  0  0
   30.9750   27.2220   44.7980 H   0  0  0  0  0  0  0  0  0  0  0  0
   31.0480   31.6910   44.5670 N   0  0  0  0  0  0  0  0  0  0  0  0
   31.5710   32.9520   44.9980 C   0  0  0  0  0  2  0  0  0  0  0  0
   31.5630   34.0260   43.9600 C   0  0  0  0  0  2  0  0  0  0  0  0
   30.5410   33.8700   42.8980 C   0  0  0  0  0  3  0  0  0  0  0  0
   30.1180   34.8650   42.6480 H   0  0  0  0  0  0  0  0  0  0  0  0
   29.3920   32.9770   43.2960 C   0  0  0  0  0  2  0  0  0  0  0  0
   30.0080   31.6180   43.5440 C   0  0  0  0  0  2  0  0  0  0  0  0
   37.9130   33.2130   49.6110 C   0  0  0  0  0  0  0  0  0  0  0  0
   38.9850   33.2310   48.6540 C   0  0  0  0  0  0  0  0  0  0  0  0
   39.0050   32.2420   47.6980 C   0  0  0  0  0  0  0  0  0  0  0  0
   38.0180   31.2980   47.7020 N   0  0  0  0  0  0  0  0  0  0  0  0
   37.0230   31.2970   48.6070 C   0  0  0  0  0  0  0  0  0  0  0  0
   36.9750   32.2660   49.5680 N   0  0  0  0  0  0  0  0  0  0  0  0
   37.9190   34.0080   50.3590 H   0  0  0  0  0  0  0  0  0  0  0  0
   39.7460   33.9980   48.6860 H   0  0  0  0  0  0  0  0  0  0  0  0
   39.7730   32.1820   46.9430 H   0  0  0  0  0  0  0  0  0  0  0  0
  2  1  1  0  0  0  0
  3  2  2  0  0  0  0
  4  3  1  0  0  0  0
  5  4  2  0  0  0  0
  5  6  1  0  0  0  0
  6  9  1  0  0  0  0
  6  7  2  0  0  0  0
  7  2  1  0  0  0  0
  7 10  1  0  0  0  0
  8  4  1  0  0  0  0
 11  5  1  0  0  0  0
 12 17  1  0  0  0  0
 12 11  1  0  0  0  0
 13 12  2  0  0  0  0
 14 15  2  0  0  0  0
 14 13  1  0  0  0  0
 15 16  1  0  0  0  0
 16 11  2  0  0  0  0
 18 13  1  0  0  0  0
 19 20  1  0  0  0  0
 19 15  1  0  0  0  0
 21 20  1  0  0  0  0
 22 24  1  0  0  0  0
 22 21  1  0  0  0  0
 23 22  1  0  0  0  0
 24 25  1  0  0  0  0
 25 19  1  0  0  0  0
 26 32  1  0  0  0  0
 27 33  1  0  0  0  0
 27 26  2  0  0  0  0
 28 29  2  0  0  0  0
 28 27  1  0  0  0  0
 29 30  1  0  0  0  0
 30  3  1  0  0  0  0
 30 31  2  0  0  0  0
 31 26  1  0  0  0  0
 34 28  1  0  0  0  0
M  END
>  <minimizedAffinity>
-6.87879324

>  <minimizedRMSD>
0.195716754

$$$$
