
 OpenBabel03262523373D

 43 46  0  0  1  0  0  0  0  0999 V2000
   35.2430   29.9790   49.8090 C   0  0  2  0  0  0  0  0  0  0  0  0
   36.1560   31.0470   49.3250 C   0  0  0  0  0  0  0  0  0  0  0  0
   37.6320   30.7200   49.5530 C   0  0  2  0  0  0  0  0  0  0  0  0
   37.8770   30.6040   51.0380 C   0  0  0  0  0  0  0  0  0  0  0  0
   36.8610   29.7000   51.7130 C   0  0  0  0  0  0  0  0  0  0  0  0
   35.9700   29.0090   50.7160 C   0  0  0  0  0  0  0  0  0  0  0  0
   34.3750   30.3510   50.4180 H   0  0  0  0  0  0  0  0  0  0  0  0
   36.0430   31.4990   48.3790 H   0  0  0  0  0  0  0  0  0  0  0  0
   35.9950   31.9070   50.0740 H   0  0  0  0  0  0  0  0  0  0  0  0
   37.7750   29.7070   49.1260 H   0  0  0  0  0  0  0  0  0  0  0  0
   37.7470   31.6170   51.4840 H   0  0  0  0  0  0  0  0  0  0  0  0
   38.8870   30.2410   51.2460 H   0  0  0  0  0  0  0  0  0  0  0  0
   36.2210   30.2450   52.4330 H   0  0  0  0  0  0  0  0  0  0  0  0
   37.3850   28.8940   52.2710 H   0  0  0  0  0  0  0  0  0  0  0  0
   36.5430   28.2430   50.1260 H   0  0  0  0  0  0  0  0  0  0  0  0
   35.2020   28.4490   51.2840 H   0  0  0  0  0  0  0  0  0  0  0  0
   38.5290   31.6390   48.8410 C   0  0  2  0  0  0  0  0  0  0  0  0
   38.7620   32.9840   49.4700 C   0  0  0  0  0  0  0  0  0  0  0  0
   39.4540   33.6790   48.2940 C   0  0  0  0  0  0  0  0  0  0  0  0
   38.8650   33.1900   47.1590 O   0  0  0  0  0  0  0  0  0  0  0  0
   38.1420   32.0400   47.4690 C   0  0  1  0  0  0  0  0  0  0  0  0
   39.5290   31.1530   48.7800 H   0  0  0  0  0  0  0  0  0  0  0  0
   39.4600   32.8570   50.3290 H   0  0  0  0  0  0  0  0  0  0  0  0
   37.8120   33.4720   49.7500 H   0  0  0  0  0  0  0  0  0  0  0  0
   40.5380   33.6100   48.3370 H   0  0  0  0  0  0  0  0  0  0  0  0
   39.1280   34.7560   48.3840 H   0  0  0  0  0  0  0  0  0  0  0  0
   37.0940   32.3110   47.2980 H   0  0  0  0  0  0  0  0  0  0  0  0
   38.5080   31.0630   46.4550 N   0  0  0  0  0  0  0  0  0  0  0  0
   37.5300   31.1560   45.3870 C   0  0  0  0  0  0  0  0  0  0  0  0
   37.7210   30.0730   44.3520 C   0  0  0  0  0  0  0  0  0  0  0  0
   39.1720   29.6530   44.2470 C   0  0  0  0  0  0  0  0  0  0  0  0
   39.3910   28.9000   45.0210 H   0  0  0  0  0  0  0  0  0  0  0  0
   40.0040   30.8850   44.5320 C   0  0  0  0  0  0  0  0  0  0  0  0
   39.8690   31.1930   46.0050 C   0  0  0  0  0  0  0  0  0  0  0  0
   34.6490   29.1840   48.7110 C   0  0  0  0  0  0  0  0  0  0  0  0
   34.7200   29.7590   47.4420 C   0  0  0  0  0  0  0  0  0  0  0  0
   34.2020   29.0580   46.3750 C   0  0  0  0  0  0  0  0  0  0  0  0
   33.6340   27.8180   46.6000 N   0  0  0  0  0  0  0  0  0  0  0  0
   33.5820   27.2890   47.8490 C   0  0  0  0  0  0  0  0  0  0  0  0
   34.0860   27.9770   48.8690 N   0  0  0  0  0  0  0  0  0  0  0  0
   35.0870   30.6700   47.0000 H   0  0  0  0  0  0  0  0  0  0  0  0
   34.1320   29.2710   45.3210 H   0  0  0  0  0  0  0  0  0  0  0  0
   33.1390   26.3200   48.0280 H   0  0  0  0  0  0  0  0  0  0  0  0
  1  7  1  1  0  0  0
  1  6  1  0  0  0  0
  2  3  1  0  0  0  0
  2  1  1  0  0  0  0
  2  9  1  0  0  0  0
  3 10  1  6  0  0  0
  3  4  1  0  0  0  0
  4 12  1  0  0  0  0
  4 11  1  0  0  0  0
  4  5  1  0  0  0  0
  5 14  1  0  0  0  0
  5 13  1  0  0  0  0
  6 16  1  0  0  0  0
  6  5  1  0  0  0  0
  8  2  1  0  0  0  0
 15  6  1  0  0  0  0
 17 22  1  6  0  0  0
 17 18  1  0  0  0  0
 17  3  1  0  0  0  0
 18 24  1  0  0  0  0
 18 23  1  0  0  0  0
 19 25  1  0  0  0  0
 19 26  1  0  0  0  0
 19 18  1  0  0  0  0
 20 21  1  0  0  0  0
 20 19  1  0  0  0  0
 21 27  1  6  0  0  0
 21 17  1  0  0  0  0
 28 21  1  0  0  0  0
 29 28  1  0  0  0  0
 30 29  1  0  0  0  0
 31 30  1  0  0  0  0
 31 33  1  0  0  0  0
 31 32  1  0  0  0  0
 33 34  1  0  0  0  0
 34 28  1  0  0  0  0
 35 40  1  0  0  0  0
 35  1  1  0  0  0  0
 36 35  2  0  0  0  0
 37 38  2  0  0  0  0
 37 36  1  0  0  0  0
 38 39  1  0  0  0  0
 39 43  1  0  0  0  0
 39 40  2  0  0  0  0
 41 36  1  0  0  0  0
 42 37  1  0  0  0  0
M  END
>  <minimizedAffinity>
-6.97145987

>  <minimizedRMSD>
1.45826948

$$$$
