
 OpenBabel03272509363D

 28 30  0  0  1  0  0  0  0  0999 V2000
   37.0180   31.3220   48.4590 C   0  0  0  0  0  0  0  0  0  0  0  0
   36.7290   31.8540   49.7180 C   0  0  0  0  0  0  0  0  0  0  0  0
   37.4150   32.9650   50.2320 C   0  0  0  0  0  0  0  0  0  0  0  0
   38.4280   33.5580   49.4460 C   0  0  0  0  0  0  0  0  0  0  0  0
   38.7030   33.0130   48.1900 C   0  0  0  0  0  0  0  0  0  0  0  0
   38.0010   31.9160   47.7240 C   0  0  0  0  0  0  0  0  0  0  0  0
   35.9700   31.4530   50.3710 H   0  0  0  0  0  0  0  0  0  0  0  0
   37.1730   33.3600   51.2120 H   0  0  0  0  0  0  0  0  0  0  0  0
   38.9650   34.4180   49.8340 H   0  0  0  0  0  0  0  0  0  0  0  0
   39.4910   33.5320   47.6640 H   0  0  0  0  0  0  0  0  0  0  0  0
   38.4430   31.5050   46.4450 N   0  0  0  0  0  0  0  0  0  0  0  0
   39.2710   30.3980   46.0020 C   0  0  0  0  0  0  0  0  0  0  0  0
   40.5800   31.0150   45.5810 C   0  0  0  0  0  0  0  0  0  0  0  0
   40.4840   32.1940   44.7020 C   0  0  0  0  0  0  0  0  0  0  0  0
   40.9490   31.9270   43.7050 H   0  0  0  0  0  0  0  0  0  0  0  0
   39.1920   32.8780   44.5480 C   0  0  0  0  0  0  0  0  0  0  0  0
   38.0280   32.3140   45.2890 C   0  0  0  0  0  0  0  0  0  0  0  0
   36.2550   30.1790   48.0050 C   0  0  1  0  0  0  0  0  0  0  0  0
   36.5030   29.0940   48.6560 O   0  0  0  0  0  0  0  0  0  0  0  0
   33.0090   30.4630   46.3930 C   0  0  0  0  0  0  0  0  0  0  0  0
   33.2830   30.2590   45.0490 C   0  0  0  0  0  0  0  0  0  0  0  0
   34.5900   30.0170   44.6830 C   0  0  0  0  0  0  0  0  0  0  0  0
   35.5580   29.9850   45.6350 N   0  0  0  0  0  0  0  0  0  0  0  0
   35.2790   30.1840   46.9190 C   0  0  0  0  0  0  0  0  0  0  0  0
   34.0100   30.4190   47.2750 N   0  0  0  0  0  0  0  0  0  0  0  0
   31.9790   30.6470   46.6250 H   0  0  0  0  0  0  0  0  0  0  0  0
   32.5780   30.2640   44.2130 H   0  0  0  0  0  0  0  0  0  0  0  0
   34.9070   29.8430   43.6470 H   0  0  0  0  0  0  0  0  0  0  0  0
  1  2  1  0  0  0  0
  2  3  2  0  0  0  0
  2  7  1  0  0  0  0
  3  8  1  0  0  0  0
  4  9  1  0  0  0  0
  4  3  1  0  0  0  0
  5  4  2  0  0  0  0
  6  5  1  0  0  0  0
  6  1  2  0  0  0  0
 10  5  1  0  0  0  0
 11  6  1  0  0  0  0
 12 11  1  0  0  0  0
 13 12  1  0  0  0  0
 14 13  1  0  0  0  0
 15 14  1  0  0  0  0
 16 14  1  0  0  0  0
 16 17  1  0  0  0  0
 17 11  1  0  0  0  0
 18  1  1  0  0  0  0
 18 19  1  1  0  0  0
 20 26  1  0  0  0  0
 20 25  1  0  0  0  0
 21 20  2  0  0  0  0
 22 21  1  0  0  0  0
 22 23  2  0  0  0  0
 23 24  1  0  0  0  0
 24 25  2  0  0  0  0
 24 18  1  0  0  0  0
 27 21  1  0  0  0  0
 28 22  1  0  0  0  0
M  END
>  <minimizedAffinity>
-5.5713439

>  <minimizedRMSD>
2.26108479

$$$$
