
 OpenBabel03272510323D

 26 28  0  0  0  0  0  0  0  0999 V2000
   35.9690   30.0290   48.1130 C   0  0  0  0  0  0  0  0  0  0  0  0
   35.0690   30.0370   47.0780 C   0  0  0  0  0  0  0  0  0  0  0  0
   34.0100   29.1550   47.0330 C   0  0  0  0  0  0  0  0  0  0  0  0
   33.8770   28.2490   48.0790 C   0  0  0  0  0  0  0  0  0  0  0  0
   34.7800   28.2200   49.1450 C   0  0  0  0  0  0  0  0  0  0  0  0
   35.8330   29.1240   49.1510 C   0  0  0  0  0  0  0  0  0  0  0  0
   35.1590   30.7420   46.2500 H   0  0  0  0  0  0  0  0  0  0  0  0
   33.2940   29.1570   46.2190 H   0  0  0  0  0  0  0  0  0  0  0  0
   33.0350   27.5760   48.0090 H   0  0  0  0  0  0  0  0  0  0  0  0
   34.6260   27.4930   49.9310 H   0  0  0  0  0  0  0  0  0  0  0  0
   38.0320   32.8880   49.0320 C   0  0  0  0  0  0  0  0  0  0  0  0
   39.0560   32.8990   48.0870 C   0  0  0  0  0  0  0  0  0  0  0  0
   39.0310   31.8780   47.0950 C   0  0  0  0  0  0  0  0  0  0  0  0
   38.0260   30.9650   47.1250 N   0  0  0  0  0  0  0  0  0  0  0  0
   37.0490   30.9960   48.0670 C   0  0  0  0  0  0  0  0  0  0  0  0
   37.0710   31.9640   49.0090 N   0  0  0  0  0  0  0  0  0  0  0  0
   37.9870   33.6320   49.8150 H   0  0  0  0  0  0  0  0  0  0  0  0
   39.8280   33.6290   48.0930 H   0  0  0  0  0  0  0  0  0  0  0  0
   39.8090   31.8330   46.3250 H   0  0  0  0  0  0  0  0  0  0  0  0
   36.7700   29.1120   50.2310 N   0  0  0  0  0  0  0  0  0  0  0  0
   38.1640   28.6440   50.2690 C   0  0  0  0  0  2  0  0  0  0  0  0
   38.4020   27.9240   51.5810 C   0  0  0  0  0  2  0  0  0  0  0  0
   38.0460   28.7600   52.7690 C   0  0  0  0  0  3  0  0  0  0  0  0
   37.3580   28.1900   53.4270 H   0  0  0  0  0  0  0  0  0  0  0  0
   37.3040   30.0280   52.3690 C   0  0  0  0  0  2  0  0  0  0  0  0
   36.1870   29.6610   51.4410 C   0  0  0  0  0  2  0  0  0  0  0  0
  1  6  1  0  0  0  0
  2  1  2  0  0  0  0
  3  2  1  0  0  0  0
  3  4  2  0  0  0  0
  4  5  1  0  0  0  0
  5  6  2  0  0  0  0
  5 10  1  0  0  0  0
  6 20  1  0  0  0  0
  7  2  1  0  0  0  0
  8  3  1  0  0  0  0
  9  4  1  0  0  0  0
 11 17  1  0  0  0  0
 12 18  1  0  0  0  0
 12 11  2  0  0  0  0
 13 14  2  0  0  0  0
 13 12  1  0  0  0  0
 14 15  1  0  0  0  0
 15  1  1  0  0  0  0
 15 16  2  0  0  0  0
 16 11  1  0  0  0  0
 19 13  1  0  0  0  0
 20 21  1  0  0  0  0
 20 26  1  0  0  0  0
 21 22  1  0  0  0  0
 22 23  1  0  0  0  0
 23 24  1  0  0  0  0
 25 23  1  0  0  0  0
 26 25  1  0  0  0  0
M  END
>  <minimizedAffinity>
-3.18908691

>  <minimizedRMSD>
0.753388286

$$$$
