
 OpenBabel03272509143D

 38 41  0  0  1  0  0  0  0  0999 V2000
   37.6240   23.0380   36.4660 C   0  0  0  0  0  0  0  0  0  0  0  0
   38.9550   22.8910   35.9860 C   0  0  0  0  0  0  0  0  0  0  0  0
   39.9760   22.8800   36.9420 C   0  0  0  0  0  0  0  0  0  0  0  0
   39.6480   23.0090   38.2580 N   0  0  0  0  0  0  0  0  0  0  0  0
   38.3770   23.1470   38.6700 C   0  0  0  0  0  0  0  0  0  0  0  0
   37.3640   23.1610   37.7700 N   0  0  0  0  0  0  0  0  0  0  0  0
   36.7620   23.0550   35.8210 H   0  0  0  0  0  0  0  0  0  0  0  0
   38.2570   23.2410   39.7550 H   0  0  0  0  0  0  0  0  0  0  0  0
   39.0730   22.7800   34.5830 N   0  0  0  0  0  0  0  0  0  0  0  0
   39.5020   21.7460   33.6060 C   0  0  0  0  0  0  0  0  0  0  0  0
   40.4840   22.5240   32.7550 C   0  0  0  0  0  0  0  0  0  0  0  0
   39.8990   23.9280   32.7160 C   0  0  0  0  0  0  0  0  0  0  0  0
   38.7370   23.8630   33.6810 C   0  0  2  0  0  0  0  0  0  0  0  0
   39.9790   20.9050   34.1430 H   0  0  0  0  0  0  0  0  0  0  0  0
   38.6310   21.4030   33.0140 H   0  0  0  0  0  0  0  0  0  0  0  0
   41.4980   22.4800   33.1960 H   0  0  0  0  0  0  0  0  0  0  0  0
   40.5090   22.1480   31.7280 H   0  0  0  0  0  0  0  0  0  0  0  0
   40.7130   24.5910   33.0920 H   0  0  0  0  0  0  0  0  0  0  0  0
   39.5970   24.2080   31.6840 H   0  0  0  0  0  0  0  0  0  0  0  0
   37.8680   23.5270   33.0810 H   0  0  0  0  0  0  0  0  0  0  0  0
   38.4520   25.1140   34.3110 N   0  0  0  0  0  0  0  0  0  0  0  0
   37.3990   25.7660   33.5220 C   0  0  0  0  0  2  0  0  0  0  0  0
   37.3990   27.2610   33.7600 C   0  0  0  0  0  2  0  0  0  0  0  0
   37.8210   27.5080   35.1800 C   0  0  0  0  0  3  0  0  0  0  0  0
   37.6550   28.5770   35.4080 H   0  0  0  0  0  0  0  0  0  0  0  0
   39.3000   27.1340   35.2990 C   0  0  0  0  0  2  0  0  0  0  0  0
   39.5680   26.0360   34.2920 C   0  0  0  0  0  2  0  0  0  0  0  0
   41.3560   22.7340   36.5740 C   0  0  0  0  0  0  0  0  0  0  0  0
   41.9630   21.5260   36.7420 C   0  0  0  0  0  0  0  0  0  0  0  0
   43.2820   21.2770   36.4200 C   0  0  0  0  0  0  0  0  0  0  0  0
   43.9980   22.3470   35.8980 C   0  0  0  0  0  0  0  0  0  0  0  0
   43.4560   23.6100   35.6980 C   0  0  0  0  0  0  0  0  0  0  0  0
   42.1110   23.7570   36.0550 C   0  0  0  0  0  0  0  0  0  0  0  0
   41.4280   20.6590   37.1500 H   0  0  0  0  0  0  0  0  0  0  0  0
   43.7390   20.3050   36.5640 H   0  0  0  0  0  0  0  0  0  0  0  0
   45.0310   22.1610   35.6440 H   0  0  0  0  0  0  0  0  0  0  0  0
   44.0420   24.4230   35.2890 H   0  0  0  0  0  0  0  0  0  0  0  0
   41.6280   24.7240   35.9220 H   0  0  0  0  0  0  0  0  0  0  0  0
  1  6  1  0  0  0  0
  2  1  2  0  0  0  0
  2  3  1  0  0  0  0
  3  4  2  0  0  0  0
  4  5  1  0  0  0  0
  5  8  1  0  0  0  0
  6  5  2  0  0  0  0
  7  1  1  0  0  0  0
  9  2  1  0  0  0  0
 10 14  1  0  0  0  0
 10  9  1  0  0  0  0
 11 16  1  0  0  0  0
 11 10  1  0  0  0  0
 12 11  1  0  0  0  0
 12 18  1  0  0  0  0
 12 13  1  0  0  0  0
 13 20  1  6  0  0  0
 13 21  1  0  0  0  0
 13  9  1  0  0  0  0
 15 10  1  0  0  0  0
 17 11  1  0  0  0  0
 19 12  1  0  0  0  0
 22 23  1  0  0  0  0
 22 21  1  0  0  0  0
 23 24  1  0  0  0  0
 24 26  1  0  0  0  0
 24 25  1  0  0  0  0
 27 21  1  0  0  0  0
 27 26  1  0  0  0  0
 28 29  1  0  0  0  0
 28  3  1  0  0  0  0
 29 34  1  0  0  0  0
 30 35  1  0  0  0  0
 30 29  2  0  0  0  0
 31 30  1  0  0  0  0
 32 31  2  0  0  0  0
 32 33  1  0  0  0  0
 33 28  2  0  0  0  0
 36 31  1  0  0  0  0
 37 32  1  0  0  0  0
 38 33  1  0  0  0  0
M  END
>  <minimizedAffinity>
-5.47018671

$$$$

 OpenBabel03272509143D

 38 41  0  0  1  0  0  0  0  0999 V2000
   38.8740   22.6920   32.1540 C   0  0  0  0  0  0  0  0  0  0  0  0
   39.2670   23.0270   33.4790 C   0  0  0  0  0  0  0  0  0  0  0  0
   38.4310   22.6000   34.5160 C   0  0  0  0  0  0  0  0  0  0  0  0
   37.3050   21.8990   34.2070 N   0  0  0  0  0  0  0  0  0  0  0  0
   36.9680   21.6020   32.9410 C   0  0  0  0  0  0  0  0  0  0  0  0
   37.7570   22.0010   31.9130 N   0  0  0  0  0  0  0  0  0  0  0  0
   39.4430   22.9660   31.2810 H   0  0  0  0  0  0  0  0  0  0  0  0
   36.0380   21.0340   32.8360 H   0  0  0  0  0  0  0  0  0  0  0  0
   40.4670   23.7670   33.5750 N   0  0  0  0  0  0  0  0  0  0  0  0
   41.9240   23.4790   33.5730 C   0  0  0  0  0  0  0  0  0  0  0  0
   42.3820   24.2320   34.8040 C   0  0  0  0  0  0  0  0  0  0  0  0
   41.4830   25.4590   34.8360 C   0  0  0  0  0  0  0  0  0  0  0  0
   40.4890   25.2070   33.7250 C   0  0  2  0  0  0  0  0  0  0  0  0
   42.0870   22.3880   33.6570 H   0  0  0  0  0  0  0  0  0  0  0  0
   42.3860   23.8840   32.6520 H   0  0  0  0  0  0  0  0  0  0  0  0
   42.2920   23.5940   35.7040 H   0  0  0  0  0  0  0  0  0  0  0  0
   43.4130   24.5820   34.7000 H   0  0  0  0  0  0  0  0  0  0  0  0
   40.9960   25.4350   35.8400 H   0  0  0  0  0  0  0  0  0  0  0  0
   42.0700   26.3910   34.6970 H   0  0  0  0  0  0  0  0  0  0  0  0
   40.9540   25.6220   32.8090 H   0  0  0  0  0  0  0  0  0  0  0  0
   39.2150   25.8160   33.9540 N   0  0  0  0  0  0  0  0  0  0  0  0
   38.8020   26.4430   32.6920 C   0  0  0  0  0  2  0  0  0  0  0  0
   37.7800   27.5310   32.9450 C   0  0  0  0  0  2  0  0  0  0  0  0
   36.9490   27.1260   34.1290 C   0  0  0  0  0  3  0  0  0  0  0  0
   36.0980   27.8280   34.2080 H   0  0  0  0  0  0  0  0  0  0  0  0
   37.8430   27.1900   35.3690 C   0  0  0  0  0  2  0  0  0  0  0  0
   39.2580   26.8940   34.9190 C   0  0  0  0  0  2  0  0  0  0  0  0
   38.7290   22.8770   35.8920 C   0  0  0  0  0  0  0  0  0  0  0  0
   37.9120   23.7110   36.5930 C   0  0  0  0  0  0  0  0  0  0  0  0
   38.1070   24.0420   37.9190 C   0  0  0  0  0  0  0  0  0  0  0  0
   39.2120   23.4720   38.5380 C   0  0  0  0  0  0  0  0  0  0  0  0
   40.0950   22.6140   37.8950 C   0  0  0  0  0  0  0  0  0  0  0  0
   39.8080   22.3410   36.5530 C   0  0  0  0  0  0  0  0  0  0  0  0
   37.0300   24.1780   36.1370 H   0  0  0  0  0  0  0  0  0  0  0  0
   37.4390   24.7100   38.4530 H   0  0  0  0  0  0  0  0  0  0  0  0
   39.3720   23.7270   39.5750 H   0  0  0  0  0  0  0  0  0  0  0  0
   40.9480   22.1860   38.4060 H   0  0  0  0  0  0  0  0  0  0  0  0
   40.4630   21.6750   35.9940 H   0  0  0  0  0  0  0  0  0  0  0  0
  1  2  1  0  0  0  0
  2  9  1  0  0  0  0
  2  3  2  0  0  0  0
  3 28  1  0  0  0  0
  4  3  1  0  0  0  0
  5  4  2  0  0  0  0
  6  1  2  0  0  0  0
  6  5  1  0  0  0  0
  7  1  1  0  0  0  0
  8  5  1  0  0  0  0
  9 13  1  0  0  0  0
 10  9  1  0  0  0  0
 10 14  1  0  0  0  0
 10 11  1  0  0  0  0
 11 12  1  0  0  0  0
 11 16  1  0  0  0  0
 12 18  1  0  0  0  0
 13 20  1  6  0  0  0
 13 21  1  0  0  0  0
 13 12  1  0  0  0  0
 15 10  1  0  0  0  0
 17 11  1  0  0  0  0
 19 12  1  0  0  0  0
 21 27  1  0  0  0  0
 22 23  1  0  0  0  0
 22 21  1  0  0  0  0
 23 24  1  0  0  0  0
 24 25  1  0  0  0  0
 24 26  1  0  0  0  0
 27 26  1  0  0  0  0
 28 33  2  0  0  0  0
 28 29  1  0  0  0  0
 29 30  2  0  0  0  0
 30 35  1  0  0  0  0
 30 31  1  0  0  0  0
 31 36  1  0  0  0  0
 32 37  1  0  0  0  0
 32 31  2  0  0  0  0
 33 32  1  0  0  0  0
 34 29  1  0  0  0  0
 38 33  1  0  0  0  0
M  END
>  <minimizedAffinity>
-5.41169262

$$$$

 OpenBabel03272509143D

 38 41  0  0  1  0  0  0  0  0999 V2000
   38.6710   24.2390   32.1830 C   0  0  0  0  0  0  0  0  0  0  0  0
   38.3460   25.5540   32.6190 C   0  0  0  0  0  0  0  0  0  0  0  0
   37.0640   26.0240   32.3150 C   0  0  0  0  0  0  0  0  0  0  0  0
   36.2110   25.2140   31.6290 N   0  0  0  0  0  0  0  0  0  0  0  0
   36.5570   23.9780   31.2340 C   0  0  0  0  0  0  0  0  0  0  0  0
   37.7910   23.4910   31.5130 N   0  0  0  0  0  0  0  0  0  0  0  0
   39.6260   23.7750   32.3650 H   0  0  0  0  0  0  0  0  0  0  0  0
   35.7750   23.4360   30.6920 H   0  0  0  0  0  0  0  0  0  0  0  0
   39.3810   26.2250   33.3080 N   0  0  0  0  0  0  0  0  0  0  0  0
   40.4220   27.2360   32.9880 C   0  0  0  0  0  0  0  0  0  0  0  0
   41.6660   26.5740   33.5430 C   0  0  0  0  0  0  0  0  0  0  0  0
   41.1650   25.8320   34.7730 C   0  0  0  0  0  0  0  0  0  0  0  0
   39.6640   25.9990   34.7100 C   0  0  2  0  0  0  0  0  0  0  0  0
   40.4710   27.3830   31.8920 H   0  0  0  0  0  0  0  0  0  0  0  0
   40.1970   28.1860   33.5110 H   0  0  0  0  0  0  0  0  0  0  0  0
   42.1230   25.9120   32.7830 H   0  0  0  0  0  0  0  0  0  0  0  0
   42.3970   27.3140   33.8790 H   0  0  0  0  0  0  0  0  0  0  0  0
   41.4710   24.7710   34.6150 H   0  0  0  0  0  0  0  0  0  0  0  0
   41.6140   26.2460   35.7010 H   0  0  0  0  0  0  0  0  0  0  0  0
   39.4460   26.9470   35.2420 H   0  0  0  0  0  0  0  0  0  0  0  0
   38.9470   24.9170   35.3090 N   0  0  0  0  0  0  0  0  0  0  0  0
   38.2440   25.4590   36.4800 C   0  0  0  0  0  2  0  0  0  0  0  0
   37.9120   24.3550   37.4620 C   0  0  0  0  0  2  0  0  0  0  0  0
   37.6430   23.1000   36.6820 C   0  0  0  0  0  3  0  0  0  0  0  0
   37.2320   22.3440   37.3770 H   0  0  0  0  0  0  0  0  0  0  0  0
   38.9680   22.6380   36.0720 C   0  0  0  0  0  2  0  0  0  0  0  0
   39.8060   23.8750   35.8290 C   0  0  0  0  0  2  0  0  0  0  0  0
   36.6250   27.3330   32.7080 C   0  0  0  0  0  0  0  0  0  0  0  0
   36.3820   28.2670   31.7480 C   0  0  0  0  0  0  0  0  0  0  0  0
   35.9560   29.5530   32.0170 C   0  0  0  0  0  0  0  0  0  0  0  0
   35.7780   29.8730   33.3560 C   0  0  0  0  0  0  0  0  0  0  0  0
   36.0050   28.9800   34.3960 C   0  0  0  0  0  0  0  0  0  0  0  0
   36.4340   27.7030   34.0170 C   0  0  0  0  0  0  0  0  0  0  0  0
   36.5100   28.0500   30.6800 H   0  0  0  0  0  0  0  0  0  0  0  0
   35.7690   30.2770   31.2310 H   0  0  0  0  0  0  0  0  0  0  0  0
   35.4450   30.8760   33.5760 H   0  0  0  0  0  0  0  0  0  0  0  0
   35.8570   29.2610   35.4310 H   0  0  0  0  0  0  0  0  0  0  0  0
   36.6290   26.9570   34.7870 H   0  0  0  0  0  0  0  0  0  0  0  0
  1  7  1  0  0  0  0
  1  2  1  0  0  0  0
  2  9  1  0  0  0  0
  3  2  2  0  0  0  0
  3 28  1  0  0  0  0
  4  3  1  0  0  0  0
  5  6  1  0  0  0  0
  5  4  2  0  0  0  0
  6  1  2  0  0  0  0
  8  5  1  0  0  0  0
  9 13  1  0  0  0  0
 10  9  1  0  0  0  0
 10 15  1  0  0  0  0
 10 11  1  0  0  0  0
 11 17  1  0  0  0  0
 11 12  1  0  0  0  0
 12 19  1  0  0  0  0
 13 12  1  0  0  0  0
 13 20  1  1  0  0  0
 13 21  1  0  0  0  0
 14 10  1  0  0  0  0
 16 11  1  0  0  0  0
 18 12  1  0  0  0  0
 21 27  1  0  0  0  0
 21 22  1  0  0  0  0
 22 23  1  0  0  0  0
 24 25  1  0  0  0  0
 24 23  1  0  0  0  0
 26 24  1  0  0  0  0
 27 26  1  0  0  0  0
 28 33  1  0  0  0  0
 29 30  1  0  0  0  0
 29 28  2  0  0  0  0
 30 31  2  0  0  0  0
 31 36  1  0  0  0  0
 31 32  1  0  0  0  0
 32 37  1  0  0  0  0
 33 32  2  0  0  0  0
 33 38  1  0  0  0  0
 34 29  1  0  0  0  0
 35 30  1  0  0  0  0
M  END
>  <minimizedAffinity>
-5.3232913

$$$$

 OpenBabel03272509143D

 38 41  0  0  1  0  0  0  0  0999 V2000
   37.7940   24.8920   31.0960 C   0  0  0  0  0  0  0  0  0  0  0  0
   37.6770   26.2740   31.4110 C   0  0  0  0  0  0  0  0  0  0  0  0
   36.3840   26.8040   31.4660 C   0  0  0  0  0  0  0  0  0  0  0  0
   35.3250   25.9840   31.2190 N   0  0  0  0  0  0  0  0  0  0  0  0
   35.4790   24.6820   30.9240 C   0  0  0  0  0  0  0  0  0  0  0  0
   36.7180   24.1370   30.8630 N   0  0  0  0  0  0  0  0  0  0  0  0
   38.7390   24.3780   31.0310 H   0  0  0  0  0  0  0  0  0  0  0  0
   34.5430   24.1400   30.7480 H   0  0  0  0  0  0  0  0  0  0  0  0
   38.9040   26.9420   31.6230 N   0  0  0  0  0  0  0  0  0  0  0  0
   39.9230   27.6330   30.7930 C   0  0  0  0  0  0  0  0  0  0  0  0
   41.1990   26.9720   31.2700 C   0  0  0  0  0  0  0  0  0  0  0  0
   40.9450   26.7160   32.7470 C   0  0  0  0  0  0  0  0  0  0  0  0
   39.4940   27.0960   32.9360 C   0  0  2  0  0  0  0  0  0  0  0  0
   39.7200   27.4420   29.7220 H   0  0  0  0  0  0  0  0  0  0  0  0
   39.9170   28.7180   31.0150 H   0  0  0  0  0  0  0  0  0  0  0  0
   41.3990   26.0520   30.6890 H   0  0  0  0  0  0  0  0  0  0  0  0
   42.0540   27.6510   31.1950 H   0  0  0  0  0  0  0  0  0  0  0  0
   41.1070   25.6200   32.8830 H   0  0  0  0  0  0  0  0  0  0  0  0
   41.6400   27.3060   33.3830 H   0  0  0  0  0  0  0  0  0  0  0  0
   39.4970   28.1800   33.1660 H   0  0  0  0  0  0  0  0  0  0  0  0
   38.8490   26.3680   33.9840 N   0  0  0  0  0  0  0  0  0  0  0  0
   38.5790   27.3190   35.0700 C   0  0  0  0  0  2  0  0  0  0  0  0
   38.4050   26.5920   36.3870 C   0  0  0  0  0  2  0  0  0  0  0  0
   37.7740   25.2590   36.1050 C   0  0  0  0  0  3  0  0  0  0  0  0
   37.4870   24.8030   37.0710 H   0  0  0  0  0  0  0  0  0  0  0  0
   38.8040   24.4020   35.3670 C   0  0  0  0  0  2  0  0  0  0  0  0
   39.6850   25.3440   34.5740 C   0  0  0  0  0  2  0  0  0  0  0  0
   36.1440   28.1850   31.7780 C   0  0  0  0  0  0  0  0  0  0  0  0
   36.2730   29.1180   30.7950 C   0  0  0  0  0  0  0  0  0  0  0  0
   36.0650   30.4690   30.9870 C   0  0  0  0  0  0  0  0  0  0  0  0
   35.7050   30.8590   32.2710 C   0  0  0  0  0  0  0  0  0  0  0  0
   35.5540   29.9710   33.3290 C   0  0  0  0  0  0  0  0  0  0  0  0
   35.7870   28.6250   33.0290 C   0  0  0  0  0  0  0  0  0  0  0  0
   36.5540   28.8480   29.7700 H   0  0  0  0  0  0  0  0  0  0  0  0
   36.1740   31.1920   30.1850 H   0  0  0  0  0  0  0  0  0  0  0  0
   35.5410   31.9140   32.4300 H   0  0  0  0  0  0  0  0  0  0  0  0
   35.2730   30.3070   34.3180 H   0  0  0  0  0  0  0  0  0  0  0  0
   35.6850   27.8790   33.8160 H   0  0  0  0  0  0  0  0  0  0  0  0
  1  2  1  0  0  0  0
  2  3  2  0  0  0  0
  2  9  1  0  0  0  0
  3 28  1  0  0  0  0
  4  3  1  0  0  0  0
  5  4  2  0  0  0  0
  6  5  1  0  0  0  0
  6  1  2  0  0  0  0
  7  1  1  0  0  0  0
  8  5  1  0  0  0  0
  9 13  1  0  0  0  0
 10 15  1  0  0  0  0
 10 11  1  0  0  0  0
 10  9  1  0  0  0  0
 11 12  1  0  0  0  0
 12 18  1  0  0  0  0
 12 13  1  0  0  0  0
 12 19  1  0  0  0  0
 13 20  1  1  0  0  0
 13 21  1  0  0  0  0
 14 10  1  0  0  0  0
 16 11  1  0  0  0  0
 17 11  1  0  0  0  0
 21 27  1  0  0  0  0
 21 22  1  0  0  0  0
 22 23  1  0  0  0  0
 24 23  1  0  0  0  0
 24 25  1  0  0  0  0
 26 24  1  0  0  0  0
 27 26  1  0  0  0  0
 28 33  1  0  0  0  0
 29 30  1  0  0  0  0
 29 28  2  0  0  0  0
 30 31  2  0  0  0  0
 31 36  1  0  0  0  0
 31 32  1  0  0  0  0
 32 37  1  0  0  0  0
 33 32  2  0  0  0  0
 33 38  1  0  0  0  0
 34 29  1  0  0  0  0
 35 30  1  0  0  0  0
M  END
>  <minimizedAffinity>
-5.27059364

$$$$

 OpenBabel03272509143D

 38 41  0  0  1  0  0  0  0  0999 V2000
   38.7880   27.7630   30.7060 C   0  0  0  0  0  0  0  0  0  0  0  0
   37.9940   26.6830   31.1820 C   0  0  0  0  0  0  0  0  0  0  0  0
   38.2640   25.4160   30.6550 C   0  0  0  0  0  0  0  0  0  0  0  0
   39.2560   25.2860   29.7300 N   0  0  0  0  0  0  0  0  0  0  0  0
   39.9830   26.3330   29.3060 C   0  0  0  0  0  0  0  0  0  0  0  0
   39.7470   27.5740   29.7970 N   0  0  0  0  0  0  0  0  0  0  0  0
   38.6690   28.7790   31.0450 H   0  0  0  0  0  0  0  0  0  0  0  0
   40.7470   26.0860   28.5600 H   0  0  0  0  0  0  0  0  0  0  0  0
   37.0140   27.0400   32.1360 N   0  0  0  0  0  0  0  0  0  0  0  0
   35.7090   27.7500   32.1410 C   0  0  0  0  0  0  0  0  0  0  0  0
   35.9130   28.7480   33.2610 C   0  0  0  0  0  0  0  0  0  0  0  0
   36.7850   28.0010   34.2590 C   0  0  0  0  0  0  0  0  0  0  0  0
   37.1370   26.7180   33.5420 C   0  0  2  0  0  0  0  0  0  0  0  0
   35.5500   28.2380   31.1600 H   0  0  0  0  0  0  0  0  0  0  0  0
   34.8940   27.0370   32.3720 H   0  0  0  0  0  0  0  0  0  0  0  0
   36.3780   29.6750   32.8740 H   0  0  0  0  0  0  0  0  0  0  0  0
   34.9700   28.9870   33.7610 H   0  0  0  0  0  0  0  0  0  0  0  0
   37.6800   28.6520   34.4050 H   0  0  0  0  0  0  0  0  0  0  0  0
   36.2490   27.8370   35.2170 H   0  0  0  0  0  0  0  0  0  0  0  0
   36.3210   26.0070   33.7850 H   0  0  0  0  0  0  0  0  0  0  0  0
   38.4010   26.1760   33.9350 N   0  0  0  0  0  0  0  0  0  0  0  0
   38.1260   24.9810   34.7450 C   0  0  0  0  0  2  0  0  0  0  0  0
   39.3090   24.6520   35.6300 C   0  0  0  0  0  2  0  0  0  0  0  0
   40.5620   25.0470   34.9030 C   0  0  0  0  0  3  0  0  0  0  0  0
   41.4280   24.6520   35.4670 H   0  0  0  0  0  0  0  0  0  0  0  0
   40.5960   26.5750   34.8280 C   0  0  0  0  0  2  0  0  0  0  0  0
   39.1600   27.0550   34.7990 C   0  0  0  0  0  2  0  0  0  0  0  0
   37.5290   24.2530   31.0640 C   0  0  0  0  0  0  0  0  0  0  0  0
   38.2030   23.1980   31.6000 C   0  0  0  0  0  0  0  0  0  0  0  0
   37.5950   22.0350   32.0270 C   0  0  0  0  0  0  0  0  0  0  0  0
   36.2140   21.9760   31.8840 C   0  0  0  0  0  0  0  0  0  0  0  0
   35.4530   23.0060   31.3460 C   0  0  0  0  0  0  0  0  0  0  0  0
   36.1660   24.1410   30.9460 C   0  0  0  0  0  0  0  0  0  0  0  0
   39.2920   23.2090   31.7290 H   0  0  0  0  0  0  0  0  0  0  0  0
   38.1560   21.2090   32.4500 H   0  0  0  0  0  0  0  0  0  0  0  0
   35.7300   21.0690   32.2140 H   0  0  0  0  0  0  0  0  0  0  0  0
   34.3780   22.9290   31.2480 H   0  0  0  0  0  0  0  0  0  0  0  0
   35.6260   24.9840   30.5160 H   0  0  0  0  0  0  0  0  0  0  0  0
  1  7  1  0  0  0  0
  1  2  1  0  0  0  0
  2  9  1  0  0  0  0
  3 28  1  0  0  0  0
  3  2  2  0  0  0  0
  4  3  1  0  0  0  0
  5  4  2  0  0  0  0
  5  6  1  0  0  0  0
  6  1  2  0  0  0  0
  8  5  1  0  0  0  0
  9 10  1  0  0  0  0
  9 13  1  0  0  0  0
 10 15  1  0  0  0  0
 10 11  1  0  0  0  0
 11 17  1  0  0  0  0
 11 12  1  0  0  0  0
 12 18  1  0  0  0  0
 12 19  1  0  0  0  0
 13 20  1  1  0  0  0
 13 21  1  0  0  0  0
 13 12  1  0  0  0  0
 14 10  1  0  0  0  0
 16 11  1  0  0  0  0
 21 22  1  0  0  0  0
 21 27  1  0  0  0  0
 22 23  1  0  0  0  0
 24 25  1  0  0  0  0
 24 23  1  0  0  0  0
 26 24  1  0  0  0  0
 27 26  1  0  0  0  0
 28 29  1  0  0  0  0
 29 34  1  0  0  0  0
 29 30  2  0  0  0  0
 30 35  1  0  0  0  0
 31 30  1  0  0  0  0
 31 36  1  0  0  0  0
 32 31  2  0  0  0  0
 33 28  2  0  0  0  0
 33 32  1  0  0  0  0
 37 32  1  0  0  0  0
 38 33  1  0  0  0  0
M  END
>  <minimizedAffinity>
-5.13535309

$$$$

 OpenBabel03272509143D

 38 41  0  0  1  0  0  0  0  0999 V2000
   37.6540   24.9910   31.0490 C   0  0  0  0  0  0  0  0  0  0  0  0
   37.5420   23.5990   31.3210 C   0  0  0  0  0  0  0  0  0  0  0  0
   36.2540   23.0970   31.5350 C   0  0  0  0  0  0  0  0  0  0  0  0
   35.1950   23.9510   31.4730 N   0  0  0  0  0  0  0  0  0  0  0  0
   35.3440   25.2610   31.2130 C   0  0  0  0  0  0  0  0  0  0  0  0
   36.5780   25.7800   31.0010 N   0  0  0  0  0  0  0  0  0  0  0  0
   38.5950   25.4830   30.8650 H   0  0  0  0  0  0  0  0  0  0  0  0
   34.4100   25.8320   31.1930 H   0  0  0  0  0  0  0  0  0  0  0  0
   38.7670   22.8970   31.3480 N   0  0  0  0  0  0  0  0  0  0  0  0
   39.6350   22.1880   30.3730 C   0  0  0  0  0  0  0  0  0  0  0  0
   39.8610   20.8660   31.0750 C   0  0  0  0  0  0  0  0  0  0  0  0
   39.9060   21.2400   32.5490 C   0  0  0  0  0  0  0  0  0  0  0  0
   39.5340   22.7050   32.5610 C   0  0  2  0  0  0  0  0  0  0  0  0
   39.0970   22.0720   29.4130 H   0  0  0  0  0  0  0  0  0  0  0  0
   40.5820   22.7450   30.2370 H   0  0  0  0  0  0  0  0  0  0  0  0
   39.0540   20.1510   30.8250 H   0  0  0  0  0  0  0  0  0  0  0  0
   40.8320   20.4340   30.8150 H   0  0  0  0  0  0  0  0  0  0  0  0
   39.1220   20.6100   33.0320 H   0  0  0  0  0  0  0  0  0  0  0  0
   40.9080   21.0380   32.9850 H   0  0  0  0  0  0  0  0  0  0  0  0
   40.4870   23.2560   32.4340 H   0  0  0  0  0  0  0  0  0  0  0  0
   38.8810   23.1150   33.7660 N   0  0  0  0  0  0  0  0  0  0  0  0
   39.6470   24.2430   34.3120 C   0  0  0  0  0  2  0  0  0  0  0  0
   39.3850   24.4000   35.7940 C   0  0  0  0  0  2  0  0  0  0  0  0
   37.9660   23.9870   36.0650 C   0  0  0  0  0  3  0  0  0  0  0  0
   37.7200   24.2640   37.1070 H   0  0  0  0  0  0  0  0  0  0  0  0
   37.8720   22.4750   35.8510 C   0  0  0  0  0  2  0  0  0  0  0  0
   38.8990   22.1050   34.8030 C   0  0  0  0  0  2  0  0  0  0  0  0
   36.0190   21.7080   31.8140 C   0  0  0  0  0  0  0  0  0  0  0  0
   35.7250   21.3290   33.0880 C   0  0  0  0  0  0  0  0  0  0  0  0
   35.4810   20.0230   33.4640 C   0  0  0  0  0  0  0  0  0  0  0  0
   35.5500   19.0710   32.4550 C   0  0  0  0  0  0  0  0  0  0  0  0
   35.8460   19.3740   31.1320 C   0  0  0  0  0  0  0  0  0  0  0  0
   36.0760   20.7260   30.8560 C   0  0  0  0  0  0  0  0  0  0  0  0
   35.6600   22.0530   33.9100 H   0  0  0  0  0  0  0  0  0  0  0  0
   35.2470   19.7490   34.4870 H   0  0  0  0  0  0  0  0  0  0  0  0
   35.3620   18.0470   32.7400 H   0  0  0  0  0  0  0  0  0  0  0  0
   35.8930   18.6080   30.3690 H   0  0  0  0  0  0  0  0  0  0  0  0
   36.3130   21.0280   29.8360 H   0  0  0  0  0  0  0  0  0  0  0  0
  1  2  1  0  0  0  0
  2  9  1  0  0  0  0
  2  3  2  0  0  0  0
  3 28  1  0  0  0  0
  4  3  1  0  0  0  0
  5  4  2  0  0  0  0
  6  1  2  0  0  0  0
  6  5  1  0  0  0  0
  7  1  1  0  0  0  0
  8  5  1  0  0  0  0
  9 13  1  0  0  0  0
 10 11  1  0  0  0  0
 10  9  1  0  0  0  0
 11 12  1  0  0  0  0
 12 13  1  0  0  0  0
 12 19  1  0  0  0  0
 12 18  1  0  0  0  0
 13 20  1  6  0  0  0
 13 21  1  0  0  0  0
 14 10  1  0  0  0  0
 15 10  1  0  0  0  0
 16 11  1  0  0  0  0
 17 11  1  0  0  0  0
 21 22  1  0  0  0  0
 21 27  1  0  0  0  0
 22 23  1  0  0  0  0
 23 24  1  0  0  0  0
 24 25  1  0  0  0  0
 26 24  1  0  0  0  0
 27 26  1  0  0  0  0
 28 29  1  0  0  0  0
 29 30  2  0  0  0  0
 29 34  1  0  0  0  0
 30 35  1  0  0  0  0
 31 36  1  0  0  0  0
 31 30  1  0  0  0  0
 32 31  2  0  0  0  0
 33 32  1  0  0  0  0
 33 28  2  0  0  0  0
 37 32  1  0  0  0  0
 38 33  1  0  0  0  0
M  END
>  <minimizedAffinity>
-5.07113695

$$$$

 OpenBabel03272509143D

 38 41  0  0  1  0  0  0  0  0999 V2000
   37.5470   23.5710   32.4130 C   0  0  0  0  0  0  0  0  0  0  0  0
   37.9020   23.8860   33.7540 C   0  0  0  0  0  0  0  0  0  0  0  0
   38.0140   22.8170   34.6480 C   0  0  0  0  0  0  0  0  0  0  0  0
   37.7800   21.5530   34.1970 N   0  0  0  0  0  0  0  0  0  0  0  0
   37.4450   21.2980   32.9210 C   0  0  0  0  0  0  0  0  0  0  0  0
   37.3290   22.3120   32.0280 N   0  0  0  0  0  0  0  0  0  0  0  0
   37.4370   24.3140   31.6410 H   0  0  0  0  0  0  0  0  0  0  0  0
   37.2860   20.2380   32.6940 H   0  0  0  0  0  0  0  0  0  0  0  0
   38.0920   25.2620   34.0120 N   0  0  0  0  0  0  0  0  0  0  0  0
   37.2360   26.4590   34.2100 C   0  0  0  0  0  0  0  0  0  0  0  0
   37.8650   27.4440   33.2470 C   0  0  0  0  0  0  0  0  0  0  0  0
   39.3470   27.1060   33.2990 C   0  0  0  0  0  0  0  0  0  0  0  0
   39.4040   25.8590   34.1510 C   0  0  2  0  0  0  0  0  0  0  0  0
   36.1890   26.2150   33.9450 H   0  0  0  0  0  0  0  0  0  0  0  0
   37.3130   26.8090   35.2580 H   0  0  0  0  0  0  0  0  0  0  0  0
   37.4220   27.3350   32.2380 H   0  0  0  0  0  0  0  0  0  0  0  0
   37.7480   28.4740   33.5930 H   0  0  0  0  0  0  0  0  0  0  0  0
   39.6340   26.8980   32.2410 H   0  0  0  0  0  0  0  0  0  0  0  0
   39.9370   27.9500   33.7160 H   0  0  0  0  0  0  0  0  0  0  0  0
   39.4900   26.2160   35.1970 H   0  0  0  0  0  0  0  0  0  0  0  0
   40.5020   25.0010   33.8280 N   0  0  0  0  0  0  0  0  0  0  0  0
   41.5540   25.2510   34.8220 C   0  0  0  0  0  2  0  0  0  0  0  0
   42.9050   24.8240   34.2890 C   0  0  0  0  0  2  0  0  0  0  0  0
   42.7000   23.6370   33.3910 C   0  0  0  0  0  3  0  0  0  0  0  0
   43.6920   23.2180   33.1420 H   0  0  0  0  0  0  0  0  0  0  0  0
   41.9670   24.1210   32.1390 C   0  0  0  0  0  2  0  0  0  0  0  0
   41.1080   25.2990   32.5480 C   0  0  0  0  0  2  0  0  0  0  0  0
   38.3700   23.0150   36.0250 C   0  0  0  0  0  0  0  0  0  0  0  0
   39.5980   22.6150   36.4560 C   0  0  0  0  0  0  0  0  0  0  0  0
   40.0420   22.7600   37.7550 C   0  0  0  0  0  0  0  0  0  0  0  0
   39.1530   23.3510   38.6440 C   0  0  0  0  0  0  0  0  0  0  0  0
   37.8830   23.7840   38.2870 C   0  0  0  0  0  0  0  0  0  0  0  0
   37.5310   23.5920   36.9460 C   0  0  0  0  0  0  0  0  0  0  0  0
   40.3260   22.1470   35.7820 H   0  0  0  0  0  0  0  0  0  0  0  0
   41.0270   22.4330   38.0700 H   0  0  0  0  0  0  0  0  0  0  0  0
   39.4910   23.4670   39.6630 H   0  0  0  0  0  0  0  0  0  0  0  0
   37.2140   24.2410   39.0040 H   0  0  0  0  0  0  0  0  0  0  0  0
   36.5470   23.9110   36.6030 H   0  0  0  0  0  0  0  0  0  0  0  0
  1  2  1  0  0  0  0
  2  9  1  0  0  0  0
  2  3  2  0  0  0  0
  3 28  1  0  0  0  0
  4  3  1  0  0  0  0
  5  4  2  0  0  0  0
  6  1  2  0  0  0  0
  6  5  1  0  0  0  0
  7  1  1  0  0  0  0
  8  5  1  0  0  0  0
  9 13  1  0  0  0  0
  9 10  1  0  0  0  0
 10 15  1  0  0  0  0
 11 12  1  0  0  0  0
 11 17  1  0  0  0  0
 11 10  1  0  0  0  0
 12 19  1  0  0  0  0
 12 13  1  0  0  0  0
 13 20  1  1  0  0  0
 14 10  1  0  0  0  0
 16 11  1  0  0  0  0
 18 12  1  0  0  0  0
 21 13  1  0  0  0  0
 21 22  1  0  0  0  0
 23 22  1  0  0  0  0
 24 23  1  0  0  0  0
 25 24  1  0  0  0  0
 26 27  1  0  0  0  0
 26 24  1  0  0  0  0
 27 21  1  0  0  0  0
 28 29  2  0  0  0  0
 28 33  1  0  0  0  0
 29 30  1  0  0  0  0
 30 35  1  0  0  0  0
 30 31  2  0  0  0  0
 31 36  1  0  0  0  0
 32 31  1  0  0  0  0
 32 37  1  0  0  0  0
 33 32  2  0  0  0  0
 34 29  1  0  0  0  0
 38 33  1  0  0  0  0
M  END
>  <minimizedAffinity>
-5.03907871

$$$$

 OpenBabel03272509143D

 38 41  0  0  1  0  0  0  0  0999 V2000
   39.9240   26.1330   35.2950 C   0  0  0  0  0  0  0  0  0  0  0  0
   39.0270   25.1370   34.8180 C   0  0  0  0  0  0  0  0  0  0  0  0
   38.6690   25.2010   33.4670 C   0  0  0  0  0  0  0  0  0  0  0  0
   39.1890   26.1940   32.6940 N   0  0  0  0  0  0  0  0  0  0  0  0
   40.0340   27.1160   33.1840 C   0  0  0  0  0  0  0  0  0  0  0  0
   40.4010   27.0840   34.4880 N   0  0  0  0  0  0  0  0  0  0  0  0
   40.2700   26.1780   36.3140 H   0  0  0  0  0  0  0  0  0  0  0  0
   40.3750   27.8570   32.4530 H   0  0  0  0  0  0  0  0  0  0  0  0
   38.6020   24.2040   35.7900 N   0  0  0  0  0  0  0  0  0  0  0  0
   37.3980   23.9830   36.6320 C   0  0  0  0  0  0  0  0  0  0  0  0
   38.0150   23.8190   38.0050 C   0  0  0  0  0  0  0  0  0  0  0  0
   39.3340   23.1130   37.7280 C   0  0  0  0  0  0  0  0  0  0  0  0
   39.4240   23.0920   36.2190 C   0  0  2  0  0  0  0  0  0  0  0  0
   36.7340   24.8660   36.5670 H   0  0  0  0  0  0  0  0  0  0  0  0
   36.8750   23.0620   36.3070 H   0  0  0  0  0  0  0  0  0  0  0  0
   38.1360   24.8040   38.4950 H   0  0  0  0  0  0  0  0  0  0  0  0
   37.4150   23.1610   38.6380 H   0  0  0  0  0  0  0  0  0  0  0  0
   40.1150   23.7690   38.1810 H   0  0  0  0  0  0  0  0  0  0  0  0
   39.3490   22.0990   38.1830 H   0  0  0  0  0  0  0  0  0  0  0  0
   38.9060   22.1640   35.9020 H   0  0  0  0  0  0  0  0  0  0  0  0
   40.7680   23.1020   35.7310 N   0  0  0  0  0  0  0  0  0  0  0  0
   40.9440   21.8890   34.9210 C   0  0  0  0  0  2  0  0  0  0  0  0
   42.4100   21.5300   34.8090 C   0  0  0  0  0  2  0  0  0  0  0  0
   43.2050   22.8030   34.8080 C   0  0  0  0  0  3  0  0  0  0  0  0
   44.2520   22.5550   34.5530 H   0  0  0  0  0  0  0  0  0  0  0  0
   43.1020   23.4180   36.2050 C   0  0  0  0  0  2  0  0  0  0  0  0
   41.7620   23.0090   36.7780 C   0  0  0  0  0  2  0  0  0  0  0  0
   37.7740   24.2470   32.8760 C   0  0  0  0  0  0  0  0  0  0  0  0
   36.6810   24.6950   32.1990 C   0  0  0  0  0  0  0  0  0  0  0  0
   35.7590   23.8650   31.5920 C   0  0  0  0  0  0  0  0  0  0  0  0
   35.9960   22.5010   31.7020 C   0  0  0  0  0  0  0  0  0  0  0  0
   37.0850   21.9620   32.3760 C   0  0  0  0  0  0  0  0  0  0  0  0
   37.9600   22.8880   32.9540 C   0  0  0  0  0  0  0  0  0  0  0  0
   36.4620   25.7640   32.0910 H   0  0  0  0  0  0  0  0  0  0  0  0
   34.8970   24.2500   31.0590 H   0  0  0  0  0  0  0  0  0  0  0  0
   35.2800   21.8440   31.2320 H   0  0  0  0  0  0  0  0  0  0  0  0
   37.2410   20.8930   32.4430 H   0  0  0  0  0  0  0  0  0  0  0  0
   38.8330   22.5280   33.4960 H   0  0  0  0  0  0  0  0  0  0  0  0
  1  7  1  0  0  0  0
  2  1  1  0  0  0  0
  2  9  1  0  0  0  0
  3  2  2  0  0  0  0
  4  5  2  0  0  0  0
  4  3  1  0  0  0  0
  5  6  1  0  0  0  0
  6  1  2  0  0  0  0
  8  5  1  0  0  0  0
  9 13  1  0  0  0  0
  9 10  1  0  0  0  0
 10 11  1  0  0  0  0
 11 16  1  0  0  0  0
 11 17  1  0  0  0  0
 12 11  1  0  0  0  0
 12 18  1  0  0  0  0
 12 19  1  0  0  0  0
 13 20  1  6  0  0  0
 13 12  1  0  0  0  0
 14 10  1  0  0  0  0
 15 10  1  0  0  0  0
 21 13  1  0  0  0  0
 21 27  1  0  0  0  0
 22 21  1  0  0  0  0
 23 22  1  0  0  0  0
 24 23  1  0  0  0  0
 24 26  1  0  0  0  0
 25 24  1  0  0  0  0
 26 27  1  0  0  0  0
 28 33  1  0  0  0  0
 28  3  1  0  0  0  0
 29 28  2  0  0  0  0
 30 31  2  0  0  0  0
 30 29  1  0  0  0  0
 31 32  1  0  0  0  0
 32 37  1  0  0  0  0
 32 33  2  0  0  0  0
 33 38  1  0  0  0  0
 34 29  1  0  0  0  0
 35 30  1  0  0  0  0
 36 31  1  0  0  0  0
M  END
>  <minimizedAffinity>
-5.01995754

$$$$

 OpenBabel03272509143D

 38 41  0  0  1  0  0  0  0  0999 V2000
   35.3960   26.0570   30.7620 C   0  0  0  0  0  0  0  0  0  0  0  0
   36.2430   26.6020   31.7670 C   0  0  0  0  0  0  0  0  0  0  0  0
   36.8750   25.6940   32.6230 C   0  0  0  0  0  0  0  0  0  0  0  0
   36.6500   24.3620   32.4530 N   0  0  0  0  0  0  0  0  0  0  0  0
   35.8410   23.8880   31.4910 C   0  0  0  0  0  0  0  0  0  0  0  0
   35.2130   24.7400   30.6440 N   0  0  0  0  0  0  0  0  0  0  0  0
   34.8630   26.6620   30.0470 H   0  0  0  0  0  0  0  0  0  0  0  0
   35.7500   22.7970   31.4680 H   0  0  0  0  0  0  0  0  0  0  0  0
   36.3300   28.0120   31.7720 N   0  0  0  0  0  0  0  0  0  0  0  0
   35.5600   29.1470   32.3430 C   0  0  0  0  0  0  0  0  0  0  0  0
   35.3790   30.0310   31.1270 C   0  0  0  0  0  0  0  0  0  0  0  0
   36.6670   29.8340   30.3410 C   0  0  0  0  0  0  0  0  0  0  0  0
   37.3830   28.7340   31.0890 C   0  0  2  0  0  0  0  0  0  0  0  0
   34.5980   28.7760   32.7450 H   0  0  0  0  0  0  0  0  0  0  0  0
   36.1560   29.6500   33.1290 H   0  0  0  0  0  0  0  0  0  0  0  0
   34.4710   29.7390   30.5680 H   0  0  0  0  0  0  0  0  0  0  0  0
   35.3210   31.0870   31.4050 H   0  0  0  0  0  0  0  0  0  0  0  0
   36.3390   29.5010   29.3280 H   0  0  0  0  0  0  0  0  0  0  0  0
   37.2500   30.7780   30.2830 H   0  0  0  0  0  0  0  0  0  0  0  0
   37.9840   29.2450   31.8680 H   0  0  0  0  0  0  0  0  0  0  0  0
   38.2270   27.9360   30.2540 N   0  0  0  0  0  0  0  0  0  0  0  0
   39.5340   27.8470   30.9190 C   0  0  0  0  0  2  0  0  0  0  0  0
   40.6190   27.5070   29.9200 C   0  0  0  0  0  2  0  0  0  0  0  0
   40.0220   26.6220   28.8630 C   0  0  0  0  0  3  0  0  0  0  0  0
   40.8440   26.2320   28.2350 H   0  0  0  0  0  0  0  0  0  0  0  0
   39.0460   27.4680   28.0440 C   0  0  0  0  0  2  0  0  0  0  0  0
   38.4950   28.5360   28.9650 C   0  0  0  0  0  2  0  0  0  0  0  0
   37.7550   26.1290   33.6710 C   0  0  0  0  0  0  0  0  0  0  0  0
   39.0760   25.8080   33.6030 C   0  0  0  0  0  0  0  0  0  0  0  0
   40.0060   26.1770   34.5540 C   0  0  0  0  0  0  0  0  0  0  0  0
   39.5270   26.9160   35.6280 C   0  0  0  0  0  0  0  0  0  0  0  0
   38.1940   27.2830   35.7730 C   0  0  0  0  0  0  0  0  0  0  0  0
   37.3340   26.8610   34.7540 C   0  0  0  0  0  0  0  0  0  0  0  0
   39.4910   25.2270   32.7700 H   0  0  0  0  0  0  0  0  0  0  0  0
   41.0540   25.9080   34.4740 H   0  0  0  0  0  0  0  0  0  0  0  0
   40.2470   27.2080   36.3770 H   0  0  0  0  0  0  0  0  0  0  0  0
   37.8520   27.8600   36.6230 H   0  0  0  0  0  0  0  0  0  0  0  0
   36.2770   27.1180   34.8110 H   0  0  0  0  0  0  0  0  0  0  0  0
  1  2  1  0  0  0  0
  2  9  1  0  0  0  0
  2  3  2  0  0  0  0
  3 28  1  0  0  0  0
  4  3  1  0  0  0  0
  5  4  2  0  0  0  0
  6  1  2  0  0  0  0
  6  5  1  0  0  0  0
  7  1  1  0  0  0  0
  8  5  1  0  0  0  0
  9 10  1  0  0  0  0
 10 14  1  0  0  0  0
 10 15  1  0  0  0  0
 11 17  1  0  0  0  0
 11 10  1  0  0  0  0
 12 13  1  0  0  0  0
 12 11  1  0  0  0  0
 13  9  1  0  0  0  0
 13 20  1  1  0  0  0
 16 11  1  0  0  0  0
 18 12  1  0  0  0  0
 19 12  1  0  0  0  0
 21 22  1  0  0  0  0
 21 13  1  0  0  0  0
 23 22  1  0  0  0  0
 24 23  1  0  0  0  0
 25 24  1  0  0  0  0
 26 24  1  0  0  0  0
 26 27  1  0  0  0  0
 27 21  1  0  0  0  0
 28 33  1  0  0  0  0
 29 28  2  0  0  0  0
 29 30  1  0  0  0  0
 30 31  2  0  0  0  0
 31 32  1  0  0  0  0
 31 36  1  0  0  0  0
 32 37  1  0  0  0  0
 33 38  1  0  0  0  0
 33 32  2  0  0  0  0
 34 29  1  0  0  0  0
 35 30  1  0  0  0  0
M  END
>  <minimizedAffinity>
-4.99349833

$$$$
