
 OpenBabel03272502053D

 37 40  0  0  0  0  0  0  0  0999 V2000
   34.3580   30.3150   47.7490 F   0  0  0  0  0  0  0  0  0  0  0  0
   34.6870   29.8860   46.4880 C   0  0  0  0  0  0  0  0  0  0  0  0
   33.7710   29.2460   45.6780 C   0  0  0  0  0  0  0  0  0  0  0  0
   34.1640   28.8570   44.4160 C   0  0  0  0  0  0  0  0  0  0  0  0
   35.4610   29.1070   43.9700 C   0  0  0  0  0  0  0  0  0  0  0  0
   36.3330   29.7520   44.8280 C   0  0  0  0  0  0  0  0  0  0  0  0
   35.9900   30.1470   46.0670 C   0  0  0  0  0  0  0  0  0  0  0  0
   33.3920   28.3560   43.8260 H   0  0  0  0  0  0  0  0  0  0  0  0
   35.7190   28.7830   42.9740 H   0  0  0  0  0  0  0  0  0  0  0  0
   37.3160   29.9060   44.4040 H   0  0  0  0  0  0  0  0  0  0  0  0
   32.3350   28.0400   47.1910 C   0  0  0  0  0  0  0  0  0  0  0  0
   32.4740   29.0500   46.2530 C   0  0  0  0  0  0  0  0  0  0  0  0
   31.3470   29.7920   45.9500 C   0  0  0  0  0  0  0  0  0  0  0  0
   30.1700   29.5200   46.5620 N   0  0  0  0  0  0  0  0  0  0  0  0
   30.0710   28.5380   47.4630 C   0  0  0  0  0  0  0  0  0  0  0  0
   31.1330   27.8110   47.7730 N   0  0  0  0  0  0  0  0  0  0  0  0
   33.1680   27.4260   47.4730 H   0  0  0  0  0  0  0  0  0  0  0  0
   31.4390   30.5710   45.2310 H   0  0  0  0  0  0  0  0  0  0  0  0
   28.8000   28.3110   48.0630 N   0  0  0  0  0  0  0  0  0  0  0  0
   28.5480   28.7330   49.4290 C   0  0  0  0  0  0  0  0  0  0  0  0
   27.6570   29.9560   49.3530 C   0  0  0  0  0  0  0  0  0  0  0  0
   26.8610   29.9090   48.0860 C   0  0  0  0  0  0  0  0  0  0  0  0
   25.8780   30.4100   48.3170 H   0  0  0  0  0  0  0  0  0  0  0  0
   26.4770   28.5050   47.6570 C   0  0  0  0  0  0  0  0  0  0  0  0
   27.7010   27.6620   47.3720 C   0  0  0  0  0  0  0  0  0  0  0  0
   37.8360   32.3280   44.7880 Br  0  0  0  0  0  0  0  0  0  0  0  0
   37.8310   31.8090   46.6210 C   0  0  0  0  0  0  0  0  0  0  0  0
   36.9460   30.8100   46.9340 C   0  0  0  0  0  0  0  0  0  0  0  0
   36.9130   30.3520   48.2610 C   0  0  0  0  0  0  0  0  0  0  0  0
   37.7330   30.8860   49.2030 C   0  0  0  0  0  0  0  0  0  0  0  0
   38.6060   31.8960   48.8200 C   0  0  0  0  0  0  0  0  0  0  0  0
   38.6620   32.3720   47.5090 C   0  0  0  0  0  0  0  0  0  0  0  0
   36.2480   29.5700   48.5930 H   0  0  0  0  0  0  0  0  0  0  0  0
   37.7540   30.5760   50.2390 H   0  0  0  0  0  0  0  0  0  0  0  0
   39.2750   32.3460   49.5460 H   0  0  0  0  0  0  0  0  0  0  0  0
   39.4890   33.3580   47.0650 O   0  0  0  0  0  0  0  0  0  0  0  0
   40.3040   33.0820   46.5090 H   0  0  0  0  0  0  0  0  0  0  0  0
  2  1  1  0  0  0  0
  3 12  1  0  0  0  0
  3  2  2  0  0  0  0
  4  3  1  0  0  0  0
  5  4  2  0  0  0  0
  5  6  1  0  0  0  0
  6  7  2  0  0  0  0
  7  2  1  0  0  0  0
  7 28  1  0  0  0  0
  8  4  1  0  0  0  0
  9  5  1  0  0  0  0
 10  6  1  0  0  0  0
 11 17  1  0  0  0  0
 11 16  1  0  0  0  0
 12 11  2  0  0  0  0
 13 12  1  0  0  0  0
 13 14  2  0  0  0  0
 14 15  1  0  0  0  0
 15 16  2  0  0  0  0
 15 19  1  0  0  0  0
 18 13  1  0  0  0  0
 19 20  1  0  0  0  0
 21 20  1  0  0  0  0
 22 23  1  0  0  0  0
 22 21  1  0  0  0  0
 24 22  1  0  0  0  0
 25 24  1  0  0  0  0
 25 19  1  0  0  0  0
 26 27  1  0  0  0  0
 27 28  2  0  0  0  0
 27 32  1  0  0  0  0
 28 29  1  0  0  0  0
 29 33  1  0  0  0  0
 29 30  2  0  0  0  0
 30 34  1  0  0  0  0
 31 30  1  0  0  0  0
 31 35  1  0  0  0  0
 32 31  2  0  0  0  0
 36 32  1  0  0  0  0
 37 36  1  0  0  0  0
M  END
>  <minimizedAffinity>
-7.23956394

>  <minimizedRMSD>
0.477054656

$$$$
