
 OpenBabel03272510183D

 34 37  0  0  0  0  0  0  0  0999 V2000
   37.4020   29.1210   50.7820 Br  0  0  0  0  0  0  0  0  0  0  0  0
   36.0040   29.2980   49.4890 C   0  0  0  0  0  0  0  0  0  0  0  0
   36.0050   30.3400   48.5750 C   0  0  0  0  0  0  0  0  0  0  0  0
   34.9720   30.4000   47.6830 C   0  0  0  0  0  0  0  0  0  0  0  0
   33.9440   29.4910   47.6450 C   0  0  0  0  0  0  0  0  0  0  0  0
   33.9680   28.4690   48.5600 C   0  0  0  0  0  0  0  0  0  0  0  0
   34.9910   28.3790   49.4720 C   0  0  0  0  0  0  0  0  0  0  0  0
   34.9490   31.2060   46.9570 H   0  0  0  0  0  0  0  0  0  0  0  0
   33.1790   27.7270   48.5700 H   0  0  0  0  0  0  0  0  0  0  0  0
   34.9620   27.5510   50.1750 H   0  0  0  0  0  0  0  0  0  0  0  0
   32.8470   29.5550   46.6970 C   0  0  0  0  0  0  0  0  0  0  0  0
   31.8800   28.5740   46.5400 C   0  0  0  0  0  0  0  0  0  0  0  0
   30.8470   28.6830   45.6180 C   0  0  0  0  0  0  0  0  0  0  0  0
   30.7670   29.7680   44.8410 N   0  0  0  0  0  0  0  0  0  0  0  0
   31.7040   30.7340   44.9830 C   0  0  0  0  0  0  0  0  0  0  0  0
   32.6860   30.6120   45.8750 N   0  0  0  0  0  0  0  0  0  0  0  0
   31.9470   27.6940   47.1710 H   0  0  0  0  0  0  0  0  0  0  0  0
   30.1330   27.8810   45.5510 H   0  0  0  0  0  0  0  0  0  0  0  0
   31.5810   31.8740   44.1380 N   0  0  0  0  0  0  0  0  0  0  0  0
   31.9300   31.8090   42.7510 C   0  0  0  0  0  2  0  0  0  0  0  0
   31.1540   32.7270   41.8630 C   0  0  0  0  0  2  0  0  0  0  0  0
   30.6040   33.9340   42.5270 C   0  0  0  0  0  3  0  0  0  0  0  0
   30.6980   34.8010   41.8420 H   0  0  0  0  0  0  0  0  0  0  0  0
   31.3150   34.2880   43.8090 C   0  0  0  0  0  2  0  0  0  0  0  0
   31.0860   33.1120   44.7330 C   0  0  0  0  0  2  0  0  0  0  0  0
   37.9920   33.2220   49.6050 C   0  0  0  0  0  0  0  0  0  0  0  0
   39.0670   33.2330   48.6520 C   0  0  0  0  0  0  0  0  0  0  0  0
   39.0760   32.2520   47.6880 C   0  0  0  0  0  0  0  0  0  0  0  0
   38.0750   31.3230   47.6790 N   0  0  0  0  0  0  0  0  0  0  0  0
   37.0760   31.3290   48.5790 C   0  0  0  0  0  0  0  0  0  0  0  0
   37.0390   32.2900   49.5500 N   0  0  0  0  0  0  0  0  0  0  0  0
   38.0070   34.0100   50.3600 H   0  0  0  0  0  0  0  0  0  0  0  0
   39.8410   33.9880   48.6950 H   0  0  0  0  0  0  0  0  0  0  0  0
   39.8470   32.1870   46.9350 H   0  0  0  0  0  0  0  0  0  0  0  0
  2  1  1  0  0  0  0
  3 30  1  0  0  0  0
  3  2  2  0  0  0  0
  4  3  1  0  0  0  0
  5  4  2  0  0  0  0
  5  6  1  0  0  0  0
  6  9  1  0  0  0  0
  6  7  2  0  0  0  0
  7  2  1  0  0  0  0
  7 10  1  0  0  0  0
  8  4  1  0  0  0  0
 11  5  1  0  0  0  0
 12 11  1  0  0  0  0
 12 17  1  0  0  0  0
 13 12  2  0  0  0  0
 14 15  2  0  0  0  0
 14 13  1  0  0  0  0
 15 16  1  0  0  0  0
 16 11  2  0  0  0  0
 18 13  1  0  0  0  0
 19 25  1  0  0  0  0
 19 15  1  0  0  0  0
 20 19  1  0  0  0  0
 21 22  1  0  0  0  0
 21 20  1  0  0  0  0
 22 24  1  0  0  0  0
 23 22  1  0  0  0  0
 24 25  1  0  0  0  0
 26 32  1  0  0  0  0
 27 33  1  0  0  0  0
 27 26  2  0  0  0  0
 28 27  1  0  0  0  0
 29 28  2  0  0  0  0
 29 30  1  0  0  0  0
 30 31  2  0  0  0  0
 31 26  1  0  0  0  0
 34 28  1  0  0  0  0
M  END
>  <minimizedAffinity>
-6.77016068

>  <minimizedRMSD>
0.651515365

$$$$
