
 OpenBabel03272506493D

 40 43  0  0  1  0  0  0  0  0999 V2000
   37.0240   25.3450   30.7170 C   0  0  2  0  0  0  0  0  0  0  0  0
   37.1690   23.8700   30.9580 C   0  0  1  0  0  0  0  0  0  0  0  0
   38.0900   23.6920   31.9450 O   0  0  0  0  0  0  0  0  0  0  0  0
   38.3440   24.9110   32.5630 C   0  0  0  0  0  0  0  0  0  0  0  0
   37.2270   25.8480   32.1780 C   0  0  1  0  0  0  0  0  0  0  0  0
   37.7920   25.7980   30.1010 H   0  0  0  0  0  0  0  0  0  0  0  0
   37.4210   23.3650   30.0050 H   0  0  0  0  0  0  0  0  0  0  0  0
   39.3420   25.2080   32.2860 H   0  0  0  0  0  0  0  0  0  0  0  0
   38.3690   24.7840   33.6860 H   0  0  0  0  0  0  0  0  0  0  0  0
   36.3190   25.6240   32.7320 H   0  0  0  0  0  0  0  0  0  0  0  0
   35.7150   25.6540   30.2990 O   0  0  0  0  0  0  0  0  0  0  0  0
   35.5060   24.9510   29.6080 H   0  0  0  0  0  0  0  0  0  0  0  0
   35.5520   23.2470   31.5680 S   0  0  0  0  0  0  0  0  0  0  0  0
   35.4640   19.6430   33.2180 C   0  0  0  0  0  0  0  0  0  0  0  0
   35.8590   18.7690   32.2060 C   0  0  0  0  0  0  0  0  0  0  0  0
   36.1650   19.3170   30.9570 C   0  0  0  0  0  0  0  0  0  0  0  0
   36.0650   20.6710   30.7880 N   0  0  0  0  0  0  0  0  0  0  0  0
   35.6780   21.4770   31.8020 C   0  0  0  0  0  0  0  0  0  0  0  0
   35.3740   20.9760   33.0270 N   0  0  0  0  0  0  0  0  0  0  0  0
   35.2160   19.2820   34.1990 H   0  0  0  0  0  0  0  0  0  0  0  0
   35.9080   17.7220   32.4320 H   0  0  0  0  0  0  0  0  0  0  0  0
   36.4700   18.6660   30.1640 H   0  0  0  0  0  0  0  0  0  0  0  0
   37.6930   27.1390   32.1990 O   0  0  0  0  0  0  0  0  0  0  0  0
   36.6700   27.8360   34.8690 Cl  0  0  0  0  0  0  0  0  0  0  0  0
   36.4030   28.6610   33.3510 C   0  0  0  0  0  0  0  0  0  0  0  0
   36.9480   28.2420   32.1580 C   0  0  0  0  0  0  0  0  0  0  0  0
   36.6810   28.9980   31.0150 C   0  0  0  0  0  0  0  0  0  0  0  0
   35.8960   30.1280   31.0860 C   0  0  0  0  0  0  0  0  0  0  0  0
   35.3450   30.5560   32.2780 C   0  0  0  0  0  0  0  0  0  0  0  0
   35.6030   29.8150   33.4170 C   0  0  0  0  0  0  0  0  0  0  0  0
   37.0680   28.7490   30.0430 H   0  0  0  0  0  0  0  0  0  0  0  0
   35.6450   30.7630   30.2480 H   0  0  0  0  0  0  0  0  0  0  0  0
   34.7200   31.4400   32.3820 H   0  0  0  0  0  0  0  0  0  0  0  0
   35.0440   30.2390   34.6560 N   0  0  0  0  0  0  0  0  0  0  0  0
   35.9490   30.9490   35.5700 C   0  0  0  0  0  2  0  0  0  0  0  0
   35.4880   32.3770   35.7730 C   0  0  0  0  0  2  0  0  0  0  0  0
   33.9960   32.4820   35.4770 C   0  0  0  0  0  3  0  0  0  0  0  0
   33.5630   33.4100   35.8440 H   0  0  0  0  0  0  0  0  0  0  0  0
   33.3890   31.2270   36.1100 C   0  0  0  0  0  2  0  0  0  0  0  0
   33.7050   30.0800   35.1740 C   0  0  0  0  0  2  0  0  0  0  0  0
  1  6  1  6  0  0  0
  1  2  1  0  0  0  0
  1  5  1  0  0  0  0
  2  7  1  6  0  0  0
  2 13  1  0  0  0  0
  2  3  1  0  0  0  0
  3  4  1  0  0  0  0
  4  9  1  0  0  0  0
  5 23  1  0  0  0  0
  5  4  1  0  0  0  0
  5 10  1  1  0  0  0
  8  4  1  0  0  0  0
 11  1  1  0  0  0  0
 12 11  1  0  0  0  0
 13 18  1  0  0  0  0
 14 20  1  0  0  0  0
 15 21  1  0  0  0  0
 15 14  2  0  0  0  0
 16 15  1  0  0  0  0
 17 16  2  0  0  0  0
 17 18  1  0  0  0  0
 18 19  2  0  0  0  0
 19 14  1  0  0  0  0
 22 16  1  0  0  0  0
 25 30  1  0  0  0  0
 25 24  1  0  0  0  0
 26 23  1  0  0  0  0
 26 25  2  0  0  0  0
 27 28  2  0  0  0  0
 27 26  1  0  0  0  0
 28 29  1  0  0  0  0
 29 33  1  0  0  0  0
 29 30  2  0  0  0  0
 30 34  1  0  0  0  0
 31 27  1  0  0  0  0
 32 28  1  0  0  0  0
 34 40  1  0  0  0  0
 34 35  1  0  0  0  0
 35 36  1  0  0  0  0
 37 36  1  0  0  0  0
 37 38  1  0  0  0  0
 37 39  1  0  0  0  0
 40 39  1  0  0  0  0
M  END
>  <minimizedAffinity>
-5.70999002

$$$$

 OpenBabel03272506493D

 40 43  0  0  1  0  0  0  0  0999 V2000
   37.0650   28.1400   33.1230 C   0  0  2  0  0  0  0  0  0  0  0  0
   36.1160   29.1580   32.5600 C   0  0  1  0  0  0  0  0  0  0  0  0
   35.8620   28.8280   31.2640 O   0  0  0  0  0  0  0  0  0  0  0  0
   36.3270   27.5410   31.0170 C   0  0  0  0  0  0  0  0  0  0  0  0
   36.5540   26.8840   32.3550 C   0  0  1  0  0  0  0  0  0  0  0  0
   38.1100   28.2810   32.8690 H   0  0  0  0  0  0  0  0  0  0  0  0
   36.5410   30.1710   32.6960 H   0  0  0  0  0  0  0  0  0  0  0  0
   37.1840   27.6300   30.3700 H   0  0  0  0  0  0  0  0  0  0  0  0
   35.5620   26.9550   30.4250 H   0  0  0  0  0  0  0  0  0  0  0  0
   35.6130   26.5820   32.8080 H   0  0  0  0  0  0  0  0  0  0  0  0
   36.8430   27.9610   34.5020 O   0  0  0  0  0  0  0  0  0  0  0  0
   36.7530   28.8990   34.8590 H   0  0  0  0  0  0  0  0  0  0  0  0
   34.5420   29.0250   33.5000 S   0  0  0  0  0  0  0  0  0  0  0  0
   35.7910   31.7270   36.1200 C   0  0  0  0  0  0  0  0  0  0  0  0
   34.6530   32.0940   36.8360 C   0  0  0  0  0  0  0  0  0  0  0  0
   33.4440   31.4800   36.4950 C   0  0  0  0  0  0  0  0  0  0  0  0
   33.4350   30.5570   35.4850 N   0  0  0  0  0  0  0  0  0  0  0  0
   34.5670   30.2350   34.8200 C   0  0  0  0  0  0  0  0  0  0  0  0
   35.7570   30.8130   35.1270 N   0  0  0  0  0  0  0  0  0  0  0  0
   36.7490   32.1650   36.3350 H   0  0  0  0  0  0  0  0  0  0  0  0
   34.7560   32.8270   37.6110 H   0  0  0  0  0  0  0  0  0  0  0  0
   32.5560   31.7450   37.0310 H   0  0  0  0  0  0  0  0  0  0  0  0
   37.5410   25.9390   32.2330 O   0  0  0  0  0  0  0  0  0  0  0  0
   36.0640   23.8910   30.7200 Cl  0  0  0  0  0  0  0  0  0  0  0  0
   36.9110   23.7240   32.2410 C   0  0  0  0  0  0  0  0  0  0  0  0
   37.5800   24.7600   32.8510 C   0  0  0  0  0  0  0  0  0  0  0  0
   38.2390   24.4970   34.0540 C   0  0  0  0  0  0  0  0  0  0  0  0
   38.2160   23.2350   34.6070 C   0  0  0  0  0  0  0  0  0  0  0  0
   37.5470   22.1890   34.0020 C   0  0  0  0  0  0  0  0  0  0  0  0
   36.8910   22.4380   32.8100 C   0  0  0  0  0  0  0  0  0  0  0  0
   38.7910   25.2430   34.5960 H   0  0  0  0  0  0  0  0  0  0  0  0
   38.7000   22.9550   35.5310 H   0  0  0  0  0  0  0  0  0  0  0  0
   37.5020   21.1780   34.4020 H   0  0  0  0  0  0  0  0  0  0  0  0
   36.1950   21.3730   32.1710 N   0  0  0  0  0  0  0  0  0  0  0  0
   37.0000   20.4890   31.3180 C   0  0  0  0  0  2  0  0  0  0  0  0
   37.0280   19.0840   31.8840 C   0  0  0  0  0  2  0  0  0  0  0  0
   35.8110   18.8650   32.7740 C   0  0  0  0  0  3  0  0  0  0  0  0
   35.6440   17.8140   33.0010 H   0  0  0  0  0  0  0  0  0  0  0  0
   34.6550   19.5210   32.0150 C   0  0  0  0  0  2  0  0  0  0  0  0
   34.7970   21.0140   32.2240 C   0  0  0  0  0  2  0  0  0  0  0  0
  1  6  1  6  0  0  0
  1 11  1  0  0  0  0
  2  7  1  1  0  0  0
  2  1  1  0  0  0  0
  2 13  1  0  0  0  0
  3  2  1  0  0  0  0
  4  3  1  0  0  0  0
  4  5  1  0  0  0  0
  5 10  1  1  0  0  0
  5  1  1  0  0  0  0
  8  4  1  0  0  0  0
  9  4  1  0  0  0  0
 11 12  1  0  0  0  0
 13 18  1  0  0  0  0
 14 20  1  0  0  0  0
 14 15  1  0  0  0  0
 15 21  1  0  0  0  0
 16 15  2  0  0  0  0
 16 22  1  0  0  0  0
 17 16  1  0  0  0  0
 18 19  1  0  0  0  0
 18 17  2  0  0  0  0
 19 14  2  0  0  0  0
 23  5  1  0  0  0  0
 23 26  1  0  0  0  0
 24 25  1  0  0  0  0
 25 30  2  0  0  0  0
 25 26  1  0  0  0  0
 26 27  2  0  0  0  0
 27 31  1  0  0  0  0
 27 28  1  0  0  0  0
 28 32  1  0  0  0  0
 29 33  1  0  0  0  0
 29 28  2  0  0  0  0
 30 29  1  0  0  0  0
 34 40  1  0  0  0  0
 34 30  1  0  0  0  0
 35 36  1  0  0  0  0
 35 34  1  0  0  0  0
 36 37  1  0  0  0  0
 37 38  1  0  0  0  0
 39 40  1  0  0  0  0
 39 37  1  0  0  0  0
M  END
>  <minimizedAffinity>
-5.56426525

$$$$

 OpenBabel03272506493D

 40 43  0  0  1  0  0  0  0  0999 V2000
   36.9100   28.2150   32.6710 C   0  0  2  0  0  0  0  0  0  0  0  0
   36.2010   29.4720   32.2580 C   0  0  1  0  0  0  0  0  0  0  0  0
   36.0540   29.4490   30.9040 O   0  0  0  0  0  0  0  0  0  0  0  0
   36.3410   28.1720   30.4320 C   0  0  0  0  0  0  0  0  0  0  0  0
   36.3060   27.2400   31.6170 C   0  0  1  0  0  0  0  0  0  0  0  0
   37.9870   28.2180   32.5410 H   0  0  0  0  0  0  0  0  0  0  0  0
   36.7580   30.3510   32.6380 H   0  0  0  0  0  0  0  0  0  0  0  0
   37.2720   28.2340   29.8920 H   0  0  0  0  0  0  0  0  0  0  0  0
   35.5710   27.8540   29.6690 H   0  0  0  0  0  0  0  0  0  0  0  0
   35.2830   27.0260   31.9150 H   0  0  0  0  0  0  0  0  0  0  0  0
   36.5030   27.8150   33.9580 O   0  0  0  0  0  0  0  0  0  0  0  0
   36.5160   28.6670   34.4960 H   0  0  0  0  0  0  0  0  0  0  0  0
   34.5270   29.4370   33.0130 S   0  0  0  0  0  0  0  0  0  0  0  0
   35.8050   31.5830   36.0930 C   0  0  0  0  0  0  0  0  0  0  0  0
   34.6520   31.9470   36.7870 C   0  0  0  0  0  0  0  0  0  0  0  0
   33.4240   31.5110   36.2820 C   0  0  0  0  0  0  0  0  0  0  0  0
   33.4110   30.7540   35.1420 N   0  0  0  0  0  0  0  0  0  0  0  0
   34.5570   30.4270   34.5040 C   0  0  0  0  0  0  0  0  0  0  0  0
   35.7660   30.8360   34.9690 N   0  0  0  0  0  0  0  0  0  0  0  0
   36.7780   31.8890   36.4310 H   0  0  0  0  0  0  0  0  0  0  0  0
   34.7610   32.5420   37.6720 H   0  0  0  0  0  0  0  0  0  0  0  0
   32.5250   31.7770   36.7980 H   0  0  0  0  0  0  0  0  0  0  0  0
   37.1440   26.1800   31.3820 O   0  0  0  0  0  0  0  0  0  0  0  0
   38.8520   25.1580   33.5500 Cl  0  0  0  0  0  0  0  0  0  0  0  0
   37.6300   24.3080   32.6340 C   0  0  0  0  0  0  0  0  0  0  0  0
   36.8820   24.9000   31.6420 C   0  0  0  0  0  0  0  0  0  0  0  0
   35.9170   24.1230   30.9960 C   0  0  0  0  0  0  0  0  0  0  0  0
   35.7260   22.8040   31.3470 C   0  0  0  0  0  0  0  0  0  0  0  0
   36.4720   22.2010   32.3410 C   0  0  0  0  0  0  0  0  0  0  0  0
   37.4300   22.9620   32.9880 C   0  0  0  0  0  0  0  0  0  0  0  0
   35.2850   24.5030   30.2140 H   0  0  0  0  0  0  0  0  0  0  0  0
   35.0030   22.1410   30.8940 H   0  0  0  0  0  0  0  0  0  0  0  0
   36.3570   21.1650   32.6510 H   0  0  0  0  0  0  0  0  0  0  0  0
   38.2100   22.3600   34.0150 N   0  0  0  0  0  0  0  0  0  0  0  0
   39.3590   21.5580   33.5750 C   0  0  0  0  0  2  0  0  0  0  0  0
   40.6560   22.1850   34.0420 C   0  0  0  0  0  2  0  0  0  0  0  0
   40.3920   23.0650   35.2570 C   0  0  0  0  0  3  0  0  0  0  0  0
   41.3060   23.3350   35.7830 H   0  0  0  0  0  0  0  0  0  0  0  0
   39.4070   22.2610   36.1100 C   0  0  0  0  0  2  0  0  0  0  0  0
   38.0520   22.4070   35.4510 C   0  0  0  0  0  2  0  0  0  0  0  0
  1  6  1  6  0  0  0
  1 11  1  0  0  0  0
  2  7  1  1  0  0  0
  2  1  1  0  0  0  0
  2 13  1  0  0  0  0
  3  2  1  0  0  0  0
  4  3  1  0  0  0  0
  4  5  1  0  0  0  0
  5 10  1  1  0  0  0
  5  1  1  0  0  0  0
  8  4  1  0  0  0  0
  9  4  1  0  0  0  0
 11 12  1  0  0  0  0
 13 18  1  0  0  0  0
 14 20  1  0  0  0  0
 14 15  1  0  0  0  0
 15 21  1  0  0  0  0
 16 15  2  0  0  0  0
 16 22  1  0  0  0  0
 17 16  1  0  0  0  0
 18 19  1  0  0  0  0
 18 17  2  0  0  0  0
 19 14  2  0  0  0  0
 23  5  1  0  0  0  0
 23 26  1  0  0  0  0
 25 30  1  0  0  0  0
 25 24  1  0  0  0  0
 26 25  2  0  0  0  0
 27 28  2  0  0  0  0
 27 26  1  0  0  0  0
 28 29  1  0  0  0  0
 29 33  1  0  0  0  0
 29 30  2  0  0  0  0
 30 34  1  0  0  0  0
 31 27  1  0  0  0  0
 32 28  1  0  0  0  0
 34 40  1  0  0  0  0
 35 34  1  0  0  0  0
 35 36  1  0  0  0  0
 36 37  1  0  0  0  0
 37 38  1  0  0  0  0
 37 39  1  0  0  0  0
 40 39  1  0  0  0  0
M  END
>  <minimizedAffinity>
-5.48998356

$$$$

 OpenBabel03272506493D

 40 43  0  0  1  0  0  0  0  0999 V2000
   37.3560   25.0900   30.7890 C   0  0  2  0  0  0  0  0  0  0  0  0
   37.4610   23.6210   31.0770 C   0  0  1  0  0  0  0  0  0  0  0  0
   38.3980   23.4470   32.0510 O   0  0  0  0  0  0  0  0  0  0  0  0
   38.7030   24.6790   32.6210 C   0  0  0  0  0  0  0  0  0  0  0  0
   37.6070   25.6370   32.2260 C   0  0  1  0  0  0  0  0  0  0  0  0
   38.1240   25.4980   30.1400 H   0  0  0  0  0  0  0  0  0  0  0  0
   37.6770   23.0760   30.1380 H   0  0  0  0  0  0  0  0  0  0  0  0
   39.7030   24.9340   32.3120 H   0  0  0  0  0  0  0  0  0  0  0  0
   38.7490   24.5900   33.7460 H   0  0  0  0  0  0  0  0  0  0  0  0
   36.7050   25.4600   32.8070 H   0  0  0  0  0  0  0  0  0  0  0  0
   36.0490   25.4260   30.3880 O   0  0  0  0  0  0  0  0  0  0  0  0
   35.8030   24.7070   29.7260 H   0  0  0  0  0  0  0  0  0  0  0  0
   35.8400   23.0700   31.7440 S   0  0  0  0  0  0  0  0  0  0  0  0
   36.2500   19.2510   30.7610 C   0  0  0  0  0  0  0  0  0  0  0  0
   35.8470   18.5390   31.8890 C   0  0  0  0  0  0  0  0  0  0  0  0
   35.4300   19.2700   33.0050 C   0  0  0  0  0  0  0  0  0  0  0  0
   35.4370   20.6370   32.9380 N   0  0  0  0  0  0  0  0  0  0  0  0
   35.8360   21.2820   31.8190 C   0  0  0  0  0  0  0  0  0  0  0  0
   36.2470   20.6000   30.7190 N   0  0  0  0  0  0  0  0  0  0  0  0
   36.5800   18.7450   29.8720 H   0  0  0  0  0  0  0  0  0  0  0  0
   35.8760   17.4680   31.8490 H   0  0  0  0  0  0  0  0  0  0  0  0
   35.1160   18.7450   33.8830 H   0  0  0  0  0  0  0  0  0  0  0  0
   38.1120   26.9120   32.1920 O   0  0  0  0  0  0  0  0  0  0  0  0
   36.2630   28.0990   34.1510 Cl  0  0  0  0  0  0  0  0  0  0  0  0
   36.6010   28.6200   32.5160 C   0  0  0  0  0  0  0  0  0  0  0  0
   37.5020   27.9840   31.6910 C   0  0  0  0  0  0  0  0  0  0  0  0
   37.7030   28.5090   30.4130 C   0  0  0  0  0  0  0  0  0  0  0  0
   37.0160   29.6290   29.9960 C   0  0  0  0  0  0  0  0  0  0  0  0
   36.1110   30.2730   30.8160 C   0  0  0  0  0  0  0  0  0  0  0  0
   35.9040   29.7620   32.0850 C   0  0  0  0  0  0  0  0  0  0  0  0
   38.3900   28.0820   29.7050 H   0  0  0  0  0  0  0  0  0  0  0  0
   37.1180   30.0920   29.0250 H   0  0  0  0  0  0  0  0  0  0  0  0
   35.5470   31.1580   30.5300 H   0  0  0  0  0  0  0  0  0  0  0  0
   34.9740   30.4110   32.9450 N   0  0  0  0  0  0  0  0  0  0  0  0
   33.5680   30.3860   32.5220 C   0  0  0  0  0  2  0  0  0  0  0  0
   32.7290   29.5960   33.5050 C   0  0  0  0  0  2  0  0  0  0  0  0
   33.4190   29.5720   34.8640 C   0  0  0  0  0  3  0  0  0  0  0  0
   32.7560   29.2430   35.6620 H   0  0  0  0  0  0  0  0  0  0  0  0
   33.9490   30.9950   35.0530 C   0  0  0  0  0  2  0  0  0  0  0  0
   35.1910   31.1070   34.1930 C   0  0  0  0  0  2  0  0  0  0  0  0
  1  6  1  6  0  0  0
  1  2  1  0  0  0  0
  1  5  1  0  0  0  0
  2  7  1  6  0  0  0
  2 13  1  0  0  0  0
  2  3  1  0  0  0  0
  3  4  1  0  0  0  0
  4  9  1  0  0  0  0
  5  4  1  0  0  0  0
  5 10  1  1  0  0  0
  8  4  1  0  0  0  0
 11  1  1  0  0  0  0
 12 11  1  0  0  0  0
 13 18  1  0  0  0  0
 14 15  1  0  0  0  0
 15 16  2  0  0  0  0
 16 22  1  0  0  0  0
 17 16  1  0  0  0  0
 18 17  2  0  0  0  0
 19 14  2  0  0  0  0
 19 18  1  0  0  0  0
 20 14  1  0  0  0  0
 21 15  1  0  0  0  0
 23  5  1  0  0  0  0
 25 24  1  0  0  0  0
 26 23  1  0  0  0  0
 26 25  2  0  0  0  0
 27 26  1  0  0  0  0
 28 27  2  0  0  0  0
 28 29  1  0  0  0  0
 29 30  2  0  0  0  0
 30 25  1  0  0  0  0
 30 34  1  0  0  0  0
 31 27  1  0  0  0  0
 32 28  1  0  0  0  0
 33 29  1  0  0  0  0
 34 40  1  0  0  0  0
 35 34  1  0  0  0  0
 35 36  1  0  0  0  0
 36 37  1  0  0  0  0
 37 39  1  0  0  0  0
 37 38  1  0  0  0  0
 40 39  1  0  0  0  0
M  END
>  <minimizedAffinity>
-5.46841955

$$$$

 OpenBabel03272506493D

 40 43  0  0  1  0  0  0  0  0999 V2000
   37.1030   25.9090   33.3190 C   0  0  2  0  0  0  0  0  0  0  0  0
   38.2160   24.9670   32.9630 C   0  0  1  0  0  0  0  0  0  0  0  0
   38.4980   25.1260   31.6400 O   0  0  0  0  0  0  0  0  0  0  0  0
   37.8740   26.2780   31.1720 C   0  0  0  0  0  0  0  0  0  0  0  0
   37.4800   27.0930   32.3780 C   0  0  1  0  0  0  0  0  0  0  0  0
   36.1050   25.5790   33.0530 H   0  0  0  0  0  0  0  0  0  0  0  0
   37.9290   23.9350   33.2440 H   0  0  0  0  0  0  0  0  0  0  0  0
   37.0770   25.9650   30.5170 H   0  0  0  0  0  0  0  0  0  0  0  0
   38.5830   26.8710   30.5220 H   0  0  0  0  0  0  0  0  0  0  0  0
   38.3420   27.5950   32.8100 H   0  0  0  0  0  0  0  0  0  0  0  0
   37.2170   26.3290   34.6580 O   0  0  0  0  0  0  0  0  0  0  0  0
   37.4150   25.4810   35.1650 H   0  0  0  0  0  0  0  0  0  0  0  0
   39.6980   25.4710   33.9250 S   0  0  0  0  0  0  0  0  0  0  0  0
   41.2470   22.9180   36.5330 C   0  0  0  0  0  0  0  0  0  0  0  0
   40.2110   22.6290   37.4190 C   0  0  0  0  0  0  0  0  0  0  0  0
   38.9780   23.2500   37.2030 C   0  0  0  0  0  0  0  0  0  0  0  0
   38.8470   24.1040   36.1420 N   0  0  0  0  0  0  0  0  0  0  0  0
   39.8820   24.3520   35.3090 C   0  0  0  0  0  0  0  0  0  0  0  0
   41.0930   23.7650   35.4930 N   0  0  0  0  0  0  0  0  0  0  0  0
   42.2180   22.4710   36.6470 H   0  0  0  0  0  0  0  0  0  0  0  0
   40.4070   21.9460   38.2230 H   0  0  0  0  0  0  0  0  0  0  0  0
   38.1670   23.0440   37.8710 H   0  0  0  0  0  0  0  0  0  0  0  0
   36.3800   27.8520   32.0690 O   0  0  0  0  0  0  0  0  0  0  0  0
   35.3680   29.0430   34.5640 Cl  0  0  0  0  0  0  0  0  0  0  0  0
   35.8730   29.8510   33.0970 C   0  0  0  0  0  0  0  0  0  0  0  0
   36.3420   29.1810   31.9890 C   0  0  0  0  0  0  0  0  0  0  0  0
   36.7380   29.9390   30.8850 C   0  0  0  0  0  0  0  0  0  0  0  0
   36.6580   31.3140   30.9100 C   0  0  0  0  0  0  0  0  0  0  0  0
   36.1890   31.9940   32.0170 C   0  0  0  0  0  0  0  0  0  0  0  0
   35.7950   31.2540   33.1170 C   0  0  0  0  0  0  0  0  0  0  0  0
   37.1200   29.5020   29.9800 H   0  0  0  0  0  0  0  0  0  0  0  0
   36.9440   31.9660   30.0970 H   0  0  0  0  0  0  0  0  0  0  0  0
   36.1080   33.0770   32.0810 H   0  0  0  0  0  0  0  0  0  0  0  0
   35.3080   31.9360   34.2670 N   0  0  0  0  0  0  0  0  0  0  0  0
   33.9990   32.5880   34.1320 C   0  0  0  0  0  2  0  0  0  0  0  0
   32.9840   31.9430   35.0540 C   0  0  0  0  0  2  0  0  0  0  0  0
   33.7040   31.2580   36.2090 C   0  0  0  0  0  3  0  0  0  0  0  0
   33.0300   31.0000   37.0250 H   0  0  0  0  0  0  0  0  0  0  0  0
   34.8090   32.2380   36.6110 C   0  0  0  0  0  2  0  0  0  0  0  0
   35.9030   32.0970   35.5740 C   0  0  0  0  0  2  0  0  0  0  0  0
  1  6  1  6  0  0  0
  1 11  1  0  0  0  0
  2  7  1  1  0  0  0
  2  1  1  0  0  0  0
  2 13  1  0  0  0  0
  3  2  1  0  0  0  0
  4  3  1  0  0  0  0
  4  5  1  0  0  0  0
  5 10  1  1  0  0  0
  5  1  1  0  0  0  0
  8  4  1  0  0  0  0
  9  4  1  0  0  0  0
 11 12  1  0  0  0  0
 13 18  1  0  0  0  0
 14 20  1  0  0  0  0
 14 15  1  0  0  0  0
 15 21  1  0  0  0  0
 16 15  2  0  0  0  0
 16 22  1  0  0  0  0
 17 16  1  0  0  0  0
 18 19  1  0  0  0  0
 18 17  2  0  0  0  0
 19 14  2  0  0  0  0
 23  5  1  0  0  0  0
 25 30  1  0  0  0  0
 25 24  1  0  0  0  0
 26 23  1  0  0  0  0
 26 25  2  0  0  0  0
 27 28  2  0  0  0  0
 27 26  1  0  0  0  0
 28 29  1  0  0  0  0
 29 33  1  0  0  0  0
 29 30  2  0  0  0  0
 30 34  1  0  0  0  0
 31 27  1  0  0  0  0
 32 28  1  0  0  0  0
 34 40  1  0  0  0  0
 35 34  1  0  0  0  0
 35 36  1  0  0  0  0
 36 37  1  0  0  0  0
 37 39  1  0  0  0  0
 37 38  1  0  0  0  0
 40 39  1  0  0  0  0
M  END
>  <minimizedAffinity>
-5.36630154

$$$$

 OpenBabel03272506493D

 40 43  0  0  1  0  0  0  0  0999 V2000
   37.0250   26.4350   30.9900 C   0  0  2  0  0  0  0  0  0  0  0  0
   38.2540   25.8710   31.6420 C   0  0  1  0  0  0  0  0  0  0  0  0
   38.5800   26.6720   32.6930 O   0  0  0  0  0  0  0  0  0  0  0  0
   37.5230   27.5350   32.9600 C   0  0  0  0  0  0  0  0  0  0  0  0
   36.3070   26.9800   32.2610 C   0  0  1  0  0  0  0  0  0  0  0  0
   37.1900   27.2700   30.3190 H   0  0  0  0  0  0  0  0  0  0  0  0
   39.0560   25.7650   30.8850 H   0  0  0  0  0  0  0  0  0  0  0  0
   37.8380   28.5240   32.6710 H   0  0  0  0  0  0  0  0  0  0  0  0
   37.3350   27.5920   34.0730 H   0  0  0  0  0  0  0  0  0  0  0  0
   35.9010   26.1290   32.8000 H   0  0  0  0  0  0  0  0  0  0  0  0
   36.2450   25.4080   30.4240 O   0  0  0  0  0  0  0  0  0  0  0  0
   36.9160   24.8270   29.9460 H   0  0  0  0  0  0  0  0  0  0  0  0
   37.8180   24.2130   32.3030 S   0  0  0  0  0  0  0  0  0  0  0  0
   40.7140   23.3730   34.8780 C   0  0  0  0  0  0  0  0  0  0  0  0
   40.1450   23.5500   36.1370 C   0  0  0  0  0  0  0  0  0  0  0  0
   38.8060   23.9470   36.1960 C   0  0  0  0  0  0  0  0  0  0  0  0
   38.1240   24.1410   35.0260 N   0  0  0  0  0  0  0  0  0  0  0  0
   38.7210   23.9560   33.8270 C   0  0  0  0  0  0  0  0  0  0  0  0
   40.0200   23.5710   33.7370 N   0  0  0  0  0  0  0  0  0  0  0  0
   41.7390   23.0690   34.7680 H   0  0  0  0  0  0  0  0  0  0  0  0
   40.7580   23.3740   37.0000 H   0  0  0  0  0  0  0  0  0  0  0  0
   38.3470   24.0890   37.1520 H   0  0  0  0  0  0  0  0  0  0  0  0
   35.4570   28.0110   31.9490 O   0  0  0  0  0  0  0  0  0  0  0  0
   34.6650   29.1970   34.5240 Cl  0  0  0  0  0  0  0  0  0  0  0  0
   35.4130   29.9770   33.1500 C   0  0  0  0  0  0  0  0  0  0  0  0
   35.7500   29.3100   31.9930 C   0  0  0  0  0  0  0  0  0  0  0  0
   36.3650   30.0370   30.9730 C   0  0  0  0  0  0  0  0  0  0  0  0
   36.6250   31.3820   31.1250 C   0  0  0  0  0  0  0  0  0  0  0  0
   36.2900   32.0600   32.2810 C   0  0  0  0  0  0  0  0  0  0  0  0
   35.6810   31.3480   33.2990 C   0  0  0  0  0  0  0  0  0  0  0  0
   36.6670   29.5980   30.0390 H   0  0  0  0  0  0  0  0  0  0  0  0
   37.0960   32.0100   30.3830 H   0  0  0  0  0  0  0  0  0  0  0  0
   36.4760   33.1190   32.4460 H   0  0  0  0  0  0  0  0  0  0  0  0
   35.3280   32.0290   34.4990 N   0  0  0  0  0  0  0  0  0  0  0  0
   34.1370   32.8860   34.4350 C   0  0  0  0  0  2  0  0  0  0  0  0
   33.0490   32.3550   35.3450 C   0  0  0  0  0  2  0  0  0  0  0  0
   33.6690   31.4970   36.4410 C   0  0  0  0  0  3  0  0  0  0  0  0
   32.9780   31.3000   37.2580 H   0  0  0  0  0  0  0  0  0  0  0  0
   34.9230   32.2640   36.8680 C   0  0  0  0  0  2  0  0  0  0  0  0
   35.9640   32.0150   35.7960 C   0  0  0  0  0  2  0  0  0  0  0  0
  1  6  1  6  0  0  0
  1  2  1  0  0  0  0
  1  5  1  0  0  0  0
  2  7  1  6  0  0  0
  2 13  1  0  0  0  0
  2  3  1  0  0  0  0
  3  4  1  0  0  0  0
  4  9  1  0  0  0  0
  5 10  1  1  0  0  0
  5  4  1  0  0  0  0
  8  4  1  0  0  0  0
 11  1  1  0  0  0  0
 12 11  1  0  0  0  0
 13 18  1  0  0  0  0
 14 15  1  0  0  0  0
 15 16  2  0  0  0  0
 15 21  1  0  0  0  0
 16 22  1  0  0  0  0
 17 16  1  0  0  0  0
 18 17  2  0  0  0  0
 19 18  1  0  0  0  0
 19 14  2  0  0  0  0
 20 14  1  0  0  0  0
 23 26  1  0  0  0  0
 23  5  1  0  0  0  0
 25 30  1  0  0  0  0
 25 24  1  0  0  0  0
 26 25  2  0  0  0  0
 27 28  2  0  0  0  0
 27 26  1  0  0  0  0
 28 29  1  0  0  0  0
 29 33  1  0  0  0  0
 29 30  2  0  0  0  0
 30 34  1  0  0  0  0
 31 27  1  0  0  0  0
 32 28  1  0  0  0  0
 34 40  1  0  0  0  0
 35 34  1  0  0  0  0
 35 36  1  0  0  0  0
 36 37  1  0  0  0  0
 37 39  1  0  0  0  0
 37 38  1  0  0  0  0
 40 39  1  0  0  0  0
M  END
>  <minimizedAffinity>
-5.35395098

$$$$

 OpenBabel03272506493D

 40 43  0  0  1  0  0  0  0  0999 V2000
   36.2150   29.1420   33.2130 C   0  0  2  0  0  0  0  0  0  0  0  0
   35.2140   30.1520   32.7300 C   0  0  1  0  0  0  0  0  0  0  0  0
   35.2280   30.1430   31.3680 O   0  0  0  0  0  0  0  0  0  0  0  0
   35.9310   29.0280   30.9230 C   0  0  0  0  0  0  0  0  0  0  0  0
   36.0460   28.0780   32.0880 C   0  0  1  0  0  0  0  0  0  0  0  0
   37.2490   29.4670   33.2090 H   0  0  0  0  0  0  0  0  0  0  0  0
   35.4400   31.1380   33.1800 H   0  0  0  0  0  0  0  0  0  0  0  0
   36.8550   29.3840   30.4950 H   0  0  0  0  0  0  0  0  0  0  0  0
   35.3780   28.5310   30.0720 H   0  0  0  0  0  0  0  0  0  0  0  0
   35.1060   27.5600   32.2630 H   0  0  0  0  0  0  0  0  0  0  0  0
   35.8070   28.5860   34.4400 O   0  0  0  0  0  0  0  0  0  0  0  0
   35.5080   29.3810   34.9830 H   0  0  0  0  0  0  0  0  0  0  0  0
   33.5530   29.5940   33.2850 S   0  0  0  0  0  0  0  0  0  0  0  0
   31.5900   30.9720   36.4420 C   0  0  0  0  0  0  0  0  0  0  0  0
   32.5530   31.6130   37.2190 C   0  0  0  0  0  0  0  0  0  0  0  0
   33.8690   31.6210   36.7480 C   0  0  0  0  0  0  0  0  0  0  0  0
   34.1470   31.0050   35.5580 N   0  0  0  0  0  0  0  0  0  0  0  0
   33.1770   30.3960   34.8400 C   0  0  0  0  0  0  0  0  0  0  0  0
   31.8890   30.3710   35.2710 N   0  0  0  0  0  0  0  0  0  0  0  0
   30.5620   30.9330   36.7520 H   0  0  0  0  0  0  0  0  0  0  0  0
   32.2420   32.0690   38.1380 H   0  0  0  0  0  0  0  0  0  0  0  0
   34.6270   32.1070   37.3270 H   0  0  0  0  0  0  0  0  0  0  0  0
   37.1810   27.3220   31.9430 O   0  0  0  0  0  0  0  0  0  0  0  0
   39.0030   27.1110   34.2460 Cl  0  0  0  0  0  0  0  0  0  0  0  0
   38.1760   25.8300   33.3900 C   0  0  0  0  0  0  0  0  0  0  0  0
   37.3330   26.0550   32.3250 C   0  0  0  0  0  0  0  0  0  0  0  0
   36.7110   24.9510   31.7380 C   0  0  0  0  0  0  0  0  0  0  0  0
   36.9380   23.6780   32.2150 C   0  0  0  0  0  0  0  0  0  0  0  0
   37.7820   23.4430   33.2830 C   0  0  0  0  0  0  0  0  0  0  0  0
   38.4030   24.5290   33.8730 C   0  0  0  0  0  0  0  0  0  0  0  0
   36.0350   25.0320   30.9060 H   0  0  0  0  0  0  0  0  0  0  0  0
   36.4960   22.7780   31.8140 H   0  0  0  0  0  0  0  0  0  0  0  0
   37.9910   22.4580   33.6930 H   0  0  0  0  0  0  0  0  0  0  0  0
   39.2770   24.3080   34.9750 N   0  0  0  0  0  0  0  0  0  0  0  0
   38.6620   24.3290   36.3080 C   0  0  0  0  0  2  0  0  0  0  0  0
   38.7660   22.9680   36.9650 C   0  0  0  0  0  2  0  0  0  0  0  0
   39.9250   22.1910   36.3530 C   0  0  0  0  0  3  0  0  0  0  0  0
   40.2040   21.3220   36.9480 H   0  0  0  0  0  0  0  0  0  0  0  0
   41.0470   23.2220   36.2080 C   0  0  0  0  0  2  0  0  0  0  0  0
   40.7010   24.0630   34.9970 C   0  0  0  0  0  2  0  0  0  0  0  0
  1  6  1  1  0  0  0
  1 11  1  0  0  0  0
  2  7  1  1  0  0  0
  2  1  1  0  0  0  0
  2 13  1  0  0  0  0
  3  2  1  0  0  0  0
  4  3  1  0  0  0  0
  4  5  1  0  0  0  0
  5 10  1  1  0  0  0
  5  1  1  0  0  0  0
  8  4  1  0  0  0  0
  9  4  1  0  0  0  0
 11 12  1  0  0  0  0
 13 18  1  0  0  0  0
 14 20  1  0  0  0  0
 14 15  1  0  0  0  0
 15 21  1  0  0  0  0
 16 15  2  0  0  0  0
 16 22  1  0  0  0  0
 17 16  1  0  0  0  0
 18 19  1  0  0  0  0
 18 17  2  0  0  0  0
 19 14  2  0  0  0  0
 23  5  1  0  0  0  0
 23 26  1  0  0  0  0
 25 30  1  0  0  0  0
 25 24  1  0  0  0  0
 26 25  2  0  0  0  0
 27 28  2  0  0  0  0
 27 26  1  0  0  0  0
 28 29  1  0  0  0  0
 29 33  1  0  0  0  0
 29 30  2  0  0  0  0
 30 34  1  0  0  0  0
 31 27  1  0  0  0  0
 32 28  1  0  0  0  0
 34 40  1  0  0  0  0
 34 35  1  0  0  0  0
 35 36  1  0  0  0  0
 37 38  1  0  0  0  0
 37 36  1  0  0  0  0
 39 37  1  0  0  0  0
 40 39  1  0  0  0  0
M  END
>  <minimizedAffinity>
-5.26934862

$$$$

 OpenBabel03272506493D

 40 43  0  0  1  0  0  0  0  0999 V2000
   36.9400   26.3970   33.8710 C   0  0  2  0  0  0  0  0  0  0  0  0
   36.5530   27.7560   34.3780 C   0  0  1  0  0  0  0  0  0  0  0  0
   37.5050   28.1640   35.2620 O   0  0  0  0  0  0  0  0  0  0  0  0
   38.6140   27.3300   35.1620 C   0  0  0  0  0  0  0  0  0  0  0  0
   38.4880   26.5760   33.8620 C   0  0  1  0  0  0  0  0  0  0  0  0
   36.7060   25.5660   34.5260 H   0  0  0  0  0  0  0  0  0  0  0  0
   35.5300   27.7130   34.8010 H   0  0  0  0  0  0  0  0  0  0  0  0
   38.6520   26.7400   36.0630 H   0  0  0  0  0  0  0  0  0  0  0  0
   39.5640   27.9410   35.1610 H   0  0  0  0  0  0  0  0  0  0  0  0
   38.7420   27.2090   33.0160 H   0  0  0  0  0  0  0  0  0  0  0  0
   36.4890   26.2130   32.5500 O   0  0  0  0  0  0  0  0  0  0  0  0
   35.5410   26.5560   32.5640 H   0  0  0  0  0  0  0  0  0  0  0  0
   36.5740   28.9080   32.9470 S   0  0  0  0  0  0  0  0  0  0  0  0
   32.7870   29.8800   33.6090 C   0  0  0  0  0  0  0  0  0  0  0  0
   32.4210   30.6760   32.5260 C   0  0  0  0  0  0  0  0  0  0  0  0
   33.3860   30.9260   31.5460 C   0  0  0  0  0  0  0  0  0  0  0  0
   34.6330   30.3820   31.6940 N   0  0  0  0  0  0  0  0  0  0  0  0
   34.9390   29.6150   32.7640 C   0  0  0  0  0  0  0  0  0  0  0  0
   34.0250   29.3540   33.7330 N   0  0  0  0  0  0  0  0  0  0  0  0
   32.0890   29.6530   34.3940 H   0  0  0  0  0  0  0  0  0  0  0  0
   31.4200   31.0600   32.4940 H   0  0  0  0  0  0  0  0  0  0  0  0
   33.1270   31.5350   30.7040 H   0  0  0  0  0  0  0  0  0  0  0  0
   39.1280   25.3680   33.9780 O   0  0  0  0  0  0  0  0  0  0  0  0
   38.2290   23.4300   31.9530 Cl  0  0  0  0  0  0  0  0  0  0  0  0
   38.1690   23.2920   33.6950 C   0  0  0  0  0  0  0  0  0  0  0  0
   38.6330   24.2690   34.5470 C   0  0  0  0  0  0  0  0  0  0  0  0
   38.5520   24.0330   35.9210 C   0  0  0  0  0  0  0  0  0  0  0  0
   38.0210   22.8570   36.4030 C   0  0  0  0  0  0  0  0  0  0  0  0
   37.5530   21.8710   35.5560 C   0  0  0  0  0  0  0  0  0  0  0  0
   37.6290   22.0940   34.1930 C   0  0  0  0  0  0  0  0  0  0  0  0
   38.8950   24.7370   36.6580 H   0  0  0  0  0  0  0  0  0  0  0  0
   37.9250   22.6030   37.4490 H   0  0  0  0  0  0  0  0  0  0  0  0
   37.1260   20.9280   35.8910 H   0  0  0  0  0  0  0  0  0  0  0  0
   37.1500   21.0900   33.3040 N   0  0  0  0  0  0  0  0  0  0  0  0
   35.7500   20.6830   33.4750 C   0  0  0  0  0  2  0  0  0  0  0  0
   34.9350   21.0460   32.2500 C   0  0  0  0  0  2  0  0  0  0  0  0
   35.8540   21.1700   31.0410 C   0  0  0  0  0  3  0  0  0  0  0  0
   35.3060   21.1780   30.1010 H   0  0  0  0  0  0  0  0  0  0  0  0
   36.8280   19.9960   31.1750 C   0  0  0  0  0  2  0  0  0  0  0  0
   37.8310   20.3910   32.2380 C   0  0  0  0  0  2  0  0  0  0  0  0
  1  2  1  0  0  0  0
  1  6  1  1  0  0  0
  2  7  1  1  0  0  0
  2  3  1  0  0  0  0
  4  3  1  0  0  0  0
  4  8  1  0  0  0  0
  5 10  1  6  0  0  0
  5  1  1  0  0  0  0
  5 23  1  0  0  0  0
  5  4  1  0  0  0  0
  9  4  1  0  0  0  0
 11 12  1  0  0  0  0
 11  1  1  0  0  0  0
 13  2  1  0  0  0  0
 14 19  1  0  0  0  0
 14 20  1  0  0  0  0
 15 14  2  0  0  0  0
 16 17  2  0  0  0  0
 16 15  1  0  0  0  0
 17 18  1  0  0  0  0
 18 13  1  0  0  0  0
 18 19  2  0  0  0  0
 21 15  1  0  0  0  0
 22 16  1  0  0  0  0
 23 26  1  0  0  0  0
 24 25  1  0  0  0  0
 25 30  2  0  0  0  0
 25 26  1  0  0  0  0
 26 27  2  0  0  0  0
 27 28  1  0  0  0  0
 27 31  1  0  0  0  0
 28 32  1  0  0  0  0
 29 33  1  0  0  0  0
 29 28  2  0  0  0  0
 30 29  1  0  0  0  0
 34 35  1  0  0  0  0
 34 30  1  0  0  0  0
 36 35  1  0  0  0  0
 37 39  1  0  0  0  0
 37 36  1  0  0  0  0
 38 37  1  0  0  0  0
 39 40  1  0  0  0  0
 40 34  1  0  0  0  0
M  END
>  <minimizedAffinity>
-5.23406029

$$$$

 OpenBabel03272506493D

 40 43  0  0  1  0  0  0  0  0999 V2000
   37.4150   24.8490   31.2290 C   0  0  2  0  0  0  0  0  0  0  0  0
   37.5040   23.4170   31.6690 C   0  0  1  0  0  0  0  0  0  0  0  0
   38.1010   23.3870   32.8930 O   0  0  0  0  0  0  0  0  0  0  0  0
   38.1480   24.6770   33.4130 C   0  0  0  0  0  0  0  0  0  0  0  0
   37.1790   25.5140   32.6180 C   0  0  1  0  0  0  0  0  0  0  0  0
   38.3230   25.2700   30.8100 H   0  0  0  0  0  0  0  0  0  0  0  0
   38.0280   22.8260   30.8940 H   0  0  0  0  0  0  0  0  0  0  0  0
   39.1800   24.9880   33.4010 H   0  0  0  0  0  0  0  0  0  0  0  0
   37.8480   24.6710   34.5030 H   0  0  0  0  0  0  0  0  0  0  0  0
   36.1520   25.3090   32.9110 H   0  0  0  0  0  0  0  0  0  0  0  0
   36.2800   25.0520   30.4210 O   0  0  0  0  0  0  0  0  0  0  0  0
   36.2890   24.2700   29.7840 H   0  0  0  0  0  0  0  0  0  0  0  0
   35.7870   22.7890   31.8580 S   0  0  0  0  0  0  0  0  0  0  0  0
   36.3810   19.0300   30.7430 C   0  0  0  0  0  0  0  0  0  0  0  0
   35.9300   18.2580   31.8110 C   0  0  0  0  0  0  0  0  0  0  0  0
   35.4200   18.9260   32.9270 C   0  0  0  0  0  0  0  0  0  0  0  0
   35.3860   20.2940   32.9190 N   0  0  0  0  0  0  0  0  0  0  0  0
   35.8360   20.9990   31.8570 C   0  0  0  0  0  0  0  0  0  0  0  0
   36.3380   20.3800   30.7580 N   0  0  0  0  0  0  0  0  0  0  0  0
   36.7840   18.5740   29.8570 H   0  0  0  0  0  0  0  0  0  0  0  0
   35.9950   17.1900   31.7280 H   0  0  0  0  0  0  0  0  0  0  0  0
   35.0670   18.3540   33.7600 H   0  0  0  0  0  0  0  0  0  0  0  0
   37.6010   26.8200   32.6230 O   0  0  0  0  0  0  0  0  0  0  0  0
   38.7960   27.9410   30.1780 Cl  0  0  0  0  0  0  0  0  0  0  0  0
   37.3810   28.4870   31.0480 C   0  0  0  0  0  0  0  0  0  0  0  0
   36.9090   27.8700   32.1840 C   0  0  0  0  0  0  0  0  0  0  0  0
   35.7540   28.3850   32.7770 C   0  0  0  0  0  0  0  0  0  0  0  0
   35.1130   29.4780   32.2370 C   0  0  0  0  0  0  0  0  0  0  0  0
   35.5800   30.1040   31.0980 C   0  0  0  0  0  0  0  0  0  0  0  0
   36.7220   29.6010   30.5010 C   0  0  0  0  0  0  0  0  0  0  0  0
   35.3110   27.9640   33.6630 H   0  0  0  0  0  0  0  0  0  0  0  0
   34.2180   29.9330   32.6380 H   0  0  0  0  0  0  0  0  0  0  0  0
   35.1080   30.9690   30.6360 H   0  0  0  0  0  0  0  0  0  0  0  0
   37.2200   30.2330   29.3260 N   0  0  0  0  0  0  0  0  0  0  0  0
   37.2190   31.7010   29.3260 C   0  0  0  0  0  2  0  0  0  0  0  0
   38.6350   32.2360   29.2640 C   0  0  0  0  0  2  0  0  0  0  0  0
   39.5540   31.1850   28.6540 C   0  0  0  0  0  3  0  0  0  0  0  0
   40.5160   31.5970   28.3550 H   0  0  0  0  0  0  0  0  0  0  0  0
   38.7490   30.5970   27.4930 C   0  0  0  0  0  2  0  0  0  0  0  0
   37.7370   29.6530   28.1080 C   0  0  0  0  0  2  0  0  0  0  0  0
  1  6  1  6  0  0  0
  1  2  1  0  0  0  0
  1  5  1  0  0  0  0
  2  7  1  6  0  0  0
  2 13  1  0  0  0  0
  2  3  1  0  0  0  0
  3  4  1  0  0  0  0
  4  9  1  0  0  0  0
  5 23  1  0  0  0  0
  5 10  1  1  0  0  0
  5  4  1  0  0  0  0
  8  4  1  0  0  0  0
 11  1  1  0  0  0  0
 12 11  1  0  0  0  0
 14 19  2  0  0  0  0
 14 15  1  0  0  0  0
 15 16  2  0  0  0  0
 16 22  1  0  0  0  0
 17 16  1  0  0  0  0
 18 13  1  0  0  0  0
 18 17  2  0  0  0  0
 19 18  1  0  0  0  0
 20 14  1  0  0  0  0
 21 15  1  0  0  0  0
 24 25  1  0  0  0  0
 25 26  1  0  0  0  0
 26 23  1  0  0  0  0
 26 27  2  0  0  0  0
 27 31  1  0  0  0  0
 28 32  1  0  0  0  0
 28 27  1  0  0  0  0
 29 28  2  0  0  0  0
 30 25  2  0  0  0  0
 30 29  1  0  0  0  0
 33 29  1  0  0  0  0
 34 35  1  0  0  0  0
 34 30  1  0  0  0  0
 36 35  1  0  0  0  0
 37 36  1  0  0  0  0
 38 37  1  0  0  0  0
 39 40  1  0  0  0  0
 39 37  1  0  0  0  0
 40 34  1  0  0  0  0
M  END
>  <minimizedAffinity>
-5.13735294

$$$$
