
 OpenBabel03272510323D

 26 28  0  0  0  0  0  0  0  0999 V2000
   35.9690   30.0290   48.1130 C   0  0  0  0  0  0  0  0  0  0  0  0
   35.0690   30.0370   47.0780 C   0  0  0  0  0  0  0  0  0  0  0  0
   34.0100   29.1550   47.0330 C   0  0  0  0  0  0  0  0  0  0  0  0
   33.8780   28.2490   48.0780 C   0  0  0  0  0  0  0  0  0  0  0  0
   34.7800   28.2200   49.1440 C   0  0  0  0  0  0  0  0  0  0  0  0
   35.8330   29.1240   49.1520 C   0  0  0  0  0  0  0  0  0  0  0  0
   35.1600   30.7420   46.2500 H   0  0  0  0  0  0  0  0  0  0  0  0
   33.2950   29.1570   46.2180 H   0  0  0  0  0  0  0  0  0  0  0  0
   33.0350   27.5750   48.0090 H   0  0  0  0  0  0  0  0  0  0  0  0
   34.6260   27.4920   49.9300 H   0  0  0  0  0  0  0  0  0  0  0  0
   38.0310   32.8880   49.0330 C   0  0  0  0  0  0  0  0  0  0  0  0
   39.0550   32.8990   48.0890 C   0  0  0  0  0  0  0  0  0  0  0  0
   39.0310   31.8790   47.0970 C   0  0  0  0  0  0  0  0  0  0  0  0
   38.0260   30.9660   47.1270 N   0  0  0  0  0  0  0  0  0  0  0  0
   37.0490   30.9960   48.0670 C   0  0  0  0  0  0  0  0  0  0  0  0
   37.0710   31.9640   49.0100 N   0  0  0  0  0  0  0  0  0  0  0  0
   37.9860   33.6320   49.8160 H   0  0  0  0  0  0  0  0  0  0  0  0
   39.8280   33.6300   48.0950 H   0  0  0  0  0  0  0  0  0  0  0  0
   39.8090   31.8340   46.3270 H   0  0  0  0  0  0  0  0  0  0  0  0
   36.7700   29.1120   50.2310 N   0  0  0  0  0  0  0  0  0  0  0  0
   38.1640   28.6440   50.2700 C   0  0  0  0  0  2  0  0  0  0  0  0
   38.4030   27.9240   51.5810 C   0  0  0  0  0  2  0  0  0  0  0  0
   38.0460   28.7600   52.7690 C   0  0  0  0  0  3  0  0  0  0  0  0
   37.3580   28.1900   53.4280 H   0  0  0  0  0  0  0  0  0  0  0  0
   37.3040   30.0290   52.3690 C   0  0  0  0  0  2  0  0  0  0  0  0
   36.1870   29.6600   51.4410 C   0  0  0  0  0  2  0  0  0  0  0  0
  1  6  1  0  0  0  0
  2  1  2  0  0  0  0
  3  2  1  0  0  0  0
  3  4  2  0  0  0  0
  4  5  1  0  0  0  0
  5  6  2  0  0  0  0
  5 10  1  0  0  0  0
  6 20  1  0  0  0  0
  7  2  1  0  0  0  0
  8  3  1  0  0  0  0
  9  4  1  0  0  0  0
 11 17  1  0  0  0  0
 12 18  1  0  0  0  0
 12 11  2  0  0  0  0
 13 14  2  0  0  0  0
 13 12  1  0  0  0  0
 14 15  1  0  0  0  0
 15  1  1  0  0  0  0
 15 16  2  0  0  0  0
 16 11  1  0  0  0  0
 19 13  1  0  0  0  0
 20 21  1  0  0  0  0
 20 26  1  0  0  0  0
 21 22  1  0  0  0  0
 22 23  1  0  0  0  0
 23 24  1  0  0  0  0
 25 23  1  0  0  0  0
 26 25  1  0  0  0  0
M  END
>  <minimizedAffinity>
-3.19079709

>  <minimizedRMSD>
0.690008342

$$$$
