
 OpenBabel03272510183D

 34 37  0  0  0  0  0  0  0  0999 V2000
   37.2720   29.4160   51.0790 Br  0  0  0  0  0  0  0  0  0  0  0  0
   35.9680   29.3570   49.6810 C   0  0  0  0  0  0  0  0  0  0  0  0
   36.0180   30.2470   48.6190 C   0  0  0  0  0  0  0  0  0  0  0  0
   35.0510   30.1420   47.6590 C   0  0  0  0  0  0  0  0  0  0  0  0
   34.0440   29.2110   47.6910 C   0  0  0  0  0  0  0  0  0  0  0  0
   34.0180   28.3420   48.7520 C   0  0  0  0  0  0  0  0  0  0  0  0
   34.9740   28.4190   49.7350 C   0  0  0  0  0  0  0  0  0  0  0  0
   35.0690   30.8270   46.8180 H   0  0  0  0  0  0  0  0  0  0  0  0
   33.2420   27.5890   48.8210 H   0  0  0  0  0  0  0  0  0  0  0  0
   34.9070   27.7070   50.5540 H   0  0  0  0  0  0  0  0  0  0  0  0
   33.0170   29.1000   46.6710 C   0  0  0  0  0  0  0  0  0  0  0  0
   32.5460   27.9050   46.1510 C   0  0  0  0  0  0  0  0  0  0  0  0
   31.5590   27.8520   45.1750 C   0  0  0  0  0  0  0  0  0  0  0  0
   31.0330   28.9870   44.7050 N   0  0  0  0  0  0  0  0  0  0  0  0
   31.4840   30.1620   45.2040 C   0  0  0  0  0  0  0  0  0  0  0  0
   32.4300   30.1920   46.1400 N   0  0  0  0  0  0  0  0  0  0  0  0
   32.9740   26.9840   46.5340 H   0  0  0  0  0  0  0  0  0  0  0  0
   31.2420   26.8880   44.8180 H   0  0  0  0  0  0  0  0  0  0  0  0
   30.8960   31.3480   44.6760 N   0  0  0  0  0  0  0  0  0  0  0  0
   31.4990   32.6300   44.8840 C   0  0  0  0  0  2  0  0  0  0  0  0
   31.2590   33.6220   43.7910 C   0  0  0  0  0  2  0  0  0  0  0  0
   30.0280   33.4000   42.9950 C   0  0  0  0  0  3  0  0  0  0  0  0
   29.5590   34.3790   42.7690 H   0  0  0  0  0  0  0  0  0  0  0  0
   28.9990   32.5580   43.7050 C   0  0  0  0  0  2  0  0  0  0  0  0
   29.6570   31.2120   43.9160 C   0  0  0  0  0  2  0  0  0  0  0  0
   37.9850   33.2030   49.4590 C   0  0  0  0  0  0  0  0  0  0  0  0
   39.0270   33.1920   48.4700 C   0  0  0  0  0  0  0  0  0  0  0  0
   39.0220   32.1720   47.5470 C   0  0  0  0  0  0  0  0  0  0  0  0
   38.0380   31.2260   47.6120 N   0  0  0  0  0  0  0  0  0  0  0  0
   37.0700   31.2530   48.5450 C   0  0  0  0  0  0  0  0  0  0  0  0
   37.0480   32.2530   49.4760 N   0  0  0  0  0  0  0  0  0  0  0  0
   38.0110   34.0230   50.1800 H   0  0  0  0  0  0  0  0  0  0  0  0
   39.7870   33.9610   48.4540 H   0  0  0  0  0  0  0  0  0  0  0  0
   39.7670   32.0890   46.7710 H   0  0  0  0  0  0  0  0  0  0  0  0
  2  7  1  0  0  0  0
  2  1  1  0  0  0  0
  3  2  2  0  0  0  0
  4  5  2  0  0  0  0
  4  3  1  0  0  0  0
  5  6  1  0  0  0  0
  6  9  1  0  0  0  0
  6  7  2  0  0  0  0
  7 10  1  0  0  0  0
  8  4  1  0  0  0  0
 11  5  1  0  0  0  0
 12 17  1  0  0  0  0
 12 11  1  0  0  0  0
 13 12  2  0  0  0  0
 14 13  1  0  0  0  0
 14 15  2  0  0  0  0
 15 16  1  0  0  0  0
 16 11  2  0  0  0  0
 18 13  1  0  0  0  0
 19 20  1  0  0  0  0
 19 15  1  0  0  0  0
 21 20  1  0  0  0  0
 22 24  1  0  0  0  0
 22 21  1  0  0  0  0
 23 22  1  0  0  0  0
 24 25  1  0  0  0  0
 25 19  1  0  0  0  0
 26 31  1  0  0  0  0
 26 32  1  0  0  0  0
 27 26  2  0  0  0  0
 28 29  2  0  0  0  0
 28 27  1  0  0  0  0
 29 30  1  0  0  0  0
 30  3  1  0  0  0  0
 30 31  2  0  0  0  0
 33 27  1  0  0  0  0
 34 28  1  0  0  0  0
M  END
>  <minimizedAffinity>
-6.76191187

>  <minimizedRMSD>
0.254022807

$$$$
