
 OpenBabel03272504053D

 39 42  0  0  0  0  0  0  0  0999 V2000
   36.1090   21.2490   31.7310 C   0  0  0  0  0  0  0  0  0  0  0  0
   36.8150   20.5920   31.2130 H   0  0  0  0  0  0  0  0  0  0  0  0
   35.1140   20.7210   31.6240 H   0  0  0  0  0  0  0  0  0  0  0  0
   36.3320   21.2960   33.1880 C   0  0  0  0  0  0  0  0  0  0  0  0
   35.5170   20.5850   34.0740 C   0  0  0  0  0  0  0  0  0  0  0  0
   35.9670   20.8250   35.3420 C   0  0  0  0  0  0  0  0  0  0  0  0
   37.0120   21.6480   35.2290 N   0  0  0  0  0  0  0  0  0  0  0  0
   37.2030   21.9090   33.9510 N   0  0  0  0  0  0  0  0  0  0  0  0
   34.6640   19.9390   33.8710 H   0  0  0  0  0  0  0  0  0  0  0  0
   35.6050   20.4600   36.2920 H   0  0  0  0  0  0  0  0  0  0  0  0
   37.8770   22.2380   36.2030 C   0  0  0  0  0  0  0  0  0  0  0  0
   37.2500   22.9110   37.2290 C   0  0  0  0  0  0  0  0  0  0  0  0
   37.9270   23.5480   38.2670 C   0  0  0  0  0  0  0  0  0  0  0  0
   39.3140   23.4710   38.2200 C   0  0  0  0  0  0  0  0  0  0  0  0
   39.9540   22.7980   37.1940 C   0  0  0  0  0  0  0  0  0  0  0  0
   39.2490   22.1760   36.1780 C   0  0  0  0  0  0  0  0  0  0  0  0
   36.1720   22.9910   37.2970 H   0  0  0  0  0  0  0  0  0  0  0  0
   37.4270   24.0670   39.0580 H   0  0  0  0  0  0  0  0  0  0  0  0
   39.9370   23.9360   38.9840 H   0  0  0  0  0  0  0  0  0  0  0  0
   41.0300   22.7020   37.0990 H   0  0  0  0  0  0  0  0  0  0  0  0
   39.6900   21.6380   35.3540 H   0  0  0  0  0  0  0  0  0  0  0  0
   35.9060   22.5920   31.1270 C   0  0  0  0  0  0  0  0  0  0  0  0
   35.0370   23.0480   31.6690 H   0  0  0  0  0  0  0  0  0  0  0  0
   35.5080   22.4220   30.0880 H   0  0  0  0  0  0  0  0  0  0  0  0
   36.9910   23.5210   31.1700 C   0  0  0  0  0  0  0  0  0  0  0  0
   37.9760   23.5120   30.2210 C   0  0  0  0  0  0  0  0  0  0  0  0
   39.0600   24.4090   30.2270 C   0  0  0  0  0  0  0  0  0  0  0  0
   39.0500   25.3110   31.2810 N   0  0  0  0  0  0  0  0  0  0  0  0
   38.0570   25.2880   32.1990 C   0  0  0  0  0  0  0  0  0  0  0  0
   37.0430   24.4140   32.1540 N   0  0  0  0  0  0  0  0  0  0  0  0
   37.9560   22.7880   29.4030 H   0  0  0  0  0  0  0  0  0  0  0  0
   39.8220   24.3970   29.4880 H   0  0  0  0  0  0  0  0  0  0  0  0
   38.1570   26.2630   33.2340 N   0  0  0  0  0  0  0  0  0  0  0  0
   39.2810   27.1810   33.2260 C   0  0  0  0  0  2  0  0  0  0  0  0
   40.0500   26.9320   34.5220 C   0  0  0  0  0  2  0  0  0  0  0  0
   39.1530   27.0740   35.7100 C   0  0  0  0  0  3  0  0  0  0  0  0
   39.7200   26.7120   36.6000 H   0  0  0  0  0  0  0  0  0  0  0  0
   37.9010   26.2540   35.6230 C   0  0  0  0  0  2  0  0  0  0  0  0
   37.1880   26.3860   34.2990 C   0  0  0  0  0  2  0  0  0  0  0  0
  1  4  1  0  0  0  0
  2  1  1  0  0  0  0
  3  1  1  0  0  0  0
  4  8  2  0  0  0  0
  4  5  1  0  0  0  0
  5  6  2  0  0  0  0
  6 10  1  0  0  0  0
  7  6  1  0  0  0  0
  7 11  1  0  0  0  0
  8  7  1  0  0  0  0
  9  5  1  0  0  0  0
 11 12  1  0  0  0  0
 12 17  1  0  0  0  0
 12 13  2  0  0  0  0
 13 18  1  0  0  0  0
 14 13  1  0  0  0  0
 14 19  1  0  0  0  0
 15 14  2  0  0  0  0
 16 11  2  0  0  0  0
 16 15  1  0  0  0  0
 20 15  1  0  0  0  0
 21 16  1  0  0  0  0
 22 25  1  0  0  0  0
 22 23  1  0  0  0  0
 22  1  1  0  0  0  0
 24 22  1  0  0  0  0
 25 30  1  0  0  0  0
 26 27  1  0  0  0  0
 26 25  2  0  0  0  0
 27 28  2  0  0  0  0
 28 29  1  0  0  0  0
 29 33  1  0  0  0  0
 30 29  2  0  0  0  0
 31 26  1  0  0  0  0
 32 27  1  0  0  0  0
 33 39  1  0  0  0  0
 34 33  1  0  0  0  0
 34 35  1  0  0  0  0
 35 36  1  0  0  0  0
 36 37  1  0  0  0  0
 38 36  1  0  0  0  0
 39 38  1  0  0  0  0
M  END
>  <minimizedAffinity>
-6.38145065

$$$$

 OpenBabel03272504053D

 39 42  0  0  0  0  0  0  0  0999 V2000
   37.9690   26.8650   34.5230 C   0  0  0  0  0  0  0  0  0  0  0  0
   37.1500   26.4140   35.0910 H   0  0  0  0  0  0  0  0  0  0  0  0
   38.1020   27.8840   34.9950 H   0  0  0  0  0  0  0  0  0  0  0  0
   39.2620   26.1950   34.7520 C   0  0  0  0  0  0  0  0  0  0  0  0
   40.4690   26.7840   34.3600 C   0  0  0  0  0  0  0  0  0  0  0  0
   41.4820   25.9330   34.7030 C   0  0  0  0  0  0  0  0  0  0  0  0
   40.9130   24.8710   35.2790 N   0  0  0  0  0  0  0  0  0  0  0  0
   39.6080   25.0530   35.2940 N   0  0  0  0  0  0  0  0  0  0  0  0
   40.6510   27.7390   33.8690 H   0  0  0  0  0  0  0  0  0  0  0  0
   42.5500   26.0290   34.5690 H   0  0  0  0  0  0  0  0  0  0  0  0
   41.4620   23.6730   35.8320 C   0  0  0  0  0  0  0  0  0  0  0  0
   40.6180   22.9510   36.6480 C   0  0  0  0  0  0  0  0  0  0  0  0
   40.9770   21.7600   37.2760 C   0  0  0  0  0  0  0  0  0  0  0  0
   42.2700   21.3150   37.0330 C   0  0  0  0  0  0  0  0  0  0  0  0
   43.1260   22.0320   36.2160 C   0  0  0  0  0  0  0  0  0  0  0  0
   42.7370   23.2130   35.6080 C   0  0  0  0  0  0  0  0  0  0  0  0
   39.6040   23.2670   36.8590 H   0  0  0  0  0  0  0  0  0  0  0  0
   40.3110   21.2090   37.9060 H   0  0  0  0  0  0  0  0  0  0  0  0
   42.6500   20.3940   37.4760 H   0  0  0  0  0  0  0  0  0  0  0  0
   44.1460   21.7420   35.9870 H   0  0  0  0  0  0  0  0  0  0  0  0
   43.3570   23.8150   34.9630 H   0  0  0  0  0  0  0  0  0  0  0  0
   37.6960   27.1320   33.0860 C   0  0  0  0  0  0  0  0  0  0  0  0
   38.6970   27.1800   32.5840 H   0  0  0  0  0  0  0  0  0  0  0  0
   37.3180   28.1900   33.0210 H   0  0  0  0  0  0  0  0  0  0  0  0
   36.8860   26.1980   32.3690 C   0  0  0  0  0  0  0  0  0  0  0  0
   35.9390   26.6150   31.4750 C   0  0  0  0  0  0  0  0  0  0  0  0
   35.1220   25.7280   30.7490 C   0  0  0  0  0  0  0  0  0  0  0  0
   35.3560   24.3870   31.0150 N   0  0  0  0  0  0  0  0  0  0  0  0
   36.3030   24.0160   31.9070 C   0  0  0  0  0  0  0  0  0  0  0  0
   37.0580   24.8950   32.5760 N   0  0  0  0  0  0  0  0  0  0  0  0
   35.7780   27.6790   31.2880 H   0  0  0  0  0  0  0  0  0  0  0  0
   34.3880   26.0580   30.0560 H   0  0  0  0  0  0  0  0  0  0  0  0
   36.4500   22.6100   32.0940 N   0  0  0  0  0  0  0  0  0  0  0  0
   35.6000   21.7100   31.3380 C   0  0  0  0  0  2  0  0  0  0  0  0
   34.7830   20.9250   32.3630 C   0  0  0  0  0  2  0  0  0  0  0  0
   35.6770   20.2400   33.3460 C   0  0  0  0  0  3  0  0  0  0  0  0
   35.0300   19.8370   34.1610 H   0  0  0  0  0  0  0  0  0  0  0  0
   36.6780   21.1530   33.9910 C   0  0  0  0  0  2  0  0  0  0  0  0
   37.4100   22.0320   33.0050 C   0  0  0  0  0  2  0  0  0  0  0  0
  1  4  1  0  0  0  0
  1  3  1  0  0  0  0
  1  2  1  0  0  0  0
  4  8  2  0  0  0  0
  5  6  2  0  0  0  0
  5  4  1  0  0  0  0
  6  7  1  0  0  0  0
  7  8  1  0  0  0  0
  7 11  1  0  0  0  0
  9  5  1  0  0  0  0
 10  6  1  0  0  0  0
 11 12  1  0  0  0  0
 12 17  1  0  0  0  0
 12 13  2  0  0  0  0
 13 18  1  0  0  0  0
 14 13  1  0  0  0  0
 14 19  1  0  0  0  0
 15 14  2  0  0  0  0
 16 11  2  0  0  0  0
 16 15  1  0  0  0  0
 20 15  1  0  0  0  0
 21 16  1  0  0  0  0
 22  1  1  0  0  0  0
 23 22  1  0  0  0  0
 24 22  1  0  0  0  0
 25 30  1  0  0  0  0
 25 22  1  0  0  0  0
 26 25  2  0  0  0  0
 27 28  2  0  0  0  0
 27 26  1  0  0  0  0
 28 29  1  0  0  0  0
 29 33  1  0  0  0  0
 29 30  2  0  0  0  0
 31 26  1  0  0  0  0
 32 27  1  0  0  0  0
 33 39  1  0  0  0  0
 34 33  1  0  0  0  0
 34 35  1  0  0  0  0
 35 36  1  0  0  0  0
 36 38  1  0  0  0  0
 36 37  1  0  0  0  0
 39 38  1  0  0  0  0
M  END
>  <minimizedAffinity>
-6.21050978

$$$$

 OpenBabel03272504053D

 39 42  0  0  0  0  0  0  0  0999 V2000
   36.5880   26.5340   32.0240 C   0  0  0  0  0  0  0  0  0  0  0  0
   36.0350   27.4700   31.8950 H   0  0  0  0  0  0  0  0  0  0  0  0
   37.5070   26.6660   31.3770 H   0  0  0  0  0  0  0  0  0  0  0  0
   37.1310   26.3730   33.3860 C   0  0  0  0  0  0  0  0  0  0  0  0
   37.1430   27.4340   34.2970 C   0  0  0  0  0  0  0  0  0  0  0  0
   37.7010   26.9830   35.4600 C   0  0  0  0  0  0  0  0  0  0  0  0
   38.0150   25.7010   35.2620 N   0  0  0  0  0  0  0  0  0  0  0  0
   37.6690   25.3700   34.0340 N   0  0  0  0  0  0  0  0  0  0  0  0
   36.7910   28.4580   34.1780 H   0  0  0  0  0  0  0  0  0  0  0  0
   37.8840   27.4980   36.3920 H   0  0  0  0  0  0  0  0  0  0  0  0
   38.6190   24.7210   36.1100 C   0  0  0  0  0  0  0  0  0  0  0  0
   38.0110   24.5330   37.3320 C   0  0  0  0  0  0  0  0  0  0  0  0
   38.4570   23.6240   38.2900 C   0  0  0  0  0  0  0  0  0  0  0  0
   39.5830   22.8870   37.9440 C   0  0  0  0  0  0  0  0  0  0  0  0
   40.2020   23.0680   36.7190 C   0  0  0  0  0  0  0  0  0  0  0  0
   39.7320   23.9810   35.7910 C   0  0  0  0  0  0  0  0  0  0  0  0
   37.1320   25.0890   37.6360 H   0  0  0  0  0  0  0  0  0  0  0  0
   37.9750   23.4880   39.2340 H   0  0  0  0  0  0  0  0  0  0  0  0
   40.0120   22.1480   38.6200 H   0  0  0  0  0  0  0  0  0  0  0  0
   41.0820   22.5270   36.3880 H   0  0  0  0  0  0  0  0  0  0  0  0
   40.1690   24.1670   34.8230 H   0  0  0  0  0  0  0  0  0  0  0  0
   35.9210   25.3070   31.5130 C   0  0  0  0  0  0  0  0  0  0  0  0
   35.4080   25.6070   30.5630 H   0  0  0  0  0  0  0  0  0  0  0  0
   35.0690   25.0870   32.2140 H   0  0  0  0  0  0  0  0  0  0  0  0
   36.7340   24.1650   31.2340 C   0  0  0  0  0  0  0  0  0  0  0  0
   37.8050   24.2410   30.3890 C   0  0  0  0  0  0  0  0  0  0  0  0
   38.6300   23.1410   30.0890 C   0  0  0  0  0  0  0  0  0  0  0  0
   38.2660   21.9640   30.7250 N   0  0  0  0  0  0  0  0  0  0  0  0
   37.1980   21.9290   31.5550 C   0  0  0  0  0  0  0  0  0  0  0  0
   36.4400   23.0030   31.8110 N   0  0  0  0  0  0  0  0  0  0  0  0
   38.0670   25.1840   29.9020 H   0  0  0  0  0  0  0  0  0  0  0  0
   39.4610   23.2070   29.4310 H   0  0  0  0  0  0  0  0  0  0  0  0
   36.9240   20.6630   32.1480 N   0  0  0  0  0  0  0  0  0  0  0  0
   37.7840   19.5390   31.8290 C   0  0  0  0  0  2  0  0  0  0  0  0
   36.8940   18.4910   31.1620 C   0  0  0  0  0  2  0  0  0  0  0  0
   35.7330   18.1430   32.0370 C   0  0  0  0  0  3  0  0  0  0  0  0
   35.0350   17.5170   31.4310 H   0  0  0  0  0  0  0  0  0  0  0  0
   34.9550   19.3340   32.5100 C   0  0  0  0  0  2  0  0  0  0  0  0
   35.8260   20.4390   33.0590 C   0  0  0  0  0  2  0  0  0  0  0  0
  1  4  1  0  0  0  0
  2  1  1  0  0  0  0
  3  1  1  0  0  0  0
  4  8  2  0  0  0  0
  4  5  1  0  0  0  0
  5  6  2  0  0  0  0
  6 10  1  0  0  0  0
  7  6  1  0  0  0  0
  7 11  1  0  0  0  0
  8  7  1  0  0  0  0
  9  5  1  0  0  0  0
 11 12  1  0  0  0  0
 12 17  1  0  0  0  0
 12 13  2  0  0  0  0
 13 18  1  0  0  0  0
 14 13  1  0  0  0  0
 14 19  1  0  0  0  0
 15 14  2  0  0  0  0
 16 11  2  0  0  0  0
 16 15  1  0  0  0  0
 20 15  1  0  0  0  0
 21 16  1  0  0  0  0
 22  1  1  0  0  0  0
 22 24  1  0  0  0  0
 23 22  1  0  0  0  0
 25 22  1  0  0  0  0
 25 30  1  0  0  0  0
 26 25  2  0  0  0  0
 27 26  1  0  0  0  0
 27 28  2  0  0  0  0
 28 29  1  0  0  0  0
 29 30  2  0  0  0  0
 29 33  1  0  0  0  0
 31 26  1  0  0  0  0
 32 27  1  0  0  0  0
 33 39  1  0  0  0  0
 34 33  1  0  0  0  0
 35 34  1  0  0  0  0
 35 36  1  0  0  0  0
 36 38  1  0  0  0  0
 37 36  1  0  0  0  0
 38 39  1  0  0  0  0
M  END
>  <minimizedAffinity>
-6.17530775

$$$$

 OpenBabel03272504053D

 39 42  0  0  0  0  0  0  0  0999 V2000
   37.6390   26.1270   31.5530 C   0  0  0  0  0  0  0  0  0  0  0  0
   38.3320   26.4560   30.7730 H   0  0  0  0  0  0  0  0  0  0  0  0
   37.4030   25.0560   31.2750 H   0  0  0  0  0  0  0  0  0  0  0  0
   38.2760   26.0190   32.8780 C   0  0  0  0  0  0  0  0  0  0  0  0
   39.2080   26.9640   33.3190 C   0  0  0  0  0  0  0  0  0  0  0  0
   39.6160   26.5980   34.5710 C   0  0  0  0  0  0  0  0  0  0  0  0
   38.9590   25.4770   34.8770 N   0  0  0  0  0  0  0  0  0  0  0  0
   38.1790   25.1600   33.8630 N   0  0  0  0  0  0  0  0  0  0  0  0
   39.5880   27.8530   32.8190 H   0  0  0  0  0  0  0  0  0  0  0  0
   40.3220   27.0690   35.2400 H   0  0  0  0  0  0  0  0  0  0  0  0
   38.9760   24.6430   36.0380 C   0  0  0  0  0  0  0  0  0  0  0  0
   38.0640   24.9660   37.0180 C   0  0  0  0  0  0  0  0  0  0  0  0
   37.9340   24.2690   38.2180 C   0  0  0  0  0  0  0  0  0  0  0  0
   38.7980   23.1940   38.3880 C   0  0  0  0  0  0  0  0  0  0  0  0
   39.7190   22.8610   37.4100 C   0  0  0  0  0  0  0  0  0  0  0  0
   39.8210   23.5770   36.2290 C   0  0  0  0  0  0  0  0  0  0  0  0
   37.3750   25.7970   36.9200 H   0  0  0  0  0  0  0  0  0  0  0  0
   37.2200   24.5300   38.9700 H   0  0  0  0  0  0  0  0  0  0  0  0
   38.7780   22.5830   39.2900 H   0  0  0  0  0  0  0  0  0  0  0  0
   40.4200   22.0370   37.4800 H   0  0  0  0  0  0  0  0  0  0  0  0
   40.5160   23.3660   35.4320 H   0  0  0  0  0  0  0  0  0  0  0  0
   36.3240   26.8200   31.5910 C   0  0  0  0  0  0  0  0  0  0  0  0
   35.8680   26.5640   32.5820 H   0  0  0  0  0  0  0  0  0  0  0  0
   35.6600   26.2930   30.8510 H   0  0  0  0  0  0  0  0  0  0  0  0
   36.3090   28.2420   31.4510 C   0  0  0  0  0  0  0  0  0  0  0  0
   36.6610   28.8470   30.2770 C   0  0  0  0  0  0  0  0  0  0  0  0
   36.6580   30.2440   30.0980 C   0  0  0  0  0  0  0  0  0  0  0  0
   36.2660   30.9620   31.2180 N   0  0  0  0  0  0  0  0  0  0  0  0
   35.9250   30.3260   32.3610 C   0  0  0  0  0  0  0  0  0  0  0  0
   35.9420   28.9930   32.4870 N   0  0  0  0  0  0  0  0  0  0  0  0
   36.9660   28.2530   29.4120 H   0  0  0  0  0  0  0  0  0  0  0  0
   36.9330   30.7070   29.1830 H   0  0  0  0  0  0  0  0  0  0  0  0
   35.5410   31.1730   33.4410 N   0  0  0  0  0  0  0  0  0  0  0  0
   35.5430   32.6100   33.2410 C   0  0  0  0  0  2  0  0  0  0  0  0
   36.5490   33.1820   34.2380 C   0  0  0  0  0  2  0  0  0  0  0  0
   36.2170   32.7610   35.6330 C   0  0  0  0  0  3  0  0  0  0  0  0
   37.0730   33.0570   36.2840 H   0  0  0  0  0  0  0  0  0  0  0  0
   36.0370   31.2800   35.7900 C   0  0  0  0  0  2  0  0  0  0  0  0
   35.1450   30.6690   34.7370 C   0  0  0  0  0  2  0  0  0  0  0  0
  1 22  1  0  0  0  0
  1  4  1  0  0  0  0
  2  1  1  0  0  0  0
  3  1  1  0  0  0  0
  4  5  1  0  0  0  0
  4  8  2  0  0  0  0
  5  6  2  0  0  0  0
  6  7  1  0  0  0  0
  6 10  1  0  0  0  0
  7 11  1  0  0  0  0
  8  7  1  0  0  0  0
  9  5  1  0  0  0  0
 11 16  2  0  0  0  0
 11 12  1  0  0  0  0
 12 13  2  0  0  0  0
 13 14  1  0  0  0  0
 13 18  1  0  0  0  0
 14 19  1  0  0  0  0
 15 20  1  0  0  0  0
 15 14  2  0  0  0  0
 16 15  1  0  0  0  0
 17 12  1  0  0  0  0
 21 16  1  0  0  0  0
 22 23  1  0  0  0  0
 24 22  1  0  0  0  0
 25 22  1  0  0  0  0
 25 30  1  0  0  0  0
 26 25  2  0  0  0  0
 27 26  1  0  0  0  0
 27 28  2  0  0  0  0
 28 29  1  0  0  0  0
 29 30  2  0  0  0  0
 29 33  1  0  0  0  0
 31 26  1  0  0  0  0
 32 27  1  0  0  0  0
 33 39  1  0  0  0  0
 34 33  1  0  0  0  0
 34 35  1  0  0  0  0
 35 36  1  0  0  0  0
 36 38  1  0  0  0  0
 36 37  1  0  0  0  0
 39 38  1  0  0  0  0
M  END
>  <minimizedAffinity>
-6.16321468

$$$$

 OpenBabel03272504053D

 39 42  0  0  0  0  0  0  0  0999 V2000
   36.8430   28.0000   31.3220 C   0  0  0  0  0  0  0  0  0  0  0  0
   37.3200   28.2430   30.3670 H   0  0  0  0  0  0  0  0  0  0  0  0
   37.6910   27.6110   31.9610 H   0  0  0  0  0  0  0  0  0  0  0  0
   36.3690   29.1940   32.0460 C   0  0  0  0  0  0  0  0  0  0  0  0
   36.4000   30.4630   31.4600 C   0  0  0  0  0  0  0  0  0  0  0  0
   35.9010   31.3560   32.3660 C   0  0  0  0  0  0  0  0  0  0  0  0
   35.5810   30.6570   33.4570 N   0  0  0  0  0  0  0  0  0  0  0  0
   35.8670   29.3890   33.2410 N   0  0  0  0  0  0  0  0  0  0  0  0
   36.7420   30.7660   30.4710 H   0  0  0  0  0  0  0  0  0  0  0  0
   35.7620   32.4250   32.2890 H   0  0  0  0  0  0  0  0  0  0  0  0
   35.0240   31.0460   34.7160 C   0  0  0  0  0  0  0  0  0  0  0  0
   33.7230   30.6530   34.9390 C   0  0  0  0  0  0  0  0  0  0  0  0
   33.0140   30.9400   36.1040 C   0  0  0  0  0  0  0  0  0  0  0  0
   33.7050   31.6680   37.0660 C   0  0  0  0  0  0  0  0  0  0  0  0
   35.0120   32.0690   36.8520 C   0  0  0  0  0  0  0  0  0  0  0  0
   35.6850   31.7660   35.6810 C   0  0  0  0  0  0  0  0  0  0  0  0
   33.1540   30.0850   34.2120 H   0  0  0  0  0  0  0  0  0  0  0  0
   32.0040   30.6280   36.2650 H   0  0  0  0  0  0  0  0  0  0  0  0
   33.2420   31.9440   38.0140 H   0  0  0  0  0  0  0  0  0  0  0  0
   35.6050   32.6370   37.5590 H   0  0  0  0  0  0  0  0  0  0  0  0
   36.7010   32.0490   35.4560 H   0  0  0  0  0  0  0  0  0  0  0  0
   35.8420   26.9010   31.2880 C   0  0  0  0  0  0  0  0  0  0  0  0
   35.4950   26.8310   30.2250 H   0  0  0  0  0  0  0  0  0  0  0  0
   34.9340   27.2750   31.8380 H   0  0  0  0  0  0  0  0  0  0  0  0
   36.2580   25.5980   31.7040 C   0  0  0  0  0  0  0  0  0  0  0  0
   35.9010   24.4790   31.0040 C   0  0  0  0  0  0  0  0  0  0  0  0
   36.2890   23.1790   31.3790 C   0  0  0  0  0  0  0  0  0  0  0  0
   37.0700   23.1240   32.5250 N   0  0  0  0  0  0  0  0  0  0  0  0
   37.4010   24.2550   33.1880 C   0  0  0  0  0  0  0  0  0  0  0  0
   37.0090   25.4730   32.7950 N   0  0  0  0  0  0  0  0  0  0  0  0
   35.2850   24.5550   30.1050 H   0  0  0  0  0  0  0  0  0  0  0  0
   36.0090   22.3140   30.8310 H   0  0  0  0  0  0  0  0  0  0  0  0
   38.2060   24.0690   34.3500 N   0  0  0  0  0  0  0  0  0  0  0  0
   38.5980   22.7230   34.7230 C   0  0  0  0  0  2  0  0  0  0  0  0
   38.0020   22.4680   36.1070 C   0  0  0  0  0  2  0  0  0  0  0  0
   38.4340   23.5210   37.0760 C   0  0  0  0  0  3  0  0  0  0  0  0
   37.8340   23.3830   38.0070 H   0  0  0  0  0  0  0  0  0  0  0  0
   38.1870   24.9210   36.5970 C   0  0  0  0  0  2  0  0  0  0  0  0
   38.6550   25.1620   35.1820 C   0  0  0  0  0  2  0  0  0  0  0  0
  1  3  1  0  0  0  0
  1  4  1  0  0  0  0
  2  1  1  0  0  0  0
  4  8  2  0  0  0  0
  5  4  1  0  0  0  0
  5  6  2  0  0  0  0
  6  7  1  0  0  0  0
  7 11  1  0  0  0  0
  8  7  1  0  0  0  0
  9  5  1  0  0  0  0
 10  6  1  0  0  0  0
 11 12  2  0  0  0  0
 11 16  1  0  0  0  0
 12 13  1  0  0  0  0
 13 18  1  0  0  0  0
 13 14  2  0  0  0  0
 14 19  1  0  0  0  0
 15 14  1  0  0  0  0
 15 20  1  0  0  0  0
 16 15  2  0  0  0  0
 17 12  1  0  0  0  0
 21 16  1  0  0  0  0
 22  1  1  0  0  0  0
 22 25  1  0  0  0  0
 22 24  1  0  0  0  0
 23 22  1  0  0  0  0
 25 30  1  0  0  0  0
 26 27  1  0  0  0  0
 26 25  2  0  0  0  0
 27 28  2  0  0  0  0
 28 29  1  0  0  0  0
 29 33  1  0  0  0  0
 30 29  2  0  0  0  0
 31 26  1  0  0  0  0
 32 27  1  0  0  0  0
 33 34  1  0  0  0  0
 33 39  1  0  0  0  0
 34 35  1  0  0  0  0
 35 36  1  0  0  0  0
 36 37  1  0  0  0  0
 38 36  1  0  0  0  0
 39 38  1  0  0  0  0
M  END
>  <minimizedAffinity>
-6.13113308

$$$$

 OpenBabel03272504053D

 39 42  0  0  0  0  0  0  0  0999 V2000
   35.6560   25.8160   30.9300 C   0  0  0  0  0  0  0  0  0  0  0  0
   35.6550   26.2310   29.9170 H   0  0  0  0  0  0  0  0  0  0  0  0
   34.5600   25.6730   31.1690 H   0  0  0  0  0  0  0  0  0  0  0  0
   36.2150   24.4530   30.9900 C   0  0  0  0  0  0  0  0  0  0  0  0
   37.5210   24.1800   30.5710 C   0  0  0  0  0  0  0  0  0  0  0  0
   37.7470   22.8440   30.7460 C   0  0  0  0  0  0  0  0  0  0  0  0
   36.6240   22.3270   31.2490 N   0  0  0  0  0  0  0  0  0  0  0  0
   35.7400   23.2960   31.3820 N   0  0  0  0  0  0  0  0  0  0  0  0
   38.2780   24.8520   30.1690 H   0  0  0  0  0  0  0  0  0  0  0  0
   38.6280   22.2520   30.5420 H   0  0  0  0  0  0  0  0  0  0  0  0
   36.2690   20.9960   31.6320 C   0  0  0  0  0  0  0  0  0  0  0  0
   35.8150   20.8470   32.9240 C   0  0  0  0  0  0  0  0  0  0  0  0
   35.4250   19.6280   33.4740 C   0  0  0  0  0  0  0  0  0  0  0  0
   35.5160   18.5280   32.6300 C   0  0  0  0  0  0  0  0  0  0  0  0
   35.9720   18.6650   31.3310 C   0  0  0  0  0  0  0  0  0  0  0  0
   36.3530   19.8930   30.8170 C   0  0  0  0  0  0  0  0  0  0  0  0
   35.7300   21.6820   33.6090 H   0  0  0  0  0  0  0  0  0  0  0  0
   35.0720   19.5270   34.4790 H   0  0  0  0  0  0  0  0  0  0  0  0
   35.2360   17.5280   32.9620 H   0  0  0  0  0  0  0  0  0  0  0  0
   36.0680   17.8500   30.6220 H   0  0  0  0  0  0  0  0  0  0  0  0
   36.7140   20.0640   29.8150 H   0  0  0  0  0  0  0  0  0  0  0  0
   36.1780   26.7090   31.9980 C   0  0  0  0  0  0  0  0  0  0  0  0
   37.2310   26.3780   32.1920 H   0  0  0  0  0  0  0  0  0  0  0  0
   35.6360   26.4300   32.9440 H   0  0  0  0  0  0  0  0  0  0  0  0
   36.1950   28.1160   31.7510 C   0  0  0  0  0  0  0  0  0  0  0  0
   36.5480   28.6220   30.5310 C   0  0  0  0  0  0  0  0  0  0  0  0
   36.5770   30.0000   30.2470 C   0  0  0  0  0  0  0  0  0  0  0  0
   36.2170   30.8110   31.3130 N   0  0  0  0  0  0  0  0  0  0  0  0
   35.8750   30.2720   32.5050 C   0  0  0  0  0  0  0  0  0  0  0  0
   35.8610   28.9520   32.7310 N   0  0  0  0  0  0  0  0  0  0  0  0
   36.8270   27.9570   29.7100 H   0  0  0  0  0  0  0  0  0  0  0  0
   36.8520   30.3860   29.2960 H   0  0  0  0  0  0  0  0  0  0  0  0
   35.5250   31.2070   33.5220 N   0  0  0  0  0  0  0  0  0  0  0  0
   35.5600   32.6240   33.2130 C   0  0  0  0  0  2  0  0  0  0  0  0
   36.5930   33.2450   34.1530 C   0  0  0  0  0  2  0  0  0  0  0  0
   36.2670   32.9380   35.5800 C   0  0  0  0  0  3  0  0  0  0  0  0
   37.1390   33.2610   36.1970 H   0  0  0  0  0  0  0  0  0  0  0  0
   36.0530   31.4790   35.8500 C   0  0  0  0  0  2  0  0  0  0  0  0
   35.1330   30.8130   34.8560 C   0  0  0  0  0  2  0  0  0  0  0  0
  1  4  1  0  0  0  0
  1  3  1  0  0  0  0
  1 22  1  0  0  0  0
  2  1  1  0  0  0  0
  4  8  2  0  0  0  0
  5  6  2  0  0  0  0
  5  4  1  0  0  0  0
  6  7  1  0  0  0  0
  7  8  1  0  0  0  0
  7 11  1  0  0  0  0
  9  5  1  0  0  0  0
 10  6  1  0  0  0  0
 11 12  1  0  0  0  0
 12 13  2  0  0  0  0
 12 17  1  0  0  0  0
 13 18  1  0  0  0  0
 14 19  1  0  0  0  0
 14 13  1  0  0  0  0
 15 14  2  0  0  0  0
 16 15  1  0  0  0  0
 16 11  2  0  0  0  0
 20 15  1  0  0  0  0
 21 16  1  0  0  0  0
 22 23  1  0  0  0  0
 22 24  1  0  0  0  0
 25 22  1  0  0  0  0
 25 30  1  0  0  0  0
 26 25  2  0  0  0  0
 27 26  1  0  0  0  0
 27 28  2  0  0  0  0
 28 29  1  0  0  0  0
 29 30  2  0  0  0  0
 29 33  1  0  0  0  0
 31 26  1  0  0  0  0
 32 27  1  0  0  0  0
 33 39  1  0  0  0  0
 34 33  1  0  0  0  0
 34 35  1  0  0  0  0
 35 36  1  0  0  0  0
 36 38  1  0  0  0  0
 36 37  1  0  0  0  0
 39 38  1  0  0  0  0
M  END
>  <minimizedAffinity>
-6.11042166

$$$$

 OpenBabel03272504053D

 39 42  0  0  0  0  0  0  0  0999 V2000
   38.0940   26.6110   31.1780 C   0  0  0  0  0  0  0  0  0  0  0  0
   38.3630   26.9070   30.1600 H   0  0  0  0  0  0  0  0  0  0  0  0
   37.4940   27.4860   31.5690 H   0  0  0  0  0  0  0  0  0  0  0  0
   37.1430   25.4830   31.2150 C   0  0  0  0  0  0  0  0  0  0  0  0
   35.7610   25.6940   31.2020 C   0  0  0  0  0  0  0  0  0  0  0  0
   35.1500   24.4720   31.2420 C   0  0  0  0  0  0  0  0  0  0  0  0
   36.1220   23.5580   31.2790 N   0  0  0  0  0  0  0  0  0  0  0  0
   37.2830   24.1820   31.2620 N   0  0  0  0  0  0  0  0  0  0  0  0
   35.1980   26.6260   31.1650 H   0  0  0  0  0  0  0  0  0  0  0  0
   34.1000   24.2170   31.2470 H   0  0  0  0  0  0  0  0  0  0  0  0
   36.0920   22.1300   31.3310 C   0  0  0  0  0  0  0  0  0  0  0  0
   35.0640   21.5800   32.0640 C   0  0  0  0  0  0  0  0  0  0  0  0
   34.8740   20.2090   32.2290 C   0  0  0  0  0  0  0  0  0  0  0  0
   35.8010   19.3910   31.5950 C   0  0  0  0  0  0  0  0  0  0  0  0
   36.8390   19.9330   30.8560 C   0  0  0  0  0  0  0  0  0  0  0  0
   36.9980   21.3000   30.7150 C   0  0  0  0  0  0  0  0  0  0  0  0
   34.3230   22.1870   32.5710 H   0  0  0  0  0  0  0  0  0  0  0  0
   34.0700   19.7960   32.8010 H   0  0  0  0  0  0  0  0  0  0  0  0
   35.7430   18.3050   31.6600 H   0  0  0  0  0  0  0  0  0  0  0  0
   37.5940   19.3520   30.3390 H   0  0  0  0  0  0  0  0  0  0  0  0
   37.7830   21.7810   30.1530 H   0  0  0  0  0  0  0  0  0  0  0  0
   39.2240   26.4530   32.1310 C   0  0  0  0  0  0  0  0  0  0  0  0
   39.7990   27.4140   32.0910 H   0  0  0  0  0  0  0  0  0  0  0  0
   39.9290   25.7050   31.6740 H   0  0  0  0  0  0  0  0  0  0  0  0
   38.9180   26.1780   33.5000 C   0  0  0  0  0  0  0  0  0  0  0  0
   38.3330   27.1180   34.3020 C   0  0  0  0  0  0  0  0  0  0  0  0
   38.0150   26.8870   35.6540 C   0  0  0  0  0  0  0  0  0  0  0  0
   38.3450   25.6200   36.1100 N   0  0  0  0  0  0  0  0  0  0  0  0
   38.9230   24.7180   35.2840 C   0  0  0  0  0  0  0  0  0  0  0  0
   39.2080   24.9810   34.0030 N   0  0  0  0  0  0  0  0  0  0  0  0
   38.0850   28.1090   33.9130 H   0  0  0  0  0  0  0  0  0  0  0  0
   37.5610   27.6220   36.2720 H   0  0  0  0  0  0  0  0  0  0  0  0
   39.2140   23.4510   35.8690 N   0  0  0  0  0  0  0  0  0  0  0  0
   38.8800   23.2290   37.2640 C   0  0  0  0  0  2  0  0  0  0  0  0
   40.1970   22.9360   37.9810 C   0  0  0  0  0  2  0  0  0  0  0  0
   40.9140   21.7930   37.3350 C   0  0  0  0  0  3  0  0  0  0  0  0
   41.9330   21.7430   37.7840 H   0  0  0  0  0  0  0  0  0  0  0  0
   41.0930   21.9530   35.8540 C   0  0  0  0  0  2  0  0  0  0  0  0
   39.8300   22.3670   35.1380 C   0  0  0  0  0  2  0  0  0  0  0  0
  1  4  1  0  0  0  0
  1  3  1  0  0  0  0
  1 22  1  0  0  0  0
  2  1  1  0  0  0  0
  4  8  2  0  0  0  0
  5  4  1  0  0  0  0
  5  6  2  0  0  0  0
  6 10  1  0  0  0  0
  6  7  1  0  0  0  0
  7 11  1  0  0  0  0
  8  7  1  0  0  0  0
  9  5  1  0  0  0  0
 11 12  1  0  0  0  0
 12 13  2  0  0  0  0
 12 17  1  0  0  0  0
 13 18  1  0  0  0  0
 14 19  1  0  0  0  0
 14 13  1  0  0  0  0
 15 14  2  0  0  0  0
 16 15  1  0  0  0  0
 16 11  2  0  0  0  0
 20 15  1  0  0  0  0
 21 16  1  0  0  0  0
 22 25  1  0  0  0  0
 23 22  1  0  0  0  0
 24 22  1  0  0  0  0
 25 30  2  0  0  0  0
 25 26  1  0  0  0  0
 26 27  2  0  0  0  0
 27 28  1  0  0  0  0
 27 32  1  0  0  0  0
 29 33  1  0  0  0  0
 29 28  2  0  0  0  0
 30 29  1  0  0  0  0
 31 26  1  0  0  0  0
 33 34  1  0  0  0  0
 34 35  1  0  0  0  0
 36 37  1  0  0  0  0
 36 35  1  0  0  0  0
 38 36  1  0  0  0  0
 39 38  1  0  0  0  0
 39 33  1  0  0  0  0
M  END
>  <minimizedAffinity>
-6.08959627

$$$$

 OpenBabel03272504053D

 39 42  0  0  0  0  0  0  0  0999 V2000
   36.3070   28.7590   34.3590 C   0  0  0  0  0  0  0  0  0  0  0  0
   36.0450   29.1570   35.3450 H   0  0  0  0  0  0  0  0  0  0  0  0
   37.1470   29.4310   34.0070 H   0  0  0  0  0  0  0  0  0  0  0  0
   36.9250   27.4220   34.4260 C   0  0  0  0  0  0  0  0  0  0  0  0
   37.0660   26.6250   33.2860 C   0  0  0  0  0  0  0  0  0  0  0  0
   37.6660   25.4570   33.6620 C   0  0  0  0  0  0  0  0  0  0  0  0
   37.8800   25.5410   34.9760 N   0  0  0  0  0  0  0  0  0  0  0  0
   37.4340   26.7070   35.3990 N   0  0  0  0  0  0  0  0  0  0  0  0
   36.7770   26.8270   32.2550 H   0  0  0  0  0  0  0  0  0  0  0  0
   37.9440   24.5940   33.0730 H   0  0  0  0  0  0  0  0  0  0  0  0
   38.4690   24.6330   35.9110 C   0  0  0  0  0  0  0  0  0  0  0  0
   37.8840   24.5980   37.1580 C   0  0  0  0  0  0  0  0  0  0  0  0
   38.3200   23.7780   38.1970 C   0  0  0  0  0  0  0  0  0  0  0  0
   39.4110   22.9670   37.9090 C   0  0  0  0  0  0  0  0  0  0  0  0
   40.0070   22.9950   36.6600 C   0  0  0  0  0  0  0  0  0  0  0  0
   39.5480   23.8230   35.6500 C   0  0  0  0  0  0  0  0  0  0  0  0
   37.0330   25.2150   37.4180 H   0  0  0  0  0  0  0  0  0  0  0  0
   37.8560   23.7600   39.1600 H   0  0  0  0  0  0  0  0  0  0  0  0
   39.8300   22.2880   38.6510 H   0  0  0  0  0  0  0  0  0  0  0  0
   40.8590   22.3900   36.3710 H   0  0  0  0  0  0  0  0  0  0  0  0
   39.9680   23.8890   34.6600 H   0  0  0  0  0  0  0  0  0  0  0  0
   35.2560   28.8660   33.3130 C   0  0  0  0  0  0  0  0  0  0  0  0
   35.0470   27.8180   32.9760 H   0  0  0  0  0  0  0  0  0  0  0  0
   35.7420   29.3400   32.4160 H   0  0  0  0  0  0  0  0  0  0  0  0
   34.0120   29.4730   33.6680 C   0  0  0  0  0  0  0  0  0  0  0  0
   32.8920   29.3040   32.9020 C   0  0  0  0  0  0  0  0  0  0  0  0
   31.6480   29.8830   33.2160 C   0  0  0  0  0  0  0  0  0  0  0  0
   31.6500   30.6450   34.3740 N   0  0  0  0  0  0  0  0  0  0  0  0
   32.7780   30.7880   35.1050 C   0  0  0  0  0  0  0  0  0  0  0  0
   33.9420   30.2180   34.7680 N   0  0  0  0  0  0  0  0  0  0  0  0
   32.9240   28.6970   31.9940 H   0  0  0  0  0  0  0  0  0  0  0  0
   30.7820   29.7470   32.6160 H   0  0  0  0  0  0  0  0  0  0  0  0
   32.6530   31.5950   36.2730 N   0  0  0  0  0  0  0  0  0  0  0  0
   31.3650   32.1850   36.5830 C   0  0  0  0  0  2  0  0  0  0  0  0
   31.5680   33.6990   36.5650 C   0  0  0  0  0  2  0  0  0  0  0  0
   32.6640   34.1020   37.4980 C   0  0  0  0  0  3  0  0  0  0  0  0
   32.8820   35.1800   37.3110 H   0  0  0  0  0  0  0  0  0  0  0  0
   33.9450   33.3510   37.2850 C   0  0  0  0  0  2  0  0  0  0  0  0
   33.7530   31.8580   37.1730 C   0  0  0  0  0  2  0  0  0  0  0  0
  1  4  1  0  0  0  0
  1  2  1  0  0  0  0
  3  1  1  0  0  0  0
  4  8  2  0  0  0  0
  5  6  2  0  0  0  0
  5  4  1  0  0  0  0
  6  7  1  0  0  0  0
  7  8  1  0  0  0  0
  7 11  1  0  0  0  0
  9  5  1  0  0  0  0
 10  6  1  0  0  0  0
 11 12  1  0  0  0  0
 12 17  1  0  0  0  0
 12 13  2  0  0  0  0
 13 18  1  0  0  0  0
 14 13  1  0  0  0  0
 14 19  1  0  0  0  0
 15 14  2  0  0  0  0
 16 11  2  0  0  0  0
 16 15  1  0  0  0  0
 20 15  1  0  0  0  0
 21 16  1  0  0  0  0
 22 25  1  0  0  0  0
 22  1  1  0  0  0  0
 23 22  1  0  0  0  0
 24 22  1  0  0  0  0
 25 30  1  0  0  0  0
 26 27  1  0  0  0  0
 26 25  2  0  0  0  0
 27 28  2  0  0  0  0
 28 29  1  0  0  0  0
 29 33  1  0  0  0  0
 30 29  2  0  0  0  0
 31 26  1  0  0  0  0
 32 27  1  0  0  0  0
 33 34  1  0  0  0  0
 33 39  1  0  0  0  0
 35 34  1  0  0  0  0
 35 36  1  0  0  0  0
 37 36  1  0  0  0  0
 38 36  1  0  0  0  0
 39 38  1  0  0  0  0
M  END
>  <minimizedAffinity>
-5.97190523

$$$$

 OpenBabel03272504053D

 39 42  0  0  0  0  0  0  0  0999 V2000
   37.9900   24.2320   36.6250 C   0  0  0  0  0  0  0  0  0  0  0  0
   38.4390   24.3490   37.6160 H   0  0  0  0  0  0  0  0  0  0  0  0
   36.9040   23.9990   36.8410 H   0  0  0  0  0  0  0  0  0  0  0  0
   37.9390   25.4960   35.8660 C   0  0  0  0  0  0  0  0  0  0  0  0
   38.3940   26.6980   36.4190 C   0  0  0  0  0  0  0  0  0  0  0  0
   38.2190   27.6810   35.4860 C   0  0  0  0  0  0  0  0  0  0  0  0
   37.6800   27.1000   34.4130 N   0  0  0  0  0  0  0  0  0  0  0  0
   37.5270   25.8160   34.6650 N   0  0  0  0  0  0  0  0  0  0  0  0
   38.8220   26.8950   37.4010 H   0  0  0  0  0  0  0  0  0  0  0  0
   38.4470   28.7360   35.5340 H   0  0  0  0  0  0  0  0  0  0  0  0
   37.2800   27.6190   33.1420 C   0  0  0  0  0  0  0  0  0  0  0  0
   38.1760   27.4350   32.1120 C   0  0  0  0  0  0  0  0  0  0  0  0
   37.9600   27.8730   30.8070 C   0  0  0  0  0  0  0  0  0  0  0  0
   36.7550   28.5270   30.5820 C   0  0  0  0  0  0  0  0  0  0  0  0
   35.8480   28.7180   31.6090 C   0  0  0  0  0  0  0  0  0  0  0  0
   36.0950   28.2710   32.8950 C   0  0  0  0  0  0  0  0  0  0  0  0
   39.1240   26.9290   32.2510 H   0  0  0  0  0  0  0  0  0  0  0  0
   38.6640   27.7210   30.0170 H   0  0  0  0  0  0  0  0  0  0  0  0
   36.4870   28.9080   29.5960 H   0  0  0  0  0  0  0  0  0  0  0  0
   34.8920   29.2200   31.5010 H   0  0  0  0  0  0  0  0  0  0  0  0
   35.4290   28.3890   33.7350 H   0  0  0  0  0  0  0  0  0  0  0  0
   38.4840   23.0860   35.8180 C   0  0  0  0  0  0  0  0  0  0  0  0
   39.1250   22.4760   36.5060 H   0  0  0  0  0  0  0  0  0  0  0  0
   39.2190   23.5070   35.0770 H   0  0  0  0  0  0  0  0  0  0  0  0
   37.5200   22.2150   35.2240 C   0  0  0  0  0  0  0  0  0  0  0  0
   36.5960   21.5510   35.9830 C   0  0  0  0  0  0  0  0  0  0  0  0
   35.6290   20.6850   35.4380 C   0  0  0  0  0  0  0  0  0  0  0  0
   35.6900   20.5580   34.0580 N   0  0  0  0  0  0  0  0  0  0  0  0
   36.6190   21.2310   33.3430 C   0  0  0  0  0  0  0  0  0  0  0  0
   37.5210   22.0460   33.9040 N   0  0  0  0  0  0  0  0  0  0  0  0
   36.5740   21.6720   37.0680 H   0  0  0  0  0  0  0  0  0  0  0  0
   34.9140   20.1730   36.0330 H   0  0  0  0  0  0  0  0  0  0  0  0
   36.5800   21.0190   31.9340 N   0  0  0  0  0  0  0  0  0  0  0  0
   35.5780   20.1230   31.3880 C   0  0  0  0  0  2  0  0  0  0  0  0
   36.3400   18.9890   30.7040 C   0  0  0  0  0  2  0  0  0  0  0  0
   37.2980   19.5250   29.6890 C   0  0  0  0  0  3  0  0  0  0  0  0
   37.9400   18.6760   29.3570 H   0  0  0  0  0  0  0  0  0  0  0  0
   38.2120   20.5860   30.2250 C   0  0  0  0  0  2  0  0  0  0  0  0
   37.4950   21.6550   31.0140 C   0  0  0  0  0  2  0  0  0  0  0  0
  1  3  1  0  0  0  0
  1  2  1  0  0  0  0
  4  5  1  0  0  0  0
  4  1  1  0  0  0  0
  5  9  1  0  0  0  0
  6 10  1  0  0  0  0
  6  5  2  0  0  0  0
  7  8  1  0  0  0  0
  7  6  1  0  0  0  0
  8  4  2  0  0  0  0
 11  7  1  0  0  0  0
 12 17  1  0  0  0  0
 12 11  2  0  0  0  0
 13 12  1  0  0  0  0
 14 13  2  0  0  0  0
 14 15  1  0  0  0  0
 15 16  2  0  0  0  0
 16 11  1  0  0  0  0
 16 21  1  0  0  0  0
 18 13  1  0  0  0  0
 19 14  1  0  0  0  0
 20 15  1  0  0  0  0
 22 23  1  0  0  0  0
 22  1  1  0  0  0  0
 24 22  1  0  0  0  0
 25 22  1  0  0  0  0
 25 26  1  0  0  0  0
 26 31  1  0  0  0  0
 27 26  2  0  0  0  0
 27 32  1  0  0  0  0
 28 27  1  0  0  0  0
 29 30  1  0  0  0  0
 29 28  2  0  0  0  0
 30 25  2  0  0  0  0
 33 29  1  0  0  0  0
 34 33  1  0  0  0  0
 35 34  1  0  0  0  0
 36 38  1  0  0  0  0
 36 35  1  0  0  0  0
 37 36  1  0  0  0  0
 38 39  1  0  0  0  0
 39 33  1  0  0  0  0
M  END
>  <minimizedAffinity>
-5.8748579

$$$$
