
 OpenBabel03272501063D

 38 41  0  0  1  0  0  0  0  0999 V2000
   38.9410   32.4680   47.6600 C   0  0  2  0  0  0  0  0  0  0  0  0
   37.9700   32.6300   48.8740 C   0  0  2  0  0  0  0  0  0  0  0  0
   38.8430   33.2950   49.8310 C   0  0  0  0  0  0  0  0  0  0  0  0
   39.6540   34.1700   49.1310 O   0  0  0  0  0  0  0  0  0  0  0  0
   39.5800   33.8770   47.8110 C   0  0  0  0  0  0  0  0  0  0  0  0
   39.7040   31.7130   47.8550 H   0  0  0  0  0  0  0  0  0  0  0  0
   37.1950   33.3360   48.4910 H   0  0  0  0  0  0  0  0  0  0  0  0
   38.2020   33.8640   50.5660 H   0  0  0  0  0  0  0  0  0  0  0  0
   39.5000   32.6700   50.4330 H   0  0  0  0  0  0  0  0  0  0  0  0
   40.6240   33.7400   47.4270 H   0  0  0  0  0  0  0  0  0  0  0  0
   39.0900   34.6080   47.1550 H   0  0  0  0  0  0  0  0  0  0  0  0
   37.3300   29.3050   50.5170 C   0  0  0  0  0  0  0  0  0  0  0  0
   37.9910   30.5290   50.2030 C   0  0  0  0  0  0  0  0  0  0  0  0
   37.3550   31.3790   49.2490 C   0  0  0  0  0  0  0  0  0  0  0  0
   36.1580   30.9920   48.6850 N   0  0  0  0  0  0  0  0  0  0  0  0
   35.5860   29.8320   49.0200 C   0  0  0  0  0  0  0  0  0  0  0  0
   36.1510   28.9830   49.9250 N   0  0  0  0  0  0  0  0  0  0  0  0
   37.8500   28.6990   51.2410 H   0  0  0  0  0  0  0  0  0  0  0  0
   38.9120   30.7740   50.6680 H   0  0  0  0  0  0  0  0  0  0  0  0
   34.6510   29.4680   48.6180 H   0  0  0  0  0  0  0  0  0  0  0  0
   38.2800   32.4090   46.4820 O   0  0  0  0  0  0  0  0  0  0  0  0
   40.7000   32.2720   44.5700 Cl  0  0  0  0  0  0  0  0  0  0  0  0
   39.2200   31.3740   44.3950 C   0  0  0  0  0  0  0  0  0  0  0  0
   38.2860   31.6140   45.3900 C   0  0  0  0  0  0  0  0  0  0  0  0
   37.1030   30.9000   45.2570 C   0  0  0  0  0  0  0  0  0  0  0  0
   36.8650   30.0220   44.2270 C   0  0  0  0  0  0  0  0  0  0  0  0
   37.8440   29.8340   43.2710 C   0  0  0  0  0  0  0  0  0  0  0  0
   39.0530   30.5120   43.3370 C   0  0  0  0  0  0  0  0  0  0  0  0
   36.2630   30.9590   45.9380 H   0  0  0  0  0  0  0  0  0  0  0  0
   35.9560   29.4520   44.0980 H   0  0  0  0  0  0  0  0  0  0  0  0
   37.7470   29.1620   42.4220 H   0  0  0  0  0  0  0  0  0  0  0  0
   40.1270   30.3950   42.4090 N   0  0  0  0  0  0  0  0  0  0  0  0
   41.2130   29.4570   42.5060 C   0  0  0  0  0  0  0  0  0  0  0  0
   41.6760   29.1550   41.0820 C   0  0  0  0  0  0  0  0  0  0  0  0
   40.4580   29.1360   40.1770 C   0  0  0  0  0  0  0  0  0  0  0  0
   40.7790   28.7440   39.1830 H   0  0  0  0  0  0  0  0  0  0  0  0
   39.8190   30.4800   40.0330 C   0  0  0  0  0  0  0  0  0  0  0  0
   40.1240   31.3030   41.2630 C   0  0  0  0  0  0  0  0  0  0  0  0
  1  5  1  0  0  0  0
  1  6  1  1  0  0  0
  1  2  1  0  0  0  0
  2  7  1  6  0  0  0
  2 14  1  0  0  0  0
  2  3  1  0  0  0  0
  3  9  1  0  0  0  0
  3  8  1  0  0  0  0
  4  3  1  0  0  0  0
  5  4  1  0  0  0  0
 10  5  1  0  0  0  0
 11  5  1  0  0  0  0
 12 18  1  0  0  0  0
 13 12  1  0  0  0  0
 13 19  1  0  0  0  0
 14 13  2  0  0  0  0
 15 16  2  0  0  0  0
 15 14  1  0  0  0  0
 16 17  1  0  0  0  0
 17 12  2  0  0  0  0
 20 16  1  0  0  0  0
 21  1  1  0  0  0  0
 23 22  1  0  0  0  0
 23 24  1  0  0  0  0
 24 21  1  0  0  0  0
 25 24  2  0  0  0  0
 25 29  1  0  0  0  0
 26 25  1  0  0  0  0
 27 28  1  0  0  0  0
 27 26  2  0  0  0  0
 28 23  2  0  0  0  0
 30 26  1  0  0  0  0
 31 27  1  0  0  0  0
 32 33  1  0  0  0  0
 32 28  1  0  0  0  0
 34 33  1  0  0  0  0
 35 34  1  0  0  0  0
 36 35  1  0  0  0  0
 37 35  1  0  0  0  0
 37 38  1  0  0  0  0
 38 32  1  0  0  0  0
M  END
>  <minimizedAffinity>
-6.15331268

>  <minimizedRMSD>
1.34431052

$$$$
