
 OpenBabel03272510153D

 26 28  0  0  0  0  0  0  0  0999 V2000
   37.4680   29.2160   50.8890 Br  0  0  0  0  0  0  0  0  0  0  0  0
   36.0350   29.2880   49.6290 C   0  0  0  0  0  0  0  0  0  0  0  0
   36.0110   30.2640   48.6630 C   0  0  0  0  0  0  0  0  0  0  0  0
   34.9370   30.2550   47.7800 C   0  0  0  0  0  0  0  0  0  0  0  0
   33.9150   29.3350   47.8210 C   0  0  0  0  0  0  0  0  0  0  0  0
   33.9910   28.3740   48.8170 C   0  0  0  0  0  0  0  0  0  0  0  0
   35.0440   28.3590   49.7060 C   0  0  0  0  0  0  0  0  0  0  0  0
   34.9460   31.0460   47.0200 H   0  0  0  0  0  0  0  0  0  0  0  0
   33.1830   27.6560   48.8400 H   0  0  0  0  0  0  0  0  0  0  0  0
   35.0160   27.5640   50.4520 H   0  0  0  0  0  0  0  0  0  0  0  0
   38.0330   33.2040   49.4230 C   0  0  0  0  0  0  0  0  0  0  0  0
   39.0370   33.1890   48.4300 C   0  0  0  0  0  0  0  0  0  0  0  0
   39.0060   32.1580   47.5050 C   0  0  0  0  0  0  0  0  0  0  0  0
   38.0180   31.2150   47.5910 N   0  0  0  0  0  0  0  0  0  0  0  0
   37.0650   31.2670   48.5680 C   0  0  0  0  0  0  0  0  0  0  0  0
   37.0850   32.2600   49.4700 N   0  0  0  0  0  0  0  0  0  0  0  0
   38.0770   34.0110   50.1290 H   0  0  0  0  0  0  0  0  0  0  0  0
   39.8130   33.9320   48.3640 H   0  0  0  0  0  0  0  0  0  0  0  0
   39.7200   32.0440   46.7020 H   0  0  0  0  0  0  0  0  0  0  0  0
   32.8300   29.3650   46.8920 N   0  0  0  0  0  0  0  0  0  0  0  0
   32.7570   30.5820   46.1150 C   0  0  0  0  0  2  0  0  0  0  0  0
   31.6460   30.6490   45.1400 C   0  0  0  0  0  2  0  0  0  0  0  0
   30.4990   29.7220   45.4260 C   0  0  0  0  0  3  0  0  0  0  0  0
   29.9080   29.6600   44.4820 H   0  0  0  0  0  0  0  0  0  0  0  0
   30.9310   28.3230   45.7590 C   0  0  0  0  0  2  0  0  0  0  0  0
   31.9540   28.2100   46.8330 C   0  0  0  0  0  2  0  0  0  0  0  0
  2  7  1  0  0  0  0
  2  1  1  0  0  0  0
  3  2  2  0  0  0  0
  4  5  2  0  0  0  0
  4  3  1  0  0  0  0
  5  6  1  0  0  0  0
  6  9  1  0  0  0  0
  6  7  2  0  0  0  0
  7 10  1  0  0  0  0
  8  4  1  0  0  0  0
 11 16  1  0  0  0  0
 11 17  1  0  0  0  0
 12 11  2  0  0  0  0
 13 14  2  0  0  0  0
 13 12  1  0  0  0  0
 14 15  1  0  0  0  0
 15  3  1  0  0  0  0
 15 16  2  0  0  0  0
 18 12  1  0  0  0  0
 19 13  1  0  0  0  0
 20  5  1  0  0  0  0
 21 20  1  0  0  0  0
 22 23  1  0  0  0  0
 22 21  1  0  0  0  0
 23 25  1  0  0  0  0
 24 23  1  0  0  0  0
 25 26  1  0  0  0  0
 26 20  1  0  0  0  0
M  END
>  <minimizedAffinity>
-5.8868084

>  <minimizedRMSD>
0.559791803

$$$$
