
 OpenBabel03272500283D

 32 34  0  0  0  0  0  0  0  0999 V2000
   38.0790   26.6010   32.8120 C   0  0  0  0  0  0  0  0  0  0  0  0
   38.1970   27.5420   32.1970 H   0  0  0  0  0  0  0  0  0  0  0  0
   39.0820   26.1020   32.6700 H   0  0  0  0  0  0  0  0  0  0  0  0
   37.0660   25.8060   32.1920 C   0  0  0  0  0  0  0  0  0  0  0  0
   36.0900   26.4060   31.4650 C   0  0  0  0  0  0  0  0  0  0  0  0
   35.0660   25.6820   30.8320 C   0  0  0  0  0  0  0  0  0  0  0  0
   35.1370   24.3050   31.0130 N   0  0  0  0  0  0  0  0  0  0  0  0
   36.1160   23.7410   31.7390 C   0  0  0  0  0  0  0  0  0  0  0  0
   37.0630   24.4980   32.3150 N   0  0  0  0  0  0  0  0  0  0  0  0
   35.9650   27.4610   31.2770 H   0  0  0  0  0  0  0  0  0  0  0  0
   34.2690   26.1180   30.2450 H   0  0  0  0  0  0  0  0  0  0  0  0
   36.1730   22.3330   31.9130 N   0  0  0  0  0  0  0  0  0  0  0  0
   35.2290   21.4190   31.3520 C   0  0  0  0  0  2  0  0  0  0  0  0
   35.2010   20.0850   32.0470 C   0  0  0  0  0  2  0  0  0  0  0  0
   35.5180   20.1320   33.4990 C   0  0  0  0  0  3  0  0  0  0  0  0
   35.9030   19.1090   33.7760 H   0  0  0  0  0  0  0  0  0  0  0  0
   36.5400   21.1320   33.9160 C   0  0  0  0  0  2  0  0  0  0  0  0
   37.2120   21.6880   32.6890 C   0  0  0  0  0  2  0  0  0  0  0  0
   37.9980   26.9700   34.2270 C   0  0  0  0  0  0  0  0  0  0  0  0
   38.6850   27.8310   34.4790 H   0  0  0  0  0  0  0  0  0  0  0  0
   36.9890   27.3670   34.4610 H   0  0  0  0  0  0  0  0  0  0  0  0
   38.3470   25.9040   35.1860 C   0  0  0  0  0  0  0  0  0  0  0  0
   39.3770   25.0220   34.9020 C   0  0  0  0  0  0  0  0  0  0  0  0
   39.4740   24.1510   35.9540 C   0  0  0  0  0  0  0  0  0  0  0  0
   38.5320   24.5010   36.8460 N   0  0  0  0  0  0  0  0  0  0  0  0
   37.8710   25.5430   36.3730 N   0  0  0  0  0  0  0  0  0  0  0  0
   40.0200   24.9750   34.0290 H   0  0  0  0  0  0  0  0  0  0  0  0
   40.1430   23.3100   36.1410 H   0  0  0  0  0  0  0  0  0  0  0  0
   38.2510   23.8620   38.1300 C   0  0  0  0  0  0  0  0  0  0  0  0
   39.3850   23.2970   38.6430 F   0  0  0  0  0  0  0  0  0  0  0  0
   37.2670   22.9070   38.0380 F   0  0  0  0  0  0  0  0  0  0  0  0
   37.8360   24.8190   39.0550 F   0  0  0  0  0  0  0  0  0  0  0  0
  1 19  1  0  0  0  0
  2  1  1  0  0  0  0
  3  1  1  0  0  0  0
  4  9  1  0  0  0  0
  4  1  1  0  0  0  0
  5  4  2  0  0  0  0
  6  7  2  0  0  0  0
  6  5  1  0  0  0  0
  7  8  1  0  0  0  0
  8 12  1  0  0  0  0
  8  9  2  0  0  0  0
 10  5  1  0  0  0  0
 11  6  1  0  0  0  0
 12 18  1  0  0  0  0
 13 12  1  0  0  0  0
 13 14  1  0  0  0  0
 14 15  1  0  0  0  0
 15 16  1  0  0  0  0
 15 17  1  0  0  0  0
 18 17  1  0  0  0  0
 19 21  1  0  0  0  0
 19 20  1  0  0  0  0
 19 22  1  0  0  0  0
 22 26  2  0  0  0  0
 23 22  1  0  0  0  0
 23 24  2  0  0  0  0
 24 28  1  0  0  0  0
 24 25  1  0  0  0  0
 25 29  1  0  0  0  0
 26 25  1  0  0  0  0
 27 23  1  0  0  0  0
 29 30  1  0  0  0  0
 29 32  1  0  0  0  0
 31 29  1  0  0  0  0
M  END
>  <minimizedAffinity>
-6.20933771

$$$$

 OpenBabel03272500283D

 32 34  0  0  0  0  0  0  0  0999 V2000
   37.5580   25.2160   31.6820 C   0  0  0  0  0  0  0  0  0  0  0  0
   38.4780   24.5830   31.5100 H   0  0  0  0  0  0  0  0  0  0  0  0
   37.7670   26.1150   31.0320 H   0  0  0  0  0  0  0  0  0  0  0  0
   37.5590   25.6150   33.0540 C   0  0  0  0  0  0  0  0  0  0  0  0
   37.3060   26.9080   33.3790 C   0  0  0  0  0  0  0  0  0  0  0  0
   37.2940   27.3640   34.7090 C   0  0  0  0  0  0  0  0  0  0  0  0
   37.5600   26.3820   35.6570 N   0  0  0  0  0  0  0  0  0  0  0  0
   37.8060   25.1120   35.3030 C   0  0  0  0  0  0  0  0  0  0  0  0
   37.8010   24.7480   34.0100 N   0  0  0  0  0  0  0  0  0  0  0  0
   37.0910   27.7250   32.7090 H   0  0  0  0  0  0  0  0  0  0  0  0
   37.0990   28.3830   35.0130 H   0  0  0  0  0  0  0  0  0  0  0  0
   38.0760   24.1220   36.2850 N   0  0  0  0  0  0  0  0  0  0  0  0
   38.1090   24.3780   37.6910 C   0  0  0  0  0  2  0  0  0  0  0  0
   38.8700   23.3420   38.4720 C   0  0  0  0  0  2  0  0  0  0  0  0
   39.9990   22.7130   37.7370 C   0  0  0  0  0  3  0  0  0  0  0  0
   40.1700   21.7060   38.2120 H   0  0  0  0  0  0  0  0  0  0  0  0
   39.7950   22.4990   36.2770 C   0  0  0  0  0  2  0  0  0  0  0  0
   38.3470   22.7410   35.9430 C   0  0  0  0  0  2  0  0  0  0  0  0
   36.4040   24.5370   31.0880 C   0  0  0  0  0  0  0  0  0  0  0  0
   35.4260   24.9270   31.4990 H   0  0  0  0  0  0  0  0  0  0  0  0
   36.3390   24.7700   30.0050 H   0  0  0  0  0  0  0  0  0  0  0  0
   36.3500   23.0760   31.2860 C   0  0  0  0  0  0  0  0  0  0  0  0
   37.4190   22.2810   30.9020 C   0  0  0  0  0  0  0  0  0  0  0  0
   37.0950   20.9850   31.1980 C   0  0  0  0  0  0  0  0  0  0  0  0
   35.8680   20.9990   31.7460 N   0  0  0  0  0  0  0  0  0  0  0  0
   35.4400   22.2480   31.7890 N   0  0  0  0  0  0  0  0  0  0  0  0
   38.3600   22.5710   30.4460 H   0  0  0  0  0  0  0  0  0  0  0  0
   37.6420   20.0510   31.0640 H   0  0  0  0  0  0  0  0  0  0  0  0
   35.1010   19.8500   32.2230 C   0  0  0  0  0  0  0  0  0  0  0  0
   35.2530   19.6990   33.5740 F   0  0  0  0  0  0  0  0  0  0  0  0
   35.4540   18.6820   31.5920 F   0  0  0  0  0  0  0  0  0  0  0  0
   33.7400   20.0640   32.0040 F   0  0  0  0  0  0  0  0  0  0  0  0
  1  4  1  0  0  0  0
  2  1  1  0  0  0  0
  3  1  1  0  0  0  0
  4  5  2  0  0  0  0
  4  9  1  0  0  0  0
  5  6  1  0  0  0  0
  6 11  1  0  0  0  0
  6  7  2  0  0  0  0
  8  7  1  0  0  0  0
  8 12  1  0  0  0  0
  9  8  2  0  0  0  0
 10  5  1  0  0  0  0
 12 13  1  0  0  0  0
 13 14  1  0  0  0  0
 15 16  1  0  0  0  0
 15 14  1  0  0  0  0
 17 15  1  0  0  0  0
 18 17  1  0  0  0  0
 18 12  1  0  0  0  0
 19 22  1  0  0  0  0
 19 20  1  0  0  0  0
 19  1  1  0  0  0  0
 21 19  1  0  0  0  0
 22 26  2  0  0  0  0
 23 24  2  0  0  0  0
 23 22  1  0  0  0  0
 24 25  1  0  0  0  0
 25 26  1  0  0  0  0
 25 29  1  0  0  0  0
 27 23  1  0  0  0  0
 28 24  1  0  0  0  0
 29 30  1  0  0  0  0
 31 29  1  0  0  0  0
 32 29  1  0  0  0  0
M  END
>  <minimizedAffinity>
-6.08659172

$$$$

 OpenBabel03272500283D

 32 34  0  0  0  0  0  0  0  0999 V2000
   37.3010   26.7570   33.1400 C   0  0  0  0  0  0  0  0  0  0  0  0
   37.6760   26.1350   32.2740 H   0  0  0  0  0  0  0  0  0  0  0  0
   36.4610   26.1180   33.5400 H   0  0  0  0  0  0  0  0  0  0  0  0
   36.7600   27.9650   32.6010 C   0  0  0  0  0  0  0  0  0  0  0  0
   36.7890   28.1760   31.2610 C   0  0  0  0  0  0  0  0  0  0  0  0
   36.2740   29.3430   30.6690 C   0  0  0  0  0  0  0  0  0  0  0  0
   35.7350   30.2550   31.5690 N   0  0  0  0  0  0  0  0  0  0  0  0
   35.7220   30.0170   32.8900 C   0  0  0  0  0  0  0  0  0  0  0  0
   36.2330   28.8780   33.3840 N   0  0  0  0  0  0  0  0  0  0  0  0
   37.1850   27.5230   30.5000 H   0  0  0  0  0  0  0  0  0  0  0  0
   36.2770   29.5530   29.6090 H   0  0  0  0  0  0  0  0  0  0  0  0
   35.1670   30.9600   33.7940 N   0  0  0  0  0  0  0  0  0  0  0  0
   34.5910   32.2070   33.3960 C   0  0  0  0  0  2  0  0  0  0  0  0
   34.5230   33.2170   34.5080 C   0  0  0  0  0  2  0  0  0  0  0  0
   35.6140   33.1130   35.5130 C   0  0  0  0  0  3  0  0  0  0  0  0
   35.2170   33.5680   36.4650 H   0  0  0  0  0  0  0  0  0  0  0  0
   36.0870   31.7370   35.8290 C   0  0  0  0  0  2  0  0  0  0  0  0
   35.1350   30.7400   35.2260 C   0  0  0  0  0  2  0  0  0  0  0  0
   38.3320   26.7830   34.1810 C   0  0  0  0  0  0  0  0  0  0  0  0
   39.3730   26.7590   33.7450 H   0  0  0  0  0  0  0  0  0  0  0  0
   38.3020   27.7490   34.7250 H   0  0  0  0  0  0  0  0  0  0  0  0
   38.2920   25.6670   35.1470 C   0  0  0  0  0  0  0  0  0  0  0  0
   38.3030   24.3570   34.6970 C   0  0  0  0  0  0  0  0  0  0  0  0
   38.2580   23.5440   35.7980 C   0  0  0  0  0  0  0  0  0  0  0  0
   38.2230   24.3430   36.8770 N   0  0  0  0  0  0  0  0  0  0  0  0
   38.2420   25.6000   36.4730 N   0  0  0  0  0  0  0  0  0  0  0  0
   38.3380   23.9800   33.6790 H   0  0  0  0  0  0  0  0  0  0  0  0
   38.2500   22.4580   35.8990 H   0  0  0  0  0  0  0  0  0  0  0  0
   38.1680   23.9310   38.2790 C   0  0  0  0  0  0  0  0  0  0  0  0
   37.2480   22.9340   38.4500 F   0  0  0  0  0  0  0  0  0  0  0  0
   37.8710   24.9740   39.1230 F   0  0  0  0  0  0  0  0  0  0  0  0
   39.3970   23.4000   38.6660 F   0  0  0  0  0  0  0  0  0  0  0  0
  1  3  1  0  0  0  0
  1 19  1  0  0  0  0
  2  1  1  0  0  0  0
  4  1  1  0  0  0  0
  4  9  1  0  0  0  0
  5  4  2  0  0  0  0
  6  5  1  0  0  0  0
  6  7  2  0  0  0  0
  7  8  1  0  0  0  0
  8  9  2  0  0  0  0
  8 12  1  0  0  0  0
 10  5  1  0  0  0  0
 11  6  1  0  0  0  0
 12 18  1  0  0  0  0
 13 12  1  0  0  0  0
 13 14  1  0  0  0  0
 14 15  1  0  0  0  0
 15 17  1  0  0  0  0
 15 16  1  0  0  0  0
 18 17  1  0  0  0  0
 19 21  1  0  0  0  0
 19 22  1  0  0  0  0
 20 19  1  0  0  0  0
 22 26  2  0  0  0  0
 23 22  1  0  0  0  0
 23 24  2  0  0  0  0
 24 28  1  0  0  0  0
 24 25  1  0  0  0  0
 25 29  1  0  0  0  0
 26 25  1  0  0  0  0
 27 23  1  0  0  0  0
 29 30  1  0  0  0  0
 29 32  1  0  0  0  0
 29 31  1  0  0  0  0
M  END
>  <minimizedAffinity>
-5.89951134

$$$$

 OpenBabel03272500283D

 32 34  0  0  0  0  0  0  0  0999 V2000
   37.9130   22.7740   32.4240 C   0  0  0  0  0  0  0  0  0  0  0  0
   38.9610   23.1830   32.5230 H   0  0  0  0  0  0  0  0  0  0  0  0
   38.0450   21.9810   31.6310 H   0  0  0  0  0  0  0  0  0  0  0  0
   37.0870   23.8210   31.9100 C   0  0  0  0  0  0  0  0  0  0  0  0
   35.7940   23.5630   31.5900 C   0  0  0  0  0  0  0  0  0  0  0  0
   34.9310   24.5490   31.0810 C   0  0  0  0  0  0  0  0  0  0  0  0
   35.5120   25.8030   30.9340 N   0  0  0  0  0  0  0  0  0  0  0  0
   36.7950   26.0260   31.2600 C   0  0  0  0  0  0  0  0  0  0  0  0
   37.5610   25.0340   31.7420 N   0  0  0  0  0  0  0  0  0  0  0  0
   35.2700   22.6240   31.6740 H   0  0  0  0  0  0  0  0  0  0  0  0
   33.8960   24.3880   30.8120 H   0  0  0  0  0  0  0  0  0  0  0  0
   37.3720   27.3150   31.1040 N   0  0  0  0  0  0  0  0  0  0  0  0
   36.6660   28.4520   30.6040 C   0  0  0  0  0  2  0  0  0  0  0  0
   37.5680   29.5350   30.0790 C   0  0  0  0  0  2  0  0  0  0  0  0
   38.8450   29.0510   29.4900 C   0  0  0  0  0  3  0  0  0  0  0  0
   39.5770   29.9050   29.5660 H   0  0  0  0  0  0  0  0  0  0  0  0
   39.4610   27.8630   30.1430 C   0  0  0  0  0  2  0  0  0  0  0  0
   38.7520   27.5940   31.4430 C   0  0  0  0  0  2  0  0  0  0  0  0
   37.5650   22.0670   33.6590 C   0  0  0  0  0  0  0  0  0  0  0  0
   36.4480   22.0240   33.8210 H   0  0  0  0  0  0  0  0  0  0  0  0
   37.8560   20.9990   33.5830 H   0  0  0  0  0  0  0  0  0  0  0  0
   38.1140   22.6440   34.9010 C   0  0  0  0  0  0  0  0  0  0  0  0
   39.3900   23.1850   34.9130 C   0  0  0  0  0  0  0  0  0  0  0  0
   39.6320   23.6380   36.1820 C   0  0  0  0  0  0  0  0  0  0  0  0
   38.5340   23.3790   36.9110 N   0  0  0  0  0  0  0  0  0  0  0  0
   37.6430   22.7870   36.1350 N   0  0  0  0  0  0  0  0  0  0  0  0
   40.1100   23.2630   34.1050 H   0  0  0  0  0  0  0  0  0  0  0  0
   40.5010   24.1280   36.6250 H   0  0  0  0  0  0  0  0  0  0  0  0
   38.3220   23.6800   38.3250 C   0  0  0  0  0  0  0  0  0  0  0  0
   37.3540   22.8680   38.8490 F   0  0  0  0  0  0  0  0  0  0  0  0
   37.9760   24.9930   38.5380 F   0  0  0  0  0  0  0  0  0  0  0  0
   39.4860   23.4190   39.0470 F   0  0  0  0  0  0  0  0  0  0  0  0
  1  2  1  0  0  0  0
  1 19  1  0  0  0  0
  3  1  1  0  0  0  0
  4  1  1  0  0  0  0
  5 10  1  0  0  0  0
  5  4  2  0  0  0  0
  6  5  1  0  0  0  0
  7  6  2  0  0  0  0
  7  8  1  0  0  0  0
  8  9  2  0  0  0  0
  9  4  1  0  0  0  0
 11  6  1  0  0  0  0
 12  8  1  0  0  0  0
 12 18  1  0  0  0  0
 13 12  1  0  0  0  0
 14 13  1  0  0  0  0
 15 16  1  0  0  0  0
 15 14  1  0  0  0  0
 15 17  1  0  0  0  0
 17 18  1  0  0  0  0
 19 20  1  0  0  0  0
 19 22  1  0  0  0  0
 21 19  1  0  0  0  0
 22 23  1  0  0  0  0
 22 26  2  0  0  0  0
 23 24  2  0  0  0  0
 24 28  1  0  0  0  0
 24 25  1  0  0  0  0
 25 29  1  0  0  0  0
 26 25  1  0  0  0  0
 27 23  1  0  0  0  0
 29 31  1  0  0  0  0
 29 30  1  0  0  0  0
 29 32  1  0  0  0  0
M  END
>  <minimizedAffinity>
-5.67132998

$$$$

 OpenBabel03272500283D

 32 34  0  0  0  0  0  0  0  0999 V2000
   38.4200   26.9040   35.3780 C   0  0  0  0  0  0  0  0  0  0  0  0
   37.6770   27.7560   35.3910 H   0  0  0  0  0  0  0  0  0  0  0  0
   39.0490   27.1290   36.2880 H   0  0  0  0  0  0  0  0  0  0  0  0
   39.2200   27.0460   34.2030 C   0  0  0  0  0  0  0  0  0  0  0  0
   40.5740   27.0140   34.3030 C   0  0  0  0  0  0  0  0  0  0  0  0
   41.4160   27.1480   33.1860 C   0  0  0  0  0  0  0  0  0  0  0  0
   40.7490   27.3150   31.9780 N   0  0  0  0  0  0  0  0  0  0  0  0
   39.4090   27.3430   31.9130 C   0  0  0  0  0  0  0  0  0  0  0  0
   38.6670   27.2080   33.0240 N   0  0  0  0  0  0  0  0  0  0  0  0
   41.1650   26.8880   35.1970 H   0  0  0  0  0  0  0  0  0  0  0  0
   42.4970   27.1300   33.2190 H   0  0  0  0  0  0  0  0  0  0  0  0
   38.7440   27.5150   30.6690 N   0  0  0  0  0  0  0  0  0  0  0  0
   39.4170   27.6680   29.4180 C   0  0  0  0  0  2  0  0  0  0  0  0
   38.5650   28.3050   28.3540 C   0  0  0  0  0  2  0  0  0  0  0  0
   37.5630   29.2800   28.8590 C   0  0  0  0  0  3  0  0  0  0  0  0
   36.7400   29.3220   28.0900 H   0  0  0  0  0  0  0  0  0  0  0  0
   36.9410   28.9610   30.1750 C   0  0  0  0  0  2  0  0  0  0  0  0
   37.3000   27.5510   30.5590 C   0  0  0  0  0  2  0  0  0  0  0  0
   37.7080   25.6570   35.6690 C   0  0  0  0  0  0  0  0  0  0  0  0
   36.8120   25.8270   36.3340 H   0  0  0  0  0  0  0  0  0  0  0  0
   37.2650   25.2430   34.7390 H   0  0  0  0  0  0  0  0  0  0  0  0
   38.5000   24.6120   36.3480 C   0  0  0  0  0  0  0  0  0  0  0  0
   38.0720   24.0910   37.5580 C   0  0  0  0  0  0  0  0  0  0  0  0
   38.9900   23.1550   37.9510 C   0  0  0  0  0  0  0  0  0  0  0  0
   39.9420   23.1140   37.0040 N   0  0  0  0  0  0  0  0  0  0  0  0
   39.6360   23.9860   36.0600 N   0  0  0  0  0  0  0  0  0  0  0  0
   37.1870   24.3370   38.1370 H   0  0  0  0  0  0  0  0  0  0  0  0
   39.0410   22.5120   38.8300 H   0  0  0  0  0  0  0  0  0  0  0  0
   41.1320   22.2650   36.9840 C   0  0  0  0  0  0  0  0  0  0  0  0
   41.1360   21.4200   38.0590 F   0  0  0  0  0  0  0  0  0  0  0  0
   42.2980   22.9920   36.9730 F   0  0  0  0  0  0  0  0  0  0  0  0
   41.1190   21.4550   35.8490 F   0  0  0  0  0  0  0  0  0  0  0  0
  1  2  1  0  0  0  0
  1 19  1  0  0  0  0
  1  3  1  0  0  0  0
  4  5  1  0  0  0  0
  4  1  1  0  0  0  0
  5 10  1  0  0  0  0
  6 11  1  0  0  0  0
  6  5  2  0  0  0  0
  7  6  1  0  0  0  0
  8  7  2  0  0  0  0
  8  9  1  0  0  0  0
  9  4  2  0  0  0  0
 12  8  1  0  0  0  0
 13 12  1  0  0  0  0
 14 15  1  0  0  0  0
 14 13  1  0  0  0  0
 15 17  1  0  0  0  0
 16 15  1  0  0  0  0
 17 18  1  0  0  0  0
 18 12  1  0  0  0  0
 19 20  1  0  0  0  0
 19 22  1  0  0  0  0
 21 19  1  0  0  0  0
 22 23  1  0  0  0  0
 23 24  2  0  0  0  0
 23 27  1  0  0  0  0
 24 28  1  0  0  0  0
 25 24  1  0  0  0  0
 26 22  2  0  0  0  0
 26 25  1  0  0  0  0
 29 25  1  0  0  0  0
 29 30  1  0  0  0  0
 31 29  1  0  0  0  0
 32 29  1  0  0  0  0
M  END
>  <minimizedAffinity>
-5.5355382

$$$$

 OpenBabel03272500283D

 32 34  0  0  0  0  0  0  0  0999 V2000
   37.6940   25.4830   35.6720 C   0  0  0  0  0  0  0  0  0  0  0  0
   36.7650   25.8070   36.2290 H   0  0  0  0  0  0  0  0  0  0  0  0
   37.2570   24.9390   34.7850 H   0  0  0  0  0  0  0  0  0  0  0  0
   38.3910   24.5510   36.5020 C   0  0  0  0  0  0  0  0  0  0  0  0
   37.9650   24.3320   37.7720 C   0  0  0  0  0  0  0  0  0  0  0  0
   38.6070   23.4300   38.6380 C   0  0  0  0  0  0  0  0  0  0  0  0
   39.7070   22.7840   38.0850 N   0  0  0  0  0  0  0  0  0  0  0  0
   40.1020   23.0230   36.8250 C   0  0  0  0  0  0  0  0  0  0  0  0
   39.4390   23.9010   36.0540 N   0  0  0  0  0  0  0  0  0  0  0  0
   37.1260   24.7890   38.2730 H   0  0  0  0  0  0  0  0  0  0  0  0
   38.3040   23.2250   39.6560 H   0  0  0  0  0  0  0  0  0  0  0  0
   41.2290   22.3540   36.2760 N   0  0  0  0  0  0  0  0  0  0  0  0
   42.0170   21.3990   36.9890 C   0  0  0  0  0  2  0  0  0  0  0  0
   43.3900   21.2010   36.4090 C   0  0  0  0  0  2  0  0  0  0  0  0
   43.9710   22.4060   35.7570 C   0  0  0  0  0  3  0  0  0  0  0  0
   44.7250   22.0320   35.0070 H   0  0  0  0  0  0  0  0  0  0  0  0
   43.0120   23.2900   35.0380 C   0  0  0  0  0  2  0  0  0  0  0  0
   41.6870   22.5860   34.9220 C   0  0  0  0  0  2  0  0  0  0  0  0
   38.3600   26.6740   35.1390 C   0  0  0  0  0  0  0  0  0  0  0  0
   38.5850   27.4300   35.9470 H   0  0  0  0  0  0  0  0  0  0  0  0
   39.3640   26.4070   34.7480 H   0  0  0  0  0  0  0  0  0  0  0  0
   37.6090   27.4190   34.1100 C   0  0  0  0  0  0  0  0  0  0  0  0
   36.5030   28.1750   34.4660 C   0  0  0  0  0  0  0  0  0  0  0  0
   36.0110   28.7470   33.3240 C   0  0  0  0  0  0  0  0  0  0  0  0
   36.7980   28.3480   32.3110 N   0  0  0  0  0  0  0  0  0  0  0  0
   37.7420   27.5590   32.7950 N   0  0  0  0  0  0  0  0  0  0  0  0
   36.0600   28.3240   35.4460 H   0  0  0  0  0  0  0  0  0  0  0  0
   35.1620   29.4090   33.1510 H   0  0  0  0  0  0  0  0  0  0  0  0
   36.6670   28.7010   30.8990 C   0  0  0  0  0  0  0  0  0  0  0  0
   35.7360   29.6890   30.7360 F   0  0  0  0  0  0  0  0  0  0  0  0
   36.3280   27.6230   30.1160 F   0  0  0  0  0  0  0  0  0  0  0  0
   37.8720   29.2160   30.4240 F   0  0  0  0  0  0  0  0  0  0  0  0
  1  2  1  0  0  0  0
  1  4  1  0  0  0  0
  3  1  1  0  0  0  0
  4  5  1  0  0  0  0
  5 10  1  0  0  0  0
  5  6  2  0  0  0  0
  6 11  1  0  0  0  0
  7  6  1  0  0  0  0
  8  7  2  0  0  0  0
  9  4  2  0  0  0  0
  9  8  1  0  0  0  0
 12  8  1  0  0  0  0
 12 13  1  0  0  0  0
 14 13  1  0  0  0  0
 15 14  1  0  0  0  0
 16 15  1  0  0  0  0
 17 15  1  0  0  0  0
 18 17  1  0  0  0  0
 18 12  1  0  0  0  0
 19  1  1  0  0  0  0
 19 20  1  0  0  0  0
 21 19  1  0  0  0  0
 22 23  1  0  0  0  0
 22 19  1  0  0  0  0
 23 27  1  0  0  0  0
 24 23  2  0  0  0  0
 25 26  1  0  0  0  0
 25 24  1  0  0  0  0
 26 22  2  0  0  0  0
 28 24  1  0  0  0  0
 29 25  1  0  0  0  0
 30 29  1  0  0  0  0
 31 29  1  0  0  0  0
 32 29  1  0  0  0  0
M  END
>  <minimizedAffinity>
-5.50366116

$$$$

 OpenBabel03272500283D

 32 34  0  0  0  0  0  0  0  0999 V2000
   37.0780   26.6190   33.1840 C   0  0  0  0  0  0  0  0  0  0  0  0
   36.9680   25.5220   32.9360 H   0  0  0  0  0  0  0  0  0  0  0  0
   36.0770   26.8540   33.6530 H   0  0  0  0  0  0  0  0  0  0  0  0
   37.2000   27.3310   31.9510 C   0  0  0  0  0  0  0  0  0  0  0  0
   36.3500   28.3530   31.6770 C   0  0  0  0  0  0  0  0  0  0  0  0
   36.4170   29.0910   30.4830 C   0  0  0  0  0  0  0  0  0  0  0  0
   37.4230   28.6870   29.6120 N   0  0  0  0  0  0  0  0  0  0  0  0
   38.2480   27.6720   29.9130 C   0  0  0  0  0  0  0  0  0  0  0  0
   38.1240   27.0110   31.0750 N   0  0  0  0  0  0  0  0  0  0  0  0
   35.5490   28.7260   32.2950 H   0  0  0  0  0  0  0  0  0  0  0  0
   35.7610   29.9100   30.2220 H   0  0  0  0  0  0  0  0  0  0  0  0
   39.2700   27.2730   29.0110 N   0  0  0  0  0  0  0  0  0  0  0  0
   39.5070   27.8940   27.7460 C   0  0  0  0  0  2  0  0  0  0  0  0
   40.2790   27.0280   26.7880 C   0  0  0  0  0  2  0  0  0  0  0  0
   40.0460   25.5670   26.9430 C   0  0  0  0  0  3  0  0  0  0  0  0
   40.9610   25.0520   26.5330 H   0  0  0  0  0  0  0  0  0  0  0  0
   39.8340   25.0790   28.3340 C   0  0  0  0  0  2  0  0  0  0  0  0
   40.1780   26.1820   29.2990 C   0  0  0  0  0  2  0  0  0  0  0  0
   38.0740   26.7630   34.2480 C   0  0  0  0  0  0  0  0  0  0  0  0
   39.1210   26.8610   33.8350 H   0  0  0  0  0  0  0  0  0  0  0  0
   37.9200   27.7190   34.7910 H   0  0  0  0  0  0  0  0  0  0  0  0
   38.1430   25.6500   35.2140 C   0  0  0  0  0  0  0  0  0  0  0  0
   38.2250   24.3410   34.7640 C   0  0  0  0  0  0  0  0  0  0  0  0
   38.2730   23.5300   35.8660 C   0  0  0  0  0  0  0  0  0  0  0  0
   38.2230   24.3260   36.9460 N   0  0  0  0  0  0  0  0  0  0  0  0
   38.1450   25.5820   36.5410 N   0  0  0  0  0  0  0  0  0  0  0  0
   38.2490   23.9660   33.7460 H   0  0  0  0  0  0  0  0  0  0  0  0
   38.3410   22.4460   35.9660 H   0  0  0  0  0  0  0  0  0  0  0  0
   38.2450   23.9150   38.3480 C   0  0  0  0  0  0  0  0  0  0  0  0
   37.3090   22.9450   38.5790 F   0  0  0  0  0  0  0  0  0  0  0  0
   38.0330   24.9650   39.2090 F   0  0  0  0  0  0  0  0  0  0  0  0
   39.4810   23.3480   38.6570 F   0  0  0  0  0  0  0  0  0  0  0  0
  1  3  1  0  0  0  0
  1 19  1  0  0  0  0
  2  1  1  0  0  0  0
  4  1  1  0  0  0  0
  5  4  1  0  0  0  0
  5 10  1  0  0  0  0
  6  5  2  0  0  0  0
  7  8  2  0  0  0  0
  7  6  1  0  0  0  0
  8  9  1  0  0  0  0
  9  4  2  0  0  0  0
 11  6  1  0  0  0  0
 12 18  1  0  0  0  0
 12  8  1  0  0  0  0
 13 12  1  0  0  0  0
 14 15  1  0  0  0  0
 14 13  1  0  0  0  0
 15 17  1  0  0  0  0
 16 15  1  0  0  0  0
 17 18  1  0  0  0  0
 19 21  1  0  0  0  0
 19 22  1  0  0  0  0
 20 19  1  0  0  0  0
 22 26  2  0  0  0  0
 23 22  1  0  0  0  0
 23 24  2  0  0  0  0
 24 28  1  0  0  0  0
 24 25  1  0  0  0  0
 25 29  1  0  0  0  0
 26 25  1  0  0  0  0
 27 23  1  0  0  0  0
 29 30  1  0  0  0  0
 29 32  1  0  0  0  0
 29 31  1  0  0  0  0
M  END
>  <minimizedAffinity>
-5.43129539

$$$$

 OpenBabel03272500283D

 32 34  0  0  0  0  0  0  0  0999 V2000
   38.2730   26.5720   35.4130 C   0  0  0  0  0  0  0  0  0  0  0  0
   38.2710   27.3390   36.2430 H   0  0  0  0  0  0  0  0  0  0  0  0
   39.3740   26.3450   35.3070 H   0  0  0  0  0  0  0  0  0  0  0  0
   37.8090   27.2200   34.2270 C   0  0  0  0  0  0  0  0  0  0  0  0
   38.4940   27.0680   33.0650 C   0  0  0  0  0  0  0  0  0  0  0  0
   38.0910   27.6780   31.8650 C   0  0  0  0  0  0  0  0  0  0  0  0
   36.9360   28.4460   31.9690 N   0  0  0  0  0  0  0  0  0  0  0  0
   36.2810   28.5760   33.1330 C   0  0  0  0  0  0  0  0  0  0  0  0
   36.7270   27.9630   34.2410 N   0  0  0  0  0  0  0  0  0  0  0  0
   39.3920   26.4920   32.9010 H   0  0  0  0  0  0  0  0  0  0  0  0
   38.6060   27.5860   30.9180 H   0  0  0  0  0  0  0  0  0  0  0  0
   35.1030   29.3650   33.2210 N   0  0  0  0  0  0  0  0  0  0  0  0
   34.5270   30.0660   32.1170 C   0  0  0  0  0  2  0  0  0  0  0  0
   33.6100   31.1850   32.5310 C   0  0  0  0  0  2  0  0  0  0  0  0
   33.9750   31.8490   33.8110 C   0  0  0  0  0  3  0  0  0  0  0  0
   33.0270   32.3030   34.2180 H   0  0  0  0  0  0  0  0  0  0  0  0
   34.5490   30.9680   34.8670 C   0  0  0  0  0  2  0  0  0  0  0  0
   34.3700   29.5310   34.4590 C   0  0  0  0  0  2  0  0  0  0  0  0
   37.6450   25.3440   35.9050 C   0  0  0  0  0  0  0  0  0  0  0  0
   36.8530   25.5570   36.6820 H   0  0  0  0  0  0  0  0  0  0  0  0
   37.0790   24.8490   35.0880 H   0  0  0  0  0  0  0  0  0  0  0  0
   38.5550   24.3700   36.5390 C   0  0  0  0  0  0  0  0  0  0  0  0
   38.2900   23.8970   37.8140 C   0  0  0  0  0  0  0  0  0  0  0  0
   39.2880   23.0200   38.1430 C   0  0  0  0  0  0  0  0  0  0  0  0
   40.1290   22.9680   37.0970 N   0  0  0  0  0  0  0  0  0  0  0  0
   39.6790   23.7760   36.1530 N   0  0  0  0  0  0  0  0  0  0  0  0
   37.4650   24.1370   38.4780 H   0  0  0  0  0  0  0  0  0  0  0  0
   39.4670   22.4280   39.0410 H   0  0  0  0  0  0  0  0  0  0  0  0
   41.3470   22.1670   36.9820 C   0  0  0  0  0  0  0  0  0  0  0  0
   41.4300   21.2700   38.0100 F   0  0  0  0  0  0  0  0  0  0  0  0
   42.4840   22.9390   36.9590 F   0  0  0  0  0  0  0  0  0  0  0  0
   41.3130   21.4160   35.8080 F   0  0  0  0  0  0  0  0  0  0  0  0
  1 19  1  0  0  0  0
  1  2  1  0  0  0  0
  3  1  1  0  0  0  0
  4  9  1  0  0  0  0
  4  1  1  0  0  0  0
  5  4  2  0  0  0  0
  6  7  2  0  0  0  0
  6  5  1  0  0  0  0
  7  8  1  0  0  0  0
  8 12  1  0  0  0  0
  8  9  2  0  0  0  0
 10  5  1  0  0  0  0
 11  6  1  0  0  0  0
 12 18  1  0  0  0  0
 13 14  1  0  0  0  0
 13 12  1  0  0  0  0
 14 15  1  0  0  0  0
 15 16  1  0  0  0  0
 15 17  1  0  0  0  0
 18 17  1  0  0  0  0
 19 22  1  0  0  0  0
 19 20  1  0  0  0  0
 21 19  1  0  0  0  0
 22 23  1  0  0  0  0
 23 24  2  0  0  0  0
 23 27  1  0  0  0  0
 24 28  1  0  0  0  0
 25 24  1  0  0  0  0
 26 22  2  0  0  0  0
 26 25  1  0  0  0  0
 29 25  1  0  0  0  0
 29 30  1  0  0  0  0
 31 29  1  0  0  0  0
 32 29  1  0  0  0  0
M  END
>  <minimizedAffinity>
-5.42242146

$$$$

 OpenBabel03272500283D

 32 34  0  0  0  0  0  0  0  0999 V2000
   35.7080   26.3630   31.1860 C   0  0  0  0  0  0  0  0  0  0  0  0
   34.8320   26.6570   31.8370 H   0  0  0  0  0  0  0  0  0  0  0  0
   35.2120   26.2100   30.1830 H   0  0  0  0  0  0  0  0  0  0  0  0
   36.2000   25.1100   31.6660 C   0  0  0  0  0  0  0  0  0  0  0  0
   35.8410   23.9610   31.0380 C   0  0  0  0  0  0  0  0  0  0  0  0
   36.2900   22.6980   31.4600 C   0  0  0  0  0  0  0  0  0  0  0  0
   37.1280   22.7260   32.5690 N   0  0  0  0  0  0  0  0  0  0  0  0
   37.4640   23.8790   33.1670 C   0  0  0  0  0  0  0  0  0  0  0  0
   36.9970   25.0500   32.7080 N   0  0  0  0  0  0  0  0  0  0  0  0
   35.2000   23.8550   30.1770 H   0  0  0  0  0  0  0  0  0  0  0  0
   36.0290   21.7590   30.9910 H   0  0  0  0  0  0  0  0  0  0  0  0
   38.3230   23.8880   34.2990 N   0  0  0  0  0  0  0  0  0  0  0  0
   38.8870   22.7130   34.8840 C   0  0  0  0  0  2  0  0  0  0  0  0
   39.3380   22.9070   36.3050 C   0  0  0  0  0  2  0  0  0  0  0  0
   38.5440   23.8960   37.0810 C   0  0  0  0  0  3  0  0  0  0  0  0
   39.2160   24.2740   37.9030 H   0  0  0  0  0  0  0  0  0  0  0  0
   38.0430   25.0760   36.3230 C   0  0  0  0  0  2  0  0  0  0  0  0
   38.7070   25.1110   34.9730 C   0  0  0  0  0  2  0  0  0  0  0  0
   36.5920   27.5210   31.0360 C   0  0  0  0  0  0  0  0  0  0  0  0
   37.6610   27.2740   31.3050 H   0  0  0  0  0  0  0  0  0  0  0  0
   36.6560   27.8170   29.9690 H   0  0  0  0  0  0  0  0  0  0  0  0
   36.2500   28.6980   31.8580 C   0  0  0  0  0  0  0  0  0  0  0  0
   36.1420   29.9490   31.2720 C   0  0  0  0  0  0  0  0  0  0  0  0
   35.8210   30.8390   32.2610 C   0  0  0  0  0  0  0  0  0  0  0  0
   35.7360   30.1440   33.4070 N   0  0  0  0  0  0  0  0  0  0  0  0
   35.9940   28.8740   33.1500 N   0  0  0  0  0  0  0  0  0  0  0  0
   36.2770   30.2340   30.2340 H   0  0  0  0  0  0  0  0  0  0  0  0
   35.6430   31.9160   32.2390 H   0  0  0  0  0  0  0  0  0  0  0  0
   35.4170   30.6660   34.7350 C   0  0  0  0  0  0  0  0  0  0  0  0
   34.2540   30.1170   35.1990 F   0  0  0  0  0  0  0  0  0  0  0  0
   35.3110   32.0360   34.7510 F   0  0  0  0  0  0  0  0  0  0  0  0
   36.4120   30.3000   35.6400 F   0  0  0  0  0  0  0  0  0  0  0  0
  1  4  1  0  0  0  0
  1  2  1  0  0  0  0
  3  1  1  0  0  0  0
  4  9  1  0  0  0  0
  5  6  1  0  0  0  0
  5  4  2  0  0  0  0
  6  7  2  0  0  0  0
  7  8  1  0  0  0  0
  8 12  1  0  0  0  0
  9  8  2  0  0  0  0
 10  5  1  0  0  0  0
 11  6  1  0  0  0  0
 12 13  1  0  0  0  0
 12 18  1  0  0  0  0
 13 14  1  0  0  0  0
 14 15  1  0  0  0  0
 15 16  1  0  0  0  0
 17 15  1  0  0  0  0
 18 17  1  0  0  0  0
 19  1  1  0  0  0  0
 19 20  1  0  0  0  0
 19 22  1  0  0  0  0
 21 19  1  0  0  0  0
 22 26  2  0  0  0  0
 23 22  1  0  0  0  0
 23 24  2  0  0  0  0
 24 25  1  0  0  0  0
 25 29  1  0  0  0  0
 26 25  1  0  0  0  0
 27 23  1  0  0  0  0
 28 24  1  0  0  0  0
 29 31  1  0  0  0  0
 29 30  1  0  0  0  0
 29 32  1  0  0  0  0
M  END
>  <minimizedAffinity>
-5.33759403

$$$$
