
 OpenBabel03272510183D

 26 28  0  0  0  0  0  0  0  0999 V2000
   37.2540   28.9040   29.7470 Br  0  0  0  0  0  0  0  0  0  0  0  0
   36.4610   29.4910   31.3820 C   0  0  0  0  0  0  0  0  0  0  0  0
   36.0270   28.5740   32.3090 C   0  0  0  0  0  0  0  0  0  0  0  0
   35.4590   29.0730   33.4760 C   0  0  0  0  0  0  0  0  0  0  0  0
   35.3130   30.4130   33.7480 C   0  0  0  0  0  0  0  0  0  0  0  0
   35.7690   31.2930   32.7770 C   0  0  0  0  0  0  0  0  0  0  0  0
   36.3350   30.8250   31.6110 C   0  0  0  0  0  0  0  0  0  0  0  0
   35.1220   28.3170   34.1960 H   0  0  0  0  0  0  0  0  0  0  0  0
   35.6480   32.3430   33.0010 H   0  0  0  0  0  0  0  0  0  0  0  0
   36.6630   31.5940   30.9090 H   0  0  0  0  0  0  0  0  0  0  0  0
   37.3070   25.1640   32.5100 C   0  0  0  0  0  0  0  0  0  0  0  0
   36.4380   24.4270   31.6750 C   0  0  0  0  0  0  0  0  0  0  0  0
   35.4130   25.1200   31.0490 C   0  0  0  0  0  0  0  0  0  0  0  0
   35.2910   26.4650   31.2630 N   0  0  0  0  0  0  0  0  0  0  0  0
   36.1540   27.1400   32.0790 C   0  0  0  0  0  0  0  0  0  0  0  0
   37.1490   26.4800   32.6910 N   0  0  0  0  0  0  0  0  0  0  0  0
   38.0920   24.6060   32.9850 H   0  0  0  0  0  0  0  0  0  0  0  0
   36.5360   23.3690   31.5080 H   0  0  0  0  0  0  0  0  0  0  0  0
   34.6890   24.6630   30.3890 H   0  0  0  0  0  0  0  0  0  0  0  0
   34.7230   30.8810   34.9630 N   0  0  0  0  0  0  0  0  0  0  0  0
   33.4050   30.3420   35.2170 C   0  0  0  0  0  2  0  0  0  0  0  0
   32.7600   30.8010   36.4670 C   0  0  0  0  0  2  0  0  0  0  0  0
   33.3020   32.0890   37.0190 C   0  0  0  0  0  3  0  0  0  0  0  0
   32.9510   32.1440   38.0780 H   0  0  0  0  0  0  0  0  0  0  0  0
   34.8030   32.1390   37.0570 C   0  0  0  0  0  2  0  0  0  0  0  0
   35.4830   31.8110   35.7750 C   0  0  0  0  0  2  0  0  0  0  0  0
  1  2  1  0  0  0  0
  2  7  2  0  0  0  0
  2  3  1  0  0  0  0
  3  4  2  0  0  0  0
  4  5  1  0  0  0  0
  4  8  1  0  0  0  0
  5 20  1  0  0  0  0
  6  9  1  0  0  0  0
  6  5  2  0  0  0  0
  7  6  1  0  0  0  0
 10  7  1  0  0  0  0
 11 16  1  0  0  0  0
 11 17  1  0  0  0  0
 12 11  2  0  0  0  0
 13 14  2  0  0  0  0
 13 12  1  0  0  0  0
 14 15  1  0  0  0  0
 15  3  1  0  0  0  0
 15 16  2  0  0  0  0
 18 12  1  0  0  0  0
 19 13  1  0  0  0  0
 20 21  1  0  0  0  0
 20 26  1  0  0  0  0
 21 22  1  0  0  0  0
 22 23  1  0  0  0  0
 23 25  1  0  0  0  0
 23 24  1  0  0  0  0
 26 25  1  0  0  0  0
M  END
>  <minimizedAffinity>
-5.19263268

$$$$

 OpenBabel03272510183D

 26 28  0  0  0  0  0  0  0  0999 V2000
   39.2250   26.0350   34.5970 Br  0  0  0  0  0  0  0  0  0  0  0  0
   38.4460   24.4390   33.8940 C   0  0  0  0  0  0  0  0  0  0  0  0
   38.1480   23.3890   34.7280 C   0  0  0  0  0  0  0  0  0  0  0  0
   37.5840   22.2590   34.1460 C   0  0  0  0  0  0  0  0  0  0  0  0
   37.3100   22.1410   32.8030 C   0  0  0  0  0  0  0  0  0  0  0  0
   37.6320   23.2320   32.0100 C   0  0  0  0  0  0  0  0  0  0  0  0
   38.1930   24.3640   32.5600 C   0  0  0  0  0  0  0  0  0  0  0  0
   37.3570   21.4370   34.8360 H   0  0  0  0  0  0  0  0  0  0  0  0
   37.4130   23.1280   30.9560 H   0  0  0  0  0  0  0  0  0  0  0  0
   38.4100   25.1680   31.8560 H   0  0  0  0  0  0  0  0  0  0  0  0
   39.8590   22.9870   37.9240 C   0  0  0  0  0  0  0  0  0  0  0  0
   38.9640   23.5520   38.8600 C   0  0  0  0  0  0  0  0  0  0  0  0
   37.7740   24.0690   38.3730 C   0  0  0  0  0  0  0  0  0  0  0  0
   37.5210   24.0090   37.0300 N   0  0  0  0  0  0  0  0  0  0  0  0
   38.4140   23.4540   36.1600 C   0  0  0  0  0  0  0  0  0  0  0  0
   39.5700   22.9510   36.6180 N   0  0  0  0  0  0  0  0  0  0  0  0
   40.7750   22.5940   38.3240 H   0  0  0  0  0  0  0  0  0  0  0  0
   39.1650   23.5980   39.9160 H   0  0  0  0  0  0  0  0  0  0  0  0
   37.0140   24.5240   38.9930 H   0  0  0  0  0  0  0  0  0  0  0  0
   36.7280   20.9590   32.2490 N   0  0  0  0  0  0  0  0  0  0  0  0
   35.7750   20.3120   33.1220 C   0  0  0  0  0  2  0  0  0  0  0  0
   35.1490   19.0840   32.5840 C   0  0  0  0  0  2  0  0  0  0  0  0
   35.9190   18.4170   31.4780 C   0  0  0  0  0  3  0  0  0  0  0  0
   35.2040   17.7160   30.9840 H   0  0  0  0  0  0  0  0  0  0  0  0
   36.3920   19.3720   30.4200 C   0  0  0  0  0  2  0  0  0  0  0  0
   37.1450   20.5550   30.9200 C   0  0  0  0  0  2  0  0  0  0  0  0
  2  1  1  0  0  0  0
  2  3  1  0  0  0  0
  3 15  1  0  0  0  0
  4  3  2  0  0  0  0
  4  8  1  0  0  0  0
  5  4  1  0  0  0  0
  6  7  1  0  0  0  0
  6  5  2  0  0  0  0
  7  2  2  0  0  0  0
  9  6  1  0  0  0  0
 10  7  1  0  0  0  0
 11 17  1  0  0  0  0
 11 12  1  0  0  0  0
 12 18  1  0  0  0  0
 13 12  2  0  0  0  0
 13 19  1  0  0  0  0
 14 13  1  0  0  0  0
 15 16  1  0  0  0  0
 15 14  2  0  0  0  0
 16 11  2  0  0  0  0
 20  5  1  0  0  0  0
 20 21  1  0  0  0  0
 22 21  1  0  0  0  0
 23 22  1  0  0  0  0
 24 23  1  0  0  0  0
 25 26  1  0  0  0  0
 25 23  1  0  0  0  0
 26 20  1  0  0  0  0
M  END
>  <minimizedAffinity>
-5.07787752

$$$$

 OpenBabel03272510183D

 26 28  0  0  0  0  0  0  0  0999 V2000
   37.8610   26.9840   31.0610 Br  0  0  0  0  0  0  0  0  0  0  0  0
   36.9130   28.0500   32.3310 C   0  0  0  0  0  0  0  0  0  0  0  0
   37.0930   27.8470   33.6780 C   0  0  0  0  0  0  0  0  0  0  0  0
   36.3710   28.6600   34.5430 C   0  0  0  0  0  0  0  0  0  0  0  0
   35.5010   29.6420   34.1290 C   0  0  0  0  0  0  0  0  0  0  0  0
   35.3590   29.8030   32.7590 C   0  0  0  0  0  0  0  0  0  0  0  0
   36.0630   29.0100   31.8790 C   0  0  0  0  0  0  0  0  0  0  0  0
   36.5350   28.4740   35.6120 H   0  0  0  0  0  0  0  0  0  0  0  0
   34.6730   30.5770   32.4460 H   0  0  0  0  0  0  0  0  0  0  0  0
   35.8840   29.2120   30.8220 H   0  0  0  0  0  0  0  0  0  0  0  0
   40.1450   26.2560   34.8880 C   0  0  0  0  0  0  0  0  0  0  0  0
   39.7580   24.9180   35.1250 C   0  0  0  0  0  0  0  0  0  0  0  0
   38.4390   24.5800   34.8640 C   0  0  0  0  0  0  0  0  0  0  0  0
   37.5850   25.5390   34.3940 N   0  0  0  0  0  0  0  0  0  0  0  0
   38.0010   26.8210   34.1780 C   0  0  0  0  0  0  0  0  0  0  0  0
   39.2740   27.1620   34.4280 N   0  0  0  0  0  0  0  0  0  0  0  0
   41.1700   26.4960   35.0980 H   0  0  0  0  0  0  0  0  0  0  0  0
   40.4310   24.1660   35.4950 H   0  0  0  0  0  0  0  0  0  0  0  0
   38.0300   23.5890   35.0070 H   0  0  0  0  0  0  0  0  0  0  0  0
   34.7780   30.4550   35.0570 N   0  0  0  0  0  0  0  0  0  0  0  0
   35.6160   31.3350   35.8400 C   0  0  0  0  0  2  0  0  0  0  0  0
   34.9050   32.1950   36.8120 C   0  0  0  0  0  2  0  0  0  0  0  0
   33.5400   31.7040   37.2050 C   0  0  0  0  0  3  0  0  0  0  0  0
   33.0240   32.5740   37.6780 H   0  0  0  0  0  0  0  0  0  0  0  0
   32.6970   31.2820   36.0360 C   0  0  0  0  0  2  0  0  0  0  0  0
   33.3360   30.3110   35.1070 C   0  0  0  0  0  2  0  0  0  0  0  0
  1  2  1  0  0  0  0
  2  3  1  0  0  0  0
  3 15  1  0  0  0  0
  3  4  2  0  0  0  0
  4  8  1  0  0  0  0
  5  4  1  0  0  0  0
  5 20  1  0  0  0  0
  6  5  2  0  0  0  0
  7  2  2  0  0  0  0
  7  6  1  0  0  0  0
  9  6  1  0  0  0  0
 10  7  1  0  0  0  0
 11 17  1  0  0  0  0
 11 12  1  0  0  0  0
 12 18  1  0  0  0  0
 13 19  1  0  0  0  0
 13 12  2  0  0  0  0
 14 13  1  0  0  0  0
 15 14  2  0  0  0  0
 15 16  1  0  0  0  0
 16 11  2  0  0  0  0
 20 26  1  0  0  0  0
 20 21  1  0  0  0  0
 21 22  1  0  0  0  0
 22 23  1  0  0  0  0
 23 24  1  0  0  0  0
 25 23  1  0  0  0  0
 26 25  1  0  0  0  0
M  END
>  <minimizedAffinity>
-5.0718503

$$$$

 OpenBabel03272510183D

 26 28  0  0  0  0  0  0  0  0999 V2000
   36.1100   27.8460   31.8690 Br  0  0  0  0  0  0  0  0  0  0  0  0
   36.1300   25.9380   31.7840 C   0  0  0  0  0  0  0  0  0  0  0  0
   36.9640   25.2170   32.6040 C   0  0  0  0  0  0  0  0  0  0  0  0
   36.9260   23.8330   32.4870 C   0  0  0  0  0  0  0  0  0  0  0  0
   36.1100   23.1580   31.6080 C   0  0  0  0  0  0  0  0  0  0  0  0
   35.2910   23.9360   30.8050 C   0  0  0  0  0  0  0  0  0  0  0  0
   35.3090   25.3110   30.9000 C   0  0  0  0  0  0  0  0  0  0  0  0
   37.6010   23.2850   33.1550 H   0  0  0  0  0  0  0  0  0  0  0  0
   34.6560   23.3950   30.1180 H   0  0  0  0  0  0  0  0  0  0  0  0
   34.6290   25.8350   30.2270 H   0  0  0  0  0  0  0  0  0  0  0  0
   38.1760   26.7030   35.7070 C   0  0  0  0  0  0  0  0  0  0  0  0
   39.4890   27.1180   35.3930 C   0  0  0  0  0  0  0  0  0  0  0  0
   39.9440   26.8770   34.1070 C   0  0  0  0  0  0  0  0  0  0  0  0
   39.1140   26.2600   33.2110 N   0  0  0  0  0  0  0  0  0  0  0  0
   37.8510   25.8750   33.5560 C   0  0  0  0  0  0  0  0  0  0  0  0
   37.3990   26.1020   34.7990 N   0  0  0  0  0  0  0  0  0  0  0  0
   37.8450   26.8980   36.7100 H   0  0  0  0  0  0  0  0  0  0  0  0
   40.1400   27.6020   36.0990 H   0  0  0  0  0  0  0  0  0  0  0  0
   40.9280   27.1490   33.7520 H   0  0  0  0  0  0  0  0  0  0  0  0
   36.1050   21.7310   31.5220 N   0  0  0  0  0  0  0  0  0  0  0  0
   34.9890   21.1080   32.1980 C   0  0  0  0  0  2  0  0  0  0  0  0
   34.9460   19.6310   32.1310 C   0  0  0  0  0  2  0  0  0  0  0  0
   36.2660   18.9760   31.8320 C   0  0  0  0  0  3  0  0  0  0  0  0
   36.0280   17.9320   31.5160 H   0  0  0  0  0  0  0  0  0  0  0  0
   37.0050   19.6160   30.6910 C   0  0  0  0  0  2  0  0  0  0  0  0
   37.1820   21.0900   30.7930 C   0  0  0  0  0  2  0  0  0  0  0  0
  2  1  1  0  0  0  0
  2  3  1  0  0  0  0
  3 15  1  0  0  0  0
  4  3  2  0  0  0  0
  4  8  1  0  0  0  0
  5  4  1  0  0  0  0
  6  7  1  0  0  0  0
  6  5  2  0  0  0  0
  7  2  2  0  0  0  0
  9  6  1  0  0  0  0
 10  7  1  0  0  0  0
 11 17  1  0  0  0  0
 12 11  1  0  0  0  0
 12 18  1  0  0  0  0
 13 12  2  0  0  0  0
 14 15  2  0  0  0  0
 14 13  1  0  0  0  0
 15 16  1  0  0  0  0
 16 11  2  0  0  0  0
 19 13  1  0  0  0  0
 20  5  1  0  0  0  0
 20 21  1  0  0  0  0
 22 21  1  0  0  0  0
 23 22  1  0  0  0  0
 24 23  1  0  0  0  0
 25 26  1  0  0  0  0
 25 23  1  0  0  0  0
 26 20  1  0  0  0  0
M  END
>  <minimizedAffinity>
-5.06834555

$$$$

 OpenBabel03272510183D

 26 28  0  0  0  0  0  0  0  0999 V2000
   35.3670   31.1320   31.9250 Br  0  0  0  0  0  0  0  0  0  0  0  0
   36.0430   29.5060   32.6640 C   0  0  0  0  0  0  0  0  0  0  0  0
   35.9070   29.2470   34.0070 C   0  0  0  0  0  0  0  0  0  0  0  0
   36.4240   28.0440   34.4740 C   0  0  0  0  0  0  0  0  0  0  0  0
   37.0510   27.1150   33.6770 C   0  0  0  0  0  0  0  0  0  0  0  0
   37.1590   27.4300   32.3310 C   0  0  0  0  0  0  0  0  0  0  0  0
   36.6570   28.6150   31.8410 C   0  0  0  0  0  0  0  0  0  0  0  0
   36.3010   27.8650   35.5490 H   0  0  0  0  0  0  0  0  0  0  0  0
   37.6550   26.6920   31.7150 H   0  0  0  0  0  0  0  0  0  0  0  0
   36.7900   28.7720   30.7700 H   0  0  0  0  0  0  0  0  0  0  0  0
   33.2730   30.9750   35.8440 C   0  0  0  0  0  0  0  0  0  0  0  0
   33.9660   31.9590   36.5840 C   0  0  0  0  0  0  0  0  0  0  0  0
   35.3430   32.0130   36.4400 C   0  0  0  0  0  0  0  0  0  0  0  0
   35.9610   31.1280   35.6000 N   0  0  0  0  0  0  0  0  0  0  0  0
   35.2520   30.1920   34.9020 C   0  0  0  0  0  0  0  0  0  0  0  0
   33.9180   30.1280   35.0340 N   0  0  0  0  0  0  0  0  0  0  0  0
   32.2070   30.9510   35.9720 H   0  0  0  0  0  0  0  0  0  0  0  0
   33.4780   32.6540   37.2440 H   0  0  0  0  0  0  0  0  0  0  0  0
   35.9770   32.7220   36.9540 H   0  0  0  0  0  0  0  0  0  0  0  0
   37.5670   25.8900   34.2030 N   0  0  0  0  0  0  0  0  0  0  0  0
   37.8150   25.9230   35.6270 C   0  0  0  0  0  2  0  0  0  0  0  0
   38.3490   24.6730   36.2110 C   0  0  0  0  0  2  0  0  0  0  0  0
   39.0150   23.7530   35.2260 C   0  0  0  0  0  3  0  0  0  0  0  0
   39.0860   22.7600   35.7300 H   0  0  0  0  0  0  0  0  0  0  0  0
   38.2190   23.5460   33.9690 C   0  0  0  0  0  2  0  0  0  0  0  0
   37.7780   24.7900   33.2820 C   0  0  0  0  0  2  0  0  0  0  0  0
  1  2  1  0  0  0  0
  2  3  1  0  0  0  0
  3  4  2  0  0  0  0
  3 15  1  0  0  0  0
  4  8  1  0  0  0  0
  5 20  1  0  0  0  0
  5  4  1  0  0  0  0
  6  5  2  0  0  0  0
  7  6  1  0  0  0  0
  7  2  2  0  0  0  0
  9  6  1  0  0  0  0
 10  7  1  0  0  0  0
 11 17  1  0  0  0  0
 11 12  1  0  0  0  0
 12 18  1  0  0  0  0
 13 12  2  0  0  0  0
 13 19  1  0  0  0  0
 14 13  1  0  0  0  0
 15 16  1  0  0  0  0
 15 14  2  0  0  0  0
 16 11  2  0  0  0  0
 20 21  1  0  0  0  0
 21 22  1  0  0  0  0
 23 24  1  0  0  0  0
 23 22  1  0  0  0  0
 25 23  1  0  0  0  0
 26 25  1  0  0  0  0
 26 20  1  0  0  0  0
M  END
>  <minimizedAffinity>
-4.98992157

$$$$

 OpenBabel03272510183D

 26 28  0  0  0  0  0  0  0  0999 V2000
   35.1810   31.2810   31.9470 Br  0  0  0  0  0  0  0  0  0  0  0  0
   35.9050   29.6780   32.6920 C   0  0  0  0  0  0  0  0  0  0  0  0
   35.8000   29.4330   34.0400 C   0  0  0  0  0  0  0  0  0  0  0  0
   36.3500   28.2460   34.5120 C   0  0  0  0  0  0  0  0  0  0  0  0
   36.9810   27.3200   33.7130 C   0  0  0  0  0  0  0  0  0  0  0  0
   37.0570   27.6200   32.3620 C   0  0  0  0  0  0  0  0  0  0  0  0
   36.5210   28.7890   31.8670 C   0  0  0  0  0  0  0  0  0  0  0  0
   36.2520   28.0780   35.5910 H   0  0  0  0  0  0  0  0  0  0  0  0
   37.5550   26.8860   31.7450 H   0  0  0  0  0  0  0  0  0  0  0  0
   36.6300   28.9360   30.7920 H   0  0  0  0  0  0  0  0  0  0  0  0
   35.3430   32.1570   36.4220 C   0  0  0  0  0  0  0  0  0  0  0  0
   33.9490   32.1800   36.6460 C   0  0  0  0  0  0  0  0  0  0  0  0
   33.1780   31.2500   35.9660 C   0  0  0  0  0  0  0  0  0  0  0  0
   33.7910   30.3640   35.1240 N   0  0  0  0  0  0  0  0  0  0  0  0
   35.1430   30.3760   34.9370 C   0  0  0  0  0  0  0  0  0  0  0  0
   35.9010   31.2710   35.5880 N   0  0  0  0  0  0  0  0  0  0  0  0
   35.9210   32.8860   36.9580 H   0  0  0  0  0  0  0  0  0  0  0  0
   33.4690   32.8780   37.3090 H   0  0  0  0  0  0  0  0  0  0  0  0
   32.1030   31.1730   36.0580 H   0  0  0  0  0  0  0  0  0  0  0  0
   37.5320   26.1120   34.2440 N   0  0  0  0  0  0  0  0  0  0  0  0
   37.7790   26.1580   35.6670 C   0  0  0  0  0  2  0  0  0  0  0  0
   38.3490   24.9260   36.2560 C   0  0  0  0  0  2  0  0  0  0  0  0
   39.0410   24.0220   35.2750 C   0  0  0  0  0  3  0  0  0  0  0  0
   39.1400   23.0330   35.7820 H   0  0  0  0  0  0  0  0  0  0  0  0
   38.2510   23.7870   34.0180 C   0  0  0  0  0  2  0  0  0  0  0  0
   37.7750   25.0150   33.3270 C   0  0  0  0  0  2  0  0  0  0  0  0
  1  2  1  0  0  0  0
  2  3  1  0  0  0  0
  3  4  2  0  0  0  0
  3 15  1  0  0  0  0
  4  8  1  0  0  0  0
  5 20  1  0  0  0  0
  5  4  1  0  0  0  0
  6  5  2  0  0  0  0
  7  6  1  0  0  0  0
  7  2  2  0  0  0  0
  9  6  1  0  0  0  0
 10  7  1  0  0  0  0
 11 12  1  0  0  0  0
 11 17  1  0  0  0  0
 12 18  1  0  0  0  0
 13 19  1  0  0  0  0
 13 12  2  0  0  0  0
 14 13  1  0  0  0  0
 15 14  2  0  0  0  0
 15 16  1  0  0  0  0
 16 11  2  0  0  0  0
 20 21  1  0  0  0  0
 21 22  1  0  0  0  0
 23 24  1  0  0  0  0
 23 22  1  0  0  0  0
 25 23  1  0  0  0  0
 26 25  1  0  0  0  0
 26 20  1  0  0  0  0
M  END
>  <minimizedAffinity>
-4.9845252

$$$$

 OpenBabel03272510183D

 26 28  0  0  0  0  0  0  0  0999 V2000
   35.2350   31.2150   31.9510 Br  0  0  0  0  0  0  0  0  0  0  0  0
   35.9590   29.6060   32.6800 C   0  0  0  0  0  0  0  0  0  0  0  0
   35.8450   29.3420   34.0240 C   0  0  0  0  0  0  0  0  0  0  0  0
   36.3960   28.1520   34.4850 C   0  0  0  0  0  0  0  0  0  0  0  0
   37.0370   27.2390   33.6800 C   0  0  0  0  0  0  0  0  0  0  0  0
   37.1220   27.5570   32.3330 C   0  0  0  0  0  0  0  0  0  0  0  0
   36.5850   28.7300   31.8490 C   0  0  0  0  0  0  0  0  0  0  0  0
   36.2900   27.9700   35.5610 H   0  0  0  0  0  0  0  0  0  0  0  0
   37.6280   26.8320   31.7100 H   0  0  0  0  0  0  0  0  0  0  0  0
   36.7020   28.8910   30.7770 H   0  0  0  0  0  0  0  0  0  0  0  0
   35.3610   32.0230   36.4500 C   0  0  0  0  0  0  0  0  0  0  0  0
   33.9630   32.0480   36.6520 C   0  0  0  0  0  0  0  0  0  0  0  0
   33.1990   31.1350   35.9420 C   0  0  0  0  0  0  0  0  0  0  0  0
   33.8220   30.2620   35.0930 N   0  0  0  0  0  0  0  0  0  0  0  0
   35.1780   30.2710   34.9280 C   0  0  0  0  0  0  0  0  0  0  0  0
   35.9280   31.1510   35.6080 N   0  0  0  0  0  0  0  0  0  0  0  0
   35.9320   32.7400   37.0090 H   0  0  0  0  0  0  0  0  0  0  0  0
   33.4750   32.7360   37.3190 H   0  0  0  0  0  0  0  0  0  0  0  0
   32.1230   31.0610   36.0150 H   0  0  0  0  0  0  0  0  0  0  0  0
   37.5890   26.0260   34.1990 N   0  0  0  0  0  0  0  0  0  0  0  0
   37.7760   24.9960   33.2020 C   0  0  0  0  0  2  0  0  0  0  0  0
   38.3470   23.7250   33.6990 C   0  0  0  0  0  2  0  0  0  0  0  0
   38.1860   23.4970   35.1760 C   0  0  0  0  0  3  0  0  0  0  0  0
   38.9060   22.6870   35.4440 H   0  0  0  0  0  0  0  0  0  0  0  0
   38.5500   24.6930   36.0080 C   0  0  0  0  0  2  0  0  0  0  0  0
   37.8870   25.9670   35.6160 C   0  0  0  0  0  2  0  0  0  0  0  0
  1  2  1  0  0  0  0
  2  3  1  0  0  0  0
  3  4  2  0  0  0  0
  3 15  1  0  0  0  0
  4  8  1  0  0  0  0
  5 20  1  0  0  0  0
  5  4  1  0  0  0  0
  6  5  2  0  0  0  0
  7  6  1  0  0  0  0
  7  2  2  0  0  0  0
  9  6  1  0  0  0  0
 10  7  1  0  0  0  0
 11 12  1  0  0  0  0
 11 17  1  0  0  0  0
 12 18  1  0  0  0  0
 13 19  1  0  0  0  0
 13 12  2  0  0  0  0
 14 13  1  0  0  0  0
 15 14  2  0  0  0  0
 15 16  1  0  0  0  0
 16 11  2  0  0  0  0
 20 26  1  0  0  0  0
 21 22  1  0  0  0  0
 21 20  1  0  0  0  0
 22 23  1  0  0  0  0
 23 24  1  0  0  0  0
 23 25  1  0  0  0  0
 26 25  1  0  0  0  0
M  END
>  <minimizedAffinity>
-4.97536945

$$$$

 OpenBabel03272510183D

 26 28  0  0  0  0  0  0  0  0999 V2000
   35.6540   32.6600   32.1260 Br  0  0  0  0  0  0  0  0  0  0  0  0
   35.8100   30.7570   32.0860 C   0  0  0  0  0  0  0  0  0  0  0  0
   35.4620   30.0100   33.1860 C   0  0  0  0  0  0  0  0  0  0  0  0
   35.6020   28.6310   33.0850 C   0  0  0  0  0  0  0  0  0  0  0  0
   36.0610   27.9850   31.9610 C   0  0  0  0  0  0  0  0  0  0  0  0
   36.3970   28.7880   30.8820 C   0  0  0  0  0  0  0  0  0  0  0  0
   36.2690   30.1580   30.9540 C   0  0  0  0  0  0  0  0  0  0  0  0
   35.3160   28.0620   33.9790 H   0  0  0  0  0  0  0  0  0  0  0  0
   36.7570   28.2690   30.0040 H   0  0  0  0  0  0  0  0  0  0  0  0
   36.5580   30.7030   30.0550 H   0  0  0  0  0  0  0  0  0  0  0  0
   35.4580   31.7220   36.4070 C   0  0  0  0  0  0  0  0  0  0  0  0
   34.0880   31.8320   36.7300 C   0  0  0  0  0  0  0  0  0  0  0  0
   33.1750   31.3130   35.8260 C   0  0  0  0  0  0  0  0  0  0  0  0
   33.6340   30.7230   34.6800 N   0  0  0  0  0  0  0  0  0  0  0  0
   34.9690   30.6370   34.4070 C   0  0  0  0  0  0  0  0  0  0  0  0
   35.8630   31.1370   35.2730 N   0  0  0  0  0  0  0  0  0  0  0  0
   36.1470   32.1320   37.1220 H   0  0  0  0  0  0  0  0  0  0  0  0
   33.7290   32.2960   37.6320 H   0  0  0  0  0  0  0  0  0  0  0  0
   32.1030   31.3390   35.9650 H   0  0  0  0  0  0  0  0  0  0  0  0
   36.1880   26.5620   31.9030 N   0  0  0  0  0  0  0  0  0  0  0  0
   37.2370   26.0340   32.7470 C   0  0  0  0  0  2  0  0  0  0  0  0
   37.4010   24.5640   32.7160 C   0  0  0  0  0  2  0  0  0  0  0  0
   36.8370   23.8930   31.4950 C   0  0  0  0  0  3  0  0  0  0  0  0
   36.7580   22.8090   31.7470 H   0  0  0  0  0  0  0  0  0  0  0  0
   35.4520   24.3580   31.1430 C   0  0  0  0  0  2  0  0  0  0  0  0
   35.2840   25.8330   31.0350 C   0  0  0  0  0  2  0  0  0  0  0  0
  2  1  1  0  0  0  0
  2  3  1  0  0  0  0
  3 15  1  0  0  0  0
  4  3  2  0  0  0  0
  4  8  1  0  0  0  0
  5  4  1  0  0  0  0
  6  7  1  0  0  0  0
  6  5  2  0  0  0  0
  7  2  2  0  0  0  0
  9  6  1  0  0  0  0
 10  7  1  0  0  0  0
 11 12  1  0  0  0  0
 11 17  1  0  0  0  0
 12 18  1  0  0  0  0
 13 19  1  0  0  0  0
 13 12  2  0  0  0  0
 14 13  1  0  0  0  0
 15 14  2  0  0  0  0
 15 16  1  0  0  0  0
 16 11  2  0  0  0  0
 20  5  1  0  0  0  0
 20 21  1  0  0  0  0
 22 21  1  0  0  0  0
 23 24  1  0  0  0  0
 23 22  1  0  0  0  0
 25 23  1  0  0  0  0
 26 25  1  0  0  0  0
 26 20  1  0  0  0  0
M  END
>  <minimizedAffinity>
-4.90016174

$$$$

 OpenBabel03272510183D

 26 28  0  0  0  0  0  0  0  0999 V2000
   39.3320   27.2500   30.6870 Br  0  0  0  0  0  0  0  0  0  0  0  0
   38.4450   25.5690   30.8730 C   0  0  0  0  0  0  0  0  0  0  0  0
   37.3320   25.4580   31.6720 C   0  0  0  0  0  0  0  0  0  0  0  0
   36.7390   24.2040   31.7600 C   0  0  0  0  0  0  0  0  0  0  0  0
   37.1980   23.0880   31.1000 C   0  0  0  0  0  0  0  0  0  0  0  0
   38.3240   23.2590   30.3090 C   0  0  0  0  0  0  0  0  0  0  0  0
   38.9320   24.4910   30.2030 C   0  0  0  0  0  0  0  0  0  0  0  0
   35.8530   24.1460   32.4050 H   0  0  0  0  0  0  0  0  0  0  0  0
   38.6760   22.3750   29.7950 H   0  0  0  0  0  0  0  0  0  0  0  0
   39.8100   24.5250   29.5580 H   0  0  0  0  0  0  0  0  0  0  0  0
   36.7300   27.8380   34.3700 C   0  0  0  0  0  0  0  0  0  0  0  0
   35.8150   28.7580   33.8120 C   0  0  0  0  0  0  0  0  0  0  0  0
   35.4150   28.5450   32.5020 C   0  0  0  0  0  0  0  0  0  0  0  0
   35.9140   27.4700   31.8190 N   0  0  0  0  0  0  0  0  0  0  0  0
   36.7980   26.6040   32.3970 C   0  0  0  0  0  0  0  0  0  0  0  0
   37.1940   26.8000   33.6640 N   0  0  0  0  0  0  0  0  0  0  0  0
   37.0270   28.0240   35.3850 H   0  0  0  0  0  0  0  0  0  0  0  0
   35.4240   29.6020   34.3510 H   0  0  0  0  0  0  0  0  0  0  0  0
   34.7200   29.1800   31.9710 H   0  0  0  0  0  0  0  0  0  0  0  0
   36.5550   21.8170   31.2210 N   0  0  0  0  0  0  0  0  0  0  0  0
   35.3470   21.8460   32.0150 C   0  0  0  0  0  2  0  0  0  0  0  0
   34.6500   20.5500   32.1630 C   0  0  0  0  0  2  0  0  0  0  0  0
   35.5100   19.3410   31.9200 C   0  0  0  0  0  3  0  0  0  0  0  0
   34.8070   18.4880   31.7670 H   0  0  0  0  0  0  0  0  0  0  0  0
   36.3460   19.4430   30.6760 C   0  0  0  0  0  2  0  0  0  0  0  0
   37.1640   20.6800   30.5590 C   0  0  0  0  0  2  0  0  0  0  0  0
  1  2  1  0  0  0  0
  2  3  1  0  0  0  0
  3  4  2  0  0  0  0
  3 15  1  0  0  0  0
  4  8  1  0  0  0  0
  5 20  1  0  0  0  0
  5  4  1  0  0  0  0
  6  5  2  0  0  0  0
  7  6  1  0  0  0  0
  7  2  2  0  0  0  0
  9  6  1  0  0  0  0
 10  7  1  0  0  0  0
 11 17  1  0  0  0  0
 12 18  1  0  0  0  0
 12 11  1  0  0  0  0
 13 12  2  0  0  0  0
 14 15  2  0  0  0  0
 14 13  1  0  0  0  0
 15 16  1  0  0  0  0
 16 11  2  0  0  0  0
 19 13  1  0  0  0  0
 20 21  1  0  0  0  0
 21 22  1  0  0  0  0
 23 22  1  0  0  0  0
 24 23  1  0  0  0  0
 25 23  1  0  0  0  0
 26 25  1  0  0  0  0
 26 20  1  0  0  0  0
M  END
>  <minimizedAffinity>
-4.81177521

$$$$
