
 OpenBabel03272500253D

 32 34  0  0  0  0  0  0  0  0999 V2000
   39.7570   31.1970   46.2020 C   0  0  0  0  0  0  0  0  0  0  0  0
   40.8420   31.1380   46.5140 H   0  0  0  0  0  0  0  0  0  0  0  0
   39.4250   30.1230   46.3090 H   0  0  0  0  0  0  0  0  0  0  0  0
   39.7250   31.5650   44.8220 C   0  0  0  0  0  0  0  0  0  0  0  0
   39.1230   32.7230   44.4480 C   0  0  0  0  0  0  0  0  0  0  0  0
   39.0560   33.1410   43.1080 C   0  0  0  0  0  0  0  0  0  0  0  0
   39.6560   32.2740   42.2030 N   0  0  0  0  0  0  0  0  0  0  0  0
   40.2440   31.1350   42.6040 C   0  0  0  0  0  0  0  0  0  0  0  0
   40.2690   30.8000   43.9040 N   0  0  0  0  0  0  0  0  0  0  0  0
   38.6380   33.4470   45.0840 H   0  0  0  0  0  0  0  0  0  0  0  0
   38.5870   34.0540   42.7660 H   0  0  0  0  0  0  0  0  0  0  0  0
   40.8520   30.2600   41.6660 N   0  0  0  0  0  0  0  0  0  0  0  0
   40.8950   30.5030   40.2580 C   0  0  0  0  0  0  0  0  0  0  0  0
   41.1370   29.2620   39.4430 C   0  0  0  0  0  0  0  0  0  0  0  0
   40.5880   28.0120   40.0340 C   0  0  0  0  0  0  0  0  0  0  0  0
   41.1980   27.1630   39.6110 H   0  0  0  0  0  0  0  0  0  0  0  0
   40.6370   27.9110   41.5190 C   0  0  0  0  0  0  0  0  0  0  0  0
   41.4950   29.0230   42.0590 C   0  0  0  0  0  0  0  0  0  0  0  0
   39.0190   31.9590   47.2110 C   0  0  0  0  0  0  0  0  0  0  0  0
   39.7090   32.5400   47.8910 H   0  0  0  0  0  0  0  0  0  0  0  0
   38.4110   32.7500   46.7240 H   0  0  0  0  0  0  0  0  0  0  0  0
   38.1660   31.1640   48.1150 C   0  0  0  0  0  0  0  0  0  0  0  0
   36.9860   30.6060   47.6480 C   0  0  0  0  0  0  0  0  0  0  0  0
   36.4080   29.9340   48.6920 C   0  0  0  0  0  0  0  0  0  0  0  0
   37.2170   30.0810   49.7540 N   0  0  0  0  0  0  0  0  0  0  0  0
   38.2550   30.8150   49.3940 N   0  0  0  0  0  0  0  0  0  0  0  0
   36.5480   30.6580   46.6570 H   0  0  0  0  0  0  0  0  0  0  0  0
   35.4840   29.3590   48.7620 H   0  0  0  0  0  0  0  0  0  0  0  0
   37.0180   29.5410   51.0970 C   0  0  0  0  0  0  0  0  0  0  0  0
   37.8180   28.4500   51.2990 F   0  0  0  0  0  0  0  0  0  0  0  0
   35.7100   29.1950   51.3370 F   0  0  0  0  0  0  0  0  0  0  0  0
   37.3960   30.4850   52.0500 F   0  0  0  0  0  0  0  0  0  0  0  0
  1  3  1  0  0  0  0
  1  2  1  0  0  0  0
  1 19  1  0  0  0  0
  4  1  1  0  0  0  0
  5  4  1  0  0  0  0
  5 10  1  0  0  0  0
  6  5  2  0  0  0  0
  7  8  2  0  0  0  0
  7  6  1  0  0  0  0
  8  9  1  0  0  0  0
  9  4  2  0  0  0  0
 11  6  1  0  0  0  0
 12 18  1  0  0  0  0
 12  8  1  0  0  0  0
 13 12  1  0  0  0  0
 14 15  1  0  0  0  0
 14 13  1  0  0  0  0
 15 17  1  0  0  0  0
 16 15  1  0  0  0  0
 17 18  1  0  0  0  0
 19 20  1  0  0  0  0
 19 22  1  0  0  0  0
 21 19  1  0  0  0  0
 22 26  2  0  0  0  0
 23 22  1  0  0  0  0
 23 24  2  0  0  0  0
 24 28  1  0  0  0  0
 24 25  1  0  0  0  0
 25 29  1  0  0  0  0
 26 25  1  0  0  0  0
 27 23  1  0  0  0  0
 29 30  1  0  0  0  0
 29 31  1  0  0  0  0
 29 32  1  0  0  0  0
M  END
>  <minimizedAffinity>
-6.3718152

>  <minimizedRMSD>
0.495424598

$$$$
