
 OpenBabel03272501453D

 45 49  0  0  1  0  0  0  0  0999 V2000
   31.1970   27.0050   47.7780 C   0  0  0  0  0  0  0  0  0  0  0  0
   31.4070   26.3210   46.9500 H   0  0  0  0  0  0  0  0  0  0  0  0
   31.0910   26.4140   48.7200 H   0  0  0  0  0  0  0  0  0  0  0  0
   29.9130   27.7550   47.5410 C   0  0  1  0  0  0  0  0  0  0  0  0
   29.6330   27.7070   46.0520 C   0  0  0  0  0  0  0  0  0  0  0  0
   28.3340   26.9770   45.8470 C   0  0  0  0  0  0  0  0  0  0  0  0
   28.1650   26.1690   47.0860 C   0  0  0  0  0  0  0  0  0  0  0  0
   28.7310   27.0700   48.1620 C   0  0  2  0  0  0  0  0  0  0  0  0
   30.0810   28.7830   47.9040 H   0  0  0  0  0  0  0  0  0  0  0  0
   30.4200   27.1690   45.4890 H   0  0  0  0  0  0  0  0  0  0  0  0
   29.6010   28.7210   45.6010 H   0  0  0  0  0  0  0  0  0  0  0  0
   28.4050   26.3170   44.9420 H   0  0  0  0  0  0  0  0  0  0  0  0
   27.4920   27.6790   45.7130 H   0  0  0  0  0  0  0  0  0  0  0  0
   28.7890   25.2490   47.0370 H   0  0  0  0  0  0  0  0  0  0  0  0
   27.0930   25.9180   47.2990 H   0  0  0  0  0  0  0  0  0  0  0  0
   29.1700   26.3670   48.9360 H   0  0  0  0  0  0  0  0  0  0  0  0
   27.7950   27.8750   48.8020 N   0  0  0  0  0  0  0  0  0  0  0  0
   26.4260   27.5650   48.7960 C   0  0  0  0  0  0  0  0  0  0  0  0
   25.5810   28.7870   49.1740 C   0  0  0  0  0  0  0  0  0  0  0  0
   26.2830   30.0850   48.8440 C   0  0  0  0  0  0  0  0  0  0  0  0
   26.3370   30.2320   47.7390 H   0  0  0  0  0  0  0  0  0  0  0  0
   27.6060   30.2110   49.5280 C   0  0  0  0  0  0  0  0  0  0  0  0
   28.2280   28.8470   49.7360 C   0  0  0  0  0  0  0  0  0  0  0  0
   34.0030   28.9390   49.2360 C   0  0  0  0  0  0  0  0  0  0  0  0
   34.5160   29.6200   48.1300 C   0  0  0  0  0  0  0  0  0  0  0  0
   33.8880   29.4010   46.9040 C   0  0  0  0  0  0  0  0  0  0  0  0
   32.8380   28.5610   46.8430 N   0  0  0  0  0  0  0  0  0  0  0  0
   32.3640   27.9130   47.9460 C   0  0  0  0  0  0  0  0  0  0  0  0
   32.9580   28.1160   49.1220 N   0  0  0  0  0  0  0  0  0  0  0  0
   34.3910   29.0150   50.2420 H   0  0  0  0  0  0  0  0  0  0  0  0
   34.2950   29.9350   46.0600 H   0  0  0  0  0  0  0  0  0  0  0  0
   35.8810   30.8670   49.6850 C   0  0  0  0  0  0  0  0  0  0  0  0
   35.6440   30.4810   48.3710 C   0  0  0  0  0  0  0  0  0  0  0  0
   36.5240   30.9680   47.4290 C   0  0  0  0  0  0  0  0  0  0  0  0
   37.5780   31.7980   47.8150 C   0  0  0  0  0  0  0  0  0  0  0  0
   38.5490   32.3900   47.1110 N   0  0  0  0  0  0  0  0  0  0  0  0
   39.3280   33.0890   47.9220 C   0  0  0  0  0  0  0  0  0  0  0  0
   38.8550   32.9510   49.1890 N   0  0  0  0  0  0  0  0  0  0  0  0
   37.7750   32.1540   49.1210 C   0  0  0  0  0  0  0  0  0  0  0  0
   36.9140   31.6820   50.0730 C   0  0  0  0  0  0  0  0  0  0  0  0
   35.2200   30.5150   50.4790 H   0  0  0  0  0  0  0  0  0  0  0  0
   36.3500   30.6750   46.4080 H   0  0  0  0  0  0  0  0  0  0  0  0
   38.6880   32.3240   46.0860 H   0  0  0  0  0  0  0  0  0  0  0  0
   40.2070   33.6970   47.7360 H   0  0  0  0  0  0  0  0  0  0  0  0
   37.0400   31.9430   51.1200 H   0  0  0  0  0  0  0  0  0  0  0  0
  1 28  1  0  0  0  0
  1  3  1  0  0  0  0
  2  1  1  0  0  0  0
  4  1  1  0  0  0  0
  4  9  1  1  0  0  0
  4  8  1  0  0  0  0
  5  4  1  0  0  0  0
  6  5  1  0  0  0  0
  6  7  1  0  0  0  0
  7 15  1  0  0  0  0
  7  8  1  0  0  0  0
  8 17  1  0  0  0  0
  8 16  1  1  0  0  0
 10  5  1  0  0  0  0
 11  5  1  0  0  0  0
 12  6  1  0  0  0  0
 13  6  1  0  0  0  0
 14  7  1  0  0  0  0
 17 23  1  0  0  0  0
 18 17  1  0  0  0  0
 18 19  1  0  0  0  0
 20 19  1  0  0  0  0
 20 22  1  0  0  0  0
 21 20  1  0  0  0  0
 22 23  1  0  0  0  0
 24 30  1  0  0  0  0
 25 33  1  0  0  0  0
 25 24  2  0  0  0  0
 26 25  1  0  0  0  0
 27 26  2  0  0  0  0
 27 28  1  0  0  0  0
 28 29  2  0  0  0  0
 29 24  1  0  0  0  0
 31 26  1  0  0  0  0
 32 40  1  0  0  0  0
 32 41  1  0  0  0  0
 33 32  2  0  0  0  0
 34 35  2  0  0  0  0
 34 33  1  0  0  0  0
 35 39  1  0  0  0  0
 36 35  1  0  0  0  0
 36 37  1  0  0  0  0
 37 38  2  0  0  0  0
 39 38  1  0  0  0  0
 39 40  2  0  0  0  0
 40 45  1  0  0  0  0
 42 34  1  0  0  0  0
 43 36  1  0  0  0  0
 44 37  1  0  0  0  0
M  END
>  <minimizedAffinity>
-7.24743032

>  <minimizedRMSD>
1.95208073

$$$$
