
 OpenBabel03272504513D

 23 25  0  0  0  0  0  0  0  0999 V2000
   36.8960   31.3280   49.2440 C   0  0  0  0  0  0  0  0  0  0  0  0
   37.2910   32.4650   49.9720 C   0  0  0  0  0  0  0  0  0  0  0  0
   38.1710   33.3260   49.3390 C   0  0  0  0  0  0  0  0  0  0  0  0
   38.5990   33.0350   48.0770 N   0  0  0  0  0  0  0  0  0  0  0  0
   38.2010   31.9300   47.3960 C   0  0  0  0  0  0  0  0  0  0  0  0
   37.3390   31.0730   47.9960 N   0  0  0  0  0  0  0  0  0  0  0  0
   36.9610   32.6950   50.9530 H   0  0  0  0  0  0  0  0  0  0  0  0
   38.5450   34.2410   49.8150 H   0  0  0  0  0  0  0  0  0  0  0  0
   38.6670   31.6580   46.0810 N   0  0  0  0  0  0  0  0  0  0  0  0
   39.6530   30.6480   45.8130 C   0  0  0  0  0  0  0  0  0  0  0  0
   40.8590   31.3860   45.2390 C   0  0  0  0  0  0  0  0  0  0  0  0
   40.3880   31.9950   43.9250 C   0  0  0  0  0  0  0  0  0  0  0  0
   40.0580   31.2040   43.2320 H   0  0  0  0  0  0  0  0  0  0  0  0
   39.2750   32.9600   44.1720 C   0  0  0  0  0  0  0  0  0  0  0  0
   38.1310   32.4240   44.9710 C   0  0  0  0  0  0  0  0  0  0  0  0
   35.9180   30.3950   49.9120 C   0  0  0  0  0  0  0  0  0  0  0  0
   35.9480   28.9600   49.6500 C   0  0  0  0  0  0  0  0  0  0  0  0
   36.5710   29.4690   50.9250 C   0  0  0  0  0  0  0  0  0  0  0  0
   34.9570   30.8610   50.2260 H   0  0  0  0  0  0  0  0  0  0  0  0
   35.0220   28.3650   49.7390 H   0  0  0  0  0  0  0  0  0  0  0  0
   36.6860   28.4850   48.9640 H   0  0  0  0  0  0  0  0  0  0  0  0
   37.6620   29.4840   51.0550 H   0  0  0  0  0  0  0  0  0  0  0  0
   36.0280   29.4200   51.8870 H   0  0  0  0  0  0  0  0  0  0  0  0
  1 16  1  0  0  0  0
  1  2  1  0  0  0  0
  2  7  1  0  0  0  0
  3  8  1  0  0  0  0
  3  2  2  0  0  0  0
  4  3  1  0  0  0  0
  5  6  1  0  0  0  0
  5  4  2  0  0  0  0
  6  1  2  0  0  0  0
  9  5  1  0  0  0  0
 10  9  1  0  0  0  0
 11 10  1  0  0  0  0
 12 14  1  0  0  0  0
 12 11  1  0  0  0  0
 13 12  1  0  0  0  0
 14 15  1  0  0  0  0
 15  9  1  0  0  0  0
 16 19  1  0  0  0  0
 16 18  1  0  0  0  0
 17 20  1  0  0  0  0
 17 16  1  0  0  0  0
 17 18  1  0  0  0  0
 18 22  1  0  0  0  0
 18 23  1  0  0  0  0
 21 17  1  0  0  0  0
M  END
>  <minimizedAffinity>
-5.92160034

>  <minimizedRMSD>
1.022663

$$$$
