
 OpenBabel03272510153D

 26 28  0  0  0  0  0  0  0  0999 V2000
   37.4450   29.2320   50.9170 Br  0  0  0  0  0  0  0  0  0  0  0  0
   36.0220   29.2890   49.6450 C   0  0  0  0  0  0  0  0  0  0  0  0
   36.0050   30.2530   48.6660 C   0  0  0  0  0  0  0  0  0  0  0  0
   34.9390   30.2340   47.7760 C   0  0  0  0  0  0  0  0  0  0  0  0
   33.9160   29.3140   47.8210 C   0  0  0  0  0  0  0  0  0  0  0  0
   33.9840   28.3650   48.8290 C   0  0  0  0  0  0  0  0  0  0  0  0
   35.0300   28.3610   49.7260 C   0  0  0  0  0  0  0  0  0  0  0  0
   34.9530   31.0150   47.0060 H   0  0  0  0  0  0  0  0  0  0  0  0
   33.1750   27.6490   48.8550 H   0  0  0  0  0  0  0  0  0  0  0  0
   34.9960   27.5760   50.4820 H   0  0  0  0  0  0  0  0  0  0  0  0
   38.0270   33.1970   49.4100 C   0  0  0  0  0  0  0  0  0  0  0  0
   39.0350   33.1740   48.4210 C   0  0  0  0  0  0  0  0  0  0  0  0
   39.0050   32.1360   47.5040 C   0  0  0  0  0  0  0  0  0  0  0  0
   38.0160   31.1950   47.5940 N   0  0  0  0  0  0  0  0  0  0  0  0
   37.0600   31.2550   48.5670 C   0  0  0  0  0  0  0  0  0  0  0  0
   37.0790   32.2540   49.4620 N   0  0  0  0  0  0  0  0  0  0  0  0
   38.0700   34.0100   50.1110 H   0  0  0  0  0  0  0  0  0  0  0  0
   39.8110   33.9150   48.3520 H   0  0  0  0  0  0  0  0  0  0  0  0
   39.7220   32.0150   46.7040 H   0  0  0  0  0  0  0  0  0  0  0  0
   32.8370   29.3330   46.8820 N   0  0  0  0  0  0  0  0  0  0  0  0
   32.0350   28.1300   46.8880 C   0  0  0  0  0  2  0  0  0  0  0  0
   30.9080   28.1120   45.9290 C   0  0  0  0  0  2  0  0  0  0  0  0
   31.0430   29.0720   44.7790 C   0  0  0  0  0  3  0  0  0  0  0  0
   30.0240   29.1650   44.3350 H   0  0  0  0  0  0  0  0  0  0  0  0
   31.4630   30.4510   45.1990 C   0  0  0  0  0  2  0  0  0  0  0  0
   32.6760   30.5150   46.0570 C   0  0  0  0  0  2  0  0  0  0  0  0
  2  7  1  0  0  0  0
  2  1  1  0  0  0  0
  3  2  2  0  0  0  0
  4  5  2  0  0  0  0
  4  3  1  0  0  0  0
  5  6  1  0  0  0  0
  6  9  1  0  0  0  0
  6  7  2  0  0  0  0
  7 10  1  0  0  0  0
  8  4  1  0  0  0  0
 11 16  1  0  0  0  0
 11 17  1  0  0  0  0
 12 11  2  0  0  0  0
 13 14  2  0  0  0  0
 13 12  1  0  0  0  0
 14 15  1  0  0  0  0
 15  3  1  0  0  0  0
 15 16  2  0  0  0  0
 18 12  1  0  0  0  0
 19 13  1  0  0  0  0
 20 21  1  0  0  0  0
 20  5  1  0  0  0  0
 22 21  1  0  0  0  0
 23 25  1  0  0  0  0
 23 22  1  0  0  0  0
 24 23  1  0  0  0  0
 25 26  1  0  0  0  0
 26 20  1  0  0  0  0
M  END
>  <minimizedAffinity>
-5.85580969

>  <minimizedRMSD>
0.33036375

$$$$
