
 OpenBabel03262520143D

 40 42  0  0  0  0  0  0  0  0999 V2000
   36.9790   27.3960   31.6890 C   0  0  0  0  0  0  0  0  0  0  0  0
   37.6930   27.3880   30.8340 H   0  0  0  0  0  0  0  0  0  0  0  0
   36.5480   28.4330   31.6690 H   0  0  0  0  0  0  0  0  0  0  0  0
   39.9730   26.4720   31.3930 Br  0  0  0  0  0  0  0  0  0  0  0  0
   39.0560   26.9210   33.0150 C   0  0  0  0  0  0  0  0  0  0  0  0
   39.7030   26.8700   34.2330 C   0  0  0  0  0  0  0  0  0  0  0  0
   38.9940   27.1970   35.3520 C   0  0  0  0  0  0  0  0  0  0  0  0
   37.6640   27.5730   35.3040 C   0  0  0  0  0  0  0  0  0  0  0  0
   37.0360   27.6160   34.0610 C   0  0  0  0  0  0  0  0  0  0  0  0
   37.7410   27.2910   32.9310 C   0  0  0  0  0  0  0  0  0  0  0  0
   39.5660   27.1370   36.2920 H   0  0  0  0  0  0  0  0  0  0  0  0
   37.2640   27.7950   36.2660 H   0  0  0  0  0  0  0  0  0  0  0  0
   36.0250   27.9080   34.2330 H   0  0  0  0  0  0  0  0  0  0  0  0
   42.6430   24.8320   34.9740 C   0  0  0  0  0  0  0  0  0  0  0  0
   43.7280   25.6310   34.5240 C   0  0  0  0  0  0  0  0  0  0  0  0
   43.4170   26.8490   33.9770 C   0  0  0  0  0  0  0  0  0  0  0  0
   42.1070   27.2550   33.8790 N   0  0  0  0  0  0  0  0  0  0  0  0
   41.1130   26.4620   34.3200 C   0  0  0  0  0  0  0  0  0  0  0  0
   41.3920   25.2640   34.8600 N   0  0  0  0  0  0  0  0  0  0  0  0
   42.9050   23.8690   35.4060 H   0  0  0  0  0  0  0  0  0  0  0  0
   44.7500   25.3180   34.5970 H   0  0  0  0  0  0  0  0  0  0  0  0
   44.2390   27.4570   33.6340 H   0  0  0  0  0  0  0  0  0  0  0  0
   35.8360   26.4610   31.5210 C   0  0  0  0  0  0  0  0  0  0  0  0
   35.6970   26.0250   32.5740 H   0  0  0  0  0  0  0  0  0  0  0  0
   34.9350   27.0030   31.3480 H   0  0  0  0  0  0  0  0  0  0  0  0
   36.2270   25.3590   30.7310 N   0  0  0  0  0  0  0  0  0  0  0  0
   36.0280   25.4490   29.7150 H   0  0  0  0  0  0  0  0  0  0  0  0
   35.8910   24.0600   31.1780 C   0  0  0  0  0  0  0  0  0  0  0  0
   35.8430   23.3970   30.3000 H   0  0  0  0  0  0  0  0  0  0  0  0
   34.8780   24.0450   31.6310 H   0  0  0  0  0  0  0  0  0  0  0  0
   36.9170   23.6300   32.1730 C   0  0  0  0  0  0  0  0  0  0  0  0
   36.8470   23.9640   33.1870 H   0  0  0  0  0  0  0  0  0  0  0  0
   37.9600   23.7500   31.7330 H   0  0  0  0  0  0  0  0  0  0  0  0
   36.8400   22.1630   32.2910 N   0  0  0  0  0  0  0  0  0  0  0  0
   36.0490   21.5530   31.3160 C   0  0  0  0  0  2  0  0  0  0  0  0
   35.0110   20.5800   31.7630 C   0  0  0  0  0  2  0  0  0  0  0  0
   35.3990   19.8400   33.0200 C   0  0  0  0  0  3  0  0  0  0  0  0
   34.4910   19.3250   33.3920 H   0  0  0  0  0  0  0  0  0  0  0  0
   35.8880   20.7500   34.0960 C   0  0  0  0  0  2  0  0  0  0  0  0
   36.9520   21.6490   33.5790 C   0  0  0  0  0  2  0  0  0  0  0  0
  1 10  1  0  0  0  0
  2  1  1  0  0  0  0
  3  1  1  0  0  0  0
  4  5  1  0  0  0  0
  5  6  1  0  0  0  0
  6 18  1  0  0  0  0
  6  7  2  0  0  0  0
  7 11  1  0  0  0  0
  8  7  1  0  0  0  0
  8 12  1  0  0  0  0
  9 13  1  0  0  0  0
  9  8  2  0  0  0  0
 10  5  2  0  0  0  0
 10  9  1  0  0  0  0
 14 20  1  0  0  0  0
 15 21  1  0  0  0  0
 15 14  2  0  0  0  0
 16 15  1  0  0  0  0
 17 16  2  0  0  0  0
 17 18  1  0  0  0  0
 18 19  2  0  0  0  0
 19 14  1  0  0  0  0
 22 16  1  0  0  0  0
 23  1  1  0  0  0  0
 23 24  1  0  0  0  0
 25 23  1  0  0  0  0
 26 28  1  0  0  0  0
 26 23  1  0  0  0  0
 27 26  1  0  0  0  0
 28 30  1  0  0  0  0
 28 31  1  0  0  0  0
 29 28  1  0  0  0  0
 31 34  1  0  0  0  0
 31 32  1  0  0  0  0
 33 31  1  0  0  0  0
 34 40  1  0  0  0  0
 35 36  1  0  0  0  0
 35 34  1  0  0  0  0
 36 37  1  0  0  0  0
 37 38  1  0  0  0  0
 37 39  1  0  0  0  0
 40 39  1  0  0  0  0
M  END
>  <minimizedAffinity>
-5.49289274

$$$$

 OpenBabel03262520143D

 40 42  0  0  0  0  0  0  0  0999 V2000
   38.2640   27.5050   32.4020 C   0  0  0  0  0  0  0  0  0  0  0  0
   39.0410   27.5190   31.6040 H   0  0  0  0  0  0  0  0  0  0  0  0
   38.7250   28.1010   33.2360 H   0  0  0  0  0  0  0  0  0  0  0  0
   38.9270   27.0750   35.4480 Br  0  0  0  0  0  0  0  0  0  0  0  0
   38.3610   25.7460   34.1890 C   0  0  0  0  0  0  0  0  0  0  0  0
   38.1920   24.4320   34.5730 C   0  0  0  0  0  0  0  0  0  0  0  0
   37.7920   23.5310   33.6290 C   0  0  0  0  0  0  0  0  0  0  0  0
   37.5550   23.8920   32.3150 C   0  0  0  0  0  0  0  0  0  0  0  0
   37.7340   25.2250   31.9550 C   0  0  0  0  0  0  0  0  0  0  0  0
   38.1330   26.1370   32.8970 C   0  0  0  0  0  0  0  0  0  0  0  0
   37.6740   22.4990   33.9990 H   0  0  0  0  0  0  0  0  0  0  0  0
   37.2490   23.0690   31.7110 H   0  0  0  0  0  0  0  0  0  0  0  0
   37.5210   25.2980   30.9130 H   0  0  0  0  0  0  0  0  0  0  0  0
   39.8880   22.9540   37.4510 C   0  0  0  0  0  0  0  0  0  0  0  0
   38.9940   23.1930   38.5290 C   0  0  0  0  0  0  0  0  0  0  0  0
   37.8310   23.8580   38.2340 C   0  0  0  0  0  0  0  0  0  0  0  0
   37.5670   24.2640   36.9470 N   0  0  0  0  0  0  0  0  0  0  0  0
   38.4470   24.0130   35.9600 C   0  0  0  0  0  0  0  0  0  0  0  0
   39.5930   23.3640   36.2230 N   0  0  0  0  0  0  0  0  0  0  0  0
   40.8060   22.4250   37.7000 H   0  0  0  0  0  0  0  0  0  0  0  0
   39.1970   22.8800   39.5330 H   0  0  0  0  0  0  0  0  0  0  0  0
   37.1510   24.0410   39.0510 H   0  0  0  0  0  0  0  0  0  0  0  0
   37.0100   28.2070   32.0260 C   0  0  0  0  0  0  0  0  0  0  0  0
   37.3610   29.2790   31.8130 H   0  0  0  0  0  0  0  0  0  0  0  0
   36.6600   27.8610   31.0800 H   0  0  0  0  0  0  0  0  0  0  0  0
   36.1690   28.3270   33.1520 N   0  0  0  0  0  0  0  0  0  0  0  0
   35.9680   27.4390   33.6530 H   0  0  0  0  0  0  0  0  0  0  0  0
   34.9850   29.0910   33.0270 C   0  0  0  0  0  0  0  0  0  0  0  0
   34.1940   28.5960   33.6110 H   0  0  0  0  0  0  0  0  0  0  0  0
   34.6290   29.1050   31.9760 H   0  0  0  0  0  0  0  0  0  0  0  0
   35.2730   30.4770   33.5010 C   0  0  0  0  0  0  0  0  0  0  0  0
   34.7250   31.3020   33.0960 H   0  0  0  0  0  0  0  0  0  0  0  0
   36.3970   30.6550   33.5240 H   0  0  0  0  0  0  0  0  0  0  0  0
   34.9620   30.5330   34.9400 N   0  0  0  0  0  0  0  0  0  0  0  0
   33.6050   30.3890   35.2360 C   0  0  0  0  0  2  0  0  0  0  0  0
   32.9750   31.3910   36.1450 C   0  0  0  0  0  2  0  0  0  0  0  0
   33.9370   31.9460   37.1680 C   0  0  0  0  0  3  0  0  0  0  0  0
   33.4510   32.8270   37.6320 H   0  0  0  0  0  0  0  0  0  0  0  0
   35.2260   32.3930   36.5630 C   0  0  0  0  0  2  0  0  0  0  0  0
   35.8070   31.3200   35.7160 C   0  0  0  0  0  2  0  0  0  0  0  0
  1 10  1  0  0  0  0
  1  3  1  0  0  0  0
  2  1  1  0  0  0  0
  5  6  1  0  0  0  0
  5  4  1  0  0  0  0
  6 18  1  0  0  0  0
  7 11  1  0  0  0  0
  7  6  2  0  0  0  0
  8  7  1  0  0  0  0
  9  8  2  0  0  0  0
  9 10  1  0  0  0  0
 10  5  2  0  0  0  0
 12  8  1  0  0  0  0
 13  9  1  0  0  0  0
 14 20  1  0  0  0  0
 14 15  1  0  0  0  0
 15 21  1  0  0  0  0
 16 15  2  0  0  0  0
 16 22  1  0  0  0  0
 17 16  1  0  0  0  0
 18 19  1  0  0  0  0
 18 17  2  0  0  0  0
 19 14  2  0  0  0  0
 23  1  1  0  0  0  0
 23 26  1  0  0  0  0
 24 23  1  0  0  0  0
 25 23  1  0  0  0  0
 26 27  1  0  0  0  0
 28 26  1  0  0  0  0
 28 31  1  0  0  0  0
 28 29  1  0  0  0  0
 30 28  1  0  0  0  0
 31 33  1  0  0  0  0
 31 34  1  0  0  0  0
 32 31  1  0  0  0  0
 34 35  1  0  0  0  0
 34 40  1  0  0  0  0
 35 36  1  0  0  0  0
 36 37  1  0  0  0  0
 37 38  1  0  0  0  0
 39 37  1  0  0  0  0
 40 39  1  0  0  0  0
M  END
>  <minimizedAffinity>
-5.36712837

$$$$

 OpenBabel03262520143D

 40 42  0  0  0  0  0  0  0  0999 V2000
   38.1400   27.5420   32.4510 C   0  0  0  0  0  0  0  0  0  0  0  0
   38.9710   27.6340   31.7140 H   0  0  0  0  0  0  0  0  0  0  0  0
   38.4870   28.1580   33.3240 H   0  0  0  0  0  0  0  0  0  0  0  0
   38.8080   27.0910   35.4930 Br  0  0  0  0  0  0  0  0  0  0  0  0
   38.3280   25.7560   34.2040 C   0  0  0  0  0  0  0  0  0  0  0  0
   38.2340   24.4270   34.5610 C   0  0  0  0  0  0  0  0  0  0  0  0
   37.8930   23.5240   33.5960 C   0  0  0  0  0  0  0  0  0  0  0  0
   37.6430   23.8960   32.2880 C   0  0  0  0  0  0  0  0  0  0  0  0
   37.7460   25.2450   31.9550 C   0  0  0  0  0  0  0  0  0  0  0  0
   38.0860   26.1590   32.9180 C   0  0  0  0  0  0  0  0  0  0  0  0
   37.8330   22.4800   33.9450 H   0  0  0  0  0  0  0  0  0  0  0  0
   37.3900   23.0690   31.6660 H   0  0  0  0  0  0  0  0  0  0  0  0
   37.5360   25.3260   30.9130 H   0  0  0  0  0  0  0  0  0  0  0  0
   37.7700   23.9260   38.1490 C   0  0  0  0  0  0  0  0  0  0  0  0
   38.9430   23.2300   38.5470 C   0  0  0  0  0  0  0  0  0  0  0  0
   39.8610   22.9510   37.5670 C   0  0  0  0  0  0  0  0  0  0  0  0
   39.6330   23.3380   36.2670 N   0  0  0  0  0  0  0  0  0  0  0  0
   38.5050   23.9970   35.9410 C   0  0  0  0  0  0  0  0  0  0  0  0
   37.5900   24.2810   36.8820 N   0  0  0  0  0  0  0  0  0  0  0  0
   37.0510   24.1400   38.9380 H   0  0  0  0  0  0  0  0  0  0  0  0
   39.1240   22.9240   39.5580 H   0  0  0  0  0  0  0  0  0  0  0  0
   40.7520   22.4220   37.8660 H   0  0  0  0  0  0  0  0  0  0  0  0
   36.8630   28.1460   31.9890 C   0  0  0  0  0  0  0  0  0  0  0  0
   37.1300   29.2550   31.8540 H   0  0  0  0  0  0  0  0  0  0  0  0
   36.6330   27.8180   31.0020 H   0  0  0  0  0  0  0  0  0  0  0  0
   35.9190   28.1350   33.0370 N   0  0  0  0  0  0  0  0  0  0  0  0
   34.9810   27.7640   32.7860 H   0  0  0  0  0  0  0  0  0  0  0  0
   35.7820   29.2990   33.8300 C   0  0  0  0  0  0  0  0  0  0  0  0
   36.0470   30.1690   33.2090 H   0  0  0  0  0  0  0  0  0  0  0  0
   36.5010   29.2920   34.6750 H   0  0  0  0  0  0  0  0  0  0  0  0
   34.3790   29.3550   34.3370 C   0  0  0  0  0  0  0  0  0  0  0  0
   34.0780   28.7120   35.1380 H   0  0  0  0  0  0  0  0  0  0  0  0
   33.6500   29.3540   33.4630 H   0  0  0  0  0  0  0  0  0  0  0  0
   34.1520   30.7060   34.8780 N   0  0  0  0  0  0  0  0  0  0  0  0
   35.3190   31.4420   35.0860 C   0  0  0  0  0  2  0  0  0  0  0  0
   35.5090   32.0970   36.4130 C   0  0  0  0  0  2  0  0  0  0  0  0
   34.2080   32.5100   37.0570 C   0  0  0  0  0  3  0  0  0  0  0  0
   34.4310   32.7680   38.1120 H   0  0  0  0  0  0  0  0  0  0  0  0
   33.1910   31.4180   37.0530 C   0  0  0  0  0  2  0  0  0  0  0  0
   33.0300   30.8570   35.6880 C   0  0  0  0  0  2  0  0  0  0  0  0
  1 10  1  0  0  0  0
  1  3  1  0  0  0  0
  2  1  1  0  0  0  0
  5  6  1  0  0  0  0
  5  4  1  0  0  0  0
  6 18  1  0  0  0  0
  7 11  1  0  0  0  0
  7  6  2  0  0  0  0
  8  7  1  0  0  0  0
  9  8  2  0  0  0  0
  9 10  1  0  0  0  0
 10  5  2  0  0  0  0
 12  8  1  0  0  0  0
 13  9  1  0  0  0  0
 14 15  1  0  0  0  0
 14 20  1  0  0  0  0
 15 21  1  0  0  0  0
 16 22  1  0  0  0  0
 16 15  2  0  0  0  0
 17 16  1  0  0  0  0
 18 17  2  0  0  0  0
 18 19  1  0  0  0  0
 19 14  2  0  0  0  0
 23  1  1  0  0  0  0
 23 26  1  0  0  0  0
 24 23  1  0  0  0  0
 25 23  1  0  0  0  0
 26 28  1  0  0  0  0
 27 26  1  0  0  0  0
 28 31  1  0  0  0  0
 28 30  1  0  0  0  0
 29 28  1  0  0  0  0
 31 34  1  0  0  0  0
 31 32  1  0  0  0  0
 33 31  1  0  0  0  0
 34 35  1  0  0  0  0
 34 40  1  0  0  0  0
 35 36  1  0  0  0  0
 36 37  1  0  0  0  0
 37 38  1  0  0  0  0
 39 37  1  0  0  0  0
 40 39  1  0  0  0  0
M  END
>  <minimizedAffinity>
-5.35607004

$$$$

 OpenBabel03262520143D

 40 42  0  0  0  0  0  0  0  0999 V2000
   41.4610   26.7070   34.0870 C   0  0  0  0  0  0  0  0  0  0  0  0
   41.7780   27.7700   34.1980 H   0  0  0  0  0  0  0  0  0  0  0  0
   41.6500   26.4820   33.0030 H   0  0  0  0  0  0  0  0  0  0  0  0
   39.8040   25.6390   31.6340 Br  0  0  0  0  0  0  0  0  0  0  0  0
   39.1230   26.1850   33.3400 C   0  0  0  0  0  0  0  0  0  0  0  0
   37.7720   26.1300   33.6150 C   0  0  0  0  0  0  0  0  0  0  0  0
   37.3490   26.5370   34.8470 C   0  0  0  0  0  0  0  0  0  0  0  0
   38.2210   26.9980   35.8160 C   0  0  0  0  0  0  0  0  0  0  0  0
   39.5800   27.0420   35.5110 C   0  0  0  0  0  0  0  0  0  0  0  0
   40.0140   26.6330   34.2770 C   0  0  0  0  0  0  0  0  0  0  0  0
   36.2600   26.4680   35.0040 H   0  0  0  0  0  0  0  0  0  0  0  0
   37.7270   27.2740   36.7180 H   0  0  0  0  0  0  0  0  0  0  0  0
   40.0780   27.4360   36.3680 H   0  0  0  0  0  0  0  0  0  0  0  0
   35.2650   26.2200   30.9600 C   0  0  0  0  0  0  0  0  0  0  0  0
   35.0060   24.8490   30.6940 C   0  0  0  0  0  0  0  0  0  0  0  0
   35.7030   23.9310   31.4360 C   0  0  0  0  0  0  0  0  0  0  0  0
   36.6060   24.3440   32.3870 N   0  0  0  0  0  0  0  0  0  0  0  0
   36.8160   25.6560   32.6020 C   0  0  0  0  0  0  0  0  0  0  0  0
   36.1450   26.5750   31.8890 N   0  0  0  0  0  0  0  0  0  0  0  0
   34.7030   26.9370   30.3640 H   0  0  0  0  0  0  0  0  0  0  0  0
   34.3050   24.5220   29.9530 H   0  0  0  0  0  0  0  0  0  0  0  0
   35.5090   22.8890   31.2360 H   0  0  0  0  0  0  0  0  0  0  0  0
   42.2910   25.7530   34.8670 C   0  0  0  0  0  0  0  0  0  0  0  0
   43.3340   25.8710   34.4030 H   0  0  0  0  0  0  0  0  0  0  0  0
   42.4160   26.1000   35.8670 H   0  0  0  0  0  0  0  0  0  0  0  0
   41.9160   24.4270   34.5610 N   0  0  0  0  0  0  0  0  0  0  0  0
   41.2360   24.3270   33.7810 H   0  0  0  0  0  0  0  0  0  0  0  0
   41.5620   23.5670   35.6260 C   0  0  0  0  0  0  0  0  0  0  0  0
   41.2040   24.1870   36.4630 H   0  0  0  0  0  0  0  0  0  0  0  0
   42.4480   23.0180   36.0070 H   0  0  0  0  0  0  0  0  0  0  0  0
   40.5280   22.6120   35.1290 C   0  0  0  0  0  0  0  0  0  0  0  0
   40.8170   21.6300   34.8200 H   0  0  0  0  0  0  0  0  0  0  0  0
   39.8430   23.1330   34.3840 H   0  0  0  0  0  0  0  0  0  0  0  0
   39.5840   22.3590   36.2320 N   0  0  0  0  0  0  0  0  0  0  0  0
   38.2560   22.6640   35.9290 C   0  0  0  0  0  2  0  0  0  0  0  0
   37.4950   23.5170   36.8870 C   0  0  0  0  0  2  0  0  0  0  0  0
   37.9410   23.3370   38.3180 C   0  0  0  0  0  3  0  0  0  0  0  0
   37.4900   24.1600   38.9090 H   0  0  0  0  0  0  0  0  0  0  0  0
   39.4230   23.4140   38.4730 C   0  0  0  0  0  2  0  0  0  0  0  0
   40.0980   22.4990   37.5180 C   0  0  0  0  0  2  0  0  0  0  0  0
  1  2  1  0  0  0  0
  1 10  1  0  0  0  0
  1 23  1  0  0  0  0
  3  1  1  0  0  0  0
  4  5  1  0  0  0  0
  5  6  2  0  0  0  0
  5 10  1  0  0  0  0
  6  7  1  0  0  0  0
  7 11  1  0  0  0  0
  7  8  2  0  0  0  0
  8 12  1  0  0  0  0
  9  8  1  0  0  0  0
  9 13  1  0  0  0  0
 10  9  2  0  0  0  0
 14 19  1  0  0  0  0
 15 14  2  0  0  0  0
 15 16  1  0  0  0  0
 16 17  2  0  0  0  0
 17 18  1  0  0  0  0
 18  6  1  0  0  0  0
 19 18  2  0  0  0  0
 20 14  1  0  0  0  0
 21 15  1  0  0  0  0
 22 16  1  0  0  0  0
 23 25  1  0  0  0  0
 24 23  1  0  0  0  0
 26 23  1  0  0  0  0
 26 28  1  0  0  0  0
 27 26  1  0  0  0  0
 28 30  1  0  0  0  0
 28 29  1  0  0  0  0
 31 28  1  0  0  0  0
 31 34  1  0  0  0  0
 32 31  1  0  0  0  0
 33 31  1  0  0  0  0
 34 40  1  0  0  0  0
 35 34  1  0  0  0  0
 35 36  1  0  0  0  0
 36 37  1  0  0  0  0
 37 39  1  0  0  0  0
 37 38  1  0  0  0  0
 40 39  1  0  0  0  0
M  END
>  <minimizedAffinity>
-5.29941893

$$$$

 OpenBabel03262520143D

 40 42  0  0  0  0  0  0  0  0999 V2000
   38.7300   26.7190   32.0230 C   0  0  0  0  0  0  0  0  0  0  0  0
   39.0130   26.6800   33.0990 H   0  0  0  0  0  0  0  0  0  0  0  0
   39.6630   27.0820   31.5120 H   0  0  0  0  0  0  0  0  0  0  0  0
   37.0740   27.4920   34.5850 Br  0  0  0  0  0  0  0  0  0  0  0  0
   36.9190   28.2560   32.8340 C   0  0  0  0  0  0  0  0  0  0  0  0
   36.0140   29.2650   32.5790 C   0  0  0  0  0  0  0  0  0  0  0  0
   35.9480   29.7640   31.3100 C   0  0  0  0  0  0  0  0  0  0  0  0
   36.7500   29.2950   30.2860 C   0  0  0  0  0  0  0  0  0  0  0  0
   37.6550   28.2750   30.5730 C   0  0  0  0  0  0  0  0  0  0  0  0
   37.7290   27.7690   31.8440 C   0  0  0  0  0  0  0  0  0  0  0  0
   35.2080   30.5690   31.1710 H   0  0  0  0  0  0  0  0  0  0  0  0
   36.5710   29.7930   29.3620 H   0  0  0  0  0  0  0  0  0  0  0  0
   38.1610   28.0430   29.6630 H   0  0  0  0  0  0  0  0  0  0  0  0
   33.0420   29.7150   34.6540 C   0  0  0  0  0  0  0  0  0  0  0  0
   33.4380   30.6960   35.6020 C   0  0  0  0  0  0  0  0  0  0  0  0
   34.7190   31.1750   35.5010 C   0  0  0  0  0  0  0  0  0  0  0  0
   35.5620   30.7100   34.5180 N   0  0  0  0  0  0  0  0  0  0  0  0
   35.1390   29.7790   33.6430 C   0  0  0  0  0  0  0  0  0  0  0  0
   33.8890   29.2950   33.7210 N   0  0  0  0  0  0  0  0  0  0  0  0
   32.0230   29.3450   34.7470 H   0  0  0  0  0  0  0  0  0  0  0  0
   32.7860   31.0600   36.3700 H   0  0  0  0  0  0  0  0  0  0  0  0
   35.0230   31.9190   36.2190 H   0  0  0  0  0  0  0  0  0  0  0  0
   38.4200   25.3890   31.4380 C   0  0  0  0  0  0  0  0  0  0  0  0
   37.4740   25.5880   30.8180 H   0  0  0  0  0  0  0  0  0  0  0  0
   39.1510   25.1240   30.7090 H   0  0  0  0  0  0  0  0  0  0  0  0
   37.9980   24.5040   32.4520 N   0  0  0  0  0  0  0  0  0  0  0  0
   37.0490   24.6870   32.8350 H   0  0  0  0  0  0  0  0  0  0  0  0
   38.8960   24.2120   33.5050 C   0  0  0  0  0  0  0  0  0  0  0  0
   39.3360   25.1590   33.8530 H   0  0  0  0  0  0  0  0  0  0  0  0
   39.7440   23.5930   33.1450 H   0  0  0  0  0  0  0  0  0  0  0  0
   38.1420   23.4950   34.5760 C   0  0  0  0  0  0  0  0  0  0  0  0
   38.1860   22.4280   34.6340 H   0  0  0  0  0  0  0  0  0  0  0  0
   37.0820   23.9040   34.6450 H   0  0  0  0  0  0  0  0  0  0  0  0
   38.6840   23.9310   35.8750 N   0  0  0  0  0  0  0  0  0  0  0  0
   39.8810   23.3090   36.2320 C   0  0  0  0  0  2  0  0  0  0  0  0
   39.9810   22.7060   37.5930 C   0  0  0  0  0  2  0  0  0  0  0  0
   39.1500   23.4350   38.6210 C   0  0  0  0  0  3  0  0  0  0  0  0
   39.1070   22.7930   39.5240 H   0  0  0  0  0  0  0  0  0  0  0  0
   37.7520   23.6830   38.1620 C   0  0  0  0  0  2  0  0  0  0  0  0
   37.7470   24.3280   36.8240 C   0  0  0  0  0  2  0  0  0  0  0  0
  1  2  1  0  0  0  0
  3  1  1  0  0  0  0
  5  4  1  0  0  0  0
  6  5  1  0  0  0  0
  6 18  1  0  0  0  0
  7  6  2  0  0  0  0
  8  9  2  0  0  0  0
  8  7  1  0  0  0  0
  9 10  1  0  0  0  0
 10  1  1  0  0  0  0
 10  5  2  0  0  0  0
 11  7  1  0  0  0  0
 12  8  1  0  0  0  0
 13  9  1  0  0  0  0
 14 20  1  0  0  0  0
 14 15  1  0  0  0  0
 15 21  1  0  0  0  0
 16 15  2  0  0  0  0
 16 22  1  0  0  0  0
 17 16  1  0  0  0  0
 18 19  1  0  0  0  0
 18 17  2  0  0  0  0
 19 14  2  0  0  0  0
 23  1  1  0  0  0  0
 23 26  1  0  0  0  0
 24 23  1  0  0  0  0
 25 23  1  0  0  0  0
 26 27  1  0  0  0  0
 26 28  1  0  0  0  0
 28 29  1  0  0  0  0
 28 31  1  0  0  0  0
 30 28  1  0  0  0  0
 31 32  1  0  0  0  0
 31 33  1  0  0  0  0
 31 34  1  0  0  0  0
 34 35  1  0  0  0  0
 34 40  1  0  0  0  0
 35 36  1  0  0  0  0
 36 37  1  0  0  0  0
 37 38  1  0  0  0  0
 39 37  1  0  0  0  0
 40 39  1  0  0  0  0
M  END
>  <minimizedAffinity>
-5.13557625

$$$$

 OpenBabel03262520143D

 40 42  0  0  0  0  0  0  0  0999 V2000
   37.8120   23.7290   37.5140 C   0  0  0  0  0  0  0  0  0  0  0  0
   37.2830   22.8280   37.1280 H   0  0  0  0  0  0  0  0  0  0  0  0
   37.0370   24.2480   38.1400 H   0  0  0  0  0  0  0  0  0  0  0  0
   37.8400   22.3830   34.6690 Br  0  0  0  0  0  0  0  0  0  0  0  0
   38.1370   24.2320   35.0760 C   0  0  0  0  0  0  0  0  0  0  0  0
   38.3900   25.1470   34.0750 C   0  0  0  0  0  0  0  0  0  0  0  0
   38.5980   26.4480   34.4300 C   0  0  0  0  0  0  0  0  0  0  0  0
   38.5630   26.8720   35.7460 C   0  0  0  0  0  0  0  0  0  0  0  0
   38.3050   25.9270   36.7360 C   0  0  0  0  0  0  0  0  0  0  0  0
   38.0930   24.6180   36.3890 C   0  0  0  0  0  0  0  0  0  0  0  0
   38.7940   27.1290   33.5860 H   0  0  0  0  0  0  0  0  0  0  0  0
   38.7450   27.9170   35.8470 H   0  0  0  0  0  0  0  0  0  0  0  0
   38.3360   26.4390   37.6710 H   0  0  0  0  0  0  0  0  0  0  0  0
   37.2630   24.2340   30.7230 C   0  0  0  0  0  0  0  0  0  0  0  0
   38.4680   23.9390   30.0300 C   0  0  0  0  0  0  0  0  0  0  0  0
   39.6360   24.0650   30.7380 C   0  0  0  0  0  0  0  0  0  0  0  0
   39.6150   24.4590   32.0550 N   0  0  0  0  0  0  0  0  0  0  0  0
   38.4460   24.7270   32.6670 C   0  0  0  0  0  0  0  0  0  0  0  0
   37.2890   24.6110   31.9960 N   0  0  0  0  0  0  0  0  0  0  0  0
   36.3440   24.1290   30.1490 H   0  0  0  0  0  0  0  0  0  0  0  0
   38.4890   23.6340   29.0040 H   0  0  0  0  0  0  0  0  0  0  0  0
   40.5520   23.8430   30.2140 H   0  0  0  0  0  0  0  0  0  0  0  0
   38.9450   23.4130   38.4200 C   0  0  0  0  0  0  0  0  0  0  0  0
   39.6790   24.2760   38.2340 H   0  0  0  0  0  0  0  0  0  0  0  0
   38.6540   23.5420   39.4380 H   0  0  0  0  0  0  0  0  0  0  0  0
   39.6250   22.2660   37.9600 N   0  0  0  0  0  0  0  0  0  0  0  0
   39.4390   21.3950   38.4960 H   0  0  0  0  0  0  0  0  0  0  0  0
   41.0070   22.3730   37.6770 C   0  0  0  0  0  0  0  0  0  0  0  0
   41.5590   21.8040   38.4410 H   0  0  0  0  0  0  0  0  0  0  0  0
   41.3520   23.4240   37.7670 H   0  0  0  0  0  0  0  0  0  0  0  0
   41.2390   21.8630   36.2930 C   0  0  0  0  0  0  0  0  0  0  0  0
   40.4350   21.8540   35.5880 H   0  0  0  0  0  0  0  0  0  0  0  0
   41.8110   20.8790   36.3330 H   0  0  0  0  0  0  0  0  0  0  0  0
   42.2430   22.7340   35.6570 N   0  0  0  0  0  0  0  0  0  0  0  0
   43.3910   22.9380   36.4240 C   0  0  0  0  0  2  0  0  0  0  0  0
   43.8590   24.3390   36.6290 C   0  0  0  0  0  2  0  0  0  0  0  0
   43.5340   25.2450   35.4660 C   0  0  0  0  0  3  0  0  0  0  0  0
   43.7080   26.2870   35.8010 H   0  0  0  0  0  0  0  0  0  0  0  0
   42.1120   25.1310   35.0270 C   0  0  0  0  0  2  0  0  0  0  0  0
   41.7460   23.7100   34.7990 C   0  0  0  0  0  2  0  0  0  0  0  0
  1  3  1  0  0  0  0
  1 23  1  0  0  0  0
  2  1  1  0  0  0  0
  4  5  1  0  0  0  0
  5 10  1  0  0  0  0
  6  7  1  0  0  0  0
  6  5  2  0  0  0  0
  7  8  2  0  0  0  0
  8 12  1  0  0  0  0
  8  9  1  0  0  0  0
  9 13  1  0  0  0  0
 10  9  2  0  0  0  0
 10  1  1  0  0  0  0
 11  7  1  0  0  0  0
 14 19  1  0  0  0  0
 15 14  2  0  0  0  0
 15 16  1  0  0  0  0
 16 17  2  0  0  0  0
 17 18  1  0  0  0  0
 18  6  1  0  0  0  0
 19 18  2  0  0  0  0
 20 14  1  0  0  0  0
 21 15  1  0  0  0  0
 22 16  1  0  0  0  0
 23 25  1  0  0  0  0
 24 23  1  0  0  0  0
 26 23  1  0  0  0  0
 26 27  1  0  0  0  0
 28 30  1  0  0  0  0
 28 26  1  0  0  0  0
 28 29  1  0  0  0  0
 31 33  1  0  0  0  0
 31 28  1  0  0  0  0
 32 31  1  0  0  0  0
 34 31  1  0  0  0  0
 34 35  1  0  0  0  0
 35 36  1  0  0  0  0
 37 38  1  0  0  0  0
 37 36  1  0  0  0  0
 39 37  1  0  0  0  0
 40 39  1  0  0  0  0
 40 34  1  0  0  0  0
M  END
>  <minimizedAffinity>
-5.04528713

$$$$

 OpenBabel03262520143D

 40 42  0  0  0  0  0  0  0  0999 V2000
   36.5210   26.0760   32.1600 C   0  0  0  0  0  0  0  0  0  0  0  0
   35.7740   25.2530   32.2350 H   0  0  0  0  0  0  0  0  0  0  0  0
   37.3020   25.6670   31.4620 H   0  0  0  0  0  0  0  0  0  0  0  0
   37.9690   23.5200   33.2890 Br  0  0  0  0  0  0  0  0  0  0  0  0
   37.8630   25.2480   34.1120 C   0  0  0  0  0  0  0  0  0  0  0  0
   38.4640   25.4910   35.3300 C   0  0  0  0  0  0  0  0  0  0  0  0
   38.3490   26.7410   35.8660 C   0  0  0  0  0  0  0  0  0  0  0  0
   37.6560   27.7570   35.2340 C   0  0  0  0  0  0  0  0  0  0  0  0
   37.0590   27.4830   34.0060 C   0  0  0  0  0  0  0  0  0  0  0  0
   37.1710   26.2310   33.4590 C   0  0  0  0  0  0  0  0  0  0  0  0
   38.8510   26.8720   36.8380 H   0  0  0  0  0  0  0  0  0  0  0  0
   37.6640   28.6670   35.7880 H   0  0  0  0  0  0  0  0  0  0  0  0
   36.5660   28.3760   33.6930 H   0  0  0  0  0  0  0  0  0  0  0  0
   39.2280   22.9060   37.7950 C   0  0  0  0  0  0  0  0  0  0  0  0
   40.5120   22.4390   37.4070 C   0  0  0  0  0  0  0  0  0  0  0  0
   41.0790   23.0260   36.3050 C   0  0  0  0  0  0  0  0  0  0  0  0
   40.4140   24.0200   35.6250 N   0  0  0  0  0  0  0  0  0  0  0  0
   39.1980   24.4280   36.0340 C   0  0  0  0  0  0  0  0  0  0  0  0
   38.6220   23.8690   37.1100 N   0  0  0  0  0  0  0  0  0  0  0  0
   38.7910   22.4310   38.6720 H   0  0  0  0  0  0  0  0  0  0  0  0
   41.0320   21.6640   37.9330 H   0  0  0  0  0  0  0  0  0  0  0  0
   42.0530   22.6730   36.0080 H   0  0  0  0  0  0  0  0  0  0  0  0
   35.9900   27.3080   31.5220 C   0  0  0  0  0  0  0  0  0  0  0  0
   34.8550   27.1360   31.5220 H   0  0  0  0  0  0  0  0  0  0  0  0
   36.1200   28.1460   32.1680 H   0  0  0  0  0  0  0  0  0  0  0  0
   36.3440   27.3350   30.1570 N   0  0  0  0  0  0  0  0  0  0  0  0
   36.7800   26.4640   29.7940 H   0  0  0  0  0  0  0  0  0  0  0  0
   37.0380   28.4660   29.6660 C   0  0  0  0  0  0  0  0  0  0  0  0
   36.4000   29.3510   29.8140 H   0  0  0  0  0  0  0  0  0  0  0  0
   37.2060   28.3860   28.5720 H   0  0  0  0  0  0  0  0  0  0  0  0
   38.3400   28.5630   30.3900 C   0  0  0  0  0  0  0  0  0  0  0  0
   38.6440   27.7730   31.0450 H   0  0  0  0  0  0  0  0  0  0  0  0
   38.4520   29.5970   30.8530 H   0  0  0  0  0  0  0  0  0  0  0  0
   39.4130   28.6010   29.3810 N   0  0  0  0  0  0  0  0  0  0  0  0
   39.5100   29.8140   28.6960 C   0  0  0  0  0  2  0  0  0  0  0  0
   39.5620   29.7770   27.2060 C   0  0  0  0  0  2  0  0  0  0  0  0
   40.2250   28.5300   26.6710 C   0  0  0  0  0  3  0  0  0  0  0  0
   40.0130   28.4870   25.5840 H   0  0  0  0  0  0  0  0  0  0  0  0
   39.6960   27.2830   27.2960 C   0  0  0  0  0  2  0  0  0  0  0  0
   39.7260   27.3860   28.7770 C   0  0  0  0  0  2  0  0  0  0  0  0
  1  2  1  0  0  0  0
  1 10  1  0  0  0  0
  3  1  1  0  0  0  0
  4  5  1  0  0  0  0
  5  6  1  0  0  0  0
  6  7  2  0  0  0  0
  6 18  1  0  0  0  0
  7 11  1  0  0  0  0
  8 12  1  0  0  0  0
  8  7  1  0  0  0  0
  9  8  2  0  0  0  0
 10  9  1  0  0  0  0
 10  5  2  0  0  0  0
 13  9  1  0  0  0  0
 14 20  1  0  0  0  0
 15 14  1  0  0  0  0
 15 21  1  0  0  0  0
 16 15  2  0  0  0  0
 17 18  2  0  0  0  0
 17 16  1  0  0  0  0
 18 19  1  0  0  0  0
 19 14  2  0  0  0  0
 22 16  1  0  0  0  0
 23  1  1  0  0  0  0
 23 25  1  0  0  0  0
 24 23  1  0  0  0  0
 26 23  1  0  0  0  0
 27 26  1  0  0  0  0
 28 29  1  0  0  0  0
 28 26  1  0  0  0  0
 28 31  1  0  0  0  0
 30 28  1  0  0  0  0
 31 33  1  0  0  0  0
 31 32  1  0  0  0  0
 34 31  1  0  0  0  0
 35 34  1  0  0  0  0
 36 35  1  0  0  0  0
 37 36  1  0  0  0  0
 37 39  1  0  0  0  0
 38 37  1  0  0  0  0
 39 40  1  0  0  0  0
 40 34  1  0  0  0  0
M  END
>  <minimizedAffinity>
-4.97031736

$$$$

 OpenBabel03262520143D

 40 42  0  0  0  0  0  0  0  0999 V2000
   37.5120   27.7510   32.6710 C   0  0  0  0  0  0  0  0  0  0  0  0
   38.3950   28.0280   32.0510 H   0  0  0  0  0  0  0  0  0  0  0  0
   37.6560   28.3350   33.6200 H   0  0  0  0  0  0  0  0  0  0  0  0
   38.3960   27.1610   35.6330 Br  0  0  0  0  0  0  0  0  0  0  0  0
   37.9810   25.8760   34.2730 C   0  0  0  0  0  0  0  0  0  0  0  0
   38.0430   24.5230   34.5330 C   0  0  0  0  0  0  0  0  0  0  0  0
   37.7410   23.6590   33.5210 C   0  0  0  0  0  0  0  0  0  0  0  0
   37.3800   24.0930   32.2580 C   0  0  0  0  0  0  0  0  0  0  0  0
   37.3260   25.4650   32.0240 C   0  0  0  0  0  0  0  0  0  0  0  0
   37.6260   26.3400   33.0350 C   0  0  0  0  0  0  0  0  0  0  0  0
   37.8070   22.5920   33.7920 H   0  0  0  0  0  0  0  0  0  0  0  0
   37.1770   23.2890   31.5890 H   0  0  0  0  0  0  0  0  0  0  0  0
   37.0490   25.5950   31.0030 H   0  0  0  0  0  0  0  0  0  0  0  0
   40.0800   23.0280   37.1700 C   0  0  0  0  0  0  0  0  0  0  0  0
   39.2390   23.0750   38.3140 C   0  0  0  0  0  0  0  0  0  0  0  0
   37.9930   23.6220   38.1450 C   0  0  0  0  0  0  0  0  0  0  0  0
   37.6000   24.0960   36.9150 N   0  0  0  0  0  0  0  0  0  0  0  0
   38.4350   24.0280   35.8610 C   0  0  0  0  0  0  0  0  0  0  0  0
   39.6600   23.4970   36.0010 N   0  0  0  0  0  0  0  0  0  0  0  0
   41.0660   22.5900   37.3200 H   0  0  0  0  0  0  0  0  0  0  0  0
   39.5410   22.7090   39.2740 H   0  0  0  0  0  0  0  0  0  0  0  0
   37.3520   23.6600   39.0120 H   0  0  0  0  0  0  0  0  0  0  0  0
   36.2160   28.1940   32.0960 C   0  0  0  0  0  0  0  0  0  0  0  0
   36.5050   28.5610   31.0470 H   0  0  0  0  0  0  0  0  0  0  0  0
   35.5870   27.3540   31.9060 H   0  0  0  0  0  0  0  0  0  0  0  0
   35.7620   29.3510   32.7630 N   0  0  0  0  0  0  0  0  0  0  0  0
   36.3680   30.1890   32.6600 H   0  0  0  0  0  0  0  0  0  0  0  0
   35.3320   29.2260   34.1050 C   0  0  0  0  0  0  0  0  0  0  0  0
   36.1950   29.4210   34.7610 H   0  0  0  0  0  0  0  0  0  0  0  0
   35.0070   28.1890   34.3240 H   0  0  0  0  0  0  0  0  0  0  0  0
   34.2100   30.1850   34.3260 C   0  0  0  0  0  0  0  0  0  0  0  0
   34.0200   30.9550   33.6080 H   0  0  0  0  0  0  0  0  0  0  0  0
   34.2290   30.5670   35.3980 H   0  0  0  0  0  0  0  0  0  0  0  0
   32.9560   29.4120   34.3370 N   0  0  0  0  0  0  0  0  0  0  0  0
   32.1520   29.6110   33.2140 C   0  0  0  0  0  2  0  0  0  0  0  0
   30.7110   29.9340   33.4290 C   0  0  0  0  0  2  0  0  0  0  0  0
   30.1490   29.3090   34.6830 C   0  0  0  0  0  3  0  0  0  0  0  0
   29.1650   29.7840   34.8740 H   0  0  0  0  0  0  0  0  0  0  0  0
   31.0130   29.5380   35.8780 C   0  0  0  0  0  2  0  0  0  0  0  0
   32.4160   29.1440   35.5920 C   0  0  0  0  0  2  0  0  0  0  0  0
  1 10  1  0  0  0  0
  1  3  1  0  0  0  0
  2  1  1  0  0  0  0
  5  6  1  0  0  0  0
  5  4  1  0  0  0  0
  6 18  1  0  0  0  0
  7 11  1  0  0  0  0
  7  6  2  0  0  0  0
  8  7  1  0  0  0  0
  9  8  2  0  0  0  0
  9 10  1  0  0  0  0
 10  5  2  0  0  0  0
 12  8  1  0  0  0  0
 13  9  1  0  0  0  0
 14 20  1  0  0  0  0
 14 15  1  0  0  0  0
 15 21  1  0  0  0  0
 16 15  2  0  0  0  0
 16 22  1  0  0  0  0
 17 16  1  0  0  0  0
 18 19  1  0  0  0  0
 18 17  2  0  0  0  0
 19 14  2  0  0  0  0
 23  1  1  0  0  0  0
 23 26  1  0  0  0  0
 24 23  1  0  0  0  0
 25 23  1  0  0  0  0
 26 28  1  0  0  0  0
 27 26  1  0  0  0  0
 28 30  1  0  0  0  0
 28 31  1  0  0  0  0
 28 29  1  0  0  0  0
 31 34  1  0  0  0  0
 31 33  1  0  0  0  0
 32 31  1  0  0  0  0
 34 40  1  0  0  0  0
 35 36  1  0  0  0  0
 35 34  1  0  0  0  0
 36 37  1  0  0  0  0
 37 38  1  0  0  0  0
 37 39  1  0  0  0  0
 40 39  1  0  0  0  0
M  END
>  <minimizedAffinity>
-4.91761208

$$$$

 OpenBabel03262520143D

 40 42  0  0  0  0  0  0  0  0999 V2000
   36.9390   24.3460   31.0330 C   0  0  0  0  0  0  0  0  0  0  0  0
   37.2850   23.8550   30.0950 H   0  0  0  0  0  0  0  0  0  0  0  0
   37.7530   25.0840   31.2660 H   0  0  0  0  0  0  0  0  0  0  0  0
   38.9020   24.9490   33.4180 Br  0  0  0  0  0  0  0  0  0  0  0  0
   37.7320   23.4420   33.2360 C   0  0  0  0  0  0  0  0  0  0  0  0
   37.6730   22.4680   34.2120 C   0  0  0  0  0  0  0  0  0  0  0  0
   36.8240   21.4170   34.0210 C   0  0  0  0  0  0  0  0  0  0  0  0
   36.0320   21.2990   32.8940 C   0  0  0  0  0  0  0  0  0  0  0  0
   36.1120   22.2960   31.9250 C   0  0  0  0  0  0  0  0  0  0  0  0
   36.9610   23.3570   32.1090 C   0  0  0  0  0  0  0  0  0  0  0  0
   36.8220   20.6750   34.8360 H   0  0  0  0  0  0  0  0  0  0  0  0
   35.4290   20.4210   32.9040 H   0  0  0  0  0  0  0  0  0  0  0  0
   35.4480   22.0200   31.1380 H   0  0  0  0  0  0  0  0  0  0  0  0
   40.5640   22.0930   36.4130 C   0  0  0  0  0  0  0  0  0  0  0  0
   40.1360   22.6820   37.6340 C   0  0  0  0  0  0  0  0  0  0  0  0
   38.8640   23.1930   37.6640 C   0  0  0  0  0  0  0  0  0  0  0  0
   38.0590   23.1260   36.5510 N   0  0  0  0  0  0  0  0  0  0  0  0
   38.5110   22.5580   35.4170 C   0  0  0  0  0  0  0  0  0  0  0  0
   39.7520   22.0500   35.3620 N   0  0  0  0  0  0  0  0  0  0  0  0
   41.5750   21.6920   36.4050 H   0  0  0  0  0  0  0  0  0  0  0  0
   40.7610   22.7370   38.5030 H   0  0  0  0  0  0  0  0  0  0  0  0
   38.5380   23.6410   38.5890 H   0  0  0  0  0  0  0  0  0  0  0  0
   35.6900   25.1340   30.8700 C   0  0  0  0  0  0  0  0  0  0  0  0
   35.7870   25.5660   29.8110 H   0  0  0  0  0  0  0  0  0  0  0  0
   34.8470   24.4840   30.8030 H   0  0  0  0  0  0  0  0  0  0  0  0
   35.7180   26.2620   31.7170 N   0  0  0  0  0  0  0  0  0  0  0  0
   34.8350   26.4530   32.2310 H   0  0  0  0  0  0  0  0  0  0  0  0
   36.2530   27.4690   31.2080 C   0  0  0  0  0  0  0  0  0  0  0  0
   35.4460   28.0120   30.6930 H   0  0  0  0  0  0  0  0  0  0  0  0
   37.0290   27.2680   30.4410 H   0  0  0  0  0  0  0  0  0  0  0  0
   36.8320   28.2380   32.3490 C   0  0  0  0  0  0  0  0  0  0  0  0
   37.7280   28.8050   32.2070 H   0  0  0  0  0  0  0  0  0  0  0  0
   36.8560   27.5880   33.2840 H   0  0  0  0  0  0  0  0  0  0  0  0
   35.8440   29.2540   32.7520 N   0  0  0  0  0  0  0  0  0  0  0  0
   35.8850   30.4240   31.9930 C   0  0  0  0  0  2  0  0  0  0  0  0
   35.9420   31.7280   32.7150 C   0  0  0  0  0  2  0  0  0  0  0  0
   35.2340   31.6950   34.0480 C   0  0  0  0  0  3  0  0  0  0  0  0
   35.5240   32.6130   34.5970 H   0  0  0  0  0  0  0  0  0  0  0  0
   35.6250   30.5180   34.8780 C   0  0  0  0  0  2  0  0  0  0  0  0
   35.4910   29.2600   34.0990 C   0  0  0  0  0  2  0  0  0  0  0  0
  1  3  1  0  0  0  0
  1 10  1  0  0  0  0
  2  1  1  0  0  0  0
  5  4  1  0  0  0  0
  5  6  1  0  0  0  0
  6 18  1  0  0  0  0
  7  6  2  0  0  0  0
  7 11  1  0  0  0  0
  8 12  1  0  0  0  0
  8  7  1  0  0  0  0
  9 10  1  0  0  0  0
  9  8  2  0  0  0  0
 10  5  2  0  0  0  0
 13  9  1  0  0  0  0
 14 15  1  0  0  0  0
 15 16  2  0  0  0  0
 15 21  1  0  0  0  0
 16 22  1  0  0  0  0
 17 16  1  0  0  0  0
 18 17  2  0  0  0  0
 19 18  1  0  0  0  0
 19 14  2  0  0  0  0
 20 14  1  0  0  0  0
 23  1  1  0  0  0  0
 23 26  1  0  0  0  0
 24 23  1  0  0  0  0
 25 23  1  0  0  0  0
 26 27  1  0  0  0  0
 28 26  1  0  0  0  0
 28 31  1  0  0  0  0
 29 28  1  0  0  0  0
 30 28  1  0  0  0  0
 31 34  1  0  0  0  0
 31 33  1  0  0  0  0
 32 31  1  0  0  0  0
 34 40  1  0  0  0  0
 35 36  1  0  0  0  0
 35 34  1  0  0  0  0
 36 37  1  0  0  0  0
 37 38  1  0  0  0  0
 37 39  1  0  0  0  0
 40 39  1  0  0  0  0
M  END
>  <minimizedAffinity>
-4.91503239

$$$$
