
 OpenBabel03272510153D

 26 28  0  0  0  0  0  0  0  0999 V2000
   37.4480   29.2330   50.9150 Br  0  0  0  0  0  0  0  0  0  0  0  0
   36.0240   29.2890   49.6430 C   0  0  0  0  0  0  0  0  0  0  0  0
   36.0070   30.2550   48.6660 C   0  0  0  0  0  0  0  0  0  0  0  0
   34.9400   30.2350   47.7760 C   0  0  0  0  0  0  0  0  0  0  0  0
   33.9180   29.3150   47.8200 C   0  0  0  0  0  0  0  0  0  0  0  0
   33.9870   28.3650   48.8280 C   0  0  0  0  0  0  0  0  0  0  0  0
   35.0330   28.3620   49.7240 C   0  0  0  0  0  0  0  0  0  0  0  0
   34.9540   31.0170   47.0070 H   0  0  0  0  0  0  0  0  0  0  0  0
   33.1780   27.6480   48.8530 H   0  0  0  0  0  0  0  0  0  0  0  0
   34.9990   27.5760   50.4790 H   0  0  0  0  0  0  0  0  0  0  0  0
   38.0280   33.1980   49.4120 C   0  0  0  0  0  0  0  0  0  0  0  0
   39.0350   33.1780   48.4210 C   0  0  0  0  0  0  0  0  0  0  0  0
   39.0050   32.1400   47.5020 C   0  0  0  0  0  0  0  0  0  0  0  0
   38.0160   31.1990   47.5920 N   0  0  0  0  0  0  0  0  0  0  0  0
   37.0620   31.2570   48.5660 C   0  0  0  0  0  0  0  0  0  0  0  0
   37.0800   32.2550   49.4620 N   0  0  0  0  0  0  0  0  0  0  0  0
   38.0710   34.0100   50.1130 H   0  0  0  0  0  0  0  0  0  0  0  0
   39.8100   33.9190   48.3520 H   0  0  0  0  0  0  0  0  0  0  0  0
   39.7210   32.0210   46.7020 H   0  0  0  0  0  0  0  0  0  0  0  0
   32.8390   29.3340   46.8820 N   0  0  0  0  0  0  0  0  0  0  0  0
   32.0360   28.1320   46.8890 C   0  0  0  0  0  2  0  0  0  0  0  0
   30.9080   28.1140   45.9300 C   0  0  0  0  0  2  0  0  0  0  0  0
   31.0440   29.0730   44.7810 C   0  0  0  0  0  3  0  0  0  0  0  0
   30.0250   29.1680   44.3360 H   0  0  0  0  0  0  0  0  0  0  0  0
   31.4650   30.4530   45.1990 C   0  0  0  0  0  2  0  0  0  0  0  0
   32.6780   30.5170   46.0570 C   0  0  0  0  0  2  0  0  0  0  0  0
  2  7  1  0  0  0  0
  2  1  1  0  0  0  0
  3  2  2  0  0  0  0
  4  5  2  0  0  0  0
  4  3  1  0  0  0  0
  5  6  1  0  0  0  0
  6  9  1  0  0  0  0
  6  7  2  0  0  0  0
  7 10  1  0  0  0  0
  8  4  1  0  0  0  0
 11 16  1  0  0  0  0
 11 17  1  0  0  0  0
 12 11  2  0  0  0  0
 13 14  2  0  0  0  0
 13 12  1  0  0  0  0
 14 15  1  0  0  0  0
 15  3  1  0  0  0  0
 15 16  2  0  0  0  0
 18 12  1  0  0  0  0
 19 13  1  0  0  0  0
 20 21  1  0  0  0  0
 20  5  1  0  0  0  0
 22 21  1  0  0  0  0
 23 25  1  0  0  0  0
 23 22  1  0  0  0  0
 24 23  1  0  0  0  0
 25 26  1  0  0  0  0
 26 20  1  0  0  0  0
M  END
>  <minimizedAffinity>
-5.85633993

>  <minimizedRMSD>
0.533634007

$$$$
