
 OpenBabel03272510143D

 26 28  0  0  0  0  0  0  0  0999 V2000
   37.4480   29.2320   50.9140 Br  0  0  0  0  0  0  0  0  0  0  0  0
   36.0240   29.2890   49.6430 C   0  0  0  0  0  0  0  0  0  0  0  0
   36.0070   30.2550   48.6650 C   0  0  0  0  0  0  0  0  0  0  0  0
   34.9400   30.2360   47.7750 C   0  0  0  0  0  0  0  0  0  0  0  0
   33.9180   29.3160   47.8200 C   0  0  0  0  0  0  0  0  0  0  0  0
   33.9870   28.3660   48.8270 C   0  0  0  0  0  0  0  0  0  0  0  0
   35.0330   28.3620   49.7230 C   0  0  0  0  0  0  0  0  0  0  0  0
   34.9530   31.0180   47.0070 H   0  0  0  0  0  0  0  0  0  0  0  0
   33.1780   27.6490   48.8520 H   0  0  0  0  0  0  0  0  0  0  0  0
   34.9990   27.5750   50.4780 H   0  0  0  0  0  0  0  0  0  0  0  0
   38.0280   33.1990   49.4120 C   0  0  0  0  0  0  0  0  0  0  0  0
   39.0350   33.1780   48.4220 C   0  0  0  0  0  0  0  0  0  0  0  0
   39.0050   32.1410   47.5030 C   0  0  0  0  0  0  0  0  0  0  0  0
   38.0170   31.1990   47.5920 N   0  0  0  0  0  0  0  0  0  0  0  0
   37.0620   31.2570   48.5670 C   0  0  0  0  0  0  0  0  0  0  0  0
   37.0800   32.2550   49.4630 N   0  0  0  0  0  0  0  0  0  0  0  0
   38.0710   34.0100   50.1140 H   0  0  0  0  0  0  0  0  0  0  0  0
   39.8110   33.9190   48.3530 H   0  0  0  0  0  0  0  0  0  0  0  0
   39.7210   32.0210   46.7020 H   0  0  0  0  0  0  0  0  0  0  0  0
   32.8390   29.3350   46.8820 N   0  0  0  0  0  0  0  0  0  0  0  0
   32.0370   28.1330   46.8890 C   0  0  0  0  0  2  0  0  0  0  0  0
   30.9080   28.1140   45.9300 C   0  0  0  0  0  2  0  0  0  0  0  0
   31.0430   29.0720   44.7810 C   0  0  0  0  0  3  0  0  0  0  0  0
   30.0240   29.1660   44.3360 H   0  0  0  0  0  0  0  0  0  0  0  0
   31.4630   30.4520   45.1990 C   0  0  0  0  0  2  0  0  0  0  0  0
   32.6770   30.5160   46.0560 C   0  0  0  0  0  2  0  0  0  0  0  0
  2  7  1  0  0  0  0
  2  1  1  0  0  0  0
  3  2  2  0  0  0  0
  4  5  2  0  0  0  0
  4  3  1  0  0  0  0
  5  6  1  0  0  0  0
  6  9  1  0  0  0  0
  6  7  2  0  0  0  0
  7 10  1  0  0  0  0
  8  4  1  0  0  0  0
 11 16  1  0  0  0  0
 11 17  1  0  0  0  0
 12 11  2  0  0  0  0
 13 14  2  0  0  0  0
 13 12  1  0  0  0  0
 14 15  1  0  0  0  0
 15  3  1  0  0  0  0
 15 16  2  0  0  0  0
 18 12  1  0  0  0  0
 19 13  1  0  0  0  0
 20 21  1  0  0  0  0
 20  5  1  0  0  0  0
 22 21  1  0  0  0  0
 23 25  1  0  0  0  0
 23 22  1  0  0  0  0
 24 23  1  0  0  0  0
 25 26  1  0  0  0  0
 26 20  1  0  0  0  0
M  END
>  <minimizedAffinity>
-5.85601425

>  <minimizedRMSD>
0.428186357

$$$$
