
 OpenBabel03272508253D

 23 25  0  0  1  0  0  0  0  0999 V2000
   37.7050   26.8260   35.3020 C   0  0  1  0  0  0  0  0  0  0  0  0
   38.6480   25.7310   35.1110 C   0  0  1  0  0  0  0  0  0  0  0  0
   39.1880   27.1320   35.1880 C   0  0  0  0  0  0  0  0  0  0  0  0
   37.2860   27.2020   36.2510 H   0  0  0  0  0  0  0  0  0  0  0  0
   38.6810   25.3230   34.0760 H   0  0  0  0  0  0  0  0  0  0  0  0
   39.5400   27.6470   34.2850 H   0  0  0  0  0  0  0  0  0  0  0  0
   39.7210   27.4660   36.0980 H   0  0  0  0  0  0  0  0  0  0  0  0
   36.9030   27.3480   34.1320 C   0  0  0  0  0  0  0  0  0  0  0  0
   36.1950   28.5540   34.3260 C   0  0  0  0  0  0  0  0  0  0  0  0
   35.4570   28.9990   33.2430 C   0  0  0  0  0  0  0  0  0  0  0  0
   35.4480   28.2870   32.0920 N   0  0  0  0  0  0  0  0  0  0  0  0
   36.1360   27.1360   31.9340 C   0  0  0  0  0  0  0  0  0  0  0  0
   36.8730   26.6640   32.9710 N   0  0  0  0  0  0  0  0  0  0  0  0
   36.2780   29.0310   35.2890 H   0  0  0  0  0  0  0  0  0  0  0  0
   34.9200   29.9120   33.3920 H   0  0  0  0  0  0  0  0  0  0  0  0
   36.0890   26.6130   30.9880 H   0  0  0  0  0  0  0  0  0  0  0  0
   38.9490   24.7380   36.0750 N   0  0  0  0  0  0  0  0  0  0  0  0
   39.6980   23.6100   35.6380 C   0  0  0  0  0  2  0  0  0  0  0  0
   40.4140   23.1080   36.9000 C   0  0  0  0  0  2  0  0  0  0  0  0
   39.3580   22.6710   37.8580 C   0  0  0  0  0  3  0  0  0  0  0  0
   38.7590   21.8640   37.4090 H   0  0  0  0  0  0  0  0  0  0  0  0
   38.4390   23.8240   38.2090 C   0  0  0  0  0  2  0  0  0  0  0  0
   37.8490   24.4130   36.9410 C   0  0  0  0  0  2  0  0  0  0  0  0
  1  4  1  1  0  0  0
  2  5  1  6  0  0  0
  2  3  1  0  0  0  0
  2  1  1  0  0  0  0
  2 17  1  0  0  0  0
  3  1  1  0  0  0  0
  3  7  1  0  0  0  0
  6  3  1  0  0  0  0
  8  9  1  0  0  0  0
  8  1  1  0  0  0  0
  9 14  1  0  0  0  0
 10 15  1  0  0  0  0
 10  9  2  0  0  0  0
 11 10  1  0  0  0  0
 12 11  2  0  0  0  0
 12 13  1  0  0  0  0
 13  8  2  0  0  0  0
 16 12  1  0  0  0  0
 17 23  1  0  0  0  0
 18 17  1  0  0  0  0
 18 19  1  0  0  0  0
 19 20  1  0  0  0  0
 20 22  1  0  0  0  0
 21 20  1  0  0  0  0
 23 22  1  0  0  0  0
M  END
>  <minimizedAffinity>
-4.51827431

$$$$

 OpenBabel03272508253D

 23 25  0  0  1  0  0  0  0  0999 V2000
   37.9460   25.5540   34.1160 C   0  0  1  0  0  0  0  0  0  0  0  0
   38.3920   24.2320   34.5380 C   0  0  1  0  0  0  0  0  0  0  0  0
   39.3490   25.0950   33.7610 C   0  0  0  0  0  0  0  0  0  0  0  0
   37.9620   26.4920   34.6970 H   0  0  0  0  0  0  0  0  0  0  0  0
   37.9930   23.3910   33.9270 H   0  0  0  0  0  0  0  0  0  0  0  0
   39.5690   24.8790   32.7080 H   0  0  0  0  0  0  0  0  0  0  0  0
   40.1990   25.5760   34.2790 H   0  0  0  0  0  0  0  0  0  0  0  0
   37.0500   25.7020   32.9080 C   0  0  0  0  0  0  0  0  0  0  0  0
   36.6920   27.0140   32.5310 C   0  0  0  0  0  0  0  0  0  0  0  0
   35.8580   27.1180   31.4310 C   0  0  0  0  0  0  0  0  0  0  0  0
   35.4390   26.0010   30.7920 N   0  0  0  0  0  0  0  0  0  0  0  0
   35.7970   24.7560   31.1760 C   0  0  0  0  0  0  0  0  0  0  0  0
   36.6140   24.6090   32.2490 N   0  0  0  0  0  0  0  0  0  0  0  0
   37.0880   27.8270   33.1180 H   0  0  0  0  0  0  0  0  0  0  0  0
   35.5870   28.1120   31.1470 H   0  0  0  0  0  0  0  0  0  0  0  0
   35.4290   23.9020   30.6240 H   0  0  0  0  0  0  0  0  0  0  0  0
   38.6270   23.8410   35.8790 N   0  0  0  0  0  0  0  0  0  0  0  0
   38.0010   24.6080   36.9020 C   0  0  0  0  0  2  0  0  0  0  0  0
   37.8610   23.6370   38.0820 C   0  0  0  0  0  2  0  0  0  0  0  0
   39.2410   23.2600   38.5070 C   0  0  0  0  0  3  0  0  0  0  0  0
   39.7940   24.1610   38.8120 H   0  0  0  0  0  0  0  0  0  0  0  0
   39.9890   22.5900   37.3720 C   0  0  0  0  0  2  0  0  0  0  0  0
   39.9950   23.4970   36.1550 C   0  0  0  0  0  2  0  0  0  0  0  0
  1  2  1  0  0  0  0
  1  4  1  1  0  0  0
  2  5  1  6  0  0  0
  2 17  1  0  0  0  0
  3  1  1  0  0  0  0
  3  7  1  0  0  0  0
  3  2  1  0  0  0  0
  6  3  1  0  0  0  0
  8  1  1  0  0  0  0
  9  8  1  0  0  0  0
  9 14  1  0  0  0  0
 10  9  2  0  0  0  0
 11 12  2  0  0  0  0
 11 10  1  0  0  0  0
 12 13  1  0  0  0  0
 13  8  2  0  0  0  0
 15 10  1  0  0  0  0
 16 12  1  0  0  0  0
 17 23  1  0  0  0  0
 17 18  1  0  0  0  0
 18 19  1  0  0  0  0
 19 20  1  0  0  0  0
 20 21  1  0  0  0  0
 22 20  1  0  0  0  0
 23 22  1  0  0  0  0
M  END
>  <minimizedAffinity>
-4.41052341

$$$$

 OpenBabel03272508253D

 23 25  0  0  1  0  0  0  0  0999 V2000
   38.6980   25.0890   34.8770 C   0  0  1  0  0  0  0  0  0  0  0  0
   37.6680   26.0950   34.6460 C   0  0  1  0  0  0  0  0  0  0  0  0
   39.0680   26.5600   34.9340 C   0  0  0  0  0  0  0  0  0  0  0  0
   39.2980   24.5490   34.1250 H   0  0  0  0  0  0  0  0  0  0  0  0
   36.9830   26.2630   35.5070 H   0  0  0  0  0  0  0  0  0  0  0  0
   39.3270   26.9890   35.9100 H   0  0  0  0  0  0  0  0  0  0  0  0
   39.6900   26.9710   34.1160 H   0  0  0  0  0  0  0  0  0  0  0  0
   38.7990   24.4030   36.2190 C   0  0  0  0  0  0  0  0  0  0  0  0
   39.8160   23.4370   36.3710 C   0  0  0  0  0  0  0  0  0  0  0  0
   39.8750   22.8130   37.6050 C   0  0  0  0  0  0  0  0  0  0  0  0
   38.9890   23.1450   38.5730 N   0  0  0  0  0  0  0  0  0  0  0  0
   38.0240   24.0740   38.4000 C   0  0  0  0  0  0  0  0  0  0  0  0
   37.9320   24.7100   37.2050 N   0  0  0  0  0  0  0  0  0  0  0  0
   40.4630   23.2570   35.5280 H   0  0  0  0  0  0  0  0  0  0  0  0
   40.6460   22.0810   37.7190 H   0  0  0  0  0  0  0  0  0  0  0  0
   37.3450   24.2950   39.2130 H   0  0  0  0  0  0  0  0  0  0  0  0
   37.0200   26.3280   33.4080 N   0  0  0  0  0  0  0  0  0  0  0  0
   37.1710   25.3390   32.3950 C   0  0  0  0  0  2  0  0  0  0  0  0
   35.9190   25.4880   31.5190 C   0  0  0  0  0  2  0  0  0  0  0  0
   35.9730   26.8480   30.9070 C   0  0  0  0  0  3  0  0  0  0  0  0
   36.8840   26.9460   30.2980 H   0  0  0  0  0  0  0  0  0  0  0  0
   35.9850   27.9200   31.9780 C   0  0  0  0  0  2  0  0  0  0  0  0
   37.1410   27.6790   32.9320 C   0  0  0  0  0  2  0  0  0  0  0  0
  1  4  1  6  0  0  0
  1  3  1  0  0  0  0
  1  8  1  0  0  0  0
  2  1  1  0  0  0  0
  2  3  1  0  0  0  0
  2  5  1  1  0  0  0
  3  6  1  0  0  0  0
  7  3  1  0  0  0  0
  8  9  2  0  0  0  0
  8 13  1  0  0  0  0
  9 10  1  0  0  0  0
 10 15  1  0  0  0  0
 10 11  2  0  0  0  0
 12 11  1  0  0  0  0
 12 16  1  0  0  0  0
 13 12  2  0  0  0  0
 14  9  1  0  0  0  0
 17  2  1  0  0  0  0
 18 17  1  0  0  0  0
 19 18  1  0  0  0  0
 20 19  1  0  0  0  0
 20 22  1  0  0  0  0
 21 20  1  0  0  0  0
 22 23  1  0  0  0  0
 23 17  1  0  0  0  0
M  END
>  <minimizedAffinity>
-4.38685513

$$$$

 OpenBabel03272508253D

 23 25  0  0  1  0  0  0  0  0999 V2000
   38.4240   25.7550   35.0410 C   0  0  1  0  0  0  0  0  0  0  0  0
   37.6040   26.9490   35.2020 C   0  0  1  0  0  0  0  0  0  0  0  0
   39.1000   27.0960   35.2640 C   0  0  0  0  0  0  0  0  0  0  0  0
   38.7590   25.2850   34.1000 H   0  0  0  0  0  0  0  0  0  0  0  0
   37.1300   27.0530   36.2040 H   0  0  0  0  0  0  0  0  0  0  0  0
   39.6070   27.2640   36.2220 H   0  0  0  0  0  0  0  0  0  0  0  0
   39.6420   27.5520   34.4140 H   0  0  0  0  0  0  0  0  0  0  0  0
   38.6100   24.8010   36.1980 C   0  0  0  0  0  0  0  0  0  0  0  0
   39.5820   23.7890   36.0460 C   0  0  0  0  0  0  0  0  0  0  0  0
   39.7190   22.9200   37.1150 C   0  0  0  0  0  0  0  0  0  0  0  0
   38.9460   23.0750   38.2150 N   0  0  0  0  0  0  0  0  0  0  0  0
   38.0230   24.0540   38.3340 C   0  0  0  0  0  0  0  0  0  0  0  0
   37.8560   24.9270   37.3090 N   0  0  0  0  0  0  0  0  0  0  0  0
   40.1370   23.7650   35.1230 H   0  0  0  0  0  0  0  0  0  0  0  0
   40.4550   22.1540   36.9990 H   0  0  0  0  0  0  0  0  0  0  0  0
   37.4350   24.1250   39.2390 H   0  0  0  0  0  0  0  0  0  0  0  0
   36.8160   27.5390   34.1850 N   0  0  0  0  0  0  0  0  0  0  0  0
   37.3010   27.4510   32.8490 C   0  0  0  0  0  2  0  0  0  0  0  0
   36.0420   27.5310   31.9740 C   0  0  0  0  0  2  0  0  0  0  0  0
   35.4340   28.8740   32.2030 C   0  0  0  0  0  3  0  0  0  0  0  0
   36.1510   29.6600   31.9190 H   0  0  0  0  0  0  0  0  0  0  0  0
   35.0630   29.0570   33.6610 C   0  0  0  0  0  2  0  0  0  0  0  0
   36.2840   28.8280   34.5330 C   0  0  0  0  0  2  0  0  0  0  0  0
  1  4  1  6  0  0  0
  1  2  1  0  0  0  0
  1  3  1  0  0  0  0
  1  8  1  0  0  0  0
  2  3  1  0  0  0  0
  2  5  1  1  0  0  0
  3  6  1  0  0  0  0
  7  3  1  0  0  0  0
  8 13  1  0  0  0  0
  9  8  2  0  0  0  0
  9 10  1  0  0  0  0
 10 11  2  0  0  0  0
 11 12  1  0  0  0  0
 12 16  1  0  0  0  0
 13 12  2  0  0  0  0
 14  9  1  0  0  0  0
 15 10  1  0  0  0  0
 17 23  1  0  0  0  0
 17  2  1  0  0  0  0
 18 17  1  0  0  0  0
 19 20  1  0  0  0  0
 19 18  1  0  0  0  0
 20 22  1  0  0  0  0
 21 20  1  0  0  0  0
 22 23  1  0  0  0  0
M  END
>  <minimizedAffinity>
-4.37167645

$$$$

 OpenBabel03272508253D

 23 25  0  0  1  0  0  0  0  0999 V2000
   38.7820   25.5920   34.8230 C   0  0  1  0  0  0  0  0  0  0  0  0
   38.0600   26.8500   34.9640 C   0  0  1  0  0  0  0  0  0  0  0  0
   39.5620   26.8820   34.9970 C   0  0  0  0  0  0  0  0  0  0  0  0
   39.0620   25.0720   33.8910 H   0  0  0  0  0  0  0  0  0  0  0  0
   37.6120   27.0180   35.9690 H   0  0  0  0  0  0  0  0  0  0  0  0
   40.0980   27.0360   35.9420 H   0  0  0  0  0  0  0  0  0  0  0  0
   40.1230   27.2710   34.1260 H   0  0  0  0  0  0  0  0  0  0  0  0
   38.9140   24.6580   36.0040 C   0  0  0  0  0  0  0  0  0  0  0  0
   37.9910   24.8240   37.0590 C   0  0  0  0  0  0  0  0  0  0  0  0
   38.1460   23.9650   38.1340 C   0  0  0  0  0  0  0  0  0  0  0  0
   39.1360   23.0420   38.1250 N   0  0  0  0  0  0  0  0  0  0  0  0
   40.0060   22.9060   37.1010 C   0  0  0  0  0  0  0  0  0  0  0  0
   39.8890   23.7270   36.0270 N   0  0  0  0  0  0  0  0  0  0  0  0
   37.2460   25.5940   36.9530 H   0  0  0  0  0  0  0  0  0  0  0  0
   37.4470   24.0920   38.9330 H   0  0  0  0  0  0  0  0  0  0  0  0
   40.7760   22.1490   37.1530 H   0  0  0  0  0  0  0  0  0  0  0  0
   37.3010   27.4730   33.9420 N   0  0  0  0  0  0  0  0  0  0  0  0
   36.1910   28.2680   34.3460 C   0  0  0  0  0  2  0  0  0  0  0  0
   36.0100   29.2840   33.2100 C   0  0  0  0  0  2  0  0  0  0  0  0
   35.6570   28.5130   31.9840 C   0  0  0  0  0  3  0  0  0  0  0  0
   34.7240   27.9520   32.1520 H   0  0  0  0  0  0  0  0  0  0  0  0
   36.7570   27.5320   31.6290 C   0  0  0  0  0  2  0  0  0  0  0  0
   37.0360   26.6240   32.8130 C   0  0  0  0  0  2  0  0  0  0  0  0
  1  4  1  6  0  0  0
  1  2  1  0  0  0  0
  1  3  1  0  0  0  0
  1  8  1  0  0  0  0
  2  3  1  0  0  0  0
  2  5  1  1  0  0  0
  3  6  1  0  0  0  0
  7  3  1  0  0  0  0
  8 13  2  0  0  0  0
  8  9  1  0  0  0  0
  9 10  2  0  0  0  0
 10 15  1  0  0  0  0
 11 10  1  0  0  0  0
 12 16  1  0  0  0  0
 12 11  2  0  0  0  0
 13 12  1  0  0  0  0
 14  9  1  0  0  0  0
 17 18  1  0  0  0  0
 17  2  1  0  0  0  0
 19 18  1  0  0  0  0
 20 21  1  0  0  0  0
 20 19  1  0  0  0  0
 22 20  1  0  0  0  0
 22 23  1  0  0  0  0
 23 17  1  0  0  0  0
M  END
>  <minimizedAffinity>
-4.33382511

$$$$

 OpenBabel03272508253D

 23 25  0  0  1  0  0  0  0  0999 V2000
   37.4070   26.7580   34.9690 C   0  0  1  0  0  0  0  0  0  0  0  0
   38.7230   26.1460   35.1040 C   0  0  1  0  0  0  0  0  0  0  0  0
   38.4960   27.4940   35.7290 C   0  0  0  0  0  0  0  0  0  0  0  0
   36.5160   26.5930   35.5970 H   0  0  0  0  0  0  0  0  0  0  0  0
   39.3590   26.2060   34.1920 H   0  0  0  0  0  0  0  0  0  0  0  0
   38.9180   28.4000   35.2760 H   0  0  0  0  0  0  0  0  0  0  0  0
   38.3950   27.5810   36.8270 H   0  0  0  0  0  0  0  0  0  0  0  0
   37.0200   27.4440   33.6790 C   0  0  0  0  0  0  0  0  0  0  0  0
   37.6640   27.0080   32.5020 C   0  0  0  0  0  0  0  0  0  0  0  0
   37.3020   27.6650   31.3380 C   0  0  0  0  0  0  0  0  0  0  0  0
   36.3830   28.6570   31.3810 N   0  0  0  0  0  0  0  0  0  0  0  0
   35.7820   29.0550   32.5230 C   0  0  0  0  0  0  0  0  0  0  0  0
   36.1080   28.4370   33.6860 N   0  0  0  0  0  0  0  0  0  0  0  0
   38.3810   26.2080   32.5920 H   0  0  0  0  0  0  0  0  0  0  0  0
   37.7910   27.3340   30.4470 H   0  0  0  0  0  0  0  0  0  0  0  0
   35.0540   29.8550   32.4920 H   0  0  0  0  0  0  0  0  0  0  0  0
   39.0070   24.9850   35.8650 N   0  0  0  0  0  0  0  0  0  0  0  0
   39.6870   23.9220   35.2050 C   0  0  0  0  0  2  0  0  0  0  0  0
   40.4190   23.1740   36.3280 C   0  0  0  0  0  2  0  0  0  0  0  0
   39.3750   22.6180   37.2360 C   0  0  0  0  0  3  0  0  0  0  0  0
   38.7230   21.9300   36.6760 H   0  0  0  0  0  0  0  0  0  0  0  0
   38.5240   23.7270   37.8230 C   0  0  0  0  0  2  0  0  0  0  0  0
   37.9220   24.5570   36.7030 C   0  0  0  0  0  2  0  0  0  0  0  0
  1  2  1  0  0  0  0
  1  4  1  1  0  0  0
  1  3  1  0  0  0  0
  2  5  1  6  0  0  0
  2  3  1  0  0  0  0
  2 17  1  0  0  0  0
  3  7  1  0  0  0  0
  6  3  1  0  0  0  0
  8 13  1  0  0  0  0
  8  1  1  0  0  0  0
  9 14  1  0  0  0  0
  9  8  2  0  0  0  0
 10 11  2  0  0  0  0
 10  9  1  0  0  0  0
 11 12  1  0  0  0  0
 12 13  2  0  0  0  0
 15 10  1  0  0  0  0
 16 12  1  0  0  0  0
 17 23  1  0  0  0  0
 18 17  1  0  0  0  0
 18 19  1  0  0  0  0
 19 20  1  0  0  0  0
 20 22  1  0  0  0  0
 21 20  1  0  0  0  0
 23 22  1  0  0  0  0
M  END
>  <minimizedAffinity>
-4.30147552

$$$$

 OpenBabel03272508253D

 23 25  0  0  1  0  0  0  0  0999 V2000
   36.2120   29.1830   32.1720 C   0  0  1  0  0  0  0  0  0  0  0  0
   36.4040   27.9190   32.8740 C   0  0  1  0  0  0  0  0  0  0  0  0
   36.3470   27.9000   31.3710 C   0  0  0  0  0  0  0  0  0  0  0  0
   36.9800   29.9210   31.8860 H   0  0  0  0  0  0  0  0  0  0  0  0
   35.4810   27.5010   33.3350 H   0  0  0  0  0  0  0  0  0  0  0  0
   35.4600   27.5230   30.8490 H   0  0  0  0  0  0  0  0  0  0  0  0
   37.2750   27.7470   30.7890 H   0  0  0  0  0  0  0  0  0  0  0  0
   34.8340   29.7950   32.0770 C   0  0  0  0  0  0  0  0  0  0  0  0
   33.8220   29.2270   32.8810 C   0  0  0  0  0  0  0  0  0  0  0  0
   32.5670   29.7970   32.7610 C   0  0  0  0  0  0  0  0  0  0  0  0
   32.3730   30.8340   31.9130 N   0  0  0  0  0  0  0  0  0  0  0  0
   33.3610   31.3580   31.1550 C   0  0  0  0  0  0  0  0  0  0  0  0
   34.6070   30.8290   31.2420 N   0  0  0  0  0  0  0  0  0  0  0  0
   34.0960   28.4020   33.5180 H   0  0  0  0  0  0  0  0  0  0  0  0
   31.8010   29.3660   33.3700 H   0  0  0  0  0  0  0  0  0  0  0  0
   33.1430   32.1880   30.4960 H   0  0  0  0  0  0  0  0  0  0  0  0
   37.5630   27.5600   33.6040 N   0  0  0  0  0  0  0  0  0  0  0  0
   38.5310   26.7560   32.9380 C   0  0  0  0  0  2  0  0  0  0  0  0
   39.8560   27.0860   33.6390 C   0  0  0  0  0  2  0  0  0  0  0  0
   39.7230   26.6430   35.0570 C   0  0  0  0  0  3  0  0  0  0  0  0
   39.5270   25.5610   35.0920 H   0  0  0  0  0  0  0  0  0  0  0  0
   38.5820   27.3680   35.7430 C   0  0  0  0  0  2  0  0  0  0  0  0
   37.2990   27.1610   34.9580 C   0  0  0  0  0  2  0  0  0  0  0  0
  1  4  1  6  0  0  0
  1  2  1  0  0  0  0
  2  5  1  1  0  0  0
  2 17  1  0  0  0  0
  3  1  1  0  0  0  0
  3  2  1  0  0  0  0
  6  3  1  0  0  0  0
  7  3  1  0  0  0  0
  8  1  1  0  0  0  0
  8  9  1  0  0  0  0
  9 14  1  0  0  0  0
 10  9  2  0  0  0  0
 10 15  1  0  0  0  0
 11 10  1  0  0  0  0
 12 13  1  0  0  0  0
 12 11  2  0  0  0  0
 13  8  2  0  0  0  0
 16 12  1  0  0  0  0
 17 23  1  0  0  0  0
 18 17  1  0  0  0  0
 18 19  1  0  0  0  0
 19 20  1  0  0  0  0
 20 21  1  0  0  0  0
 20 22  1  0  0  0  0
 23 22  1  0  0  0  0
M  END
>  <minimizedAffinity>
-4.10889435

$$$$

 OpenBabel03272508253D

 23 25  0  0  1  0  0  0  0  0999 V2000
   37.0820   24.0740   32.2150 C   0  0  1  0  0  0  0  0  0  0  0  0
   36.4140   23.3070   31.1720 C   0  0  1  0  0  0  0  0  0  0  0  0
   37.8280   23.7570   30.9310 C   0  0  0  0  0  0  0  0  0  0  0  0
   37.6180   23.6910   33.1000 H   0  0  0  0  0  0  0  0  0  0  0  0
   35.6790   23.8860   30.5690 H   0  0  0  0  0  0  0  0  0  0  0  0
   38.0430   24.5840   30.2430 H   0  0  0  0  0  0  0  0  0  0  0  0
   38.6540   23.0230   30.9790 H   0  0  0  0  0  0  0  0  0  0  0  0
   36.7880   25.5480   32.3780 C   0  0  0  0  0  0  0  0  0  0  0  0
   37.4110   26.2110   33.4570 C   0  0  0  0  0  0  0  0  0  0  0  0
   37.1110   27.5560   33.5910 C   0  0  0  0  0  0  0  0  0  0  0  0
   36.2670   28.1510   32.7160 N   0  0  0  0  0  0  0  0  0  0  0  0
   35.6840   27.4910   31.6920 C   0  0  0  0  0  0  0  0  0  0  0  0
   35.9510   26.1710   31.5240 N   0  0  0  0  0  0  0  0  0  0  0  0
   38.0640   25.6320   34.0890 H   0  0  0  0  0  0  0  0  0  0  0  0
   37.5830   28.0570   34.4090 H   0  0  0  0  0  0  0  0  0  0  0  0
   35.0180   28.0230   31.0260 H   0  0  0  0  0  0  0  0  0  0  0  0
   36.0490   21.9420   31.2720 N   0  0  0  0  0  0  0  0  0  0  0  0
   35.3510   21.5370   32.4450 C   0  0  0  0  0  2  0  0  0  0  0  0
   34.5430   20.3060   32.0090 C   0  0  0  0  0  2  0  0  0  0  0  0
   35.5240   19.2540   31.6170 C   0  0  0  0  0  3  0  0  0  0  0  0
   36.1680   19.0080   32.4750 H   0  0  0  0  0  0  0  0  0  0  0  0
   36.3970   19.7300   30.4730 C   0  0  0  0  0  2  0  0  0  0  0  0
   37.0800   21.0310   30.8570 C   0  0  0  0  0  2  0  0  0  0  0  0
  1  8  1  0  0  0  0
  1  4  1  1  0  0  0
  2  5  1  6  0  0  0
  2 17  1  0  0  0  0
  2  1  1  0  0  0  0
  3  7  1  0  0  0  0
  3  2  1  0  0  0  0
  3  1  1  0  0  0  0
  6  3  1  0  0  0  0
  8  9  1  0  0  0  0
  9 10  2  0  0  0  0
  9 14  1  0  0  0  0
 10 15  1  0  0  0  0
 11 10  1  0  0  0  0
 12 11  2  0  0  0  0
 13 12  1  0  0  0  0
 13  8  2  0  0  0  0
 16 12  1  0  0  0  0
 17 18  1  0  0  0  0
 19 18  1  0  0  0  0
 20 19  1  0  0  0  0
 20 21  1  0  0  0  0
 22 23  1  0  0  0  0
 22 20  1  0  0  0  0
 23 17  1  0  0  0  0
M  END
>  <minimizedAffinity>
-4.03895855

$$$$

 OpenBabel03272508253D

 23 25  0  0  1  0  0  0  0  0999 V2000
   38.6190   24.5820   34.8600 C   0  0  1  0  0  0  0  0  0  0  0  0
   38.8210   25.9920   34.5500 C   0  0  1  0  0  0  0  0  0  0  0  0
   39.9420   25.0310   34.2670 C   0  0  0  0  0  0  0  0  0  0  0  0
   38.1340   23.8130   34.2340 H   0  0  0  0  0  0  0  0  0  0  0  0
   39.0310   26.6360   35.4340 H   0  0  0  0  0  0  0  0  0  0  0  0
   40.8310   25.0020   34.9090 H   0  0  0  0  0  0  0  0  0  0  0  0
   40.1670   24.7420   33.2230 H   0  0  0  0  0  0  0  0  0  0  0  0
   38.7460   24.0940   36.2850 C   0  0  0  0  0  0  0  0  0  0  0  0
   37.8870   24.6760   37.2410 C   0  0  0  0  0  0  0  0  0  0  0  0
   38.0360   24.2220   38.5400 C   0  0  0  0  0  0  0  0  0  0  0  0
   38.9630   23.2770   38.8230 N   0  0  0  0  0  0  0  0  0  0  0  0
   39.7720   22.7370   37.8870 C   0  0  0  0  0  0  0  0  0  0  0  0
   39.6590   23.1530   36.6010 N   0  0  0  0  0  0  0  0  0  0  0  0
   37.1880   25.4210   36.8970 H   0  0  0  0  0  0  0  0  0  0  0  0
   37.3860   24.6640   39.2640 H   0  0  0  0  0  0  0  0  0  0  0  0
   40.4940   21.9840   38.1760 H   0  0  0  0  0  0  0  0  0  0  0  0
   38.1460   26.7070   33.5300 N   0  0  0  0  0  0  0  0  0  0  0  0
   38.9310   27.2030   32.4520 C   0  0  0  0  0  2  0  0  0  0  0  0
   37.9540   27.2980   31.2720 C   0  0  0  0  0  2  0  0  0  0  0  0
   36.9150   28.3020   31.6430 C   0  0  0  0  0  3  0  0  0  0  0  0
   37.3910   29.2770   31.8290 H   0  0  0  0  0  0  0  0  0  0  0  0
   36.1750   27.8740   32.8950 C   0  0  0  0  0  2  0  0  0  0  0  0
   37.1670   27.6360   34.0200 C   0  0  0  0  0  2  0  0  0  0  0  0
  1  4  1  6  0  0  0
  1  8  1  0  0  0  0
  2  1  1  0  0  0  0
  2  5  1  1  0  0  0
  3  2  1  0  0  0  0
  3  1  1  0  0  0  0
  3  6  1  0  0  0  0
  7  3  1  0  0  0  0
  8 13  2  0  0  0  0
  8  9  1  0  0  0  0
  9 10  2  0  0  0  0
 10 11  1  0  0  0  0
 10 15  1  0  0  0  0
 12 16  1  0  0  0  0
 12 11  2  0  0  0  0
 13 12  1  0  0  0  0
 14  9  1  0  0  0  0
 17 23  1  0  0  0  0
 17  2  1  0  0  0  0
 18 17  1  0  0  0  0
 19 20  1  0  0  0  0
 19 18  1  0  0  0  0
 20 21  1  0  0  0  0
 20 22  1  0  0  0  0
 22 23  1  0  0  0  0
M  END
>  <minimizedAffinity>
-4.00991964

$$$$
