
 OpenBabel03272510153D

 26 28  0  0  0  0  0  0  0  0999 V2000
   37.4680   29.2160   50.8900 Br  0  0  0  0  0  0  0  0  0  0  0  0
   36.0350   29.2880   49.6300 C   0  0  0  0  0  0  0  0  0  0  0  0
   36.0110   30.2640   48.6630 C   0  0  0  0  0  0  0  0  0  0  0  0
   34.9370   30.2550   47.7810 C   0  0  0  0  0  0  0  0  0  0  0  0
   33.9150   29.3350   47.8220 C   0  0  0  0  0  0  0  0  0  0  0  0
   33.9910   28.3740   48.8180 C   0  0  0  0  0  0  0  0  0  0  0  0
   35.0440   28.3590   49.7070 C   0  0  0  0  0  0  0  0  0  0  0  0
   34.9460   31.0460   47.0210 H   0  0  0  0  0  0  0  0  0  0  0  0
   33.1830   27.6570   48.8420 H   0  0  0  0  0  0  0  0  0  0  0  0
   35.0160   27.5650   50.4530 H   0  0  0  0  0  0  0  0  0  0  0  0
   38.0330   33.2040   49.4220 C   0  0  0  0  0  0  0  0  0  0  0  0
   39.0380   33.1890   48.4300 C   0  0  0  0  0  0  0  0  0  0  0  0
   39.0060   32.1570   47.5050 C   0  0  0  0  0  0  0  0  0  0  0  0
   38.0180   31.2150   47.5910 N   0  0  0  0  0  0  0  0  0  0  0  0
   37.0650   31.2670   48.5680 C   0  0  0  0  0  0  0  0  0  0  0  0
   37.0850   32.2600   49.4700 N   0  0  0  0  0  0  0  0  0  0  0  0
   38.0780   34.0120   50.1290 H   0  0  0  0  0  0  0  0  0  0  0  0
   39.8130   33.9310   48.3640 H   0  0  0  0  0  0  0  0  0  0  0  0
   39.7200   32.0430   46.7020 H   0  0  0  0  0  0  0  0  0  0  0  0
   32.8300   29.3650   46.8930 N   0  0  0  0  0  0  0  0  0  0  0  0
   32.7580   30.5830   46.1150 C   0  0  0  0  0  2  0  0  0  0  0  0
   31.6470   30.6520   45.1410 C   0  0  0  0  0  2  0  0  0  0  0  0
   30.5000   29.7240   45.4260 C   0  0  0  0  0  3  0  0  0  0  0  0
   29.9090   29.6650   44.4810 H   0  0  0  0  0  0  0  0  0  0  0  0
   30.9310   28.3260   45.7590 C   0  0  0  0  0  2  0  0  0  0  0  0
   31.9530   28.2110   46.8340 C   0  0  0  0  0  2  0  0  0  0  0  0
  2  7  1  0  0  0  0
  2  1  1  0  0  0  0
  3  2  2  0  0  0  0
  4  5  2  0  0  0  0
  4  3  1  0  0  0  0
  5  6  1  0  0  0  0
  6  9  1  0  0  0  0
  6  7  2  0  0  0  0
  7 10  1  0  0  0  0
  8  4  1  0  0  0  0
 11 16  1  0  0  0  0
 11 17  1  0  0  0  0
 12 11  2  0  0  0  0
 13 14  2  0  0  0  0
 13 12  1  0  0  0  0
 14 15  1  0  0  0  0
 15  3  1  0  0  0  0
 15 16  2  0  0  0  0
 18 12  1  0  0  0  0
 19 13  1  0  0  0  0
 20  5  1  0  0  0  0
 21 20  1  0  0  0  0
 22 23  1  0  0  0  0
 22 21  1  0  0  0  0
 23 25  1  0  0  0  0
 24 23  1  0  0  0  0
 25 26  1  0  0  0  0
 26 20  1  0  0  0  0
M  END
>  <minimizedAffinity>
-5.88666677

>  <minimizedRMSD>
0.579845548

$$$$
