
 OpenBabel03262521113D

 29 31  0  0  0  0  0  0  0  0999 V2000
   33.1960   30.1840   45.7740 O   0  0  0  0  0  0  0  0  0  0  0  0
   31.8920   29.7850   46.0710 C   0  0  0  0  0  0  0  0  0  0  0  0
   30.6850   30.2600   45.5830 C   0  0  0  0  0  0  0  0  0  0  0  0
   29.6800   29.5900   46.1390 N   0  0  0  0  0  0  0  0  0  0  0  0
   30.1980   28.6890   46.9780 C   0  0  0  0  0  0  0  0  0  0  0  0
   31.5390   28.7990   46.9430 N   0  0  0  0  0  0  0  0  0  0  0  0
   30.7100   31.0700   44.8540 H   0  0  0  0  0  0  0  0  0  0  0  0
   28.6690   29.7670   45.9300 H   0  0  0  0  0  0  0  0  0  0  0  0
   29.4890   27.7590   47.7820 N   0  0  0  0  0  0  0  0  0  0  0  0
   29.9880   27.2820   49.0570 C   0  0  0  0  0  0  0  0  0  0  0  0
   29.0420   27.7810   50.1260 C   0  0  0  0  0  0  0  0  0  0  0  0
   27.6410   27.3880   49.8060 C   0  0  0  0  0  0  0  0  0  0  0  0
   26.9430   28.2670   49.8670 H   0  0  0  0  0  0  0  0  0  0  0  0
   27.4540   26.6230   48.5390 C   0  0  0  0  0  0  0  0  0  0  0  0
   28.2060   27.2240   47.3710 C   0  0  0  0  0  0  0  0  0  0  0  0
   35.7260   29.9300   46.1640 O   0  0  0  0  0  0  0  0  0  0  0  0
   34.4090   29.6400   46.8370 P   0  0  2  0  0  0  0  0  0  0  0  0
   34.2250   27.9870   47.1620 O   0  0  0  0  0  0  0  0  0  0  0  0
   33.6850   27.8410   47.9770 H   0  0  0  0  0  0  0  0  0  0  0  0
   34.2610   30.4640   48.3330 O   0  0  0  0  0  0  0  0  0  0  0  0
   35.2000   30.3190   49.3500 C   0  0  0  0  0  0  0  0  0  0  0  0
   35.1660   29.3790   50.3790 C   0  0  0  0  0  0  0  0  0  0  0  0
   36.2040   29.4020   51.2960 C   0  0  0  0  0  0  0  0  0  0  0  0
   37.2010   30.3080   51.1820 N   0  0  0  0  0  0  0  0  0  0  0  0
   37.2050   31.2210   50.1580 C   0  0  0  0  0  0  0  0  0  0  0  0
   36.2020   31.2170   49.2500 N   0  0  0  0  0  0  0  0  0  0  0  0
   34.3270   28.7110   50.3660 H   0  0  0  0  0  0  0  0  0  0  0  0
   36.1650   28.6650   52.0910 H   0  0  0  0  0  0  0  0  0  0  0  0
   38.0150   31.9390   50.0860 H   0  0  0  0  0  0  0  0  0  0  0  0
  1  2  1  0  0  0  0
  1 17  1  0  0  0  0
  2  6  1  0  0  0  0
  3  2  2  0  0  0  0
  3  4  1  0  0  0  0
  4  5  1  0  0  0  0
  5  9  1  0  0  0  0
  6  5  2  0  0  0  0
  7  3  1  0  0  0  0
  8  4  1  0  0  0  0
  9 10  1  0  0  0  0
 10 11  1  0  0  0  0
 12 13  1  0  0  0  0
 12 11  1  0  0  0  0
 14 12  1  0  0  0  0
 15  9  1  0  0  0  0
 15 14  1  0  0  0  0
 17 16  2  6  0  0  0
 17 18  1  0  0  0  0
 17 20  1  0  0  0  0
 18 19  1  0  0  0  0
 20 21  1  0  0  0  0
 21 22  1  0  0  0  0
 22 23  2  0  0  0  0
 23 28  1  0  0  0  0
 24 23  1  0  0  0  0
 25 24  2  0  0  0  0
 26 21  2  0  0  0  0
 26 25  1  0  0  0  0
 27 22  1  0  0  0  0
 29 25  1  0  0  0  0
M  END
>  <minimizedAffinity>
-5.25552607

>  <minimizedRMSD>
1.40241027

$$$$
