
 OpenBabel03272508243D

 23 25  0  0  1  0  0  0  0  0999 V2000
   35.7740   30.5540   49.0740 C   0  0  1  0  0  0  0  0  0  0  0  0
   35.4680   29.4020   48.2350 C   0  0  1  0  0  0  0  0  0  0  0  0
   36.1640   29.1650   49.5460 C   0  0  0  0  0  0  0  0  0  0  0  0
   35.1130   31.0580   49.7990 H   0  0  0  0  0  0  0  0  0  0  0  0
   36.1510   29.2670   47.3660 H   0  0  0  0  0  0  0  0  0  0  0  0
   37.2310   28.9120   49.5770 H   0  0  0  0  0  0  0  0  0  0  0  0
   35.6030   28.7290   50.3940 H   0  0  0  0  0  0  0  0  0  0  0  0
   36.9670   31.4260   48.7580 C   0  0  0  0  0  0  0  0  0  0  0  0
   37.3230   32.3990   49.7170 C   0  0  0  0  0  0  0  0  0  0  0  0
   38.4090   33.1930   49.3940 C   0  0  0  0  0  0  0  0  0  0  0  0
   39.0560   33.0090   48.2200 N   0  0  0  0  0  0  0  0  0  0  0  0
   38.6930   32.0700   47.3190 C   0  0  0  0  0  0  0  0  0  0  0  0
   37.6340   31.2690   47.5960 N   0  0  0  0  0  0  0  0  0  0  0  0
   36.7320   32.4520   50.6170 H   0  0  0  0  0  0  0  0  0  0  0  0
   38.6770   33.9300   50.1210 H   0  0  0  0  0  0  0  0  0  0  0  0
   39.2510   31.9720   46.3980 H   0  0  0  0  0  0  0  0  0  0  0  0
   34.1660   28.9190   47.9570 N   0  0  0  0  0  0  0  0  0  0  0  0
   33.7850   27.6870   48.5600 C   0  0  0  0  0  0  0  0  0  0  0  0
   32.2540   27.7610   48.6570 C   0  0  0  0  0  0  0  0  0  0  0  0
   31.7300   27.8230   47.2610 C   0  0  0  0  0  0  0  0  0  0  0  0
   32.0390   26.9220   46.7080 H   0  0  0  0  0  0  0  0  0  0  0  0
   32.2620   29.0450   46.5400 C   0  0  0  0  0  0  0  0  0  0  0  0
   33.7800   29.0430   46.5790 C   0  0  0  0  0  0  0  0  0  0  0  0
  1  3  1  0  0  0  0
  1  4  1  1  0  0  0
  2  5  1  6  0  0  0
  2  1  1  0  0  0  0
  2  3  1  0  0  0  0
  3  6  1  0  0  0  0
  3  7  1  0  0  0  0
  8  1  1  0  0  0  0
  8  9  1  0  0  0  0
  9 14  1  0  0  0  0
 10  9  2  0  0  0  0
 10 15  1  0  0  0  0
 11 10  1  0  0  0  0
 12 13  1  0  0  0  0
 12 11  2  0  0  0  0
 13  8  2  0  0  0  0
 16 12  1  0  0  0  0
 17  2  1  0  0  0  0
 17 18  1  0  0  0  0
 18 19  1  0  0  0  0
 20 19  1  0  0  0  0
 21 20  1  0  0  0  0
 22 23  1  0  0  0  0
 22 20  1  0  0  0  0
 23 17  1  0  0  0  0
M  END
>  <minimizedAffinity>
-4.73211336

>  <minimizedRMSD>
1.93005335

$$$$
