
 OpenBabel03272508083D

 24 25  0  0  0  0  0  0  0  0999 V2000
   38.9670   32.7820   47.8890 O   0  0  0  0  0  0  0  0  0  0  0  0
   38.5430   31.6710   47.0000 P   0  0  2  0  0  0  0  0  0  0  0  0
   37.2350   32.1830   46.0310 O   0  0  0  0  0  0  0  0  0  0  0  0
   36.5820   32.6160   46.6670 H   0  0  0  0  0  0  0  0  0  0  0  0
   38.1360   30.2290   47.7930 O   0  0  0  0  0  0  0  0  0  0  0  0
   37.2910   30.2490   51.4040 C   0  0  0  0  0  0  0  0  0  0  0  0
   38.0510   30.5320   50.2650 C   0  0  0  0  0  0  0  0  0  0  0  0
   37.5860   30.0830   49.0310 C   0  0  0  0  0  0  0  0  0  0  0  0
   36.4100   29.3880   48.9940 N   0  0  0  0  0  0  0  0  0  0  0  0
   35.7060   29.1360   50.1090 C   0  0  0  0  0  0  0  0  0  0  0  0
   36.1440   29.5630   51.3090 N   0  0  0  0  0  0  0  0  0  0  0  0
   37.7430   30.6440   52.3090 H   0  0  0  0  0  0  0  0  0  0  0  0
   38.9600   31.0580   50.2110 H   0  0  0  0  0  0  0  0  0  0  0  0
   34.7690   28.5820   50.0900 H   0  0  0  0  0  0  0  0  0  0  0  0
   39.8060   31.3540   45.9090 O   0  0  0  0  0  0  0  0  0  0  0  0
   39.1700   29.0140   44.7440 F   0  0  0  0  0  0  0  0  0  0  0  0
   39.3780   30.1490   44.0020 C   0  0  0  0  0  0  0  0  0  0  0  0
   39.7100   31.3960   44.5410 C   0  0  0  0  0  0  0  0  0  0  0  0
   39.8820   32.4300   43.6410 C   0  0  0  0  0  0  0  0  0  0  0  0
   40.1390   33.3660   44.1580 H   0  0  0  0  0  0  0  0  0  0  0  0
   39.7320   32.2330   42.2980 C   0  0  0  0  0  0  0  0  0  0  0  0
   39.8850   33.0970   41.6640 H   0  0  0  0  0  0  0  0  0  0  0  0
   39.4100   31.0190   41.7800 C   0  0  0  0  0  3  0  0  0  0  0  0
   39.2270   29.9520   42.6440 C   0  0  0  0  0  3  0  0  0  0  0  0
  2  5  1  0  0  0  0
  2  1  2  1  0  0  0
  3  4  1  0  0  0  0
  3  2  1  0  0  0  0
  5  8  1  0  0  0  0
  6 12  1  0  0  0  0
  7  6  2  0  0  0  0
  8  7  1  0  0  0  0
  9  8  2  0  0  0  0
  9 10  1  0  0  0  0
 10 11  2  0  0  0  0
 11  6  1  0  0  0  0
 13  7  1  0  0  0  0
 14 10  1  0  0  0  0
 15  2  1  0  0  0  0
 17 18  1  0  0  0  0
 17 16  1  0  0  0  0
 18 15  1  0  0  0  0
 19 20  1  0  0  0  0
 19 18  2  0  0  0  0
 21 19  1  0  0  0  0
 22 21  1  0  0  0  0
 23 21  2  0  0  0  0
 23 24  1  0  0  0  0
 24 17  2  0  0  0  0
M  END
>  <minimizedAffinity>
-5.032022

>  <minimizedRMSD>
2.43462396

$$$$
