
 OpenBabel03272500233D

 37 39  0  0  0  0  0  0  0  0999 V2000
   38.1950   25.9750   36.7430 C   0  0  0  0  0  0  0  0  0  0  0  0
   38.2700   24.5630   36.7450 C   0  0  0  0  0  0  0  0  0  0  0  0
   38.2970   23.8780   35.5240 C   0  0  0  0  0  0  0  0  0  0  0  0
   38.2500   24.6270   34.3730 N   0  0  0  0  0  0  0  0  0  0  0  0
   38.1800   25.9540   34.3970 C   0  0  0  0  0  0  0  0  0  0  0  0
   38.1510   26.6360   35.5560 N   0  0  0  0  0  0  0  0  0  0  0  0
   38.1740   26.5070   37.6770 H   0  0  0  0  0  0  0  0  0  0  0  0
   36.0770   28.1280   34.2140 Cl  0  0  0  0  0  0  0  0  0  0  0  0
   37.1970   27.7170   32.9310 C   0  0  0  0  0  0  0  0  0  0  0  0
   38.1340   26.6880   33.1210 C   0  0  0  0  0  0  0  0  0  0  0  0
   39.0380   26.3280   32.1320 C   0  0  0  0  0  0  0  0  0  0  0  0
   38.9670   27.0440   30.9320 C   0  0  0  0  0  0  0  0  0  0  0  0
   38.0710   28.0410   30.7250 C   0  0  0  0  0  0  0  0  0  0  0  0
   38.0900   28.8640   29.1840 Cl  0  0  0  0  0  0  0  0  0  0  0  0
   37.1810   28.3760   31.7360 C   0  0  0  0  0  0  0  0  0  0  0  0
   39.7510   25.5360   32.2970 H   0  0  0  0  0  0  0  0  0  0  0  0
   39.6740   26.7680   30.1520 H   0  0  0  0  0  0  0  0  0  0  0  0
   36.1990   29.4650   31.5180 C   0  0  0  0  0  0  0  0  0  0  0  0
   36.1040   29.7700   30.1530 F   0  0  0  0  0  0  0  0  0  0  0  0
   36.4760   30.5830   32.2450 F   0  0  0  0  0  0  0  0  0  0  0  0
   34.9400   29.0310   31.8890 F   0  0  0  0  0  0  0  0  0  0  0  0
   38.3210   23.8570   38.0650 C   0  0  0  0  0  0  0  0  0  0  0  0
   39.5590   23.2710   38.2660 F   0  0  0  0  0  0  0  0  0  0  0  0
   38.1260   24.7970   39.0570 F   0  0  0  0  0  0  0  0  0  0  0  0
   37.3430   22.9020   38.1930 F   0  0  0  0  0  0  0  0  0  0  0  0
   38.3730   22.4240   35.5250 C   0  0  0  0  0  0  0  0  0  0  0  0
   38.0690   21.9520   36.4780 H   0  0  0  0  0  0  0  0  0  0  0  0
   39.4590   22.1570   35.3940 H   0  0  0  0  0  0  0  0  0  0  0  0
   36.0410   21.0620   36.2350 F   0  0  0  0  0  0  0  0  0  0  0  0
   36.3580   21.1500   34.9220 C   0  0  0  0  0  0  0  0  0  0  0  0
   37.5100   21.8170   34.4830 C   0  0  0  0  0  0  0  0  0  0  0  0
   37.7160   21.8350   33.1230 C   0  0  0  0  0  0  0  0  0  0  0  0
   38.6300   22.3700   32.8470 H   0  0  0  0  0  0  0  0  0  0  0  0
   36.8700   21.2480   32.2120 C   0  0  0  0  0  0  0  0  0  0  0  0
   37.1010   21.3080   31.1440 H   0  0  0  0  0  0  0  0  0  0  0  0
   35.7360   20.5940   32.6750 C   0  0  0  0  0  3  0  0  0  0  0  0
   35.4820   20.5450   34.0310 C   0  0  0  0  0  3  0  0  0  0  0  0
  1  2  1  0  0  0  0
  1  7  1  0  0  0  0
  2 22  1  0  0  0  0
  3 26  1  0  0  0  0
  3  2  2  0  0  0  0
  4  5  2  0  0  0  0
  4  3  1  0  0  0  0
  5  6  1  0  0  0  0
  6  1  2  0  0  0  0
  9 10  1  0  0  0  0
  9  8  1  0  0  0  0
 10  5  1  0  0  0  0
 11 16  1  0  0  0  0
 11 10  2  0  0  0  0
 12 11  1  0  0  0  0
 13 12  2  0  0  0  0
 13 15  1  0  0  0  0
 14 13  1  0  0  0  0
 15  9  2  0  0  0  0
 17 12  1  0  0  0  0
 18 15  1  0  0  0  0
 18 21  1  0  0  0  0
 18 20  1  0  0  0  0
 19 18  1  0  0  0  0
 22 25  1  0  0  0  0
 22 23  1  0  0  0  0
 22 24  1  0  0  0  0
 26 27  1  0  0  0  0
 28 26  1  0  0  0  0
 30 29  1  0  0  0  0
 31 30  1  0  0  0  0
 31 26  1  0  0  0  0
 32 31  2  0  0  0  0
 33 32  1  0  0  0  0
 34 36  2  0  0  0  0
 34 32  1  0  0  0  0
 35 34  1  0  0  0  0
 36 37  1  0  0  0  0
 37 30  2  0  0  0  0
M  END
>  <minimizedAffinity>
-6.98274612

$$$$

 OpenBabel03272500233D

 37 39  0  0  0  0  0  0  0  0999 V2000
   35.5190   30.6100   30.7750 C   0  0  0  0  0  0  0  0  0  0  0  0
   36.3510   29.4660   30.7860 C   0  0  0  0  0  0  0  0  0  0  0  0
   36.1370   28.4750   31.7510 C   0  0  0  0  0  0  0  0  0  0  0  0
   35.1140   28.6700   32.6490 N   0  0  0  0  0  0  0  0  0  0  0  0
   34.3450   29.7540   32.6170 C   0  0  0  0  0  0  0  0  0  0  0  0
   34.5300   30.7210   31.7020 N   0  0  0  0  0  0  0  0  0  0  0  0
   35.6780   31.3740   30.0360 H   0  0  0  0  0  0  0  0  0  0  0  0
   35.1480   31.0320   35.2450 Cl  0  0  0  0  0  0  0  0  0  0  0  0
   33.5330   30.4720   34.8640 C   0  0  0  0  0  0  0  0  0  0  0  0
   33.2690   29.8910   33.6130 C   0  0  0  0  0  0  0  0  0  0  0  0
   32.0050   29.4320   33.2690 C   0  0  0  0  0  0  0  0  0  0  0  0
   31.0050   29.5780   34.2370 C   0  0  0  0  0  0  0  0  0  0  0  0
   31.2360   30.1350   35.4520 C   0  0  0  0  0  0  0  0  0  0  0  0
   29.8990   30.2660   36.5700 Cl  0  0  0  0  0  0  0  0  0  0  0  0
   32.5120   30.5840   35.7630 C   0  0  0  0  0  0  0  0  0  0  0  0
   31.8210   28.9910   32.3030 H   0  0  0  0  0  0  0  0  0  0  0  0
   30.0110   29.2220   33.9740 H   0  0  0  0  0  0  0  0  0  0  0  0
   32.7720   31.1940   37.0880 C   0  0  0  0  0  0  0  0  0  0  0  0
   31.9460   32.3100   37.2830 F   0  0  0  0  0  0  0  0  0  0  0  0
   34.0820   31.5230   37.2730 F   0  0  0  0  0  0  0  0  0  0  0  0
   32.4270   30.2990   38.0840 F   0  0  0  0  0  0  0  0  0  0  0  0
   37.4300   29.3640   29.7520 C   0  0  0  0  0  0  0  0  0  0  0  0
   37.1910   28.3090   28.8890 F   0  0  0  0  0  0  0  0  0  0  0  0
   37.4240   30.5310   29.0150 F   0  0  0  0  0  0  0  0  0  0  0  0
   38.6790   29.2220   30.3040 F   0  0  0  0  0  0  0  0  0  0  0  0
   36.9930   27.2980   31.7650 C   0  0  0  0  0  0  0  0  0  0  0  0
   37.7010   27.2390   30.9170 H   0  0  0  0  0  0  0  0  0  0  0  0
   36.3170   26.4050   31.6480 H   0  0  0  0  0  0  0  0  0  0  0  0
   39.7620   26.9820   31.5770 F   0  0  0  0  0  0  0  0  0  0  0  0
   39.2070   27.0640   32.8090 C   0  0  0  0  0  0  0  0  0  0  0  0
   37.8260   27.2240   32.9890 C   0  0  0  0  0  0  0  0  0  0  0  0
   37.3910   27.2940   34.2920 C   0  0  0  0  0  0  0  0  0  0  0  0
   36.3060   27.4180   34.3630 H   0  0  0  0  0  0  0  0  0  0  0  0
   38.2240   27.2170   35.3830 C   0  0  0  0  0  0  0  0  0  0  0  0
   37.8020   27.2840   36.3900 H   0  0  0  0  0  0  0  0  0  0  0  0
   39.5880   27.0590   35.1760 C   0  0  0  0  0  3  0  0  0  0  0  0
   40.0780   26.9810   33.8870 C   0  0  0  0  0  3  0  0  0  0  0  0
  1  2  2  0  0  0  0
  1  6  1  0  0  0  0
  2  3  1  0  0  0  0
  3 26  1  0  0  0  0
  3  4  2  0  0  0  0
  5  4  1  0  0  0  0
  5 10  1  0  0  0  0
  6  5  2  0  0  0  0
  7  1  1  0  0  0  0
  9  8  1  0  0  0  0
  9 15  1  0  0  0  0
 10  9  2  0  0  0  0
 11 10  1  0  0  0  0
 11 12  2  0  0  0  0
 12 13  1  0  0  0  0
 13 15  2  0  0  0  0
 13 14  1  0  0  0  0
 15 18  1  0  0  0  0
 16 11  1  0  0  0  0
 17 12  1  0  0  0  0
 18 20  1  0  0  0  0
 18 19  1  0  0  0  0
 18 21  1  0  0  0  0
 22 25  1  0  0  0  0
 22  2  1  0  0  0  0
 23 22  1  0  0  0  0
 24 22  1  0  0  0  0
 26 31  1  0  0  0  0
 27 26  1  0  0  0  0
 28 26  1  0  0  0  0
 29 30  1  0  0  0  0
 30 31  2  0  0  0  0
 30 37  1  0  0  0  0
 31 32  1  0  0  0  0
 32 33  1  0  0  0  0
 32 34  2  0  0  0  0
 34 35  1  0  0  0  0
 36 34  1  0  0  0  0
 37 36  2  0  0  0  0
M  END
>  <minimizedAffinity>
-6.65993595

$$$$

 OpenBabel03272500233D

 37 39  0  0  0  0  0  0  0  0999 V2000
   38.0890   27.7070   31.3120 C   0  0  0  0  0  0  0  0  0  0  0  0
   37.0570   28.6670   31.4390 C   0  0  0  0  0  0  0  0  0  0  0  0
   36.3170   28.7200   32.6260 C   0  0  0  0  0  0  0  0  0  0  0  0
   36.6380   27.8240   33.6180 N   0  0  0  0  0  0  0  0  0  0  0  0
   37.6130   26.9320   33.4740 C   0  0  0  0  0  0  0  0  0  0  0  0
   38.3380   26.8590   32.3450 N   0  0  0  0  0  0  0  0  0  0  0  0
   38.6610   27.6610   30.4030 H   0  0  0  0  0  0  0  0  0  0  0  0
   37.7150   23.9960   32.7320 Cl  0  0  0  0  0  0  0  0  0  0  0  0
   37.9700   24.6230   34.3470 C   0  0  0  0  0  0  0  0  0  0  0  0
   37.8980   26.0060   34.5830 C   0  0  0  0  0  0  0  0  0  0  0  0
   38.0910   26.5450   35.8470 C   0  0  0  0  0  0  0  0  0  0  0  0
   38.3600   25.6380   36.8770 C   0  0  0  0  0  0  0  0  0  0  0  0
   38.4340   24.2990   36.6740 C   0  0  0  0  0  0  0  0  0  0  0  0
   38.7850   23.2720   38.0450 Cl  0  0  0  0  0  0  0  0  0  0  0  0
   38.2360   23.7920   35.3980 C   0  0  0  0  0  0  0  0  0  0  0  0
   38.0340   27.6090   36.0080 H   0  0  0  0  0  0  0  0  0  0  0  0
   38.5140   26.0530   37.8710 H   0  0  0  0  0  0  0  0  0  0  0  0
   38.3150   22.3300   35.1680 C   0  0  0  0  0  0  0  0  0  0  0  0
   37.0310   21.7920   35.0070 F   0  0  0  0  0  0  0  0  0  0  0  0
   38.9960   21.6750   36.1490 F   0  0  0  0  0  0  0  0  0  0  0  0
   38.9710   22.0860   33.9760 F   0  0  0  0  0  0  0  0  0  0  0  0
   36.8050   29.5940   30.2900 C   0  0  0  0  0  0  0  0  0  0  0  0
   35.4960   30.0450   30.2960 F   0  0  0  0  0  0  0  0  0  0  0  0
   37.6360   30.6850   30.4350 F   0  0  0  0  0  0  0  0  0  0  0  0
   37.0780   29.0150   29.0750 F   0  0  0  0  0  0  0  0  0  0  0  0
   35.2550   29.7070   32.7590 C   0  0  0  0  0  0  0  0  0  0  0  0
   34.2810   29.2880   33.0750 H   0  0  0  0  0  0  0  0  0  0  0  0
   35.0760   30.1300   31.7320 H   0  0  0  0  0  0  0  0  0  0  0  0
   35.8740   32.3030   31.9350 F   0  0  0  0  0  0  0  0  0  0  0  0
   35.8830   32.0310   33.2610 C   0  0  0  0  0  0  0  0  0  0  0  0
   35.5830   30.7540   33.7560 C   0  0  0  0  0  0  0  0  0  0  0  0
   35.6260   30.6110   35.1230 C   0  0  0  0  0  0  0  0  0  0  0  0
   35.3830   29.5930   35.4440 H   0  0  0  0  0  0  0  0  0  0  0  0
   35.9400   31.6300   35.9910 C   0  0  0  0  0  0  0  0  0  0  0  0
   35.9510   31.4390   37.0680 H   0  0  0  0  0  0  0  0  0  0  0  0
   36.2340   32.8860   35.4730 C   0  0  0  0  0  3  0  0  0  0  0  0
   36.2060   33.0840   34.1070 C   0  0  0  0  0  3  0  0  0  0  0  0
  1  2  2  0  0  0  0
  1  6  1  0  0  0  0
  2  3  1  0  0  0  0
  3 26  1  0  0  0  0
  3  4  2  0  0  0  0
  5  4  1  0  0  0  0
  5 10  1  0  0  0  0
  6  5  2  0  0  0  0
  7  1  1  0  0  0  0
  8  9  1  0  0  0  0
  9 10  2  0  0  0  0
  9 15  1  0  0  0  0
 10 11  1  0  0  0  0
 11 16  1  0  0  0  0
 11 12  2  0  0  0  0
 12 17  1  0  0  0  0
 13 12  1  0  0  0  0
 13 14  1  0  0  0  0
 15 13  2  0  0  0  0
 18 15  1  0  0  0  0
 18 20  1  0  0  0  0
 19 18  1  0  0  0  0
 21 18  1  0  0  0  0
 22 23  1  0  0  0  0
 22 24  1  0  0  0  0
 22  2  1  0  0  0  0
 25 22  1  0  0  0  0
 26 27  1  0  0  0  0
 26 31  1  0  0  0  0
 28 26  1  0  0  0  0
 29 30  1  0  0  0  0
 30 31  2  0  0  0  0
 30 37  1  0  0  0  0
 31 32  1  0  0  0  0
 32 33  1  0  0  0  0
 32 34  2  0  0  0  0
 34 35  1  0  0  0  0
 36 34  1  0  0  0  0
 37 36  2  0  0  0  0
M  END
>  <minimizedAffinity>
-6.6361661

$$$$

 OpenBabel03272500233D

 37 39  0  0  0  0  0  0  0  0999 V2000
   38.2980   26.2050   36.4310 C   0  0  0  0  0  0  0  0  0  0  0  0
   38.4410   24.8020   36.5420 C   0  0  0  0  0  0  0  0  0  0  0  0
   38.8080   24.0610   35.4130 C   0  0  0  0  0  0  0  0  0  0  0  0
   39.0140   24.7470   34.2400 N   0  0  0  0  0  0  0  0  0  0  0  0
   38.8750   26.0660   34.1610 C   0  0  0  0  0  0  0  0  0  0  0  0
   38.5220   26.8010   35.2290 N   0  0  0  0  0  0  0  0  0  0  0  0
   38.0170   26.7790   37.2940 H   0  0  0  0  0  0  0  0  0  0  0  0
   36.3990   27.0530   32.7190 Cl  0  0  0  0  0  0  0  0  0  0  0  0
   38.0350   27.2270   32.1190 C   0  0  0  0  0  0  0  0  0  0  0  0
   39.1140   26.7300   32.8680 C   0  0  0  0  0  0  0  0  0  0  0  0
   40.4260   26.8440   32.4300 C   0  0  0  0  0  0  0  0  0  0  0  0
   40.6180   27.4800   31.1980 C   0  0  0  0  0  0  0  0  0  0  0  0
   39.5920   27.9670   30.4570 C   0  0  0  0  0  0  0  0  0  0  0  0
   39.9670   28.7480   28.9390 Cl  0  0  0  0  0  0  0  0  0  0  0  0
   38.2920   27.8370   30.9250 C   0  0  0  0  0  0  0  0  0  0  0  0
   41.2410   26.4590   33.0200 H   0  0  0  0  0  0  0  0  0  0  0  0
   41.6440   27.5750   30.8490 H   0  0  0  0  0  0  0  0  0  0  0  0
   37.1660   28.3670   30.1200 C   0  0  0  0  0  0  0  0  0  0  0  0
   36.0740   27.4900   30.1720 F   0  0  0  0  0  0  0  0  0  0  0  0
   37.5140   28.6310   28.8290 F   0  0  0  0  0  0  0  0  0  0  0  0
   36.7180   29.5500   30.6770 F   0  0  0  0  0  0  0  0  0  0  0  0
   38.1940   24.1680   37.8760 C   0  0  0  0  0  0  0  0  0  0  0  0
   39.2730   23.3910   38.2630 F   0  0  0  0  0  0  0  0  0  0  0  0
   38.0370   25.1770   38.8040 F   0  0  0  0  0  0  0  0  0  0  0  0
   37.0550   23.4000   37.8950 F   0  0  0  0  0  0  0  0  0  0  0  0
   38.9540   22.6160   35.5260 C   0  0  0  0  0  0  0  0  0  0  0  0
   39.0790   22.2500   36.5620 H   0  0  0  0  0  0  0  0  0  0  0  0
   39.9110   22.3460   34.9990 H   0  0  0  0  0  0  0  0  0  0  0  0
   38.8230   21.9660   32.8120 F   0  0  0  0  0  0  0  0  0  0  0  0
   37.7930   21.6020   33.6100 C   0  0  0  0  0  0  0  0  0  0  0  0
   37.7810   21.8900   34.9820 C   0  0  0  0  0  0  0  0  0  0  0  0
   36.6750   21.4640   35.6790 C   0  0  0  0  0  0  0  0  0  0  0  0
   36.7290   21.7200   36.7430 H   0  0  0  0  0  0  0  0  0  0  0  0
   35.6200   20.7940   35.1080 C   0  0  0  0  0  0  0  0  0  0  0  0
   34.7750   20.4850   35.7300 H   0  0  0  0  0  0  0  0  0  0  0  0
   35.6570   20.5220   33.7460 C   0  0  0  0  0  3  0  0  0  0  0  0
   36.7440   20.9270   32.9980 C   0  0  0  0  0  3  0  0  0  0  0  0
  1  2  1  0  0  0  0
  1  7  1  0  0  0  0
  2 22  1  0  0  0  0
  3 26  1  0  0  0  0
  3  2  2  0  0  0  0
  4  3  1  0  0  0  0
  5  4  2  0  0  0  0
  5  6  1  0  0  0  0
  6  1  2  0  0  0  0
  9  8  1  0  0  0  0
  9 10  1  0  0  0  0
 10  5  1  0  0  0  0
 11 10  2  0  0  0  0
 11 16  1  0  0  0  0
 12 11  1  0  0  0  0
 13 15  1  0  0  0  0
 13 12  2  0  0  0  0
 14 13  1  0  0  0  0
 15  9  2  0  0  0  0
 17 12  1  0  0  0  0
 18 19  1  0  0  0  0
 18 21  1  0  0  0  0
 18 15  1  0  0  0  0
 20 18  1  0  0  0  0
 22 25  1  0  0  0  0
 22 23  1  0  0  0  0
 22 24  1  0  0  0  0
 26 27  1  0  0  0  0
 28 26  1  0  0  0  0
 29 30  1  0  0  0  0
 30 31  1  0  0  0  0
 31 26  1  0  0  0  0
 31 32  2  0  0  0  0
 32 33  1  0  0  0  0
 34 32  1  0  0  0  0
 34 35  1  0  0  0  0
 36 34  2  0  0  0  0
 37 30  2  0  0  0  0
 37 36  1  0  0  0  0
M  END
>  <minimizedAffinity>
-6.59339046

$$$$

 OpenBabel03272500233D

 37 39  0  0  0  0  0  0  0  0999 V2000
   38.0180   25.9710   36.6530 C   0  0  0  0  0  0  0  0  0  0  0  0
   38.1880   24.5680   36.7000 C   0  0  0  0  0  0  0  0  0  0  0  0
   38.2500   23.8460   35.5020 C   0  0  0  0  0  0  0  0  0  0  0  0
   38.1400   24.5520   34.3270 N   0  0  0  0  0  0  0  0  0  0  0  0
   37.9820   25.8710   34.3090 C   0  0  0  0  0  0  0  0  0  0  0  0
   37.9180   26.5870   35.4450 N   0  0  0  0  0  0  0  0  0  0  0  0
   37.9700   26.5310   37.5690 H   0  0  0  0  0  0  0  0  0  0  0  0
   40.6110   26.5700   32.9750 Cl  0  0  0  0  0  0  0  0  0  0  0  0
   39.0320   26.9230   32.3060 C   0  0  0  0  0  0  0  0  0  0  0  0
   37.8730   26.5560   33.0100 C   0  0  0  0  0  0  0  0  0  0  0  0
   36.6020   26.8190   32.5190 C   0  0  0  0  0  0  0  0  0  0  0  0
   36.5340   27.4710   31.2830 C   0  0  0  0  0  0  0  0  0  0  0  0
   37.6380   27.8360   30.5850 C   0  0  0  0  0  0  0  0  0  0  0  0
   37.4180   28.6380   29.0480 Cl  0  0  0  0  0  0  0  0  0  0  0  0
   38.8950   27.5570   31.1050 C   0  0  0  0  0  0  0  0  0  0  0  0
   35.7250   26.5280   33.0730 H   0  0  0  0  0  0  0  0  0  0  0  0
   35.5410   27.6790   30.8910 H   0  0  0  0  0  0  0  0  0  0  0  0
   40.1060   27.9520   30.3480 C   0  0  0  0  0  0  0  0  0  0  0  0
   40.3070   27.0880   29.2630 F   0  0  0  0  0  0  0  0  0  0  0  0
   41.2220   28.0170   31.1280 F   0  0  0  0  0  0  0  0  0  0  0  0
   39.9160   29.2050   29.7940 F   0  0  0  0  0  0  0  0  0  0  0  0
   38.3000   23.9120   38.0420 C   0  0  0  0  0  0  0  0  0  0  0  0
   39.5410   23.3190   38.2020 F   0  0  0  0  0  0  0  0  0  0  0  0
   38.1640   24.8900   39.0060 F   0  0  0  0  0  0  0  0  0  0  0  0
   37.3200   22.9730   38.2560 F   0  0  0  0  0  0  0  0  0  0  0  0
   38.4240   22.4020   35.5490 C   0  0  0  0  0  0  0  0  0  0  0  0
   38.1510   21.9400   36.5170 H   0  0  0  0  0  0  0  0  0  0  0  0
   39.5250   22.2040   35.4270 H   0  0  0  0  0  0  0  0  0  0  0  0
   35.9370   21.3220   36.2230 F   0  0  0  0  0  0  0  0  0  0  0  0
   36.3690   21.1910   34.9480 C   0  0  0  0  0  0  0  0  0  0  0  0
   37.6040   21.7040   34.5280 C   0  0  0  0  0  0  0  0  0  0  0  0
   37.9240   21.5040   33.2060 C   0  0  0  0  0  0  0  0  0  0  0  0
   38.8990   21.9280   32.9440 H   0  0  0  0  0  0  0  0  0  0  0  0
   37.1140   20.8450   32.3130 C   0  0  0  0  0  0  0  0  0  0  0  0
   37.4370   20.7270   31.2740 H   0  0  0  0  0  0  0  0  0  0  0  0
   35.8950   20.3450   32.7550 C   0  0  0  0  0  3  0  0  0  0  0  0
   35.5250   20.5180   34.0740 C   0  0  0  0  0  3  0  0  0  0  0  0
  1  2  1  0  0  0  0
  1  7  1  0  0  0  0
  2 22  1  0  0  0  0
  3 26  1  0  0  0  0
  3  2  2  0  0  0  0
  4  3  1  0  0  0  0
  5  4  2  0  0  0  0
  5  6  1  0  0  0  0
  6  1  2  0  0  0  0
  9  8  1  0  0  0  0
  9 10  1  0  0  0  0
 10  5  1  0  0  0  0
 11 10  2  0  0  0  0
 11 16  1  0  0  0  0
 12 11  1  0  0  0  0
 13 15  1  0  0  0  0
 13 12  2  0  0  0  0
 14 13  1  0  0  0  0
 15  9  2  0  0  0  0
 17 12  1  0  0  0  0
 18 15  1  0  0  0  0
 18 20  1  0  0  0  0
 19 18  1  0  0  0  0
 21 18  1  0  0  0  0
 22 23  1  0  0  0  0
 22 25  1  0  0  0  0
 22 24  1  0  0  0  0
 26 27  1  0  0  0  0
 28 26  1  0  0  0  0
 30 29  1  0  0  0  0
 31 30  1  0  0  0  0
 31 26  1  0  0  0  0
 32 31  2  0  0  0  0
 33 32  1  0  0  0  0
 34 36  2  0  0  0  0
 34 32  1  0  0  0  0
 35 34  1  0  0  0  0
 36 37  1  0  0  0  0
 37 30  2  0  0  0  0
M  END
>  <minimizedAffinity>
-6.58305359

$$$$

 OpenBabel03272500233D

 37 39  0  0  0  0  0  0  0  0999 V2000
   37.7060   28.2840   31.6780 C   0  0  0  0  0  0  0  0  0  0  0  0
   36.5430   29.0530   31.9190 C   0  0  0  0  0  0  0  0  0  0  0  0
   35.8020   28.8240   33.0840 C   0  0  0  0  0  0  0  0  0  0  0  0
   36.2510   27.8490   33.9440 N   0  0  0  0  0  0  0  0  0  0  0  0
   37.3470   27.1410   33.6950 C   0  0  0  0  0  0  0  0  0  0  0  0
   38.0770   27.3400   32.5840 N   0  0  0  0  0  0  0  0  0  0  0  0
   38.2790   28.4550   30.7860 H   0  0  0  0  0  0  0  0  0  0  0  0
   37.3910   24.2960   32.6520 Cl  0  0  0  0  0  0  0  0  0  0  0  0
   37.8230   24.7640   34.2830 C   0  0  0  0  0  0  0  0  0  0  0  0
   37.7650   26.1140   34.6650 C   0  0  0  0  0  0  0  0  0  0  0  0
   38.0960   26.5290   35.9470 C   0  0  0  0  0  0  0  0  0  0  0  0
   38.4890   25.5290   36.8430 C   0  0  0  0  0  0  0  0  0  0  0  0
   38.5520   24.2180   36.4990 C   0  0  0  0  0  0  0  0  0  0  0  0
   39.0660   23.0680   37.7100 Cl  0  0  0  0  0  0  0  0  0  0  0  0
   38.2150   23.8380   35.2080 C   0  0  0  0  0  0  0  0  0  0  0  0
   38.0480   27.5700   36.2210 H   0  0  0  0  0  0  0  0  0  0  0  0
   38.7510   25.8460   37.8510 H   0  0  0  0  0  0  0  0  0  0  0  0
   38.2810   22.4080   34.8230 C   0  0  0  0  0  0  0  0  0  0  0  0
   39.5680   21.9020   35.0470 F   0  0  0  0  0  0  0  0  0  0  0  0
   37.8900   22.1860   33.5360 F   0  0  0  0  0  0  0  0  0  0  0  0
   37.4450   21.6720   35.6420 F   0  0  0  0  0  0  0  0  0  0  0  0
   36.1570   30.0900   30.9100 C   0  0  0  0  0  0  0  0  0  0  0  0
   36.7120   31.3190   31.2250 F   0  0  0  0  0  0  0  0  0  0  0  0
   36.6540   29.6960   29.6850 F   0  0  0  0  0  0  0  0  0  0  0  0
   34.7960   30.2280   30.7870 F   0  0  0  0  0  0  0  0  0  0  0  0
   34.6050   29.6140   33.3340 C   0  0  0  0  0  0  0  0  0  0  0  0
   33.6900   29.0140   33.5020 H   0  0  0  0  0  0  0  0  0  0  0  0
   34.4050   30.2030   32.3960 H   0  0  0  0  0  0  0  0  0  0  0  0
   32.4650   29.9420   35.0990 F   0  0  0  0  0  0  0  0  0  0  0  0
   33.6220   30.5910   35.3650 C   0  0  0  0  0  0  0  0  0  0  0  0
   34.7420   30.4790   34.5300 C   0  0  0  0  0  0  0  0  0  0  0  0
   35.8550   31.1910   34.9130 C   0  0  0  0  0  0  0  0  0  0  0  0
   36.6930   31.0600   34.2200 H   0  0  0  0  0  0  0  0  0  0  0  0
   35.9120   31.9770   36.0390 C   0  0  0  0  0  0  0  0  0  0  0  0
   36.8360   32.5110   36.2800 H   0  0  0  0  0  0  0  0  0  0  0  0
   34.7870   32.0700   36.8490 C   0  0  0  0  0  3  0  0  0  0  0  0
   33.6420   31.3770   36.5100 C   0  0  0  0  0  3  0  0  0  0  0  0
  1  2  2  0  0  0  0
  1  6  1  0  0  0  0
  2  3  1  0  0  0  0
  3 26  1  0  0  0  0
  3  4  2  0  0  0  0
  5  4  1  0  0  0  0
  5 10  1  0  0  0  0
  6  5  2  0  0  0  0
  7  1  1  0  0  0  0
  8  9  1  0  0  0  0
  9 10  2  0  0  0  0
  9 15  1  0  0  0  0
 10 11  1  0  0  0  0
 11 16  1  0  0  0  0
 11 12  2  0  0  0  0
 12 17  1  0  0  0  0
 13 12  1  0  0  0  0
 13 14  1  0  0  0  0
 15 13  2  0  0  0  0
 18 19  1  0  0  0  0
 18 15  1  0  0  0  0
 18 21  1  0  0  0  0
 20 18  1  0  0  0  0
 22 23  1  0  0  0  0
 22  2  1  0  0  0  0
 24 22  1  0  0  0  0
 25 22  1  0  0  0  0
 26 27  1  0  0  0  0
 26 31  1  0  0  0  0
 28 26  1  0  0  0  0
 29 30  1  0  0  0  0
 30 37  1  0  0  0  0
 31 32  1  0  0  0  0
 31 30  2  0  0  0  0
 32 34  2  0  0  0  0
 33 32  1  0  0  0  0
 34 35  1  0  0  0  0
 34 36  1  0  0  0  0
 37 36  2  0  0  0  0
M  END
>  <minimizedAffinity>
-6.5610652

$$$$

 OpenBabel03272500233D

 37 39  0  0  0  0  0  0  0  0999 V2000
   37.5460   25.7780   33.6110 C   0  0  0  0  0  0  0  0  0  0  0  0
   38.1600   25.5850   34.8710 C   0  0  0  0  0  0  0  0  0  0  0  0
   38.5540   24.2960   35.2490 C   0  0  0  0  0  0  0  0  0  0  0  0
   38.3200   23.2720   34.3620 N   0  0  0  0  0  0  0  0  0  0  0  0
   37.7420   23.4790   33.1830 C   0  0  0  0  0  0  0  0  0  0  0  0
   37.3530   24.7070   32.7960 N   0  0  0  0  0  0  0  0  0  0  0  0
   37.2410   26.7650   33.3150 H   0  0  0  0  0  0  0  0  0  0  0  0
   35.6230   21.5050   34.0740 Cl  0  0  0  0  0  0  0  0  0  0  0  0
   36.5640   21.3580   32.6040 C   0  0  0  0  0  0  0  0  0  0  0  0
   37.5250   22.3320   32.2860 C   0  0  0  0  0  0  0  0  0  0  0  0
   38.2950   22.2540   31.1340 C   0  0  0  0  0  0  0  0  0  0  0  0
   38.0640   21.1510   30.3040 C   0  0  0  0  0  0  0  0  0  0  0  0
   37.1420   20.1980   30.5900 C   0  0  0  0  0  0  0  0  0  0  0  0
   36.9450   18.8750   29.4660 Cl  0  0  0  0  0  0  0  0  0  0  0  0
   36.3890   20.3070   31.7500 C   0  0  0  0  0  0  0  0  0  0  0  0
   39.0260   23.0120   30.9060 H   0  0  0  0  0  0  0  0  0  0  0  0
   38.6620   21.0850   29.3970 H   0  0  0  0  0  0  0  0  0  0  0  0
   35.3800   19.2700   32.0700 C   0  0  0  0  0  0  0  0  0  0  0  0
   35.5730   18.1380   31.2660 F   0  0  0  0  0  0  0  0  0  0  0  0
   34.1000   19.7250   31.9650 F   0  0  0  0  0  0  0  0  0  0  0  0
   35.5600   18.8370   33.3700 F   0  0  0  0  0  0  0  0  0  0  0  0
   38.3670   26.7810   35.7490 C   0  0  0  0  0  0  0  0  0  0  0  0
   39.6560   27.2690   35.6260 F   0  0  0  0  0  0  0  0  0  0  0  0
   37.4930   27.7660   35.3370 F   0  0  0  0  0  0  0  0  0  0  0  0
   38.1080   26.5160   37.0720 F   0  0  0  0  0  0  0  0  0  0  0  0
   39.1860   24.0960   36.5450 C   0  0  0  0  0  0  0  0  0  0  0  0
   38.5400   23.6010   37.2950 H   0  0  0  0  0  0  0  0  0  0  0  0
   39.3960   25.1190   36.9640 H   0  0  0  0  0  0  0  0  0  0  0  0
   41.4750   25.0630   35.2690 F   0  0  0  0  0  0  0  0  0  0  0  0
   41.5110   23.8170   35.7950 C   0  0  0  0  0  0  0  0  0  0  0  0
   40.4060   23.2580   36.4520 C   0  0  0  0  0  0  0  0  0  0  0  0
   40.5740   21.9840   36.9410 C   0  0  0  0  0  0  0  0  0  0  0  0
   39.6760   21.6070   37.4410 H   0  0  0  0  0  0  0  0  0  0  0  0
   41.7380   21.2630   36.8170 C   0  0  0  0  0  0  0  0  0  0  0  0
   41.7960   20.2530   37.2360 H   0  0  0  0  0  0  0  0  0  0  0  0
   42.8180   21.8400   36.1610 C   0  0  0  0  0  3  0  0  0  0  0  0
   42.7020   23.1170   35.6500 C   0  0  0  0  0  3  0  0  0  0  0  0
  1  2  1  0  0  0  0
  2  3  2  0  0  0  0
  2 22  1  0  0  0  0
  3 26  1  0  0  0  0
  4  3  1  0  0  0  0
  5  4  2  0  0  0  0
  6  5  1  0  0  0  0
  6  1  2  0  0  0  0
  7  1  1  0  0  0  0
  9  8  1  0  0  0  0
 10  9  1  0  0  0  0
 10  5  1  0  0  0  0
 11 10  2  0  0  0  0
 12 13  2  0  0  0  0
 12 11  1  0  0  0  0
 13 15  1  0  0  0  0
 14 13  1  0  0  0  0
 15 18  1  0  0  0  0
 15  9  2  0  0  0  0
 16 11  1  0  0  0  0
 17 12  1  0  0  0  0
 18 21  1  0  0  0  0
 19 18  1  0  0  0  0
 20 18  1  0  0  0  0
 22 25  1  0  0  0  0
 23 22  1  0  0  0  0
 24 22  1  0  0  0  0
 26 28  1  0  0  0  0
 26 27  1  0  0  0  0
 29 30  1  0  0  0  0
 30 31  1  0  0  0  0
 31 26  1  0  0  0  0
 31 32  2  0  0  0  0
 32 33  1  0  0  0  0
 34 32  1  0  0  0  0
 34 35  1  0  0  0  0
 36 34  2  0  0  0  0
 37 30  2  0  0  0  0
 37 36  1  0  0  0  0
M  END
>  <minimizedAffinity>
-6.49850845

$$$$

 OpenBabel03272500233D

 37 39  0  0  0  0  0  0  0  0999 V2000
   37.4090   28.9740   31.1280 C   0  0  0  0  0  0  0  0  0  0  0  0
   36.2620   29.6610   31.5890 C   0  0  0  0  0  0  0  0  0  0  0  0
   35.4840   29.0880   32.6020 C   0  0  0  0  0  0  0  0  0  0  0  0
   35.8830   27.8700   33.1010 N   0  0  0  0  0  0  0  0  0  0  0  0
   36.9660   27.2450   32.6520 C   0  0  0  0  0  0  0  0  0  0  0  0
   37.7300   27.7730   31.6790 N   0  0  0  0  0  0  0  0  0  0  0  0
   38.0100   29.4080   30.3510 H   0  0  0  0  0  0  0  0  0  0  0  0
   37.7190   27.2960   35.5860 Cl  0  0  0  0  0  0  0  0  0  0  0  0
   37.6940   25.8550   34.5910 C   0  0  0  0  0  0  0  0  0  0  0  0
   37.3300   25.9440   33.2370 C   0  0  0  0  0  0  0  0  0  0  0  0
   37.2990   24.8290   32.4110 C   0  0  0  0  0  0  0  0  0  0  0  0
   37.6510   23.6090   32.9990 C   0  0  0  0  0  0  0  0  0  0  0  0
   38.0060   23.4980   34.3030 C   0  0  0  0  0  0  0  0  0  0  0  0
   38.4160   21.9140   34.9170 Cl  0  0  0  0  0  0  0  0  0  0  0  0
   38.0260   24.6330   35.1010 C   0  0  0  0  0  0  0  0  0  0  0  0
   37.0150   24.9170   31.3750 H   0  0  0  0  0  0  0  0  0  0  0  0
   37.6270   22.7300   32.3580 H   0  0  0  0  0  0  0  0  0  0  0  0
   38.4130   24.5210   36.5270 C   0  0  0  0  0  0  0  0  0  0  0  0
   37.6170   23.5660   37.1750 F   0  0  0  0  0  0  0  0  0  0  0  0
   38.3700   25.7140   37.1850 F   0  0  0  0  0  0  0  0  0  0  0  0
   39.7080   24.0460   36.6180 F   0  0  0  0  0  0  0  0  0  0  0  0
   35.9310   30.9840   30.9710 C   0  0  0  0  0  0  0  0  0  0  0  0
   36.5750   31.1380   29.7560 F   0  0  0  0  0  0  0  0  0  0  0  0
   34.5700   31.0180   30.7430 F   0  0  0  0  0  0  0  0  0  0  0  0
   36.2460   32.0430   31.7870 F   0  0  0  0  0  0  0  0  0  0  0  0
   34.3020   29.7930   33.0780 C   0  0  0  0  0  0  0  0  0  0  0  0
   33.4290   29.1410   33.2710 H   0  0  0  0  0  0  0  0  0  0  0  0
   33.9800   30.4800   32.2470 H   0  0  0  0  0  0  0  0  0  0  0  0
   32.1920   30.3860   34.8100 F   0  0  0  0  0  0  0  0  0  0  0  0
   33.4400   30.7740   35.1610 C   0  0  0  0  0  0  0  0  0  0  0  0
   34.5520   30.5140   34.3490 C   0  0  0  0  0  0  0  0  0  0  0  0
   35.7630   30.9620   34.8220 C   0  0  0  0  0  0  0  0  0  0  0  0
   36.5890   30.7270   34.1420 H   0  0  0  0  0  0  0  0  0  0  0  0
   35.9220   31.6270   36.0140 C   0  0  0  0  0  0  0  0  0  0  0  0
   36.9210   31.9500   36.3240 H   0  0  0  0  0  0  0  0  0  0  0  0
   34.8030   31.8720   36.8000 C   0  0  0  0  0  3  0  0  0  0  0  0
   33.5620   31.4450   36.3710 C   0  0  0  0  0  3  0  0  0  0  0  0
  1  2  2  0  0  0  0
  1  6  1  0  0  0  0
  2  3  1  0  0  0  0
  3 26  1  0  0  0  0
  3  4  2  0  0  0  0
  5  4  1  0  0  0  0
  5 10  1  0  0  0  0
  6  5  2  0  0  0  0
  7  1  1  0  0  0  0
  9 15  1  0  0  0  0
  9  8  1  0  0  0  0
 10  9  2  0  0  0  0
 11 12  2  0  0  0  0
 11 10  1  0  0  0  0
 12 13  1  0  0  0  0
 13 14  1  0  0  0  0
 13 15  2  0  0  0  0
 15 18  1  0  0  0  0
 16 11  1  0  0  0  0
 17 12  1  0  0  0  0
 18 21  1  0  0  0  0
 18 19  1  0  0  0  0
 18 20  1  0  0  0  0
 22  2  1  0  0  0  0
 22 25  1  0  0  0  0
 23 22  1  0  0  0  0
 24 22  1  0  0  0  0
 26 27  1  0  0  0  0
 26 31  1  0  0  0  0
 28 26  1  0  0  0  0
 29 30  1  0  0  0  0
 30 37  1  0  0  0  0
 31 32  1  0  0  0  0
 31 30  2  0  0  0  0
 32 34  2  0  0  0  0
 33 32  1  0  0  0  0
 34 35  1  0  0  0  0
 34 36  1  0  0  0  0
 37 36  2  0  0  0  0
M  END
>  <minimizedAffinity>
-6.44499636

$$$$

 OpenBabel03272500233D

 37 39  0  0  0  0  0  0  0  0999 V2000
   37.5500   27.0670   33.2980 C   0  0  0  0  0  0  0  0  0  0  0  0
   37.0330   26.3210   32.2130 C   0  0  0  0  0  0  0  0  0  0  0  0
   37.6310   25.1020   31.8760 C   0  0  0  0  0  0  0  0  0  0  0  0
   38.7050   24.6880   32.6280 N   0  0  0  0  0  0  0  0  0  0  0  0
   39.1720   25.4070   33.6440 C   0  0  0  0  0  0  0  0  0  0  0  0
   38.6160   26.5820   33.9890 N   0  0  0  0  0  0  0  0  0  0  0  0
   37.0950   28.0040   33.5630 H   0  0  0  0  0  0  0  0  0  0  0  0
   38.5480   23.2460   35.6750 Cl  0  0  0  0  0  0  0  0  0  0  0  0
   40.1470   23.8920   35.3700 C   0  0  0  0  0  0  0  0  0  0  0  0
   40.3250   24.8970   34.4050 C   0  0  0  0  0  0  0  0  0  0  0  0
   41.5730   25.4400   34.1330 C   0  0  0  0  0  0  0  0  0  0  0  0
   42.6470   24.9340   34.8720 C   0  0  0  0  0  0  0  0  0  0  0  0
   42.5000   23.9640   35.8100 C   0  0  0  0  0  0  0  0  0  0  0  0
   43.9240   23.4130   36.6600 Cl  0  0  0  0  0  0  0  0  0  0  0  0
   41.2380   23.4430   36.0570 C   0  0  0  0  0  0  0  0  0  0  0  0
   41.6910   26.2080   33.3860 H   0  0  0  0  0  0  0  0  0  0  0  0
   43.6290   25.3530   34.6630 H   0  0  0  0  0  0  0  0  0  0  0  0
   41.0690   22.3840   37.0790 C   0  0  0  0  0  0  0  0  0  0  0  0
   40.4860   22.9140   38.2390 F   0  0  0  0  0  0  0  0  0  0  0  0
   42.2330   21.7390   37.3740 F   0  0  0  0  0  0  0  0  0  0  0  0
   40.1770   21.4340   36.6170 F   0  0  0  0  0  0  0  0  0  0  0  0
   35.8550   26.8730   31.4710 C   0  0  0  0  0  0  0  0  0  0  0  0
   34.8570   25.9220   31.3470 F   0  0  0  0  0  0  0  0  0  0  0  0
   35.3520   27.9310   32.2000 F   0  0  0  0  0  0  0  0  0  0  0  0
   36.1890   27.3430   30.2240 F   0  0  0  0  0  0  0  0  0  0  0  0
   37.1010   24.3330   30.7580 C   0  0  0  0  0  0  0  0  0  0  0  0
   37.8200   24.1740   29.9320 H   0  0  0  0  0  0  0  0  0  0  0  0
   36.2680   24.9440   30.3130 H   0  0  0  0  0  0  0  0  0  0  0  0
   38.6680   22.0930   30.1850 F   0  0  0  0  0  0  0  0  0  0  0  0
   37.5000   21.9080   30.8430 C   0  0  0  0  0  0  0  0  0  0  0  0
   36.6570   22.9790   31.1690 C   0  0  0  0  0  0  0  0  0  0  0  0
   35.5000   22.6550   31.8390 C   0  0  0  0  0  0  0  0  0  0  0  0
   34.8880   23.5350   32.0630 H   0  0  0  0  0  0  0  0  0  0  0  0
   35.1500   21.3730   32.1880 C   0  0  0  0  0  0  0  0  0  0  0  0
   34.2120   21.1950   32.7240 H   0  0  0  0  0  0  0  0  0  0  0  0
   36.0040   20.3300   31.8520 C   0  0  0  0  0  3  0  0  0  0  0  0
   37.1780   20.5990   31.1780 C   0  0  0  0  0  3  0  0  0  0  0  0
  1  7  1  0  0  0  0
  1  6  1  0  0  0  0
  2  1  2  0  0  0  0
  3  2  1  0  0  0  0
  3  4  2  0  0  0  0
  4  5  1  0  0  0  0
  5  6  2  0  0  0  0
  5 10  1  0  0  0  0
  9  8  1  0  0  0  0
  9 15  1  0  0  0  0
 10  9  2  0  0  0  0
 11 10  1  0  0  0  0
 11 12  2  0  0  0  0
 12 13  1  0  0  0  0
 13 15  2  0  0  0  0
 13 14  1  0  0  0  0
 15 18  1  0  0  0  0
 16 11  1  0  0  0  0
 17 12  1  0  0  0  0
 18 20  1  0  0  0  0
 18 19  1  0  0  0  0
 21 18  1  0  0  0  0
 22 24  1  0  0  0  0
 22  2  1  0  0  0  0
 23 22  1  0  0  0  0
 25 22  1  0  0  0  0
 26 31  1  0  0  0  0
 26  3  1  0  0  0  0
 27 26  1  0  0  0  0
 28 26  1  0  0  0  0
 29 30  1  0  0  0  0
 30 31  2  0  0  0  0
 30 37  1  0  0  0  0
 31 32  1  0  0  0  0
 32 33  1  0  0  0  0
 32 34  2  0  0  0  0
 34 35  1  0  0  0  0
 36 34  1  0  0  0  0
 37 36  2  0  0  0  0
M  END
>  <minimizedAffinity>
-6.43326426

$$$$
