
 OpenBabel03272508083D

 24 25  0  0  0  0  0  0  0  0999 V2000
   38.8990   32.8350   48.0160 O   0  0  0  0  0  0  0  0  0  0  0  0
   38.5270   31.7120   47.1200 P   0  0  2  0  0  0  0  0  0  0  0  0
   37.2000   32.1700   46.1510 O   0  0  0  0  0  0  0  0  0  0  0  0
   36.5270   32.5700   46.7870 H   0  0  0  0  0  0  0  0  0  0  0  0
   38.1830   30.2480   47.9030 O   0  0  0  0  0  0  0  0  0  0  0  0
   37.2430   30.1590   51.4890 C   0  0  0  0  0  0  0  0  0  0  0  0
   38.0380   30.4670   50.3810 C   0  0  0  0  0  0  0  0  0  0  0  0
   37.5980   30.0700   49.1200 C   0  0  0  0  0  0  0  0  0  0  0  0
   36.4100   29.3990   49.0270 N   0  0  0  0  0  0  0  0  0  0  0  0
   35.6730   29.1210   50.1140 C   0  0  0  0  0  0  0  0  0  0  0  0
   36.0860   29.4990   51.3400 N   0  0  0  0  0  0  0  0  0  0  0  0
   37.6770   30.5120   52.4190 H   0  0  0  0  0  0  0  0  0  0  0  0
   38.9570   30.9760   50.3690 H   0  0  0  0  0  0  0  0  0  0  0  0
   34.7260   28.5870   50.0510 H   0  0  0  0  0  0  0  0  0  0  0  0
   39.8050   31.4580   46.0300 O   0  0  0  0  0  0  0  0  0  0  0  0
   39.2390   29.1320   44.8020 F   0  0  0  0  0  0  0  0  0  0  0  0
   39.4220   30.2910   44.0890 C   0  0  0  0  0  0  0  0  0  0  0  0
   39.7170   31.5330   44.6620 C   0  0  0  0  0  0  0  0  0  0  0  0
   39.8670   32.5930   43.7900 C   0  0  0  0  0  0  0  0  0  0  0  0
   40.0960   33.5220   44.3320 H   0  0  0  0  0  0  0  0  0  0  0  0
   39.7320   32.4270   42.4420 C   0  0  0  0  0  0  0  0  0  0  0  0
   39.8650   33.3100   41.8320 H   0  0  0  0  0  0  0  0  0  0  0  0
   39.4440   31.2180   41.8920 C   0  0  0  0  0  3  0  0  0  0  0  0
   39.2850   30.1250   42.7260 C   0  0  0  0  0  3  0  0  0  0  0  0
  2  5  1  0  0  0  0
  2  1  2  1  0  0  0
  3  4  1  0  0  0  0
  3  2  1  0  0  0  0
  5  8  1  0  0  0  0
  6 12  1  0  0  0  0
  7  6  2  0  0  0  0
  8  7  1  0  0  0  0
  9  8  2  0  0  0  0
  9 10  1  0  0  0  0
 10 11  2  0  0  0  0
 11  6  1  0  0  0  0
 13  7  1  0  0  0  0
 14 10  1  0  0  0  0
 15  2  1  0  0  0  0
 17 18  1  0  0  0  0
 17 16  1  0  0  0  0
 18 15  1  0  0  0  0
 19 20  1  0  0  0  0
 19 18  2  0  0  0  0
 21 19  1  0  0  0  0
 22 21  1  0  0  0  0
 23 21  2  0  0  0  0
 23 24  1  0  0  0  0
 24 17  2  0  0  0  0
M  END
>  <minimizedAffinity>
-5.01561546

>  <minimizedRMSD>
2.56993747

$$$$
