
 OpenBabel03272505443D

 24 25  0  0  0  0  0  0  0  0999 V2000
   36.7520   27.5110   35.0420 O   0  0  0  0  0  0  0  0  0  0  0  0
   37.9440   26.5490   35.0430 P   0  0  2  0  0  0  0  0  0  0  0  0
   39.2450   27.3950   35.6800 O   0  0  0  0  0  0  0  0  0  0  0  0
   39.3200   27.1820   36.6420 H   0  0  0  0  0  0  0  0  0  0  0  0
   38.2110   26.0950   33.4220 O   0  0  0  0  0  0  0  0  0  0  0  0
   35.4830   25.2250   31.1550 C   0  0  0  0  0  0  0  0  0  0  0  0
   35.5800   23.8040   31.1960 C   0  0  0  0  0  0  0  0  0  0  0  0
   36.5790   23.2460   32.0040 C   0  0  0  0  0  0  0  0  0  0  0  0
   37.3960   24.0760   32.6970 N   0  0  0  0  0  0  0  0  0  0  0  0
   37.2840   25.4190   32.6410 C   0  0  0  0  0  0  0  0  0  0  0  0
   36.3280   25.9860   31.8700 N   0  0  0  0  0  0  0  0  0  0  0  0
   34.7170   25.6760   30.5370 H   0  0  0  0  0  0  0  0  0  0  0  0
   34.9120   23.1740   30.6300 H   0  0  0  0  0  0  0  0  0  0  0  0
   36.6870   22.1700   32.0640 H   0  0  0  0  0  0  0  0  0  0  0  0
   37.5570   25.2610   36.0280 O   0  0  0  0  0  0  0  0  0  0  0  0
   37.4360   24.5470   38.6200 F   0  0  0  0  0  0  0  0  0  0  0  0
   38.4110   24.0130   37.8210 C   0  0  0  0  0  0  0  0  0  0  0  0
   38.5090   24.3560   36.4730 C   0  0  0  0  0  0  0  0  0  0  0  0
   39.5010   23.8020   35.6950 C   0  0  0  0  0  0  0  0  0  0  0  0
   39.5510   24.0890   34.6540 H   0  0  0  0  0  0  0  0  0  0  0  0
   40.3970   22.9070   36.2570 C   0  0  0  0  0  0  0  0  0  0  0  0
   41.1730   22.4630   35.6790 H   0  0  0  0  0  0  0  0  0  0  0  0
   40.2870   22.5760   37.5940 C   0  0  0  0  0  3  0  0  0  0  0  0
   39.3020   23.1140   38.4030 C   0  0  0  0  0  3  0  0  0  0  0  0
  2  1  2  1  0  0  0
  2  3  1  0  0  0  0
  2 15  1  0  0  0  0
  3  4  1  0  0  0  0
  5  2  1  0  0  0  0
  6  7  2  0  0  0  0
  6 11  1  0  0  0  0
  7  8  1  0  0  0  0
  8 14  1  0  0  0  0
  8  9  2  0  0  0  0
 10  9  1  0  0  0  0
 10  5  1  0  0  0  0
 11 10  2  0  0  0  0
 12  6  1  0  0  0  0
 13  7  1  0  0  0  0
 15 18  1  0  0  0  0
 17 24  1  0  0  0  0
 17 16  1  0  0  0  0
 18 17  2  0  0  0  0
 19 21  2  0  0  0  0
 19 18  1  0  0  0  0
 20 19  1  0  0  0  0
 21 23  1  0  0  0  0
 22 21  1  0  0  0  0
 23 24  2  0  0  0  0
M  END
>  <minimizedAffinity>
-5.05702972

$$$$

 OpenBabel03272505443D

 24 25  0  0  0  0  0  0  0  0999 V2000
   39.6440   27.2830   33.6290 O   0  0  0  0  0  0  0  0  0  0  0  0
   38.6670   26.6860   34.6470 P   0  0  2  0  0  0  0  0  0  0  0  0
   38.8270   27.5860   36.0530 O   0  0  0  0  0  0  0  0  0  0  0  0
   38.1190   28.2760   36.0690 H   0  0  0  0  0  0  0  0  0  0  0  0
   39.1280   25.0610   34.8750 O   0  0  0  0  0  0  0  0  0  0  0  0
   39.7520   22.8290   37.6960 C   0  0  0  0  0  0  0  0  0  0  0  0
   38.7450   23.2890   38.5950 C   0  0  0  0  0  0  0  0  0  0  0  0
   37.9220   24.3370   38.1630 C   0  0  0  0  0  0  0  0  0  0  0  0
   38.1220   24.8560   36.9270 N   0  0  0  0  0  0  0  0  0  0  0  0
   39.0820   24.4030   36.0960 C   0  0  0  0  0  0  0  0  0  0  0  0
   39.8910   23.3910   36.4850 N   0  0  0  0  0  0  0  0  0  0  0  0
   40.3970   22.0190   38.0110 H   0  0  0  0  0  0  0  0  0  0  0  0
   38.6150   22.8520   39.5720 H   0  0  0  0  0  0  0  0  0  0  0  0
   37.1450   24.7170   38.8140 H   0  0  0  0  0  0  0  0  0  0  0  0
   37.1270   26.8490   34.0300 O   0  0  0  0  0  0  0  0  0  0  0  0
   37.3700   27.4900   31.4270 F   0  0  0  0  0  0  0  0  0  0  0  0
   36.7590   28.3690   32.2820 C   0  0  0  0  0  0  0  0  0  0  0  0
   36.6130   28.0760   33.6370 C   0  0  0  0  0  0  0  0  0  0  0  0
   35.9950   28.9800   34.4710 C   0  0  0  0  0  0  0  0  0  0  0  0
   35.8980   28.7240   35.5160 H   0  0  0  0  0  0  0  0  0  0  0  0
   35.5210   30.1770   33.9580 C   0  0  0  0  0  0  0  0  0  0  0  0
   35.0390   30.8950   34.5790 H   0  0  0  0  0  0  0  0  0  0  0  0
   35.6730   30.4540   32.6120 C   0  0  0  0  0  3  0  0  0  0  0  0
   36.2890   29.5670   31.7470 C   0  0  0  0  0  3  0  0  0  0  0  0
  2  1  2  6  0  0  0
  2  5  1  0  0  0  0
  2  3  1  0  0  0  0
  3  4  1  0  0  0  0
  5 10  1  0  0  0  0
  6 12  1  0  0  0  0
  6  7  1  0  0  0  0
  7 13  1  0  0  0  0
  8  7  2  0  0  0  0
  8 14  1  0  0  0  0
  9  8  1  0  0  0  0
 10 11  1  0  0  0  0
 10  9  2  0  0  0  0
 11  6  2  0  0  0  0
 15  2  1  0  0  0  0
 16 17  1  0  0  0  0
 17 18  1  0  0  0  0
 18 15  1  0  0  0  0
 18 19  2  0  0  0  0
 19 20  1  0  0  0  0
 21 19  1  0  0  0  0
 21 22  1  0  0  0  0
 23 21  2  0  0  0  0
 24 17  2  0  0  0  0
 24 23  1  0  0  0  0
M  END
>  <minimizedAffinity>
-4.94884634

$$$$

 OpenBabel03272505443D

 24 25  0  0  0  0  0  0  0  0999 V2000
   39.4860   27.2770   33.6160 O   0  0  0  0  0  0  0  0  0  0  0  0
   38.5660   26.6820   34.6880 P   0  0  2  0  0  0  0  0  0  0  0  0
   38.7990   27.5900   36.0790 O   0  0  0  0  0  0  0  0  0  0  0  0
   38.0910   28.2780   36.1290 H   0  0  0  0  0  0  0  0  0  0  0  0
   39.0430   25.0590   34.8990 O   0  0  0  0  0  0  0  0  0  0  0  0
   39.7610   22.8240   37.6950 C   0  0  0  0  0  0  0  0  0  0  0  0
   38.7800   23.2790   38.6250 C   0  0  0  0  0  0  0  0  0  0  0  0
   37.9410   24.3250   38.2210 C   0  0  0  0  0  0  0  0  0  0  0  0
   38.1010   24.8470   36.9800 N   0  0  0  0  0  0  0  0  0  0  0  0
   39.0370   24.3990   36.1190 C   0  0  0  0  0  0  0  0  0  0  0  0
   39.8610   23.3890   36.4810 N   0  0  0  0  0  0  0  0  0  0  0  0
   40.4190   22.0160   37.9880 H   0  0  0  0  0  0  0  0  0  0  0  0
   38.6820   22.8390   39.6050 H   0  0  0  0  0  0  0  0  0  0  0  0
   37.1820   24.7000   38.8960 H   0  0  0  0  0  0  0  0  0  0  0  0
   36.9960   26.8390   34.1530 O   0  0  0  0  0  0  0  0  0  0  0  0
   36.1120   29.3000   34.7910 F   0  0  0  0  0  0  0  0  0  0  0  0
   36.1990   28.9380   33.4740 C   0  0  0  0  0  0  0  0  0  0  0  0
   36.6510   27.6730   33.1000 C   0  0  0  0  0  0  0  0  0  0  0  0
   36.7270   27.3380   31.7670 C   0  0  0  0  0  0  0  0  0  0  0  0
   37.0810   26.3500   31.5100 H   0  0  0  0  0  0  0  0  0  0  0  0
   36.3520   28.2610   30.8030 C   0  0  0  0  0  0  0  0  0  0  0  0
   36.4010   28.0290   29.7650 H   0  0  0  0  0  0  0  0  0  0  0  0
   35.9060   29.5110   31.1890 C   0  0  0  0  0  3  0  0  0  0  0  0
   35.8180   29.8790   32.5190 C   0  0  0  0  0  3  0  0  0  0  0  0
  2  1  2  6  0  0  0
  2  5  1  0  0  0  0
  2  3  1  0  0  0  0
  3  4  1  0  0  0  0
  5 10  1  0  0  0  0
  6 12  1  0  0  0  0
  6  7  1  0  0  0  0
  7 13  1  0  0  0  0
  8  7  2  0  0  0  0
  8 14  1  0  0  0  0
  9  8  1  0  0  0  0
 10 11  1  0  0  0  0
 10  9  2  0  0  0  0
 11  6  2  0  0  0  0
 15  2  1  0  0  0  0
 17 16  1  0  0  0  0
 18 17  1  0  0  0  0
 18 15  1  0  0  0  0
 19 18  2  0  0  0  0
 20 19  1  0  0  0  0
 21 23  2  0  0  0  0
 21 19  1  0  0  0  0
 22 21  1  0  0  0  0
 23 24  1  0  0  0  0
 24 17  2  0  0  0  0
M  END
>  <minimizedAffinity>
-4.94672775

$$$$

 OpenBabel03272505443D

 24 25  0  0  0  0  0  0  0  0999 V2000
   39.2780   27.2470   35.3590 O   0  0  0  0  0  0  0  0  0  0  0  0
   37.9350   26.7540   34.8090 P   0  0  2  0  0  0  0  0  0  0  0  0
   36.8820   28.0590   34.8690 O   0  0  0  0  0  0  0  0  0  0  0  0
   36.8660   28.4930   33.9820 H   0  0  0  0  0  0  0  0  0  0  0  0
   37.4290   25.4800   35.8210 O   0  0  0  0  0  0  0  0  0  0  0  0
   40.0970   23.0770   36.4870 C   0  0  0  0  0  0  0  0  0  0  0  0
   39.8310   22.7950   37.8580 C   0  0  0  0  0  0  0  0  0  0  0  0
   38.7490   23.4540   38.4570 C   0  0  0  0  0  0  0  0  0  0  0  0
   38.0180   24.3170   37.7110 N   0  0  0  0  0  0  0  0  0  0  0  0
   38.2910   24.5670   36.4140 C   0  0  0  0  0  0  0  0  0  0  0  0
   39.3290   23.9450   35.8090 N   0  0  0  0  0  0  0  0  0  0  0  0
   40.9280   22.5780   36.0060 H   0  0  0  0  0  0  0  0  0  0  0  0
   40.4350   22.1020   38.4220 H   0  0  0  0  0  0  0  0  0  0  0  0
   38.5120   23.2690   39.4970 H   0  0  0  0  0  0  0  0  0  0  0  0
   38.1750   26.2800   33.2300 O   0  0  0  0  0  0  0  0  0  0  0  0
   36.1160   27.2640   31.8020 F   0  0  0  0  0  0  0  0  0  0  0  0
   36.2990   25.9080   31.8720 C   0  0  0  0  0  0  0  0  0  0  0  0
   37.3530   25.3580   32.6000 C   0  0  0  0  0  0  0  0  0  0  0  0
   37.5110   23.9910   32.6510 C   0  0  0  0  0  0  0  0  0  0  0  0
   38.3370   23.5950   33.2240 H   0  0  0  0  0  0  0  0  0  0  0  0
   36.6200   23.1700   31.9760 C   0  0  0  0  0  0  0  0  0  0  0  0
   36.7180   22.1110   31.9980 H   0  0  0  0  0  0  0  0  0  0  0  0
   35.5810   23.7310   31.2590 C   0  0  0  0  0  3  0  0  0  0  0  0
   35.3950   25.1000   31.1870 C   0  0  0  0  0  3  0  0  0  0  0  0
  2  3  1  0  0  0  0
  2  1  2  1  0  0  0
  2  5  1  0  0  0  0
  4  3  1  0  0  0  0
  5 10  1  0  0  0  0
  6  7  1  0  0  0  0
  7 13  1  0  0  0  0
  7  8  2  0  0  0  0
  8 14  1  0  0  0  0
  9  8  1  0  0  0  0
 10  9  2  0  0  0  0
 11 10  1  0  0  0  0
 11  6  2  0  0  0  0
 12  6  1  0  0  0  0
 15  2  1  0  0  0  0
 16 17  1  0  0  0  0
 17 18  1  0  0  0  0
 18 19  2  0  0  0  0
 18 15  1  0  0  0  0
 19 20  1  0  0  0  0
 21 22  1  0  0  0  0
 21 19  1  0  0  0  0
 23 21  2  0  0  0  0
 24 23  1  0  0  0  0
 24 17  2  0  0  0  0
M  END
>  <minimizedAffinity>
-4.80579948

$$$$

 OpenBabel03272505443D

 24 25  0  0  0  0  0  0  0  0999 V2000
   38.9280   22.9690   31.9950 O   0  0  0  0  0  0  0  0  0  0  0  0
   37.9490   22.9900   33.1740 P   0  0  2  0  0  0  0  0  0  0  0  0
   37.8360   24.5860   33.6780 O   0  0  0  0  0  0  0  0  0  0  0  0
   37.0390   24.9940   33.2590 H   0  0  0  0  0  0  0  0  0  0  0  0
   38.6130   21.9870   34.3810 O   0  0  0  0  0  0  0  0  0  0  0  0
   40.0300   22.6730   37.6760 C   0  0  0  0  0  0  0  0  0  0  0  0
   38.8930   23.2520   38.3110 C   0  0  0  0  0  0  0  0  0  0  0  0
   37.7170   23.3640   37.5580 C   0  0  0  0  0  0  0  0  0  0  0  0
   37.7190   22.9220   36.2770 N   0  0  0  0  0  0  0  0  0  0  0  0
   38.8090   22.3780   35.6980 C   0  0  0  0  0  0  0  0  0  0  0  0
   39.9590   22.2560   36.4010 N   0  0  0  0  0  0  0  0  0  0  0  0
   40.9480   22.5770   38.2410 H   0  0  0  0  0  0  0  0  0  0  0  0
   38.9280   23.5930   39.3340 H   0  0  0  0  0  0  0  0  0  0  0  0
   36.8300   23.7980   38.0020 H   0  0  0  0  0  0  0  0  0  0  0  0
   36.4720   22.4560   32.6180 O   0  0  0  0  0  0  0  0  0  0  0  0
   35.4450   20.8420   34.5110 F   0  0  0  0  0  0  0  0  0  0  0  0
   35.7170   20.3330   33.2690 C   0  0  0  0  0  0  0  0  0  0  0  0
   36.2490   21.1350   32.2600 C   0  0  0  0  0  0  0  0  0  0  0  0
   36.5120   20.5940   31.0210 C   0  0  0  0  0  0  0  0  0  0  0  0
   36.9250   21.2410   30.2610 H   0  0  0  0  0  0  0  0  0  0  0  0
   36.2450   19.2540   30.7850 C   0  0  0  0  0  0  0  0  0  0  0  0
   36.4380   18.8100   29.8370 H   0  0  0  0  0  0  0  0  0  0  0  0
   35.7170   18.4720   31.7950 C   0  0  0  0  0  3  0  0  0  0  0  0
   35.4420   18.9850   33.0500 C   0  0  0  0  0  3  0  0  0  0  0  0
  2  1  2  6  0  0  0
  2  3  1  0  0  0  0
  2  5  1  0  0  0  0
  4  3  1  0  0  0  0
  5 10  1  0  0  0  0
  6 12  1  0  0  0  0
  6  7  1  0  0  0  0
  7 13  1  0  0  0  0
  8 14  1  0  0  0  0
  8  7  2  0  0  0  0
  9  8  1  0  0  0  0
 10  9  2  0  0  0  0
 10 11  1  0  0  0  0
 11  6  2  0  0  0  0
 15  2  1  0  0  0  0
 17 16  1  0  0  0  0
 18 15  1  0  0  0  0
 18 17  2  0  0  0  0
 19 18  1  0  0  0  0
 20 19  1  0  0  0  0
 21 19  2  0  0  0  0
 21 23  1  0  0  0  0
 22 21  1  0  0  0  0
 23 24  2  0  0  0  0
 24 17  1  0  0  0  0
M  END
>  <minimizedAffinity>
-4.79894686

$$$$

 OpenBabel03272505443D

 24 25  0  0  0  0  0  0  0  0999 V2000
   38.0020   22.1660   32.2830 O   0  0  0  0  0  0  0  0  0  0  0  0
   38.7340   22.8280   33.4560 P   0  0  2  0  0  0  0  0  0  0  0  0
   40.1860   22.0090   33.6400 O   0  0  0  0  0  0  0  0  0  0  0  0
   40.8940   22.5110   33.1670 H   0  0  0  0  0  0  0  0  0  0  0  0
   37.7280   22.6570   34.8210 O   0  0  0  0  0  0  0  0  0  0  0  0
   37.8780   23.8430   38.2710 C   0  0  0  0  0  0  0  0  0  0  0  0
   39.1800   23.3850   38.6270 C   0  0  0  0  0  0  0  0  0  0  0  0
   39.9140   22.6980   37.6510 C   0  0  0  0  0  0  0  0  0  0  0  0
   39.3570   22.5070   36.4310 N   0  0  0  0  0  0  0  0  0  0  0  0
   38.1220   22.9510   36.1190 C   0  0  0  0  0  0  0  0  0  0  0  0
   37.3900   23.6170   37.0410 N   0  0  0  0  0  0  0  0  0  0  0  0
   37.2950   24.3760   39.0110 H   0  0  0  0  0  0  0  0  0  0  0  0
   39.5920   23.5550   39.6090 H   0  0  0  0  0  0  0  0  0  0  0  0
   40.9080   22.3330   37.8800 H   0  0  0  0  0  0  0  0  0  0  0  0
   39.0180   24.4180   33.0450 O   0  0  0  0  0  0  0  0  0  0  0  0
   36.5620   25.5020   32.8450 F   0  0  0  0  0  0  0  0  0  0  0  0
   37.4440   26.0010   33.7660 C   0  0  0  0  0  0  0  0  0  0  0  0
   38.7250   25.4680   33.9030 C   0  0  0  0  0  0  0  0  0  0  0  0
   39.5890   25.9910   34.8390 C   0  0  0  0  0  0  0  0  0  0  0  0
   40.5750   25.5560   34.9200 H   0  0  0  0  0  0  0  0  0  0  0  0
   39.1790   27.0440   35.6400 C   0  0  0  0  0  0  0  0  0  0  0  0
   39.8260   27.4680   36.3720 H   0  0  0  0  0  0  0  0  0  0  0  0
   37.9060   27.5620   35.4930 C   0  0  0  0  0  3  0  0  0  0  0  0
   37.0140   27.0600   34.5630 C   0  0  0  0  0  3  0  0  0  0  0  0
  2  1  2  6  0  0  0
  2  3  1  0  0  0  0
  2  5  1  0  0  0  0
  4  3  1  0  0  0  0
  5 10  1  0  0  0  0
  6  7  1  0  0  0  0
  6 12  1  0  0  0  0
  7 13  1  0  0  0  0
  8 14  1  0  0  0  0
  8  7  2  0  0  0  0
  9  8  1  0  0  0  0
 10  9  2  0  0  0  0
 10 11  1  0  0  0  0
 11  6  2  0  0  0  0
 15  2  1  0  0  0  0
 15 18  1  0  0  0  0
 16 17  1  0  0  0  0
 17 18  2  0  0  0  0
 17 24  1  0  0  0  0
 18 19  1  0  0  0  0
 19 20  1  0  0  0  0
 19 21  2  0  0  0  0
 21 22  1  0  0  0  0
 23 21  1  0  0  0  0
 24 23  2  0  0  0  0
M  END
>  <minimizedAffinity>
-4.69363499

$$$$

 OpenBabel03272505443D

 24 25  0  0  0  0  0  0  0  0999 V2000
   34.9930   25.1010   30.7760 O   0  0  0  0  0  0  0  0  0  0  0  0
   36.3870   25.0620   31.4110 P   0  0  2  0  0  0  0  0  0  0  0  0
   37.4850   24.9030   30.1530 O   0  0  0  0  0  0  0  0  0  0  0  0
   37.8280   25.8000   29.9180 H   0  0  0  0  0  0  0  0  0  0  0  0
   36.4140   23.7150   32.4550 O   0  0  0  0  0  0  0  0  0  0  0  0
   35.0420   20.3640   31.9830 C   0  0  0  0  0  0  0  0  0  0  0  0
   35.9890   19.8450   31.0530 C   0  0  0  0  0  0  0  0  0  0  0  0
   37.0340   20.6880   30.6540 C   0  0  0  0  0  0  0  0  0  0  0  0
   37.0930   21.9410   31.1660 N   0  0  0  0  0  0  0  0  0  0  0  0
   36.1830   22.4090   32.0450 C   0  0  0  0  0  0  0  0  0  0  0  0
   35.1630   21.6170   32.4500 N   0  0  0  0  0  0  0  0  0  0  0  0
   34.2270   19.7280   32.3040 H   0  0  0  0  0  0  0  0  0  0  0  0
   35.9110   18.8410   30.6650 H   0  0  0  0  0  0  0  0  0  0  0  0
   37.7760   20.3330   29.9490 H   0  0  0  0  0  0  0  0  0  0  0  0
   36.6240   26.5090   32.2030 O   0  0  0  0  0  0  0  0  0  0  0  0
   39.1860   27.0870   31.6130 F   0  0  0  0  0  0  0  0  0  0  0  0
   38.8160   26.9330   32.9230 C   0  0  0  0  0  0  0  0  0  0  0  0
   37.5000   26.6340   33.2710 C   0  0  0  0  0  0  0  0  0  0  0  0
   37.1580   26.4850   34.5970 C   0  0  0  0  0  0  0  0  0  0  0  0
   36.1310   26.2530   34.8350 H   0  0  0  0  0  0  0  0  0  0  0  0
   38.1270   26.6350   35.5770 C   0  0  0  0  0  0  0  0  0  0  0  0
   37.8910   26.5260   36.6100 H   0  0  0  0  0  0  0  0  0  0  0  0
   39.4270   26.9320   35.2160 C   0  0  0  0  0  3  0  0  0  0  0  0
   39.8030   27.0870   33.8940 C   0  0  0  0  0  3  0  0  0  0  0  0
  2  1  2  6  0  0  0
  2 15  1  0  0  0  0
  2  5  1  0  0  0  0
  3  2  1  0  0  0  0
  4  3  1  0  0  0  0
  6 12  1  0  0  0  0
  6 11  1  0  0  0  0
  7  6  2  0  0  0  0
  8  7  1  0  0  0  0
  8  9  2  0  0  0  0
  9 10  1  0  0  0  0
 10 11  2  0  0  0  0
 10  5  1  0  0  0  0
 13  7  1  0  0  0  0
 14  8  1  0  0  0  0
 15 18  1  0  0  0  0
 16 17  1  0  0  0  0
 17 18  2  0  0  0  0
 17 24  1  0  0  0  0
 18 19  1  0  0  0  0
 19 20  1  0  0  0  0
 19 21  2  0  0  0  0
 21 22  1  0  0  0  0
 23 21  1  0  0  0  0
 24 23  2  0  0  0  0
M  END
>  <minimizedAffinity>
-4.64781332

$$$$

 OpenBabel03272505443D

 24 25  0  0  0  0  0  0  0  0999 V2000
   38.5160   27.2300   36.4030 O   0  0  0  0  0  0  0  0  0  0  0  0
   38.1540   26.6100   35.0500 P   0  0  2  0  0  0  0  0  0  0  0  0
   39.4620   26.8740   34.0330 O   0  0  0  0  0  0  0  0  0  0  0  0
   40.0310   26.0660   34.0340 H   0  0  0  0  0  0  0  0  0  0  0  0
   36.7500   27.4070   34.5030 O   0  0  0  0  0  0  0  0  0  0  0  0
   35.9770   29.5540   31.6520 C   0  0  0  0  0  0  0  0  0  0  0  0
   36.4440   28.7230   30.5920 C   0  0  0  0  0  0  0  0  0  0  0  0
   36.9920   27.4800   30.9360 C   0  0  0  0  0  0  0  0  0  0  0  0
   37.0510   27.1340   32.2440 N   0  0  0  0  0  0  0  0  0  0  0  0
   36.6030   27.9390   33.2300 C   0  0  0  0  0  0  0  0  0  0  0  0
   36.0680   29.1440   32.9280 N   0  0  0  0  0  0  0  0  0  0  0  0
   35.5500   30.5170   31.4070 H   0  0  0  0  0  0  0  0  0  0  0  0
   36.3800   29.0320   29.5610 H   0  0  0  0  0  0  0  0  0  0  0  0
   37.3580   26.8180   30.1610 H   0  0  0  0  0  0  0  0  0  0  0  0
   37.9290   24.9750   35.2850 O   0  0  0  0  0  0  0  0  0  0  0  0
   37.2970   24.3020   37.8130 F   0  0  0  0  0  0  0  0  0  0  0  0
   38.4790   23.8660   37.2770 C   0  0  0  0  0  0  0  0  0  0  0  0
   38.8450   24.1920   35.9720 C   0  0  0  0  0  0  0  0  0  0  0  0
   40.0410   23.7390   35.4610 C   0  0  0  0  0  0  0  0  0  0  0  0
   40.2960   24.0090   34.4470 H   0  0  0  0  0  0  0  0  0  0  0  0
   40.8740   22.9610   36.2500 C   0  0  0  0  0  0  0  0  0  0  0  0
   41.8040   22.5970   35.8810 H   0  0  0  0  0  0  0  0  0  0  0  0
   40.4980   22.6460   37.5420 C   0  0  0  0  0  3  0  0  0  0  0  0
   39.3040   23.0850   38.0840 C   0  0  0  0  0  3  0  0  0  0  0  0
  2 15  1  0  0  0  0
  2  1  2  1  0  0  0
  3  4  1  0  0  0  0
  3  2  1  0  0  0  0
  5  2  1  0  0  0  0
  6 11  1  0  0  0  0
  7  8  1  0  0  0  0
  7  6  2  0  0  0  0
  8  9  2  0  0  0  0
  9 10  1  0  0  0  0
 10  5  1  0  0  0  0
 11 10  2  0  0  0  0
 12  6  1  0  0  0  0
 13  7  1  0  0  0  0
 14  8  1  0  0  0  0
 15 18  1  0  0  0  0
 17 16  1  0  0  0  0
 17 24  1  0  0  0  0
 18 17  2  0  0  0  0
 19 18  1  0  0  0  0
 19 21  2  0  0  0  0
 20 19  1  0  0  0  0
 21 23  1  0  0  0  0
 22 21  1  0  0  0  0
 23 24  2  0  0  0  0
M  END
>  <minimizedAffinity>
-4.58096457

$$$$

 OpenBabel03272505443D

 24 25  0  0  0  0  0  0  0  0999 V2000
   41.7900   24.9220   32.8180 O   0  0  0  0  0  0  0  0  0  0  0  0
   41.2030   25.2700   34.1910 P   0  0  2  0  0  0  0  0  0  0  0  0
   42.4580   25.1450   35.2960 O   0  0  0  0  0  0  0  0  0  0  0  0
   42.8380   26.0460   35.4460 H   0  0  0  0  0  0  0  0  0  0  0  0
   39.9680   24.1360   34.4980 O   0  0  0  0  0  0  0  0  0  0  0  0
   37.8570   23.8820   37.4660 C   0  0  0  0  0  0  0  0  0  0  0  0
   38.7390   23.1690   38.3290 C   0  0  0  0  0  0  0  0  0  0  0  0
   40.0010   22.8260   37.8260 C   0  0  0  0  0  0  0  0  0  0  0  0
   40.3160   23.1850   36.5580 N   0  0  0  0  0  0  0  0  0  0  0  0
   39.4620   23.8600   35.7600 C   0  0  0  0  0  0  0  0  0  0  0  0
   38.2370   24.2050   36.2200 N   0  0  0  0  0  0  0  0  0  0  0  0
   36.8780   24.1560   37.8370 H   0  0  0  0  0  0  0  0  0  0  0  0
   38.4540   22.8990   39.3340 H   0  0  0  0  0  0  0  0  0  0  0  0
   40.7020   22.2850   38.4480 H   0  0  0  0  0  0  0  0  0  0  0  0
   40.6490   26.8400   34.1220 O   0  0  0  0  0  0  0  0  0  0  0  0
   39.0980   27.3690   36.2580 F   0  0  0  0  0  0  0  0  0  0  0  0
   38.5520   27.4130   35.0030 C   0  0  0  0  0  0  0  0  0  0  0  0
   39.3200   27.1460   33.8710 C   0  0  0  0  0  0  0  0  0  0  0  0
   38.7420   27.1990   32.6220 C   0  0  0  0  0  0  0  0  0  0  0  0
   39.3630   26.9860   31.7640 H   0  0  0  0  0  0  0  0  0  0  0  0
   37.3990   27.5170   32.4990 C   0  0  0  0  0  0  0  0  0  0  0  0
   36.9260   27.5650   31.5460 H   0  0  0  0  0  0  0  0  0  0  0  0
   36.6500   27.7800   33.6310 C   0  0  0  0  0  3  0  0  0  0  0  0
   37.2000   27.7360   34.8990 C   0  0  0  0  0  3  0  0  0  0  0  0
  2  1  2  6  0  0  0
  2  5  1  0  0  0  0
  2  3  1  0  0  0  0
  3  4  1  0  0  0  0
  5 10  1  0  0  0  0
  6 12  1  0  0  0  0
  6  7  1  0  0  0  0
  7 13  1  0  0  0  0
  8  7  2  0  0  0  0
  8 14  1  0  0  0  0
  9  8  1  0  0  0  0
 10 11  1  0  0  0  0
 10  9  2  0  0  0  0
 11  6  2  0  0  0  0
 15  2  1  0  0  0  0
 17 16  1  0  0  0  0
 18 15  1  0  0  0  0
 18 17  2  0  0  0  0
 19 18  1  0  0  0  0
 20 19  1  0  0  0  0
 21 19  2  0  0  0  0
 21 23  1  0  0  0  0
 22 21  1  0  0  0  0
 23 24  2  0  0  0  0
 24 17  1  0  0  0  0
M  END
>  <minimizedAffinity>
-4.57886982

$$$$
