
 OpenBabel03272510253D

 32 35  0  0  0  0  0  0  0  0999 V2000
   38.0490   24.9160   33.8670 C   0  0  0  0  0  0  0  0  0  0  0  0
   38.3270   25.2550   35.1740 C   0  0  0  0  0  0  0  0  0  0  0  0
   37.9010   26.4630   35.6760 C   0  0  0  0  0  0  0  0  0  0  0  0
   37.1940   27.3000   34.8140 C   0  0  0  0  0  0  0  0  0  0  0  0
   36.6740   28.5460   35.0960 N   0  0  0  0  0  0  0  0  0  0  0  0
   36.0880   28.9600   33.9760 C   0  0  0  0  0  0  0  0  0  0  0  0
   36.2090   28.0420   33.0030 N   0  0  0  0  0  0  0  0  0  0  0  0
   36.8950   27.0020   33.5090 C   0  0  0  0  0  0  0  0  0  0  0  0
   37.3370   25.7790   33.0320 C   0  0  0  0  0  0  0  0  0  0  0  0
   38.3720   23.9670   33.4400 H   0  0  0  0  0  0  0  0  0  0  0  0
   38.1170   26.7250   36.6880 H   0  0  0  0  0  0  0  0  0  0  0  0
   36.7650   29.0190   36.0450 H   0  0  0  0  0  0  0  0  0  0  0  0
   37.1150   25.5250   32.0140 H   0  0  0  0  0  0  0  0  0  0  0  0
   40.8990   22.8430   36.4930 C   0  0  0  0  0  0  0  0  0  0  0  0
   40.2860   23.7360   35.6200 C   0  0  0  0  0  0  0  0  0  0  0  0
   39.0720   24.3110   35.9850 C   0  0  0  0  0  0  0  0  0  0  0  0
   38.5360   23.9660   37.2010 N   0  0  0  0  0  0  0  0  0  0  0  0
   39.1570   23.0900   38.0330 C   0  0  0  0  0  0  0  0  0  0  0  0
   40.3170   22.5410   37.6840 N   0  0  0  0  0  0  0  0  0  0  0  0
   41.8290   22.4360   36.1530 H   0  0  0  0  0  0  0  0  0  0  0  0
   40.7020   24.0030   34.6810 H   0  0  0  0  0  0  0  0  0  0  0  0
   38.7130   22.8350   38.9850 H   0  0  0  0  0  0  0  0  0  0  0  0
   35.4690   30.2080   33.9680 O   0  0  0  0  0  0  0  0  0  0  0  0
   36.7030   31.9310   35.8110 F   0  0  0  0  0  0  0  0  0  0  0  0
   35.4190   31.6230   36.0120 C   0  0  0  0  0  0  0  0  0  0  0  0
   34.8780   30.7780   35.0760 C   0  0  0  0  0  0  0  0  0  0  0  0
   33.5400   30.3890   35.1880 C   0  0  0  0  0  0  0  0  0  0  0  0
   32.9980   29.7210   34.5060 H   0  0  0  0  0  0  0  0  0  0  0  0
   32.7520   30.8510   36.2410 C   0  0  0  0  0  0  0  0  0  0  0  0
   31.7120   30.5660   36.3540 H   0  0  0  0  0  0  0  0  0  0  0  0
   33.3500   31.7080   37.1660 C   0  0  0  0  0  3  0  0  0  0  0  0
   34.6680   32.0990   37.0680 C   0  0  0  0  0  3  0  0  0  0  0  0
  1  2  1  0  0  0  0
  2  3  2  0  0  0  0
  2 16  1  0  0  0  0
  3 11  1  0  0  0  0
  4  5  1  0  0  0  0
  4  3  1  0  0  0  0
  5 12  1  0  0  0  0
  6  5  1  0  0  0  0
  7  8  1  0  0  0  0
  7  6  2  0  0  0  0
  8  4  2  0  0  0  0
  9  8  1  0  0  0  0
  9  1  2  0  0  0  0
 10  1  1  0  0  0  0
 13  9  1  0  0  0  0
 14 19  1  0  0  0  0
 15 16  1  0  0  0  0
 15 14  2  0  0  0  0
 16 17  2  0  0  0  0
 17 18  1  0  0  0  0
 18 22  1  0  0  0  0
 19 18  2  0  0  0  0
 20 14  1  0  0  0  0
 21 15  1  0  0  0  0
 23  6  1  0  0  0  0
 23 26  1  0  0  0  0
 24 25  1  0  0  0  0
 25 32  1  0  0  0  0
 26 27  1  0  0  0  0
 26 25  2  0  0  0  0
 27 29  2  0  0  0  0
 28 27  1  0  0  0  0
 29 30  1  0  0  0  0
 29 31  1  0  0  0  0
 32 31  2  0  0  0  0
M  END
>  <minimizedAffinity>
-6.19679117

$$$$

 OpenBabel03272510253D

 32 35  0  0  0  0  0  0  0  0999 V2000
   38.0910   24.7140   33.8360 C   0  0  0  0  0  0  0  0  0  0  0  0
   38.2670   25.0650   35.1570 C   0  0  0  0  0  0  0  0  0  0  0  0
   37.7950   26.2730   35.6160 C   0  0  0  0  0  0  0  0  0  0  0  0
   37.1470   27.0970   34.6970 C   0  0  0  0  0  0  0  0  0  0  0  0
   36.5970   28.3410   34.9280 N   0  0  0  0  0  0  0  0  0  0  0  0
   36.0940   28.7410   33.7650 C   0  0  0  0  0  0  0  0  0  0  0  0
   36.2950   27.8170   32.8110 N   0  0  0  0  0  0  0  0  0  0  0  0
   36.9500   26.7870   33.3760 C   0  0  0  0  0  0  0  0  0  0  0  0
   37.4370   25.5630   32.9430 C   0  0  0  0  0  0  0  0  0  0  0  0
   38.4530   23.7640   33.4420 H   0  0  0  0  0  0  0  0  0  0  0  0
   37.9320   26.5450   36.6390 H   0  0  0  0  0  0  0  0  0  0  0  0
   36.6130   28.8220   35.8780 H   0  0  0  0  0  0  0  0  0  0  0  0
   37.2940   25.3010   31.9130 H   0  0  0  0  0  0  0  0  0  0  0  0
   39.3460   22.9500   38.0790 C   0  0  0  0  0  0  0  0  0  0  0  0
   38.5980   23.8690   37.3490 C   0  0  0  0  0  0  0  0  0  0  0  0
   38.9570   24.1340   36.0300 C   0  0  0  0  0  0  0  0  0  0  0  0
   40.0400   23.4680   35.5110 N   0  0  0  0  0  0  0  0  0  0  0  0
   40.7510   22.5770   36.2480 C   0  0  0  0  0  0  0  0  0  0  0  0
   40.4080   22.3240   37.5080 N   0  0  0  0  0  0  0  0  0  0  0  0
   39.0190   22.7920   39.0860 H   0  0  0  0  0  0  0  0  0  0  0  0
   37.7610   24.3820   37.7510 H   0  0  0  0  0  0  0  0  0  0  0  0
   41.6000   22.0660   35.8150 H   0  0  0  0  0  0  0  0  0  0  0  0
   35.4660   29.9840   33.7000 O   0  0  0  0  0  0  0  0  0  0  0  0
   32.8810   29.4730   34.6690 F   0  0  0  0  0  0  0  0  0  0  0  0
   33.6110   30.3940   35.3030 C   0  0  0  0  0  0  0  0  0  0  0  0
   34.8630   30.5940   34.7780 C   0  0  0  0  0  0  0  0  0  0  0  0
   35.7150   31.5370   35.3630 C   0  0  0  0  0  0  0  0  0  0  0  0
   36.7320   31.7840   35.0360 H   0  0  0  0  0  0  0  0  0  0  0  0
   35.3020   32.2740   36.4730 C   0  0  0  0  0  0  0  0  0  0  0  0
   35.9400   33.0110   36.9480 H   0  0  0  0  0  0  0  0  0  0  0  0
   34.0200   32.0320   36.9670 C   0  0  0  0  0  3  0  0  0  0  0  0
   33.1700   31.1070   36.4000 C   0  0  0  0  0  3  0  0  0  0  0  0
  1  2  1  0  0  0  0
  2  3  2  0  0  0  0
  2 16  1  0  0  0  0
  3 11  1  0  0  0  0
  4  5  1  0  0  0  0
  4  3  1  0  0  0  0
  5 12  1  0  0  0  0
  6  5  1  0  0  0  0
  7  8  1  0  0  0  0
  7  6  2  0  0  0  0
  8  4  2  0  0  0  0
  9  8  1  0  0  0  0
  9  1  2  0  0  0  0
 10  1  1  0  0  0  0
 13  9  1  0  0  0  0
 14 20  1  0  0  0  0
 15 21  1  0  0  0  0
 15 14  2  0  0  0  0
 16 15  1  0  0  0  0
 17 16  2  0  0  0  0
 17 18  1  0  0  0  0
 18 19  2  0  0  0  0
 19 14  1  0  0  0  0
 22 18  1  0  0  0  0
 23  6  1  0  0  0  0
 23 26  1  0  0  0  0
 24 25  1  0  0  0  0
 25 32  1  0  0  0  0
 26 25  2  0  0  0  0
 26 27  1  0  0  0  0
 27 29  2  0  0  0  0
 28 27  1  0  0  0  0
 29 30  1  0  0  0  0
 29 31  1  0  0  0  0
 32 31  2  0  0  0  0
M  END
>  <minimizedAffinity>
-6.02737188

$$$$

 OpenBabel03272510253D

 32 35  0  0  0  0  0  0  0  0999 V2000
   35.4320   30.6890   32.6420 C   0  0  0  0  0  0  0  0  0  0  0  0
   35.3950   30.0160   33.8440 C   0  0  0  0  0  0  0  0  0  0  0  0
   35.8180   28.7080   33.9130 C   0  0  0  0  0  0  0  0  0  0  0  0
   36.2730   28.1210   32.7340 C   0  0  0  0  0  0  0  0  0  0  0  0
   36.7420   26.8340   32.5650 N   0  0  0  0  0  0  0  0  0  0  0  0
   37.0590   26.7260   31.2790 C   0  0  0  0  0  0  0  0  0  0  0  0
   36.8170   27.8750   30.6260 N   0  0  0  0  0  0  0  0  0  0  0  0
   36.3280   28.7540   31.5190 C   0  0  0  0  0  0  0  0  0  0  0  0
   35.8950   30.0700   31.4800 C   0  0  0  0  0  0  0  0  0  0  0  0
   35.1040   31.7240   32.5550 H   0  0  0  0  0  0  0  0  0  0  0  0
   35.7880   28.1870   34.8440 H   0  0  0  0  0  0  0  0  0  0  0  0
   36.8050   26.1250   33.3560 H   0  0  0  0  0  0  0  0  0  0  0  0
   35.9290   30.5840   30.5400 H   0  0  0  0  0  0  0  0  0  0  0  0
   35.0610   32.2050   36.8890 C   0  0  0  0  0  0  0  0  0  0  0  0
   35.6580   31.5910   35.7920 C   0  0  0  0  0  0  0  0  0  0  0  0
   34.9010   30.7210   35.0120 C   0  0  0  0  0  0  0  0  0  0  0  0
   33.5920   30.5110   35.3680 N   0  0  0  0  0  0  0  0  0  0  0  0
   33.0370   31.1240   36.4450 C   0  0  0  0  0  0  0  0  0  0  0  0
   33.7600   31.9560   37.1890 N   0  0  0  0  0  0  0  0  0  0  0  0
   35.6970   32.8620   37.4470 H   0  0  0  0  0  0  0  0  0  0  0  0
   36.6700   31.7550   35.5180 H   0  0  0  0  0  0  0  0  0  0  0  0
   32.0030   30.9400   36.7030 H   0  0  0  0  0  0  0  0  0  0  0  0
   37.5670   25.5140   30.8150 O   0  0  0  0  0  0  0  0  0  0  0  0
   34.9250   24.5930   30.5730 F   0  0  0  0  0  0  0  0  0  0  0  0
   35.8210   23.7700   31.1240 C   0  0  0  0  0  0  0  0  0  0  0  0
   37.0920   24.2830   31.2120 C   0  0  0  0  0  0  0  0  0  0  0  0
   38.1120   23.5070   31.7730 C   0  0  0  0  0  0  0  0  0  0  0  0
   39.1600   23.8050   31.8980 H   0  0  0  0  0  0  0  0  0  0  0  0
   37.8490   22.2210   32.2430 C   0  0  0  0  0  0  0  0  0  0  0  0
   38.6200   21.5970   32.6820 H   0  0  0  0  0  0  0  0  0  0  0  0
   36.5410   21.7480   32.1290 C   0  0  0  0  0  3  0  0  0  0  0  0
   35.5270   22.5010   31.5800 C   0  0  0  0  0  3  0  0  0  0  0  0
  1  2  1  0  0  0  0
  2  3  2  0  0  0  0
  2 16  1  0  0  0  0
  3 11  1  0  0  0  0
  4  3  1  0  0  0  0
  5  4  1  0  0  0  0
  5 12  1  0  0  0  0
  6  5  1  0  0  0  0
  7  6  2  0  0  0  0
  7  8  1  0  0  0  0
  8  4  2  0  0  0  0
  9  8  1  0  0  0  0
  9  1  2  0  0  0  0
 10  1  1  0  0  0  0
 13  9  1  0  0  0  0
 14 19  1  0  0  0  0
 14 20  1  0  0  0  0
 15 14  2  0  0  0  0
 16 17  2  0  0  0  0
 16 15  1  0  0  0  0
 17 18  1  0  0  0  0
 18 22  1  0  0  0  0
 18 19  2  0  0  0  0
 21 15  1  0  0  0  0
 23 26  1  0  0  0  0
 23  6  1  0  0  0  0
 24 25  1  0  0  0  0
 25 26  2  0  0  0  0
 25 32  1  0  0  0  0
 26 27  1  0  0  0  0
 27 28  1  0  0  0  0
 27 29  2  0  0  0  0
 29 30  1  0  0  0  0
 31 29  1  0  0  0  0
 32 31  2  0  0  0  0
M  END
>  <minimizedAffinity>
-5.80102921

$$$$

 OpenBabel03272510253D

 32 35  0  0  0  0  0  0  0  0999 V2000
   35.6110   25.8680   30.8460 C   0  0  0  0  0  0  0  0  0  0  0  0
   36.4800   26.7740   31.4140 C   0  0  0  0  0  0  0  0  0  0  0  0
   37.3940   26.3540   32.3530 C   0  0  0  0  0  0  0  0  0  0  0  0
   37.3900   25.0020   32.6880 C   0  0  0  0  0  0  0  0  0  0  0  0
   38.2080   24.3600   33.5960 N   0  0  0  0  0  0  0  0  0  0  0  0
   37.8410   23.0830   33.5810 C   0  0  0  0  0  0  0  0  0  0  0  0
   36.8360   22.8810   32.7120 N   0  0  0  0  0  0  0  0  0  0  0  0
   36.5440   24.0670   32.1480 C   0  0  0  0  0  0  0  0  0  0  0  0
   35.6350   24.5200   31.2050 C   0  0  0  0  0  0  0  0  0  0  0  0
   34.8760   26.1690   30.1000 H   0  0  0  0  0  0  0  0  0  0  0  0
   38.0670   27.0570   32.7930 H   0  0  0  0  0  0  0  0  0  0  0  0
   38.9610   24.8580   34.1600 H   0  0  0  0  0  0  0  0  0  0  0  0
   34.9640   23.8060   30.7700 H   0  0  0  0  0  0  0  0  0  0  0  0
   36.9720   30.0700   29.6610 C   0  0  0  0  0  0  0  0  0  0  0  0
   37.1470   28.7230   29.9640 C   0  0  0  0  0  0  0  0  0  0  0  0
   36.3990   28.1610   30.9950 C   0  0  0  0  0  0  0  0  0  0  0  0
   35.5180   28.9710   31.6670 N   0  0  0  0  0  0  0  0  0  0  0  0
   35.3690   30.2830   31.3490 C   0  0  0  0  0  0  0  0  0  0  0  0
   36.0840   30.8200   30.3640 N   0  0  0  0  0  0  0  0  0  0  0  0
   37.5780   30.4410   28.8590 H   0  0  0  0  0  0  0  0  0  0  0  0
   37.8290   28.0980   29.4430 H   0  0  0  0  0  0  0  0  0  0  0  0
   34.6680   30.8990   31.8950 H   0  0  0  0  0  0  0  0  0  0  0  0
   38.5080   22.1860   34.4140 O   0  0  0  0  0  0  0  0  0  0  0  0
   41.0460   21.8440   35.5660 F   0  0  0  0  0  0  0  0  0  0  0  0
   40.0710   22.3250   36.3420 C   0  0  0  0  0  0  0  0  0  0  0  0
   38.8580   22.4670   35.7170 C   0  0  0  0  0  0  0  0  0  0  0  0
   37.7640   22.9610   36.4360 C   0  0  0  0  0  0  0  0  0  0  0  0
   36.7500   23.1180   36.0490 H   0  0  0  0  0  0  0  0  0  0  0  0
   37.8970   23.3100   37.7790 C   0  0  0  0  0  0  0  0  0  0  0  0
   37.0680   23.6970   38.3610 H   0  0  0  0  0  0  0  0  0  0  0  0
   39.1530   23.1470   38.3660 C   0  0  0  0  0  3  0  0  0  0  0  0
   40.2380   22.6600   37.6710 C   0  0  0  0  0  3  0  0  0  0  0  0
  1  9  2  0  0  0  0
  1  2  1  0  0  0  0
  2  3  2  0  0  0  0
  3  4  1  0  0  0  0
  3 11  1  0  0  0  0
  4  5  1  0  0  0  0
  5 12  1  0  0  0  0
  6  5  1  0  0  0  0
  6 23  1  0  0  0  0
  7  6  2  0  0  0  0
  8  4  2  0  0  0  0
  8  7  1  0  0  0  0
  9  8  1  0  0  0  0
 10  1  1  0  0  0  0
 13  9  1  0  0  0  0
 14 15  2  0  0  0  0
 14 19  1  0  0  0  0
 15 16  1  0  0  0  0
 16  2  1  0  0  0  0
 16 17  2  0  0  0  0
 18 17  1  0  0  0  0
 18 22  1  0  0  0  0
 19 18  2  0  0  0  0
 20 14  1  0  0  0  0
 21 15  1  0  0  0  0
 23 26  1  0  0  0  0
 24 25  1  0  0  0  0
 25 32  1  0  0  0  0
 26 25  2  0  0  0  0
 26 27  1  0  0  0  0
 27 29  2  0  0  0  0
 28 27  1  0  0  0  0
 29 30  1  0  0  0  0
 29 31  1  0  0  0  0
 32 31  2  0  0  0  0
M  END
>  <minimizedAffinity>
-5.74593449

$$$$

 OpenBabel03272510253D

 32 35  0  0  0  0  0  0  0  0999 V2000
   38.2390   24.9530   33.7100 C   0  0  0  0  0  0  0  0  0  0  0  0
   38.2880   25.2250   35.0600 C   0  0  0  0  0  0  0  0  0  0  0  0
   37.6800   26.3560   35.5550 C   0  0  0  0  0  0  0  0  0  0  0  0
   37.0310   27.1850   34.6420 C   0  0  0  0  0  0  0  0  0  0  0  0
   36.3580   28.3600   34.9070 N   0  0  0  0  0  0  0  0  0  0  0  0
   35.9070   28.7970   33.7360 C   0  0  0  0  0  0  0  0  0  0  0  0
   36.2570   27.9600   32.7440 N   0  0  0  0  0  0  0  0  0  0  0  0
   36.9570   26.9510   33.2930 C   0  0  0  0  0  0  0  0  0  0  0  0
   37.5790   25.8050   32.8230 C   0  0  0  0  0  0  0  0  0  0  0  0
   38.7110   24.0660   33.2870 H   0  0  0  0  0  0  0  0  0  0  0  0
   37.7190   26.5670   36.6010 H   0  0  0  0  0  0  0  0  0  0  0  0
   36.2630   28.7740   35.8840 H   0  0  0  0  0  0  0  0  0  0  0  0
   37.5350   25.6030   31.7720 H   0  0  0  0  0  0  0  0  0  0  0  0
   40.7270   22.7440   36.4980 C   0  0  0  0  0  0  0  0  0  0  0  0
   40.1490   23.6070   35.5720 C   0  0  0  0  0  0  0  0  0  0  0  0
   38.9920   24.2970   35.9240 C   0  0  0  0  0  0  0  0  0  0  0  0
   38.4760   24.0890   37.1790 N   0  0  0  0  0  0  0  0  0  0  0  0
   39.0620   23.2400   38.0620 C   0  0  0  0  0  0  0  0  0  0  0  0
   40.1670   22.5810   37.7250 N   0  0  0  0  0  0  0  0  0  0  0  0
   41.6140   22.2440   36.1650 H   0  0  0  0  0  0  0  0  0  0  0  0
   40.5500   23.7670   34.6020 H   0  0  0  0  0  0  0  0  0  0  0  0
   38.6340   23.0940   39.0440 H   0  0  0  0  0  0  0  0  0  0  0  0
   35.1800   29.9840   33.7000 O   0  0  0  0  0  0  0  0  0  0  0  0
   35.5670   31.1860   36.2080 F   0  0  0  0  0  0  0  0  0  0  0  0
   35.9460   31.8710   35.1260 C   0  0  0  0  0  0  0  0  0  0  0  0
   35.7290   31.2260   33.9340 C   0  0  0  0  0  0  0  0  0  0  0  0
   36.0880   31.8510   32.7360 C   0  0  0  0  0  0  0  0  0  0  0  0
   35.9640   31.4400   31.7270 H   0  0  0  0  0  0  0  0  0  0  0  0
   36.6640   33.1220   32.7420 C   0  0  0  0  0  0  0  0  0  0  0  0
   36.9530   33.6300   31.8290 H   0  0  0  0  0  0  0  0  0  0  0  0
   36.8640   33.7320   33.9810 C   0  0  0  0  0  3  0  0  0  0  0  0
   36.5140   33.1280   35.1690 C   0  0  0  0  0  3  0  0  0  0  0  0
  1  2  1  0  0  0  0
  2  3  2  0  0  0  0
  2 16  1  0  0  0  0
  3 11  1  0  0  0  0
  4  5  1  0  0  0  0
  4  3  1  0  0  0  0
  5 12  1  0  0  0  0
  6  5  1  0  0  0  0
  7  8  1  0  0  0  0
  7  6  2  0  0  0  0
  8  4  2  0  0  0  0
  9  8  1  0  0  0  0
  9  1  2  0  0  0  0
 10  1  1  0  0  0  0
 13  9  1  0  0  0  0
 14 19  1  0  0  0  0
 15 16  1  0  0  0  0
 15 14  2  0  0  0  0
 16 17  2  0  0  0  0
 17 18  1  0  0  0  0
 18 22  1  0  0  0  0
 19 18  2  0  0  0  0
 20 14  1  0  0  0  0
 21 15  1  0  0  0  0
 23  6  1  0  0  0  0
 23 26  1  0  0  0  0
 25 32  1  0  0  0  0
 25 24  1  0  0  0  0
 26 25  2  0  0  0  0
 27 29  2  0  0  0  0
 27 26  1  0  0  0  0
 28 27  1  0  0  0  0
 29 31  1  0  0  0  0
 30 29  1  0  0  0  0
 31 32  2  0  0  0  0
M  END
>  <minimizedAffinity>
-5.68927383

$$$$

 OpenBabel03272510253D

 32 35  0  0  0  0  0  0  0  0999 V2000
   35.7500   30.1150   32.6980 C   0  0  0  0  0  0  0  0  0  0  0  0
   35.6860   29.6700   34.0010 C   0  0  0  0  0  0  0  0  0  0  0  0
   36.1300   28.4070   34.3180 C   0  0  0  0  0  0  0  0  0  0  0  0
   36.6320   27.6260   33.2790 C   0  0  0  0  0  0  0  0  0  0  0  0
   37.1280   26.3410   33.3600 N   0  0  0  0  0  0  0  0  0  0  0  0
   37.4880   26.0090   32.1250 C   0  0  0  0  0  0  0  0  0  0  0  0
   37.2480   27.0150   31.2670 N   0  0  0  0  0  0  0  0  0  0  0  0
   36.7150   28.0290   31.9710 C   0  0  0  0  0  0  0  0  0  0  0  0
   36.2600   29.3060   31.6820 C   0  0  0  0  0  0  0  0  0  0  0  0
   35.4070   31.1100   32.4150 H   0  0  0  0  0  0  0  0  0  0  0  0
   36.0790   28.0630   35.3270 H   0  0  0  0  0  0  0  0  0  0  0  0
   37.1790   25.7890   34.2690 H   0  0  0  0  0  0  0  0  0  0  0  0
   36.3140   29.6420   30.6650 H   0  0  0  0  0  0  0  0  0  0  0  0
   35.2440   32.2880   36.6700 C   0  0  0  0  0  0  0  0  0  0  0  0
   35.8900   31.4880   35.7320 C   0  0  0  0  0  0  0  0  0  0  0  0
   35.1430   30.5640   35.0070 C   0  0  0  0  0  0  0  0  0  0  0  0
   33.7950   30.4870   35.2560 N   0  0  0  0  0  0  0  0  0  0  0  0
   33.1930   31.2810   36.1780 C   0  0  0  0  0  0  0  0  0  0  0  0
   33.9060   32.1640   36.8710 N   0  0  0  0  0  0  0  0  0  0  0  0
   35.8740   32.9780   37.1940 H   0  0  0  0  0  0  0  0  0  0  0  0
   36.9320   31.5490   35.5410 H   0  0  0  0  0  0  0  0  0  0  0  0
   32.1290   31.2000   36.3540 H   0  0  0  0  0  0  0  0  0  0  0  0
   38.0320   24.7450   31.9040 O   0  0  0  0  0  0  0  0  0  0  0  0
   38.4730   23.0280   34.0820 F   0  0  0  0  0  0  0  0  0  0  0  0
   37.5280   22.6860   33.2030 C   0  0  0  0  0  0  0  0  0  0  0  0
   37.3640   23.5680   32.1640 C   0  0  0  0  0  0  0  0  0  0  0  0
   36.4000   23.3090   31.1840 C   0  0  0  0  0  0  0  0  0  0  0  0
   36.1780   23.9350   30.3110 H   0  0  0  0  0  0  0  0  0  0  0  0
   35.6070   22.1640   31.2530 C   0  0  0  0  0  0  0  0  0  0  0  0
   34.8520   21.9380   30.5090 H   0  0  0  0  0  0  0  0  0  0  0  0
   35.8130   21.3010   32.3300 C   0  0  0  0  0  3  0  0  0  0  0  0
   36.7590   21.5440   33.3020 C   0  0  0  0  0  3  0  0  0  0  0  0
  1  2  1  0  0  0  0
  2  3  2  0  0  0  0
  2 16  1  0  0  0  0
  3 11  1  0  0  0  0
  4  5  1  0  0  0  0
  4  3  1  0  0  0  0
  5 12  1  0  0  0  0
  6  5  1  0  0  0  0
  7  8  1  0  0  0  0
  7  6  2  0  0  0  0
  8  4  2  0  0  0  0
  9  8  1  0  0  0  0
  9  1  2  0  0  0  0
 10  1  1  0  0  0  0
 13  9  1  0  0  0  0
 14 19  1  0  0  0  0
 14 20  1  0  0  0  0
 15 14  2  0  0  0  0
 16 17  2  0  0  0  0
 16 15  1  0  0  0  0
 17 18  1  0  0  0  0
 18 22  1  0  0  0  0
 18 19  2  0  0  0  0
 21 15  1  0  0  0  0
 23  6  1  0  0  0  0
 23 26  1  0  0  0  0
 25 32  1  0  0  0  0
 25 24  1  0  0  0  0
 26 25  2  0  0  0  0
 27 29  2  0  0  0  0
 27 26  1  0  0  0  0
 28 27  1  0  0  0  0
 29 31  1  0  0  0  0
 30 29  1  0  0  0  0
 31 32  2  0  0  0  0
M  END
>  <minimizedAffinity>
-5.67813015

$$$$

 OpenBabel03272510253D

 32 35  0  0  0  0  0  0  0  0999 V2000
   35.8670   28.7360   32.6220 C   0  0  0  0  0  0  0  0  0  0  0  0
   36.0720   28.9920   33.9610 C   0  0  0  0  0  0  0  0  0  0  0  0
   36.6630   28.0400   34.7590 C   0  0  0  0  0  0  0  0  0  0  0  0
   37.0330   26.8390   34.1560 C   0  0  0  0  0  0  0  0  0  0  0  0
   37.6350   25.7510   34.7540 N   0  0  0  0  0  0  0  0  0  0  0  0
   37.7930   24.8470   33.7930 C   0  0  0  0  0  0  0  0  0  0  0  0
   37.3250   25.3040   32.6200 N   0  0  0  0  0  0  0  0  0  0  0  0
   36.8480   26.5440   32.8300 C   0  0  0  0  0  0  0  0  0  0  0  0
   36.2490   27.5220   32.0510 C   0  0  0  0  0  0  0  0  0  0  0  0
   35.4010   29.4690   31.9640 H   0  0  0  0  0  0  0  0  0  0  0  0
   36.8220   28.2390   35.7960 H   0  0  0  0  0  0  0  0  0  0  0  0
   37.8900   25.7160   35.7870 H   0  0  0  0  0  0  0  0  0  0  0  0
   36.0950   27.3130   31.0110 H   0  0  0  0  0  0  0  0  0  0  0  0
   35.5990   32.0630   36.0860 C   0  0  0  0  0  0  0  0  0  0  0  0
   36.0830   30.8190   35.6950 C   0  0  0  0  0  0  0  0  0  0  0  0
   35.6490   30.2760   34.4890 C   0  0  0  0  0  0  0  0  0  0  0  0
   34.7570   31.0020   33.7390 N   0  0  0  0  0  0  0  0  0  0  0  0
   34.3010   32.2140   34.1470 C   0  0  0  0  0  0  0  0  0  0  0  0
   34.7160   32.7330   35.3000 N   0  0  0  0  0  0  0  0  0  0  0  0
   35.9710   32.4250   37.0230 H   0  0  0  0  0  0  0  0  0  0  0  0
   36.7730   30.2590   36.2750 H   0  0  0  0  0  0  0  0  0  0  0  0
   33.5990   32.7650   33.5380 H   0  0  0  0  0  0  0  0  0  0  0  0
   38.3860   23.6270   34.1140 O   0  0  0  0  0  0  0  0  0  0  0  0
   37.2010   23.1710   36.6180 F   0  0  0  0  0  0  0  0  0  0  0  0
   38.5350   23.1560   36.5510 C   0  0  0  0  0  0  0  0  0  0  0  0
   39.0480   23.3850   35.2980 C   0  0  0  0  0  0  0  0  0  0  0  0
   40.4340   23.3930   35.1110 C   0  0  0  0  0  0  0  0  0  0  0  0
   40.9600   23.5640   34.1640 H   0  0  0  0  0  0  0  0  0  0  0  0
   41.2970   23.1690   36.1830 C   0  0  0  0  0  0  0  0  0  0  0  0
   42.3750   23.1680   36.0670 H   0  0  0  0  0  0  0  0  0  0  0  0
   40.7230   22.9390   37.4350 C   0  0  0  0  0  3  0  0  0  0  0  0
   39.3600   22.9310   37.6340 C   0  0  0  0  0  3  0  0  0  0  0  0
  1  2  1  0  0  0  0
  2 16  1  0  0  0  0
  2  3  2  0  0  0  0
  3 11  1  0  0  0  0
  4  5  1  0  0  0  0
  4  3  1  0  0  0  0
  5 12  1  0  0  0  0
  6 23  1  0  0  0  0
  6  5  1  0  0  0  0
  7  8  1  0  0  0  0
  7  6  2  0  0  0  0
  8  4  2  0  0  0  0
  9  1  2  0  0  0  0
  9  8  1  0  0  0  0
 10  1  1  0  0  0  0
 13  9  1  0  0  0  0
 14 20  1  0  0  0  0
 15 14  1  0  0  0  0
 15 21  1  0  0  0  0
 16 15  2  0  0  0  0
 17 18  2  0  0  0  0
 17 16  1  0  0  0  0
 18 19  1  0  0  0  0
 19 14  2  0  0  0  0
 22 18  1  0  0  0  0
 23 26  1  0  0  0  0
 25 24  1  0  0  0  0
 25 32  1  0  0  0  0
 26 25  2  0  0  0  0
 27 26  1  0  0  0  0
 27 29  2  0  0  0  0
 28 27  1  0  0  0  0
 29 31  1  0  0  0  0
 30 29  1  0  0  0  0
 31 32  2  0  0  0  0
M  END
>  <minimizedAffinity>
-5.57907248

$$$$

 OpenBabel03272510253D

 32 35  0  0  0  0  0  0  0  0999 V2000
   38.3900   24.7220   33.6620 C   0  0  0  0  0  0  0  0  0  0  0  0
   38.3930   25.0670   34.9960 C   0  0  0  0  0  0  0  0  0  0  0  0
   37.7430   26.2070   35.4120 C   0  0  0  0  0  0  0  0  0  0  0  0
   37.1000   26.9680   34.4380 C   0  0  0  0  0  0  0  0  0  0  0  0
   36.3920   28.1370   34.6210 N   0  0  0  0  0  0  0  0  0  0  0  0
   35.9640   28.4990   33.4150 C   0  0  0  0  0  0  0  0  0  0  0  0
   36.3630   27.6200   32.4800 N   0  0  0  0  0  0  0  0  0  0  0  0
   37.0720   26.6610   33.1020 C   0  0  0  0  0  0  0  0  0  0  0  0
   37.7360   25.5080   32.7130 C   0  0  0  0  0  0  0  0  0  0  0  0
   38.8960   23.8270   33.3010 H   0  0  0  0  0  0  0  0  0  0  0  0
   37.7460   26.4740   36.4460 H   0  0  0  0  0  0  0  0  0  0  0  0
   36.2580   28.6000   35.5700 H   0  0  0  0  0  0  0  0  0  0  0  0
   37.7260   25.2490   31.6720 H   0  0  0  0  0  0  0  0  0  0  0  0
   40.8860   22.7870   36.6580 C   0  0  0  0  0  0  0  0  0  0  0  0
   40.3190   23.5920   35.6750 C   0  0  0  0  0  0  0  0  0  0  0  0
   39.0950   24.2050   35.9280 C   0  0  0  0  0  0  0  0  0  0  0  0
   38.5030   23.9820   37.1470 N   0  0  0  0  0  0  0  0  0  0  0  0
   39.0800   23.1900   38.0870 C   0  0  0  0  0  0  0  0  0  0  0  0
   40.2500   22.6050   37.8450 N   0  0  0  0  0  0  0  0  0  0  0  0
   41.8270   22.3450   36.4000 H   0  0  0  0  0  0  0  0  0  0  0  0
   40.7770   23.7640   34.7330 H   0  0  0  0  0  0  0  0  0  0  0  0
   38.5930   23.0310   39.0390 H   0  0  0  0  0  0  0  0  0  0  0  0
   35.2090   29.6640   33.2950 O   0  0  0  0  0  0  0  0  0  0  0  0
   34.5490   30.8410   35.7580 F   0  0  0  0  0  0  0  0  0  0  0  0
   33.5490   30.3740   35.0050 C   0  0  0  0  0  0  0  0  0  0  0  0
   33.9410   29.8120   33.8160 C   0  0  0  0  0  0  0  0  0  0  0  0
   32.9770   29.2890   32.9470 C   0  0  0  0  0  0  0  0  0  0  0  0
   33.1660   28.8180   31.9750 H   0  0  0  0  0  0  0  0  0  0  0  0
   31.6240   29.3340   33.2800 C   0  0  0  0  0  0  0  0  0  0  0  0
   30.8540   28.9380   32.6260 H   0  0  0  0  0  0  0  0  0  0  0  0
   31.2790   29.9170   34.5000 C   0  0  0  0  0  3  0  0  0  0  0  0
   32.2180   30.4350   35.3650 C   0  0  0  0  0  3  0  0  0  0  0  0
  1  2  1  0  0  0  0
  2  3  2  0  0  0  0
  2 16  1  0  0  0  0
  3 11  1  0  0  0  0
  4  5  1  0  0  0  0
  4  3  1  0  0  0  0
  5 12  1  0  0  0  0
  6  5  1  0  0  0  0
  7  8  1  0  0  0  0
  7  6  2  0  0  0  0
  8  4  2  0  0  0  0
  9  8  1  0  0  0  0
  9  1  2  0  0  0  0
 10  1  1  0  0  0  0
 13  9  1  0  0  0  0
 14 19  1  0  0  0  0
 15 16  1  0  0  0  0
 15 14  2  0  0  0  0
 16 17  2  0  0  0  0
 17 18  1  0  0  0  0
 18 22  1  0  0  0  0
 19 18  2  0  0  0  0
 20 14  1  0  0  0  0
 21 15  1  0  0  0  0
 23  6  1  0  0  0  0
 23 26  1  0  0  0  0
 25 32  1  0  0  0  0
 25 24  1  0  0  0  0
 26 25  2  0  0  0  0
 27 29  2  0  0  0  0
 27 26  1  0  0  0  0
 28 27  1  0  0  0  0
 29 31  1  0  0  0  0
 30 29  1  0  0  0  0
 31 32  2  0  0  0  0
M  END
>  <minimizedAffinity>
-5.57401848

$$$$

 OpenBabel03272510253D

 32 35  0  0  0  0  0  0  0  0999 V2000
   36.6750   26.9190   32.5490 C   0  0  0  0  0  0  0  0  0  0  0  0
   36.5860   27.8070   33.5990 C   0  0  0  0  0  0  0  0  0  0  0  0
   37.0830   27.4600   34.8350 C   0  0  0  0  0  0  0  0  0  0  0  0
   37.6640   26.1990   34.9610 C   0  0  0  0  0  0  0  0  0  0  0  0
   38.2230   25.6420   36.0920 N   0  0  0  0  0  0  0  0  0  0  0  0
   38.6450   24.4340   35.7360 C   0  0  0  0  0  0  0  0  0  0  0  0
   38.3840   24.1970   34.4390 N   0  0  0  0  0  0  0  0  0  0  0  0
   37.7730   25.2870   33.9420 C   0  0  0  0  0  0  0  0  0  0  0  0
   37.2640   25.6640   32.7100 C   0  0  0  0  0  0  0  0  0  0  0  0
   36.2920   27.1630   31.5590 H   0  0  0  0  0  0  0  0  0  0  0  0
   37.0130   28.1470   35.6490 H   0  0  0  0  0  0  0  0  0  0  0  0
   38.2680   26.1430   37.0310 H   0  0  0  0  0  0  0  0  0  0  0  0
   37.3390   24.9660   31.8990 H   0  0  0  0  0  0  0  0  0  0  0  0
   34.9500   31.1740   33.9960 C   0  0  0  0  0  0  0  0  0  0  0  0
   35.5360   29.9660   34.3610 C   0  0  0  0  0  0  0  0  0  0  0  0
   35.9610   29.0940   33.3620 C   0  0  0  0  0  0  0  0  0  0  0  0
   35.7790   29.4740   32.0550 N   0  0  0  0  0  0  0  0  0  0  0  0
   35.2030   30.6590   31.7290 C   0  0  0  0  0  0  0  0  0  0  0  0
   34.7970   31.4920   32.6840 N   0  0  0  0  0  0  0  0  0  0  0  0
   34.6460   31.7990   34.8110 H   0  0  0  0  0  0  0  0  0  0  0  0
   35.6770   29.6740   35.3710 H   0  0  0  0  0  0  0  0  0  0  0  0
   35.0710   30.9340   30.6920 H   0  0  0  0  0  0  0  0  0  0  0  0
   39.2610   23.6310   36.6940 O   0  0  0  0  0  0  0  0  0  0  0  0
   41.3980   24.8780   35.3660 F   0  0  0  0  0  0  0  0  0  0  0  0
   41.6300   23.6960   35.9430 C   0  0  0  0  0  0  0  0  0  0  0  0
   40.5440   23.1430   36.5730 C   0  0  0  0  0  0  0  0  0  0  0  0
   40.6720   21.9050   37.2120 C   0  0  0  0  0  0  0  0  0  0  0  0
   39.8820   21.3640   37.7460 H   0  0  0  0  0  0  0  0  0  0  0  0
   41.8930   21.2290   37.2120 C   0  0  0  0  0  0  0  0  0  0  0  0
   42.0220   20.2690   37.6990 H   0  0  0  0  0  0  0  0  0  0  0  0
   42.9650   21.8360   36.5570 C   0  0  0  0  0  3  0  0  0  0  0  0
   42.8520   23.0550   35.9230 C   0  0  0  0  0  3  0  0  0  0  0  0
  1  9  2  0  0  0  0
  1  2  1  0  0  0  0
  2  3  2  0  0  0  0
  3  4  1  0  0  0  0
  3 11  1  0  0  0  0
  4  5  1  0  0  0  0
  5 12  1  0  0  0  0
  6  5  1  0  0  0  0
  6 23  1  0  0  0  0
  7  6  2  0  0  0  0
  8  7  1  0  0  0  0
  8  4  2  0  0  0  0
  9  8  1  0  0  0  0
 10  1  1  0  0  0  0
 13  9  1  0  0  0  0
 14 15  1  0  0  0  0
 14 20  1  0  0  0  0
 15 21  1  0  0  0  0
 16  2  1  0  0  0  0
 16 15  2  0  0  0  0
 17 16  1  0  0  0  0
 18 17  2  0  0  0  0
 18 19  1  0  0  0  0
 19 14  2  0  0  0  0
 22 18  1  0  0  0  0
 24 25  1  0  0  0  0
 25 26  1  0  0  0  0
 26 23  1  0  0  0  0
 26 27  2  0  0  0  0
 27 29  1  0  0  0  0
 27 28  1  0  0  0  0
 29 30  1  0  0  0  0
 31 29  2  0  0  0  0
 32 25  2  0  0  0  0
 32 31  1  0  0  0  0
M  END
>  <minimizedAffinity>
-5.57032871

$$$$
