
 OpenBabel03272508083D

 24 25  0  0  0  0  0  0  0  0999 V2000
   38.9820   32.4750   47.9370 O   0  0  0  0  0  0  0  0  0  0  0  0
   38.4570   31.4560   46.9930 P   0  0  2  0  0  0  0  0  0  0  0  0
   37.3950   32.1990   45.8840 O   0  0  0  0  0  0  0  0  0  0  0  0
   36.7690   32.7590   46.4430 H   0  0  0  0  0  0  0  0  0  0  0  0
   37.6880   30.1310   47.7200 O   0  0  0  0  0  0  0  0  0  0  0  0
   37.3370   30.1380   51.4110 C   0  0  0  0  0  0  0  0  0  0  0  0
   37.9560   30.3880   50.1830 C   0  0  0  0  0  0  0  0  0  0  0  0
   37.2990   30.0000   49.0180 C   0  0  0  0  0  0  0  0  0  0  0  0
   36.0790   29.3930   49.1320 N   0  0  0  0  0  0  0  0  0  0  0  0
   35.5140   29.1690   50.3290 C   0  0  0  0  0  0  0  0  0  0  0  0
   36.1390   29.5390   51.4640 N   0  0  0  0  0  0  0  0  0  0  0  0
   37.9330   30.4790   52.2510 H   0  0  0  0  0  0  0  0  0  0  0  0
   38.8860   30.8480   50.0130 H   0  0  0  0  0  0  0  0  0  0  0  0
   34.5440   28.6850   50.4310 H   0  0  0  0  0  0  0  0  0  0  0  0
   39.7520   30.8860   46.0550 O   0  0  0  0  0  0  0  0  0  0  0  0
   40.8530   32.6080   44.3040 F   0  0  0  0  0  0  0  0  0  0  0  0
   40.2680   31.4380   43.8850 C   0  0  0  0  0  0  0  0  0  0  0  0
   39.6780   30.5000   44.7390 C   0  0  0  0  0  0  0  0  0  0  0  0
   39.1360   29.3780   44.1420 C   0  0  0  0  0  0  0  0  0  0  0  0
   38.6980   28.7040   44.8920 H   0  0  0  0  0  0  0  0  0  0  0  0
   39.1800   29.2060   42.7880 C   0  0  0  0  0  0  0  0  0  0  0  0
   38.7330   28.2990   42.4050 H   0  0  0  0  0  0  0  0  0  0  0  0
   39.7540   30.1200   41.9640 C   0  0  0  0  0  3  0  0  0  0  0  0
   40.3110   31.2610   42.5170 C   0  0  0  0  0  3  0  0  0  0  0  0
  2  5  1  0  0  0  0
  2  1  2  1  0  0  0
  3  4  1  0  0  0  0
  3  2  1  0  0  0  0
  5  8  1  0  0  0  0
  6 11  1  0  0  0  0
  6 12  1  0  0  0  0
  7  6  2  0  0  0  0
  8  9  2  0  0  0  0
  8  7  1  0  0  0  0
  9 10  1  0  0  0  0
 10 14  1  0  0  0  0
 10 11  2  0  0  0  0
 13  7  1  0  0  0  0
 15  2  1  0  0  0  0
 17 16  1  0  0  0  0
 17 18  1  0  0  0  0
 18 15  1  0  0  0  0
 19 18  2  0  0  0  0
 19 20  1  0  0  0  0
 21 19  1  0  0  0  0
 22 21  1  0  0  0  0
 23 24  1  0  0  0  0
 23 21  2  0  0  0  0
 24 17  2  0  0  0  0
M  END
>  <minimizedAffinity>
-5.36501694

>  <minimizedRMSD>
2.78365088

$$$$
