
 OpenBabel03272510243D

 32 35  0  0  0  0  0  0  0  0999 V2000
   35.9820   30.0860   46.9230 C   0  0  0  0  0  0  0  0  0  0  0  0
   36.8910   30.6540   47.7890 C   0  0  0  0  0  0  0  0  0  0  0  0
   37.8440   31.5240   47.3120 C   0  0  0  0  0  0  0  0  0  0  0  0
   37.8380   31.7910   45.9440 C   0  0  0  0  0  0  0  0  0  0  0  0
   38.6910   32.6220   45.2480 N   0  0  0  0  0  0  0  0  0  0  0  0
   38.3070   32.5610   43.9770 C   0  0  0  0  0  0  0  0  0  0  0  0
   37.2560   31.7360   43.8320 N   0  0  0  0  0  0  0  0  0  0  0  0
   36.9520   31.2490   45.0480 C   0  0  0  0  0  0  0  0  0  0  0  0
   36.0040   30.3760   45.5580 C   0  0  0  0  0  0  0  0  0  0  0  0
   35.2150   29.3930   47.2700 H   0  0  0  0  0  0  0  0  0  0  0  0
   38.5480   31.9630   47.9830 H   0  0  0  0  0  0  0  0  0  0  0  0
   39.4790   33.1710   45.7080 H   0  0  0  0  0  0  0  0  0  0  0  0
   35.3020   29.9400   44.8750 H   0  0  0  0  0  0  0  0  0  0  0  0
   37.5850   30.2120   51.4630 C   0  0  0  0  0  0  0  0  0  0  0  0
   37.7880   30.6010   50.1420 C   0  0  0  0  0  0  0  0  0  0  0  0
   36.8100   30.3070   49.1960 C   0  0  0  0  0  0  0  0  0  0  0  0
   35.6850   29.6420   49.6170 N   0  0  0  0  0  0  0  0  0  0  0  0
   35.5160   29.2740   50.9130 C   0  0  0  0  0  0  0  0  0  0  0  0
   36.4500   29.5550   51.8170 N   0  0  0  0  0  0  0  0  0  0  0  0
   38.3740   30.4680   52.1410 H   0  0  0  0  0  0  0  0  0  0  0  0
   38.6570   31.1160   49.8190 H   0  0  0  0  0  0  0  0  0  0  0  0
   34.6200   28.7510   51.2180 H   0  0  0  0  0  0  0  0  0  0  0  0
   39.0010   33.3140   43.0320 O   0  0  0  0  0  0  0  0  0  0  0  0
   40.2560   31.1200   41.8100 F   0  0  0  0  0  0  0  0  0  0  0  0
   39.6040   31.9790   41.0230 C   0  0  0  0  0  0  0  0  0  0  0  0
   39.0140   33.0270   41.6840 C   0  0  0  0  0  0  0  0  0  0  0  0
   38.3030   33.9890   40.9590 C   0  0  0  0  0  0  0  0  0  0  0  0
   37.7910   34.8670   41.3720 H   0  0  0  0  0  0  0  0  0  0  0  0
   38.1890   33.8920   39.5720 C   0  0  0  0  0  0  0  0  0  0  0  0
   37.6440   34.6210   38.9840 H   0  0  0  0  0  0  0  0  0  0  0  0
   38.8070   32.8060   38.9490 C   0  0  0  0  0  3  0  0  0  0  0  0
   39.5110   31.8520   39.6520 C   0  0  0  0  0  3  0  0  0  0  0  0
  1 10  1  0  0  0  0
  1  2  1  0  0  0  0
  2 16  1  0  0  0  0
  3  2  2  0  0  0  0
  3 11  1  0  0  0  0
  4  3  1  0  0  0  0
  5 12  1  0  0  0  0
  5  4  1  0  0  0  0
  6  5  1  0  0  0  0
  7  6  2  0  0  0  0
  7  8  1  0  0  0  0
  8  9  1  0  0  0  0
  8  4  2  0  0  0  0
  9  1  2  0  0  0  0
 13  9  1  0  0  0  0
 14 19  1  0  0  0  0
 14 20  1  0  0  0  0
 15 14  2  0  0  0  0
 16 17  2  0  0  0  0
 16 15  1  0  0  0  0
 17 18  1  0  0  0  0
 18 22  1  0  0  0  0
 18 19  2  0  0  0  0
 21 15  1  0  0  0  0
 23  6  1  0  0  0  0
 25 26  1  0  0  0  0
 25 24  1  0  0  0  0
 26 23  1  0  0  0  0
 27 28  1  0  0  0  0
 27 26  2  0  0  0  0
 29 27  1  0  0  0  0
 30 29  1  0  0  0  0
 31 29  2  0  0  0  0
 31 32  1  0  0  0  0
 32 25  2  0  0  0  0
M  END
>  <minimizedAffinity>
-5.56989002

>  <minimizedRMSD>
1.90694559

$$$$
