
 OpenBabel03262521073D

 45 47  0  0  1  0  0  0  0  0999 V2000
   33.2630   29.1110   45.5780 C   0  0  2  0  0  0  0  0  0  0  0  0
   33.6650   28.5300   44.3040 C   0  0  0  0  0  0  0  0  0  0  0  0
   35.1790   28.4150   44.1500 C   0  0  0  0  0  0  0  0  0  0  0  0
   35.8660   29.7380   44.3020 C   0  0  0  0  0  0  0  0  0  0  0  0
   35.2460   30.6350   45.3480 C   0  0  0  0  0  0  0  0  0  0  0  0
   34.3680   29.8330   46.3050 C   0  0  2  0  0  0  0  0  0  0  0  0
   32.4580   29.8780   45.3650 H   0  0  0  0  0  0  0  0  0  0  0  0
   33.2910   27.5240   44.0700 H   0  0  0  0  0  0  0  0  0  0  0  0
   33.3260   29.1550   43.4170 H   0  0  0  0  0  0  0  0  0  0  0  0
   35.3400   28.0730   43.1040 H   0  0  0  0  0  0  0  0  0  0  0  0
   35.5840   27.6110   44.8070 H   0  0  0  0  0  0  0  0  0  0  0  0
   36.9010   29.5180   44.6400 H   0  0  0  0  0  0  0  0  0  0  0  0
   35.9880   30.2530   43.3060 H   0  0  0  0  0  0  0  0  0  0  0  0
   34.5580   31.3300   44.8080 H   0  0  0  0  0  0  0  0  0  0  0  0
   35.9720   31.2030   45.9230 H   0  0  0  0  0  0  0  0  0  0  0  0
   33.8800   30.6090   46.9340 H   0  0  0  0  0  0  0  0  0  0  0  0
   32.6490   28.1880   46.5390 C   0  0  0  0  0  0  0  0  0  0  0  0
   32.8200   26.8340   46.2220 C   0  0  0  0  0  0  0  0  0  0  0  0
   32.2740   25.9180   47.1040 C   0  0  0  0  0  0  0  0  0  0  0  0
   31.6090   26.3570   48.2120 N   0  0  0  0  0  0  0  0  0  0  0  0
   31.4660   27.6670   48.4770 C   0  0  0  0  0  0  0  0  0  0  0  0
   31.9850   28.5170   47.6400 N   0  0  0  0  0  0  0  0  0  0  0  0
   33.2760   26.2710   45.4360 H   0  0  0  0  0  0  0  0  0  0  0  0
   32.2760   24.8490   47.0780 H   0  0  0  0  0  0  0  0  0  0  0  0
   30.9310   28.0020   49.3650 H   0  0  0  0  0  0  0  0  0  0  0  0
   35.2330   29.1040   47.1180 N   0  0  0  0  0  0  0  0  0  0  0  0
   34.8400   28.1790   47.3740 H   0  0  0  0  0  0  0  0  0  0  0  0
   35.8090   29.8540   48.5260 S   0  0  1  0  0  0  0  0  0  0  0  0
   36.4750   28.7400   49.3280 O   0  0  0  0  0  0  0  0  0  0  0  0
   36.0400   28.2500   50.0930 H   0  0  0  0  0  0  0  0  0  0  0  0
   36.7650   30.9120   48.2930 O   0  0  0  0  0  0  0  0  0  0  0  0
   37.2390   32.9150   50.2070 F   0  0  0  0  0  0  0  0  0  0  0  0
   37.9910   32.8550   49.0830 C   0  0  0  0  0  0  0  0  0  0  0  0
   37.6950   31.8420   48.1920 C   0  0  0  0  0  0  0  0  0  0  0  0
   38.4980   31.8200   47.0470 C   0  0  0  0  0  0  0  0  0  0  0  0
   38.3450   31.0550   46.2750 H   0  0  0  0  0  0  0  0  0  0  0  0
   39.5160   32.7140   46.7810 C   0  0  0  0  0  0  0  0  0  0  0  0
   40.0990   32.6520   45.8880 H   0  0  0  0  0  0  0  0  0  0  0  0
   39.7090   33.6810   47.7540 C   0  0  0  0  0  0  0  0  0  0  0  0
   38.9800   33.7970   48.9150 C   0  0  0  0  0  0  0  0  0  0  0  0
   34.5570   30.4030   49.5080 O   0  0  0  0  0  0  0  0  0  0  0  0
   34.1650   29.4660   50.4490 C   0  0  0  0  0  0  0  0  0  0  0  0
   34.1700   28.2180   49.8890 F   0  0  0  0  0  0  0  0  0  0  0  0
   35.1200   29.4690   51.4530 F   0  0  0  0  0  0  0  0  0  0  0  0
   32.9550   29.7670   51.0630 F   0  0  0  0  0  0  0  0  0  0  0  0
  1  7  1  6  0  0  0
  1  6  1  0  0  0  0
  1 17  1  0  0  0  0
  2  1  1  0  0  0  0
  3  4  1  0  0  0  0
  3  2  1  0  0  0  0
  3 11  1  0  0  0  0
  4 12  1  0  0  0  0
  4  5  1  0  0  0  0
  5 15  1  0  0  0  0
  5  6  1  0  0  0  0
  6 16  1  1  0  0  0
  6 26  1  0  0  0  0
  8  2  1  0  0  0  0
  9  2  1  0  0  0  0
 10  3  1  0  0  0  0
 13  4  1  0  0  0  0
 14  5  1  0  0  0  0
 17 22  1  0  0  0  0
 18 17  2  0  0  0  0
 18 19  1  0  0  0  0
 19 20  2  0  0  0  0
 20 21  1  0  0  0  0
 21 25  1  0  0  0  0
 22 21  2  0  0  0  0
 23 18  1  0  0  0  0
 24 19  1  0  0  0  0
 26 27  1  0  0  0  0
 26 28  1  0  0  0  0
 28 31  1  6  0  0  0
 28 29  1  0  0  0  0
 28 41  1  0  0  0  0
 29 30  1  0  0  0  0
 33 32  1  0  0  0  0
 34 31  1  0  0  0  0
 34 33  2  0  0  0  0
 35 34  1  0  0  0  0
 36 35  1  0  0  0  0
 37 35  2  0  0  0  0
 37 39  1  0  0  0  0
 38 37  1  0  0  0  0
 39 40  2  0  0  0  0
 40 33  1  0  0  0  0
 41 42  1  0  0  0  0
 42 45  1  0  0  0  0
 42 44  1  0  0  0  0
 43 42  1  0  0  0  0
M  END
>  <minimizedAffinity>
-5.21930647

>  <minimizedRMSD>
3.98007584

$$$$
