
 OpenBabel03272508083D

 24 25  0  0  0  0  0  0  0  0999 V2000
   38.9820   32.4750   47.9370 O   0  0  0  0  0  0  0  0  0  0  0  0
   38.4570   31.4560   46.9940 P   0  0  2  0  0  0  0  0  0  0  0  0
   37.3950   32.1990   45.8850 O   0  0  0  0  0  0  0  0  0  0  0  0
   36.7690   32.7590   46.4440 H   0  0  0  0  0  0  0  0  0  0  0  0
   37.6880   30.1310   47.7200 O   0  0  0  0  0  0  0  0  0  0  0  0
   37.3360   30.1370   51.4110 C   0  0  0  0  0  0  0  0  0  0  0  0
   37.9560   30.3880   50.1840 C   0  0  0  0  0  0  0  0  0  0  0  0
   37.2990   30.0000   49.0180 C   0  0  0  0  0  0  0  0  0  0  0  0
   36.0790   29.3930   49.1320 N   0  0  0  0  0  0  0  0  0  0  0  0
   35.5140   29.1690   50.3280 C   0  0  0  0  0  0  0  0  0  0  0  0
   36.1380   29.5380   51.4640 N   0  0  0  0  0  0  0  0  0  0  0  0
   37.9320   30.4780   52.2520 H   0  0  0  0  0  0  0  0  0  0  0  0
   38.8860   30.8470   50.0140 H   0  0  0  0  0  0  0  0  0  0  0  0
   34.5430   28.6850   50.4300 H   0  0  0  0  0  0  0  0  0  0  0  0
   39.7520   30.8860   46.0550 O   0  0  0  0  0  0  0  0  0  0  0  0
   40.8520   32.6090   44.3040 F   0  0  0  0  0  0  0  0  0  0  0  0
   40.2670   31.4400   43.8860 C   0  0  0  0  0  0  0  0  0  0  0  0
   39.6780   30.5010   44.7400 C   0  0  0  0  0  0  0  0  0  0  0  0
   39.1370   29.3790   44.1430 C   0  0  0  0  0  0  0  0  0  0  0  0
   38.7000   28.7040   44.8920 H   0  0  0  0  0  0  0  0  0  0  0  0
   39.1810   29.2070   42.7880 C   0  0  0  0  0  0  0  0  0  0  0  0
   38.7340   28.2990   42.4040 H   0  0  0  0  0  0  0  0  0  0  0  0
   39.7540   30.1220   41.9650 C   0  0  0  0  0  3  0  0  0  0  0  0
   40.3100   31.2620   42.5170 C   0  0  0  0  0  3  0  0  0  0  0  0
  2  5  1  0  0  0  0
  2  1  2  1  0  0  0
  3  4  1  0  0  0  0
  3  2  1  0  0  0  0
  5  8  1  0  0  0  0
  6 11  1  0  0  0  0
  6 12  1  0  0  0  0
  7  6  2  0  0  0  0
  8  9  2  0  0  0  0
  8  7  1  0  0  0  0
  9 10  1  0  0  0  0
 10 14  1  0  0  0  0
 10 11  2  0  0  0  0
 13  7  1  0  0  0  0
 15  2  1  0  0  0  0
 17 16  1  0  0  0  0
 17 18  1  0  0  0  0
 18 15  1  0  0  0  0
 19 18  2  0  0  0  0
 19 20  1  0  0  0  0
 21 19  1  0  0  0  0
 22 21  1  0  0  0  0
 23 24  1  0  0  0  0
 23 21  2  0  0  0  0
 24 17  2  0  0  0  0
M  END
>  <minimizedAffinity>
-5.36486578

>  <minimizedRMSD>
2.71387434

$$$$
