
 OpenBabel03272508083D

 24 25  0  0  0  0  0  0  0  0999 V2000
   38.9000   32.8340   48.0160 O   0  0  0  0  0  0  0  0  0  0  0  0
   38.5280   31.7120   47.1190 P   0  0  2  0  0  0  0  0  0  0  0  0
   37.2010   32.1710   46.1510 O   0  0  0  0  0  0  0  0  0  0  0  0
   36.5280   32.5710   46.7870 H   0  0  0  0  0  0  0  0  0  0  0  0
   38.1820   30.2480   47.9030 O   0  0  0  0  0  0  0  0  0  0  0  0
   37.2430   30.1590   51.4880 C   0  0  0  0  0  0  0  0  0  0  0  0
   38.0380   30.4670   50.3800 C   0  0  0  0  0  0  0  0  0  0  0  0
   37.5980   30.0700   49.1190 C   0  0  0  0  0  0  0  0  0  0  0  0
   36.4100   29.3990   49.0280 N   0  0  0  0  0  0  0  0  0  0  0  0
   35.6730   29.1210   50.1140 C   0  0  0  0  0  0  0  0  0  0  0  0
   36.0870   29.4990   51.3410 N   0  0  0  0  0  0  0  0  0  0  0  0
   37.6780   30.5130   52.4180 H   0  0  0  0  0  0  0  0  0  0  0  0
   38.9560   30.9770   50.3680 H   0  0  0  0  0  0  0  0  0  0  0  0
   34.7260   28.5860   50.0520 H   0  0  0  0  0  0  0  0  0  0  0  0
   39.8050   31.4570   46.0300 O   0  0  0  0  0  0  0  0  0  0  0  0
   39.2390   29.1310   44.8010 F   0  0  0  0  0  0  0  0  0  0  0  0
   39.4210   30.2910   44.0890 C   0  0  0  0  0  0  0  0  0  0  0  0
   39.7180   31.5320   44.6620 C   0  0  0  0  0  0  0  0  0  0  0  0
   39.8680   32.5920   43.7910 C   0  0  0  0  0  0  0  0  0  0  0  0
   40.0980   33.5210   44.3330 H   0  0  0  0  0  0  0  0  0  0  0  0
   39.7320   32.4260   42.4420 C   0  0  0  0  0  0  0  0  0  0  0  0
   39.8660   33.3100   41.8320 H   0  0  0  0  0  0  0  0  0  0  0  0
   39.4460   31.2190   41.8910 C   0  0  0  0  0  3  0  0  0  0  0  0
   39.2850   30.1260   42.7250 C   0  0  0  0  0  3  0  0  0  0  0  0
  2  5  1  0  0  0  0
  2  1  2  1  0  0  0
  3  4  1  0  0  0  0
  3  2  1  0  0  0  0
  5  8  1  0  0  0  0
  6 12  1  0  0  0  0
  7  6  2  0  0  0  0
  8  7  1  0  0  0  0
  9  8  2  0  0  0  0
  9 10  1  0  0  0  0
 10 11  2  0  0  0  0
 11  6  1  0  0  0  0
 13  7  1  0  0  0  0
 14 10  1  0  0  0  0
 15  2  1  0  0  0  0
 17 18  1  0  0  0  0
 17 16  1  0  0  0  0
 18 15  1  0  0  0  0
 19 20  1  0  0  0  0
 19 18  2  0  0  0  0
 21 19  1  0  0  0  0
 22 21  1  0  0  0  0
 23 21  2  0  0  0  0
 23 24  1  0  0  0  0
 24 17  2  0  0  0  0
M  END
>  <minimizedAffinity>
-5.01638794

>  <minimizedRMSD>
2.63908243

$$$$
