
 OpenBabel03272510243D

 32 35  0  0  0  0  0  0  0  0999 V2000
   35.1680   29.7530   47.1630 C   0  0  0  0  0  0  0  0  0  0  0  0
   36.3760   30.2500   47.6040 C   0  0  0  0  0  0  0  0  0  0  0  0
   37.2600   30.8020   46.7050 C   0  0  0  0  0  0  0  0  0  0  0  0
   36.8760   30.8310   45.3660 C   0  0  0  0  0  0  0  0  0  0  0  0
   37.5920   31.3320   44.2990 N   0  0  0  0  0  0  0  0  0  0  0  0
   36.8320   31.1430   43.2250 C   0  0  0  0  0  0  0  0  0  0  0  0
   35.6720   30.5500   43.5560 N   0  0  0  0  0  0  0  0  0  0  0  0
   35.6850   30.3490   44.8860 C   0  0  0  0  0  0  0  0  0  0  0  0
   34.8150   29.7980   45.8140 C   0  0  0  0  0  0  0  0  0  0  0  0
   34.4470   29.3090   47.8500 H   0  0  0  0  0  0  0  0  0  0  0  0
   38.1950   31.1860   47.0460 H   0  0  0  0  0  0  0  0  0  0  0  0
   38.5590   31.7680   44.3940 H   0  0  0  0  0  0  0  0  0  0  0  0
   33.8790   29.4150   45.4610 H   0  0  0  0  0  0  0  0  0  0  0  0
   37.9890   30.5480   50.9920 C   0  0  0  0  0  0  0  0  0  0  0  0
   37.8210   30.6940   49.6180 C   0  0  0  0  0  0  0  0  0  0  0  0
   36.6780   30.1690   49.0200 C   0  0  0  0  0  0  0  0  0  0  0  0
   35.7670   29.5290   49.8230 N   0  0  0  0  0  0  0  0  0  0  0  0
   35.9590   29.4010   51.1610 C   0  0  0  0  0  0  0  0  0  0  0  0
   37.0500   29.9030   51.7330 N   0  0  0  0  0  0  0  0  0  0  0  0
   38.8880   30.9730   51.3900 H   0  0  0  0  0  0  0  0  0  0  0  0
   38.5260   31.1890   48.9990 H   0  0  0  0  0  0  0  0  0  0  0  0
   35.2250   28.8920   51.7710 H   0  0  0  0  0  0  0  0  0  0  0  0
   37.3110   31.5590   41.9850 O   0  0  0  0  0  0  0  0  0  0  0  0
   35.5880   33.5550   42.9500 F   0  0  0  0  0  0  0  0  0  0  0  0
   35.8990   33.5780   41.6510 C   0  0  0  0  0  0  0  0  0  0  0  0
   36.7430   32.5750   41.2460 C   0  0  0  0  0  0  0  0  0  0  0  0
   37.1350   32.5010   39.9050 C   0  0  0  0  0  0  0  0  0  0  0  0
   37.8020   31.7510   39.4640 H   0  0  0  0  0  0  0  0  0  0  0  0
   36.6750   33.4360   38.9790 C   0  0  0  0  0  0  0  0  0  0  0  0
   36.9610   33.4050   37.9340 H   0  0  0  0  0  0  0  0  0  0  0  0
   35.8170   34.4360   39.4420 C   0  0  0  0  0  3  0  0  0  0  0  0
   35.4230   34.5200   40.7610 C   0  0  0  0  0  3  0  0  0  0  0  0
  1  2  1  0  0  0  0
  1 10  1  0  0  0  0
  2 16  1  0  0  0  0
  3 11  1  0  0  0  0
  3  2  2  0  0  0  0
  4  3  1  0  0  0  0
  5 12  1  0  0  0  0
  5  4  1  0  0  0  0
  6  7  2  0  0  0  0
  6  5  1  0  0  0  0
  7  8  1  0  0  0  0
  8  4  2  0  0  0  0
  8  9  1  0  0  0  0
  9  1  2  0  0  0  0
 13  9  1  0  0  0  0
 14 20  1  0  0  0  0
 14 19  1  0  0  0  0
 15 14  2  0  0  0  0
 16 15  1  0  0  0  0
 16 17  2  0  0  0  0
 17 18  1  0  0  0  0
 18 19  2  0  0  0  0
 18 22  1  0  0  0  0
 21 15  1  0  0  0  0
 23  6  1  0  0  0  0
 25 24  1  0  0  0  0
 26 25  1  0  0  0  0
 26 23  1  0  0  0  0
 27 26  2  0  0  0  0
 28 27  1  0  0  0  0
 29 31  2  0  0  0  0
 29 27  1  0  0  0  0
 30 29  1  0  0  0  0
 31 32  1  0  0  0  0
 32 25  2  0  0  0  0
M  END
>  <minimizedAffinity>
-4.95253181

>  <minimizedRMSD>
3.44015932

$$$$
