
 OpenBabel03272504213D

 39 41  0  0  1  0  0  0  0  0999 V2000
   38.8780   32.3400   47.8190 C   0  0  2  0  0  0  0  0  0  0  0  0
   38.1750   31.3810   48.7710 C   0  0  1  0  0  0  0  0  0  0  0  0
   38.7130   31.9440   50.0900 C   0  0  0  0  0  0  0  0  0  0  0  0
   38.4130   33.2840   49.9300 O   0  0  0  0  0  0  0  0  0  0  0  0
   38.6740   33.6350   48.6290 C   0  0  0  0  0  0  0  0  0  0  0  0
   39.9400   32.1350   47.7260 H   0  0  0  0  0  0  0  0  0  0  0  0
   38.4740   30.3300   48.6360 H   0  0  0  0  0  0  0  0  0  0  0  0
   38.0940   31.4960   50.8850 H   0  0  0  0  0  0  0  0  0  0  0  0
   39.7770   31.7160   50.1940 H   0  0  0  0  0  0  0  0  0  0  0  0
   37.8580   34.2320   48.1820 H   0  0  0  0  0  0  0  0  0  0  0  0
   39.5990   34.2320   48.6040 H   0  0  0  0  0  0  0  0  0  0  0  0
   36.8250   31.6040   48.6630 O   0  0  0  0  0  0  0  0  0  0  0  0
   35.8350   29.8670   46.9950 O   0  0  0  0  0  0  0  0  0  0  0  0
   35.9410   30.1860   48.4610 P   0  0  1  0  0  0  0  0  0  0  0  0
   36.7630   28.8760   49.2220 O   0  0  0  0  0  0  0  0  0  0  0  0
   37.4410   28.5880   48.5550 H   0  0  0  0  0  0  0  0  0  0  0  0
   34.4040   30.3460   49.1540 O   0  0  0  0  0  0  0  0  0  0  0  0
   34.1450   29.1880   49.8530 C   0  0  0  0  0  0  0  0  0  0  0  0
   33.6190   29.3930   50.8210 H   0  0  0  0  0  0  0  0  0  0  0  0
   35.0610   28.6270   50.1520 H   0  0  0  0  0  0  0  0  0  0  0  0
   33.2780   28.2380   49.1220 C   0  0  0  0  0  0  0  0  0  0  0  0
   33.9050   27.3430   48.2880 C   0  0  0  0  0  0  0  0  0  0  0  0
   33.1410   26.4190   47.5700 C   0  0  0  0  0  0  0  0  0  0  0  0
   31.7900   26.4650   47.7460 N   0  0  0  0  0  0  0  0  0  0  0  0
   31.1900   27.3560   48.5720 C   0  0  0  0  0  0  0  0  0  0  0  0
   31.9380   28.2480   49.2650 N   0  0  0  0  0  0  0  0  0  0  0  0
   34.9540   27.2290   48.0850 H   0  0  0  0  0  0  0  0  0  0  0  0
   33.5500   25.6820   46.8930 H   0  0  0  0  0  0  0  0  0  0  0  0
   30.1100   27.3090   48.6410 H   0  0  0  0  0  0  0  0  0  0  0  0
   38.1830   32.3500   46.6430 O   0  0  0  0  0  0  0  0  0  0  0  0
   38.6820   29.8320   45.8570 F   0  0  0  0  0  0  0  0  0  0  0  0
   39.0250   30.9170   45.1160 C   0  0  0  0  0  0  0  0  0  0  0  0
   38.8190   32.2680   45.4180 C   0  0  0  0  0  0  0  0  0  0  0  0
   39.2510   33.2060   44.5160 C   0  0  0  0  0  0  0  0  0  0  0  0
   39.0440   34.2000   44.8450 H   0  0  0  0  0  0  0  0  0  0  0  0
   39.8690   32.8140   43.3490 C   0  0  0  0  0  0  0  0  0  0  0  0
   40.1540   33.6770   42.7370 H   0  0  0  0  0  0  0  0  0  0  0  0
   40.0850   31.4850   43.0250 C   0  0  0  0  0  3  0  0  0  0  0  0
   39.6550   30.5370   43.9260 C   0  0  0  0  0  3  0  0  0  0  0  0
  1  6  1  6  0  0  0
  1  5  1  0  0  0  0
  1  2  1  0  0  0  0
  2  7  1  6  0  0  0
  2  3  1  0  0  0  0
  3  9  1  0  0  0  0
  3  8  1  0  0  0  0
  4  3  1  0  0  0  0
  5  4  1  0  0  0  0
 10  5  1  0  0  0  0
 11  5  1  0  0  0  0
 12  2  1  0  0  0  0
 14 13  2  6  0  0  0
 14 12  1  0  0  0  0
 14 17  1  0  0  0  0
 14 15  1  0  0  0  0
 16 15  1  0  0  0  0
 17 18  1  0  0  0  0
 18 20  1  0  0  0  0
 18 19  1  0  0  0  0
 21 26  1  0  0  0  0
 21 18  1  0  0  0  0
 22 21  2  0  0  0  0
 23 24  2  0  0  0  0
 23 22  1  0  0  0  0
 24 25  1  0  0  0  0
 25 29  1  0  0  0  0
 25 26  2  0  0  0  0
 27 22  1  0  0  0  0
 28 23  1  0  0  0  0
 30  1  1  0  0  0  0
 32 33  1  0  0  0  0
 32 31  1  0  0  0  0
 33 30  1  0  0  0  0
 34 35  1  0  0  0  0
 34 33  2  0  0  0  0
 36 34  1  0  0  0  0
 37 36  1  0  0  0  0
 38 36  2  0  0  0  0
 38 39  1  0  0  0  0
 39 32  2  0  0  0  0
M  END
>  <minimizedAffinity>
-4.93576097

>  <minimizedRMSD>
0.367483884

$$$$
