
 OpenBabel03272506413D

 19 20  0  0  0  0  0  0  0  0999 V2000
   33.9670   29.2180   49.9390 S   0  0  0  0  0  0  0  0  0  0  0  0
   37.8200   30.1390   49.9270 C   0  0  0  0  0  0  0  0  0  0  0  0
   38.0290   30.8140   48.7050 C   0  0  0  0  0  0  0  0  0  0  0  0
   36.9350   30.9910   47.8510 C   0  0  0  0  0  0  0  0  0  0  0  0
   35.7280   30.5060   48.2410 N   0  0  0  0  0  0  0  0  0  0  0  0
   35.5500   29.8600   49.4180 C   0  0  0  0  0  0  0  0  0  0  0  0
   36.5890   29.6850   50.2430 N   0  0  0  0  0  0  0  0  0  0  0  0
   38.6400   29.9890   50.6010 H   0  0  0  0  0  0  0  0  0  0  0  0
   39.0280   31.1590   48.4940 H   0  0  0  0  0  0  0  0  0  0  0  0
   37.0820   31.4980   46.9290 H   0  0  0  0  0  0  0  0  0  0  0  0
   31.1800   28.2780   49.9140 F   0  0  0  0  0  0  0  0  0  0  0  0
   32.0010   27.7040   48.9880 C   0  0  0  0  0  0  0  0  0  0  0  0
   33.3500   27.9830   48.8090 C   0  0  0  0  0  0  0  0  0  0  0  0
   34.0500   27.3170   47.8250 C   0  0  0  0  0  0  0  0  0  0  0  0
   35.1020   27.6040   47.7620 H   0  0  0  0  0  0  0  0  0  0  0  0
   33.4060   26.3860   47.0370 C   0  0  0  0  0  0  0  0  0  0  0  0
   34.0080   25.8950   46.2820 H   0  0  0  0  0  0  0  0  0  0  0  0
   32.0660   26.1050   47.2130 C   0  0  0  0  0  3  0  0  0  0  0  0
   31.3450   26.7750   48.2060 C   0  0  0  0  0  3  0  0  0  0  0  0
  2  7  1  0  0  0  0
  2  8  1  0  0  0  0
  3  2  2  0  0  0  0
  4  5  2  0  0  0  0
  4  3  1  0  0  0  0
  5  6  1  0  0  0  0
  6  1  1  0  0  0  0
  6  7  2  0  0  0  0
  9  3  1  0  0  0  0
 10  4  1  0  0  0  0
 12 11  1  0  0  0  0
 13 12  1  0  0  0  0
 13  1  1  0  0  0  0
 14 13  2  0  0  0  0
 15 14  1  0  0  0  0
 16 18  2  0  0  0  0
 16 14  1  0  0  0  0
 17 16  1  0  0  0  0
 18 19  1  0  0  0  0
 19 12  2  0  0  0  0
M  END
>  <minimizedAffinity>
-3.98738909

>  <minimizedRMSD>
2.59999013

$$$$
