
 OpenBabel03272507283D

 41 43  0  0  1  0  0  0  0  0999 V2000
   37.1890   29.9870   49.1430 C   0  0  0  0  0  0  0  0  0  0  0  0
   37.6420   30.5380   47.9410 C   0  0  0  0  0  0  0  0  0  0  0  0
   36.7790   30.5500   46.8560 C   0  0  0  0  0  0  0  0  0  0  0  0
   35.5570   30.0350   47.0110 N   0  0  0  0  0  0  0  0  0  0  0  0
   35.1330   29.5070   48.1770 C   0  0  0  0  0  0  0  0  0  0  0  0
   35.9460   29.4850   49.2300 N   0  0  0  0  0  0  0  0  0  0  0  0
   37.1850   31.0740   45.6320 N   0  0  0  0  0  0  0  0  0  0  0  0
   38.1540   32.1860   45.4370 C   0  0  0  0  0  0  0  0  0  0  0  0
   38.0650   32.6200   44.0240 C   0  0  0  0  0  0  0  0  0  0  0  0
   36.8250   32.0320   43.5490 C   0  0  0  0  0  0  0  0  0  0  0  0
   36.8100   30.7470   44.2960 C   0  0  2  0  0  0  0  0  0  0  0  0
   37.9550   30.0310   49.9320 H   0  0  0  0  0  0  0  0  0  0  0  0
   38.6290   30.9660   47.7800 H   0  0  0  0  0  0  0  0  0  0  0  0
   34.1510   29.0780   48.3500 H   0  0  0  0  0  0  0  0  0  0  0  0
   37.6560   32.9710   46.1250 H   0  0  0  0  0  0  0  0  0  0  0  0
   39.1080   32.0590   45.8980 H   0  0  0  0  0  0  0  0  0  0  0  0
   37.7180   33.7590   44.1510 H   0  0  0  0  0  0  0  0  0  0  0  0
   38.9150   32.8220   43.4310 H   0  0  0  0  0  0  0  0  0  0  0  0
   35.9040   32.6240   43.6590 H   0  0  0  0  0  0  0  0  0  0  0  0
   36.9530   31.7670   42.4550 H   0  0  0  0  0  0  0  0  0  0  0  0
   35.4300   30.0970   44.1710 C   0  0  0  0  0  0  0  0  0  0  0  0
   34.5050   30.9150   44.7850 F   0  0  0  0  0  0  0  0  0  0  0  0
   35.3120   28.8690   44.7450 F   0  0  0  0  0  0  0  0  0  0  0  0
   35.1120   30.0970   42.8270 F   0  0  0  0  0  0  0  0  0  0  0  0
   37.7530   29.7970   43.7860 C   0  0  2  0  0  0  0  0  0  0  0  0
   38.5790   29.6360   44.4420 H   0  0  0  0  0  0  0  0  0  0  0  0
   36.7260   30.2310   41.1230 F   0  0  0  0  0  0  0  0  0  0  0  0
   38.0630   30.3690   41.2700 C   0  0  0  0  0  0  0  0  0  0  0  0
   38.6230   30.1510   42.5180 C   0  0  0  0  0  0  0  0  0  0  0  0
   39.9920   30.3700   42.5430 C   0  0  0  0  0  0  0  0  0  0  0  0
   40.4600   30.2070   43.5300 H   0  0  0  0  0  0  0  0  0  0  0  0
   40.7730   30.7560   41.4910 C   0  0  0  0  0  0  0  0  0  0  0  0
   41.8190   30.8830   41.6760 H   0  0  0  0  0  0  0  0  0  0  0  0
   40.1160   30.9370   40.3220 C   0  0  0  0  0  3  0  0  0  0  0  0
   38.7640   30.7560   40.1610 C   0  0  0  0  0  3  0  0  0  0  0  0
   37.0900   28.8310   43.3070 O   0  0  0  0  0  0  0  0  0  0  0  0
   37.3050   27.5800   42.8560 C   0  0  0  0  0  0  0  0  0  0  0  0
   36.3580   27.1830   42.1700 O   0  0  0  0  0  0  0  0  0  0  0  0
   38.1480   26.4370   42.7830 N   0  0  0  0  0  0  0  0  0  0  0  0
   38.8970   26.5010   42.0380 H   0  0  0  0  0  0  0  0  0  0  0  0
   38.0190   25.6120   43.4270 H   0  0  0  0  0  0  0  0  0  0  0  0
  1  6  1  0  0  0  0
  1 12  1  0  0  0  0
  2  1  2  0  0  0  0
  3  4  2  0  0  0  0
  3  2  1  0  0  0  0
  4  5  1  0  0  0  0
  5 14  1  0  0  0  0
  5  6  2  0  0  0  0
  7  3  1  0  0  0  0
  8  7  1  0  0  0  0
  8 16  1  0  0  0  0
  8 15  1  0  0  0  0
  9 17  1  0  0  0  0
  9  8  1  0  0  0  0
 10 19  1  0  0  0  0
 10  9  1  0  0  0  0
 10 11  1  0  0  0  0
 11 21  1  6  0  0  0
 11  7  1  0  0  0  0
 13  2  1  0  0  0  0
 18  9  1  0  0  0  0
 20 10  1  0  0  0  0
 21 23  1  0  0  0  0
 21 22  1  0  0  0  0
 24 21  1  0  0  0  0
 25 11  1  0  0  0  0
 25 26  1  1  0  0  0
 27 28  1  0  0  0  0
 28 29  1  0  0  0  0
 29 30  2  0  0  0  0
 29 25  1  0  0  0  0
 30 31  1  0  0  0  0
 32 33  1  0  0  0  0
 32 30  1  0  0  0  0
 34 32  2  0  0  0  0
 35 34  1  0  0  0  0
 35 28  2  0  0  0  0
 36 25  1  0  0  0  0
 37 36  1  0  0  0  0
 38 37  2  0  0  0  0
 39 37  1  0  0  0  0
 39 41  1  0  0  0  0
 40 39  1  0  0  0  0
M  END
>  <minimizedAffinity>
-4.25624228

>  <minimizedRMSD>
3.89632869

$$$$
