
 OpenBabel03262522243D

 35 37  0  0  0  0  0  0  0  0999 V2000
   39.5740   33.3980   47.0980 C   0  0  0  0  0  0  0  0  0  0  0  0
   39.5400   32.5160   46.0120 C   0  0  0  0  0  0  0  0  0  0  0  0
   39.0440   31.2480   46.2350 C   0  0  0  0  0  0  0  0  0  0  0  0
   38.6180   30.9220   47.4880 N   0  0  0  0  0  0  0  0  0  0  0  0
   38.6700   31.7840   48.4760 C   0  0  0  0  0  0  0  0  0  0  0  0
   39.1560   33.0770   48.3250 N   0  0  0  0  0  0  0  0  0  0  0  0
   39.9580   34.4140   46.9750 H   0  0  0  0  0  0  0  0  0  0  0  0
   39.0210   30.5770   45.3970 H   0  0  0  0  0  0  0  0  0  0  0  0
   39.9990   32.9810   44.8250 O   0  0  0  0  0  0  0  0  0  0  0  0
   40.0980   32.0860   43.7510 C   0  0  0  0  0  0  0  0  0  0  0  0
   40.7060   30.8440   43.7230 C   0  0  0  0  0  0  0  0  0  0  0  0
   40.6990   30.1240   42.5840 C   0  0  0  0  0  0  0  0  0  0  0  0
   40.0840   30.6450   41.4790 C   0  0  0  0  0  0  0  0  0  0  0  0
   39.4740   31.8950   41.5130 C   0  0  0  0  0  0  0  0  0  0  0  0
   39.4990   32.5950   42.6740 N   0  0  0  0  0  0  0  0  0  0  0  0
   41.1570   30.5670   44.6850 H   0  0  0  0  0  0  0  0  0  0  0  0
   41.1880   29.1590   42.6110 H   0  0  0  0  0  0  0  0  0  0  0  0
   40.0780   30.0670   40.5700 H   0  0  0  0  0  0  0  0  0  0  0  0
   38.8080   32.4360   40.2710 C   0  0  0  0  0  0  0  0  0  0  0  0
   38.0420   33.1890   40.5910 H   0  0  0  0  0  0  0  0  0  0  0  0
   39.5750   33.0400   39.7280 H   0  0  0  0  0  0  0  0  0  0  0  0
   38.3560   31.6340   39.6800 H   0  0  0  0  0  0  0  0  0  0  0  0
   38.0390   31.0690   50.0160 S   0  0  0  0  0  0  0  0  0  0  0  0
   36.2640   31.4940   50.0150 C   0  0  0  0  0  0  0  0  0  0  0  0
   35.8860   31.6060   51.0530 H   0  0  0  0  0  0  0  0  0  0  0  0
   36.1080   32.4580   49.4830 H   0  0  0  0  0  0  0  0  0  0  0  0
   35.5750   29.2710   51.4880 F   0  0  0  0  0  0  0  0  0  0  0  0
   35.2630   29.3080   50.1550 C   0  0  0  0  0  0  0  0  0  0  0  0
   35.5650   30.3720   49.3170 C   0  0  0  0  0  0  0  0  0  0  0  0
   35.2290   30.3450   47.9930 C   0  0  0  0  0  0  0  0  0  0  0  0
   35.5030   31.2130   47.4140 H   0  0  0  0  0  0  0  0  0  0  0  0
   34.5670   29.2410   47.4380 C   0  0  0  0  0  0  0  0  0  0  0  0
   34.3190   29.2600   46.3790 H   0  0  0  0  0  0  0  0  0  0  0  0
   34.2600   28.1740   48.2600 C   0  0  0  0  0  0  0  0  0  0  0  0
   34.6090   28.2180   49.6000 C   0  0  0  0  0  0  0  0  0  0  0  0
  1  6  1  0  0  0  0
  2  3  1  0  0  0  0
  2  1  2  0  0  0  0
  3  4  2  0  0  0  0
  4  5  1  0  0  0  0
  5 23  1  0  0  0  0
  6  5  2  0  0  0  0
  7  1  1  0  0  0  0
  8  3  1  0  0  0  0
  9  2  1  0  0  0  0
 10  9  1  0  0  0  0
 11 10  1  0  0  0  0
 11 16  1  0  0  0  0
 12 17  1  0  0  0  0
 12 11  2  0  0  0  0
 13 14  2  0  0  0  0
 13 12  1  0  0  0  0
 14 15  1  0  0  0  0
 15 10  2  0  0  0  0
 18 13  1  0  0  0  0
 19 20  1  0  0  0  0
 19 14  1  0  0  0  0
 21 19  1  0  0  0  0
 22 19  1  0  0  0  0
 24 23  1  0  0  0  0
 24 25  1  0  0  0  0
 26 24  1  0  0  0  0
 28 27  1  0  0  0  0
 29 24  1  0  0  0  0
 29 28  2  0  0  0  0
 30 29  1  0  0  0  0
 31 30  1  0  0  0  0
 32 30  2  0  0  0  0
 32 34  1  0  0  0  0
 33 32  1  0  0  0  0
 34 35  2  0  0  0  0
 35 28  1  0  0  0  0
M  END
>  <minimizedAffinity>
-6.12077284

>  <minimizedRMSD>
3.77316809

$$$$
