
 OpenBabel03272507283D

 41 43  0  0  1  0  0  0  0  0999 V2000
   34.7610   29.7930   47.2090 C   0  0  0  0  0  0  0  0  0  0  0  0
   35.5460   30.4010   46.2260 C   0  0  0  0  0  0  0  0  0  0  0  0
   35.5350   29.8630   44.9490 C   0  0  0  0  0  0  0  0  0  0  0  0
   34.7740   28.7900   44.7170 N   0  0  0  0  0  0  0  0  0  0  0  0
   34.0210   28.2140   45.6760 C   0  0  0  0  0  0  0  0  0  0  0  0
   34.0180   28.7150   46.9090 N   0  0  0  0  0  0  0  0  0  0  0  0
   36.3110   30.4220   43.9360 N   0  0  0  0  0  0  0  0  0  0  0  0
   36.6720   31.8590   43.8060 C   0  0  0  0  0  0  0  0  0  0  0  0
   37.2340   32.0630   42.4510 C   0  0  0  0  0  0  0  0  0  0  0  0
   36.8470   30.8670   41.7220 C   0  0  0  0  0  0  0  0  0  0  0  0
   36.9290   29.8390   42.7920 C   0  0  2  0  0  0  0  0  0  0  0  0
   34.8470   30.3030   48.1810 H   0  0  0  0  0  0  0  0  0  0  0  0
   36.1760   31.2750   46.3780 H   0  0  0  0  0  0  0  0  0  0  0  0
   33.3880   27.3430   45.5350 H   0  0  0  0  0  0  0  0  0  0  0  0
   35.6090   32.3110   43.8660 H   0  0  0  0  0  0  0  0  0  0  0  0
   37.1480   32.2980   44.6540 H   0  0  0  0  0  0  0  0  0  0  0  0
   36.4550   32.8470   41.9900 H   0  0  0  0  0  0  0  0  0  0  0  0
   38.1010   32.6380   42.2700 H   0  0  0  0  0  0  0  0  0  0  0  0
   35.8840   30.8840   41.1900 H   0  0  0  0  0  0  0  0  0  0  0  0
   37.6650   30.6240   40.9780 H   0  0  0  0  0  0  0  0  0  0  0  0
   36.2670   28.5450   42.3100 C   0  0  0  0  0  0  0  0  0  0  0  0
   34.9010   28.7330   42.2950 F   0  0  0  0  0  0  0  0  0  0  0  0
   36.5050   27.4480   43.0800 F   0  0  0  0  0  0  0  0  0  0  0  0
   36.6460   28.3720   40.9930 F   0  0  0  0  0  0  0  0  0  0  0  0
   38.2780   29.5000   43.1350 C   0  0  2  0  0  0  0  0  0  0  0  0
   38.3480   28.6130   43.7240 H   0  0  0  0  0  0  0  0  0  0  0  0
   40.1000   31.5990   42.3580 F   0  0  0  0  0  0  0  0  0  0  0  0
   39.9370   31.4230   43.6870 C   0  0  0  0  0  0  0  0  0  0  0  0
   39.0930   30.4160   44.1280 C   0  0  0  0  0  0  0  0  0  0  0  0
   38.9770   30.3720   45.5090 C   0  0  0  0  0  0  0  0  0  0  0  0
   38.3050   29.5790   45.8820 H   0  0  0  0  0  0  0  0  0  0  0  0
   39.5980   31.1950   46.4030 C   0  0  0  0  0  0  0  0  0  0  0  0
   39.4040   31.0300   47.4430 H   0  0  0  0  0  0  0  0  0  0  0  0
   40.4000   32.1390   45.8570 C   0  0  0  0  0  3  0  0  0  0  0  0
   40.6000   32.2930   44.5080 C   0  0  0  0  0  3  0  0  0  0  0  0
   38.9800   29.6610   42.0950 O   0  0  0  0  0  0  0  0  0  0  0  0
   39.7590   28.9280   41.2750 C   0  0  0  0  0  0  0  0  0  0  0  0
   39.5970   29.2570   40.0950 O   0  0  0  0  0  0  0  0  0  0  0  0
   40.7340   27.9060   41.1080 N   0  0  0  0  0  0  0  0  0  0  0  0
   41.7300   28.2330   41.2520 H   0  0  0  0  0  0  0  0  0  0  0  0
   40.4610   26.9180   40.8630 H   0  0  0  0  0  0  0  0  0  0  0  0
  1 12  1  0  0  0  0
  2 13  1  0  0  0  0
  2  1  2  0  0  0  0
  3  2  1  0  0  0  0
  4  3  2  0  0  0  0
  4  5  1  0  0  0  0
  5  6  2  0  0  0  0
  6  1  1  0  0  0  0
  7  3  1  0  0  0  0
  8 15  1  0  0  0  0
  8  7  1  0  0  0  0
  8 16  1  0  0  0  0
  9  8  1  0  0  0  0
 10  9  1  0  0  0  0
 10 11  1  0  0  0  0
 11 21  1  6  0  0  0
 11 25  1  0  0  0  0
 11  7  1  0  0  0  0
 14  5  1  0  0  0  0
 17  9  1  0  0  0  0
 18  9  1  0  0  0  0
 19 10  1  0  0  0  0
 20 10  1  0  0  0  0
 21 23  1  0  0  0  0
 22 21  1  0  0  0  0
 24 21  1  0  0  0  0
 25 26  1  1  0  0  0
 25 29  1  0  0  0  0
 27 28  1  0  0  0  0
 28 29  2  0  0  0  0
 28 35  1  0  0  0  0
 29 30  1  0  0  0  0
 30 31  1  0  0  0  0
 30 32  2  0  0  0  0
 32 33  1  0  0  0  0
 34 32  1  0  0  0  0
 35 34  2  0  0  0  0
 36 25  1  0  0  0  0
 37 36  1  0  0  0  0
 38 37  2  0  0  0  0
 39 40  1  0  0  0  0
 39 37  1  0  0  0  0
 41 39  1  0  0  0  0
M  END
>  <minimizedAffinity>
-4.19143724

>  <minimizedRMSD>
3.07358408

$$$$
