
 OpenBabel03272506403D

 19 20  0  0  0  0  0  0  0  0999 V2000
   33.9550   29.2840   47.5790 S   0  0  0  0  0  0  0  0  0  0  0  0
   31.4130   26.3050   48.1700 C   0  0  0  0  0  0  0  0  0  0  0  0
   32.1080   25.1470   47.7610 C   0  0  0  0  0  0  0  0  0  0  0  0
   33.4140   25.2940   47.2820 C   0  0  0  0  0  0  0  0  0  0  0  0
   33.9470   26.5420   47.2370 N   0  0  0  0  0  0  0  0  0  0  0  0
   33.2620   27.6400   47.6350 C   0  0  0  0  0  0  0  0  0  0  0  0
   32.0120   27.5120   48.0940 N   0  0  0  0  0  0  0  0  0  0  0  0
   30.4100   26.2230   48.5420 H   0  0  0  0  0  0  0  0  0  0  0  0
   31.5900   24.2050   47.8380 H   0  0  0  0  0  0  0  0  0  0  0  0
   33.9460   24.4280   46.9710 H   0  0  0  0  0  0  0  0  0  0  0  0
   35.4730   29.3210   45.0610 F   0  0  0  0  0  0  0  0  0  0  0  0
   34.3140   30.0410   45.0570 C   0  0  0  0  0  0  0  0  0  0  0  0
   33.4330   30.1730   46.1230 C   0  0  0  0  0  0  0  0  0  0  0  0
   32.2960   30.9390   45.9650 C   0  0  0  0  0  0  0  0  0  0  0  0
   31.6690   30.9820   46.8570 H   0  0  0  0  0  0  0  0  0  0  0  0
   32.0500   31.5600   44.7590 C   0  0  0  0  0  0  0  0  0  0  0  0
   31.1420   32.1470   44.6960 H   0  0  0  0  0  0  0  0  0  0  0  0
   32.9230   31.4300   43.6970 C   0  0  0  0  0  3  0  0  0  0  0  0
   34.0790   30.6570   43.8450 C   0  0  0  0  0  3  0  0  0  0  0  0
  1  6  1  0  0  0  0
  2  8  1  0  0  0  0
  3  9  1  0  0  0  0
  3  2  2  0  0  0  0
  4  3  1  0  0  0  0
  5  4  2  0  0  0  0
  5  6  1  0  0  0  0
  6  7  2  0  0  0  0
  7  2  1  0  0  0  0
 10  4  1  0  0  0  0
 12 11  1  0  0  0  0
 12 13  1  0  0  0  0
 13  1  1  0  0  0  0
 14 13  2  0  0  0  0
 14 15  1  0  0  0  0
 16 14  1  0  0  0  0
 17 16  1  0  0  0  0
 18 19  1  0  0  0  0
 18 16  2  0  0  0  0
 19 12  2  0  0  0  0
M  END
>  <minimizedAffinity>
-2.5194912

>  <minimizedRMSD>
6.63455915

$$$$
