
 OpenBabel03272504193D

 27 28  0  0  0  0  0  0  0  0999 V2000
   37.9220   29.9360   48.7460 O   0  0  0  0  0  0  0  0  0  0  0  0
   37.3880   30.7600   49.8810 P   0  0  2  0  0  0  0  0  0  0  0  0
   38.3610   30.4270   51.2560 O   0  0  0  0  0  0  0  0  0  0  0  0
   37.8880   30.7030   52.0790 H   0  0  0  0  0  0  0  0  0  0  0  0
   35.7990   30.3010   50.2320 O   0  0  0  0  0  0  0  0  0  0  0  0
   35.6080   29.0180   49.7940 C   0  0  0  0  0  0  0  0  0  0  0  0
   36.5210   28.5090   49.4340 H   0  0  0  0  0  0  0  0  0  0  0  0
   35.2840   28.4160   50.6900 H   0  0  0  0  0  0  0  0  0  0  0  0
   34.4820   28.8870   48.8330 C   0  0  0  0  0  0  0  0  0  0  0  0
   34.4910   29.7280   47.7130 C   0  0  0  0  0  0  0  0  0  0  0  0
   33.4410   29.6230   46.7940 C   0  0  0  0  0  0  0  0  0  0  0  0
   32.4660   28.7050   47.0420 N   0  0  0  0  0  0  0  0  0  0  0  0
   32.4910   27.9100   48.1340 C   0  0  0  0  0  0  0  0  0  0  0  0
   33.4870   27.9980   49.0210 N   0  0  0  0  0  0  0  0  0  0  0  0
   35.2710   30.4580   47.5200 H   0  0  0  0  0  0  0  0  0  0  0  0
   33.4340   30.2670   45.9220 H   0  0  0  0  0  0  0  0  0  0  0  0
   31.6770   27.1930   48.2760 H   0  0  0  0  0  0  0  0  0  0  0  0
   37.4620   32.3970   49.4880 O   0  0  0  0  0  0  0  0  0  0  0  0
   39.4060   34.3350   50.1080 F   0  0  0  0  0  0  0  0  0  0  0  0
   39.4130   33.8560   48.8620 C   0  0  0  0  0  0  0  0  0  0  0  0
   38.4320   32.9120   48.6390 C   0  0  0  0  0  0  0  0  0  0  0  0
   38.3130   32.3170   47.3800 C   0  0  0  0  0  0  0  0  0  0  0  0
   37.5990   31.5690   47.0610 H   0  0  0  0  0  0  0  0  0  0  0  0
   39.1790   32.6690   46.3390 C   0  0  0  0  0  0  0  0  0  0  0  0
   39.1390   32.2480   45.3490 H   0  0  0  0  0  0  0  0  0  0  0  0
   40.1530   33.6230   46.6030 C   0  0  0  0  0  3  0  0  0  0  0  0
   40.2650   34.2050   47.8440 C   0  0  0  0  0  3  0  0  0  0  0  0
  2  1  2  6  0  0  0
  2  5  1  0  0  0  0
  2  3  1  0  0  0  0
  3  4  1  0  0  0  0
  6  5  1  0  0  0  0
  6  8  1  0  0  0  0
  7  6  1  0  0  0  0
  9 14  1  0  0  0  0
  9  6  1  0  0  0  0
 10  9  2  0  0  0  0
 11 12  2  0  0  0  0
 11 10  1  0  0  0  0
 12 13  1  0  0  0  0
 13 17  1  0  0  0  0
 13 14  2  0  0  0  0
 15 10  1  0  0  0  0
 16 11  1  0  0  0  0
 18  2  1  0  0  0  0
 20 19  1  0  0  0  0
 21 20  1  0  0  0  0
 21 18  1  0  0  0  0
 22 21  2  0  0  0  0
 23 22  1  0  0  0  0
 24 26  2  0  0  0  0
 24 22  1  0  0  0  0
 25 24  1  0  0  0  0
 26 27  1  0  0  0  0
 27 20  2  0  0  0  0
M  END
>  <minimizedAffinity>
-5.25926828

>  <minimizedRMSD>
2.00405431

$$$$
