
 OpenBabel03262522043D

 39 42  0  0  1  0  0  0  0  0999 V2000
   37.3020   22.9780   31.3320 C   0  0  2  0  0  0  0  0  0  0  0  0
   37.2760   24.4130   30.8820 C   0  0  0  0  0  0  0  0  0  0  0  0
   37.9460   25.2310   31.8640 N   0  0  0  0  0  0  0  0  0  0  0  0
   38.8170   26.1550   32.5200 C   0  0  0  0  0  0  0  0  0  0  0  0
   39.6270   27.0550   32.1950 O   0  0  0  0  0  0  0  0  0  0  0  0
   38.4610   25.7060   33.8620 C   0  0  1  0  0  0  0  0  0  0  0  0
   37.3480   24.9800   33.1480 C   0  0  2  0  0  0  0  0  0  0  0  0
   37.5010   23.1630   33.1400 S   0  0  0  0  0  0  0  0  0  0  0  0
   36.2170   24.7620   30.8630 H   0  0  0  0  0  0  0  0  0  0  0  0
   37.7170   24.5690   29.9000 H   0  0  0  0  0  0  0  0  0  0  0  0
   38.0600   26.4770   34.5450 H   0  0  0  0  0  0  0  0  0  0  0  0
   36.3210   25.3640   33.3060 H   0  0  0  0  0  0  0  0  0  0  0  0
   38.3740   22.1500   30.6990 C   0  0  0  0  0  0  0  0  0  0  0  0
   38.2430   22.1590   29.6220 H   0  0  0  0  0  0  0  0  0  0  0  0
   39.3460   22.7110   30.8900 H   0  0  0  0  0  0  0  0  0  0  0  0
   38.4630   21.1960   31.2090 H   0  0  0  0  0  0  0  0  0  0  0  0
   35.9120   22.3820   31.1430 C   0  0  0  0  0  0  0  0  0  0  0  0
   35.5810   22.4860   30.0840 H   0  0  0  0  0  0  0  0  0  0  0  0
   35.1680   22.9230   31.7830 H   0  0  0  0  0  0  0  0  0  0  0  0
   35.0970   21.1190   33.6590 F   0  0  0  0  0  0  0  0  0  0  0  0
   35.5090   20.3340   32.6490 C   0  0  0  0  0  0  0  0  0  0  0  0
   35.9100   20.9550   31.4920 C   0  0  0  0  0  0  0  0  0  0  0  0
   36.3530   20.0660   30.5050 C   0  0  0  0  0  0  0  0  0  0  0  0
   36.7040   20.3790   29.5360 H   0  0  0  0  0  0  0  0  0  0  0  0
   36.3720   18.6920   30.7090 C   0  0  0  0  0  0  0  0  0  0  0  0
   36.7200   18.0050   29.9310 H   0  0  0  0  0  0  0  0  0  0  0  0
   35.9540   18.1350   31.8940 C   0  0  0  0  0  3  0  0  0  0  0  0
   35.5200   18.9860   32.8660 C   0  0  0  0  0  3  0  0  0  0  0  0
   39.4590   24.8790   34.5610 C   0  0  0  0  0  0  0  0  0  0  0  0
   40.5270   24.7090   33.9080 O   0  0  0  0  0  0  0  0  0  0  0  0
   39.2330   24.3240   35.8710 C   0  0  0  0  0  0  0  0  0  0  0  0
   40.1020   23.3300   36.2970 C   0  0  0  0  0  0  0  0  0  0  0  0
   39.8870   22.7750   37.5850 C   0  0  0  0  0  0  0  0  0  0  0  0
   38.8340   23.2580   38.3270 N   0  0  0  0  0  0  0  0  0  0  0  0
   38.0350   24.2110   37.8680 C   0  0  0  0  0  0  0  0  0  0  0  0
   38.2220   24.7500   36.6490 N   0  0  0  0  0  0  0  0  0  0  0  0
   40.9380   22.9490   35.7050 H   0  0  0  0  0  0  0  0  0  0  0  0
   40.5830   22.0020   37.8880 H   0  0  0  0  0  0  0  0  0  0  0  0
   37.2280   24.5340   38.5180 H   0  0  0  0  0  0  0  0  0  0  0  0
  1 13  1  6  0  0  0
  1  8  1  0  0  0  0
  2  1  1  0  0  0  0
  2  3  1  0  0  0  0
  3  4  1  0  0  0  0
  3  7  1  0  0  0  0
  4  6  1  0  0  0  0
  5  4  2  0  0  0  0
  6 11  1  1  0  0  0
  6 29  1  0  0  0  0
  7 12  1  1  0  0  0
  7  6  1  0  0  0  0
  8  7  1  0  0  0  0
  9  2  1  0  0  0  0
 10  2  1  0  0  0  0
 13 15  1  0  0  0  0
 13 16  1  0  0  0  0
 14 13  1  0  0  0  0
 17  1  1  0  0  0  0
 17 22  1  0  0  0  0
 17 19  1  0  0  0  0
 18 17  1  0  0  0  0
 21 28  1  0  0  0  0
 21 20  1  0  0  0  0
 22 21  2  0  0  0  0
 23 25  2  0  0  0  0
 23 22  1  0  0  0  0
 24 23  1  0  0  0  0
 25 27  1  0  0  0  0
 26 25  1  0  0  0  0
 27 28  2  0  0  0  0
 29 31  1  0  0  0  0
 30 29  2  0  0  0  0
 31 32  2  0  0  0  0
 31 36  1  0  0  0  0
 32 33  1  0  0  0  0
 33 38  1  0  0  0  0
 33 34  2  0  0  0  0
 35 34  1  0  0  0  0
 35 39  1  0  0  0  0
 36 35  2  0  0  0  0
 37 32  1  0  0  0  0
M  END
>  <minimizedAffinity>
-5.88840532

$$$$

 OpenBabel03262522043D

 39 42  0  0  1  0  0  0  0  0999 V2000
   37.6520   26.3390   31.4550 C   0  0  2  0  0  0  0  0  0  0  0  0
   38.6110   27.4800   31.6610 C   0  0  0  0  0  0  0  0  0  0  0  0
   39.4060   27.2260   32.8370 N   0  0  0  0  0  0  0  0  0  0  0  0
   40.4920   27.0340   33.7480 C   0  0  0  0  0  0  0  0  0  0  0  0
   41.7290   27.2330   33.7690 O   0  0  0  0  0  0  0  0  0  0  0  0
   39.6530   26.4630   34.7970 C   0  0  1  0  0  0  0  0  0  0  0  0
   38.5190   26.9650   33.9380 C   0  0  2  0  0  0  0  0  0  0  0  0
   37.5230   25.6580   33.1470 S   0  0  0  0  0  0  0  0  0  0  0  0
   38.0250   28.4030   31.8800 H   0  0  0  0  0  0  0  0  0  0  0  0
   39.2560   27.6670   30.8050 H   0  0  0  0  0  0  0  0  0  0  0  0
   39.6720   26.9790   35.7740 H   0  0  0  0  0  0  0  0  0  0  0  0
   37.9400   27.8240   34.3300 H   0  0  0  0  0  0  0  0  0  0  0  0
   38.0970   25.3330   30.4430 C   0  0  0  0  0  0  0  0  0  0  0  0
   38.2380   25.8260   29.4860 H   0  0  0  0  0  0  0  0  0  0  0  0
   39.1380   25.0080   30.7720 H   0  0  0  0  0  0  0  0  0  0  0  0
   37.4690   24.4490   30.4900 H   0  0  0  0  0  0  0  0  0  0  0  0
   36.2730   26.9100   31.1480 C   0  0  0  0  0  0  0  0  0  0  0  0
   35.5400   26.6110   31.9320 H   0  0  0  0  0  0  0  0  0  0  0  0
   35.8990   26.5120   30.1680 H   0  0  0  0  0  0  0  0  0  0  0  0
   37.1220   28.6270   28.9290 F   0  0  0  0  0  0  0  0  0  0  0  0
   36.6870   29.2070   30.0610 C   0  0  0  0  0  0  0  0  0  0  0  0
   36.3220   28.3770   31.0930 C   0  0  0  0  0  0  0  0  0  0  0  0
   35.9120   29.0630   32.2430 C   0  0  0  0  0  0  0  0  0  0  0  0
   35.5930   28.5720   33.1470 H   0  0  0  0  0  0  0  0  0  0  0  0
   35.8900   30.4500   32.3010 C   0  0  0  0  0  0  0  0  0  0  0  0
   35.5680   30.9780   33.2050 H   0  0  0  0  0  0  0  0  0  0  0  0
   36.2680   31.2220   31.2290 C   0  0  0  0  0  3  0  0  0  0  0  0
   36.6700   30.5710   30.1010 C   0  0  0  0  0  3  0  0  0  0  0  0
   39.7510   25.0070   34.9920 C   0  0  0  0  0  0  0  0  0  0  0  0
   40.2110   24.3890   33.9910 O   0  0  0  0  0  0  0  0  0  0  0  0
   39.3630   24.3560   36.2170 C   0  0  0  0  0  0  0  0  0  0  0  0
   38.2200   24.8220   36.8490 C   0  0  0  0  0  0  0  0  0  0  0  0
   37.8300   24.1880   38.0570 C   0  0  0  0  0  0  0  0  0  0  0  0
   38.6080   23.1540   38.5220 N   0  0  0  0  0  0  0  0  0  0  0  0
   39.6920   22.7490   37.8750 C   0  0  0  0  0  0  0  0  0  0  0  0
   40.0790   23.3370   36.7280 N   0  0  0  0  0  0  0  0  0  0  0  0
   37.6030   25.6440   36.4760 H   0  0  0  0  0  0  0  0  0  0  0  0
   36.9330   24.5770   38.5250 H   0  0  0  0  0  0  0  0  0  0  0  0
   40.2490   21.9260   38.3120 H   0  0  0  0  0  0  0  0  0  0  0  0
  1 13  1  6  0  0  0
  1  2  1  0  0  0  0
  1  8  1  0  0  0  0
  2  9  1  0  0  0  0
  2  3  1  0  0  0  0
  3  4  1  0  0  0  0
  3  7  1  0  0  0  0
  4  5  2  0  0  0  0
  4  6  1  0  0  0  0
  6 29  1  0  0  0  0
  6 11  1  1  0  0  0
  7 12  1  1  0  0  0
  7  6  1  0  0  0  0
  8  7  1  0  0  0  0
 10  2  1  0  0  0  0
 13 16  1  0  0  0  0
 13 15  1  0  0  0  0
 14 13  1  0  0  0  0
 17  1  1  0  0  0  0
 17 18  1  0  0  0  0
 19 17  1  0  0  0  0
 20 21  1  0  0  0  0
 21 28  2  0  0  0  0
 21 22  1  0  0  0  0
 22 17  1  0  0  0  0
 22 23  2  0  0  0  0
 23 25  1  0  0  0  0
 23 24  1  0  0  0  0
 25 26  1  0  0  0  0
 27 25  2  0  0  0  0
 28 27  1  0  0  0  0
 29 31  1  0  0  0  0
 30 29  2  0  0  0  0
 31 36  2  0  0  0  0
 31 32  1  0  0  0  0
 32 33  2  0  0  0  0
 33 34  1  0  0  0  0
 33 38  1  0  0  0  0
 35 39  1  0  0  0  0
 35 34  2  0  0  0  0
 36 35  1  0  0  0  0
 37 32  1  0  0  0  0
M  END
>  <minimizedAffinity>
-5.594069

$$$$

 OpenBabel03262522043D

 39 42  0  0  1  0  0  0  0  0999 V2000
   37.6300   25.5720   32.0030 C   0  0  2  0  0  0  0  0  0  0  0  0
   38.3290   24.6230   31.0680 C   0  0  0  0  0  0  0  0  0  0  0  0
   38.6360   23.4030   31.7720 N   0  0  0  0  0  0  0  0  0  0  0  0
   38.7450   22.0320   32.1650 C   0  0  0  0  0  0  0  0  0  0  0  0
   38.5560   20.9030   31.6530 O   0  0  0  0  0  0  0  0  0  0  0  0
   39.2010   22.3430   33.5160 C   0  0  1  0  0  0  0  0  0  0  0  0
   39.3660   23.7370   32.9650 C   0  0  2  0  0  0  0  0  0  0  0  0
   38.1970   24.9670   33.6320 S   0  0  0  0  0  0  0  0  0  0  0  0
   39.3100   25.0670   30.7790 H   0  0  0  0  0  0  0  0  0  0  0  0
   37.7610   24.4040   30.1660 H   0  0  0  0  0  0  0  0  0  0  0  0
   40.1750   21.9140   33.8140 H   0  0  0  0  0  0  0  0  0  0  0  0
   40.4040   24.1000   32.8320 H   0  0  0  0  0  0  0  0  0  0  0  0
   36.1410   25.5930   31.8640 C   0  0  0  0  0  0  0  0  0  0  0  0
   35.8810   25.8740   30.8490 H   0  0  0  0  0  0  0  0  0  0  0  0
   35.8090   24.5090   31.9720 H   0  0  0  0  0  0  0  0  0  0  0  0
   35.6940   26.1370   32.6900 H   0  0  0  0  0  0  0  0  0  0  0  0
   38.2520   26.9550   31.8510 C   0  0  0  0  0  0  0  0  0  0  0  0
   38.7350   27.0610   30.8530 H   0  0  0  0  0  0  0  0  0  0  0  0
   39.0470   27.1090   32.6270 H   0  0  0  0  0  0  0  0  0  0  0  0
   36.8730   27.8580   34.2750 F   0  0  0  0  0  0  0  0  0  0  0  0
   36.5870   28.4620   33.1100 C   0  0  0  0  0  0  0  0  0  0  0  0
   37.2280   28.0000   31.9860 C   0  0  0  0  0  0  0  0  0  0  0  0
   36.8480   28.6630   30.8130 C   0  0  0  0  0  0  0  0  0  0  0  0
   37.2490   28.4290   29.8410 H   0  0  0  0  0  0  0  0  0  0  0  0
   35.9090   29.6860   30.8190 C   0  0  0  0  0  0  0  0  0  0  0  0
   35.6190   30.1980   29.8960 H   0  0  0  0  0  0  0  0  0  0  0  0
   35.3050   30.1010   31.9820 C   0  0  0  0  0  3  0  0  0  0  0  0
   35.6630   29.4660   33.1340 C   0  0  0  0  0  3  0  0  0  0  0  0
   38.2160   22.1630   34.5960 C   0  0  0  0  0  0  0  0  0  0  0  0
   37.1280   21.6470   34.2120 O   0  0  0  0  0  0  0  0  0  0  0  0
   38.4790   22.5360   35.9620 C   0  0  0  0  0  0  0  0  0  0  0  0
   39.7740   22.3660   36.4290 C   0  0  0  0  0  0  0  0  0  0  0  0
   40.0430   22.7290   37.7740 C   0  0  0  0  0  0  0  0  0  0  0  0
   39.0040   23.2260   38.5270 N   0  0  0  0  0  0  0  0  0  0  0  0
   37.7840   23.3670   38.0270 C   0  0  0  0  0  0  0  0  0  0  0  0
   37.5090   23.0280   36.7550 N   0  0  0  0  0  0  0  0  0  0  0  0
   40.5970   21.9720   35.8270 H   0  0  0  0  0  0  0  0  0  0  0  0
   41.0630   22.5850   38.1060 H   0  0  0  0  0  0  0  0  0  0  0  0
   37.0230   23.7660   38.6900 H   0  0  0  0  0  0  0  0  0  0  0  0
  1 17  1  6  0  0  0
  1  8  1  0  0  0  0
  2  3  1  0  0  0  0
  2  1  1  0  0  0  0
  3  4  1  0  0  0  0
  3  7  1  0  0  0  0
  4  6  1  0  0  0  0
  5  4  2  0  0  0  0
  6 11  1  1  0  0  0
  6 29  1  0  0  0  0
  7 12  1  6  0  0  0
  7  6  1  0  0  0  0
  7  8  1  0  0  0  0
  9  2  1  0  0  0  0
 10  2  1  0  0  0  0
 13 15  1  0  0  0  0
 13  1  1  0  0  0  0
 13 16  1  0  0  0  0
 14 13  1  0  0  0  0
 17 22  1  0  0  0  0
 17 19  1  0  0  0  0
 18 17  1  0  0  0  0
 21 28  1  0  0  0  0
 21 20  1  0  0  0  0
 22 21  2  0  0  0  0
 23 25  2  0  0  0  0
 23 22  1  0  0  0  0
 24 23  1  0  0  0  0
 25 27  1  0  0  0  0
 26 25  1  0  0  0  0
 27 28  2  0  0  0  0
 29 31  1  0  0  0  0
 30 29  2  0  0  0  0
 31 32  2  0  0  0  0
 31 36  1  0  0  0  0
 32 33  1  0  0  0  0
 33 38  1  0  0  0  0
 33 34  2  0  0  0  0
 35 34  1  0  0  0  0
 35 39  1  0  0  0  0
 36 35  2  0  0  0  0
 37 32  1  0  0  0  0
M  END
>  <minimizedAffinity>
-5.46833086

$$$$

 OpenBabel03262522043D

 39 42  0  0  1  0  0  0  0  0999 V2000
   38.9340   24.0680   33.7690 C   0  0  2  0  0  0  0  0  0  0  0  0
   39.1650   23.5380   32.3800 C   0  0  0  0  0  0  0  0  0  0  0  0
   38.8030   24.5510   31.4190 N   0  0  0  0  0  0  0  0  0  0  0  0
   38.8120   25.4870   30.3380 C   0  0  0  0  0  0  0  0  0  0  0  0
   39.5260   25.7410   29.3390 O   0  0  0  0  0  0  0  0  0  0  0  0
   37.5940   26.1640   30.7700 C   0  0  1  0  0  0  0  0  0  0  0  0
   37.4590   24.9810   31.6960 C   0  0  2  0  0  0  0  0  0  0  0  0
   37.6830   25.3650   33.4650 S   0  0  0  0  0  0  0  0  0  0  0  0
   38.4690   22.6850   32.2040 H   0  0  0  0  0  0  0  0  0  0  0  0
   40.1850   23.2020   32.2060 H   0  0  0  0  0  0  0  0  0  0  0  0
   36.7660   26.1940   30.0390 H   0  0  0  0  0  0  0  0  0  0  0  0
   36.6470   24.2630   31.4710 H   0  0  0  0  0  0  0  0  0  0  0  0
   40.1650   24.5780   34.4490 C   0  0  0  0  0  0  0  0  0  0  0  0
   40.8950   23.7780   34.5140 H   0  0  0  0  0  0  0  0  0  0  0  0
   40.6150   25.3400   33.7330 H   0  0  0  0  0  0  0  0  0  0  0  0
   39.8990   25.1210   35.3500 H   0  0  0  0  0  0  0  0  0  0  0  0
   38.2140   23.0020   34.5850 C   0  0  0  0  0  0  0  0  0  0  0  0
   38.5150   21.9820   34.2520 H   0  0  0  0  0  0  0  0  0  0  0  0
   37.1050   23.0890   34.4420 H   0  0  0  0  0  0  0  0  0  0  0  0
   40.3770   21.7300   36.1000 F   0  0  0  0  0  0  0  0  0  0  0  0
   39.5550   22.5790   36.7410 C   0  0  0  0  0  0  0  0  0  0  0  0
   38.5350   23.1390   36.0120 C   0  0  0  0  0  0  0  0  0  0  0  0
   37.7100   23.9840   36.7640 C   0  0  0  0  0  0  0  0  0  0  0  0
   36.8610   24.5060   36.3540 H   0  0  0  0  0  0  0  0  0  0  0  0
   37.9300   24.2130   38.1160 C   0  0  0  0  0  0  0  0  0  0  0  0
   37.2790   24.8760   38.6950 H   0  0  0  0  0  0  0  0  0  0  0  0
   38.9730   23.6200   38.7860 C   0  0  0  0  0  3  0  0  0  0  0  0
   39.7860   22.7930   38.0690 C   0  0  0  0  0  3  0  0  0  0  0  0
   37.7680   27.4860   31.3940 C   0  0  0  0  0  0  0  0  0  0  0  0
   38.9500   27.7190   31.7730 O   0  0  0  0  0  0  0  0  0  0  0  0
   36.6860   28.4250   31.5470 C   0  0  0  0  0  0  0  0  0  0  0  0
   36.7190   29.5670   30.7610 C   0  0  0  0  0  0  0  0  0  0  0  0
   35.6590   30.4980   30.9060 C   0  0  0  0  0  0  0  0  0  0  0  0
   34.6670   30.2090   31.8140 N   0  0  0  0  0  0  0  0  0  0  0  0
   34.6860   29.1000   32.5400 C   0  0  0  0  0  0  0  0  0  0  0  0
   35.6830   28.2040   32.4180 N   0  0  0  0  0  0  0  0  0  0  0  0
   37.5090   29.7930   30.0390 H   0  0  0  0  0  0  0  0  0  0  0  0
   35.7150   31.3790   30.2770 H   0  0  0  0  0  0  0  0  0  0  0  0
   33.8650   28.9500   33.2330 H   0  0  0  0  0  0  0  0  0  0  0  0
  1 13  1  1  0  0  0
  1 17  1  0  0  0  0
  2  1  1  0  0  0  0
  3  7  1  0  0  0  0
  3  2  1  0  0  0  0
  4  6  1  0  0  0  0
  4  3  1  0  0  0  0
  5  4  2  0  0  0  0
  6 11  1  6  0  0  0
  6 29  1  0  0  0  0
  6  7  1  0  0  0  0
  7 12  1  6  0  0  0
  7  8  1  0  0  0  0
  8  1  1  0  0  0  0
  9  2  1  0  0  0  0
 10  2  1  0  0  0  0
 13 14  1  0  0  0  0
 13 16  1  0  0  0  0
 15 13  1  0  0  0  0
 17 22  1  0  0  0  0
 18 17  1  0  0  0  0
 19 17  1  0  0  0  0
 20 21  1  0  0  0  0
 21 28  1  0  0  0  0
 22 21  2  0  0  0  0
 22 23  1  0  0  0  0
 23 25  2  0  0  0  0
 24 23  1  0  0  0  0
 25 26  1  0  0  0  0
 25 27  1  0  0  0  0
 28 27  2  0  0  0  0
 29 31  1  0  0  0  0
 29 30  2  0  0  0  0
 31 36  1  0  0  0  0
 32 33  1  0  0  0  0
 32 31  2  0  0  0  0
 33 34  2  0  0  0  0
 34 35  1  0  0  0  0
 35 39  1  0  0  0  0
 36 35  2  0  0  0  0
 37 32  1  0  0  0  0
 38 33  1  0  0  0  0
M  END
>  <minimizedAffinity>
-5.33842516

$$$$

 OpenBabel03262522043D

 39 42  0  0  1  0  0  0  0  0999 V2000
   38.5860   25.1430   31.0130 C   0  0  2  0  0  0  0  0  0  0  0  0
   37.4400   26.1100   31.1370 C   0  0  0  0  0  0  0  0  0  0  0  0
   37.2660   26.4650   32.5240 N   0  0  0  0  0  0  0  0  0  0  0  0
   37.1250   27.1830   33.7520 C   0  0  0  0  0  0  0  0  0  0  0  0
   36.9260   28.3670   34.1160 O   0  0  0  0  0  0  0  0  0  0  0  0
   37.3000   26.0010   34.5890 C   0  0  1  0  0  0  0  0  0  0  0  0
   37.1330   25.2550   33.2890 C   0  0  2  0  0  0  0  0  0  0  0  0
   38.6370   24.4170   32.6900 S   0  0  0  0  0  0  0  0  0  0  0  0
   36.5010   25.5910   30.8320 H   0  0  0  0  0  0  0  0  0  0  0  0
   37.5600   27.0070   30.5320 H   0  0  0  0  0  0  0  0  0  0  0  0
   36.4760   25.7720   35.2900 H   0  0  0  0  0  0  0  0  0  0  0  0
   36.1930   24.6820   33.1610 H   0  0  0  0  0  0  0  0  0  0  0  0
   39.8790   25.7670   30.5960 C   0  0  0  0  0  0  0  0  0  0  0  0
   39.7490   26.2540   29.6350 H   0  0  0  0  0  0  0  0  0  0  0  0
   40.0650   26.6100   31.3400 H   0  0  0  0  0  0  0  0  0  0  0  0
   40.6950   25.0610   30.7210 H   0  0  0  0  0  0  0  0  0  0  0  0
   38.1640   24.0020   30.0960 C   0  0  0  0  0  0  0  0  0  0  0  0
   39.0540   23.5330   29.6160 H   0  0  0  0  0  0  0  0  0  0  0  0
   37.5030   24.3870   29.2760 H   0  0  0  0  0  0  0  0  0  0  0  0
   35.3160   23.8810   30.7780 F   0  0  0  0  0  0  0  0  0  0  0  0
   36.1130   22.8710   31.1650 C   0  0  0  0  0  0  0  0  0  0  0  0
   37.4470   22.9670   30.8550 C   0  0  0  0  0  0  0  0  0  0  0  0
   38.2090   21.8900   31.3220 C   0  0  0  0  0  0  0  0  0  0  0  0
   39.2720   21.8020   31.1700 H   0  0  0  0  0  0  0  0  0  0  0  0
   37.6380   20.8390   32.0290 C   0  0  0  0  0  0  0  0  0  0  0  0
   38.2430   20.0010   32.3900 H   0  0  0  0  0  0  0  0  0  0  0  0
   36.2920   20.8040   32.3050 C   0  0  0  0  0  3  0  0  0  0  0  0
   35.5360   21.8460   31.8570 C   0  0  0  0  0  3  0  0  0  0  0  0
   38.5970   25.8710   35.2740 C   0  0  0  0  0  0  0  0  0  0  0  0
   39.4140   26.7940   34.9980 O   0  0  0  0  0  0  0  0  0  0  0  0
   38.8970   24.7910   36.1790 C   0  0  0  0  0  0  0  0  0  0  0  0
   38.0620   24.6310   37.2750 C   0  0  0  0  0  0  0  0  0  0  0  0
   38.3490   23.5710   38.1740 C   0  0  0  0  0  0  0  0  0  0  0  0
   39.4350   22.7710   37.9000 N   0  0  0  0  0  0  0  0  0  0  0  0
   40.1990   22.9710   36.8350 C   0  0  0  0  0  0  0  0  0  0  0  0
   39.9430   23.9710   35.9720 N   0  0  0  0  0  0  0  0  0  0  0  0
   37.1990   25.2680   37.4890 H   0  0  0  0  0  0  0  0  0  0  0  0
   37.6780   23.4730   39.0180 H   0  0  0  0  0  0  0  0  0  0  0  0
   41.0360   22.2940   36.6950 H   0  0  0  0  0  0  0  0  0  0  0  0
  1 17  1  6  0  0  0
  1  2  1  0  0  0  0
  1  8  1  0  0  0  0
  2  3  1  0  0  0  0
  3  7  1  0  0  0  0
  3  4  1  0  0  0  0
  4  5  2  0  0  0  0
  4  6  1  0  0  0  0
  6 29  1  0  0  0  0
  6 11  1  1  0  0  0
  7 12  1  6  0  0  0
  7  6  1  0  0  0  0
  8  7  1  0  0  0  0
  9  2  1  0  0  0  0
 10  2  1  0  0  0  0
 13 16  1  0  0  0  0
 13  1  1  0  0  0  0
 13 15  1  0  0  0  0
 14 13  1  0  0  0  0
 17 22  1  0  0  0  0
 18 17  1  0  0  0  0
 19 17  1  0  0  0  0
 20 21  1  0  0  0  0
 21 28  1  0  0  0  0
 22 21  2  0  0  0  0
 22 23  1  0  0  0  0
 23 25  2  0  0  0  0
 24 23  1  0  0  0  0
 25 27  1  0  0  0  0
 25 26  1  0  0  0  0
 28 27  2  0  0  0  0
 29 31  1  0  0  0  0
 30 29  2  0  0  0  0
 31 32  1  0  0  0  0
 32 37  1  0  0  0  0
 32 33  2  0  0  0  0
 33 38  1  0  0  0  0
 34 33  1  0  0  0  0
 35 34  2  0  0  0  0
 36 31  2  0  0  0  0
 36 35  1  0  0  0  0
 39 35  1  0  0  0  0
M  END
>  <minimizedAffinity>
-5.3321681

$$$$

 OpenBabel03262522043D

 39 42  0  0  1  0  0  0  0  0999 V2000
   38.8000   26.0750   33.3470 C   0  0  2  0  0  0  0  0  0  0  0  0
   39.7630   25.9770   32.1960 C   0  0  0  0  0  0  0  0  0  0  0  0
   39.3670   24.8880   31.3370 N   0  0  0  0  0  0  0  0  0  0  0  0
   38.9870   24.0930   30.2110 C   0  0  0  0  0  0  0  0  0  0  0  0
   38.9770   24.2010   28.9610 O   0  0  0  0  0  0  0  0  0  0  0  0
   38.5520   22.9590   31.0200 C   0  0  1  0  0  0  0  0  0  0  0  0
   39.2450   23.6990   32.1370 C   0  0  2  0  0  0  0  0  0  0  0  0
   38.1310   24.3750   33.4130 S   0  0  0  0  0  0  0  0  0  0  0  0
   40.7680   25.7040   32.5950 H   0  0  0  0  0  0  0  0  0  0  0  0
   39.8500   26.8970   31.6210 H   0  0  0  0  0  0  0  0  0  0  0  0
   39.0470   21.9930   30.8140 H   0  0  0  0  0  0  0  0  0  0  0  0
   40.1840   23.2550   32.5210 H   0  0  0  0  0  0  0  0  0  0  0  0
   37.7440   27.1220   33.1830 C   0  0  0  0  0  0  0  0  0  0  0  0
   38.2180   28.0910   33.0610 H   0  0  0  0  0  0  0  0  0  0  0  0
   37.2470   26.9000   32.1820 H   0  0  0  0  0  0  0  0  0  0  0  0
   36.9770   27.0040   33.9410 H   0  0  0  0  0  0  0  0  0  0  0  0
   39.5950   26.2410   34.6360 C   0  0  0  0  0  0  0  0  0  0  0  0
   39.3500   27.2120   35.1270 H   0  0  0  0  0  0  0  0  0  0  0  0
   40.6940   26.2430   34.4160 H   0  0  0  0  0  0  0  0  0  0  0  0
   41.0220   23.7130   35.0360 F   0  0  0  0  0  0  0  0  0  0  0  0
   39.9520   23.9760   35.8050 C   0  0  0  0  0  0  0  0  0  0  0  0
   39.2870   25.1550   35.5770 C   0  0  0  0  0  0  0  0  0  0  0  0
   38.1680   25.3340   36.3990 C   0  0  0  0  0  0  0  0  0  0  0  0
   37.5300   26.2000   36.3560 H   0  0  0  0  0  0  0  0  0  0  0  0
   37.7930   24.3880   37.3440 C   0  0  0  0  0  0  0  0  0  0  0  0
   36.9160   24.5370   37.9820 H   0  0  0  0  0  0  0  0  0  0  0  0
   38.5050   23.2260   37.5220 C   0  0  0  0  0  3  0  0  0  0  0  0
   39.5980   23.0360   36.7300 C   0  0  0  0  0  3  0  0  0  0  0  0
   37.0980   22.7670   31.1450 C   0  0  0  0  0  0  0  0  0  0  0  0
   36.4180   23.7760   30.8040 O   0  0  0  0  0  0  0  0  0  0  0  0
   36.5110   21.5350   31.6090 C   0  0  0  0  0  0  0  0  0  0  0  0
   36.6280   20.4260   30.7850 C   0  0  0  0  0  0  0  0  0  0  0  0
   36.0520   19.2090   31.2310 C   0  0  0  0  0  0  0  0  0  0  0  0
   35.4170   19.2060   32.4510 N   0  0  0  0  0  0  0  0  0  0  0  0
   35.3350   20.2980   33.1990 C   0  0  0  0  0  0  0  0  0  0  0  0
   35.8750   21.4620   32.7930 N   0  0  0  0  0  0  0  0  0  0  0  0
   37.1340   20.4310   29.8150 H   0  0  0  0  0  0  0  0  0  0  0  0
   36.1610   18.3620   30.5640 H   0  0  0  0  0  0  0  0  0  0  0  0
   34.8160   20.2090   34.1470 H   0  0  0  0  0  0  0  0  0  0  0  0
  1 13  1  6  0  0  0
  1  8  1  0  0  0  0
  1 17  1  0  0  0  0
  2  9  1  0  0  0  0
  2  1  1  0  0  0  0
  3  7  1  0  0  0  0
  3  2  1  0  0  0  0
  4  6  1  0  0  0  0
  4  3  1  0  0  0  0
  5  4  2  0  0  0  0
  6 11  1  6  0  0  0
  6 29  1  0  0  0  0
  6  7  1  0  0  0  0
  7 12  1  1  0  0  0
  7  8  1  0  0  0  0
 10  2  1  0  0  0  0
 13 16  1  0  0  0  0
 14 13  1  0  0  0  0
 15 13  1  0  0  0  0
 17 18  1  0  0  0  0
 17 22  1  0  0  0  0
 19 17  1  0  0  0  0
 20 21  1  0  0  0  0
 21 28  1  0  0  0  0
 22 21  2  0  0  0  0
 22 23  1  0  0  0  0
 23 25  2  0  0  0  0
 24 23  1  0  0  0  0
 25 27  1  0  0  0  0
 25 26  1  0  0  0  0
 28 27  2  0  0  0  0
 29 31  1  0  0  0  0
 30 29  2  0  0  0  0
 31 36  1  0  0  0  0
 32 33  1  0  0  0  0
 32 31  2  0  0  0  0
 33 34  2  0  0  0  0
 34 35  1  0  0  0  0
 35 39  1  0  0  0  0
 36 35  2  0  0  0  0
 37 32  1  0  0  0  0
 38 33  1  0  0  0  0
M  END
>  <minimizedAffinity>
-5.33013439

$$$$

 OpenBabel03262522043D

 39 42  0  0  1  0  0  0  0  0999 V2000
   38.0750   25.7940   32.1790 C   0  0  2  0  0  0  0  0  0  0  0  0
   38.6550   24.8100   31.2000 C   0  0  0  0  0  0  0  0  0  0  0  0
   38.8250   23.5350   31.8520 N   0  0  0  0  0  0  0  0  0  0  0  0
   38.7790   22.1460   32.1900 C   0  0  0  0  0  0  0  0  0  0  0  0
   38.4590   21.0680   31.6360 O   0  0  0  0  0  0  0  0  0  0  0  0
   39.2760   22.3490   33.5470 C   0  0  1  0  0  0  0  0  0  0  0  0
   39.5970   23.7360   33.0490 C   0  0  2  0  0  0  0  0  0  0  0  0
   38.5810   25.0640   33.7770 S   0  0  0  0  0  0  0  0  0  0  0  0
   39.6790   25.1500   30.9180 H   0  0  0  0  0  0  0  0  0  0  0  0
   38.0600   24.6940   30.2960 H   0  0  0  0  0  0  0  0  0  0  0  0
   40.1960   21.8000   33.8180 H   0  0  0  0  0  0  0  0  0  0  0  0
   40.6680   23.9830   32.9190 H   0  0  0  0  0  0  0  0  0  0  0  0
   36.5980   25.9910   32.0570 C   0  0  0  0  0  0  0  0  0  0  0  0
   36.3650   26.3400   31.0560 H   0  0  0  0  0  0  0  0  0  0  0  0
   36.1450   24.9480   32.1270 H   0  0  0  0  0  0  0  0  0  0  0  0
   36.2210   26.5480   32.9090 H   0  0  0  0  0  0  0  0  0  0  0  0
   38.8510   27.1020   32.0750 C   0  0  0  0  0  0  0  0  0  0  0  0
   39.9370   26.9030   31.9220 H   0  0  0  0  0  0  0  0  0  0  0  0
   38.7460   27.6910   33.0230 H   0  0  0  0  0  0  0  0  0  0  0  0
   36.8110   29.2070   32.0780 F   0  0  0  0  0  0  0  0  0  0  0  0
   37.4300   28.9130   30.9220 C   0  0  0  0  0  0  0  0  0  0  0  0
   38.3620   27.9040   30.9450 C   0  0  0  0  0  0  0  0  0  0  0  0
   38.9340   27.6430   29.6940 C   0  0  0  0  0  0  0  0  0  0  0  0
   39.6810   26.8850   29.5280 H   0  0  0  0  0  0  0  0  0  0  0  0
   38.5710   28.3540   28.5580 C   0  0  0  0  0  0  0  0  0  0  0  0
   39.0240   28.1420   27.5840 H   0  0  0  0  0  0  0  0  0  0  0  0
   37.6300   29.3550   28.6050 C   0  0  0  0  0  3  0  0  0  0  0  0
   37.0630   29.6220   29.8150 C   0  0  0  0  0  3  0  0  0  0  0  0
   38.2840   22.2390   34.6300 C   0  0  0  0  0  0  0  0  0  0  0  0
   37.1530   21.8290   34.2440 O   0  0  0  0  0  0  0  0  0  0  0  0
   38.5850   22.5640   36.0000 C   0  0  0  0  0  0  0  0  0  0  0  0
   37.5470   23.0510   36.7800 C   0  0  0  0  0  0  0  0  0  0  0  0
   37.8330   23.3760   38.1310 C   0  0  0  0  0  0  0  0  0  0  0  0
   39.1190   23.1870   38.5800 N   0  0  0  0  0  0  0  0  0  0  0  0
   40.0740   22.7180   37.7890 C   0  0  0  0  0  0  0  0  0  0  0  0
   39.8220   22.4040   36.5050 N   0  0  0  0  0  0  0  0  0  0  0  0
   36.5250   23.2000   36.4200 H   0  0  0  0  0  0  0  0  0  0  0  0
   37.0000   23.7540   38.7120 H   0  0  0  0  0  0  0  0  0  0  0  0
   41.0610   22.5990   38.2240 H   0  0  0  0  0  0  0  0  0  0  0  0
  1 13  1  6  0  0  0
  1  8  1  0  0  0  0
  2  3  1  0  0  0  0
  2  1  1  0  0  0  0
  3  4  1  0  0  0  0
  3  7  1  0  0  0  0
  4  6  1  0  0  0  0
  5  4  2  0  0  0  0
  6 11  1  1  0  0  0
  6 29  1  0  0  0  0
  7 12  1  6  0  0  0
  7  6  1  0  0  0  0
  7  8  1  0  0  0  0
  9  2  1  0  0  0  0
 10  2  1  0  0  0  0
 13 15  1  0  0  0  0
 13 16  1  0  0  0  0
 14 13  1  0  0  0  0
 17  1  1  0  0  0  0
 17 19  1  0  0  0  0
 18 17  1  0  0  0  0
 21 22  1  0  0  0  0
 21 20  1  0  0  0  0
 22 17  1  0  0  0  0
 23 22  2  0  0  0  0
 24 23  1  0  0  0  0
 25 27  2  0  0  0  0
 25 23  1  0  0  0  0
 26 25  1  0  0  0  0
 27 28  1  0  0  0  0
 28 21  2  0  0  0  0
 29 31  1  0  0  0  0
 30 29  2  0  0  0  0
 31 36  2  0  0  0  0
 31 32  1  0  0  0  0
 32 33  2  0  0  0  0
 33 34  1  0  0  0  0
 33 38  1  0  0  0  0
 35 39  1  0  0  0  0
 35 34  2  0  0  0  0
 36 35  1  0  0  0  0
 37 32  1  0  0  0  0
M  END
>  <minimizedAffinity>
-5.21219206

$$$$

 OpenBabel03262522043D

 39 42  0  0  1  0  0  0  0  0999 V2000
   38.3870   25.8950   34.4400 C   0  0  2  0  0  0  0  0  0  0  0  0
   37.1930   26.5850   33.8390 C   0  0  0  0  0  0  0  0  0  0  0  0
   36.8020   25.8930   32.6350 N   0  0  0  0  0  0  0  0  0  0  0  0
   36.0640   25.1990   31.6260 C   0  0  0  0  0  0  0  0  0  0  0  0
   34.8630   24.9480   31.3640 O   0  0  0  0  0  0  0  0  0  0  0  0
   37.2510   24.8030   30.8770 C   0  0  1  0  0  0  0  0  0  0  0  0
   37.9500   25.7930   31.7750 C   0  0  2  0  0  0  0  0  0  0  0  0
   39.0980   25.0520   32.9820 S   0  0  0  0  0  0  0  0  0  0  0  0
   37.4970   27.6090   33.5200 H   0  0  0  0  0  0  0  0  0  0  0  0
   36.3470   26.6630   34.5190 H   0  0  0  0  0  0  0  0  0  0  0  0
   37.2920   25.1250   29.8200 H   0  0  0  0  0  0  0  0  0  0  0  0
   38.3050   26.7290   31.3020 H   0  0  0  0  0  0  0  0  0  0  0  0
   38.0620   24.9630   35.5640 C   0  0  0  0  0  0  0  0  0  0  0  0
   37.5630   25.5150   36.3540 H   0  0  0  0  0  0  0  0  0  0  0  0
   37.2760   24.2500   35.1510 H   0  0  0  0  0  0  0  0  0  0  0  0
   38.9280   24.3570   35.8120 H   0  0  0  0  0  0  0  0  0  0  0  0
   39.4140   26.9490   34.8320 C   0  0  0  0  0  0  0  0  0  0  0  0
   39.5060   27.0160   35.9410 H   0  0  0  0  0  0  0  0  0  0  0  0
   39.0960   27.9580   34.4590 H   0  0  0  0  0  0  0  0  0  0  0  0
   41.2570   24.8220   35.6500 F   0  0  0  0  0  0  0  0  0  0  0  0
   41.6040   25.6120   34.6200 C   0  0  0  0  0  0  0  0  0  0  0  0
   40.7340   26.6170   34.2770 C   0  0  0  0  0  0  0  0  0  0  0  0
   41.1860   27.4100   33.2160 C   0  0  0  0  0  0  0  0  0  0  0  0
   40.6320   28.2430   32.8170 H   0  0  0  0  0  0  0  0  0  0  0  0
   42.4050   27.1770   32.5930 C   0  0  0  0  0  0  0  0  0  0  0  0
   42.7510   27.8030   31.7640 H   0  0  0  0  0  0  0  0  0  0  0  0
   43.2300   26.1500   32.9860 C   0  0  0  0  0  3  0  0  0  0  0  0
   42.8040   25.3680   34.0180 C   0  0  0  0  0  3  0  0  0  0  0  0
   37.6570   23.3920   30.9920 C   0  0  0  0  0  0  0  0  0  0  0  0
   38.7610   23.1320   30.4360 O   0  0  0  0  0  0  0  0  0  0  0  0
   36.8640   22.4060   31.6810 C   0  0  0  0  0  0  0  0  0  0  0  0
   37.1960   22.1350   33.0000 C   0  0  0  0  0  0  0  0  0  0  0  0
   36.4230   21.1640   33.6880 C   0  0  0  0  0  0  0  0  0  0  0  0
   35.3950   20.5570   33.0040 N   0  0  0  0  0  0  0  0  0  0  0  0
   35.1220   20.8570   31.7420 C   0  0  0  0  0  0  0  0  0  0  0  0
   35.8440   21.7740   31.0720 N   0  0  0  0  0  0  0  0  0  0  0  0
   38.0130   22.6200   33.5410 H   0  0  0  0  0  0  0  0  0  0  0  0
   36.7080   20.9760   34.7160 H   0  0  0  0  0  0  0  0  0  0  0  0
   34.2950   20.3300   31.2780 H   0  0  0  0  0  0  0  0  0  0  0  0
  1 17  1  1  0  0  0
  1 13  1  0  0  0  0
  2  1  1  0  0  0  0
  2 10  1  0  0  0  0
  3  2  1  0  0  0  0
  4  3  1  0  0  0  0
  5  4  2  0  0  0  0
  6 11  1  6  0  0  0
  6 29  1  0  0  0  0
  6  4  1  0  0  0  0
  6  7  1  0  0  0  0
  7 12  1  6  0  0  0
  7  3  1  0  0  0  0
  7  8  1  0  0  0  0
  8  1  1  0  0  0  0
  9  2  1  0  0  0  0
 13 16  1  0  0  0  0
 13 14  1  0  0  0  0
 15 13  1  0  0  0  0
 17 18  1  0  0  0  0
 19 17  1  0  0  0  0
 21 20  1  0  0  0  0
 22 21  1  0  0  0  0
 22 17  1  0  0  0  0
 23 22  2  0  0  0  0
 24 23  1  0  0  0  0
 25 27  2  0  0  0  0
 25 23  1  0  0  0  0
 26 25  1  0  0  0  0
 27 28  1  0  0  0  0
 28 21  2  0  0  0  0
 29 31  1  0  0  0  0
 30 29  2  0  0  0  0
 31 32  1  0  0  0  0
 32 37  1  0  0  0  0
 32 33  2  0  0  0  0
 33 38  1  0  0  0  0
 34 33  1  0  0  0  0
 35 34  2  0  0  0  0
 36 31  2  0  0  0  0
 36 35  1  0  0  0  0
 39 35  1  0  0  0  0
M  END
>  <minimizedAffinity>
-5.18623257

$$$$

 OpenBabel03262522043D

 39 42  0  0  1  0  0  0  0  0999 V2000
   39.3610   26.2490   34.4360 C   0  0  2  0  0  0  0  0  0  0  0  0
   40.1950   26.7780   33.3010 C   0  0  0  0  0  0  0  0  0  0  0  0
   39.3400   27.0540   32.1730 N   0  0  0  0  0  0  0  0  0  0  0  0
   38.6640   27.6840   31.0810 C   0  0  0  0  0  0  0  0  0  0  0  0
   38.7750   28.7330   30.4040 O   0  0  0  0  0  0  0  0  0  0  0  0
   37.6660   26.6270   30.9490 C   0  0  1  0  0  0  0  0  0  0  0  0
   38.5810   25.8680   31.8760 C   0  0  2  0  0  0  0  0  0  0  0  0
   37.9100   25.5810   33.5470 S   0  0  0  0  0  0  0  0  0  0  0  0
   40.8930   25.9750   32.9680 H   0  0  0  0  0  0  0  0  0  0  0  0
   40.7720   27.6630   33.5610 H   0  0  0  0  0  0  0  0  0  0  0  0
   37.6020   26.1360   29.9610 H   0  0  0  0  0  0  0  0  0  0  0  0
   39.1360   25.0150   31.4400 H   0  0  0  0  0  0  0  0  0  0  0  0
   39.0060   27.2690   35.4710 C   0  0  0  0  0  0  0  0  0  0  0  0
   39.9160   27.6840   35.8910 H   0  0  0  0  0  0  0  0  0  0  0  0
   38.5180   28.1250   34.9000 H   0  0  0  0  0  0  0  0  0  0  0  0
   38.2490   26.8750   36.1420 H   0  0  0  0  0  0  0  0  0  0  0  0
   40.0600   25.0320   35.0300 C   0  0  0  0  0  0  0  0  0  0  0  0
   40.6370   25.3150   35.9410 H   0  0  0  0  0  0  0  0  0  0  0  0
   40.7870   24.6050   34.2910 H   0  0  0  0  0  0  0  0  0  0  0  0
   38.3410   24.9200   37.4010 F   0  0  0  0  0  0  0  0  0  0  0  0
   38.2420   23.9390   36.4880 C   0  0  0  0  0  0  0  0  0  0  0  0
   39.0800   24.0030   35.4010 C   0  0  0  0  0  0  0  0  0  0  0  0
   38.9330   22.9260   34.5190 C   0  0  0  0  0  0  0  0  0  0  0  0
   39.5090   22.8140   33.6150 H   0  0  0  0  0  0  0  0  0  0  0  0
   38.0200   21.9060   34.7500 C   0  0  0  0  0  0  0  0  0  0  0  0
   37.9130   21.0680   34.0530 H   0  0  0  0  0  0  0  0  0  0  0  0
   37.2090   21.9030   35.8600 C   0  0  0  0  0  3  0  0  0  0  0  0
   37.3390   22.9450   36.7300 C   0  0  0  0  0  3  0  0  0  0  0  0
   36.3150   26.9380   31.4470 C   0  0  0  0  0  0  0  0  0  0  0  0
   35.5180   25.9580   31.4030 O   0  0  0  0  0  0  0  0  0  0  0  0
   35.9460   28.2390   31.9430 C   0  0  0  0  0  0  0  0  0  0  0  0
   35.9860   28.4300   33.3160 C   0  0  0  0  0  0  0  0  0  0  0  0
   35.6230   29.7080   33.8140 C   0  0  0  0  0  0  0  0  0  0  0  0
   35.2570   30.6740   32.9060 N   0  0  0  0  0  0  0  0  0  0  0  0
   35.2380   30.4350   31.6020 C   0  0  0  0  0  0  0  0  0  0  0  0
   35.5790   29.2300   31.1090 N   0  0  0  0  0  0  0  0  0  0  0  0
   36.2770   27.6600   34.0350 H   0  0  0  0  0  0  0  0  0  0  0  0
   35.6640   29.8230   34.8910 H   0  0  0  0  0  0  0  0  0  0  0  0
   34.9370   31.2530   30.9550 H   0  0  0  0  0  0  0  0  0  0  0  0
  1 17  1  1  0  0  0
  1 13  1  0  0  0  0
  2 10  1  0  0  0  0
  2  1  1  0  0  0  0
  3  2  1  0  0  0  0
  4  3  1  0  0  0  0
  5  4  2  0  0  0  0
  6 11  1  6  0  0  0
  6  4  1  0  0  0  0
  6 29  1  0  0  0  0
  6  7  1  0  0  0  0
  7 12  1  6  0  0  0
  7  3  1  0  0  0  0
  7  8  1  0  0  0  0
  8  1  1  0  0  0  0
  9  2  1  0  0  0  0
 13 14  1  0  0  0  0
 13 16  1  0  0  0  0
 15 13  1  0  0  0  0
 17 22  1  0  0  0  0
 17 18  1  0  0  0  0
 19 17  1  0  0  0  0
 21 28  1  0  0  0  0
 21 20  1  0  0  0  0
 22 21  2  0  0  0  0
 23 25  2  0  0  0  0
 23 22  1  0  0  0  0
 24 23  1  0  0  0  0
 25 27  1  0  0  0  0
 26 25  1  0  0  0  0
 27 28  2  0  0  0  0
 29 31  1  0  0  0  0
 30 29  2  0  0  0  0
 31 32  1  0  0  0  0
 32 33  2  0  0  0  0
 32 37  1  0  0  0  0
 33 38  1  0  0  0  0
 34 33  1  0  0  0  0
 35 34  2  0  0  0  0
 36 35  1  0  0  0  0
 36 31  2  0  0  0  0
 39 35  1  0  0  0  0
M  END
>  <minimizedAffinity>
-5.18546677

$$$$
