
 OpenBabel03262521513D

 19 20  0  0  0  0  0  0  0  0999 V2000
   38.5210   23.2830   33.8240 S   0  0  0  0  0  0  0  0  0  0  0  0
   38.6500   23.2970   35.6000 C   0  0  0  0  0  0  0  0  0  0  0  0
   39.8120   22.6670   36.0840 C   0  0  0  0  0  0  0  0  0  0  0  0
   40.0210   22.6170   37.4530 C   0  0  0  0  0  0  0  0  0  0  0  0
   39.0900   23.1800   38.2780 N   0  0  0  0  0  0  0  0  0  0  0  0
   37.9830   23.7770   37.7790 C   0  0  0  0  0  0  0  0  0  0  0  0
   37.7710   23.8320   36.4470 N   0  0  0  0  0  0  0  0  0  0  0  0
   40.5940   22.2000   35.4920 H   0  0  0  0  0  0  0  0  0  0  0  0
   40.8720   22.1600   37.9000 H   0  0  0  0  0  0  0  0  0  0  0  0
   37.2170   24.2370   38.3890 H   0  0  0  0  0  0  0  0  0  0  0  0
   37.0690   23.4220   31.2720 F   0  0  0  0  0  0  0  0  0  0  0  0
   36.6280   22.4560   32.1410 C   0  0  0  0  0  0  0  0  0  0  0  0
   37.1590   22.2060   33.4010 C   0  0  0  0  0  0  0  0  0  0  0  0
   36.6240   21.2010   34.1810 C   0  0  0  0  0  0  0  0  0  0  0  0
   37.0930   21.0750   35.1360 H   0  0  0  0  0  0  0  0  0  0  0  0
   35.5650   20.4500   33.7120 C   0  0  0  0  0  0  0  0  0  0  0  0
   35.1790   19.6660   34.3720 H   0  0  0  0  0  0  0  0  0  0  0  0
   35.0370   20.7090   32.4440 C   0  0  0  0  0  3  0  0  0  0  0  0
   35.5650   21.7140   31.6480 C   0  0  0  0  0  3  0  0  0  0  0  0
  1  2  1  0  0  0  0
  2  3  2  0  0  0  0
  2  7  1  0  0  0  0
  3  4  1  0  0  0  0
  4  9  1  0  0  0  0
  4  5  2  0  0  0  0
  6  5  1  0  0  0  0
  6 10  1  0  0  0  0
  7  6  2  0  0  0  0
  8  3  1  0  0  0  0
 11 12  1  0  0  0  0
 12 13  1  0  0  0  0
 13  1  1  0  0  0  0
 13 14  2  0  0  0  0
 14 15  1  0  0  0  0
 16 14  1  0  0  0  0
 16 17  1  0  0  0  0
 18 16  2  0  0  0  0
 19 12  2  0  0  0  0
 19 18  1  0  0  0  0
M  END
>  <minimizedAffinity>
-4.22251511

$$$$

 OpenBabel03262521513D

 19 20  0  0  0  0  0  0  0  0999 V2000
   39.1860   24.1850   34.0270 S   0  0  0  0  0  0  0  0  0  0  0  0
   37.8070   23.3440   33.2760 C   0  0  0  0  0  0  0  0  0  0  0  0
   37.5760   22.0600   33.8050 C   0  0  0  0  0  0  0  0  0  0  0  0
   36.5280   21.3100   33.2980 C   0  0  0  0  0  0  0  0  0  0  0  0
   35.7610   21.8460   32.3040 N   0  0  0  0  0  0  0  0  0  0  0  0
   36.0110   23.0830   31.8170 C   0  0  0  0  0  0  0  0  0  0  0  0
   37.0300   23.8220   32.3060 N   0  0  0  0  0  0  0  0  0  0  0  0
   38.1410   21.5700   34.5930 H   0  0  0  0  0  0  0  0  0  0  0  0
   36.2860   20.3320   33.6430 H   0  0  0  0  0  0  0  0  0  0  0  0
   35.4340   23.5530   31.0310 H   0  0  0  0  0  0  0  0  0  0  0  0
   37.2610   25.3740   35.9040 F   0  0  0  0  0  0  0  0  0  0  0  0
   38.1510   24.4910   36.4630 C   0  0  0  0  0  0  0  0  0  0  0  0
   39.1470   23.8100   35.7740 C   0  0  0  0  0  0  0  0  0  0  0  0
   39.9790   22.9450   36.4550 C   0  0  0  0  0  0  0  0  0  0  0  0
   40.7190   22.4620   35.8470 H   0  0  0  0  0  0  0  0  0  0  0  0
   39.8240   22.7600   37.8130 C   0  0  0  0  0  0  0  0  0  0  0  0
   40.5120   22.0640   38.3040 H   0  0  0  0  0  0  0  0  0  0  0  0
   38.8190   23.4500   38.4980 C   0  0  0  0  0  3  0  0  0  0  0  0
   37.9740   24.3210   37.8280 C   0  0  0  0  0  3  0  0  0  0  0  0
  1 13  1  0  0  0  0
  2  3  1  0  0  0  0
  2  1  1  0  0  0  0
  3  8  1  0  0  0  0
  4  9  1  0  0  0  0
  4  3  2  0  0  0  0
  5  4  1  0  0  0  0
  6  5  2  0  0  0  0
  6  7  1  0  0  0  0
  7  2  2  0  0  0  0
 10  6  1  0  0  0  0
 11 12  1  0  0  0  0
 12 19  1  0  0  0  0
 13 14  1  0  0  0  0
 13 12  2  0  0  0  0
 14 16  2  0  0  0  0
 15 14  1  0  0  0  0
 16 17  1  0  0  0  0
 16 18  1  0  0  0  0
 19 18  2  0  0  0  0
M  END
>  <minimizedAffinity>
-4.17843246

$$$$

 OpenBabel03262521513D

 19 20  0  0  0  0  0  0  0  0999 V2000
   39.1450   24.7320   33.9450 S   0  0  0  0  0  0  0  0  0  0  0  0
   37.7950   23.9600   33.0770 C   0  0  0  0  0  0  0  0  0  0  0  0
   37.0030   24.8680   32.3480 C   0  0  0  0  0  0  0  0  0  0  0  0
   35.9220   24.3810   31.6310 C   0  0  0  0  0  0  0  0  0  0  0  0
   35.6670   23.0400   31.6610 N   0  0  0  0  0  0  0  0  0  0  0  0
   36.4480   22.1950   32.3740 C   0  0  0  0  0  0  0  0  0  0  0  0
   37.5040   22.6600   33.0740 N   0  0  0  0  0  0  0  0  0  0  0  0
   37.1440   25.9430   32.2760 H   0  0  0  0  0  0  0  0  0  0  0  0
   35.2740   25.0000   31.0540 H   0  0  0  0  0  0  0  0  0  0  0  0
   36.2890   21.1270   32.4300 H   0  0  0  0  0  0  0  0  0  0  0  0
   37.2040   25.6130   35.9690 F   0  0  0  0  0  0  0  0  0  0  0  0
   38.1100   24.6770   36.3990 C   0  0  0  0  0  0  0  0  0  0  0  0
   39.1160   24.1160   35.6230 C   0  0  0  0  0  0  0  0  0  0  0  0
   39.9650   23.1790   36.1760 C   0  0  0  0  0  0  0  0  0  0  0  0
   40.7120   22.7990   35.5080 H   0  0  0  0  0  0  0  0  0  0  0  0
   39.8160   22.8040   37.4950 C   0  0  0  0  0  0  0  0  0  0  0  0
   40.5170   22.0580   37.8850 H   0  0  0  0  0  0  0  0  0  0  0  0
   38.8010   23.3740   38.2700 C   0  0  0  0  0  3  0  0  0  0  0  0
   37.9390   24.3140   37.7270 C   0  0  0  0  0  3  0  0  0  0  0  0
  1 13  1  0  0  0  0
  2  1  1  0  0  0  0
  3  2  2  0  0  0  0
  4  5  2  0  0  0  0
  4  3  1  0  0  0  0
  5  6  1  0  0  0  0
  6 10  1  0  0  0  0
  6  7  2  0  0  0  0
  7  2  1  0  0  0  0
  8  3  1  0  0  0  0
  9  4  1  0  0  0  0
 11 12  1  0  0  0  0
 12 19  1  0  0  0  0
 13 14  1  0  0  0  0
 13 12  2  0  0  0  0
 14 16  2  0  0  0  0
 15 14  1  0  0  0  0
 16 17  1  0  0  0  0
 16 18  1  0  0  0  0
 19 18  2  0  0  0  0
M  END
>  <minimizedAffinity>
-4.1719389

$$$$

 OpenBabel03262521513D

 19 20  0  0  0  0  0  0  0  0999 V2000
   38.9560   23.4990   33.9180 S   0  0  0  0  0  0  0  0  0  0  0  0
   37.4870   22.6940   33.3110 C   0  0  0  0  0  0  0  0  0  0  0  0
   37.0930   21.5850   34.0840 C   0  0  0  0  0  0  0  0  0  0  0  0
   35.9620   20.8800   33.7080 C   0  0  0  0  0  0  0  0  0  0  0  0
   35.2750   21.2870   32.6000 N   0  0  0  0  0  0  0  0  0  0  0  0
   35.6820   22.3570   31.8790 C   0  0  0  0  0  0  0  0  0  0  0  0
   36.7830   23.0510   32.2380 N   0  0  0  0  0  0  0  0  0  0  0  0
   37.5870   21.2040   34.9740 H   0  0  0  0  0  0  0  0  0  0  0  0
   35.5970   20.0310   34.2380 H   0  0  0  0  0  0  0  0  0  0  0  0
   35.1740   22.7200   30.9950 H   0  0  0  0  0  0  0  0  0  0  0  0
   40.7460   22.0240   35.7230 F   0  0  0  0  0  0  0  0  0  0  0  0
   39.7830   22.7780   36.3450 C   0  0  0  0  0  0  0  0  0  0  0  0
   38.8300   23.5560   35.7000 C   0  0  0  0  0  0  0  0  0  0  0  0
   37.9140   24.2710   36.4430 C   0  0  0  0  0  0  0  0  0  0  0  0
   37.2150   24.8440   35.8660 H   0  0  0  0  0  0  0  0  0  0  0  0
   37.9440   24.2130   37.8210 C   0  0  0  0  0  0  0  0  0  0  0  0
   37.1940   24.7990   38.3620 H   0  0  0  0  0  0  0  0  0  0  0  0
   38.9070   23.4280   38.4630 C   0  0  0  0  0  3  0  0  0  0  0  0
   39.8340   22.7050   37.7290 C   0  0  0  0  0  3  0  0  0  0  0  0
  1 13  1  0  0  0  0
  2  1  1  0  0  0  0
  2  3  1  0  0  0  0
  3  8  1  0  0  0  0
  4  3  2  0  0  0  0
  4  9  1  0  0  0  0
  5  4  1  0  0  0  0
  6  7  1  0  0  0  0
  6  5  2  0  0  0  0
  7  2  2  0  0  0  0
 10  6  1  0  0  0  0
 11 12  1  0  0  0  0
 12 19  1  0  0  0  0
 13 12  2  0  0  0  0
 13 14  1  0  0  0  0
 14 16  2  0  0  0  0
 15 14  1  0  0  0  0
 16 17  1  0  0  0  0
 16 18  1  0  0  0  0
 19 18  2  0  0  0  0
M  END
>  <minimizedAffinity>
-4.14745998

$$$$

 OpenBabel03262521513D

 19 20  0  0  0  0  0  0  0  0999 V2000
   38.7970   24.1050   34.0760 S   0  0  0  0  0  0  0  0  0  0  0  0
   37.6010   22.9810   33.3840 C   0  0  0  0  0  0  0  0  0  0  0  0
   36.9940   23.4590   32.2070 C   0  0  0  0  0  0  0  0  0  0  0  0
   36.0460   22.6690   31.5790 C   0  0  0  0  0  0  0  0  0  0  0  0
   35.7370   21.4570   32.1270 N   0  0  0  0  0  0  0  0  0  0  0  0
   36.3390   21.0280   33.2610 C   0  0  0  0  0  0  0  0  0  0  0  0
   37.2650   21.7910   33.8790 N   0  0  0  0  0  0  0  0  0  0  0  0
   37.1880   24.4080   31.7140 H   0  0  0  0  0  0  0  0  0  0  0  0
   35.5410   22.9560   30.6860 H   0  0  0  0  0  0  0  0  0  0  0  0
   36.1300   20.0770   33.7340 H   0  0  0  0  0  0  0  0  0  0  0  0
   40.6380   22.3790   35.5820 F   0  0  0  0  0  0  0  0  0  0  0  0
   39.7100   23.0440   36.3420 C   0  0  0  0  0  0  0  0  0  0  0  0
   38.7410   23.9110   35.8520 C   0  0  0  0  0  0  0  0  0  0  0  0
   37.8630   24.5200   36.7250 C   0  0  0  0  0  0  0  0  0  0  0  0
   37.1500   25.1730   36.2620 H   0  0  0  0  0  0  0  0  0  0  0  0
   37.9460   24.2670   38.0790 C   0  0  0  0  0  0  0  0  0  0  0  0
   37.2250   24.7760   38.7270 H   0  0  0  0  0  0  0  0  0  0  0  0
   38.9240   23.3930   38.5640 C   0  0  0  0  0  3  0  0  0  0  0  0
   39.8130   22.7750   37.6990 C   0  0  0  0  0  3  0  0  0  0  0  0
  1 13  1  0  0  0  0
  2  7  1  0  0  0  0
  2  1  1  0  0  0  0
  3  2  2  0  0  0  0
  4  5  2  0  0  0  0
  4  3  1  0  0  0  0
  5  6  1  0  0  0  0
  6 10  1  0  0  0  0
  6  7  2  0  0  0  0
  8  3  1  0  0  0  0
  9  4  1  0  0  0  0
 11 12  1  0  0  0  0
 12 19  1  0  0  0  0
 13 12  2  0  0  0  0
 13 14  1  0  0  0  0
 14 16  2  0  0  0  0
 15 14  1  0  0  0  0
 16 18  1  0  0  0  0
 16 17  1  0  0  0  0
 19 18  2  0  0  0  0
M  END
>  <minimizedAffinity>
-4.12156439

$$$$

 OpenBabel03262521513D

 19 20  0  0  0  0  0  0  0  0999 V2000
   38.1210   27.2480   31.4440 S   0  0  0  0  0  0  0  0  0  0  0  0
   36.8930   25.9850   31.1820 C   0  0  0  0  0  0  0  0  0  0  0  0
   37.4130   24.6780   31.2250 C   0  0  0  0  0  0  0  0  0  0  0  0
   36.5500   23.6120   31.0340 C   0  0  0  0  0  0  0  0  0  0  0  0
   35.2280   23.8720   30.8100 N   0  0  0  0  0  0  0  0  0  0  0  0
   34.7610   25.1410   30.7740 C   0  0  0  0  0  0  0  0  0  0  0  0
   35.5950   26.1870   30.9600 N   0  0  0  0  0  0  0  0  0  0  0  0
   38.4480   24.3950   31.3980 H   0  0  0  0  0  0  0  0  0  0  0  0
   36.8620   22.5940   31.0520 H   0  0  0  0  0  0  0  0  0  0  0  0
   33.7250   25.4000   30.6020 H   0  0  0  0  0  0  0  0  0  0  0  0
   36.3110   27.8890   33.6700 F   0  0  0  0  0  0  0  0  0  0  0  0
   37.5790   27.5160   34.0390 C   0  0  0  0  0  0  0  0  0  0  0  0
   38.6020   27.1700   33.1640 C   0  0  0  0  0  0  0  0  0  0  0  0
   39.8370   26.8110   33.6640 C   0  0  0  0  0  0  0  0  0  0  0  0
   40.5660   26.5590   32.9200 H   0  0  0  0  0  0  0  0  0  0  0  0
   40.0560   26.7980   35.0260 C   0  0  0  0  0  0  0  0  0  0  0  0
   41.0540   26.5070   35.3690 H   0  0  0  0  0  0  0  0  0  0  0  0
   39.0210   27.1490   35.8990 C   0  0  0  0  0  3  0  0  0  0  0  0
   37.7750   27.5100   35.4120 C   0  0  0  0  0  3  0  0  0  0  0  0
  1 13  1  0  0  0  0
  2  3  1  0  0  0  0
  2  1  1  0  0  0  0
  3  8  1  0  0  0  0
  4  9  1  0  0  0  0
  4  3  2  0  0  0  0
  5  4  1  0  0  0  0
  6  5  2  0  0  0  0
  6  7  1  0  0  0  0
  7  2  2  0  0  0  0
 10  6  1  0  0  0  0
 11 12  1  0  0  0  0
 12 19  1  0  0  0  0
 13 14  1  0  0  0  0
 13 12  2  0  0  0  0
 14 16  2  0  0  0  0
 15 14  1  0  0  0  0
 16 17  1  0  0  0  0
 16 18  1  0  0  0  0
 19 18  2  0  0  0  0
M  END
>  <minimizedAffinity>
-4.0742588

$$$$

 OpenBabel03262521513D

 19 20  0  0  0  0  0  0  0  0999 V2000
   39.1630   22.0440   33.9230 S   0  0  0  0  0  0  0  0  0  0  0  0
   38.9490   22.5350   35.6220 C   0  0  0  0  0  0  0  0  0  0  0  0
   40.1050   22.3630   36.4070 C   0  0  0  0  0  0  0  0  0  0  0  0
   40.0570   22.7120   37.7460 C   0  0  0  0  0  0  0  0  0  0  0  0
   38.8900   23.2090   38.2530 N   0  0  0  0  0  0  0  0  0  0  0  0
   37.7970   23.3610   37.4700 C   0  0  0  0  0  0  0  0  0  0  0  0
   37.8340   23.0240   36.1630 N   0  0  0  0  0  0  0  0  0  0  0  0
   41.0640   21.9760   36.0750 H   0  0  0  0  0  0  0  0  0  0  0  0
   40.8860   22.6140   38.4080 H   0  0  0  0  0  0  0  0  0  0  0  0
   36.8510   23.7500   37.8210 H   0  0  0  0  0  0  0  0  0  0  0  0
   36.8910   20.4970   32.8820 F   0  0  0  0  0  0  0  0  0  0  0  0
   36.8580   21.8400   32.6030 C   0  0  0  0  0  0  0  0  0  0  0  0
   37.8190   22.7650   32.9900 C   0  0  0  0  0  0  0  0  0  0  0  0
   37.6680   24.0930   32.6460 C   0  0  0  0  0  0  0  0  0  0  0  0
   38.4540   24.7370   32.9850 H   0  0  0  0  0  0  0  0  0  0  0  0
   36.5690   24.4990   31.9180 C   0  0  0  0  0  0  0  0  0  0  0  0
   36.4990   25.5620   31.6700 H   0  0  0  0  0  0  0  0  0  0  0  0
   35.6070   23.5600   31.5320 C   0  0  0  0  0  3  0  0  0  0  0  0
   35.7440   22.2240   31.8720 C   0  0  0  0  0  3  0  0  0  0  0  0
  1  2  1  0  0  0  0
  2  7  2  0  0  0  0
  2  3  1  0  0  0  0
  3  4  2  0  0  0  0
  4  5  1  0  0  0  0
  4  9  1  0  0  0  0
  6 10  1  0  0  0  0
  6  5  2  0  0  0  0
  7  6  1  0  0  0  0
  8  3  1  0  0  0  0
 12 11  1  0  0  0  0
 12 13  1  0  0  0  0
 13  1  1  0  0  0  0
 14 15  1  0  0  0  0
 14 13  2  0  0  0  0
 16 14  1  0  0  0  0
 17 16  1  0  0  0  0
 18 19  1  0  0  0  0
 18 16  2  0  0  0  0
 19 12  2  0  0  0  0
M  END
>  <minimizedAffinity>
-4.02607727

$$$$

 OpenBabel03262521513D

 19 20  0  0  0  0  0  0  0  0999 V2000
   38.8410   25.2800   33.2500 S   0  0  0  0  0  0  0  0  0  0  0  0
   38.6390   24.3200   34.7370 C   0  0  0  0  0  0  0  0  0  0  0  0
   38.0320   25.0330   35.7880 C   0  0  0  0  0  0  0  0  0  0  0  0
   37.8220   24.3870   36.9960 C   0  0  0  0  0  0  0  0  0  0  0  0
   38.2150   23.0850   37.1190 N   0  0  0  0  0  0  0  0  0  0  0  0
   38.7970   22.4300   36.0880 C   0  0  0  0  0  0  0  0  0  0  0  0
   39.0040   23.0510   34.9070 N   0  0  0  0  0  0  0  0  0  0  0  0
   37.6940   26.0650   35.7640 H   0  0  0  0  0  0  0  0  0  0  0  0
   37.3700   24.8540   37.8400 H   0  0  0  0  0  0  0  0  0  0  0  0
   39.1250   21.4000   36.1340 H   0  0  0  0  0  0  0  0  0  0  0  0
   37.2990   27.6020   32.3170 F   0  0  0  0  0  0  0  0  0  0  0  0
   36.7670   26.3800   31.9920 C   0  0  0  0  0  0  0  0  0  0  0  0
   37.3180   25.1490   32.3250 C   0  0  0  0  0  0  0  0  0  0  0  0
   36.6830   23.9870   31.9350 C   0  0  0  0  0  0  0  0  0  0  0  0
   37.1760   23.0840   32.2330 H   0  0  0  0  0  0  0  0  0  0  0  0
   35.5050   24.0490   31.2200 C   0  0  0  0  0  0  0  0  0  0  0  0
   35.0420   23.0980   30.9370 H   0  0  0  0  0  0  0  0  0  0  0  0
   34.9570   25.2920   30.8890 C   0  0  0  0  0  3  0  0  0  0  0  0
   35.5840   26.4670   31.2720 C   0  0  0  0  0  3  0  0  0  0  0  0
  1  2  1  0  0  0  0
  2  7  2  0  0  0  0
  2  3  1  0  0  0  0
  3  4  2  0  0  0  0
  4  5  1  0  0  0  0
  4  9  1  0  0  0  0
  6 10  1  0  0  0  0
  6  5  2  0  0  0  0
  7  6  1  0  0  0  0
  8  3  1  0  0  0  0
 12 11  1  0  0  0  0
 12 13  1  0  0  0  0
 13  1  1  0  0  0  0
 14 15  1  0  0  0  0
 14 13  2  0  0  0  0
 16 14  1  0  0  0  0
 17 16  1  0  0  0  0
 18 16  2  0  0  0  0
 18 19  1  0  0  0  0
 19 12  2  0  0  0  0
M  END
>  <minimizedAffinity>
-3.98840857

$$$$

 OpenBabel03262521513D

 19 20  0  0  0  0  0  0  0  0999 V2000
   37.7010   22.8710   32.7230 S   0  0  0  0  0  0  0  0  0  0  0  0
   36.7070   24.2080   32.0920 C   0  0  0  0  0  0  0  0  0  0  0  0
   37.1950   25.4830   32.4360 C   0  0  0  0  0  0  0  0  0  0  0  0
   36.5030   26.6000   31.9990 C   0  0  0  0  0  0  0  0  0  0  0  0
   35.3740   26.4200   31.2520 N   0  0  0  0  0  0  0  0  0  0  0  0
   34.9320   25.1800   30.9400 C   0  0  0  0  0  0  0  0  0  0  0  0
   35.6000   24.0850   31.3600 N   0  0  0  0  0  0  0  0  0  0  0  0
   38.0820   25.7030   33.0230 H   0  0  0  0  0  0  0  0  0  0  0  0
   36.8050   27.5980   32.2150 H   0  0  0  0  0  0  0  0  0  0  0  0
   34.0450   24.9840   30.3520 H   0  0  0  0  0  0  0  0  0  0  0  0
   37.5740   21.2840   30.2520 F   0  0  0  0  0  0  0  0  0  0  0  0
   36.8330   20.7940   31.2980 C   0  0  0  0  0  0  0  0  0  0  0  0
   36.7400   21.3730   32.5580 C   0  0  0  0  0  0  0  0  0  0  0  0
   35.9580   20.7790   33.5270 C   0  0  0  0  0  0  0  0  0  0  0  0
   35.9430   21.2910   34.4690 H   0  0  0  0  0  0  0  0  0  0  0  0
   35.2710   19.6160   33.2460 C   0  0  0  0  0  0  0  0  0  0  0  0
   34.6650   19.1870   34.0500 H   0  0  0  0  0  0  0  0  0  0  0  0
   35.3710   19.0400   31.9750 C   0  0  0  0  0  3  0  0  0  0  0  0
   36.1530   19.6250   30.9920 C   0  0  0  0  0  3  0  0  0  0  0  0
  2  3  1  0  0  0  0
  2  1  1  0  0  0  0
  3  8  1  0  0  0  0
  4  9  1  0  0  0  0
  4  3  2  0  0  0  0
  5  4  1  0  0  0  0
  6  5  2  0  0  0  0
  6  7  1  0  0  0  0
  7  2  2  0  0  0  0
 10  6  1  0  0  0  0
 11 12  1  0  0  0  0
 12 13  1  0  0  0  0
 13  1  1  0  0  0  0
 13 14  2  0  0  0  0
 14 15  1  0  0  0  0
 16 14  1  0  0  0  0
 16 17  1  0  0  0  0
 18 16  2  0  0  0  0
 19 12  2  0  0  0  0
 19 18  1  0  0  0  0
M  END
>  <minimizedAffinity>
-3.93898773

$$$$
