
 OpenBabel03262522203D

 19 20  0  0  0  0  0  0  0  0999 V2000
   38.3270   21.6630   34.4930 O   0  0  0  0  0  0  0  0  0  0  0  0
   39.6820   22.2390   36.3080 C   0  0  0  0  0  0  0  0  0  0  0  0
   38.3920   22.2260   35.7390 C   0  0  0  0  0  0  0  0  0  0  0  0
   37.3460   22.7740   36.4870 C   0  0  0  0  0  0  0  0  0  0  0  0
   37.6220   23.2840   37.7060 N   0  0  0  0  0  0  0  0  0  0  0  0
   38.8650   23.2850   38.2290 C   0  0  0  0  0  0  0  0  0  0  0  0
   39.9090   22.7650   37.5420 N   0  0  0  0  0  0  0  0  0  0  0  0
   40.5560   21.8450   35.8240 H   0  0  0  0  0  0  0  0  0  0  0  0
   36.3990   22.7420   36.0220 H   0  0  0  0  0  0  0  0  0  0  0  0
   39.0360   23.6990   39.1980 H   0  0  0  0  0  0  0  0  0  0  0  0
   35.8890   20.2710   34.3430 F   0  0  0  0  0  0  0  0  0  0  0  0
   36.1010   21.2350   33.4200 C   0  0  0  0  0  0  0  0  0  0  0  0
   37.3190   21.8690   33.5630 C   0  0  0  0  0  0  0  0  0  0  0  0
   37.6600   22.8870   32.6710 C   0  0  0  0  0  0  0  0  0  0  0  0
   38.5950   23.4630   32.6800 H   0  0  0  0  0  0  0  0  0  0  0  0
   36.8270   23.2820   31.6530 C   0  0  0  0  0  0  0  0  0  0  0  0
   37.0540   24.0650   30.9410 H   0  0  0  0  0  0  0  0  0  0  0  0
   35.6070   22.6320   31.5260 C   0  0  0  0  0  3  0  0  0  0  0  0
   35.2520   21.6180   32.4050 C   0  0  0  0  0  3  0  0  0  0  0  0
  1  3  1  0  0  0  0
  2  7  1  0  0  0  0
  3  2  2  0  0  0  0
  3  4  1  0  0  0  0
  4  5  2  0  0  0  0
  5  6  1  0  0  0  0
  6 10  1  0  0  0  0
  7  6  2  0  0  0  0
  8  2  1  0  0  0  0
  9  4  1  0  0  0  0
 12 13  1  0  0  0  0
 12 11  1  0  0  0  0
 13  1  1  0  0  0  0
 14 15  1  0  0  0  0
 14 13  2  0  0  0  0
 16 14  1  0  0  0  0
 17 16  1  0  0  0  0
 18 16  2  0  0  0  0
 18 19  1  0  0  0  0
 19 12  2  0  0  0  0
M  END
>  <minimizedAffinity>
-4.22746897

$$$$

 OpenBabel03262522203D

 19 20  0  0  0  0  0  0  0  0999 V2000
   38.8860   24.9620   34.7230 O   0  0  0  0  0  0  0  0  0  0  0  0
   37.3020   25.7070   33.1730 C   0  0  0  0  0  0  0  0  0  0  0  0
   38.0210   24.6230   33.7170 C   0  0  0  0  0  0  0  0  0  0  0  0
   37.7800   23.3520   33.1880 C   0  0  0  0  0  0  0  0  0  0  0  0
   36.8790   23.2290   32.1890 N   0  0  0  0  0  0  0  0  0  0  0  0
   36.2040   24.2820   31.6860 C   0  0  0  0  0  0  0  0  0  0  0  0
   36.4040   25.5310   32.1670 N   0  0  0  0  0  0  0  0  0  0  0  0
   37.4080   26.7240   33.5040 H   0  0  0  0  0  0  0  0  0  0  0  0
   38.3390   22.5720   33.6250 H   0  0  0  0  0  0  0  0  0  0  0  0
   35.5010   24.1370   30.8960 H   0  0  0  0  0  0  0  0  0  0  0  0
   40.7690   22.9820   35.3810 F   0  0  0  0  0  0  0  0  0  0  0  0
   39.8920   23.3360   36.3460 C   0  0  0  0  0  0  0  0  0  0  0  0
   39.0030   24.3130   35.9430 C   0  0  0  0  0  0  0  0  0  0  0  0
   38.0430   24.7690   36.8480 C   0  0  0  0  0  0  0  0  0  0  0  0
   37.2840   25.5370   36.6470 H   0  0  0  0  0  0  0  0  0  0  0  0
   37.9490   24.2810   38.1290 C   0  0  0  0  0  0  0  0  0  0  0  0
   37.2210   24.6070   38.8590 H   0  0  0  0  0  0  0  0  0  0  0  0
   38.8520   23.2990   38.5140 C   0  0  0  0  0  3  0  0  0  0  0  0
   39.8140   22.8350   37.6270 C   0  0  0  0  0  3  0  0  0  0  0  0
  1 13  1  0  0  0  0
  2  8  1  0  0  0  0
  2  3  1  0  0  0  0
  3  1  1  0  0  0  0
  4  9  1  0  0  0  0
  4  3  2  0  0  0  0
  5  4  1  0  0  0  0
  6  7  1  0  0  0  0
  6  5  2  0  0  0  0
  7  2  2  0  0  0  0
 10  6  1  0  0  0  0
 11 12  1  0  0  0  0
 12 19  1  0  0  0  0
 13 12  2  0  0  0  0
 13 14  1  0  0  0  0
 14 16  2  0  0  0  0
 15 14  1  0  0  0  0
 16 18  1  0  0  0  0
 16 17  1  0  0  0  0
 19 18  2  0  0  0  0
M  END
>  <minimizedAffinity>
-4.16267014

$$$$

 OpenBabel03262522203D

 19 20  0  0  0  0  0  0  0  0999 V2000
   38.9080   24.1710   34.3680 O   0  0  0  0  0  0  0  0  0  0  0  0
   37.3760   24.9750   32.7960 C   0  0  0  0  0  0  0  0  0  0  0  0
   37.9390   23.8600   33.4520 C   0  0  0  0  0  0  0  0  0  0  0  0
   37.4610   22.5930   33.1070 C   0  0  0  0  0  0  0  0  0  0  0  0
   36.4930   22.5020   32.1700 N   0  0  0  0  0  0  0  0  0  0  0  0
   35.9700   23.5830   31.5570 C   0  0  0  0  0  0  0  0  0  0  0  0
   36.4020   24.8300   31.8590 N   0  0  0  0  0  0  0  0  0  0  0  0
   37.6680   25.9920   32.9830 H   0  0  0  0  0  0  0  0  0  0  0  0
   37.9100   21.7900   33.6230 H   0  0  0  0  0  0  0  0  0  0  0  0
   35.2050   23.4620   30.8220 H   0  0  0  0  0  0  0  0  0  0  0  0
   37.1470   25.5610   36.0620 F   0  0  0  0  0  0  0  0  0  0  0  0
   37.9680   24.6580   36.6420 C   0  0  0  0  0  0  0  0  0  0  0  0
   38.8000   24.0200   35.7430 C   0  0  0  0  0  0  0  0  0  0  0  0
   39.6990   23.0620   36.2150 C   0  0  0  0  0  0  0  0  0  0  0  0
   40.4080   22.4900   35.6020 H   0  0  0  0  0  0  0  0  0  0  0  0
   39.7870   22.7290   37.5440 C   0  0  0  0  0  0  0  0  0  0  0  0
   40.4690   21.9940   37.9500 H   0  0  0  0  0  0  0  0  0  0  0  0
   38.9430   23.3820   38.4320 C   0  0  0  0  0  3  0  0  0  0  0  0
   38.0420   24.3360   37.9790 C   0  0  0  0  0  3  0  0  0  0  0  0
  1 13  1  0  0  0  0
  2  8  1  0  0  0  0
  2  3  1  0  0  0  0
  3  1  1  0  0  0  0
  4  3  2  0  0  0  0
  4  9  1  0  0  0  0
  5  4  1  0  0  0  0
  6  7  1  0  0  0  0
  6  5  2  0  0  0  0
  7  2  2  0  0  0  0
 10  6  1  0  0  0  0
 11 12  1  0  0  0  0
 12 19  1  0  0  0  0
 13 14  1  0  0  0  0
 13 12  2  0  0  0  0
 14 16  2  0  0  0  0
 15 14  1  0  0  0  0
 16 17  1  0  0  0  0
 16 18  1  0  0  0  0
 19 18  2  0  0  0  0
M  END
>  <minimizedAffinity>
-4.11030006

$$$$

 OpenBabel03262522203D

 19 20  0  0  0  0  0  0  0  0999 V2000
   38.6190   22.9940   36.0200 O   0  0  0  0  0  0  0  0  0  0  0  0
   36.7110   21.6500   36.1430 C   0  0  0  0  0  0  0  0  0  0  0  0
   37.7060   22.2380   35.3350 C   0  0  0  0  0  0  0  0  0  0  0  0
   37.6560   21.9920   33.9610 C   0  0  0  0  0  0  0  0  0  0  0  0
   36.6640   21.2110   33.4800 N   0  0  0  0  0  0  0  0  0  0  0  0
   35.7240   20.6600   34.2730 C   0  0  0  0  0  0  0  0  0  0  0  0
   35.7330   20.8700   35.6110 N   0  0  0  0  0  0  0  0  0  0  0  0
   36.6540   21.7720   37.2090 H   0  0  0  0  0  0  0  0  0  0  0  0
   38.4190   22.4510   33.3950 H   0  0  0  0  0  0  0  0  0  0  0  0
   34.9590   20.0490   33.8500 H   0  0  0  0  0  0  0  0  0  0  0  0
   40.8160   23.7950   34.4590 F   0  0  0  0  0  0  0  0  0  0  0  0
   40.0350   24.7750   34.9620 C   0  0  0  0  0  0  0  0  0  0  0  0
   38.9790   24.2990   35.7150 C   0  0  0  0  0  0  0  0  0  0  0  0
   38.0950   25.2110   36.2930 C   0  0  0  0  0  0  0  0  0  0  0  0
   37.2230   24.9580   36.9100 H   0  0  0  0  0  0  0  0  0  0  0  0
   38.2350   26.5690   36.1400 C   0  0  0  0  0  0  0  0  0  0  0  0
   37.5730   27.3080   36.5700 H   0  0  0  0  0  0  0  0  0  0  0  0
   39.3020   27.0270   35.3790 C   0  0  0  0  0  3  0  0  0  0  0  0
   40.1910   26.1340   34.7970 C   0  0  0  0  0  3  0  0  0  0  0  0
  2  8  1  0  0  0  0
  3  1  1  0  0  0  0
  3  2  2  0  0  0  0
  4  3  1  0  0  0  0
  5  4  2  0  0  0  0
  5  6  1  0  0  0  0
  6  7  2  0  0  0  0
  7  2  1  0  0  0  0
  9  4  1  0  0  0  0
 10  6  1  0  0  0  0
 11 12  1  0  0  0  0
 12 13  1  0  0  0  0
 13  1  1  0  0  0  0
 13 14  2  0  0  0  0
 14 15  1  0  0  0  0
 16 14  1  0  0  0  0
 16 17  1  0  0  0  0
 18 16  2  0  0  0  0
 19 12  2  0  0  0  0
 19 18  1  0  0  0  0
M  END
>  <minimizedAffinity>
-4.06310606

$$$$

 OpenBabel03262522203D

 19 20  0  0  0  0  0  0  0  0999 V2000
   32.1630   30.3990   35.5810 O   0  0  0  0  0  0  0  0  0  0  0  0
   31.1670   28.3090   35.2600 C   0  0  0  0  0  0  0  0  0  0  0  0
   31.6680   29.2660   36.1670 C   0  0  0  0  0  0  0  0  0  0  0  0
   31.6060   28.9630   37.5300 C   0  0  0  0  0  0  0  0  0  0  0  0
   31.0760   27.7790   37.9050 N   0  0  0  0  0  0  0  0  0  0  0  0
   30.6040   26.8810   37.0190 C   0  0  0  0  0  0  0  0  0  0  0  0
   30.6420   27.1300   35.6890 N   0  0  0  0  0  0  0  0  0  0  0  0
   31.1650   28.4370   34.1940 H   0  0  0  0  0  0  0  0  0  0  0  0
   31.9910   29.7070   38.1720 H   0  0  0  0  0  0  0  0  0  0  0  0
   30.1930   25.9580   37.3620 H   0  0  0  0  0  0  0  0  0  0  0  0
   32.8820   32.2730   37.5500 F   0  0  0  0  0  0  0  0  0  0  0  0
   33.8630   31.8480   36.7230 C   0  0  0  0  0  0  0  0  0  0  0  0
   33.4280   30.9310   35.7870 C   0  0  0  0  0  0  0  0  0  0  0  0
   34.3450   30.4130   34.8710 C   0  0  0  0  0  0  0  0  0  0  0  0
   34.1220   29.6810   34.0830 H   0  0  0  0  0  0  0  0  0  0  0  0
   35.6680   30.7820   34.8660 C   0  0  0  0  0  0  0  0  0  0  0  0
   36.4090   30.4040   34.1750 H   0  0  0  0  0  0  0  0  0  0  0  0
   36.0850   31.7050   35.8160 C   0  0  0  0  0  3  0  0  0  0  0  0
   35.1860   32.2300   36.7340 C   0  0  0  0  0  3  0  0  0  0  0  0
  1 13  1  0  0  0  0
  1  3  1  0  0  0  0
  2  7  2  0  0  0  0
  2  3  1  0  0  0  0
  3  4  2  0  0  0  0
  4  5  1  0  0  0  0
  4  9  1  0  0  0  0
  6 10  1  0  0  0  0
  6  5  2  0  0  0  0
  7  6  1  0  0  0  0
  8  2  1  0  0  0  0
 12 19  1  0  0  0  0
 12 11  1  0  0  0  0
 13 12  2  0  0  0  0
 14 13  1  0  0  0  0
 15 14  1  0  0  0  0
 16 14  2  0  0  0  0
 16 18  1  0  0  0  0
 17 16  1  0  0  0  0
 18 19  2  0  0  0  0
M  END
>  <minimizedAffinity>
-3.98667407

$$$$

 OpenBabel03262522203D

 19 20  0  0  0  0  0  0  0  0999 V2000
   39.7230   23.1780   35.0290 O   0  0  0  0  0  0  0  0  0  0  0  0
   41.5800   21.7590   35.0290 C   0  0  0  0  0  0  0  0  0  0  0  0
   40.5770   22.4110   35.7750 C   0  0  0  0  0  0  0  0  0  0  0  0
   40.5600   22.2090   37.1580 C   0  0  0  0  0  0  0  0  0  0  0  0
   41.5000   21.4070   37.7040 N   0  0  0  0  0  0  0  0  0  0  0  0
   42.4490   20.7940   36.9690 C   0  0  0  0  0  0  0  0  0  0  0  0
   42.5040   20.9600   35.6270 N   0  0  0  0  0  0  0  0  0  0  0  0
   41.6860   21.8430   33.9630 H   0  0  0  0  0  0  0  0  0  0  0  0
   39.7930   22.7150   37.6750 H   0  0  0  0  0  0  0  0  0  0  0  0
   43.1720   20.1690   37.4440 H   0  0  0  0  0  0  0  0  0  0  0  0
   37.5310   23.9990   36.5860 F   0  0  0  0  0  0  0  0  0  0  0  0
   38.3050   24.9730   36.0580 C   0  0  0  0  0  0  0  0  0  0  0  0
   39.3580   24.4870   35.3090 C   0  0  0  0  0  0  0  0  0  0  0  0
   40.2350   25.3920   34.7080 C   0  0  0  0  0  0  0  0  0  0  0  0
   41.1040   25.1300   34.0910 H   0  0  0  0  0  0  0  0  0  0  0  0
   40.0890   26.7520   34.8340 C   0  0  0  0  0  0  0  0  0  0  0  0
   40.7450   27.4850   34.3850 H   0  0  0  0  0  0  0  0  0  0  0  0
   39.0230   27.2200   35.5920 C   0  0  0  0  0  3  0  0  0  0  0  0
   38.1430   26.3340   36.1970 C   0  0  0  0  0  3  0  0  0  0  0  0
  1 13  1  0  0  0  0
  1  3  1  0  0  0  0
  2  7  2  0  0  0  0
  2  3  1  0  0  0  0
  3  4  2  0  0  0  0
  4  9  1  0  0  0  0
  4  5  1  0  0  0  0
  6 10  1  0  0  0  0
  6  5  2  0  0  0  0
  7  6  1  0  0  0  0
  8  2  1  0  0  0  0
 12 19  1  0  0  0  0
 12 11  1  0  0  0  0
 13 12  2  0  0  0  0
 14 16  2  0  0  0  0
 14 13  1  0  0  0  0
 15 14  1  0  0  0  0
 16 18  1  0  0  0  0
 17 16  1  0  0  0  0
 18 19  2  0  0  0  0
M  END
>  <minimizedAffinity>
-3.98578954

$$$$

 OpenBabel03262522203D

 19 20  0  0  0  0  0  0  0  0999 V2000
   38.2800   24.5740   33.2610 O   0  0  0  0  0  0  0  0  0  0  0  0
   38.0650   25.1760   35.5080 C   0  0  0  0  0  0  0  0  0  0  0  0
   38.1980   24.1440   34.5570 C   0  0  0  0  0  0  0  0  0  0  0  0
   38.2330   22.8280   35.0270 C   0  0  0  0  0  0  0  0  0  0  0  0
   38.1360   22.6150   36.3580 N   0  0  0  0  0  0  0  0  0  0  0  0
   38.0090   23.6190   37.2470 C   0  0  0  0  0  0  0  0  0  0  0  0
   37.9710   24.9090   36.8390 N   0  0  0  0  0  0  0  0  0  0  0  0
   38.0280   26.2210   35.2590 H   0  0  0  0  0  0  0  0  0  0  0  0
   38.3340   22.0890   34.2810 H   0  0  0  0  0  0  0  0  0  0  0  0
   37.9370   23.4030   38.2900 H   0  0  0  0  0  0  0  0  0  0  0  0
   37.5360   27.2400   32.7690 F   0  0  0  0  0  0  0  0  0  0  0  0
   36.7830   26.2790   32.1900 C   0  0  0  0  0  0  0  0  0  0  0  0
   37.2140   24.9990   32.4810 C   0  0  0  0  0  0  0  0  0  0  0  0
   36.5210   23.9140   31.9430 C   0  0  0  0  0  0  0  0  0  0  0  0
   36.7650   22.8550   32.1000 H   0  0  0  0  0  0  0  0  0  0  0  0
   35.4230   24.0700   31.1330 C   0  0  0  0  0  0  0  0  0  0  0  0
   34.8590   23.2570   30.6970 H   0  0  0  0  0  0  0  0  0  0  0  0
   35.0050   25.3650   30.8530 C   0  0  0  0  0  3  0  0  0  0  0  0
   35.6840   26.4560   31.3790 C   0  0  0  0  0  3  0  0  0  0  0  0
  1  3  1  0  0  0  0
  2  7  1  0  0  0  0
  3  4  1  0  0  0  0
  3  2  2  0  0  0  0
  4  5  2  0  0  0  0
  5  6  1  0  0  0  0
  6 10  1  0  0  0  0
  7  6  2  0  0  0  0
  8  2  1  0  0  0  0
  9  4  1  0  0  0  0
 12 13  1  0  0  0  0
 12 11  1  0  0  0  0
 13  1  1  0  0  0  0
 14 15  1  0  0  0  0
 14 13  2  0  0  0  0
 16 14  1  0  0  0  0
 17 16  1  0  0  0  0
 18 16  2  0  0  0  0
 18 19  1  0  0  0  0
 19 12  2  0  0  0  0
M  END
>  <minimizedAffinity>
-3.97015953

$$$$

 OpenBabel03262522203D

 19 20  0  0  0  0  0  0  0  0999 V2000
   39.0730   23.6480   34.4400 O   0  0  0  0  0  0  0  0  0  0  0  0
   37.7430   21.8510   33.7590 C   0  0  0  0  0  0  0  0  0  0  0  0
   38.0700   23.2150   33.6150 C   0  0  0  0  0  0  0  0  0  0  0  0
   37.3570   23.9590   32.6710 C   0  0  0  0  0  0  0  0  0  0  0  0
   36.3970   23.3380   31.9520 N   0  0  0  0  0  0  0  0  0  0  0  0
   36.1020   22.0320   32.1080 C   0  0  0  0  0  0  0  0  0  0  0  0
   36.7670   21.2720   33.0100 N   0  0  0  0  0  0  0  0  0  0  0  0
   38.2260   21.1880   34.4520 H   0  0  0  0  0  0  0  0  0  0  0  0
   37.6350   24.9740   32.5980 H   0  0  0  0  0  0  0  0  0  0  0  0
   35.3350   21.5830   31.5170 H   0  0  0  0  0  0  0  0  0  0  0  0
   40.8520   22.0470   35.9160 F   0  0  0  0  0  0  0  0  0  0  0  0
   39.9360   22.7500   36.6180 C   0  0  0  0  0  0  0  0  0  0  0  0
   39.1020   23.5090   35.8210 C   0  0  0  0  0  0  0  0  0  0  0  0
   38.1100   24.2830   36.4240 C   0  0  0  0  0  0  0  0  0  0  0  0
   37.3890   24.9250   35.9000 H   0  0  0  0  0  0  0  0  0  0  0  0
   37.9300   24.3180   37.7850 C   0  0  0  0  0  0  0  0  0  0  0  0
   37.1740   24.9040   38.2910 H   0  0  0  0  0  0  0  0  0  0  0  0
   38.7790   23.5480   38.5690 C   0  0  0  0  0  3  0  0  0  0  0  0
   39.7710   22.7730   37.9850 C   0  0  0  0  0  3  0  0  0  0  0  0
  1 13  1  0  0  0  0
  2  8  1  0  0  0  0
  3  2  1  0  0  0  0
  3  1  1  0  0  0  0
  4  3  2  0  0  0  0
  5  6  2  0  0  0  0
  5  4  1  0  0  0  0
  6  7  1  0  0  0  0
  7  2  2  0  0  0  0
  9  4  1  0  0  0  0
 10  6  1  0  0  0  0
 11 12  1  0  0  0  0
 12 19  1  0  0  0  0
 13 14  1  0  0  0  0
 13 12  2  0  0  0  0
 14 16  2  0  0  0  0
 15 14  1  0  0  0  0
 16 17  1  0  0  0  0
 16 18  1  0  0  0  0
 19 18  2  0  0  0  0
M  END
>  <minimizedAffinity>
-3.91444707

$$$$

 OpenBabel03262522203D

 19 20  0  0  0  0  0  0  0  0999 V2000
   36.2570   27.4540   32.6280 O   0  0  0  0  0  0  0  0  0  0  0  0
   34.5560   29.0570   32.6340 C   0  0  0  0  0  0  0  0  0  0  0  0
   35.7930   28.6320   32.1070 C   0  0  0  0  0  0  0  0  0  0  0  0
   36.3950   29.4350   31.1350 C   0  0  0  0  0  0  0  0  0  0  0  0
   35.7680   30.5690   30.7550 N   0  0  0  0  0  0  0  0  0  0  0  0
   34.5850   30.9540   31.2740 C   0  0  0  0  0  0  0  0  0  0  0  0
   33.9640   30.2080   32.2180 N   0  0  0  0  0  0  0  0  0  0  0  0
   34.0060   28.5190   33.3840 H   0  0  0  0  0  0  0  0  0  0  0  0
   37.3180   29.0780   30.7680 H   0  0  0  0  0  0  0  0  0  0  0  0
   34.1250   31.8590   30.9430 H   0  0  0  0  0  0  0  0  0  0  0  0
   38.8570   26.9980   31.6600 F   0  0  0  0  0  0  0  0  0  0  0  0
   38.7090   27.0800   33.0010 C   0  0  0  0  0  0  0  0  0  0  0  0
   37.4050   27.3050   33.3930 C   0  0  0  0  0  0  0  0  0  0  0  0
   37.1170   27.4100   34.7550 C   0  0  0  0  0  0  0  0  0  0  0  0
   36.1240   27.5870   35.1900 H   0  0  0  0  0  0  0  0  0  0  0  0
   38.0850   27.2980   35.7220 C   0  0  0  0  0  0  0  0  0  0  0  0
   37.9040   27.3730   36.7860 H   0  0  0  0  0  0  0  0  0  0  0  0
   39.3910   27.0720   35.3070 C   0  0  0  0  0  3  0  0  0  0  0  0
   39.6950   26.9650   33.9560 C   0  0  0  0  0  3  0  0  0  0  0  0
  1 13  1  0  0  0  0
  2  8  1  0  0  0  0
  3  1  1  0  0  0  0
  3  2  2  0  0  0  0
  4  3  1  0  0  0  0
  5  4  2  0  0  0  0
  5  6  1  0  0  0  0
  6  7  2  0  0  0  0
  7  2  1  0  0  0  0
  9  4  1  0  0  0  0
 10  6  1  0  0  0  0
 11 12  1  0  0  0  0
 12 13  2  0  0  0  0
 12 19  1  0  0  0  0
 13 14  1  0  0  0  0
 14 15  1  0  0  0  0
 14 16  2  0  0  0  0
 16 17  1  0  0  0  0
 18 16  1  0  0  0  0
 19 18  2  0  0  0  0
M  END
>  <minimizedAffinity>
-3.90481305

$$$$
