
 OpenBabel03272504193D

 27 28  0  0  0  0  0  0  0  0999 V2000
   37.9220   29.9370   48.7470 O   0  0  0  0  0  0  0  0  0  0  0  0
   37.3890   30.7610   49.8820 P   0  0  2  0  0  0  0  0  0  0  0  0
   38.3610   30.4270   51.2560 O   0  0  0  0  0  0  0  0  0  0  0  0
   37.8890   30.7030   52.0800 H   0  0  0  0  0  0  0  0  0  0  0  0
   35.8000   30.3010   50.2330 O   0  0  0  0  0  0  0  0  0  0  0  0
   35.6090   29.0190   49.7950 C   0  0  0  0  0  0  0  0  0  0  0  0
   36.5220   28.5090   49.4350 H   0  0  0  0  0  0  0  0  0  0  0  0
   35.2850   28.4170   50.6920 H   0  0  0  0  0  0  0  0  0  0  0  0
   34.4830   28.8870   48.8350 C   0  0  0  0  0  0  0  0  0  0  0  0
   34.4910   29.7280   47.7140 C   0  0  0  0  0  0  0  0  0  0  0  0
   33.4410   29.6230   46.7950 C   0  0  0  0  0  0  0  0  0  0  0  0
   32.4660   28.7050   47.0440 N   0  0  0  0  0  0  0  0  0  0  0  0
   32.4910   27.9100   48.1360 C   0  0  0  0  0  0  0  0  0  0  0  0
   33.4880   27.9980   49.0230 N   0  0  0  0  0  0  0  0  0  0  0  0
   35.2710   30.4590   47.5210 H   0  0  0  0  0  0  0  0  0  0  0  0
   33.4340   30.2660   45.9230 H   0  0  0  0  0  0  0  0  0  0  0  0
   31.6780   27.1930   48.2780 H   0  0  0  0  0  0  0  0  0  0  0  0
   37.4630   32.3980   49.4890 O   0  0  0  0  0  0  0  0  0  0  0  0
   39.4060   34.3360   50.1070 F   0  0  0  0  0  0  0  0  0  0  0  0
   39.4140   33.8570   48.8620 C   0  0  0  0  0  0  0  0  0  0  0  0
   38.4320   32.9130   48.6390 C   0  0  0  0  0  0  0  0  0  0  0  0
   38.3130   32.3170   47.3810 C   0  0  0  0  0  0  0  0  0  0  0  0
   37.5990   31.5700   47.0630 H   0  0  0  0  0  0  0  0  0  0  0  0
   39.1790   32.6680   46.3400 C   0  0  0  0  0  0  0  0  0  0  0  0
   39.1380   32.2490   45.3500 H   0  0  0  0  0  0  0  0  0  0  0  0
   40.1530   33.6230   46.6020 C   0  0  0  0  0  3  0  0  0  0  0  0
   40.2650   34.2050   47.8440 C   0  0  0  0  0  3  0  0  0  0  0  0
  2  1  2  6  0  0  0
  2  5  1  0  0  0  0
  2  3  1  0  0  0  0
  3  4  1  0  0  0  0
  6  5  1  0  0  0  0
  6  8  1  0  0  0  0
  7  6  1  0  0  0  0
  9 14  1  0  0  0  0
  9  6  1  0  0  0  0
 10  9  2  0  0  0  0
 11 12  2  0  0  0  0
 11 10  1  0  0  0  0
 12 13  1  0  0  0  0
 13 17  1  0  0  0  0
 13 14  2  0  0  0  0
 15 10  1  0  0  0  0
 16 11  1  0  0  0  0
 18  2  1  0  0  0  0
 20 19  1  0  0  0  0
 21 20  1  0  0  0  0
 21 18  1  0  0  0  0
 22 21  2  0  0  0  0
 23 22  1  0  0  0  0
 24 26  2  0  0  0  0
 24 22  1  0  0  0  0
 25 24  1  0  0  0  0
 26 27  1  0  0  0  0
 27 20  2  0  0  0  0
M  END
>  <minimizedAffinity>
-5.25970888

>  <minimizedRMSD>
1.87283123

$$$$
