
 OpenBabel03272510133D

 41 44  0  0  0  0  0  0  0  0999 V2000
   38.4330   31.4160   48.7710 C   0  0  0  0  0  0  0  0  0  0  0  0
   38.5130   32.6240   49.4180 C   0  0  0  0  0  0  0  0  0  0  0  0
   39.0880   33.5310   48.5260 C   0  0  0  0  0  0  0  0  0  0  0  0
   39.3340   32.8730   47.3990 N   0  0  0  0  0  0  0  0  0  0  0  0
   38.9480   31.6470   47.5560 N   0  0  0  0  0  0  0  0  0  0  0  0
   38.2510   33.0050   50.3940 H   0  0  0  0  0  0  0  0  0  0  0  0
   39.3260   34.5820   48.6400 H   0  0  0  0  0  0  0  0  0  0  0  0
   39.9240   33.3860   46.1900 C   0  0  0  0  0  0  0  0  0  0  0  0
   39.1740   33.8770   45.5290 H   0  0  0  0  0  0  0  0  0  0  0  0
   40.6200   34.1990   46.4770 H   0  0  0  0  0  0  0  0  0  0  0  0
   40.6640   32.2890   45.4990 C   0  0  0  0  0  0  0  0  0  0  0  0
   41.6470   32.7450   45.1750 H   0  0  0  0  0  0  0  0  0  0  0  0
   40.9910   31.5820   46.3200 H   0  0  0  0  0  0  0  0  0  0  0  0
   39.8950   33.7990   43.2390 F   0  0  0  0  0  0  0  0  0  0  0  0
   39.6480   32.4510   43.3490 C   0  0  0  0  0  0  0  0  0  0  0  0
   39.9750   31.6080   44.4130 C   0  0  0  0  0  0  0  0  0  0  0  0
   39.6150   30.2840   44.2770 C   0  0  0  0  0  0  0  0  0  0  0  0
   39.8870   29.6570   45.1050 H   0  0  0  0  0  0  0  0  0  0  0  0
   38.9710   29.7840   43.1710 C   0  0  0  0  0  0  0  0  0  0  0  0
   38.7460   28.7090   43.1970 H   0  0  0  0  0  0  0  0  0  0  0  0
   38.6580   30.6270   42.1340 C   0  0  0  0  0  3  0  0  0  0  0  0
   38.9990   31.9610   42.2260 C   0  0  0  0  0  3  0  0  0  0  0  0
   37.8830   30.3910   49.5150 O   0  0  0  0  0  0  0  0  0  0  0  0
   34.1450   28.8520   48.3420 C   0  0  0  0  0  0  0  0  0  0  0  0
   34.7780   28.3990   49.4630 C   0  0  0  0  0  0  0  0  0  0  0  0
   35.9920   28.8560   49.9010 C   0  0  0  0  0  0  0  0  0  0  0  0
   36.6610   29.8210   49.2190 C   0  0  0  0  0  0  0  0  0  0  0  0
   36.0210   30.2940   48.0650 C   0  0  0  0  0  0  0  0  0  0  0  0
   34.8270   29.8280   47.6570 N   0  0  0  0  0  0  0  0  0  0  0  0
   34.3040   27.6290   50.0580 H   0  0  0  0  0  0  0  0  0  0  0  0
   36.4860   28.4870   50.7980 H   0  0  0  0  0  0  0  0  0  0  0  0
   36.4380   31.0600   47.4270 H   0  0  0  0  0  0  0  0  0  0  0  0
   32.0310   27.5660   48.6140 C   0  0  0  0  0  0  0  0  0  0  0  0
   32.8800   28.3940   47.8620 C   0  0  0  0  0  0  0  0  0  0  0  0
   32.4370   28.7560   46.6190 C   0  0  0  0  0  0  0  0  0  0  0  0
   31.2280   28.3160   46.1640 N   0  0  0  0  0  0  0  0  0  0  0  0
   30.4460   27.5110   46.9440 C   0  0  0  0  0  0  0  0  0  0  0  0
   30.8340   27.1260   48.1740 N   0  0  0  0  0  0  0  0  0  0  0  0
   32.3300   27.2490   49.6020 H   0  0  0  0  0  0  0  0  0  0  0  0
   33.0210   29.3970   45.9550 H   0  0  0  0  0  0  0  0  0  0  0  0
   29.5200   27.2470   46.4450 H   0  0  0  0  0  0  0  0  0  0  0  0
  1  2  1  0  0  0  0
  1 23  1  0  0  0  0
  2  6  1  0  0  0  0
  3  7  1  0  0  0  0
  3  2  2  0  0  0  0
  4  5  1  0  0  0  0
  4  3  1  0  0  0  0
  5  1  2  0  0  0  0
  8 10  1  0  0  0  0
  8  4  1  0  0  0  0
  9  8  1  0  0  0  0
 11  8  1  0  0  0  0
 11 13  1  0  0  0  0
 12 11  1  0  0  0  0
 14 15  1  0  0  0  0
 15 16  1  0  0  0  0
 16 11  1  0  0  0  0
 17 16  2  0  0  0  0
 17 18  1  0  0  0  0
 19 20  1  0  0  0  0
 19 17  1  0  0  0  0
 21 22  1  0  0  0  0
 21 19  2  0  0  0  0
 22 15  2  0  0  0  0
 24 25  1  0  0  0  0
 25 26  2  0  0  0  0
 25 30  1  0  0  0  0
 26 31  1  0  0  0  0
 27 23  1  0  0  0  0
 27 26  1  0  0  0  0
 28 27  2  0  0  0  0
 29 28  1  0  0  0  0
 29 24  2  0  0  0  0
 32 28  1  0  0  0  0
 33 39  1  0  0  0  0
 34 24  1  0  0  0  0
 34 33  2  0  0  0  0
 35 34  1  0  0  0  0
 36 35  2  0  0  0  0
 36 37  1  0  0  0  0
 37 38  2  0  0  0  0
 38 33  1  0  0  0  0
 40 35  1  0  0  0  0
 41 37  1  0  0  0  0
M  END
>  <minimizedAffinity>
-6.37832069

>  <minimizedRMSD>
1.08888566

$$$$
