
 OpenBabel03272510133D

 41 44  0  0  0  0  0  0  0  0999 V2000
   38.4190   31.5320   48.9230 C   0  0  0  0  0  0  0  0  0  0  0  0
   38.4640   32.7660   49.5220 C   0  0  0  0  0  0  0  0  0  0  0  0
   39.0810   33.6380   48.6220 C   0  0  0  0  0  0  0  0  0  0  0  0
   39.3840   32.9330   47.5370 N   0  0  0  0  0  0  0  0  0  0  0  0
   38.9940   31.7130   47.7270 N   0  0  0  0  0  0  0  0  0  0  0  0
   38.1510   33.1870   50.4660 H   0  0  0  0  0  0  0  0  0  0  0  0
   39.3100   34.6930   48.7030 H   0  0  0  0  0  0  0  0  0  0  0  0
   40.0340   33.3970   46.3390 C   0  0  0  0  0  0  0  0  0  0  0  0
   39.4410   34.1790   45.8130 H   0  0  0  0  0  0  0  0  0  0  0  0
   40.9670   33.9110   46.6430 H   0  0  0  0  0  0  0  0  0  0  0  0
   40.3450   32.2290   45.4630 C   0  0  0  0  0  0  0  0  0  0  0  0
   41.4490   32.3080   45.2340 H   0  0  0  0  0  0  0  0  0  0  0  0
   40.3090   31.3250   46.1430 H   0  0  0  0  0  0  0  0  0  0  0  0
   41.2460   30.4520   43.4620 F   0  0  0  0  0  0  0  0  0  0  0  0
   40.0730   31.1600   43.3510 C   0  0  0  0  0  0  0  0  0  0  0  0
   39.5340   32.0640   44.2660 C   0  0  0  0  0  0  0  0  0  0  0  0
   38.3330   32.6460   43.9170 C   0  0  0  0  0  0  0  0  0  0  0  0
   37.9370   33.3300   44.6420 H   0  0  0  0  0  0  0  0  0  0  0  0
   37.6760   32.3770   42.7410 C   0  0  0  0  0  0  0  0  0  0  0  0
   36.7270   32.9140   42.5920 H   0  0  0  0  0  0  0  0  0  0  0  0
   38.2210   31.4850   41.8520 C   0  0  0  0  0  3  0  0  0  0  0  0
   39.4220   30.8780   42.1600 C   0  0  0  0  0  3  0  0  0  0  0  0
   37.8340   30.5370   49.6820 O   0  0  0  0  0  0  0  0  0  0  0  0
   34.1720   28.9200   48.3790 C   0  0  0  0  0  0  0  0  0  0  0  0
   34.8310   28.4070   49.4590 C   0  0  0  0  0  0  0  0  0  0  0  0
   36.0220   28.8840   49.9360 C   0  0  0  0  0  0  0  0  0  0  0  0
   36.6410   29.9340   49.3370 C   0  0  0  0  0  0  0  0  0  0  0  0
   35.9750   30.4710   48.2260 C   0  0  0  0  0  0  0  0  0  0  0  0
   34.8040   29.9820   47.7800 N   0  0  0  0  0  0  0  0  0  0  0  0
   34.3970   27.5670   49.9880 H   0  0  0  0  0  0  0  0  0  0  0  0
   36.5370   28.4650   50.7990 H   0  0  0  0  0  0  0  0  0  0  0  0
   36.3520   31.3070   47.6550 H   0  0  0  0  0  0  0  0  0  0  0  0
   32.0480   27.6430   48.6070 C   0  0  0  0  0  0  0  0  0  0  0  0
   32.9300   28.4430   47.8620 C   0  0  0  0  0  0  0  0  0  0  0  0
   32.5430   28.7550   46.5870 C   0  0  0  0  0  0  0  0  0  0  0  0
   31.3550   28.2970   46.0960 N   0  0  0  0  0  0  0  0  0  0  0  0
   30.5390   27.5210   46.8710 C   0  0  0  0  0  0  0  0  0  0  0  0
   30.8720   27.1850   48.1310 N   0  0  0  0  0  0  0  0  0  0  0  0
   32.3020   27.3660   49.6180 H   0  0  0  0  0  0  0  0  0  0  0  0
   33.1570   29.3710   45.9250 H   0  0  0  0  0  0  0  0  0  0  0  0
   29.6360   27.2380   46.3410 H   0  0  0  0  0  0  0  0  0  0  0  0
  1  2  1  0  0  0  0
  1 23  1  0  0  0  0
  2  6  1  0  0  0  0
  3  7  1  0  0  0  0
  3  2  2  0  0  0  0
  4  5  1  0  0  0  0
  4  3  1  0  0  0  0
  5  1  2  0  0  0  0
  8 10  1  0  0  0  0
  8  4  1  0  0  0  0
  9  8  1  0  0  0  0
 11 13  1  0  0  0  0
 11  8  1  0  0  0  0
 12 11  1  0  0  0  0
 15 14  1  0  0  0  0
 15 16  1  0  0  0  0
 16 11  1  0  0  0  0
 17 16  2  0  0  0  0
 17 18  1  0  0  0  0
 19 17  1  0  0  0  0
 20 19  1  0  0  0  0
 21 22  1  0  0  0  0
 21 19  2  0  0  0  0
 22 15  2  0  0  0  0
 24 25  1  0  0  0  0
 25 26  2  0  0  0  0
 25 30  1  0  0  0  0
 26 31  1  0  0  0  0
 27 23  1  0  0  0  0
 27 26  1  0  0  0  0
 28 27  2  0  0  0  0
 29 28  1  0  0  0  0
 29 24  2  0  0  0  0
 32 28  1  0  0  0  0
 33 39  1  0  0  0  0
 34 24  1  0  0  0  0
 34 33  2  0  0  0  0
 35 34  1  0  0  0  0
 36 35  2  0  0  0  0
 36 37  1  0  0  0  0
 37 38  2  0  0  0  0
 38 33  1  0  0  0  0
 40 35  1  0  0  0  0
 41 37  1  0  0  0  0
M  END
>  <minimizedAffinity>
-6.30118036

>  <minimizedRMSD>
1.54165566

$$$$
