
 OpenBabel03272510133D

 41 44  0  0  0  0  0  0  0  0999 V2000
   38.4260   31.5250   48.9040 C   0  0  0  0  0  0  0  0  0  0  0  0
   38.4710   32.7520   49.5170 C   0  0  0  0  0  0  0  0  0  0  0  0
   39.0770   33.6360   48.6230 C   0  0  0  0  0  0  0  0  0  0  0  0
   39.3740   32.9460   47.5270 N   0  0  0  0  0  0  0  0  0  0  0  0
   38.9890   31.7230   47.7050 N   0  0  0  0  0  0  0  0  0  0  0  0
   38.1650   33.1600   50.4690 H   0  0  0  0  0  0  0  0  0  0  0  0
   39.3030   34.6920   48.7150 H   0  0  0  0  0  0  0  0  0  0  0  0
   40.0110   33.4280   46.3290 C   0  0  0  0  0  0  0  0  0  0  0  0
   39.3620   34.1320   45.7590 H   0  0  0  0  0  0  0  0  0  0  0  0
   40.8830   34.0370   46.6360 H   0  0  0  0  0  0  0  0  0  0  0  0
   40.4540   32.2640   45.5050 C   0  0  0  0  0  0  0  0  0  0  0  0
   41.5650   32.4080   45.3510 H   0  0  0  0  0  0  0  0  0  0  0  0
   40.4260   31.3730   46.2020 H   0  0  0  0  0  0  0  0  0  0  0  0
   39.2920   29.7240   45.0860 F   0  0  0  0  0  0  0  0  0  0  0  0
   39.2050   30.7410   44.1650 C   0  0  0  0  0  0  0  0  0  0  0  0
   39.7410   32.0250   44.2590 C   0  0  0  0  0  0  0  0  0  0  0  0
   39.5100   32.8650   43.1890 C   0  0  0  0  0  0  0  0  0  0  0  0
   39.9250   33.8490   43.2920 H   0  0  0  0  0  0  0  0  0  0  0  0
   38.7990   32.4930   42.0750 C   0  0  0  0  0  0  0  0  0  0  0  0
   38.6930   33.2630   41.2980 H   0  0  0  0  0  0  0  0  0  0  0  0
   38.2800   31.2240   41.9980 C   0  0  0  0  0  3  0  0  0  0  0  0
   38.4850   30.3490   43.0470 C   0  0  0  0  0  3  0  0  0  0  0  0
   37.8510   30.5180   49.6550 O   0  0  0  0  0  0  0  0  0  0  0  0
   34.1760   28.9150   48.3730 C   0  0  0  0  0  0  0  0  0  0  0  0
   34.8350   28.4030   49.4540 C   0  0  0  0  0  0  0  0  0  0  0  0
   36.0300   28.8760   49.9230 C   0  0  0  0  0  0  0  0  0  0  0  0
   36.6540   29.9200   49.3180 C   0  0  0  0  0  0  0  0  0  0  0  0
   35.9870   30.4550   48.2060 C   0  0  0  0  0  0  0  0  0  0  0  0
   34.8120   29.9700   47.7660 N   0  0  0  0  0  0  0  0  0  0  0  0
   34.3980   27.5690   49.9870 H   0  0  0  0  0  0  0  0  0  0  0  0
   36.5460   28.4600   50.7870 H   0  0  0  0  0  0  0  0  0  0  0  0
   36.3660   31.2860   47.6300 H   0  0  0  0  0  0  0  0  0  0  0  0
   32.0500   27.6430   48.6110 C   0  0  0  0  0  0  0  0  0  0  0  0
   32.9290   28.4420   47.8620 C   0  0  0  0  0  0  0  0  0  0  0  0
   32.5360   28.7570   46.5900 C   0  0  0  0  0  0  0  0  0  0  0  0
   31.3440   28.3030   46.1050 N   0  0  0  0  0  0  0  0  0  0  0  0
   30.5300   27.5280   46.8830 C   0  0  0  0  0  0  0  0  0  0  0  0
   30.8700   27.1890   48.1410 N   0  0  0  0  0  0  0  0  0  0  0  0
   32.3100   27.3630   49.6200 H   0  0  0  0  0  0  0  0  0  0  0  0
   33.1480   29.3730   45.9250 H   0  0  0  0  0  0  0  0  0  0  0  0
   29.6240   27.2480   46.3590 H   0  0  0  0  0  0  0  0  0  0  0  0
  1  2  1  0  0  0  0
  1 23  1  0  0  0  0
  2  6  1  0  0  0  0
  3  7  1  0  0  0  0
  3  2  2  0  0  0  0
  4  5  1  0  0  0  0
  4  3  1  0  0  0  0
  5  1  2  0  0  0  0
  8 10  1  0  0  0  0
  8  4  1  0  0  0  0
  9  8  1  0  0  0  0
 11 13  1  0  0  0  0
 11  8  1  0  0  0  0
 12 11  1  0  0  0  0
 15 16  1  0  0  0  0
 15 14  1  0  0  0  0
 16 11  1  0  0  0  0
 17 18  1  0  0  0  0
 17 16  2  0  0  0  0
 19 17  1  0  0  0  0
 20 19  1  0  0  0  0
 21 19  2  0  0  0  0
 21 22  1  0  0  0  0
 22 15  2  0  0  0  0
 24 25  1  0  0  0  0
 25 26  2  0  0  0  0
 25 30  1  0  0  0  0
 26 31  1  0  0  0  0
 27 23  1  0  0  0  0
 27 26  1  0  0  0  0
 28 27  2  0  0  0  0
 29 28  1  0  0  0  0
 29 24  2  0  0  0  0
 32 28  1  0  0  0  0
 33 39  1  0  0  0  0
 34 24  1  0  0  0  0
 34 33  2  0  0  0  0
 35 34  1  0  0  0  0
 36 35  2  0  0  0  0
 36 37  1  0  0  0  0
 37 38  2  0  0  0  0
 38 33  1  0  0  0  0
 40 35  1  0  0  0  0
 41 37  1  0  0  0  0
M  END
>  <minimizedAffinity>
-6.35771608

>  <minimizedRMSD>
1.54454255

$$$$
