
 OpenBabel03272510133D

 41 44  0  0  0  0  0  0  0  0999 V2000
   38.4340   31.4170   48.7710 C   0  0  0  0  0  0  0  0  0  0  0  0
   38.5130   32.6260   49.4180 C   0  0  0  0  0  0  0  0  0  0  0  0
   39.0880   33.5330   48.5260 C   0  0  0  0  0  0  0  0  0  0  0  0
   39.3340   32.8740   47.3990 N   0  0  0  0  0  0  0  0  0  0  0  0
   38.9490   31.6480   47.5570 N   0  0  0  0  0  0  0  0  0  0  0  0
   38.2500   33.0070   50.3930 H   0  0  0  0  0  0  0  0  0  0  0  0
   39.3250   34.5830   48.6400 H   0  0  0  0  0  0  0  0  0  0  0  0
   39.9250   33.3870   46.1900 C   0  0  0  0  0  0  0  0  0  0  0  0
   39.1750   33.8780   45.5290 H   0  0  0  0  0  0  0  0  0  0  0  0
   40.6210   34.2000   46.4770 H   0  0  0  0  0  0  0  0  0  0  0  0
   40.6640   32.2890   45.4990 C   0  0  0  0  0  0  0  0  0  0  0  0
   41.6470   32.7450   45.1750 H   0  0  0  0  0  0  0  0  0  0  0  0
   40.9920   31.5830   46.3200 H   0  0  0  0  0  0  0  0  0  0  0  0
   39.8950   33.7990   43.2400 F   0  0  0  0  0  0  0  0  0  0  0  0
   39.6490   32.4510   43.3500 C   0  0  0  0  0  0  0  0  0  0  0  0
   39.9760   31.6080   44.4130 C   0  0  0  0  0  0  0  0  0  0  0  0
   39.6160   30.2840   44.2760 C   0  0  0  0  0  0  0  0  0  0  0  0
   39.8870   29.6580   45.1050 H   0  0  0  0  0  0  0  0  0  0  0  0
   38.9710   29.7840   43.1720 C   0  0  0  0  0  0  0  0  0  0  0  0
   38.7450   28.7090   43.1980 H   0  0  0  0  0  0  0  0  0  0  0  0
   38.6580   30.6280   42.1350 C   0  0  0  0  0  3  0  0  0  0  0  0
   38.9990   31.9620   42.2270 C   0  0  0  0  0  3  0  0  0  0  0  0
   37.8830   30.3920   49.5160 O   0  0  0  0  0  0  0  0  0  0  0  0
   34.1450   28.8530   48.3420 C   0  0  0  0  0  0  0  0  0  0  0  0
   34.7800   28.3990   49.4630 C   0  0  0  0  0  0  0  0  0  0  0  0
   35.9930   28.8560   49.9010 C   0  0  0  0  0  0  0  0  0  0  0  0
   36.6620   29.8220   49.2190 C   0  0  0  0  0  0  0  0  0  0  0  0
   36.0220   30.2950   48.0650 C   0  0  0  0  0  0  0  0  0  0  0  0
   34.8280   29.8290   47.6580 N   0  0  0  0  0  0  0  0  0  0  0  0
   34.3060   27.6290   50.0580 H   0  0  0  0  0  0  0  0  0  0  0  0
   36.4880   28.4870   50.7980 H   0  0  0  0  0  0  0  0  0  0  0  0
   36.4380   31.0610   47.4280 H   0  0  0  0  0  0  0  0  0  0  0  0
   32.0310   27.5670   48.6160 C   0  0  0  0  0  0  0  0  0  0  0  0
   32.8810   28.3940   47.8620 C   0  0  0  0  0  0  0  0  0  0  0  0
   32.4390   28.7540   46.6180 C   0  0  0  0  0  0  0  0  0  0  0  0
   31.2300   28.3140   46.1630 N   0  0  0  0  0  0  0  0  0  0  0  0
   30.4470   27.5100   46.9440 C   0  0  0  0  0  0  0  0  0  0  0  0
   30.8350   27.1280   48.1750 N   0  0  0  0  0  0  0  0  0  0  0  0
   32.3300   27.2530   49.6030 H   0  0  0  0  0  0  0  0  0  0  0  0
   33.0240   29.3940   45.9530 H   0  0  0  0  0  0  0  0  0  0  0  0
   29.5210   27.2470   46.4450 H   0  0  0  0  0  0  0  0  0  0  0  0
  1  2  1  0  0  0  0
  1 23  1  0  0  0  0
  2  6  1  0  0  0  0
  3  7  1  0  0  0  0
  3  2  2  0  0  0  0
  4  5  1  0  0  0  0
  4  3  1  0  0  0  0
  5  1  2  0  0  0  0
  8 10  1  0  0  0  0
  8  4  1  0  0  0  0
  9  8  1  0  0  0  0
 11  8  1  0  0  0  0
 11 13  1  0  0  0  0
 12 11  1  0  0  0  0
 14 15  1  0  0  0  0
 15 16  1  0  0  0  0
 16 11  1  0  0  0  0
 17 16  2  0  0  0  0
 17 18  1  0  0  0  0
 19 20  1  0  0  0  0
 19 17  1  0  0  0  0
 21 22  1  0  0  0  0
 21 19  2  0  0  0  0
 22 15  2  0  0  0  0
 24 25  1  0  0  0  0
 25 26  2  0  0  0  0
 25 30  1  0  0  0  0
 26 31  1  0  0  0  0
 27 23  1  0  0  0  0
 27 26  1  0  0  0  0
 28 27  2  0  0  0  0
 29 28  1  0  0  0  0
 29 24  2  0  0  0  0
 32 28  1  0  0  0  0
 33 39  1  0  0  0  0
 34 24  1  0  0  0  0
 34 33  2  0  0  0  0
 35 34  1  0  0  0  0
 36 35  2  0  0  0  0
 36 37  1  0  0  0  0
 37 38  2  0  0  0  0
 38 33  1  0  0  0  0
 40 35  1  0  0  0  0
 41 37  1  0  0  0  0
M  END
>  <minimizedAffinity>
-6.37806749

>  <minimizedRMSD>
1.21950388

$$$$
