
 OpenBabel03272510133D

 41 44  0  0  0  0  0  0  0  0999 V2000
   38.4300   31.5270   48.9100 C   0  0  0  0  0  0  0  0  0  0  0  0
   38.4660   32.7520   49.5260 C   0  0  0  0  0  0  0  0  0  0  0  0
   39.0720   33.6420   48.6370 C   0  0  0  0  0  0  0  0  0  0  0  0
   39.3770   32.9560   47.5410 N   0  0  0  0  0  0  0  0  0  0  0  0
   38.9980   31.7310   47.7140 N   0  0  0  0  0  0  0  0  0  0  0  0
   38.1540   33.1560   50.4780 H   0  0  0  0  0  0  0  0  0  0  0  0
   39.2910   34.6990   48.7330 H   0  0  0  0  0  0  0  0  0  0  0  0
   40.0170   33.4440   46.3470 C   0  0  0  0  0  0  0  0  0  0  0  0
   39.3990   34.2030   45.8160 H   0  0  0  0  0  0  0  0  0  0  0  0
   40.9280   33.9930   46.6570 H   0  0  0  0  0  0  0  0  0  0  0  0
   40.3780   32.2880   45.4740 C   0  0  0  0  0  0  0  0  0  0  0  0
   41.4660   32.4390   45.2070 H   0  0  0  0  0  0  0  0  0  0  0  0
   40.4270   31.3930   46.1650 H   0  0  0  0  0  0  0  0  0  0  0  0
   41.2650   30.4390   43.5350 F   0  0  0  0  0  0  0  0  0  0  0  0
   40.0760   31.1180   43.4210 C   0  0  0  0  0  0  0  0  0  0  0  0
   39.5410   32.0530   44.3070 C   0  0  0  0  0  0  0  0  0  0  0  0
   38.3200   32.5960   43.9620 C   0  0  0  0  0  0  0  0  0  0  0  0
   37.9290   33.3050   44.6660 H   0  0  0  0  0  0  0  0  0  0  0  0
   37.6400   32.2590   42.8170 C   0  0  0  0  0  0  0  0  0  0  0  0
   36.6780   32.7700   42.6680 H   0  0  0  0  0  0  0  0  0  0  0  0
   38.1810   31.3380   41.9570 C   0  0  0  0  0  3  0  0  0  0  0  0
   39.4010   30.7680   42.2610 C   0  0  0  0  0  3  0  0  0  0  0  0
   37.8570   30.5150   49.6560 O   0  0  0  0  0  0  0  0  0  0  0  0
   34.1810   28.9180   48.3700 C   0  0  0  0  0  0  0  0  0  0  0  0
   34.8390   28.4050   49.4510 C   0  0  0  0  0  0  0  0  0  0  0  0
   36.0340   28.8760   49.9220 C   0  0  0  0  0  0  0  0  0  0  0  0
   36.6590   29.9190   49.3170 C   0  0  0  0  0  0  0  0  0  0  0  0
   35.9950   30.4550   48.2050 C   0  0  0  0  0  0  0  0  0  0  0  0
   34.8190   29.9720   47.7640 N   0  0  0  0  0  0  0  0  0  0  0  0
   34.4000   27.5710   49.9840 H   0  0  0  0  0  0  0  0  0  0  0  0
   36.5480   28.4580   50.7860 H   0  0  0  0  0  0  0  0  0  0  0  0
   36.3760   31.2850   47.6290 H   0  0  0  0  0  0  0  0  0  0  0  0
   32.0540   27.6460   48.6050 C   0  0  0  0  0  0  0  0  0  0  0  0
   32.9340   28.4460   47.8580 C   0  0  0  0  0  0  0  0  0  0  0  0
   32.5420   28.7650   46.5860 C   0  0  0  0  0  0  0  0  0  0  0  0
   31.3490   28.3130   46.1000 N   0  0  0  0  0  0  0  0  0  0  0  0
   30.5350   27.5360   46.8760 C   0  0  0  0  0  0  0  0  0  0  0  0
   30.8740   27.1940   48.1330 N   0  0  0  0  0  0  0  0  0  0  0  0
   32.3130   27.3640   49.6130 H   0  0  0  0  0  0  0  0  0  0  0  0
   33.1540   29.3810   45.9230 H   0  0  0  0  0  0  0  0  0  0  0  0
   29.6280   27.2580   46.3510 H   0  0  0  0  0  0  0  0  0  0  0  0
  1  2  1  0  0  0  0
  1 23  1  0  0  0  0
  2  6  1  0  0  0  0
  3  7  1  0  0  0  0
  3  2  2  0  0  0  0
  4  5  1  0  0  0  0
  4  3  1  0  0  0  0
  5  1  2  0  0  0  0
  8 10  1  0  0  0  0
  8  4  1  0  0  0  0
  9  8  1  0  0  0  0
 11 13  1  0  0  0  0
 11  8  1  0  0  0  0
 12 11  1  0  0  0  0
 15 14  1  0  0  0  0
 15 16  1  0  0  0  0
 16 11  1  0  0  0  0
 17 16  2  0  0  0  0
 17 18  1  0  0  0  0
 19 17  1  0  0  0  0
 20 19  1  0  0  0  0
 21 22  1  0  0  0  0
 21 19  2  0  0  0  0
 22 15  2  0  0  0  0
 24 25  1  0  0  0  0
 25 26  2  0  0  0  0
 25 30  1  0  0  0  0
 26 31  1  0  0  0  0
 27 23  1  0  0  0  0
 27 26  1  0  0  0  0
 28 27  2  0  0  0  0
 29 28  1  0  0  0  0
 29 24  2  0  0  0  0
 32 28  1  0  0  0  0
 33 39  1  0  0  0  0
 34 24  1  0  0  0  0
 34 33  2  0  0  0  0
 35 34  1  0  0  0  0
 36 35  2  0  0  0  0
 36 37  1  0  0  0  0
 37 38  2  0  0  0  0
 38 33  1  0  0  0  0
 40 35  1  0  0  0  0
 41 37  1  0  0  0  0
M  END
>  <minimizedAffinity>
-6.29890394

>  <minimizedRMSD>
1.39626431

$$$$
