
 OpenBabel03262522183D

 24 25  0  0  0  0  0  0  0  0999 V2000
   38.7810   31.2230   49.3330 O   0  0  0  0  0  0  0  0  0  0  0  0
   37.6890   32.1630   48.8300 P   0  0  1  0  0  0  0  0  0  0  0  0
   38.1860   33.7650   49.1460 O   0  0  0  0  0  0  0  0  0  0  0  0
   37.5610   34.3580   48.6310 H   0  0  0  0  0  0  0  0  0  0  0  0
   37.6300   32.0210   47.1550 O   0  0  0  0  0  0  0  0  0  0  0  0
   39.6910   32.6980   46.1540 C   0  0  0  0  0  0  0  0  0  0  0  0
   38.6710   31.7450   46.2970 C   0  0  0  0  0  0  0  0  0  0  0  0
   38.7810   30.5620   45.5470 C   0  0  0  0  0  0  0  0  0  0  0  0
   39.8580   30.4060   44.7330 N   0  0  0  0  0  0  0  0  0  0  0  0
   40.8150   31.3480   44.6270 C   0  0  0  0  0  0  0  0  0  0  0  0
   40.7420   32.5030   45.3370 N   0  0  0  0  0  0  0  0  0  0  0  0
   39.6150   33.6150   46.7290 H   0  0  0  0  0  0  0  0  0  0  0  0
   37.9950   29.8250   45.6560 H   0  0  0  0  0  0  0  0  0  0  0  0
   41.6360   31.1340   43.9520 H   0  0  0  0  0  0  0  0  0  0  0  0
   36.2660   31.7620   49.6070 O   0  0  0  0  0  0  0  0  0  0  0  0
   36.2930   29.6690   51.4890 F   0  0  0  0  0  0  0  0  0  0  0  0
   35.6320   29.4360   50.3290 C   0  0  0  0  0  0  0  0  0  0  0  0
   35.6740   30.5160   49.4730 C   0  0  0  0  0  0  0  0  0  0  0  0
   35.0380   30.4270   48.2380 C   0  0  0  0  0  0  0  0  0  0  0  0
   34.9840   31.1960   47.4560 H   0  0  0  0  0  0  0  0  0  0  0  0
   34.3590   29.2780   47.8380 C   0  0  0  0  0  0  0  0  0  0  0  0
   33.8530   29.1510   46.9060 H   0  0  0  0  0  0  0  0  0  0  0  0
   34.3370   28.2100   48.7240 C   0  0  0  0  0  0  0  0  0  0  0  0
   34.9630   28.2920   49.9460 C   0  0  0  0  0  0  0  0  0  0  0  0
  2  3  1  0  0  0  0
  2  1  2  1  0  0  0
  2 15  1  0  0  0  0
  4  3  1  0  0  0  0
  5  2  1  0  0  0  0
  6  7  1  0  0  0  0
  6 12  1  0  0  0  0
  7  5  1  0  0  0  0
  8 13  1  0  0  0  0
  8  7  2  0  0  0  0
  9  8  1  0  0  0  0
 10  9  2  0  0  0  0
 10 11  1  0  0  0  0
 11  6  2  0  0  0  0
 14 10  1  0  0  0  0
 17 16  1  0  0  0  0
 18 15  1  0  0  0  0
 18 17  2  0  0  0  0
 19 18  1  0  0  0  0
 20 19  1  0  0  0  0
 21 19  2  0  0  0  0
 21 23  1  0  0  0  0
 22 21  1  0  0  0  0
 23 24  2  0  0  0  0
 24 17  1  0  0  0  0
M  END
>  <minimizedAffinity>
-5.26366949

>  <minimizedRMSD>
6.47647142

$$$$
