
 OpenBabel03272500003D

 29 31  0  0  0  0  0  0  0  0999 V2000
   36.6540   27.9660   33.6120 C   0  0  0  0  0  0  0  0  0  0  0  0
   36.6660   28.3120   32.2480 C   0  0  0  0  0  0  0  0  0  0  0  0
   36.0510   29.5070   31.8610 C   0  0  0  0  0  0  0  0  0  0  0  0
   35.4660   30.2850   32.8300 N   0  0  0  0  0  0  0  0  0  0  0  0
   35.4770   29.9160   34.1300 C   0  0  0  0  0  0  0  0  0  0  0  0
   36.0760   28.7480   34.5250 N   0  0  0  0  0  0  0  0  0  0  0  0
   37.1170   27.0530   33.9580 H   0  0  0  0  0  0  0  0  0  0  0  0
   36.0400   29.8030   30.8290 H   0  0  0  0  0  0  0  0  0  0  0  0
   32.4120   29.4300   34.4650 Br  0  0  0  0  0  0  0  0  0  0  0  0
   33.5200   30.6300   35.4420 C   0  0  0  0  0  0  0  0  0  0  0  0
   34.8600   30.7310   35.1750 C   0  0  0  0  0  0  0  0  0  0  0  0
   35.5890   31.6260   35.9310 C   0  0  0  0  0  0  0  0  0  0  0  0
   35.0650   32.4190   36.9260 C   0  0  0  0  0  0  0  0  0  0  0  0
   33.7130   32.2870   37.1620 C   0  0  0  0  0  0  0  0  0  0  0  0
   32.9380   31.3880   36.4150 C   0  0  0  0  0  0  0  0  0  0  0  0
   36.6550   31.7100   35.7260 H   0  0  0  0  0  0  0  0  0  0  0  0
   35.6600   33.1140   37.5050 H   0  0  0  0  0  0  0  0  0  0  0  0
   33.1910   32.8670   37.9280 H   0  0  0  0  0  0  0  0  0  0  0  0
   31.8840   31.3180   36.6330 H   0  0  0  0  0  0  0  0  0  0  0  0
   37.2690   27.4920   31.3110 O   0  0  0  0  0  0  0  0  0  0  0  0
   39.1780   25.5290   31.4180 F   0  0  0  0  0  0  0  0  0  0  0  0
   37.8560   25.2450   31.2890 C   0  0  0  0  0  0  0  0  0  0  0  0
   36.8190   26.1810   31.2270 C   0  0  0  0  0  0  0  0  0  0  0  0
   35.5210   25.7310   31.0950 C   0  0  0  0  0  0  0  0  0  0  0  0
   34.7840   26.5230   31.0550 H   0  0  0  0  0  0  0  0  0  0  0  0
   35.2560   24.3790   31.0250 C   0  0  0  0  0  0  0  0  0  0  0  0
   34.2210   24.0800   30.9220 H   0  0  0  0  0  0  0  0  0  0  0  0
   36.2720   23.4340   31.0850 C   0  0  0  0  0  3  0  0  0  0  0  0
   37.5850   23.8910   31.2190 C   0  0  0  0  0  3  0  0  0  0  0  0
  1  7  1  0  0  0  0
  1  6  1  0  0  0  0
  2  1  2  0  0  0  0
  3  2  1  0  0  0  0
  3  4  2  0  0  0  0
  4  5  1  0  0  0  0
  5  6  2  0  0  0  0
  5 11  1  0  0  0  0
  8  3  1  0  0  0  0
  9 10  1  0  0  0  0
 10 15  1  0  0  0  0
 11 10  2  0  0  0  0
 11 12  1  0  0  0  0
 12 13  2  0  0  0  0
 13 14  1  0  0  0  0
 13 17  1  0  0  0  0
 14 18  1  0  0  0  0
 15 19  1  0  0  0  0
 15 14  2  0  0  0  0
 16 12  1  0  0  0  0
 20  2  1  0  0  0  0
 22 21  1  0  0  0  0
 23 22  1  0  0  0  0
 23 20  1  0  0  0  0
 24 23  2  0  0  0  0
 25 24  1  0  0  0  0
 26 28  2  0  0  0  0
 26 24  1  0  0  0  0
 27 26  1  0  0  0  0
 28 29  1  0  0  0  0
 29 22  2  0  0  0  0
M  END
>  <minimizedAffinity>
-5.51451397

$$$$

 OpenBabel03272500003D

 29 31  0  0  0  0  0  0  0  0999 V2000
   39.2120   26.0600   33.8090 C   0  0  0  0  0  0  0  0  0  0  0  0
   38.5160   24.8390   33.7530 C   0  0  0  0  0  0  0  0  0  0  0  0
   37.3410   24.7780   32.9970 C   0  0  0  0  0  0  0  0  0  0  0  0
   36.9230   25.9140   32.3460 N   0  0  0  0  0  0  0  0  0  0  0  0
   37.6220   27.0680   32.4260 C   0  0  0  0  0  0  0  0  0  0  0  0
   38.7750   27.1430   33.1630 N   0  0  0  0  0  0  0  0  0  0  0  0
   40.1250   26.1550   34.3800 H   0  0  0  0  0  0  0  0  0  0  0  0
   36.7840   23.8640   32.9310 H   0  0  0  0  0  0  0  0  0  0  0  0
   35.7920   28.9120   34.1570 Br  0  0  0  0  0  0  0  0  0  0  0  0
   36.3850   29.1960   32.3710 C   0  0  0  0  0  0  0  0  0  0  0  0
   37.1930   28.2850   31.7410 C   0  0  0  0  0  0  0  0  0  0  0  0
   37.5760   28.5700   30.4470 C   0  0  0  0  0  0  0  0  0  0  0  0
   37.2050   29.6980   29.7510 C   0  0  0  0  0  0  0  0  0  0  0  0
   36.3930   30.5880   30.4200 C   0  0  0  0  0  0  0  0  0  0  0  0
   35.9810   30.3340   31.7370 C   0  0  0  0  0  0  0  0  0  0  0  0
   38.2190   27.8520   29.9400 H   0  0  0  0  0  0  0  0  0  0  0  0
   37.5200   29.8970   28.7340 H   0  0  0  0  0  0  0  0  0  0  0  0
   36.0360   31.5160   29.9650 H   0  0  0  0  0  0  0  0  0  0  0  0
   35.3450   31.0570   32.2230 H   0  0  0  0  0  0  0  0  0  0  0  0
   38.9800   23.7240   34.4280 O   0  0  0  0  0  0  0  0  0  0  0  0
   40.8850   22.3630   35.8520 F   0  0  0  0  0  0  0  0  0  0  0  0
   39.8420   22.9900   36.4560 C   0  0  0  0  0  0  0  0  0  0  0  0
   38.8290   23.7050   35.8080 C   0  0  0  0  0  0  0  0  0  0  0  0
   37.8340   24.2880   36.5650 C   0  0  0  0  0  0  0  0  0  0  0  0
   37.0940   24.8210   35.9820 H   0  0  0  0  0  0  0  0  0  0  0  0
   37.8420   24.1650   37.9390 C   0  0  0  0  0  0  0  0  0  0  0  0
   37.0390   24.6420   38.4860 H   0  0  0  0  0  0  0  0  0  0  0  0
   38.8390   23.4600   38.6020 C   0  0  0  0  0  3  0  0  0  0  0  0
   39.8450   22.8700   37.8340 C   0  0  0  0  0  3  0  0  0  0  0  0
  1  7  1  0  0  0  0
  2  1  1  0  0  0  0
  2 20  1  0  0  0  0
  3  2  2  0  0  0  0
  4  5  2  0  0  0  0
  4  3  1  0  0  0  0
  5  6  1  0  0  0  0
  6  1  2  0  0  0  0
  8  3  1  0  0  0  0
 10  9  1  0  0  0  0
 11 10  1  0  0  0  0
 11  5  1  0  0  0  0
 12 11  2  0  0  0  0
 13 14  2  0  0  0  0
 13 12  1  0  0  0  0
 14 15  1  0  0  0  0
 15 19  1  0  0  0  0
 15 10  2  0  0  0  0
 16 12  1  0  0  0  0
 17 13  1  0  0  0  0
 18 14  1  0  0  0  0
 20 23  1  0  0  0  0
 21 22  1  0  0  0  0
 22 29  1  0  0  0  0
 23 22  2  0  0  0  0
 23 24  1  0  0  0  0
 24 26  2  0  0  0  0
 25 24  1  0  0  0  0
 26 27  1  0  0  0  0
 26 28  1  0  0  0  0
 29 28  2  0  0  0  0
M  END
>  <minimizedAffinity>
-5.41285086

$$$$

 OpenBabel03272500003D

 29 31  0  0  0  0  0  0  0  0999 V2000
   37.8520   25.5120   32.3340 C   0  0  0  0  0  0  0  0  0  0  0  0
   36.9640   24.7080   31.5970 C   0  0  0  0  0  0  0  0  0  0  0  0
   35.7760   25.2830   31.1340 C   0  0  0  0  0  0  0  0  0  0  0  0
   35.5340   26.6040   31.4220 N   0  0  0  0  0  0  0  0  0  0  0  0
   36.4140   27.3420   32.1340 C   0  0  0  0  0  0  0  0  0  0  0  0
   37.5820   26.7930   32.5940 N   0  0  0  0  0  0  0  0  0  0  0  0
   38.7830   25.1120   32.7120 H   0  0  0  0  0  0  0  0  0  0  0  0
   35.0750   24.7000   30.5690 H   0  0  0  0  0  0  0  0  0  0  0  0
   37.1530   29.3000   29.8170 Br  0  0  0  0  0  0  0  0  0  0  0  0
   36.4480   29.7290   31.5320 C   0  0  0  0  0  0  0  0  0  0  0  0
   36.1730   28.7480   32.4490 C   0  0  0  0  0  0  0  0  0  0  0  0
   35.6650   29.1480   33.6680 C   0  0  0  0  0  0  0  0  0  0  0  0
   35.4170   30.4550   34.0220 C   0  0  0  0  0  0  0  0  0  0  0  0
   35.7080   31.4100   33.0720 C   0  0  0  0  0  0  0  0  0  0  0  0
   36.2260   31.0430   31.8210 C   0  0  0  0  0  0  0  0  0  0  0  0
   35.4420   28.3750   34.4010 H   0  0  0  0  0  0  0  0  0  0  0  0
   35.0170   30.7420   34.9870 H   0  0  0  0  0  0  0  0  0  0  0  0
   35.5510   32.4780   33.2450 H   0  0  0  0  0  0  0  0  0  0  0  0
   36.4400   31.8240   31.1070 H   0  0  0  0  0  0  0  0  0  0  0  0
   37.2560   23.3820   31.3350 O   0  0  0  0  0  0  0  0  0  0  0  0
   35.1120   21.8860   30.5140 F   0  0  0  0  0  0  0  0  0  0  0  0
   35.6860   21.7170   31.7340 C   0  0  0  0  0  0  0  0  0  0  0  0
   36.7790   22.4340   32.2310 C   0  0  0  0  0  0  0  0  0  0  0  0
   37.2480   22.1440   33.4960 C   0  0  0  0  0  0  0  0  0  0  0  0
   38.0950   22.7460   33.7990 H   0  0  0  0  0  0  0  0  0  0  0  0
   36.6460   21.1610   34.2530 C   0  0  0  0  0  0  0  0  0  0  0  0
   37.0540   20.9720   35.2380 H   0  0  0  0  0  0  0  0  0  0  0  0
   35.5600   20.4370   33.7780 C   0  0  0  0  0  3  0  0  0  0  0  0
   35.0860   20.7330   32.4980 C   0  0  0  0  0  3  0  0  0  0  0  0
  1  6  1  0  0  0  0
  1  7  1  0  0  0  0
  2  1  2  0  0  0  0
  3  4  2  0  0  0  0
  3  2  1  0  0  0  0
  4  5  1  0  0  0  0
  5 11  1  0  0  0  0
  5  6  2  0  0  0  0
  8  3  1  0  0  0  0
  9 10  1  0  0  0  0
 10 15  2  0  0  0  0
 10 11  1  0  0  0  0
 11 12  2  0  0  0  0
 12 13  1  0  0  0  0
 12 16  1  0  0  0  0
 13 17  1  0  0  0  0
 14 18  1  0  0  0  0
 14 13  2  0  0  0  0
 15 14  1  0  0  0  0
 19 15  1  0  0  0  0
 20  2  1  0  0  0  0
 20 23  1  0  0  0  0
 21 22  1  0  0  0  0
 22 23  2  0  0  0  0
 22 29  1  0  0  0  0
 23 24  1  0  0  0  0
 24 25  1  0  0  0  0
 24 26  2  0  0  0  0
 26 27  1  0  0  0  0
 28 26  1  0  0  0  0
 29 28  2  0  0  0  0
M  END
>  <minimizedAffinity>
-5.34754896

$$$$

 OpenBabel03272500003D

 29 31  0  0  0  0  0  0  0  0999 V2000
   37.8790   25.6090   32.2290 C   0  0  0  0  0  0  0  0  0  0  0  0
   36.9780   24.8060   31.5040 C   0  0  0  0  0  0  0  0  0  0  0  0
   35.7450   25.3550   31.1400 C   0  0  0  0  0  0  0  0  0  0  0  0
   35.4720   26.6510   31.5060 N   0  0  0  0  0  0  0  0  0  0  0  0
   36.3660   27.3880   32.2020 C   0  0  0  0  0  0  0  0  0  0  0  0
   37.5790   26.8650   32.5670 N   0  0  0  0  0  0  0  0  0  0  0  0
   38.8440   25.2280   32.5320 H   0  0  0  0  0  0  0  0  0  0  0  0
   35.0330   24.7720   30.5870 H   0  0  0  0  0  0  0  0  0  0  0  0
   37.0000   29.4910   29.9830 Br  0  0  0  0  0  0  0  0  0  0  0  0
   36.3210   29.8050   31.7340 C   0  0  0  0  0  0  0  0  0  0  0  0
   36.0930   28.7680   32.6000 C   0  0  0  0  0  0  0  0  0  0  0  0
   35.6000   29.0850   33.8490 C   0  0  0  0  0  0  0  0  0  0  0  0
   35.3250   30.3630   34.2800 C   0  0  0  0  0  0  0  0  0  0  0  0
   35.5680   31.3770   33.3790 C   0  0  0  0  0  0  0  0  0  0  0  0
   36.0690   31.0940   32.0990 C   0  0  0  0  0  0  0  0  0  0  0  0
   35.4150   28.2670   34.5420 H   0  0  0  0  0  0  0  0  0  0  0  0
   34.9370   30.5840   35.2670 H   0  0  0  0  0  0  0  0  0  0  0  0
   35.3860   32.4290   33.6140 H   0  0  0  0  0  0  0  0  0  0  0  0
   36.2460   31.9190   31.4260 H   0  0  0  0  0  0  0  0  0  0  0  0
   37.3020   23.5060   31.1610 O   0  0  0  0  0  0  0  0  0  0  0  0
   38.2210   22.7140   33.6180 F   0  0  0  0  0  0  0  0  0  0  0  0
   37.1350   22.1440   33.0350 C   0  0  0  0  0  0  0  0  0  0  0  0
   36.6000   22.4860   31.7890 C   0  0  0  0  0  0  0  0  0  0  0  0
   35.4860   21.8110   31.3330 C   0  0  0  0  0  0  0  0  0  0  0  0
   35.1410   22.1400   30.3610 H   0  0  0  0  0  0  0  0  0  0  0  0
   34.9140   20.8150   32.0970 C   0  0  0  0  0  0  0  0  0  0  0  0
   34.0420   20.3170   31.6920 H   0  0  0  0  0  0  0  0  0  0  0  0
   35.4300   20.4610   33.3370 C   0  0  0  0  0  3  0  0  0  0  0  0
   36.5560   21.1450   33.7970 C   0  0  0  0  0  3  0  0  0  0  0  0
  1  7  1  0  0  0  0
  1  6  1  0  0  0  0
  2  1  2  0  0  0  0
  3  2  1  0  0  0  0
  3  4  2  0  0  0  0
  4  5  1  0  0  0  0
  5  6  2  0  0  0  0
  5 11  1  0  0  0  0
  8  3  1  0  0  0  0
  9 10  1  0  0  0  0
 10 15  2  0  0  0  0
 10 11  1  0  0  0  0
 11 12  2  0  0  0  0
 12 13  1  0  0  0  0
 12 16  1  0  0  0  0
 13 17  1  0  0  0  0
 14 18  1  0  0  0  0
 14 13  2  0  0  0  0
 15 14  1  0  0  0  0
 19 15  1  0  0  0  0
 20  2  1  0  0  0  0
 20 23  1  0  0  0  0
 22 21  1  0  0  0  0
 22 29  1  0  0  0  0
 23 22  2  0  0  0  0
 24 23  1  0  0  0  0
 24 26  2  0  0  0  0
 25 24  1  0  0  0  0
 26 28  1  0  0  0  0
 27 26  1  0  0  0  0
 28 29  2  0  0  0  0
M  END
>  <minimizedAffinity>
-5.30339003

$$$$

 OpenBabel03272500003D

 29 31  0  0  0  0  0  0  0  0999 V2000
   39.1530   26.1200   33.9170 C   0  0  0  0  0  0  0  0  0  0  0  0
   38.5150   24.8730   33.7900 C   0  0  0  0  0  0  0  0  0  0  0  0
   37.3750   24.7880   32.9850 C   0  0  0  0  0  0  0  0  0  0  0  0
   36.9330   25.9270   32.3570 N   0  0  0  0  0  0  0  0  0  0  0  0
   37.5750   27.1070   32.5050 C   0  0  0  0  0  0  0  0  0  0  0  0
   38.6940   27.2060   33.2900 N   0  0  0  0  0  0  0  0  0  0  0  0
   40.0380   26.2340   34.5280 H   0  0  0  0  0  0  0  0  0  0  0  0
   36.8630   23.8530   32.8650 H   0  0  0  0  0  0  0  0  0  0  0  0
   38.9120   27.6150   29.7290 Br  0  0  0  0  0  0  0  0  0  0  0  0
   37.6150   28.6880   30.6180 C   0  0  0  0  0  0  0  0  0  0  0  0
   37.1200   28.3280   31.8450 C   0  0  0  0  0  0  0  0  0  0  0  0
   36.1830   29.1640   32.4170 C   0  0  0  0  0  0  0  0  0  0  0  0
   35.7160   30.3250   31.8450 C   0  0  0  0  0  0  0  0  0  0  0  0
   36.2390   30.6510   30.6120 C   0  0  0  0  0  0  0  0  0  0  0  0
   37.1940   29.8270   29.9970 C   0  0  0  0  0  0  0  0  0  0  0  0
   35.7840   28.8840   33.3900 H   0  0  0  0  0  0  0  0  0  0  0  0
   34.9790   30.9640   32.3160 H   0  0  0  0  0  0  0  0  0  0  0  0
   35.9410   31.5500   30.0650 H   0  0  0  0  0  0  0  0  0  0  0  0
   37.5780   30.1210   29.0320 H   0  0  0  0  0  0  0  0  0  0  0  0
   39.0020   23.7560   34.4450 O   0  0  0  0  0  0  0  0  0  0  0  0
   40.9120   22.3810   35.8490 F   0  0  0  0  0  0  0  0  0  0  0  0
   39.8620   22.9860   36.4610 C   0  0  0  0  0  0  0  0  0  0  0  0
   38.8460   23.7060   35.8250 C   0  0  0  0  0  0  0  0  0  0  0  0
   37.8430   24.2650   36.5900 C   0  0  0  0  0  0  0  0  0  0  0  0
   37.1000   24.8030   36.0150 H   0  0  0  0  0  0  0  0  0  0  0  0
   37.8460   24.1130   37.9610 C   0  0  0  0  0  0  0  0  0  0  0  0
   37.0370   24.5710   38.5140 H   0  0  0  0  0  0  0  0  0  0  0  0
   38.8460   23.4020   38.6120 C   0  0  0  0  0  3  0  0  0  0  0  0
   39.8600   22.8380   37.8360 C   0  0  0  0  0  3  0  0  0  0  0  0
  1  7  1  0  0  0  0
  2  1  1  0  0  0  0
  2 20  1  0  0  0  0
  3  2  2  0  0  0  0
  4  5  2  0  0  0  0
  4  3  1  0  0  0  0
  5  6  1  0  0  0  0
  6  1  2  0  0  0  0
  8  3  1  0  0  0  0
  9 10  1  0  0  0  0
 10 11  1  0  0  0  0
 11 12  2  0  0  0  0
 11  5  1  0  0  0  0
 12 16  1  0  0  0  0
 13 17  1  0  0  0  0
 13 12  1  0  0  0  0
 14 13  2  0  0  0  0
 15 14  1  0  0  0  0
 15 10  2  0  0  0  0
 18 14  1  0  0  0  0
 19 15  1  0  0  0  0
 20 23  1  0  0  0  0
 21 22  1  0  0  0  0
 22 29  1  0  0  0  0
 23 22  2  0  0  0  0
 23 24  1  0  0  0  0
 24 26  2  0  0  0  0
 25 24  1  0  0  0  0
 26 27  1  0  0  0  0
 26 28  1  0  0  0  0
 29 28  2  0  0  0  0
M  END
>  <minimizedAffinity>
-5.29856777

$$$$

 OpenBabel03272500003D

 29 31  0  0  0  0  0  0  0  0999 V2000
   37.7770   25.0680   33.1290 C   0  0  0  0  0  0  0  0  0  0  0  0
   37.3570   26.0840   32.2510 C   0  0  0  0  0  0  0  0  0  0  0  0
   36.5510   25.7320   31.1640 C   0  0  0  0  0  0  0  0  0  0  0  0
   36.2080   24.4110   31.0060 N   0  0  0  0  0  0  0  0  0  0  0  0
   36.6320   23.4650   31.8730 C   0  0  0  0  0  0  0  0  0  0  0  0
   37.4230   23.7940   32.9430 N   0  0  0  0  0  0  0  0  0  0  0  0
   38.4010   25.2920   33.9830 H   0  0  0  0  0  0  0  0  0  0  0  0
   36.2120   26.4800   30.4740 H   0  0  0  0  0  0  0  0  0  0  0  0
   38.7170   21.8070   30.2450 Br  0  0  0  0  0  0  0  0  0  0  0  0
   37.0940   21.1980   31.0310 C   0  0  0  0  0  0  0  0  0  0  0  0
   36.2780   22.0560   31.7210 C   0  0  0  0  0  0  0  0  0  0  0  0
   35.1200   21.5300   32.2580 C   0  0  0  0  0  0  0  0  0  0  0  0
   34.7330   20.2140   32.1480 C   0  0  0  0  0  0  0  0  0  0  0  0
   35.5820   19.3850   31.4460 C   0  0  0  0  0  0  0  0  0  0  0  0
   36.7680   19.8820   30.8850 C   0  0  0  0  0  0  0  0  0  0  0  0
   34.4670   22.2050   32.8090 H   0  0  0  0  0  0  0  0  0  0  0  0
   33.8180   19.8270   32.5800 H   0  0  0  0  0  0  0  0  0  0  0  0
   35.3750   18.3220   31.2960 H   0  0  0  0  0  0  0  0  0  0  0  0
   37.4030   19.1980   30.3430 H   0  0  0  0  0  0  0  0  0  0  0  0
   37.7320   27.4000   32.4560 O   0  0  0  0  0  0  0  0  0  0  0  0
   36.6890   27.6880   34.9730 F   0  0  0  0  0  0  0  0  0  0  0  0
   36.2430   28.4190   33.9190 C   0  0  0  0  0  0  0  0  0  0  0  0
   36.7170   28.3370   32.6060 C   0  0  0  0  0  0  0  0  0  0  0  0
   36.1590   29.1510   31.6420 C   0  0  0  0  0  0  0  0  0  0  0  0
   36.5870   29.0200   30.6550 H   0  0  0  0  0  0  0  0  0  0  0  0
   35.1500   30.0310   31.9730 C   0  0  0  0  0  0  0  0  0  0  0  0
   34.7470   30.6470   31.1790 H   0  0  0  0  0  0  0  0  0  0  0  0
   34.6650   30.1280   33.2710 C   0  0  0  0  0  3  0  0  0  0  0  0
   35.2310   29.3030   34.2440 C   0  0  0  0  0  3  0  0  0  0  0  0
  1  7  1  0  0  0  0
  2 20  1  0  0  0  0
  2  1  2  0  0  0  0
  3  2  1  0  0  0  0
  4  3  2  0  0  0  0
  4  5  1  0  0  0  0
  5  6  2  0  0  0  0
  6  1  1  0  0  0  0
  8  3  1  0  0  0  0
  9 10  1  0  0  0  0
 10 11  1  0  0  0  0
 11  5  1  0  0  0  0
 11 12  2  0  0  0  0
 12 16  1  0  0  0  0
 13 12  1  0  0  0  0
 13 17  1  0  0  0  0
 14 13  2  0  0  0  0
 15 10  2  0  0  0  0
 15 14  1  0  0  0  0
 18 14  1  0  0  0  0
 19 15  1  0  0  0  0
 20 23  1  0  0  0  0
 22 29  1  0  0  0  0
 22 21  1  0  0  0  0
 23 22  2  0  0  0  0
 24 26  2  0  0  0  0
 24 23  1  0  0  0  0
 25 24  1  0  0  0  0
 26 28  1  0  0  0  0
 27 26  1  0  0  0  0
 28 29  2  0  0  0  0
M  END
>  <minimizedAffinity>
-5.23892975

$$$$

 OpenBabel03272500003D

 29 31  0  0  0  0  0  0  0  0999 V2000
   37.0780   28.2450   35.2580 C   0  0  0  0  0  0  0  0  0  0  0  0
   36.4900   28.3620   33.9860 C   0  0  0  0  0  0  0  0  0  0  0  0
   36.6650   27.3150   33.0750 C   0  0  0  0  0  0  0  0  0  0  0  0
   37.4020   26.2240   33.4660 N   0  0  0  0  0  0  0  0  0  0  0  0
   37.9510   26.1520   34.6990 C   0  0  0  0  0  0  0  0  0  0  0  0
   37.7880   27.1690   35.6030 N   0  0  0  0  0  0  0  0  0  0  0  0
   36.9700   29.0280   35.9960 H   0  0  0  0  0  0  0  0  0  0  0  0
   36.2310   27.3700   32.0950 H   0  0  0  0  0  0  0  0  0  0  0  0
   41.0310   26.5230   34.3470 Br  0  0  0  0  0  0  0  0  0  0  0  0
   40.1060   25.0110   35.0410 C   0  0  0  0  0  0  0  0  0  0  0  0
   38.7380   25.0000   35.1330 C   0  0  0  0  0  0  0  0  0  0  0  0
   38.1500   23.8630   35.6480 C   0  0  0  0  0  0  0  0  0  0  0  0
   38.8370   22.7480   36.0720 C   0  0  0  0  0  0  0  0  0  0  0  0
   40.2100   22.8010   35.9630 C   0  0  0  0  0  0  0  0  0  0  0  0
   40.8460   23.9380   35.4440 C   0  0  0  0  0  0  0  0  0  0  0  0
   37.0640   23.8470   35.7250 H   0  0  0  0  0  0  0  0  0  0  0  0
   38.3490   21.8680   36.4730 H   0  0  0  0  0  0  0  0  0  0  0  0
   40.8560   21.9730   36.2690 H   0  0  0  0  0  0  0  0  0  0  0  0
   41.9230   23.9360   35.3760 H   0  0  0  0  0  0  0  0  0  0  0  0
   35.7570   29.4830   33.6420 O   0  0  0  0  0  0  0  0  0  0  0  0
   33.0990   29.1530   34.2210 F   0  0  0  0  0  0  0  0  0  0  0  0
   33.8850   30.0240   34.9060 C   0  0  0  0  0  0  0  0  0  0  0  0
   35.2450   30.2540   34.6780 C   0  0  0  0  0  0  0  0  0  0  0  0
   35.9080   31.1750   35.4630 C   0  0  0  0  0  0  0  0  0  0  0  0
   36.9560   31.2880   35.2170 H   0  0  0  0  0  0  0  0  0  0  0  0
   35.2340   31.8560   36.4560 C   0  0  0  0  0  0  0  0  0  0  0  0
   35.8010   32.5670   37.0430 H   0  0  0  0  0  0  0  0  0  0  0  0
   33.8840   31.6420   36.6980 C   0  0  0  0  0  3  0  0  0  0  0  0
   33.2150   30.7090   35.9030 C   0  0  0  0  0  3  0  0  0  0  0  0
  1  6  1  0  0  0  0
  1  7  1  0  0  0  0
  2  1  2  0  0  0  0
  3  4  2  0  0  0  0
  3  2  1  0  0  0  0
  4  5  1  0  0  0  0
  5 11  1  0  0  0  0
  5  6  2  0  0  0  0
  8  3  1  0  0  0  0
  9 10  1  0  0  0  0
 10 11  2  0  0  0  0
 10 15  1  0  0  0  0
 11 12  1  0  0  0  0
 12 16  1  0  0  0  0
 12 13  2  0  0  0  0
 13 17  1  0  0  0  0
 14 13  1  0  0  0  0
 14 18  1  0  0  0  0
 15 14  2  0  0  0  0
 19 15  1  0  0  0  0
 20  2  1  0  0  0  0
 20 23  1  0  0  0  0
 21 22  1  0  0  0  0
 22 29  1  0  0  0  0
 23 22  2  0  0  0  0
 23 24  1  0  0  0  0
 24 26  2  0  0  0  0
 25 24  1  0  0  0  0
 26 28  1  0  0  0  0
 26 27  1  0  0  0  0
 29 28  2  0  0  0  0
M  END
>  <minimizedAffinity>
-5.22188568

$$$$

 OpenBabel03272500003D

 29 31  0  0  0  0  0  0  0  0999 V2000
   36.4040   25.6310   31.0620 C   0  0  0  0  0  0  0  0  0  0  0  0
   37.2590   26.1260   32.0630 C   0  0  0  0  0  0  0  0  0  0  0  0
   37.7970   25.2210   32.9840 C   0  0  0  0  0  0  0  0  0  0  0  0
   37.4640   23.8940   32.8670 N   0  0  0  0  0  0  0  0  0  0  0  0
   36.6370   23.4590   31.8900 C   0  0  0  0  0  0  0  0  0  0  0  0
   36.1030   24.3330   30.9800 N   0  0  0  0  0  0  0  0  0  0  0  0
   35.9640   26.2920   30.3280 H   0  0  0  0  0  0  0  0  0  0  0  0
   38.4530   25.5630   33.7610 H   0  0  0  0  0  0  0  0  0  0  0  0
   38.7070   21.7730   30.2710 Br  0  0  0  0  0  0  0  0  0  0  0  0
   37.0810   21.1820   31.0650 C   0  0  0  0  0  0  0  0  0  0  0  0
   36.2720   22.0510   31.7500 C   0  0  0  0  0  0  0  0  0  0  0  0
   35.1120   21.5380   32.2930 C   0  0  0  0  0  0  0  0  0  0  0  0
   34.7150   20.2250   32.1950 C   0  0  0  0  0  0  0  0  0  0  0  0
   35.5570   19.3840   31.4980 C   0  0  0  0  0  0  0  0  0  0  0  0
   36.7450   19.8670   30.9310 C   0  0  0  0  0  0  0  0  0  0  0  0
   34.4650   22.2220   32.8400 H   0  0  0  0  0  0  0  0  0  0  0  0
   33.7990   19.8480   32.6320 H   0  0  0  0  0  0  0  0  0  0  0  0
   35.3420   18.3210   31.3570 H   0  0  0  0  0  0  0  0  0  0  0  0
   37.3740   19.1740   30.3930 H   0  0  0  0  0  0  0  0  0  0  0  0
   37.5620   27.4730   32.1360 O   0  0  0  0  0  0  0  0  0  0  0  0
   36.1960   29.0380   30.3490 F   0  0  0  0  0  0  0  0  0  0  0  0
   35.9460   29.0790   31.6830 C   0  0  0  0  0  0  0  0  0  0  0  0
   36.5930   28.3180   32.6620 C   0  0  0  0  0  0  0  0  0  0  0  0
   36.2240   28.4750   33.9820 C   0  0  0  0  0  0  0  0  0  0  0  0
   36.7760   27.8470   34.6700 H   0  0  0  0  0  0  0  0  0  0  0  0
   35.2310   29.3690   34.3260 C   0  0  0  0  0  0  0  0  0  0  0  0
   34.9800   29.4530   35.3760 H   0  0  0  0  0  0  0  0  0  0  0  0
   34.5760   30.1340   33.3690 C   0  0  0  0  0  3  0  0  0  0  0  0
   34.9520   29.9740   32.0340 C   0  0  0  0  0  3  0  0  0  0  0  0
  1  2  1  0  0  0  0
  2 20  1  0  0  0  0
  2  3  2  0  0  0  0
  3  8  1  0  0  0  0
  4  3  1  0  0  0  0
  5  4  2  0  0  0  0
  6  1  2  0  0  0  0
  6  5  1  0  0  0  0
  7  1  1  0  0  0  0
  9 10  1  0  0  0  0
 10 11  1  0  0  0  0
 11  5  1  0  0  0  0
 11 12  2  0  0  0  0
 12 16  1  0  0  0  0
 13 12  1  0  0  0  0
 13 17  1  0  0  0  0
 14 13  2  0  0  0  0
 15 10  2  0  0  0  0
 15 14  1  0  0  0  0
 18 14  1  0  0  0  0
 19 15  1  0  0  0  0
 20 23  1  0  0  0  0
 21 22  1  0  0  0  0
 22 29  2  0  0  0  0
 22 23  1  0  0  0  0
 23 24  2  0  0  0  0
 24 26  1  0  0  0  0
 24 25  1  0  0  0  0
 26 27  1  0  0  0  0
 28 26  2  0  0  0  0
 29 28  1  0  0  0  0
M  END
>  <minimizedAffinity>
-5.17128611

$$$$

 OpenBabel03272500003D

 29 31  0  0  0  0  0  0  0  0999 V2000
   39.2680   26.5570   33.6550 C   0  0  0  0  0  0  0  0  0  0  0  0
   38.1190   26.2220   32.9150 C   0  0  0  0  0  0  0  0  0  0  0  0
   37.5770   24.9430   33.0730 C   0  0  0  0  0  0  0  0  0  0  0  0
   38.1920   24.0750   33.9420 N   0  0  0  0  0  0  0  0  0  0  0  0
   39.2950   24.4360   34.6340 C   0  0  0  0  0  0  0  0  0  0  0  0
   39.8380   25.6860   34.4910 N   0  0  0  0  0  0  0  0  0  0  0  0
   39.7230   27.5340   33.5670 H   0  0  0  0  0  0  0  0  0  0  0  0
   36.7010   24.6530   32.5250 H   0  0  0  0  0  0  0  0  0  0  0  0
   37.9750   24.3270   37.4620 Br  0  0  0  0  0  0  0  0  0  0  0  0
   39.5000   23.3690   36.8440 C   0  0  0  0  0  0  0  0  0  0  0  0
   39.9630   23.5270   35.5630 C   0  0  0  0  0  0  0  0  0  0  0  0
   41.0730   22.7940   35.1990 C   0  0  0  0  0  0  0  0  0  0  0  0
   41.7440   21.9230   36.0270 C   0  0  0  0  0  0  0  0  0  0  0  0
   41.2470   21.7940   37.3070 C   0  0  0  0  0  0  0  0  0  0  0  0
   40.1190   22.5220   37.7150 C   0  0  0  0  0  0  0  0  0  0  0  0
   41.4460   22.9120   34.1830 H   0  0  0  0  0  0  0  0  0  0  0  0
   42.6140   21.3600   35.7150 H   0  0  0  0  0  0  0  0  0  0  0  0
   41.6990   21.1320   38.0490 H   0  0  0  0  0  0  0  0  0  0  0  0
   39.7640   22.3910   38.7260 H   0  0  0  0  0  0  0  0  0  0  0  0
   37.5390   27.1350   32.0530 O   0  0  0  0  0  0  0  0  0  0  0  0
   36.3670   28.8960   30.3110 F   0  0  0  0  0  0  0  0  0  0  0  0
   36.1580   28.9590   31.6520 C   0  0  0  0  0  0  0  0  0  0  0  0
   36.7140   28.1040   32.6090 C   0  0  0  0  0  0  0  0  0  0  0  0
   36.4040   28.2990   33.9390 C   0  0  0  0  0  0  0  0  0  0  0  0
   36.8770   27.5920   34.6080 H   0  0  0  0  0  0  0  0  0  0  0  0
   35.5580   29.3230   34.3140 C   0  0  0  0  0  0  0  0  0  0  0  0
   35.3470   29.4320   35.3700 H   0  0  0  0  0  0  0  0  0  0  0  0
   34.9960   30.1820   33.3790 C   0  0  0  0  0  3  0  0  0  0  0  0
   35.3120   29.9830   32.0330 C   0  0  0  0  0  3  0  0  0  0  0  0
  1  6  1  0  0  0  0
  2  3  1  0  0  0  0
  2  1  2  0  0  0  0
  3  4  2  0  0  0  0
  4  5  1  0  0  0  0
  5 11  1  0  0  0  0
  6  5  2  0  0  0  0
  7  1  1  0  0  0  0
  8  3  1  0  0  0  0
 10  9  1  0  0  0  0
 10 15  1  0  0  0  0
 11 10  2  0  0  0  0
 12 11  1  0  0  0  0
 12 13  2  0  0  0  0
 13 14  1  0  0  0  0
 14 15  2  0  0  0  0
 14 18  1  0  0  0  0
 15 19  1  0  0  0  0
 16 12  1  0  0  0  0
 17 13  1  0  0  0  0
 20 23  1  0  0  0  0
 20  2  1  0  0  0  0
 21 22  1  0  0  0  0
 22 29  2  0  0  0  0
 22 23  1  0  0  0  0
 23 24  2  0  0  0  0
 24 26  1  0  0  0  0
 24 25  1  0  0  0  0
 26 27  1  0  0  0  0
 28 26  2  0  0  0  0
 29 28  1  0  0  0  0
M  END
>  <minimizedAffinity>
-5.12268448

$$$$
