
 OpenBabel03272510133D

 41 44  0  0  0  0  0  0  0  0999 V2000
   38.4020   31.6750   48.9570 C   0  0  0  0  0  0  0  0  0  0  0  0
   38.5170   32.9230   49.5150 C   0  0  0  0  0  0  0  0  0  0  0  0
   39.1660   33.7330   48.5820 C   0  0  0  0  0  0  0  0  0  0  0  0
   39.4200   32.9810   47.5170 N   0  0  0  0  0  0  0  0  0  0  0  0
   38.9700   31.7890   47.7490 N   0  0  0  0  0  0  0  0  0  0  0  0
   38.2390   33.3880   50.4490 H   0  0  0  0  0  0  0  0  0  0  0  0
   39.4500   34.7780   48.6270 H   0  0  0  0  0  0  0  0  0  0  0  0
   40.0770   33.3740   46.2970 C   0  0  0  0  0  0  0  0  0  0  0  0
   39.5320   34.1890   45.7680 H   0  0  0  0  0  0  0  0  0  0  0  0
   41.0520   33.8220   46.5720 H   0  0  0  0  0  0  0  0  0  0  0  0
   40.2810   32.1700   45.4370 C   0  0  0  0  0  0  0  0  0  0  0  0
   41.3720   32.1930   45.1410 H   0  0  0  0  0  0  0  0  0  0  0  0
   40.2470   31.2870   46.1440 H   0  0  0  0  0  0  0  0  0  0  0  0
   41.0870   30.4730   43.3300 F   0  0  0  0  0  0  0  0  0  0  0  0
   39.8900   31.1500   43.3200 C   0  0  0  0  0  0  0  0  0  0  0  0
   39.3920   32.0130   44.2970 C   0  0  0  0  0  0  0  0  0  0  0  0
   38.1540   32.5700   44.0480 C   0  0  0  0  0  0  0  0  0  0  0  0
   37.7920   33.2220   44.8180 H   0  0  0  0  0  0  0  0  0  0  0  0
   37.4220   32.3120   42.9140 C   0  0  0  0  0  0  0  0  0  0  0  0
   36.4530   32.8240   42.8470 H   0  0  0  0  0  0  0  0  0  0  0  0
   37.9270   31.4600   41.9650 C   0  0  0  0  0  3  0  0  0  0  0  0
   39.1630   30.8790   42.1710 C   0  0  0  0  0  3  0  0  0  0  0  0
   37.7770   30.7350   49.7520 O   0  0  0  0  0  0  0  0  0  0  0  0
   34.2320   28.9510   48.3500 C   0  0  0  0  0  0  0  0  0  0  0  0
   34.9350   28.4110   49.3890 C   0  0  0  0  0  0  0  0  0  0  0  0
   36.0920   28.9400   49.8940 C   0  0  0  0  0  0  0  0  0  0  0  0
   36.6280   30.0720   49.3700 C   0  0  0  0  0  0  0  0  0  0  0  0
   35.9160   30.6360   48.3020 C   0  0  0  0  0  0  0  0  0  0  0  0
   34.7790   30.0950   47.8260 N   0  0  0  0  0  0  0  0  0  0  0  0
   34.5670   27.5070   49.8570 H   0  0  0  0  0  0  0  0  0  0  0  0
   36.6430   28.5000   50.7230 H   0  0  0  0  0  0  0  0  0  0  0  0
   36.2260   31.5350   47.7910 H   0  0  0  0  0  0  0  0  0  0  0  0
   32.2440   27.4560   48.4630 C   0  0  0  0  0  0  0  0  0  0  0  0
   33.0230   28.4210   47.8030 C   0  0  0  0  0  0  0  0  0  0  0  0
   32.5680   28.8460   46.5850 C   0  0  0  0  0  0  0  0  0  0  0  0
   31.4120   28.3380   46.0660 N   0  0  0  0  0  0  0  0  0  0  0  0
   30.6970   27.3990   46.7570 C   0  0  0  0  0  0  0  0  0  0  0  0
   31.1010   26.9470   47.9580 N   0  0  0  0  0  0  0  0  0  0  0  0
   32.5560   27.0840   49.4260 H   0  0  0  0  0  0  0  0  0  0  0  0
   33.1000   29.5940   45.9910 H   0  0  0  0  0  0  0  0  0  0  0  0
   29.8080   27.0960   46.2150 H   0  0  0  0  0  0  0  0  0  0  0  0
  1  2  1  0  0  0  0
  1 23  1  0  0  0  0
  2  6  1  0  0  0  0
  3  7  1  0  0  0  0
  3  2  2  0  0  0  0
  4  5  1  0  0  0  0
  4  3  1  0  0  0  0
  5  1  2  0  0  0  0
  8 10  1  0  0  0  0
  8  4  1  0  0  0  0
  9  8  1  0  0  0  0
 11 13  1  0  0  0  0
 11  8  1  0  0  0  0
 12 11  1  0  0  0  0
 15 14  1  0  0  0  0
 15 16  1  0  0  0  0
 16 11  1  0  0  0  0
 17 16  2  0  0  0  0
 17 18  1  0  0  0  0
 19 17  1  0  0  0  0
 20 19  1  0  0  0  0
 21 22  1  0  0  0  0
 21 19  2  0  0  0  0
 22 15  2  0  0  0  0
 24 25  1  0  0  0  0
 25 30  1  0  0  0  0
 25 26  2  0  0  0  0
 26 31  1  0  0  0  0
 27 23  1  0  0  0  0
 27 26  1  0  0  0  0
 28 27  2  0  0  0  0
 29 28  1  0  0  0  0
 29 24  2  0  0  0  0
 32 28  1  0  0  0  0
 33 39  1  0  0  0  0
 34 24  1  0  0  0  0
 34 33  2  0  0  0  0
 35 34  1  0  0  0  0
 36 35  2  0  0  0  0
 36 37  1  0  0  0  0
 37 38  2  0  0  0  0
 38 33  1  0  0  0  0
 40 35  1  0  0  0  0
 41 37  1  0  0  0  0
M  END
>  <minimizedAffinity>
-6.28190136

>  <minimizedRMSD>
1.43953931

$$$$
