
 OpenBabel03272502243D

 29 31  0  0  0  0  0  0  0  0999 V2000
   36.0920   29.9230   31.8320 C   0  0  0  0  0  0  0  0  0  0  0  0
   36.6500   28.6510   32.0270 C   0  0  0  0  0  0  0  0  0  0  0  0
   36.5270   28.0720   33.2690 C   0  0  0  0  0  0  0  0  0  0  0  0
   35.8770   28.7590   34.2340 N   0  0  0  0  0  0  0  0  0  0  0  0
   35.3450   29.9750   34.0390 C   0  0  0  0  0  0  0  0  0  0  0  0
   35.4560   30.5580   32.8310 N   0  0  0  0  0  0  0  0  0  0  0  0
   36.2020   30.3610   30.8420 H   0  0  0  0  0  0  0  0  0  0  0  0
   37.1640   28.0980   31.2810 H   0  0  0  0  0  0  0  0  0  0  0  0
   36.6920   31.7260   35.8350 F   0  0  0  0  0  0  0  0  0  0  0  0
   35.3790   31.4720   36.0050 C   0  0  0  0  0  0  0  0  0  0  0  0
   34.6660   30.6210   35.1560 C   0  0  0  0  0  0  0  0  0  0  0  0
   33.3230   30.3590   35.3310 C   0  0  0  0  0  0  0  0  0  0  0  0
   32.7750   29.6940   34.6630 H   0  0  0  0  0  0  0  0  0  0  0  0
   32.6620   30.9620   36.3830 C   0  0  0  0  0  0  0  0  0  0  0  0
   31.5920   30.7240   36.4830 H   0  0  0  0  0  0  0  0  0  0  0  0
   33.2910   31.8040   37.2540 C   0  0  0  0  0  3  0  0  0  0  0  0
   34.6460   32.0470   37.0490 C   0  0  0  0  0  3  0  0  0  0  0  0
   37.0580   26.7480   33.6210 C   0  0  0  0  0  0  0  0  0  0  0  0
   37.2930   25.7700   32.6730 C   0  0  0  0  0  0  0  0  0  0  0  0
   37.7930   24.5230   33.0100 C   0  0  0  0  0  0  0  0  0  0  0  0
   38.0660   24.2390   34.2940 N   0  0  0  0  0  0  0  0  0  0  0  0
   37.8360   25.1910   35.2000 C   0  0  0  0  0  0  0  0  0  0  0  0
   37.3510   26.4060   34.8910 N   0  0  0  0  0  0  0  0  0  0  0  0
   37.0830   25.9680   31.6280 H   0  0  0  0  0  0  0  0  0  0  0  0
   37.9550   23.7950   32.2120 H   0  0  0  0  0  0  0  0  0  0  0  0
   38.1240   24.9210   36.6300 C   0  0  0  0  0  0  0  0  0  0  0  0
   39.2580   24.1290   36.7120 F   0  0  0  0  0  0  0  0  0  0  0  0
   38.2840   26.1140   37.3380 F   0  0  0  0  0  0  0  0  0  0  0  0
   37.1130   24.2390   37.2360 F   0  0  0  0  0  0  0  0  0  0  0  0
  1  2  2  0  0  0  0
  1  6  1  0  0  0  0
  2  3  1  0  0  0  0
  3 18  1  0  0  0  0
  3  4  2  0  0  0  0
  5  4  1  0  0  0  0
  5 11  1  0  0  0  0
  6  5  2  0  0  0  0
  7  1  1  0  0  0  0
  8  2  1  0  0  0  0
  9 10  1  0  0  0  0
 10 17  1  0  0  0  0
 11 12  1  0  0  0  0
 11 10  2  0  0  0  0
 12 14  2  0  0  0  0
 13 12  1  0  0  0  0
 14 15  1  0  0  0  0
 14 16  1  0  0  0  0
 17 16  2  0  0  0  0
 18 23  1  0  0  0  0
 19 20  1  0  0  0  0
 19 18  2  0  0  0  0
 20 21  2  0  0  0  0
 21 22  1  0  0  0  0
 22 26  1  0  0  0  0
 23 22  2  0  0  0  0
 24 19  1  0  0  0  0
 25 20  1  0  0  0  0
 26 27  1  0  0  0  0
 26 29  1  0  0  0  0
 26 28  1  0  0  0  0
M  END
>  <minimizedAffinity>
-6.28663826

$$$$

 OpenBabel03272502243D

 29 31  0  0  0  0  0  0  0  0999 V2000
   36.1880   29.6860   31.6560 C   0  0  0  0  0  0  0  0  0  0  0  0
   36.7290   28.4140   31.8900 C   0  0  0  0  0  0  0  0  0  0  0  0
   36.6360   27.8930   33.1600 C   0  0  0  0  0  0  0  0  0  0  0  0
   36.0290   28.6350   34.1120 N   0  0  0  0  0  0  0  0  0  0  0  0
   35.5140   29.8510   33.8800 C   0  0  0  0  0  0  0  0  0  0  0  0
   35.5960   30.3780   32.6440 N   0  0  0  0  0  0  0  0  0  0  0  0
   36.2740   30.0770   30.6430 H   0  0  0  0  0  0  0  0  0  0  0  0
   37.2090   27.8180   31.1530 H   0  0  0  0  0  0  0  0  0  0  0  0
   32.7620   29.5180   34.5290 F   0  0  0  0  0  0  0  0  0  0  0  0
   33.5270   30.3550   35.2600 C   0  0  0  0  0  0  0  0  0  0  0  0
   34.8830   30.5580   34.9880 C   0  0  0  0  0  0  0  0  0  0  0  0
   35.6650   31.4150   35.7330 C   0  0  0  0  0  0  0  0  0  0  0  0
   36.7220   31.5670   35.5140 H   0  0  0  0  0  0  0  0  0  0  0  0
   35.0840   32.0940   36.7870 C   0  0  0  0  0  0  0  0  0  0  0  0
   35.7470   32.7660   37.3540 H   0  0  0  0  0  0  0  0  0  0  0  0
   33.7670   31.9470   37.1130 C   0  0  0  0  0  3  0  0  0  0  0  0
   33.0060   31.0750   36.3400 C   0  0  0  0  0  3  0  0  0  0  0  0
   37.1550   26.5760   33.5540 C   0  0  0  0  0  0  0  0  0  0  0  0
   37.4190   25.5800   32.6330 C   0  0  0  0  0  0  0  0  0  0  0  0
   37.9080   24.3390   33.0100 C   0  0  0  0  0  0  0  0  0  0  0  0
   38.1380   24.0800   34.3070 N   0  0  0  0  0  0  0  0  0  0  0  0
   37.8790   25.0490   35.1870 C   0  0  0  0  0  0  0  0  0  0  0  0
   37.4050   26.2580   34.8390 N   0  0  0  0  0  0  0  0  0  0  0  0
   37.2440   25.7580   31.5790 H   0  0  0  0  0  0  0  0  0  0  0  0
   38.0960   23.5970   32.2320 H   0  0  0  0  0  0  0  0  0  0  0  0
   38.1190   24.8070   36.6310 C   0  0  0  0  0  0  0  0  0  0  0  0
   39.2540   24.0220   36.7660 F   0  0  0  0  0  0  0  0  0  0  0  0
   38.2490   26.0130   37.3220 F   0  0  0  0  0  0  0  0  0  0  0  0
   37.0910   24.1300   37.2140 F   0  0  0  0  0  0  0  0  0  0  0  0
  1  2  2  0  0  0  0
  1  6  1  0  0  0  0
  2  3  1  0  0  0  0
  3 18  1  0  0  0  0
  3  4  2  0  0  0  0
  5  4  1  0  0  0  0
  5 11  1  0  0  0  0
  6  5  2  0  0  0  0
  7  1  1  0  0  0  0
  8  2  1  0  0  0  0
  9 10  1  0  0  0  0
 10 17  1  0  0  0  0
 11 10  2  0  0  0  0
 11 12  1  0  0  0  0
 12 14  2  0  0  0  0
 13 12  1  0  0  0  0
 14 16  1  0  0  0  0
 14 15  1  0  0  0  0
 17 16  2  0  0  0  0
 18 23  1  0  0  0  0
 19 20  1  0  0  0  0
 19 18  2  0  0  0  0
 20 21  2  0  0  0  0
 21 22  1  0  0  0  0
 22 26  1  0  0  0  0
 23 22  2  0  0  0  0
 24 19  1  0  0  0  0
 25 20  1  0  0  0  0
 26 27  1  0  0  0  0
 26 29  1  0  0  0  0
 26 28  1  0  0  0  0
M  END
>  <minimizedAffinity>
-6.19544697

$$$$

 OpenBabel03272502243D

 29 31  0  0  0  0  0  0  0  0999 V2000
   37.8710   24.5200   30.6000 C   0  0  0  0  0  0  0  0  0  0  0  0
   38.1130   25.2310   31.7840 C   0  0  0  0  0  0  0  0  0  0  0  0
   37.7940   24.6300   32.9800 C   0  0  0  0  0  0  0  0  0  0  0  0
   37.2640   23.3870   32.9490 N   0  0  0  0  0  0  0  0  0  0  0  0
   37.0360   22.7130   31.8120 C   0  0  0  0  0  0  0  0  0  0  0  0
   37.3420   23.2860   30.6320 N   0  0  0  0  0  0  0  0  0  0  0  0
   38.1320   25.0160   29.6670 H   0  0  0  0  0  0  0  0  0  0  0  0
   38.5290   26.2080   31.8270 H   0  0  0  0  0  0  0  0  0  0  0  0
   38.6360   20.3590   31.7860 F   0  0  0  0  0  0  0  0  0  0  0  0
   37.2950   20.2560   31.8860 C   0  0  0  0  0  0  0  0  0  0  0  0
   36.4600   21.3770   31.9020 C   0  0  0  0  0  0  0  0  0  0  0  0
   35.0880   21.2730   32.0030 C   0  0  0  0  0  0  0  0  0  0  0  0
   34.4440   22.1530   32.0150 H   0  0  0  0  0  0  0  0  0  0  0  0
   34.5230   20.0150   32.0900 C   0  0  0  0  0  0  0  0  0  0  0  0
   33.4260   19.9810   32.1690 H   0  0  0  0  0  0  0  0  0  0  0  0
   35.2750   18.8760   32.0790 C   0  0  0  0  0  3  0  0  0  0  0  0
   36.6560   19.0160   31.9770 C   0  0  0  0  0  3  0  0  0  0  0  0
   37.9900   25.2500   34.2970 C   0  0  0  0  0  0  0  0  0  0  0  0
   38.2050   26.6070   34.4500 C   0  0  0  0  0  0  0  0  0  0  0  0
   38.3910   27.1870   35.6950 C   0  0  0  0  0  0  0  0  0  0  0  0
   38.3630   26.4210   36.7980 N   0  0  0  0  0  0  0  0  0  0  0  0
   38.1540   25.1130   36.6370 C   0  0  0  0  0  0  0  0  0  0  0  0
   37.9730   24.5340   35.4380 N   0  0  0  0  0  0  0  0  0  0  0  0
   38.2340   27.2520   33.5800 H   0  0  0  0  0  0  0  0  0  0  0  0
   38.5560   28.2650   35.7460 H   0  0  0  0  0  0  0  0  0  0  0  0
   38.1140   24.2290   37.8280 C   0  0  0  0  0  0  0  0  0  0  0  0
   37.0910   23.3090   37.6620 F   0  0  0  0  0  0  0  0  0  0  0  0
   39.3440   23.5950   38.0160 F   0  0  0  0  0  0  0  0  0  0  0  0
   37.8510   24.9210   38.9710 F   0  0  0  0  0  0  0  0  0  0  0  0
  1  6  2  0  0  0  0
  1  2  1  0  0  0  0
  2  8  1  0  0  0  0
  2  3  2  0  0  0  0
  3 18  1  0  0  0  0
  4  3  1  0  0  0  0
  5 11  1  0  0  0  0
  5  4  2  0  0  0  0
  6  5  1  0  0  0  0
  7  1  1  0  0  0  0
  9 10  1  0  0  0  0
 10 11  2  0  0  0  0
 10 17  1  0  0  0  0
 11 12  1  0  0  0  0
 12 13  1  0  0  0  0
 12 14  2  0  0  0  0
 14 15  1  0  0  0  0
 16 14  1  0  0  0  0
 17 16  2  0  0  0  0
 18 19  2  0  0  0  0
 18 23  1  0  0  0  0
 19 20  1  0  0  0  0
 20 25  1  0  0  0  0
 20 21  2  0  0  0  0
 22 21  1  0  0  0  0
 22 26  1  0  0  0  0
 23 22  2  0  0  0  0
 24 19  1  0  0  0  0
 26 28  1  0  0  0  0
 26 29  1  0  0  0  0
 27 26  1  0  0  0  0
M  END
>  <minimizedAffinity>
-5.99459124

$$$$

 OpenBabel03272502243D

 29 31  0  0  0  0  0  0  0  0999 V2000
   36.2640   28.4880   34.1460 C   0  0  0  0  0  0  0  0  0  0  0  0
   36.6540   27.3490   34.8660 C   0  0  0  0  0  0  0  0  0  0  0  0
   37.4770   26.4390   34.2450 C   0  0  0  0  0  0  0  0  0  0  0  0
   37.8660   26.6910   32.9750 N   0  0  0  0  0  0  0  0  0  0  0  0
   37.4880   27.7830   32.2940 C   0  0  0  0  0  0  0  0  0  0  0  0
   36.6820   28.6840   32.8850 N   0  0  0  0  0  0  0  0  0  0  0  0
   35.6120   29.1930   34.6590 H   0  0  0  0  0  0  0  0  0  0  0  0
   36.3580   27.1360   35.8640 H   0  0  0  0  0  0  0  0  0  0  0  0
   35.9600   29.1020   30.2870 F   0  0  0  0  0  0  0  0  0  0  0  0
   37.1760   28.6050   29.9840 C   0  0  0  0  0  0  0  0  0  0  0  0
   37.9710   27.9470   30.9270 C   0  0  0  0  0  0  0  0  0  0  0  0
   39.2150   27.4380   30.6180 C   0  0  0  0  0  0  0  0  0  0  0  0
   39.8270   26.9270   31.3610 H   0  0  0  0  0  0  0  0  0  0  0  0
   39.6890   27.5840   29.3290 C   0  0  0  0  0  0  0  0  0  0  0  0
   40.6850   27.1620   29.1290 H   0  0  0  0  0  0  0  0  0  0  0  0
   38.9700   28.2140   28.3540 C   0  0  0  0  0  3  0  0  0  0  0  0
   37.7190   28.7170   28.7000 C   0  0  0  0  0  3  0  0  0  0  0  0
   37.9670   25.2040   34.8710 C   0  0  0  0  0  0  0  0  0  0  0  0
   38.4900   24.1580   34.1330 C   0  0  0  0  0  0  0  0  0  0  0  0
   38.9510   22.9950   34.7280 C   0  0  0  0  0  0  0  0  0  0  0  0
   38.8950   22.8620   36.0630 N   0  0  0  0  0  0  0  0  0  0  0  0
   38.3900   23.8780   36.7640 C   0  0  0  0  0  0  0  0  0  0  0  0
   37.9380   25.0130   36.2040 N   0  0  0  0  0  0  0  0  0  0  0  0
   38.5480   24.2340   33.0530 H   0  0  0  0  0  0  0  0  0  0  0  0
   39.3520   22.2080   34.0870 H   0  0  0  0  0  0  0  0  0  0  0  0
   38.3100   23.7760   38.2430 C   0  0  0  0  0  0  0  0  0  0  0  0
   37.3170   22.8650   38.5700 F   0  0  0  0  0  0  0  0  0  0  0  0
   39.5420   23.4000   38.7810 F   0  0  0  0  0  0  0  0  0  0  0  0
   37.9740   24.9620   38.8210 F   0  0  0  0  0  0  0  0  0  0  0  0
  1  7  1  0  0  0  0
  1  2  1  0  0  0  0
  2  8  1  0  0  0  0
  3  2  2  0  0  0  0
  3 18  1  0  0  0  0
  4  3  1  0  0  0  0
  5  6  1  0  0  0  0
  5  4  2  0  0  0  0
  6  1  2  0  0  0  0
 10  9  1  0  0  0  0
 10 11  1  0  0  0  0
 11  5  1  0  0  0  0
 12 11  2  0  0  0  0
 12 13  1  0  0  0  0
 14 12  1  0  0  0  0
 15 14  1  0  0  0  0
 16 17  1  0  0  0  0
 16 14  2  0  0  0  0
 17 10  2  0  0  0  0
 18 23  1  0  0  0  0
 19 20  1  0  0  0  0
 19 18  2  0  0  0  0
 20 21  2  0  0  0  0
 21 22  1  0  0  0  0
 22 26  1  0  0  0  0
 23 22  2  0  0  0  0
 24 19  1  0  0  0  0
 25 20  1  0  0  0  0
 26 27  1  0  0  0  0
 26 28  1  0  0  0  0
 26 29  1  0  0  0  0
M  END
>  <minimizedAffinity>
-5.93377829

$$$$

 OpenBabel03272502243D

 29 31  0  0  0  0  0  0  0  0999 V2000
   37.6990   24.7550   31.8440 C   0  0  0  0  0  0  0  0  0  0  0  0
   38.1260   24.1130   33.0160 C   0  0  0  0  0  0  0  0  0  0  0  0
   38.0260   24.7990   34.2050 C   0  0  0  0  0  0  0  0  0  0  0  0
   37.5220   26.0530   34.1790 N   0  0  0  0  0  0  0  0  0  0  0  0
   37.1160   26.6590   33.0540 C   0  0  0  0  0  0  0  0  0  0  0  0
   37.2070   26.0040   31.8810 N   0  0  0  0  0  0  0  0  0  0  0  0
   37.7880   24.1920   30.9160 H   0  0  0  0  0  0  0  0  0  0  0  0
   38.5230   23.1290   33.0540 H   0  0  0  0  0  0  0  0  0  0  0  0
   37.0280   28.4200   30.8190 F   0  0  0  0  0  0  0  0  0  0  0  0
   36.5710   28.8350   32.0180 C   0  0  0  0  0  0  0  0  0  0  0  0
   36.5900   28.0160   33.1500 C   0  0  0  0  0  0  0  0  0  0  0  0
   36.1240   28.4400   34.3770 C   0  0  0  0  0  0  0  0  0  0  0  0
   36.1430   27.7930   35.2540 H   0  0  0  0  0  0  0  0  0  0  0  0
   35.6220   29.7220   34.4870 C   0  0  0  0  0  0  0  0  0  0  0  0
   35.2610   30.0170   35.4840 H   0  0  0  0  0  0  0  0  0  0  0  0
   35.5720   30.5800   33.4260 C   0  0  0  0  0  3  0  0  0  0  0  0
   36.0500   30.1200   32.2030 C   0  0  0  0  0  3  0  0  0  0  0  0
   38.4310   24.2570   35.5090 C   0  0  0  0  0  0  0  0  0  0  0  0
   37.6850   24.4580   36.6560 C   0  0  0  0  0  0  0  0  0  0  0  0
   38.0720   23.9450   37.8840 C   0  0  0  0  0  0  0  0  0  0  0  0
   39.2040   23.2290   37.9810 N   0  0  0  0  0  0  0  0  0  0  0  0
   39.9140   23.0420   36.8670 C   0  0  0  0  0  0  0  0  0  0  0  0
   39.5550   23.5320   35.6680 N   0  0  0  0  0  0  0  0  0  0  0  0
   36.7670   25.0310   36.6110 H   0  0  0  0  0  0  0  0  0  0  0  0
   37.4370   24.1400   38.7500 H   0  0  0  0  0  0  0  0  0  0  0  0
   41.1710   22.2570   36.9270 C   0  0  0  0  0  0  0  0  0  0  0  0
   42.2430   23.1370   36.9450 F   0  0  0  0  0  0  0  0  0  0  0  0
   41.1810   21.4210   38.0460 F   0  0  0  0  0  0  0  0  0  0  0  0
   41.3270   21.4550   35.8380 F   0  0  0  0  0  0  0  0  0  0  0  0
  1  6  2  0  0  0  0
  1  2  1  0  0  0  0
  2  8  1  0  0  0  0
  2  3  2  0  0  0  0
  3 18  1  0  0  0  0
  4  3  1  0  0  0  0
  5 11  1  0  0  0  0
  5  4  2  0  0  0  0
  6  5  1  0  0  0  0
  7  1  1  0  0  0  0
  9 10  1  0  0  0  0
 10 17  2  0  0  0  0
 10 11  1  0  0  0  0
 11 12  2  0  0  0  0
 12 14  1  0  0  0  0
 12 13  1  0  0  0  0
 14 15  1  0  0  0  0
 16 14  2  0  0  0  0
 17 16  1  0  0  0  0
 18 23  2  0  0  0  0
 18 19  1  0  0  0  0
 19 20  2  0  0  0  0
 20 21  1  0  0  0  0
 20 25  1  0  0  0  0
 22 26  1  0  0  0  0
 22 21  2  0  0  0  0
 23 22  1  0  0  0  0
 24 19  1  0  0  0  0
 26 27  1  0  0  0  0
 26 28  1  0  0  0  0
 29 26  1  0  0  0  0
M  END
>  <minimizedAffinity>
-5.91567469

$$$$

 OpenBabel03272502243D

 29 31  0  0  0  0  0  0  0  0999 V2000
   35.8000   24.7100   31.2060 C   0  0  0  0  0  0  0  0  0  0  0  0
   36.6950   24.1540   32.1320 C   0  0  0  0  0  0  0  0  0  0  0  0
   37.3840   25.0080   32.9620 C   0  0  0  0  0  0  0  0  0  0  0  0
   37.1620   26.3350   32.8400 N   0  0  0  0  0  0  0  0  0  0  0  0
   36.3040   26.8590   31.9520 C   0  0  0  0  0  0  0  0  0  0  0  0
   35.6220   26.0390   31.1300 N   0  0  0  0  0  0  0  0  0  0  0  0
   35.2680   24.0140   30.5600 H   0  0  0  0  0  0  0  0  0  0  0  0
   36.8810   23.1140   32.2410 H   0  0  0  0  0  0  0  0  0  0  0  0
   36.7070   28.3690   29.5730 F   0  0  0  0  0  0  0  0  0  0  0  0
   36.3580   28.9970   30.7140 C   0  0  0  0  0  0  0  0  0  0  0  0
   36.1470   28.3080   31.9120 C   0  0  0  0  0  0  0  0  0  0  0  0
   35.7910   28.9490   33.0800 C   0  0  0  0  0  0  0  0  0  0  0  0
   35.6290   28.4030   34.0090 H   0  0  0  0  0  0  0  0  0  0  0  0
   35.6380   30.3220   33.0620 C   0  0  0  0  0  0  0  0  0  0  0  0
   35.3530   30.7900   34.0160 H   0  0  0  0  0  0  0  0  0  0  0  0
   35.8270   31.0630   31.9310 C   0  0  0  0  0  3  0  0  0  0  0  0
   36.1860   30.3840   30.7700 C   0  0  0  0  0  3  0  0  0  0  0  0
   38.3500   24.5730   33.9790 C   0  0  0  0  0  0  0  0  0  0  0  0
   39.6830   24.3540   33.6860 C   0  0  0  0  0  0  0  0  0  0  0  0
   40.5910   23.9440   34.6480 C   0  0  0  0  0  0  0  0  0  0  0  0
   40.1800   23.7480   35.9120 N   0  0  0  0  0  0  0  0  0  0  0  0
   38.8920   23.9630   36.1830 C   0  0  0  0  0  0  0  0  0  0  0  0
   37.9970   24.3600   35.2620 N   0  0  0  0  0  0  0  0  0  0  0  0
   40.0470   24.5030   32.6760 H   0  0  0  0  0  0  0  0  0  0  0  0
   41.6300   23.7890   34.3500 H   0  0  0  0  0  0  0  0  0  0  0  0
   38.3930   23.7590   37.5650 C   0  0  0  0  0  0  0  0  0  0  0  0
   37.2360   22.9980   37.5110 F   0  0  0  0  0  0  0  0  0  0  0  0
   39.3670   23.1490   38.3590 F   0  0  0  0  0  0  0  0  0  0  0  0
   38.0730   24.9350   38.1730 F   0  0  0  0  0  0  0  0  0  0  0  0
  1  2  1  0  0  0  0
  2  8  1  0  0  0  0
  2  3  2  0  0  0  0
  3 18  1  0  0  0  0
  4  3  1  0  0  0  0
  5  4  2  0  0  0  0
  6  1  2  0  0  0  0
  6  5  1  0  0  0  0
  7  1  1  0  0  0  0
  9 10  1  0  0  0  0
 10 17  2  0  0  0  0
 10 11  1  0  0  0  0
 11  5  1  0  0  0  0
 11 12  2  0  0  0  0
 12 13  1  0  0  0  0
 14 12  1  0  0  0  0
 14 15  1  0  0  0  0
 16 14  2  0  0  0  0
 17 16  1  0  0  0  0
 18 23  1  0  0  0  0
 19 18  2  0  0  0  0
 19 20  1  0  0  0  0
 20 21  2  0  0  0  0
 21 22  1  0  0  0  0
 22 26  1  0  0  0  0
 23 22  2  0  0  0  0
 24 19  1  0  0  0  0
 25 20  1  0  0  0  0
 26 29  1  0  0  0  0
 26 28  1  0  0  0  0
 27 26  1  0  0  0  0
M  END
>  <minimizedAffinity>
-5.90992212

$$$$

 OpenBabel03272502243D

 29 31  0  0  0  0  0  0  0  0999 V2000
   36.6740   29.0030   30.1980 C   0  0  0  0  0  0  0  0  0  0  0  0
   35.9800   29.7760   31.1400 C   0  0  0  0  0  0  0  0  0  0  0  0
   35.4130   29.1350   32.2170 C   0  0  0  0  0  0  0  0  0  0  0  0
   35.5560   27.7940   32.3100 N   0  0  0  0  0  0  0  0  0  0  0  0
   36.2230   27.0610   31.4050 C   0  0  0  0  0  0  0  0  0  0  0  0
   36.7830   27.6720   30.3440 N   0  0  0  0  0  0  0  0  0  0  0  0
   37.1130   29.5330   29.3550 H   0  0  0  0  0  0  0  0  0  0  0  0
   35.8580   30.8300   31.0820 H   0  0  0  0  0  0  0  0  0  0  0  0
   34.3770   25.2390   30.2320 F   0  0  0  0  0  0  0  0  0  0  0  0
   35.3760   24.7730   31.0080 C   0  0  0  0  0  0  0  0  0  0  0  0
   36.3110   25.6200   31.6110 C   0  0  0  0  0  0  0  0  0  0  0  0
   37.3330   25.1450   32.4070 C   0  0  0  0  0  0  0  0  0  0  0  0
   38.0570   25.8140   32.8720 H   0  0  0  0  0  0  0  0  0  0  0  0
   37.4330   23.7830   32.6130 C   0  0  0  0  0  0  0  0  0  0  0  0
   38.2630   23.4500   33.2540 H   0  0  0  0  0  0  0  0  0  0  0  0
   36.5570   22.8950   32.0580 C   0  0  0  0  0  3  0  0  0  0  0  0
   35.5380   23.4070   31.2610 C   0  0  0  0  0  3  0  0  0  0  0  0
   34.6590   29.8110   33.2800 C   0  0  0  0  0  0  0  0  0  0  0  0
   33.2870   29.6960   33.4000 C   0  0  0  0  0  0  0  0  0  0  0  0
   32.5790   30.3360   34.4050 C   0  0  0  0  0  0  0  0  0  0  0  0
   33.2320   31.0970   35.2990 N   0  0  0  0  0  0  0  0  0  0  0  0
   34.5560   31.1990   35.1730 C   0  0  0  0  0  0  0  0  0  0  0  0
   35.2580   30.5860   34.2050 N   0  0  0  0  0  0  0  0  0  0  0  0
   32.7310   29.0900   32.6950 H   0  0  0  0  0  0  0  0  0  0  0  0
   31.4970   30.2030   34.4440 H   0  0  0  0  0  0  0  0  0  0  0  0
   35.3190   32.0290   36.1390 C   0  0  0  0  0  0  0  0  0  0  0  0
   36.6400   31.6070   36.1380 F   0  0  0  0  0  0  0  0  0  0  0  0
   35.2170   33.3840   35.8180 F   0  0  0  0  0  0  0  0  0  0  0  0
   34.8540   31.8910   37.4110 F   0  0  0  0  0  0  0  0  0  0  0  0
  1  6  2  0  0  0  0
  1  2  1  0  0  0  0
  2  3  2  0  0  0  0
  3  4  1  0  0  0  0
  3 18  1  0  0  0  0
  5 11  1  0  0  0  0
  5  4  2  0  0  0  0
  6  5  1  0  0  0  0
  7  1  1  0  0  0  0
  8  2  1  0  0  0  0
  9 10  1  0  0  0  0
 10 17  2  0  0  0  0
 10 11  1  0  0  0  0
 11 12  2  0  0  0  0
 12 14  1  0  0  0  0
 12 13  1  0  0  0  0
 14 15  1  0  0  0  0
 16 14  2  0  0  0  0
 17 16  1  0  0  0  0
 18 19  2  0  0  0  0
 18 23  1  0  0  0  0
 19 20  1  0  0  0  0
 20 25  1  0  0  0  0
 20 21  2  0  0  0  0
 22 21  1  0  0  0  0
 22 26  1  0  0  0  0
 23 22  2  0  0  0  0
 24 19  1  0  0  0  0
 26 29  1  0  0  0  0
 27 26  1  0  0  0  0
 28 26  1  0  0  0  0
M  END
>  <minimizedAffinity>
-5.8853097

$$$$

 OpenBabel03272502243D

 29 31  0  0  0  0  0  0  0  0999 V2000
   38.3340   21.6520   31.6720 C   0  0  0  0  0  0  0  0  0  0  0  0
   38.8710   21.4880   32.9570 C   0  0  0  0  0  0  0  0  0  0  0  0
   38.9160   22.5850   33.7860 C   0  0  0  0  0  0  0  0  0  0  0  0
   38.4420   23.7600   33.3190 N   0  0  0  0  0  0  0  0  0  0  0  0
   37.9290   23.9090   32.0880 C   0  0  0  0  0  0  0  0  0  0  0  0
   37.8780   22.8470   31.2620 N   0  0  0  0  0  0  0  0  0  0  0  0
   38.3100   20.7710   31.0340 H   0  0  0  0  0  0  0  0  0  0  0  0
   39.2480   20.5720   33.3400 H   0  0  0  0  0  0  0  0  0  0  0  0
   35.1610   24.4790   31.7440 F   0  0  0  0  0  0  0  0  0  0  0  0
   36.0750   25.4490   31.5400 C   0  0  0  0  0  0  0  0  0  0  0  0
   37.4470   25.2270   31.6940 C   0  0  0  0  0  0  0  0  0  0  0  0
   38.3830   26.2180   31.4850 C   0  0  0  0  0  0  0  0  0  0  0  0
   39.4510   26.0360   31.6070 H   0  0  0  0  0  0  0  0  0  0  0  0
   37.9460   27.4740   31.1100 C   0  0  0  0  0  0  0  0  0  0  0  0
   38.7280   28.2330   30.9550 H   0  0  0  0  0  0  0  0  0  0  0  0
   36.6230   27.7660   30.9400 C   0  0  0  0  0  3  0  0  0  0  0  0
   35.7050   26.7430   31.1590 C   0  0  0  0  0  3  0  0  0  0  0  0
   39.4490   22.5650   35.1550 C   0  0  0  0  0  0  0  0  0  0  0  0
   40.6740   22.0050   35.4640 C   0  0  0  0  0  0  0  0  0  0  0  0
   41.1720   21.9890   36.7570 C   0  0  0  0  0  0  0  0  0  0  0  0
   40.4540   22.5310   37.7540 N   0  0  0  0  0  0  0  0  0  0  0  0
   39.2730   23.0700   37.4440 C   0  0  0  0  0  0  0  0  0  0  0  0
   38.7750   23.0940   36.1960 N   0  0  0  0  0  0  0  0  0  0  0  0
   41.2770   21.5590   34.6820 H   0  0  0  0  0  0  0  0  0  0  0  0
   42.1460   21.5300   36.9330 H   0  0  0  0  0  0  0  0  0  0  0  0
   38.4470   23.6810   38.5140 C   0  0  0  0  0  0  0  0  0  0  0  0
   37.9810   24.9080   38.0670 F   0  0  0  0  0  0  0  0  0  0  0  0
   37.3940   22.8360   38.8710 F   0  0  0  0  0  0  0  0  0  0  0  0
   39.1650   23.9120   39.6470 F   0  0  0  0  0  0  0  0  0  0  0  0
  1  2  1  0  0  0  0
  2  8  1  0  0  0  0
  2  3  2  0  0  0  0
  3 18  1  0  0  0  0
  4  3  1  0  0  0  0
  5  4  2  0  0  0  0
  6  1  2  0  0  0  0
  6  5  1  0  0  0  0
  7  1  1  0  0  0  0
 10 11  1  0  0  0  0
 10  9  1  0  0  0  0
 11  5  1  0  0  0  0
 12 13  1  0  0  0  0
 12 11  2  0  0  0  0
 14 12  1  0  0  0  0
 15 14  1  0  0  0  0
 16 14  2  0  0  0  0
 16 17  1  0  0  0  0
 17 10  2  0  0  0  0
 18 19  2  0  0  0  0
 18 23  1  0  0  0  0
 19 20  1  0  0  0  0
 20 25  1  0  0  0  0
 20 21  2  0  0  0  0
 22 21  1  0  0  0  0
 22 26  1  0  0  0  0
 23 22  2  0  0  0  0
 24 19  1  0  0  0  0
 26 28  1  0  0  0  0
 26 29  1  0  0  0  0
 27 26  1  0  0  0  0
M  END
>  <minimizedAffinity>
-5.81736898

$$$$

 OpenBabel03272502243D

 29 31  0  0  0  0  0  0  0  0999 V2000
   35.4000   30.3920   31.4250 C   0  0  0  0  0  0  0  0  0  0  0  0
   36.0890   29.1710   31.4440 C   0  0  0  0  0  0  0  0  0  0  0  0
   36.2140   28.5140   32.6460 C   0  0  0  0  0  0  0  0  0  0  0  0
   35.6670   29.0810   33.7440 N   0  0  0  0  0  0  0  0  0  0  0  0
   35.0090   30.2490   33.7180 C   0  0  0  0  0  0  0  0  0  0  0  0
   34.8770   30.9070   32.5500 N   0  0  0  0  0  0  0  0  0  0  0  0
   35.3140   30.8930   30.4620 H   0  0  0  0  0  0  0  0  0  0  0  0
   36.5250   28.7120   30.5910 H   0  0  0  0  0  0  0  0  0  0  0  0
   36.5500   31.8170   35.5260 F   0  0  0  0  0  0  0  0  0  0  0  0
   35.2650   31.5290   35.8170 C   0  0  0  0  0  0  0  0  0  0  0  0
   34.4600   30.7630   34.9670 C   0  0  0  0  0  0  0  0  0  0  0  0
   33.1460   30.4670   35.2640 C   0  0  0  0  0  0  0  0  0  0  0  0
   32.5270   29.8690   34.5950 H   0  0  0  0  0  0  0  0  0  0  0  0
   32.6090   30.9450   36.4430 C   0  0  0  0  0  0  0  0  0  0  0  0
   31.5580   30.6840   36.6380 H   0  0  0  0  0  0  0  0  0  0  0  0
   33.3330   31.6990   37.3220 C   0  0  0  0  0  3  0  0  0  0  0  0
   34.6560   31.9790   36.9920 C   0  0  0  0  0  3  0  0  0  0  0  0
   36.9060   27.2300   32.8200 C   0  0  0  0  0  0  0  0  0  0  0  0
   38.0880   27.1180   33.5280 C   0  0  0  0  0  0  0  0  0  0  0  0
   38.7370   25.9040   33.6890 C   0  0  0  0  0  0  0  0  0  0  0  0
   38.2160   24.7920   33.1460 N   0  0  0  0  0  0  0  0  0  0  0  0
   37.0740   24.9130   32.4660 C   0  0  0  0  0  0  0  0  0  0  0  0
   36.4310   26.0820   32.2990 N   0  0  0  0  0  0  0  0  0  0  0  0
   38.5350   27.9960   33.9780 H   0  0  0  0  0  0  0  0  0  0  0  0
   39.6670   25.8850   34.2600 H   0  0  0  0  0  0  0  0  0  0  0  0
   36.4610   23.7110   31.8500 C   0  0  0  0  0  0  0  0  0  0  0  0
   36.9950   23.5420   30.5820 F   0  0  0  0  0  0  0  0  0  0  0  0
   36.6740   22.5830   32.6450 F   0  0  0  0  0  0  0  0  0  0  0  0
   35.1140   23.8390   31.7050 F   0  0  0  0  0  0  0  0  0  0  0  0
  1  2  2  0  0  0  0
  1  6  1  0  0  0  0
  2  3  1  0  0  0  0
  3 18  1  0  0  0  0
  3  4  2  0  0  0  0
  5  4  1  0  0  0  0
  5 11  1  0  0  0  0
  6  5  2  0  0  0  0
  7  1  1  0  0  0  0
  8  2  1  0  0  0  0
  9 10  1  0  0  0  0
 10 17  1  0  0  0  0
 11 12  1  0  0  0  0
 11 10  2  0  0  0  0
 12 14  2  0  0  0  0
 13 12  1  0  0  0  0
 14 15  1  0  0  0  0
 14 16  1  0  0  0  0
 17 16  2  0  0  0  0
 18 19  1  0  0  0  0
 19 20  2  0  0  0  0
 19 24  1  0  0  0  0
 20 25  1  0  0  0  0
 21 20  1  0  0  0  0
 22 21  2  0  0  0  0
 23 22  1  0  0  0  0
 23 18  2  0  0  0  0
 26 22  1  0  0  0  0
 26 28  1  0  0  0  0
 27 26  1  0  0  0  0
 29 26  1  0  0  0  0
M  END
>  <minimizedAffinity>
-5.77008295

$$$$
