
 OpenBabel03272506453D

 32 34  0  0  1  0  0  0  0  0999 V2000
   37.9360   24.8060   32.4420 C   0  0  2  0  0  0  0  0  0  0  0  0
   37.6160   23.8160   31.3390 C   0  0  1  0  0  0  0  0  0  0  0  0
   38.3740   22.6890   31.5530 O   0  0  0  0  0  0  0  0  0  0  0  0
   38.9790   22.7730   32.7890 C   0  0  0  0  0  0  0  0  0  0  0  0
   38.1960   23.8320   33.5840 C   0  0  1  0  0  0  0  0  0  0  0  0
   38.8150   25.4240   32.2490 H   0  0  0  0  0  0  0  0  0  0  0  0
   37.7450   24.2490   30.3330 H   0  0  0  0  0  0  0  0  0  0  0  0
   38.9270   21.7890   33.3070 H   0  0  0  0  0  0  0  0  0  0  0  0
   40.0170   23.1600   32.7220 H   0  0  0  0  0  0  0  0  0  0  0  0
   37.2440   23.3910   33.8760 H   0  0  0  0  0  0  0  0  0  0  0  0
   36.8280   25.6220   32.7150 O   0  0  0  0  0  0  0  0  0  0  0  0
   36.0510   25.1160   33.0040 H   0  0  0  0  0  0  0  0  0  0  0  0
   35.8590   23.3510   31.5460 S   0  0  0  0  0  0  0  0  0  0  0  0
   35.5200   19.9040   33.4760 C   0  0  0  0  0  0  0  0  0  0  0  0
   35.6360   18.9210   32.4890 C   0  0  0  0  0  0  0  0  0  0  0  0
   35.8280   19.3410   31.1690 C   0  0  0  0  0  0  0  0  0  0  0  0
   35.8910   20.6770   30.9140 N   0  0  0  0  0  0  0  0  0  0  0  0
   35.7750   21.6020   31.8990 C   0  0  0  0  0  0  0  0  0  0  0  0
   35.5900   21.2220   33.1730 N   0  0  0  0  0  0  0  0  0  0  0  0
   35.3710   19.6300   34.5120 H   0  0  0  0  0  0  0  0  0  0  0  0
   35.5770   17.8820   32.7570 H   0  0  0  0  0  0  0  0  0  0  0  0
   35.9220   18.6060   30.3800 H   0  0  0  0  0  0  0  0  0  0  0  0
   38.9980   24.3680   34.5620 O   0  0  0  0  0  0  0  0  0  0  0  0
   40.7570   22.6540   35.6620 F   0  0  0  0  0  0  0  0  0  0  0  0
   39.7730   23.2400   36.3870 C   0  0  0  0  0  0  0  0  0  0  0  0
   38.8120   24.1400   35.9150 C   0  0  0  0  0  0  0  0  0  0  0  0
   37.8710   24.6530   36.7830 C   0  0  0  0  0  0  0  0  0  0  0  0
   37.1910   25.3310   36.3030 H   0  0  0  0  0  0  0  0  0  0  0  0
   37.8850   24.2730   38.1080 C   0  0  0  0  0  0  0  0  0  0  0  0
   37.1130   24.7240   38.7090 H   0  0  0  0  0  0  0  0  0  0  0  0
   38.8280   23.3810   38.5960 C   0  0  0  0  0  3  0  0  0  0  0  0
   39.7840   22.8570   37.7310 C   0  0  0  0  0  3  0  0  0  0  0  0
  1  6  1  6  0  0  0
  1 11  1  0  0  0  0
  1  5  1  0  0  0  0
  2  7  1  6  0  0  0
  2 13  1  0  0  0  0
  2  3  1  0  0  0  0
  2  1  1  0  0  0  0
  3  4  1  0  0  0  0
  4  8  1  0  0  0  0
  4  5  1  0  0  0  0
  5 10  1  1  0  0  0
  5 23  1  0  0  0  0
  9  4  1  0  0  0  0
 11 12  1  0  0  0  0
 13 18  1  0  0  0  0
 14 20  1  0  0  0  0
 15 21  1  0  0  0  0
 15 14  2  0  0  0  0
 16 15  1  0  0  0  0
 17 16  2  0  0  0  0
 17 18  1  0  0  0  0
 18 19  2  0  0  0  0
 19 14  1  0  0  0  0
 22 16  1  0  0  0  0
 23 26  1  0  0  0  0
 24 25  1  0  0  0  0
 25 32  1  0  0  0  0
 26 25  2  0  0  0  0
 26 27  1  0  0  0  0
 27 29  2  0  0  0  0
 28 27  1  0  0  0  0
 29 31  1  0  0  0  0
 29 30  1  0  0  0  0
 32 31  2  0  0  0  0
M  END
>  <minimizedAffinity>
-5.23765707

$$$$

 OpenBabel03272506453D

 32 34  0  0  1  0  0  0  0  0999 V2000
   36.5740   29.1260   32.0640 C   0  0  2  0  0  0  0  0  0  0  0  0
   37.0170   27.6760   32.1070 C   0  0  1  0  0  0  0  0  0  0  0  0
   37.1050   27.3020   33.4280 O   0  0  0  0  0  0  0  0  0  0  0  0
   36.5620   28.2900   34.2200 C   0  0  0  0  0  0  0  0  0  0  0  0
   35.6800   29.1490   33.2980 C   0  0  1  0  0  0  0  0  0  0  0  0
   37.3890   29.8460   32.1600 H   0  0  0  0  0  0  0  0  0  0  0  0
   37.9450   27.5010   31.5370 H   0  0  0  0  0  0  0  0  0  0  0  0
   35.9440   27.8360   35.0260 H   0  0  0  0  0  0  0  0  0  0  0  0
   37.3340   28.9800   34.6180 H   0  0  0  0  0  0  0  0  0  0  0  0
   34.7790   28.5790   33.0740 H   0  0  0  0  0  0  0  0  0  0  0  0
   35.8380   29.3870   30.9010 O   0  0  0  0  0  0  0  0  0  0  0  0
   35.0360   28.8430   30.8320 H   0  0  0  0  0  0  0  0  0  0  0  0
   35.6760   26.6960   31.3410 S   0  0  0  0  0  0  0  0  0  0  0  0
   37.9170   23.4720   30.7840 C   0  0  0  0  0  0  0  0  0  0  0  0
   37.0730   22.3910   31.0560 C   0  0  0  0  0  0  0  0  0  0  0  0
   35.7540   22.6700   31.4280 C   0  0  0  0  0  0  0  0  0  0  0  0
   35.3610   23.9710   31.5060 N   0  0  0  0  0  0  0  0  0  0  0  0
   36.2090   24.9940   31.2340 C   0  0  0  0  0  0  0  0  0  0  0  0
   37.4790   24.7510   30.8750 N   0  0  0  0  0  0  0  0  0  0  0  0
   38.9460   23.3090   30.4930 H   0  0  0  0  0  0  0  0  0  0  0  0
   37.4470   21.3870   30.9760 H   0  0  0  0  0  0  0  0  0  0  0  0
   35.0750   21.8560   31.6460 H   0  0  0  0  0  0  0  0  0  0  0  0
   35.5420   30.4100   33.8260 O   0  0  0  0  0  0  0  0  0  0  0  0
   36.6220   31.9570   35.7460 F   0  0  0  0  0  0  0  0  0  0  0  0
   35.3400   31.5190   35.8090 C   0  0  0  0  0  0  0  0  0  0  0  0
   34.6860   30.7150   34.8700 C   0  0  0  0  0  0  0  0  0  0  0  0
   33.3720   30.3510   35.0780 C   0  0  0  0  0  0  0  0  0  0  0  0
   32.9820   29.7360   34.2890 H   0  0  0  0  0  0  0  0  0  0  0  0
   32.7150   30.7820   36.2110 C   0  0  0  0  0  0  0  0  0  0  0  0
   31.6930   30.4490   36.2880 H   0  0  0  0  0  0  0  0  0  0  0  0
   33.3450   31.5790   37.1550 C   0  0  0  0  0  3  0  0  0  0  0  0
   34.6710   31.9540   36.9560 C   0  0  0  0  0  3  0  0  0  0  0  0
  1  2  1  0  0  0  0
  1  6  1  1  0  0  0
  1  5  1  0  0  0  0
  2  7  1  6  0  0  0
  2  3  1  0  0  0  0
  3  4  1  0  0  0  0
  4  9  1  0  0  0  0
  4  8  1  0  0  0  0
  5 10  1  6  0  0  0
  5 23  1  0  0  0  0
  5  4  1  0  0  0  0
 11  1  1  0  0  0  0
 12 11  1  0  0  0  0
 13  2  1  0  0  0  0
 14 19  2  0  0  0  0
 14 15  1  0  0  0  0
 15 16  2  0  0  0  0
 16 17  1  0  0  0  0
 16 22  1  0  0  0  0
 18 13  1  0  0  0  0
 18 17  2  0  0  0  0
 19 18  1  0  0  0  0
 20 14  1  0  0  0  0
 21 15  1  0  0  0  0
 23 26  1  0  0  0  0
 24 25  1  0  0  0  0
 25 32  1  0  0  0  0
 26 27  1  0  0  0  0
 26 25  2  0  0  0  0
 27 29  2  0  0  0  0
 28 27  1  0  0  0  0
 29 30  1  0  0  0  0
 29 31  1  0  0  0  0
 32 31  2  0  0  0  0
M  END
>  <minimizedAffinity>
-5.15455723

$$$$

 OpenBabel03272506453D

 32 34  0  0  1  0  0  0  0  0999 V2000
   36.6570   24.9150   32.4740 C   0  0  2  0  0  0  0  0  0  0  0  0
   35.5810   24.2140   31.6670 C   0  0  1  0  0  0  0  0  0  0  0  0
   35.1060   25.1070   30.7350 O   0  0  0  0  0  0  0  0  0  0  0  0
   35.9110   26.2260   30.7220 C   0  0  0  0  0  0  0  0  0  0  0  0
   37.2350   25.8160   31.3890 C   0  0  1  0  0  0  0  0  0  0  0  0
   36.2770   25.5060   33.3100 H   0  0  0  0  0  0  0  0  0  0  0  0
   34.7910   23.7800   32.3030 H   0  0  0  0  0  0  0  0  0  0  0  0
   36.0950   26.5520   29.6740 H   0  0  0  0  0  0  0  0  0  0  0  0
   35.5030   27.0430   31.3530 H   0  0  0  0  0  0  0  0  0  0  0  0
   37.7810   25.1900   30.6860 H   0  0  0  0  0  0  0  0  0  0  0  0
   37.6120   23.9970   32.9310 O   0  0  0  0  0  0  0  0  0  0  0  0
   38.0600   23.5280   32.2090 H   0  0  0  0  0  0  0  0  0  0  0  0
   36.4060   22.8550   30.7630 S   0  0  0  0  0  0  0  0  0  0  0  0
   35.7870   19.0040   31.4830 C   0  0  0  0  0  0  0  0  0  0  0  0
   35.5070   18.9310   32.8510 C   0  0  0  0  0  0  0  0  0  0  0  0
   35.5100   20.1220   33.5830 C   0  0  0  0  0  0  0  0  0  0  0  0
   35.7820   21.2860   32.9320 N   0  0  0  0  0  0  0  0  0  0  0  0
   36.0490   21.3180   31.6020 C   0  0  0  0  0  0  0  0  0  0  0  0
   36.0520   20.1880   30.8790 N   0  0  0  0  0  0  0  0  0  0  0  0
   35.7960   18.1110   30.8730 H   0  0  0  0  0  0  0  0  0  0  0  0
   35.3000   17.9790   33.3040 H   0  0  0  0  0  0  0  0  0  0  0  0
   35.2980   20.1000   34.6440 H   0  0  0  0  0  0  0  0  0  0  0  0
   37.8620   26.9250   31.9040 O   0  0  0  0  0  0  0  0  0  0  0  0
   36.1110   27.9520   33.6720 F   0  0  0  0  0  0  0  0  0  0  0  0
   37.3520   27.5480   34.0390 C   0  0  0  0  0  0  0  0  0  0  0  0
   38.3340   27.0040   33.2030 C   0  0  0  0  0  0  0  0  0  0  0  0
   39.5550   26.6390   33.7300 C   0  0  0  0  0  0  0  0  0  0  0  0
   40.2210   26.2350   32.9920 H   0  0  0  0  0  0  0  0  0  0  0  0
   39.7980   26.8150   35.0760 C   0  0  0  0  0  0  0  0  0  0  0  0
   40.7780   26.5010   35.3960 H   0  0  0  0  0  0  0  0  0  0  0  0
   38.8400   27.3530   35.9210 C   0  0  0  0  0  3  0  0  0  0  0  0
   37.6030   27.7250   35.4020 C   0  0  0  0  0  3  0  0  0  0  0  0
  1 11  1  0  0  0  0
  1  6  1  1  0  0  0
  2  7  1  1  0  0  0
  2  1  1  0  0  0  0
  3  2  1  0  0  0  0
  4  3  1  0  0  0  0
  4  9  1  0  0  0  0
  4  5  1  0  0  0  0
  5 10  1  6  0  0  0
  5 23  1  0  0  0  0
  5  1  1  0  0  0  0
  8  4  1  0  0  0  0
 12 11  1  0  0  0  0
 13 18  1  0  0  0  0
 13  2  1  0  0  0  0
 14 15  1  0  0  0  0
 15 21  1  0  0  0  0
 15 16  2  0  0  0  0
 16 22  1  0  0  0  0
 17 16  1  0  0  0  0
 18 17  2  0  0  0  0
 19 14  2  0  0  0  0
 19 18  1  0  0  0  0
 20 14  1  0  0  0  0
 23 26  1  0  0  0  0
 24 25  1  0  0  0  0
 25 32  1  0  0  0  0
 26 27  1  0  0  0  0
 26 25  2  0  0  0  0
 27 29  2  0  0  0  0
 28 27  1  0  0  0  0
 29 30  1  0  0  0  0
 29 31  1  0  0  0  0
 32 31  2  0  0  0  0
M  END
>  <minimizedAffinity>
-4.97388887

$$$$

 OpenBabel03272506453D

 32 34  0  0  1  0  0  0  0  0999 V2000
   37.3450   25.3280   31.2920 C   0  0  2  0  0  0  0  0  0  0  0  0
   37.4140   23.8380   31.5640 C   0  0  1  0  0  0  0  0  0  0  0  0
   37.8390   23.6670   32.8620 O   0  0  0  0  0  0  0  0  0  0  0  0
   37.8420   24.8850   33.5060 C   0  0  0  0  0  0  0  0  0  0  0  0
   36.9400   25.8160   32.6780 C   0  0  1  0  0  0  0  0  0  0  0  0
   38.2930   25.7710   30.9840 H   0  0  0  0  0  0  0  0  0  0  0  0
   38.0310   23.3010   30.8240 H   0  0  0  0  0  0  0  0  0  0  0  0
   37.4340   24.7740   34.5350 H   0  0  0  0  0  0  0  0  0  0  0  0
   38.8440   25.3610   33.4990 H   0  0  0  0  0  0  0  0  0  0  0  0
   35.9070   25.5200   32.8520 H   0  0  0  0  0  0  0  0  0  0  0  0
   36.3520   25.6140   30.3440 O   0  0  0  0  0  0  0  0  0  0  0  0
   35.4670   25.3370   30.6310 H   0  0  0  0  0  0  0  0  0  0  0  0
   35.7010   23.2050   31.4550 S   0  0  0  0  0  0  0  0  0  0  0  0
   35.4610   19.7840   33.4470 C   0  0  0  0  0  0  0  0  0  0  0  0
   35.7240   18.7920   32.4980 C   0  0  0  0  0  0  0  0  0  0  0  0
   35.9860   19.1970   31.1850 C   0  0  0  0  0  0  0  0  0  0  0  0
   35.9740   20.5270   30.8990 N   0  0  0  0  0  0  0  0  0  0  0  0
   35.7150   21.4620   31.8480 C   0  0  0  0  0  0  0  0  0  0  0  0
   35.4600   21.0980   33.1140 N   0  0  0  0  0  0  0  0  0  0  0  0
   35.2520   19.5230   34.4750 H   0  0  0  0  0  0  0  0  0  0  0  0
   35.7190   17.7580   32.7890 H   0  0  0  0  0  0  0  0  0  0  0  0
   36.1930   18.4540   30.4260 H   0  0  0  0  0  0  0  0  0  0  0  0
   37.2920   27.1260   32.8980 O   0  0  0  0  0  0  0  0  0  0  0  0
   37.1080   28.3010   35.3130 F   0  0  0  0  0  0  0  0  0  0  0  0
   36.3600   28.7040   34.2570 C   0  0  0  0  0  0  0  0  0  0  0  0
   36.3780   28.1630   32.9660 C   0  0  0  0  0  0  0  0  0  0  0  0
   35.5510   28.6860   31.9940 C   0  0  0  0  0  0  0  0  0  0  0  0
   35.6580   28.1900   31.0490 H   0  0  0  0  0  0  0  0  0  0  0  0
   34.7130   29.7370   32.3030 C   0  0  0  0  0  0  0  0  0  0  0  0
   34.1060   30.0790   31.4810 H   0  0  0  0  0  0  0  0  0  0  0  0
   34.6790   30.2870   33.5760 C   0  0  0  0  0  3  0  0  0  0  0  0
   35.5090   29.7680   34.5660 C   0  0  0  0  0  3  0  0  0  0  0  0
  1  6  1  6  0  0  0
  1  2  1  0  0  0  0
  1  5  1  0  0  0  0
  2  7  1  6  0  0  0
  2  3  1  0  0  0  0
  3  4  1  0  0  0  0
  4  8  1  0  0  0  0
  5 10  1  1  0  0  0
  5 23  1  0  0  0  0
  5  4  1  0  0  0  0
  9  4  1  0  0  0  0
 11 12  1  0  0  0  0
 11  1  1  0  0  0  0
 13  2  1  0  0  0  0
 13 18  1  0  0  0  0
 14 20  1  0  0  0  0
 15 21  1  0  0  0  0
 15 14  2  0  0  0  0
 16 15  1  0  0  0  0
 17 16  2  0  0  0  0
 17 18  1  0  0  0  0
 18 19  2  0  0  0  0
 19 14  1  0  0  0  0
 22 16  1  0  0  0  0
 23 26  1  0  0  0  0
 25 32  1  0  0  0  0
 25 24  1  0  0  0  0
 26 25  2  0  0  0  0
 27 29  2  0  0  0  0
 27 26  1  0  0  0  0
 28 27  1  0  0  0  0
 29 31  1  0  0  0  0
 30 29  1  0  0  0  0
 31 32  2  0  0  0  0
M  END
>  <minimizedAffinity>
-4.91419363

$$$$

 OpenBabel03272506453D

 32 34  0  0  1  0  0  0  0  0999 V2000
   38.4440   26.8270   34.1090 C   0  0  2  0  0  0  0  0  0  0  0  0
   37.5570   27.5570   33.1190 C   0  0  1  0  0  0  0  0  0  0  0  0
   36.9510   26.6120   32.3230 O   0  0  0  0  0  0  0  0  0  0  0  0
   37.1920   25.3570   32.8380 C   0  0  0  0  0  0  0  0  0  0  0  0
   37.6150   25.5630   34.3030 C   0  0  1  0  0  0  0  0  0  0  0  0
   39.4380   26.5870   33.7280 H   0  0  0  0  0  0  0  0  0  0  0  0
   38.1040   28.3270   32.5500 H   0  0  0  0  0  0  0  0  0  0  0  0
   36.2670   24.7410   32.7910 H   0  0  0  0  0  0  0  0  0  0  0  0
   38.0550   24.8610   32.3480 H   0  0  0  0  0  0  0  0  0  0  0  0
   36.7250   25.8270   34.8720 H   0  0  0  0  0  0  0  0  0  0  0  0
   38.5530   27.5500   35.3060 O   0  0  0  0  0  0  0  0  0  0  0  0
   37.6950   27.6880   35.7410 H   0  0  0  0  0  0  0  0  0  0  0  0
   36.2490   28.3810   34.0950 S   0  0  0  0  0  0  0  0  0  0  0  0
   33.2430   30.3160   32.3790 C   0  0  0  0  0  0  0  0  0  0  0  0
   33.8310   31.0640   31.3540 C   0  0  0  0  0  0  0  0  0  0  0  0
   35.2150   30.9670   31.1860 C   0  0  0  0  0  0  0  0  0  0  0  0
   35.9170   30.1540   32.0220 N   0  0  0  0  0  0  0  0  0  0  0  0
   35.3120   29.4420   33.0060 C   0  0  0  0  0  0  0  0  0  0  0  0
   33.9850   29.5200   33.1870 N   0  0  0  0  0  0  0  0  0  0  0  0
   32.1760   30.3570   32.5490 H   0  0  0  0  0  0  0  0  0  0  0  0
   33.2190   31.6870   30.7280 H   0  0  0  0  0  0  0  0  0  0  0  0
   35.7020   31.5320   30.4020 H   0  0  0  0  0  0  0  0  0  0  0  0
   38.3710   24.4970   34.7250 O   0  0  0  0  0  0  0  0  0  0  0  0
   40.4570   22.8730   35.2310 F   0  0  0  0  0  0  0  0  0  0  0  0
   39.6190   23.2960   36.2100 C   0  0  0  0  0  0  0  0  0  0  0  0
   38.5120   24.1360   36.0540 C   0  0  0  0  0  0  0  0  0  0  0  0
   37.7530   24.4790   37.1540 C   0  0  0  0  0  0  0  0  0  0  0  0
   36.9340   25.1270   36.9070 H   0  0  0  0  0  0  0  0  0  0  0  0
   38.0930   23.9890   38.3980 C   0  0  0  0  0  0  0  0  0  0  0  0
   37.4440   24.3110   39.1950 H   0  0  0  0  0  0  0  0  0  0  0  0
   39.1870   23.1550   38.5730 C   0  0  0  0  0  3  0  0  0  0  0  0
   39.9600   22.8020   37.4710 C   0  0  0  0  0  3  0  0  0  0  0  0
  1  6  1  6  0  0  0
  1  5  1  0  0  0  0
  1 11  1  0  0  0  0
  2  7  1  6  0  0  0
  2 13  1  0  0  0  0
  2  1  1  0  0  0  0
  3  4  1  0  0  0  0
  3  2  1  0  0  0  0
  4  5  1  0  0  0  0
  5 23  1  0  0  0  0
  5 10  1  1  0  0  0
  8  4  1  0  0  0  0
  9  4  1  0  0  0  0
 11 12  1  0  0  0  0
 14 20  1  0  0  0  0
 14 19  1  0  0  0  0
 15 14  2  0  0  0  0
 16 15  1  0  0  0  0
 16 17  2  0  0  0  0
 17 18  1  0  0  0  0
 18 19  2  0  0  0  0
 18 13  1  0  0  0  0
 21 15  1  0  0  0  0
 22 16  1  0  0  0  0
 23 26  1  0  0  0  0
 24 25  1  0  0  0  0
 25 32  1  0  0  0  0
 26 25  2  0  0  0  0
 26 27  1  0  0  0  0
 27 29  2  0  0  0  0
 28 27  1  0  0  0  0
 29 31  1  0  0  0  0
 29 30  1  0  0  0  0
 32 31  2  0  0  0  0
M  END
>  <minimizedAffinity>
-4.89143467

$$$$

 OpenBabel03272506453D

 32 34  0  0  1  0  0  0  0  0999 V2000
   35.2550   29.1110   34.4500 C   0  0  2  0  0  0  0  0  0  0  0  0
   34.6820   29.0280   33.0490 C   0  0  1  0  0  0  0  0  0  0  0  0
   34.2580   30.2880   32.6930 O   0  0  0  0  0  0  0  0  0  0  0  0
   34.6950   31.1990   33.6300 C   0  0  0  0  0  0  0  0  0  0  0  0
   35.8410   30.5170   34.3970 C   0  0  1  0  0  0  0  0  0  0  0  0
   34.5100   29.0290   35.2440 H   0  0  0  0  0  0  0  0  0  0  0  0
   33.8970   28.2580   32.9580 H   0  0  0  0  0  0  0  0  0  0  0  0
   35.0670   32.1180   33.1250 H   0  0  0  0  0  0  0  0  0  0  0  0
   33.9190   31.4200   34.3920 H   0  0  0  0  0  0  0  0  0  0  0  0
   36.7120   30.4960   33.7440 H   0  0  0  0  0  0  0  0  0  0  0  0
   36.2590   28.1510   34.6340 O   0  0  0  0  0  0  0  0  0  0  0  0
   37.0020   28.2590   34.0180 H   0  0  0  0  0  0  0  0  0  0  0  0
   36.0660   28.5750   31.9430 S   0  0  0  0  0  0  0  0  0  0  0  0
   37.1450   24.7870   32.4090 C   0  0  0  0  0  0  0  0  0  0  0  0
   36.2460   24.0550   31.6280 C   0  0  0  0  0  0  0  0  0  0  0  0
   35.2640   24.7610   30.9260 C   0  0  0  0  0  0  0  0  0  0  0  0
   35.2320   26.1170   31.0380 N   0  0  0  0  0  0  0  0  0  0  0  0
   36.1220   26.7940   31.8060 C   0  0  0  0  0  0  0  0  0  0  0  0
   37.0730   26.1380   32.4890 N   0  0  0  0  0  0  0  0  0  0  0  0
   37.9220   24.2870   32.9700 H   0  0  0  0  0  0  0  0  0  0  0  0
   36.3250   22.9840   31.5820 H   0  0  0  0  0  0  0  0  0  0  0  0
   34.5520   24.2240   30.3120 H   0  0  0  0  0  0  0  0  0  0  0  0
   35.9690   31.0810   35.6430 O   0  0  0  0  0  0  0  0  0  0  0  0
   34.0230   31.6690   37.4060 F   0  0  0  0  0  0  0  0  0  0  0  0
   34.7750   32.6310   36.8170 C   0  0  0  0  0  0  0  0  0  0  0  0
   35.8060   32.4340   35.8920 C   0  0  0  0  0  0  0  0  0  0  0  0
   36.4830   33.5210   35.3800 C   0  0  0  0  0  0  0  0  0  0  0  0
   37.2490   33.2410   34.6830 H   0  0  0  0  0  0  0  0  0  0  0  0
   36.1360   34.7930   35.7840 C   0  0  0  0  0  0  0  0  0  0  0  0
   36.7190   35.5780   35.3310 H   0  0  0  0  0  0  0  0  0  0  0  0
   35.1170   35.0100   36.6990 C   0  0  0  0  0  3  0  0  0  0  0  0
   34.4270   33.9210   37.2240 C   0  0  0  0  0  3  0  0  0  0  0  0
  1 11  1  0  0  0  0
  1  6  1  1  0  0  0
  2  7  1  6  0  0  0
  2  1  1  0  0  0  0
  3  2  1  0  0  0  0
  3  4  1  0  0  0  0
  4  9  1  0  0  0  0
  4  5  1  0  0  0  0
  5 10  1  6  0  0  0
  5  1  1  0  0  0  0
  5 23  1  0  0  0  0
  8  4  1  0  0  0  0
 12 11  1  0  0  0  0
 13  2  1  0  0  0  0
 14 19  1  0  0  0  0
 14 20  1  0  0  0  0
 15 14  2  0  0  0  0
 16 17  2  0  0  0  0
 16 15  1  0  0  0  0
 17 18  1  0  0  0  0
 18 13  1  0  0  0  0
 18 19  2  0  0  0  0
 21 15  1  0  0  0  0
 22 16  1  0  0  0  0
 23 26  1  0  0  0  0
 25 32  1  0  0  0  0
 25 24  1  0  0  0  0
 26 25  2  0  0  0  0
 27 29  2  0  0  0  0
 27 26  1  0  0  0  0
 28 27  1  0  0  0  0
 29 31  1  0  0  0  0
 30 29  1  0  0  0  0
 31 32  2  0  0  0  0
M  END
>  <minimizedAffinity>
-4.76989651

$$$$

 OpenBabel03272506453D

 32 34  0  0  1  0  0  0  0  0999 V2000
   37.7690   23.6580   30.4270 C   0  0  2  0  0  0  0  0  0  0  0  0
   38.1720   24.9810   31.0490 C   0  0  1  0  0  0  0  0  0  0  0  0
   37.0810   25.4750   31.7270 O   0  0  0  0  0  0  0  0  0  0  0  0
   36.0990   24.5090   31.7800 C   0  0  0  0  0  0  0  0  0  0  0  0
   36.7950   23.1680   31.4910 C   0  0  1  0  0  0  0  0  0  0  0  0
   37.2750   23.7510   29.4580 H   0  0  0  0  0  0  0  0  0  0  0  0
   38.5870   25.6860   30.3100 H   0  0  0  0  0  0  0  0  0  0  0  0
   35.6370   24.4890   32.7920 H   0  0  0  0  0  0  0  0  0  0  0  0
   35.3460   24.6320   30.9750 H   0  0  0  0  0  0  0  0  0  0  0  0
   37.3690   22.8930   32.3740 H   0  0  0  0  0  0  0  0  0  0  0  0
   38.8750   22.8020   30.3200 O   0  0  0  0  0  0  0  0  0  0  0  0
   39.2790   22.6000   31.1790 H   0  0  0  0  0  0  0  0  0  0  0  0
   39.4690   24.6060   32.2830 S   0  0  0  0  0  0  0  0  0  0  0  0
   37.9820   25.1660   35.9170 C   0  0  0  0  0  0  0  0  0  0  0  0
   38.2890   26.4930   36.2350 C   0  0  0  0  0  0  0  0  0  0  0  0
   38.9850   27.2470   35.2860 C   0  0  0  0  0  0  0  0  0  0  0  0
   39.3270   26.6570   34.1080 N   0  0  0  0  0  0  0  0  0  0  0  0
   39.0110   25.3660   33.8340 C   0  0  0  0  0  0  0  0  0  0  0  0
   38.3440   24.6220   34.7300 N   0  0  0  0  0  0  0  0  0  0  0  0
   37.4450   24.5410   36.6170 H   0  0  0  0  0  0  0  0  0  0  0  0
   37.9900   26.8990   37.1840 H   0  0  0  0  0  0  0  0  0  0  0  0
   39.2380   28.2770   35.5000 H   0  0  0  0  0  0  0  0  0  0  0  0
   35.8830   22.2670   30.9950 O   0  0  0  0  0  0  0  0  0  0  0  0
   34.8520   21.2760   33.2750 F   0  0  0  0  0  0  0  0  0  0  0  0
   35.4430   20.4830   32.3480 C   0  0  0  0  0  0  0  0  0  0  0  0
   36.0090   20.8950   31.1360 C   0  0  0  0  0  0  0  0  0  0  0  0
   36.5760   19.9620   30.2940 C   0  0  0  0  0  0  0  0  0  0  0  0
   36.9740   20.3990   29.3990 H   0  0  0  0  0  0  0  0  0  0  0  0
   36.5820   18.6310   30.6550 C   0  0  0  0  0  0  0  0  0  0  0  0
   37.0460   17.9770   29.9350 H   0  0  0  0  0  0  0  0  0  0  0  0
   36.0280   18.2020   31.8510 C   0  0  0  0  0  3  0  0  0  0  0  0
   35.4520   19.1340   32.7100 C   0  0  0  0  0  3  0  0  0  0  0  0
  1  6  1  6  0  0  0
  1  2  1  0  0  0  0
  1  5  1  0  0  0  0
  2  7  1  6  0  0  0
  2  3  1  0  0  0  0
  2 13  1  0  0  0  0
  3  4  1  0  0  0  0
  4  8  1  0  0  0  0
  5  4  1  0  0  0  0
  5 10  1  1  0  0  0
  9  4  1  0  0  0  0
 11  1  1  0  0  0  0
 11 12  1  0  0  0  0
 13 18  1  0  0  0  0
 14 15  1  0  0  0  0
 14 20  1  0  0  0  0
 15 21  1  0  0  0  0
 16 22  1  0  0  0  0
 16 15  2  0  0  0  0
 17 16  1  0  0  0  0
 18 17  2  0  0  0  0
 18 19  1  0  0  0  0
 19 14  2  0  0  0  0
 23 26  1  0  0  0  0
 23  5  1  0  0  0  0
 25 32  1  0  0  0  0
 25 24  1  0  0  0  0
 26 25  2  0  0  0  0
 27 29  2  0  0  0  0
 27 26  1  0  0  0  0
 28 27  1  0  0  0  0
 29 31  1  0  0  0  0
 30 29  1  0  0  0  0
 31 32  2  0  0  0  0
M  END
>  <minimizedAffinity>
-4.73424053

$$$$

 OpenBabel03272506453D

 32 34  0  0  1  0  0  0  0  0999 V2000
   37.0030   26.6740   30.9750 C   0  0  2  0  0  0  0  0  0  0  0  0
   37.2900   25.2170   31.2810 C   0  0  1  0  0  0  0  0  0  0  0  0
   37.7760   25.1450   32.5660 O   0  0  0  0  0  0  0  0  0  0  0  0
   37.6280   26.3700   33.1800 C   0  0  0  0  0  0  0  0  0  0  0  0
   36.5780   27.1410   32.3620 C   0  0  1  0  0  0  0  0  0  0  0  0
   37.8700   27.2370   30.6230 H   0  0  0  0  0  0  0  0  0  0  0  0
   37.9530   24.7510   30.5330 H   0  0  0  0  0  0  0  0  0  0  0  0
   37.2720   26.2330   34.2260 H   0  0  0  0  0  0  0  0  0  0  0  0
   38.5520   26.9810   33.1260 H   0  0  0  0  0  0  0  0  0  0  0  0
   35.6030   26.7090   32.5800 H   0  0  0  0  0  0  0  0  0  0  0  0
   35.9510   26.7920   30.0560 O   0  0  0  0  0  0  0  0  0  0  0  0
   35.1230   26.4020   30.3800 H   0  0  0  0  0  0  0  0  0  0  0  0
   35.6810   24.3490   31.2470 S   0  0  0  0  0  0  0  0  0  0  0  0
   35.3020   20.6170   32.5360 C   0  0  0  0  0  0  0  0  0  0  0  0
   36.3770   19.9260   31.9690 C   0  0  0  0  0  0  0  0  0  0  0  0
   37.2580   20.6440   31.1540 C   0  0  0  0  0  0  0  0  0  0  0  0
   37.0260   21.9700   30.9540 N   0  0  0  0  0  0  0  0  0  0  0  0
   35.9710   22.6070   31.5210 C   0  0  0  0  0  0  0  0  0  0  0  0
   35.1120   21.9390   32.3070 N   0  0  0  0  0  0  0  0  0  0  0  0
   34.5930   20.1070   33.1740 H   0  0  0  0  0  0  0  0  0  0  0  0
   36.5040   18.8780   32.1670 H   0  0  0  0  0  0  0  0  0  0  0  0
   38.1000   20.1390   30.7000 H   0  0  0  0  0  0  0  0  0  0  0  0
   36.7490   28.4930   32.5380 O   0  0  0  0  0  0  0  0  0  0  0  0
   35.3570   29.9370   30.7430 F   0  0  0  0  0  0  0  0  0  0  0  0
   35.1220   30.0240   32.0760 C   0  0  0  0  0  0  0  0  0  0  0  0
   35.7860   29.3220   33.0870 C   0  0  0  0  0  0  0  0  0  0  0  0
   35.4300   29.5210   34.4050 C   0  0  0  0  0  0  0  0  0  0  0  0
   36.0080   28.9270   35.0850 H   0  0  0  0  0  0  0  0  0  0  0  0
   34.4230   30.4130   34.7130 C   0  0  0  0  0  0  0  0  0  0  0  0
   34.2150   30.5020   35.7660 H   0  0  0  0  0  0  0  0  0  0  0  0
   33.7540   31.1190   33.7250 C   0  0  0  0  0  3  0  0  0  0  0  0
   34.1040   30.9260   32.3910 C   0  0  0  0  0  3  0  0  0  0  0  0
  1  6  1  6  0  0  0
  1  2  1  0  0  0  0
  1  5  1  0  0  0  0
  2  7  1  6  0  0  0
  2  3  1  0  0  0  0
  3  4  1  0  0  0  0
  4  8  1  0  0  0  0
  5 23  1  0  0  0  0
  5 10  1  1  0  0  0
  5  4  1  0  0  0  0
  9  4  1  0  0  0  0
 11 12  1  0  0  0  0
 11  1  1  0  0  0  0
 13  2  1  0  0  0  0
 13 18  1  0  0  0  0
 14 20  1  0  0  0  0
 15 21  1  0  0  0  0
 15 14  2  0  0  0  0
 16 15  1  0  0  0  0
 17 16  2  0  0  0  0
 17 18  1  0  0  0  0
 18 19  2  0  0  0  0
 19 14  1  0  0  0  0
 22 16  1  0  0  0  0
 23 26  1  0  0  0  0
 24 25  1  0  0  0  0
 25 32  2  0  0  0  0
 25 26  1  0  0  0  0
 26 27  2  0  0  0  0
 27 29  1  0  0  0  0
 27 28  1  0  0  0  0
 29 30  1  0  0  0  0
 31 29  2  0  0  0  0
 32 31  1  0  0  0  0
M  END
>  <minimizedAffinity>
-4.68216133

$$$$

 OpenBabel03272506453D

 32 34  0  0  1  0  0  0  0  0999 V2000
   37.0010   25.1710   32.7290 C   0  0  2  0  0  0  0  0  0  0  0  0
   37.9250   24.0020   33.0130 C   0  0  1  0  0  0  0  0  0  0  0  0
   38.4280   23.5620   31.8100 O   0  0  0  0  0  0  0  0  0  0  0  0
   38.0910   24.4580   30.8180 C   0  0  0  0  0  0  0  0  0  0  0  0
   37.7220   25.7720   31.5280 C   0  0  1  0  0  0  0  0  0  0  0  0
   35.9810   24.8830   32.4670 H   0  0  0  0  0  0  0  0  0  0  0  0
   37.4330   23.2090   33.6010 H   0  0  0  0  0  0  0  0  0  0  0  0
   38.9580   24.6200   30.1400 H   0  0  0  0  0  0  0  0  0  0  0  0
   37.1770   24.1520   30.2690 H   0  0  0  0  0  0  0  0  0  0  0  0
   38.6450   26.2290   31.8820 H   0  0  0  0  0  0  0  0  0  0  0  0
   36.9840   26.0640   33.8090 O   0  0  0  0  0  0  0  0  0  0  0  0
   37.8600   26.4360   34.0040 H   0  0  0  0  0  0  0  0  0  0  0  0
   39.3220   24.6630   33.9890 S   0  0  0  0  0  0  0  0  0  0  0  0
   39.8740   22.8570   37.4770 C   0  0  0  0  0  0  0  0  0  0  0  0
   38.8470   23.3320   38.2980 C   0  0  0  0  0  0  0  0  0  0  0  0
   37.9450   24.2500   37.7520 C   0  0  0  0  0  0  0  0  0  0  0  0
   38.1100   24.6330   36.4560 N   0  0  0  0  0  0  0  0  0  0  0  0
   39.1190   24.1500   35.6880 C   0  0  0  0  0  0  0  0  0  0  0  0
   39.9970   23.2680   36.1910 N   0  0  0  0  0  0  0  0  0  0  0  0
   40.5970   22.1460   37.8530 H   0  0  0  0  0  0  0  0  0  0  0  0
   38.7720   22.9900   39.3140 H   0  0  0  0  0  0  0  0  0  0  0  0
   37.1390   24.6380   38.3610 H   0  0  0  0  0  0  0  0  0  0  0  0
   36.8860   26.5150   30.7300 O   0  0  0  0  0  0  0  0  0  0  0  0
   35.1400   28.0920   32.0360 F   0  0  0  0  0  0  0  0  0  0  0  0
   36.0990   28.5990   31.2230 C   0  0  0  0  0  0  0  0  0  0  0  0
   37.0510   27.8710   30.5020 C   0  0  0  0  0  0  0  0  0  0  0  0
   37.9670   28.5350   29.7130 C   0  0  0  0  0  0  0  0  0  0  0  0
   38.6430   27.8690   29.2120 H   0  0  0  0  0  0  0  0  0  0  0  0
   37.9350   29.9120   29.6430 C   0  0  0  0  0  0  0  0  0  0  0  0
   38.6880   30.3430   29.0030 H   0  0  0  0  0  0  0  0  0  0  0  0
   37.0000   30.6530   30.3490 C   0  0  0  0  0  3  0  0  0  0  0  0
   36.0700   29.9940   31.1490 C   0  0  0  0  0  3  0  0  0  0  0  0
  1  6  1  6  0  0  0
  1  2  1  0  0  0  0
  1 11  1  0  0  0  0
  2  7  1  1  0  0  0
  2 13  1  0  0  0  0
  3  2  1  0  0  0  0
  4  5  1  0  0  0  0
  4  3  1  0  0  0  0
  5 10  1  1  0  0  0
  5  1  1  0  0  0  0
  8  4  1  0  0  0  0
  9  4  1  0  0  0  0
 11 12  1  0  0  0  0
 13 18  1  0  0  0  0
 14 20  1  0  0  0  0
 14 15  1  0  0  0  0
 15 21  1  0  0  0  0
 16 15  2  0  0  0  0
 16 22  1  0  0  0  0
 17 16  1  0  0  0  0
 18 19  1  0  0  0  0
 18 17  2  0  0  0  0
 19 14  2  0  0  0  0
 23  5  1  0  0  0  0
 25 24  1  0  0  0  0
 26 23  1  0  0  0  0
 26 25  2  0  0  0  0
 27 26  1  0  0  0  0
 28 27  1  0  0  0  0
 29 27  2  0  0  0  0
 29 31  1  0  0  0  0
 30 29  1  0  0  0  0
 31 32  2  0  0  0  0
 32 25  1  0  0  0  0
M  END
>  <minimizedAffinity>
-4.67007875

$$$$
