
 OpenBabel03262520323D

 23 24  0  0  0  0  0  0  0  0999 V2000
   32.9860   27.8470   48.0270 C   0  0  0  0  0  0  0  0  0  0  0  0
   32.5620   27.2870   48.9070 H   0  0  0  0  0  0  0  0  0  0  0  0
   32.2650   28.5390   47.5650 H   0  0  0  0  0  0  0  0  0  0  0  0
   33.3970   28.6220   45.4290 F   0  0  0  0  0  0  0  0  0  0  0  0
   33.6700   27.3370   45.7710 C   0  0  0  0  0  0  0  0  0  0  0  0
   33.5040   26.8270   47.0430 C   0  0  0  0  0  0  0  0  0  0  0  0
   33.7770   25.5300   47.3990 C   0  0  0  0  0  0  0  0  0  0  0  0
   33.6150   25.2160   48.4310 H   0  0  0  0  0  0  0  0  0  0  0  0
   34.2540   24.6720   46.4060 C   0  0  0  0  0  0  0  0  0  0  0  0
   34.4690   23.6550   46.6810 H   0  0  0  0  0  0  0  0  0  0  0  0
   34.4240   25.1720   45.1270 C   0  0  0  0  0  0  0  0  0  0  0  0
   34.1420   26.4830   44.7940 C   0  0  0  0  0  0  0  0  0  0  0  0
   34.8540   28.3180   49.5970 C   0  0  0  0  0  0  0  0  0  0  0  0
   34.1730   28.5920   48.5290 C   0  0  0  0  0  0  0  0  0  0  0  0
   37.3570   30.2530   51.4440 C   0  0  0  0  0  0  0  0  0  0  0  0
   38.1400   30.7910   50.4120 C   0  0  0  0  0  0  0  0  0  0  0  0
   37.7890   30.4760   49.0940 C   0  0  0  0  0  0  0  0  0  0  0  0
   36.7020   29.6610   48.8950 N   0  0  0  0  0  0  0  0  0  0  0  0
   35.9910   29.1760   49.9200 C   0  0  0  0  0  0  0  0  0  0  0  0
   36.3030   29.4590   51.1790 N   0  0  0  0  0  0  0  0  0  0  0  0
   37.6940   30.5450   52.4240 H   0  0  0  0  0  0  0  0  0  0  0  0
   38.9870   31.4240   50.4980 H   0  0  0  0  0  0  0  0  0  0  0  0
   38.2780   30.8020   48.1940 H   0  0  0  0  0  0  0  0  0  0  0  0
  1 14  1  0  0  0  0
  1  2  1  0  0  0  0
  3  1  1  0  0  0  0
  4  5  1  0  0  0  0
  5  6  1  0  0  0  0
  6  7  2  0  0  0  0
  6  1  1  0  0  0  0
  7  8  1  0  0  0  0
  9 10  1  0  0  0  0
  9  7  1  0  0  0  0
 11  9  2  0  0  0  0
 12 11  1  0  0  0  0
 12  5  2  0  0  0  0
 13 19  1  0  0  0  0
 14 13  2  0  0  0  0
 15 21  1  0  0  0  0
 16 22  1  0  0  0  0
 16 15  2  0  0  0  0
 17 16  1  0  0  0  0
 18 17  2  0  0  0  0
 18 19  1  0  0  0  0
 19 20  2  0  0  0  0
 20 15  1  0  0  0  0
 23 17  1  0  0  0  0
M  END
>  <minimizedAffinity>
-4.69246531

>  <minimizedRMSD>
0.997863472

$$$$
