
 OpenBabel03272506423D

 32 34  0  0  1  0  0  0  0  0999 V2000
   32.3310   28.3050   47.6050 C   0  0  2  0  0  0  0  0  0  0  0  0
   33.6260   28.3080   48.3950 C   0  0  1  0  0  0  0  0  0  0  0  0
   34.1730   27.0490   48.3090 O   0  0  0  0  0  0  0  0  0  0  0  0
   33.4770   26.3100   47.3770 C   0  0  0  0  0  0  0  0  0  0  0  0
   32.7120   27.3210   46.5060 C   0  0  1  0  0  0  0  0  0  0  0  0
   31.4650   27.9470   48.1660 H   0  0  0  0  0  0  0  0  0  0  0  0
   33.4880   28.6580   49.4320 H   0  0  0  0  0  0  0  0  0  0  0  0
   34.1840   25.7230   46.7490 H   0  0  0  0  0  0  0  0  0  0  0  0
   32.6980   25.6730   47.8440 H   0  0  0  0  0  0  0  0  0  0  0  0
   33.4330   27.8080   45.8510 H   0  0  0  0  0  0  0  0  0  0  0  0
   32.0680   29.5770   47.0780 O   0  0  0  0  0  0  0  0  0  0  0  0
   32.7650   29.8880   46.4780 H   0  0  0  0  0  0  0  0  0  0  0  0
   34.7570   29.4640   47.5410 S   0  0  0  0  0  0  0  0  0  0  0  0
   37.3650   29.4620   50.5290 C   0  0  0  0  0  0  0  0  0  0  0  0
   37.9570   30.7280   50.4950 C   0  0  0  0  0  0  0  0  0  0  0  0
   37.5320   31.6220   49.5080 C   0  0  0  0  0  0  0  0  0  0  0  0
   36.5690   31.2170   48.6340 N   0  0  0  0  0  0  0  0  0  0  0  0
   36.0180   29.9790   48.6970 C   0  0  0  0  0  0  0  0  0  0  0  0
   36.4110   29.1050   49.6360 N   0  0  0  0  0  0  0  0  0  0  0  0
   37.6600   28.7350   51.2730 H   0  0  0  0  0  0  0  0  0  0  0  0
   38.7120   30.9860   51.2160 H   0  0  0  0  0  0  0  0  0  0  0  0
   37.9690   32.6110   49.4540 H   0  0  0  0  0  0  0  0  0  0  0  0
   31.6170   26.7150   45.9390 O   0  0  0  0  0  0  0  0  0  0  0  0
   32.3850   25.1110   43.9190 F   0  0  0  0  0  0  0  0  0  0  0  0
   31.5620   26.1700   43.7250 C   0  0  0  0  0  0  0  0  0  0  0  0
   31.1050   27.0620   44.7010 C   0  0  0  0  0  0  0  0  0  0  0  0
   30.2650   28.0960   44.3430 C   0  0  0  0  0  0  0  0  0  0  0  0
   29.9850   28.7090   45.1780 H   0  0  0  0  0  0  0  0  0  0  0  0
   29.8850   28.2420   43.0260 C   0  0  0  0  0  0  0  0  0  0  0  0
   29.2300   29.0770   42.8410 H   0  0  0  0  0  0  0  0  0  0  0  0
   30.3280   27.3700   42.0430 C   0  0  0  0  0  3  0  0  0  0  0  0
   31.1750   26.3210   42.3900 C   0  0  0  0  0  3  0  0  0  0  0  0
  1  6  1  1  0  0  0
  1  2  1  0  0  0  0
  2  7  1  1  0  0  0
  3  2  1  0  0  0  0
  4  9  1  0  0  0  0
  4  3  1  0  0  0  0
  5 10  1  6  0  0  0
  5  4  1  0  0  0  0
  5  1  1  0  0  0  0
  8  4  1  0  0  0  0
 11  1  1  0  0  0  0
 12 11  1  0  0  0  0
 13  2  1  0  0  0  0
 13 18  1  0  0  0  0
 14 20  1  0  0  0  0
 15 14  1  0  0  0  0
 15 21  1  0  0  0  0
 16 15  2  0  0  0  0
 17 18  2  0  0  0  0
 17 16  1  0  0  0  0
 18 19  1  0  0  0  0
 19 14  2  0  0  0  0
 22 16  1  0  0  0  0
 23  5  1  0  0  0  0
 25 24  1  0  0  0  0
 25 26  1  0  0  0  0
 26 23  1  0  0  0  0
 27 26  2  0  0  0  0
 27 28  1  0  0  0  0
 29 27  1  0  0  0  0
 30 29  1  0  0  0  0
 31 32  1  0  0  0  0
 31 29  2  0  0  0  0
 32 25  2  0  0  0  0
M  END
>  <minimizedAffinity>
-3.73429799

>  <minimizedRMSD>
0.835152149

$$$$
