
 OpenBabel03272510133D

 41 44  0  0  0  0  0  0  0  0999 V2000
   38.4250   31.5240   48.8960 C   0  0  0  0  0  0  0  0  0  0  0  0
   38.4770   32.7510   49.5080 C   0  0  0  0  0  0  0  0  0  0  0  0
   39.0820   33.6330   48.6100 C   0  0  0  0  0  0  0  0  0  0  0  0
   39.3710   32.9410   47.5130 N   0  0  0  0  0  0  0  0  0  0  0  0
   38.9840   31.7190   47.6940 N   0  0  0  0  0  0  0  0  0  0  0  0
   38.1770   33.1610   50.4600 H   0  0  0  0  0  0  0  0  0  0  0  0
   39.3120   34.6880   48.7000 H   0  0  0  0  0  0  0  0  0  0  0  0
   40.0050   33.4190   46.3120 C   0  0  0  0  0  0  0  0  0  0  0  0
   39.3410   34.0930   45.7240 H   0  0  0  0  0  0  0  0  0  0  0  0
   40.8560   34.0600   46.6150 H   0  0  0  0  0  0  0  0  0  0  0  0
   40.4890   32.2540   45.5130 C   0  0  0  0  0  0  0  0  0  0  0  0
   41.6020   32.4120   45.3940 H   0  0  0  0  0  0  0  0  0  0  0  0
   40.4490   31.3690   46.2170 H   0  0  0  0  0  0  0  0  0  0  0  0
   39.3570   29.7020   45.0870 F   0  0  0  0  0  0  0  0  0  0  0  0
   39.2960   30.7070   44.1500 C   0  0  0  0  0  0  0  0  0  0  0  0
   39.8200   31.9960   44.2470 C   0  0  0  0  0  0  0  0  0  0  0  0
   39.6200   32.8210   43.1590 C   0  0  0  0  0  0  0  0  0  0  0  0
   40.0260   33.8090   43.2640 H   0  0  0  0  0  0  0  0  0  0  0  0
   38.9500   32.4310   42.0260 C   0  0  0  0  0  0  0  0  0  0  0  0
   38.8660   33.1910   41.2370 H   0  0  0  0  0  0  0  0  0  0  0  0
   38.4410   31.1590   41.9480 C   0  0  0  0  0  3  0  0  0  0  0  0
   38.6150   30.2980   43.0130 C   0  0  0  0  0  3  0  0  0  0  0  0
   37.8500   30.5200   49.6500 O   0  0  0  0  0  0  0  0  0  0  0  0
   34.1750   28.9130   48.3740 C   0  0  0  0  0  0  0  0  0  0  0  0
   34.8370   28.4010   49.4540 C   0  0  0  0  0  0  0  0  0  0  0  0
   36.0320   28.8750   49.9210 C   0  0  0  0  0  0  0  0  0  0  0  0
   36.6530   29.9210   49.3150 C   0  0  0  0  0  0  0  0  0  0  0  0
   35.9840   30.4550   48.2050 C   0  0  0  0  0  0  0  0  0  0  0  0
   34.8080   29.9690   47.7670 N   0  0  0  0  0  0  0  0  0  0  0  0
   34.4020   27.5660   49.9880 H   0  0  0  0  0  0  0  0  0  0  0  0
   36.5500   28.4590   50.7840 H   0  0  0  0  0  0  0  0  0  0  0  0
   36.3610   31.2860   47.6280 H   0  0  0  0  0  0  0  0  0  0  0  0
   32.0470   27.6450   48.6190 C   0  0  0  0  0  0  0  0  0  0  0  0
   32.9280   28.4380   47.8660 C   0  0  0  0  0  0  0  0  0  0  0  0
   32.5370   28.7450   46.5910 C   0  0  0  0  0  0  0  0  0  0  0  0
   31.3440   28.2900   46.1080 N   0  0  0  0  0  0  0  0  0  0  0  0
   30.5280   27.5220   46.8910 C   0  0  0  0  0  0  0  0  0  0  0  0
   30.8660   27.1900   48.1510 N   0  0  0  0  0  0  0  0  0  0  0  0
   32.3050   27.3720   49.6300 H   0  0  0  0  0  0  0  0  0  0  0  0
   33.1500   29.3550   45.9230 H   0  0  0  0  0  0  0  0  0  0  0  0
   29.6210   27.2390   46.3680 H   0  0  0  0  0  0  0  0  0  0  0  0
  1  2  1  0  0  0  0
  1 23  1  0  0  0  0
  2  6  1  0  0  0  0
  3  7  1  0  0  0  0
  3  2  2  0  0  0  0
  4  5  1  0  0  0  0
  4  3  1  0  0  0  0
  5  1  2  0  0  0  0
  8 10  1  0  0  0  0
  8  4  1  0  0  0  0
  9  8  1  0  0  0  0
 11 13  1  0  0  0  0
 11  8  1  0  0  0  0
 12 11  1  0  0  0  0
 15 16  1  0  0  0  0
 15 14  1  0  0  0  0
 16 11  1  0  0  0  0
 17 18  1  0  0  0  0
 17 16  2  0  0  0  0
 19 17  1  0  0  0  0
 20 19  1  0  0  0  0
 21 19  2  0  0  0  0
 21 22  1  0  0  0  0
 22 15  2  0  0  0  0
 24 25  1  0  0  0  0
 25 26  2  0  0  0  0
 25 30  1  0  0  0  0
 26 31  1  0  0  0  0
 27 23  1  0  0  0  0
 27 26  1  0  0  0  0
 28 27  2  0  0  0  0
 29 28  1  0  0  0  0
 29 24  2  0  0  0  0
 32 28  1  0  0  0  0
 33 39  1  0  0  0  0
 34 24  1  0  0  0  0
 34 33  2  0  0  0  0
 35 34  1  0  0  0  0
 36 35  2  0  0  0  0
 36 37  1  0  0  0  0
 37 38  2  0  0  0  0
 38 33  1  0  0  0  0
 40 35  1  0  0  0  0
 41 37  1  0  0  0  0
M  END
>  <minimizedAffinity>
-6.36650419

>  <minimizedRMSD>
1.51801383

$$$$
