
 OpenBabel03262522193D

 24 25  0  0  0  0  0  0  0  0999 V2000
   40.7280   26.5610   34.9730 O   0  0  0  0  0  0  0  0  0  0  0  0
   39.2070   26.6930   34.9340 P   0  0  1  0  0  0  0  0  0  0  0  0
   38.7440   27.8020   36.1450 O   0  0  0  0  0  0  0  0  0  0  0  0
   37.7820   28.0250   35.9670 H   0  0  0  0  0  0  0  0  0  0  0  0
   38.8000   27.4130   33.4700 O   0  0  0  0  0  0  0  0  0  0  0  0
   37.8490   25.9970   31.7980 C   0  0  0  0  0  0  0  0  0  0  0  0
   37.7380   27.1080   32.6480 C   0  0  0  0  0  0  0  0  0  0  0  0
   36.5410   27.8400   32.6020 C   0  0  0  0  0  0  0  0  0  0  0  0
   35.5640   27.4380   31.7470 N   0  0  0  0  0  0  0  0  0  0  0  0
   35.7130   26.3640   30.9490 C   0  0  0  0  0  0  0  0  0  0  0  0
   36.8560   25.6320   30.9660 N   0  0  0  0  0  0  0  0  0  0  0  0
   38.7700   25.4240   31.8260 H   0  0  0  0  0  0  0  0  0  0  0  0
   36.4530   28.6980   33.2580 H   0  0  0  0  0  0  0  0  0  0  0  0
   34.8790   26.1210   30.3000 H   0  0  0  0  0  0  0  0  0  0  0  0
   38.5530   25.1740   35.1620 O   0  0  0  0  0  0  0  0  0  0  0  0
   40.5880   23.2440   35.3940 F   0  0  0  0  0  0  0  0  0  0  0  0
   39.8090   23.4410   36.4850 C   0  0  0  0  0  0  0  0  0  0  0  0
   38.8430   24.4020   36.2760 C   0  0  0  0  0  0  0  0  0  0  0  0
   37.9640   24.7140   37.3090 C   0  0  0  0  0  0  0  0  0  0  0  0
   37.1490   25.4510   37.2940 H   0  0  0  0  0  0  0  0  0  0  0  0
   38.0280   24.0860   38.5500 C   0  0  0  0  0  0  0  0  0  0  0  0
   37.3840   24.2820   39.3780 H   0  0  0  0  0  0  0  0  0  0  0  0
   39.0130   23.1230   38.7260 C   0  0  0  0  0  3  0  0  0  0  0  0
   39.8850   22.8090   37.7100 C   0  0  0  0  0  3  0  0  0  0  0  0
  2  1  2  1  0  0  0
  2 15  1  0  0  0  0
  2  3  1  0  0  0  0
  4  3  1  0  0  0  0
  5  2  1  0  0  0  0
  6 12  1  0  0  0  0
  6  7  1  0  0  0  0
  7  5  1  0  0  0  0
  8  7  2  0  0  0  0
  8 13  1  0  0  0  0
  9  8  1  0  0  0  0
 10 11  1  0  0  0  0
 10  9  2  0  0  0  0
 11  6  2  0  0  0  0
 14 10  1  0  0  0  0
 15 18  1  0  0  0  0
 16 17  1  0  0  0  0
 17 24  1  0  0  0  0
 18 17  2  0  0  0  0
 18 19  1  0  0  0  0
 19 21  2  0  0  0  0
 20 19  1  0  0  0  0
 21 23  1  0  0  0  0
 21 22  1  0  0  0  0
 24 23  2  0  0  0  0
M  END
>  <minimizedAffinity>
-5.03761482

$$$$

 OpenBabel03262522193D

 24 25  0  0  0  0  0  0  0  0999 V2000
   36.6400   27.6360   34.8600 O   0  0  0  0  0  0  0  0  0  0  0  0
   37.8340   26.6850   34.8680 P   0  0  1  0  0  0  0  0  0  0  0  0
   39.1540   27.5030   35.5750 O   0  0  0  0  0  0  0  0  0  0  0  0
   39.8520   26.8050   35.7540 H   0  0  0  0  0  0  0  0  0  0  0  0
   37.4650   25.4180   35.9110 O   0  0  0  0  0  0  0  0  0  0  0  0
   38.1150   24.1210   37.8080 C   0  0  0  0  0  0  0  0  0  0  0  0
   38.3350   24.5160   36.4800 C   0  0  0  0  0  0  0  0  0  0  0  0
   39.4390   23.9590   35.8150 C   0  0  0  0  0  0  0  0  0  0  0  0
   40.2260   23.0770   36.4850 N   0  0  0  0  0  0  0  0  0  0  0  0
   39.9770   22.7260   37.7610 C   0  0  0  0  0  0  0  0  0  0  0  0
   38.9190   23.2440   38.4360 N   0  0  0  0  0  0  0  0  0  0  0  0
   37.2640   24.5460   38.3310 H   0  0  0  0  0  0  0  0  0  0  0  0
   39.6110   24.2620   34.7890 H   0  0  0  0  0  0  0  0  0  0  0  0
   40.6600   22.0160   38.2130 H   0  0  0  0  0  0  0  0  0  0  0  0
   38.1310   26.2190   33.2920 O   0  0  0  0  0  0  0  0  0  0  0  0
   36.0480   27.3260   31.7570 F   0  0  0  0  0  0  0  0  0  0  0  0
   36.1510   25.9750   31.7580 C   0  0  0  0  0  0  0  0  0  0  0  0
   37.1980   25.5270   32.5360 C   0  0  0  0  0  0  0  0  0  0  0  0
   37.4300   24.1590   32.6350 C   0  0  0  0  0  0  0  0  0  0  0  0
   38.2180   23.6540   33.2110 H   0  0  0  0  0  0  0  0  0  0  0  0
   36.6380   23.2240   31.9730 C   0  0  0  0  0  0  0  0  0  0  0  0
   36.7670   22.1650   32.0110 H   0  0  0  0  0  0  0  0  0  0  0  0
   35.5930   23.7090   31.1990 C   0  0  0  0  0  3  0  0  0  0  0  0
   35.3580   25.0600   31.0960 C   0  0  0  0  0  3  0  0  0  0  0  0
  2  1  2  6  0  0  0
  2  3  1  0  0  0  0
  2  5  1  0  0  0  0
  3  4  1  0  0  0  0
  5  7  1  0  0  0  0
  6 12  1  0  0  0  0
  6 11  1  0  0  0  0
  7  6  2  0  0  0  0
  8  7  1  0  0  0  0
  8  9  2  0  0  0  0
  9 10  1  0  0  0  0
 10 14  1  0  0  0  0
 10 11  2  0  0  0  0
 13  8  1  0  0  0  0
 15  2  1  0  0  0  0
 16 17  1  0  0  0  0
 17 18  1  0  0  0  0
 18 19  2  0  0  0  0
 18 15  1  0  0  0  0
 19 20  1  0  0  0  0
 21 22  1  0  0  0  0
 21 19  1  0  0  0  0
 23 21  2  0  0  0  0
 24 23  1  0  0  0  0
 24 17  2  0  0  0  0
M  END
>  <minimizedAffinity>
-4.88721323

$$$$

 OpenBabel03262522193D

 24 25  0  0  0  0  0  0  0  0999 V2000
   39.5320   26.9200   34.5440 O   0  0  0  0  0  0  0  0  0  0  0  0
   38.2320   26.6080   35.2820 P   0  0  1  0  0  0  0  0  0  0  0  0
   38.3200   27.3220   36.8290 O   0  0  0  0  0  0  0  0  0  0  0  0
   37.3920   27.2800   37.2100 H   0  0  0  0  0  0  0  0  0  0  0  0
   36.9900   27.4050   34.4770 O   0  0  0  0  0  0  0  0  0  0  0  0
   36.4210   28.8050   32.6270 C   0  0  0  0  0  0  0  0  0  0  0  0
   36.8270   27.5550   33.1180 C   0  0  0  0  0  0  0  0  0  0  0  0
   37.0420   26.5310   32.1810 C   0  0  0  0  0  0  0  0  0  0  0  0
   36.8480   26.8030   30.8630 N   0  0  0  0  0  0  0  0  0  0  0  0
   36.4580   28.0190   30.4360 C   0  0  0  0  0  0  0  0  0  0  0  0
   36.2410   29.0330   31.3130 N   0  0  0  0  0  0  0  0  0  0  0  0
   36.2520   29.6030   33.3430 H   0  0  0  0  0  0  0  0  0  0  0  0
   37.3560   25.5650   32.5580 H   0  0  0  0  0  0  0  0  0  0  0  0
   36.3290   28.1400   29.3670 H   0  0  0  0  0  0  0  0  0  0  0  0
   38.0620   24.9480   35.3440 O   0  0  0  0  0  0  0  0  0  0  0  0
   37.3770   24.3820   38.0150 F   0  0  0  0  0  0  0  0  0  0  0  0
   38.5240   23.8290   37.5500 C   0  0  0  0  0  0  0  0  0  0  0  0
   38.7750   24.1620   36.2360 C   0  0  0  0  0  0  0  0  0  0  0  0
   39.9200   23.6690   35.6190 C   0  0  0  0  0  0  0  0  0  0  0  0
   40.2530   23.8440   34.5870 H   0  0  0  0  0  0  0  0  0  0  0  0
   40.8240   22.8460   36.2880 C   0  0  0  0  0  0  0  0  0  0  0  0
   41.7170   22.4380   35.8680 H   0  0  0  0  0  0  0  0  0  0  0  0
   40.5410   22.5310   37.6100 C   0  0  0  0  0  3  0  0  0  0  0  0
   39.4110   23.0150   38.2250 C   0  0  0  0  0  3  0  0  0  0  0  0
  2  1  2  6  0  0  0
  2 15  1  0  0  0  0
  2  3  1  0  0  0  0
  3  4  1  0  0  0  0
  5  2  1  0  0  0  0
  6  7  1  0  0  0  0
  6 12  1  0  0  0  0
  7  5  1  0  0  0  0
  8 13  1  0  0  0  0
  8  7  2  0  0  0  0
  9  8  1  0  0  0  0
 10  9  2  0  0  0  0
 10 11  1  0  0  0  0
 11  6  2  0  0  0  0
 14 10  1  0  0  0  0
 15 18  1  0  0  0  0
 17 16  1  0  0  0  0
 17 24  1  0  0  0  0
 18 17  2  0  0  0  0
 19 18  1  0  0  0  0
 19 21  2  0  0  0  0
 20 19  1  0  0  0  0
 21 23  1  0  0  0  0
 22 21  1  0  0  0  0
 23 24  2  0  0  0  0
M  END
>  <minimizedAffinity>
-4.76441336

$$$$

 OpenBabel03262522193D

 24 25  0  0  0  0  0  0  0  0999 V2000
   40.7870   25.5620   32.6890 O   0  0  0  0  0  0  0  0  0  0  0  0
   40.0350   25.8000   33.9960 P   0  0  1  0  0  0  0  0  0  0  0  0
   41.1030   26.5660   35.0850 O   0  0  0  0  0  0  0  0  0  0  0  0
   40.5380   26.8910   35.8490 H   0  0  0  0  0  0  0  0  0  0  0  0
   38.8170   26.9160   33.6840 O   0  0  0  0  0  0  0  0  0  0  0  0
   37.0940   25.6120   32.6660 C   0  0  0  0  0  0  0  0  0  0  0  0
   37.8040   26.8190   32.7570 C   0  0  0  0  0  0  0  0  0  0  0  0
   37.4290   27.8560   31.8870 C   0  0  0  0  0  0  0  0  0  0  0  0
   36.4100   27.6380   31.0150 N   0  0  0  0  0  0  0  0  0  0  0  0
   35.7560   26.4620   30.9620 C   0  0  0  0  0  0  0  0  0  0  0  0
   36.0910   25.4370   31.7870 N   0  0  0  0  0  0  0  0  0  0  0  0
   37.3760   24.8040   33.3330 H   0  0  0  0  0  0  0  0  0  0  0  0
   37.9750   28.7890   31.9560 H   0  0  0  0  0  0  0  0  0  0  0  0
   34.9580   26.3820   30.2330 H   0  0  0  0  0  0  0  0  0  0  0  0
   39.4920   24.3220   34.5540 O   0  0  0  0  0  0  0  0  0  0  0  0
   37.3280   25.4710   35.9390 F   0  0  0  0  0  0  0  0  0  0  0  0
   38.1180   24.6220   36.6410 C   0  0  0  0  0  0  0  0  0  0  0  0
   39.1480   24.1120   35.8800 C   0  0  0  0  0  0  0  0  0  0  0  0
   40.0460   23.2230   36.4640 C   0  0  0  0  0  0  0  0  0  0  0  0
   40.9100   22.7370   35.9910 H   0  0  0  0  0  0  0  0  0  0  0  0
   39.9380   22.8320   37.7970 C   0  0  0  0  0  0  0  0  0  0  0  0
   40.5940   22.1560   38.2990 H   0  0  0  0  0  0  0  0  0  0  0  0
   38.8890   23.3650   38.5340 C   0  0  0  0  0  3  0  0  0  0  0  0
   37.9980   24.2430   37.9620 C   0  0  0  0  0  3  0  0  0  0  0  0
  2  1  2  6  0  0  0
  2 15  1  0  0  0  0
  2  3  1  0  0  0  0
  3  4  1  0  0  0  0
  5  2  1  0  0  0  0
  6  7  1  0  0  0  0
  6 12  1  0  0  0  0
  7  5  1  0  0  0  0
  8 13  1  0  0  0  0
  8  7  2  0  0  0  0
  9  8  1  0  0  0  0
 10  9  2  0  0  0  0
 10 11  1  0  0  0  0
 11  6  2  0  0  0  0
 14 10  1  0  0  0  0
 15 18  1  0  0  0  0
 16 17  1  0  0  0  0
 17 24  1  0  0  0  0
 18 19  1  0  0  0  0
 18 17  2  0  0  0  0
 19 21  2  0  0  0  0
 20 19  1  0  0  0  0
 21 22  1  0  0  0  0
 21 23  1  0  0  0  0
 24 23  2  0  0  0  0
M  END
>  <minimizedAffinity>
-4.63612413

$$$$

 OpenBabel03262522193D

 24 25  0  0  0  0  0  0  0  0999 V2000
   33.9540   29.8560   34.4870 O   0  0  0  0  0  0  0  0  0  0  0  0
   35.4730   29.7630   34.3610 P   0  0  1  0  0  0  0  0  0  0  0  0
   35.9240   30.4880   32.8850 O   0  0  0  0  0  0  0  0  0  0  0  0
   36.9220   30.5970   32.9200 H   0  0  0  0  0  0  0  0  0  0  0  0
   36.1400   30.7230   35.5700 O   0  0  0  0  0  0  0  0  0  0  0  0
   36.2600   33.1010   35.3770 C   0  0  0  0  0  0  0  0  0  0  0  0
   35.7150   31.9630   35.9910 C   0  0  0  0  0  0  0  0  0  0  0  0
   34.7650   32.1670   37.0050 C   0  0  0  0  0  0  0  0  0  0  0  0
   34.4260   33.4420   37.3320 N   0  0  0  0  0  0  0  0  0  0  0  0
   34.9750   34.5060   36.7150 C   0  0  0  0  0  0  0  0  0  0  0  0
   35.8960   34.3470   35.7310 N   0  0  0  0  0  0  0  0  0  0  0  0
   36.9950   32.9540   34.5930 H   0  0  0  0  0  0  0  0  0  0  0  0
   34.3430   31.2900   37.4800 H   0  0  0  0  0  0  0  0  0  0  0  0
   34.6420   35.4840   37.0440 H   0  0  0  0  0  0  0  0  0  0  0  0
   35.8980   28.1500   34.4470 O   0  0  0  0  0  0  0  0  0  0  0  0
   37.1770   27.6390   31.9920 F   0  0  0  0  0  0  0  0  0  0  0  0
   37.9110   27.4410   33.1140 C   0  0  0  0  0  0  0  0  0  0  0  0
   37.2020   27.7170   34.2630 C   0  0  0  0  0  0  0  0  0  0  0  0
   37.8240   27.5590   35.4980 C   0  0  0  0  0  0  0  0  0  0  0  0
   37.3930   27.7380   36.4920 H   0  0  0  0  0  0  0  0  0  0  0  0
   39.1450   27.1310   35.6110 C   0  0  0  0  0  0  0  0  0  0  0  0
   39.6750   26.9930   36.5270 H   0  0  0  0  0  0  0  0  0  0  0  0
   39.8300   26.8630   34.4340 C   0  0  0  0  0  3  0  0  0  0  0  0
   39.2210   27.0170   33.2100 C   0  0  0  0  0  3  0  0  0  0  0  0
  2 15  1  0  0  0  0
  2  1  2  1  0  0  0
  2  5  1  0  0  0  0
  3  4  1  0  0  0  0
  3  2  1  0  0  0  0
  5  7  1  0  0  0  0
  6 11  2  0  0  0  0
  6  7  1  0  0  0  0
  7  8  2  0  0  0  0
  8  9  1  0  0  0  0
  8 13  1  0  0  0  0
 10 14  1  0  0  0  0
 10  9  2  0  0  0  0
 11 10  1  0  0  0  0
 12  6  1  0  0  0  0
 16 17  1  0  0  0  0
 17 24  2  0  0  0  0
 17 18  1  0  0  0  0
 18 15  1  0  0  0  0
 18 19  2  0  0  0  0
 19 21  1  0  0  0  0
 19 20  1  0  0  0  0
 21 22  1  0  0  0  0
 23 21  2  0  0  0  0
 24 23  1  0  0  0  0
M  END
>  <minimizedAffinity>
-4.53038549

$$$$

 OpenBabel03262522193D

 24 25  0  0  0  0  0  0  0  0999 V2000
   37.4720   23.1440   36.5280 O   0  0  0  0  0  0  0  0  0  0  0  0
   38.8470   22.8750   35.9210 P   0  0  1  0  0  0  0  0  0  0  0  0
   39.7050   21.8610   36.9920 O   0  0  0  0  0  0  0  0  0  0  0  0
   40.5090   21.5370   36.4860 H   0  0  0  0  0  0  0  0  0  0  0  0
   38.6140   21.9730   34.5210 O   0  0  0  0  0  0  0  0  0  0  0  0
   36.4860   20.9850   34.0690 C   0  0  0  0  0  0  0  0  0  0  0  0
   37.4840   21.9140   33.7360 C   0  0  0  0  0  0  0  0  0  0  0  0
   37.2610   22.7270   32.6130 C   0  0  0  0  0  0  0  0  0  0  0  0
   36.1040   22.5740   31.9180 N   0  0  0  0  0  0  0  0  0  0  0  0
   35.1720   21.6690   32.2740 C   0  0  0  0  0  0  0  0  0  0  0  0
   35.3540   20.8660   33.3530 N   0  0  0  0  0  0  0  0  0  0  0  0
   36.6490   20.3520   34.9350 H   0  0  0  0  0  0  0  0  0  0  0  0
   38.0300   23.4450   32.3540 H   0  0  0  0  0  0  0  0  0  0  0  0
   34.2820   21.6200   31.6580 H   0  0  0  0  0  0  0  0  0  0  0  0
   39.5990   24.3450   35.6790 O   0  0  0  0  0  0  0  0  0  0  0  0
   38.2270   26.2280   37.2580 F   0  0  0  0  0  0  0  0  0  0  0  0
   38.2180   26.4350   35.9190 C   0  0  0  0  0  0  0  0  0  0  0  0
   38.9140   25.4640   35.2310 C   0  0  0  0  0  0  0  0  0  0  0  0
   38.9930   25.5420   33.8440 C   0  0  0  0  0  0  0  0  0  0  0  0
   39.5070   24.8500   33.1630 H   0  0  0  0  0  0  0  0  0  0  0  0
   38.3900   26.5720   33.1260 C   0  0  0  0  0  0  0  0  0  0  0  0
   38.4160   26.6840   32.0640 H   0  0  0  0  0  0  0  0  0  0  0  0
   37.6970   27.5330   33.8500 C   0  0  0  0  0  3  0  0  0  0  0  0
   37.6160   27.4620   35.2210 C   0  0  0  0  0  3  0  0  0  0  0  0
  2  1  2  1  0  0  0
  2  3  1  0  0  0  0
  4  3  1  0  0  0  0
  5  2  1  0  0  0  0
  6 12  1  0  0  0  0
  7  6  1  0  0  0  0
  7  5  1  0  0  0  0
  8  7  2  0  0  0  0
  9 10  2  0  0  0  0
  9  8  1  0  0  0  0
 10 11  1  0  0  0  0
 11  6  2  0  0  0  0
 13  8  1  0  0  0  0
 14 10  1  0  0  0  0
 15  2  1  0  0  0  0
 17 16  1  0  0  0  0
 18 15  1  0  0  0  0
 18 17  1  0  0  0  0
 19 18  2  0  0  0  0
 20 19  1  0  0  0  0
 21 19  1  0  0  0  0
 21 23  2  0  0  0  0
 22 21  1  0  0  0  0
 23 24  1  0  0  0  0
 24 17  2  0  0  0  0
M  END
>  <minimizedAffinity>
-4.44124269

$$$$

 OpenBabel03262522193D

 24 25  0  0  0  0  0  0  0  0999 V2000
   39.3240   21.6500   33.8540 O   0  0  0  0  0  0  0  0  0  0  0  0
   38.1460   22.4330   34.4290 P   0  0  1  0  0  0  0  0  0  0  0  0
   37.7940   21.7970   35.9730 O   0  0  0  0  0  0  0  0  0  0  0  0
   37.1660   22.4480   36.4070 H   0  0  0  0  0  0  0  0  0  0  0  0
   38.6660   24.0110   34.6880 O   0  0  0  0  0  0  0  0  0  0  0  0
   37.5230   26.0360   35.2340 C   0  0  0  0  0  0  0  0  0  0  0  0
   38.0650   25.1760   34.2670 C   0  0  0  0  0  0  0  0  0  0  0  0
   37.9550   25.5640   32.9220 C   0  0  0  0  0  0  0  0  0  0  0  0
   37.3380   26.7390   32.6320 N   0  0  0  0  0  0  0  0  0  0  0  0
   36.8320   27.5350   33.5930 C   0  0  0  0  0  0  0  0  0  0  0  0
   36.9200   27.1930   34.9030 N   0  0  0  0  0  0  0  0  0  0  0  0
   37.6020   25.7450   36.2760 H   0  0  0  0  0  0  0  0  0  0  0  0
   38.3730   24.9010   32.1730 H   0  0  0  0  0  0  0  0  0  0  0  0
   36.3580   28.4530   33.2640 H   0  0  0  0  0  0  0  0  0  0  0  0
   36.8670   22.2940   33.3650 O   0  0  0  0  0  0  0  0  0  0  0  0
   35.3250   20.4080   34.7740 F   0  0  0  0  0  0  0  0  0  0  0  0
   35.6700   20.0840   33.5040 C   0  0  0  0  0  0  0  0  0  0  0  0
   36.4230   21.0670   32.8970 C   0  0  0  0  0  0  0  0  0  0  0  0
   36.8540   20.8770   31.5870 C   0  0  0  0  0  0  0  0  0  0  0  0
   37.4550   21.5630   30.9750 H   0  0  0  0  0  0  0  0  0  0  0  0
   36.5490   19.7230   30.8680 C   0  0  0  0  0  0  0  0  0  0  0  0
   36.8510   19.5220   29.8640 H   0  0  0  0  0  0  0  0  0  0  0  0
   35.7900   18.7550   31.5100 C   0  0  0  0  0  3  0  0  0  0  0  0
   35.3600   18.9360   32.8040 C   0  0  0  0  0  3  0  0  0  0  0  0
  2  1  2  6  0  0  0
  2  5  1  0  0  0  0
  2  3  1  0  0  0  0
  3  4  1  0  0  0  0
  6 12  1  0  0  0  0
  7  5  1  0  0  0  0
  7  6  2  0  0  0  0
  8  7  1  0  0  0  0
  9  8  2  0  0  0  0
  9 10  1  0  0  0  0
 10 11  2  0  0  0  0
 11  6  1  0  0  0  0
 13  8  1  0  0  0  0
 14 10  1  0  0  0  0
 15  2  1  0  0  0  0
 17 16  1  0  0  0  0
 18 15  1  0  0  0  0
 18 17  1  0  0  0  0
 19 18  2  0  0  0  0
 20 19  1  0  0  0  0
 21 23  2  0  0  0  0
 21 19  1  0  0  0  0
 22 21  1  0  0  0  0
 23 24  1  0  0  0  0
 24 17  2  0  0  0  0
M  END
>  <minimizedAffinity>
-4.43700409

$$$$

 OpenBabel03262522193D

 24 25  0  0  0  0  0  0  0  0999 V2000
   34.4360   25.5430   31.0600 O   0  0  0  0  0  0  0  0  0  0  0  0
   35.9210   25.8760   31.1820 P   0  0  1  0  0  0  0  0  0  0  0  0
   36.2850   27.0890   30.0380 O   0  0  0  0  0  0  0  0  0  0  0  0
   37.1990   27.4300   30.2740 H   0  0  0  0  0  0  0  0  0  0  0  0
   36.1600   26.5790   32.6910 O   0  0  0  0  0  0  0  0  0  0  0  0
   37.3500   26.4390   34.7580 C   0  0  0  0  0  0  0  0  0  0  0  0
   37.3450   26.7100   33.3810 C   0  0  0  0  0  0  0  0  0  0  0  0
   38.5590   27.1000   32.7940 C   0  0  0  0  0  0  0  0  0  0  0  0
   39.6630   27.1930   33.5820 N   0  0  0  0  0  0  0  0  0  0  0  0
   39.6220   26.9230   34.9000 C   0  0  0  0  0  0  0  0  0  0  0  0
   38.4660   26.5430   35.5020 N   0  0  0  0  0  0  0  0  0  0  0  0
   36.4170   26.1370   35.2210 H   0  0  0  0  0  0  0  0  0  0  0  0
   38.5580   27.3100   31.7310 H   0  0  0  0  0  0  0  0  0  0  0  0
   40.5540   27.0250   35.4460 H   0  0  0  0  0  0  0  0  0  0  0  0
   36.7860   24.4700   30.9310 O   0  0  0  0  0  0  0  0  0  0  0  0
   38.6700   23.8570   32.9310 F   0  0  0  0  0  0  0  0  0  0  0  0
   37.6070   23.0240   32.8200 C   0  0  0  0  0  0  0  0  0  0  0  0
   36.7420   23.4040   31.8160 C   0  0  0  0  0  0  0  0  0  0  0  0
   35.6000   22.6430   31.5810 C   0  0  0  0  0  0  0  0  0  0  0  0
   34.8240   22.8180   30.8240 H   0  0  0  0  0  0  0  0  0  0  0  0
   35.3020   21.5070   32.3290 C   0  0  0  0  0  0  0  0  0  0  0  0
   34.4450   20.8850   32.1960 H   0  0  0  0  0  0  0  0  0  0  0  0
   36.1950   21.1520   33.3320 C   0  0  0  0  0  3  0  0  0  0  0  0
   37.3240   21.9000   33.5690 C   0  0  0  0  0  3  0  0  0  0  0  0
  2  1  2  6  0  0  0
  2  5  1  0  0  0  0
  3  4  1  0  0  0  0
  3  2  1  0  0  0  0
  5  7  1  0  0  0  0
  6 12  1  0  0  0  0
  6 11  1  0  0  0  0
  7  6  2  0  0  0  0
  8  7  1  0  0  0  0
  8  9  2  0  0  0  0
  9 10  1  0  0  0  0
 10 14  1  0  0  0  0
 10 11  2  0  0  0  0
 13  8  1  0  0  0  0
 15  2  1  0  0  0  0
 15 18  1  0  0  0  0
 17 16  1  0  0  0  0
 17 24  1  0  0  0  0
 18 17  2  0  0  0  0
 19 18  1  0  0  0  0
 19 21  2  0  0  0  0
 20 19  1  0  0  0  0
 21 23  1  0  0  0  0
 22 21  1  0  0  0  0
 23 24  2  0  0  0  0
M  END
>  <minimizedAffinity>
-4.41056442

$$$$

 OpenBabel03262522193D

 24 25  0  0  0  0  0  0  0  0999 V2000
   37.0660   24.9250   33.0230 O   0  0  0  0  0  0  0  0  0  0  0  0
   38.5160   24.4500   32.9810 P   0  0  1  0  0  0  0  0  0  0  0  0
   39.3160   25.3110   31.7440 O   0  0  0  0  0  0  0  0  0  0  0  0
   40.2970   25.1350   31.8700 H   0  0  0  0  0  0  0  0  0  0  0  0
   39.2460   24.9260   34.4200 O   0  0  0  0  0  0  0  0  0  0  0  0
   38.0350   24.7500   36.4710 C   0  0  0  0  0  0  0  0  0  0  0  0
   39.1100   24.3500   35.6630 C   0  0  0  0  0  0  0  0  0  0  0  0
   39.9830   23.3810   36.1820 C   0  0  0  0  0  0  0  0  0  0  0  0
   39.7430   22.8870   37.4250 N   0  0  0  0  0  0  0  0  0  0  0  0
   38.6980   23.3000   38.1670 C   0  0  0  0  0  0  0  0  0  0  0  0
   37.8320   24.2350   37.6970 N   0  0  0  0  0  0  0  0  0  0  0  0
   37.3540   25.4990   36.0790 H   0  0  0  0  0  0  0  0  0  0  0  0
   40.8150   23.0710   35.5600 H   0  0  0  0  0  0  0  0  0  0  0  0
   38.5880   22.8490   39.1460 H   0  0  0  0  0  0  0  0  0  0  0  0
   38.5110   22.8010   32.7220 O   0  0  0  0  0  0  0  0  0  0  0  0
   37.3970   21.5970   35.0100 F   0  0  0  0  0  0  0  0  0  0  0  0
   36.7300   21.4200   33.8440 C   0  0  0  0  0  0  0  0  0  0  0  0
   37.3500   22.0450   32.7820 C   0  0  0  0  0  0  0  0  0  0  0  0
   36.7810   21.9520   31.5160 C   0  0  0  0  0  0  0  0  0  0  0  0
   37.1550   22.3910   30.5810 H   0  0  0  0  0  0  0  0  0  0  0  0
   35.6020   21.2470   31.2840 C   0  0  0  0  0  0  0  0  0  0  0  0
   35.1200   21.1410   30.3380 H   0  0  0  0  0  0  0  0  0  0  0  0
   35.0050   20.6300   32.3750 C   0  0  0  0  0  3  0  0  0  0  0  0
   35.5620   20.7180   33.6300 C   0  0  0  0  0  3  0  0  0  0  0  0
  2  1  2  1  0  0  0
  2  5  1  0  0  0  0
  3  4  1  0  0  0  0
  3  2  1  0  0  0  0
  5  7  1  0  0  0  0
  6 11  1  0  0  0  0
  7  8  1  0  0  0  0
  7  6  2  0  0  0  0
  8  9  2  0  0  0  0
  9 10  1  0  0  0  0
 10 14  1  0  0  0  0
 11 10  2  0  0  0  0
 12  6  1  0  0  0  0
 13  8  1  0  0  0  0
 15 18  1  0  0  0  0
 15  2  1  0  0  0  0
 17 16  1  0  0  0  0
 18 17  2  0  0  0  0
 19 18  1  0  0  0  0
 20 19  1  0  0  0  0
 21 19  2  0  0  0  0
 21 23  1  0  0  0  0
 22 21  1  0  0  0  0
 23 24  2  0  0  0  0
 24 17  1  0  0  0  0
M  END
>  <minimizedAffinity>
-4.40116549

$$$$
