
 OpenBabel03272509463D

 25 26  0  0  0  0  0  0  0  0999 V2000
   34.7030   30.1120   47.2600 C   0  0  0  0  0  0  0  0  0  0  0  0
   35.3450   29.2080   47.1350 H   0  0  0  0  0  0  0  0  0  0  0  0
   35.2110   30.9530   46.7450 H   0  0  0  0  0  0  0  0  0  0  0  0
   33.3620   29.8010   46.6820 C   0  0  0  0  0  0  0  0  0  0  0  0
   32.5750   30.4720   47.0250 H   0  0  0  0  0  0  0  0  0  0  0  0
   33.4750   29.8720   45.5630 H   0  0  0  0  0  0  0  0  0  0  0  0
   30.6950   29.1920   46.8660 F   0  0  0  0  0  0  0  0  0  0  0  0
   31.6290   28.2180   47.1060 C   0  0  0  0  0  0  0  0  0  0  0  0
   33.0110   28.4000   47.0460 C   0  0  0  0  0  0  0  0  0  0  0  0
   33.8330   27.3310   47.3130 C   0  0  0  0  0  0  0  0  0  0  0  0
   34.8820   27.5930   47.2350 H   0  0  0  0  0  0  0  0  0  0  0  0
   33.3230   26.1030   47.6350 C   0  0  0  0  0  0  0  0  0  0  0  0
   34.0170   25.3070   47.8330 H   0  0  0  0  0  0  0  0  0  0  0  0
   31.9410   25.9210   47.6930 C   0  0  0  0  0  3  0  0  0  0  0  0
   31.0850   26.9940   47.4250 C   0  0  0  0  0  3  0  0  0  0  0  0
   34.6120   30.4690   48.6150 O   0  0  0  0  0  0  0  0  0  0  0  0
   37.2360   30.1010   51.0850 C   0  0  0  0  0  0  0  0  0  0  0  0
   38.2370   30.8740   50.5080 C   0  0  0  0  0  0  0  0  0  0  0  0
   37.9670   31.4900   49.2930 C   0  0  0  0  0  0  0  0  0  0  0  0
   36.7310   31.2850   48.7570 N   0  0  0  0  0  0  0  0  0  0  0  0
   35.7800   30.5250   49.3480 C   0  0  0  0  0  0  0  0  0  0  0  0
   36.0420   29.9270   50.5290 N   0  0  0  0  0  0  0  0  0  0  0  0
   37.5050   29.6460   52.0340 H   0  0  0  0  0  0  0  0  0  0  0  0
   39.2170   31.0590   50.8910 H   0  0  0  0  0  0  0  0  0  0  0  0
   38.6800   32.1110   48.7620 H   0  0  0  0  0  0  0  0  0  0  0  0
  1 16  1  0  0  0  0
  2  1  1  0  0  0  0
  3  1  1  0  0  0  0
  4  5  1  0  0  0  0
  4  9  1  0  0  0  0
  4  1  1  0  0  0  0
  6  4  1  0  0  0  0
  7  8  1  0  0  0  0
  8 15  1  0  0  0  0
  9  8  2  0  0  0  0
  9 10  1  0  0  0  0
 10 12  2  0  0  0  0
 11 10  1  0  0  0  0
 12 14  1  0  0  0  0
 12 13  1  0  0  0  0
 15 14  2  0  0  0  0
 16 21  1  0  0  0  0
 17 23  1  0  0  0  0
 18 24  1  0  0  0  0
 18 17  2  0  0  0  0
 19 18  1  0  0  0  0
 20 19  2  0  0  0  0
 20 21  1  0  0  0  0
 21 22  2  0  0  0  0
 22 17  1  0  0  0  0
 25 19  1  0  0  0  0
M  END
>  <minimizedAffinity>
-4.1260519

>  <minimizedRMSD>
2.19994783

$$$$
