
 OpenBabel03272509463D

 25 26  0  0  0  0  0  0  0  0999 V2000
   34.4060   28.9110   47.7270 C   0  0  0  0  0  0  0  0  0  0  0  0
   34.2180   28.0680   48.4330 H   0  0  0  0  0  0  0  0  0  0  0  0
   35.4000   28.7410   47.2650 H   0  0  0  0  0  0  0  0  0  0  0  0
   33.2950   28.9260   46.7290 C   0  0  0  0  0  0  0  0  0  0  0  0
   33.0050   29.9280   46.4160 H   0  0  0  0  0  0  0  0  0  0  0  0
   33.6570   28.3300   45.8440 H   0  0  0  0  0  0  0  0  0  0  0  0
   30.8110   29.8030   45.9660 F   0  0  0  0  0  0  0  0  0  0  0  0
   30.9190   28.7710   46.8610 C   0  0  0  0  0  0  0  0  0  0  0  0
   32.1200   28.2360   47.3290 C   0  0  0  0  0  0  0  0  0  0  0  0
   32.0770   27.1990   48.2310 C   0  0  0  0  0  0  0  0  0  0  0  0
   33.0680   26.8680   48.5180 H   0  0  0  0  0  0  0  0  0  0  0  0
   30.8880   26.6900   48.6740 C   0  0  0  0  0  0  0  0  0  0  0  0
   30.9200   25.8790   49.3790 H   0  0  0  0  0  0  0  0  0  0  0  0
   29.6870   27.2250   48.2060 C   0  0  0  0  0  3  0  0  0  0  0  0
   29.7060   28.2790   47.2880 C   0  0  0  0  0  3  0  0  0  0  0  0
   34.4910   30.1280   48.4230 O   0  0  0  0  0  0  0  0  0  0  0  0
   37.4300   31.7470   49.7870 C   0  0  0  0  0  0  0  0  0  0  0  0
   38.3320   31.5550   48.7470 C   0  0  0  0  0  0  0  0  0  0  0  0
   37.8910   30.8760   47.6190 C   0  0  0  0  0  0  0  0  0  0  0  0
   36.5970   30.4470   47.6210 N   0  0  0  0  0  0  0  0  0  0  0  0
   35.7470   30.6530   48.6540 C   0  0  0  0  0  0  0  0  0  0  0  0
   36.1750   31.3130   49.7500 N   0  0  0  0  0  0  0  0  0  0  0  0
   37.8330   32.2840   50.6420 H   0  0  0  0  0  0  0  0  0  0  0  0
   39.3510   31.8710   48.7030 H   0  0  0  0  0  0  0  0  0  0  0  0
   38.5150   30.6740   46.7550 H   0  0  0  0  0  0  0  0  0  0  0  0
  1 16  1  0  0  0  0
  1  2  1  0  0  0  0
  3  1  1  0  0  0  0
  4  9  1  0  0  0  0
  4  1  1  0  0  0  0
  5  4  1  0  0  0  0
  6  4  1  0  0  0  0
  7  8  1  0  0  0  0
  8 15  2  0  0  0  0
  8  9  1  0  0  0  0
  9 10  2  0  0  0  0
 10 11  1  0  0  0  0
 10 12  1  0  0  0  0
 12 13  1  0  0  0  0
 14 12  2  0  0  0  0
 15 14  1  0  0  0  0
 16 21  1  0  0  0  0
 17 23  1  0  0  0  0
 18 17  2  0  0  0  0
 19 20  2  0  0  0  0
 19 18  1  0  0  0  0
 20 21  1  0  0  0  0
 21 22  2  0  0  0  0
 22 17  1  0  0  0  0
 24 18  1  0  0  0  0
 25 19  1  0  0  0  0
M  END
>  <minimizedAffinity>
-3.83139968

>  <minimizedRMSD>
3.10249615

$$$$
