
 OpenBabel03272509013D

 31 33  0  0  0  0  0  0  0  0999 V2000
   37.5440   32.0750   48.1410 Cl  0  0  0  0  0  0  0  0  0  0  0  0
   36.6760   31.0970   47.0040 C   0  0  0  0  0  0  0  0  0  0  0  0
   37.2040   30.8870   45.7360 C   0  0  0  0  0  0  0  0  0  0  0  0
   36.5520   30.1240   44.8010 C   0  0  0  0  0  0  0  0  0  0  0  0
   35.3430   29.5400   45.0960 C   0  0  0  0  0  0  0  0  0  0  0  0
   34.7840   29.7260   46.3490 C   0  0  0  0  0  0  0  0  0  0  0  0
   33.2500   29.0360   46.8460 Cl  0  0  0  0  0  0  0  0  0  0  0  0
   35.4810   30.5050   47.2620 C   0  0  0  0  0  0  0  0  0  0  0  0
   36.9400   29.9420   43.7980 H   0  0  0  0  0  0  0  0  0  0  0  0
   34.7930   28.9320   44.3910 H   0  0  0  0  0  0  0  0  0  0  0  0
   39.7630   33.2210   44.5410 C   0  0  0  0  0  0  0  0  0  0  0  0
   40.9600   32.5540   44.8090 C   0  0  0  0  0  0  0  0  0  0  0  0
   40.8700   31.2720   45.4150 C   0  0  0  0  0  0  0  0  0  0  0  0
   39.6300   30.7970   45.6840 N   0  0  0  0  0  0  0  0  0  0  0  0
   38.4830   31.4860   45.4040 C   0  0  0  0  0  0  0  0  0  0  0  0
   38.5780   32.6820   44.8390 N   0  0  0  0  0  0  0  0  0  0  0  0
   39.8750   34.2040   44.0740 H   0  0  0  0  0  0  0  0  0  0  0  0
   41.9570   32.9140   44.6020 H   0  0  0  0  0  0  0  0  0  0  0  0
   41.6960   30.6510   45.6740 H   0  0  0  0  0  0  0  0  0  0  0  0
   34.8920   30.7000   48.6220 C   0  0  0  0  0  0  0  0  0  0  0  0
   34.6960   31.7730   48.8140 H   0  0  0  0  0  0  0  0  0  0  0  0
   33.9560   30.0920   48.7250 H   0  0  0  0  0  0  0  0  0  0  0  0
   35.2750   27.9670   49.1190 F   0  0  0  0  0  0  0  0  0  0  0  0
   35.9790   28.8830   49.8600 C   0  0  0  0  0  0  0  0  0  0  0  0
   35.8480   30.2580   49.6770 C   0  0  0  0  0  0  0  0  0  0  0  0
   36.6040   31.0970   50.4760 C   0  0  0  0  0  0  0  0  0  0  0  0
   36.4350   32.1540   50.2620 H   0  0  0  0  0  0  0  0  0  0  0  0
   37.4630   30.5960   51.4260 C   0  0  0  0  0  0  0  0  0  0  0  0
   38.0300   31.3200   52.0240 H   0  0  0  0  0  0  0  0  0  0  0  0
   37.5820   29.2140   51.5960 C   0  0  0  0  0  0  0  0  0  0  0  0
   36.8320   28.3500   50.8050 C   0  0  0  0  0  0  0  0  0  0  0  0
  2  8  1  0  0  0  0
  2  1  1  0  0  0  0
  3  2  2  0  0  0  0
  4  5  2  0  0  0  0
  4  3  1  0  0  0  0
  5  6  1  0  0  0  0
  6  7  1  0  0  0  0
  6  8  2  0  0  0  0
  8 20  1  0  0  0  0
  9  4  1  0  0  0  0
 10  5  1  0  0  0  0
 11 12  2  0  0  0  0
 11 16  1  0  0  0  0
 12 13  1  0  0  0  0
 13 19  1  0  0  0  0
 13 14  2  0  0  0  0
 15 14  1  0  0  0  0
 15  3  1  0  0  0  0
 16 15  2  0  0  0  0
 17 11  1  0  0  0  0
 18 12  1  0  0  0  0
 20 22  1  0  0  0  0
 20 21  1  0  0  0  0
 20 25  1  0  0  0  0
 23 24  1  0  0  0  0
 24 31  1  0  0  0  0
 25 24  2  0  0  0  0
 25 26  1  0  0  0  0
 26 28  2  0  0  0  0
 27 26  1  0  0  0  0
 28 30  1  0  0  0  0
 28 29  1  0  0  0  0
 31 30  2  0  0  0  0
M  END
>  <minimizedAffinity>
-5.51169682

>  <minimizedRMSD>
2.44698358

$$$$
