
 OpenBabel03272503003D

 34 36  0  0  1  0  0  0  0  0999 V2000
   39.1660   24.3730   35.9200 N   0  0  0  0  0  0  0  0  0  0  0  0
   38.0710   24.9090   36.7020 C   0  0  0  0  0  0  0  0  0  0  0  0
   38.0420   24.5920   38.1230 C   0  0  0  0  0  0  0  0  0  0  0  0
   38.6660   23.3420   38.5840 C   0  0  0  0  0  0  0  0  0  0  0  0
   39.7430   22.8280   37.6660 C   0  0  0  0  0  0  0  0  0  0  0  0
   39.2870   22.9610   36.2160 C   0  0  1  0  0  0  0  0  0  0  0  0
   37.1310   24.5020   36.2260 H   0  0  0  0  0  0  0  0  0  0  0  0
   38.0220   26.0080   36.5390 H   0  0  0  0  0  0  0  0  0  0  0  0
   36.9880   24.6530   38.4860 H   0  0  0  0  0  0  0  0  0  0  0  0
   38.5550   25.4330   38.6670 H   0  0  0  0  0  0  0  0  0  0  0  0
   37.8870   22.5470   38.6810 H   0  0  0  0  0  0  0  0  0  0  0  0
   39.1120   23.4570   39.6120 H   0  0  0  0  0  0  0  0  0  0  0  0
   40.0390   21.8090   37.9220 H   0  0  0  0  0  0  0  0  0  0  0  0
   40.6210   23.5010   37.7870 H   0  0  0  0  0  0  0  0  0  0  0  0
   40.0570   22.4470   35.6150 H   0  0  0  0  0  0  0  0  0  0  0  0
   39.9790   25.1260   35.0150 C   0  0  0  0  0  0  0  0  0  0  0  0
   40.0070   26.5170   34.9700 C   0  0  0  0  0  0  0  0  0  0  0  0
   40.8460   27.1270   34.0370 C   0  0  0  0  0  0  0  0  0  0  0  0
   41.5890   26.3360   33.2270 N   0  0  0  0  0  0  0  0  0  0  0  0
   41.5320   24.9940   33.3050 C   0  0  0  0  0  0  0  0  0  0  0  0
   40.7240   24.3860   34.2020 N   0  0  0  0  0  0  0  0  0  0  0  0
   39.3890   27.0560   35.6430 H   0  0  0  0  0  0  0  0  0  0  0  0
   40.8350   28.2100   34.0380 H   0  0  0  0  0  0  0  0  0  0  0  0
   42.1590   24.4350   32.6200 H   0  0  0  0  0  0  0  0  0  0  0  0
   38.0320   22.3350   36.1600 O   0  0  0  0  0  0  0  0  0  0  0  0
   35.6950   20.8660   36.5260 F   0  0  0  0  0  0  0  0  0  0  0  0
   36.2650   21.0840   35.3080 C   0  0  0  0  0  0  0  0  0  0  0  0
   37.4320   21.8080   35.0480 C   0  0  0  0  0  0  0  0  0  0  0  0
   37.8170   21.8960   33.7460 C   0  0  0  0  0  0  0  0  0  0  0  0
   38.7200   22.4600   33.5650 H   0  0  0  0  0  0  0  0  0  0  0  0
   37.1200   21.3150   32.7060 C   0  0  0  0  0  0  0  0  0  0  0  0
   37.5420   21.4660   31.7190 H   0  0  0  0  0  0  0  0  0  0  0  0
   35.9810   20.6080   32.9660 C   0  0  0  0  0  3  0  0  0  0  0  0
   35.5500   20.4940   34.2810 C   0  0  0  0  0  3  0  0  0  0  0  0
  1  6  1  0  0  0  0
  1  2  1  0  0  0  0
  2  3  1  0  0  0  0
  3  9  1  0  0  0  0
  3  4  1  0  0  0  0
  3 10  1  0  0  0  0
  4 11  1  0  0  0  0
  4 12  1  0  0  0  0
  5 14  1  0  0  0  0
  5 13  1  0  0  0  0
  5  4  1  0  0  0  0
  6 15  1  6  0  0  0
  6  5  1  0  0  0  0
  7  2  1  0  0  0  0
  8  2  1  0  0  0  0
 16  1  1  0  0  0  0
 17 16  1  0  0  0  0
 17 22  1  0  0  0  0
 18 23  1  0  0  0  0
 18 17  2  0  0  0  0
 19 20  2  0  0  0  0
 19 18  1  0  0  0  0
 20 21  1  0  0  0  0
 21 16  2  0  0  0  0
 24 20  1  0  0  0  0
 25  6  1  0  0  0  0
 27 26  1  0  0  0  0
 28 27  1  0  0  0  0
 28 25  1  0  0  0  0
 29 28  2  0  0  0  0
 30 29  1  0  0  0  0
 31 33  2  0  0  0  0
 31 29  1  0  0  0  0
 32 31  1  0  0  0  0
 33 34  1  0  0  0  0
 34 27  2  0  0  0  0
M  END
>  <minimizedAffinity>
-5.5009532

$$$$

 OpenBabel03272503003D

 34 36  0  0  1  0  0  0  0  0999 V2000
   39.7290   24.6120   35.1510 N   0  0  0  0  0  0  0  0  0  0  0  0
   40.3540   25.8850   34.8550 C   0  0  0  0  0  0  0  0  0  0  0  0
   39.6640   27.0900   35.2960 C   0  0  0  0  0  0  0  0  0  0  0  0
   38.1990   27.0590   35.4320 C   0  0  0  0  0  0  0  0  0  0  0  0
   37.6410   25.6800   35.6650 C   0  0  0  0  0  0  0  0  0  0  0  0
   38.3400   24.6820   34.7480 C   0  0  1  0  0  0  0  0  0  0  0  0
   40.4510   25.9200   33.7310 H   0  0  0  0  0  0  0  0  0  0  0  0
   41.3980   25.8640   35.2340 H   0  0  0  0  0  0  0  0  0  0  0  0
   39.9720   27.9420   34.6450 H   0  0  0  0  0  0  0  0  0  0  0  0
   40.0790   27.3660   36.3050 H   0  0  0  0  0  0  0  0  0  0  0  0
   37.7270   27.4710   34.5060 H   0  0  0  0  0  0  0  0  0  0  0  0
   37.8480   27.7230   36.2720 H   0  0  0  0  0  0  0  0  0  0  0  0
   36.5540   25.6610   35.5560 H   0  0  0  0  0  0  0  0  0  0  0  0
   37.9050   25.3950   36.7080 H   0  0  0  0  0  0  0  0  0  0  0  0
   37.7940   23.7310   34.8730 H   0  0  0  0  0  0  0  0  0  0  0  0
   40.3880   23.4870   35.7410 C   0  0  0  0  0  0  0  0  0  0  0  0
   40.0830   22.9830   37.0030 C   0  0  0  0  0  0  0  0  0  0  0  0
   40.8030   21.8790   37.4600 C   0  0  0  0  0  0  0  0  0  0  0  0
   41.7580   21.3560   36.6540 N   0  0  0  0  0  0  0  0  0  0  0  0
   42.0180   21.8740   35.4400 C   0  0  0  0  0  0  0  0  0  0  0  0
   41.3320   22.9430   34.9810 N   0  0  0  0  0  0  0  0  0  0  0  0
   39.3190   23.4590   37.5650 H   0  0  0  0  0  0  0  0  0  0  0  0
   40.5330   21.5230   38.4460 H   0  0  0  0  0  0  0  0  0  0  0  0
   42.7980   21.3950   34.8590 H   0  0  0  0  0  0  0  0  0  0  0  0
   38.2280   25.2190   33.4550 O   0  0  0  0  0  0  0  0  0  0  0  0
   37.0360   27.5120   32.4180 F   0  0  0  0  0  0  0  0  0  0  0  0
   36.6310   26.2470   32.1130 C   0  0  0  0  0  0  0  0  0  0  0  0
   37.1780   25.0540   32.5920 C   0  0  0  0  0  0  0  0  0  0  0  0
   36.6080   23.9020   32.1490 C   0  0  0  0  0  0  0  0  0  0  0  0
   37.0450   22.9900   32.5300 H   0  0  0  0  0  0  0  0  0  0  0  0
   35.5440   23.8670   31.2710 C   0  0  0  0  0  0  0  0  0  0  0  0
   35.1910   22.8780   31.0020 H   0  0  0  0  0  0  0  0  0  0  0  0
   35.0120   25.0360   30.8060 C   0  0  0  0  0  3  0  0  0  0  0  0
   35.5640   26.2370   31.2310 C   0  0  0  0  0  3  0  0  0  0  0  0
  1 16  1  0  0  0  0
  2  1  1  0  0  0  0
  2  8  1  0  0  0  0
  2  3  1  0  0  0  0
  3  4  1  0  0  0  0
  3 10  1  0  0  0  0
  4  5  1  0  0  0  0
  4 12  1  0  0  0  0
  5 14  1  0  0  0  0
  6 15  1  1  0  0  0
  6  1  1  0  0  0  0
  6  5  1  0  0  0  0
  7  2  1  0  0  0  0
  9  3  1  0  0  0  0
 11  4  1  0  0  0  0
 13  5  1  0  0  0  0
 16 17  1  0  0  0  0
 17 18  2  0  0  0  0
 17 22  1  0  0  0  0
 18 23  1  0  0  0  0
 19 18  1  0  0  0  0
 20 19  2  0  0  0  0
 21 20  1  0  0  0  0
 21 16  2  0  0  0  0
 24 20  1  0  0  0  0
 25  6  1  0  0  0  0
 27 26  1  0  0  0  0
 27 28  1  0  0  0  0
 28 25  1  0  0  0  0
 29 30  1  0  0  0  0
 29 28  2  0  0  0  0
 31 29  1  0  0  0  0
 32 31  1  0  0  0  0
 33 34  1  0  0  0  0
 33 31  2  0  0  0  0
 34 27  2  0  0  0  0
M  END
>  <minimizedAffinity>
-5.26467848

$$$$

 OpenBabel03272503003D

 34 36  0  0  1  0  0  0  0  0999 V2000
   38.1100   22.7510   36.0050 N   0  0  0  0  0  0  0  0  0  0  0  0
   39.5380   22.6080   36.2010 C   0  0  0  0  0  0  0  0  0  0  0  0
   40.0350   22.6360   37.5700 C   0  0  0  0  0  0  0  0  0  0  0  0
   39.2740   23.3810   38.5850 C   0  0  0  0  0  0  0  0  0  0  0  0
   37.8140   23.5390   38.2540 C   0  0  0  0  0  0  0  0  0  0  0  0
   37.6570   23.8890   36.7780 C   0  0  1  0  0  0  0  0  0  0  0  0
   40.0090   23.4640   35.6330 H   0  0  0  0  0  0  0  0  0  0  0  0
   39.8790   21.6910   35.6730 H   0  0  0  0  0  0  0  0  0  0  0  0
   41.0990   22.9720   37.5630 H   0  0  0  0  0  0  0  0  0  0  0  0
   40.0980   21.5700   37.9270 H   0  0  0  0  0  0  0  0  0  0  0  0
   39.7120   24.4020   38.7080 H   0  0  0  0  0  0  0  0  0  0  0  0
   39.3510   22.8950   39.5980 H   0  0  0  0  0  0  0  0  0  0  0  0
   37.3260   24.2610   38.9120 H   0  0  0  0  0  0  0  0  0  0  0  0
   37.3390   22.5420   38.3980 H   0  0  0  0  0  0  0  0  0  0  0  0
   36.5870   24.1200   36.6410 H   0  0  0  0  0  0  0  0  0  0  0  0
   37.3010   21.9040   35.1840 C   0  0  0  0  0  0  0  0  0  0  0  0
   36.2320   21.1510   35.6620 C   0  0  0  0  0  0  0  0  0  0  0  0
   35.5240   20.3650   34.7520 C   0  0  0  0  0  0  0  0  0  0  0  0
   35.9120   20.3770   33.4540 N   0  0  0  0  0  0  0  0  0  0  0  0
   36.9520   21.1210   33.0350 C   0  0  0  0  0  0  0  0  0  0  0  0
   37.6490   21.8870   33.9020 N   0  0  0  0  0  0  0  0  0  0  0  0
   36.0000   21.2040   36.6960 H   0  0  0  0  0  0  0  0  0  0  0  0
   34.7010   19.7970   35.1680 H   0  0  0  0  0  0  0  0  0  0  0  0
   37.1960   21.0730   31.9800 H   0  0  0  0  0  0  0  0  0  0  0  0
   38.4950   24.9960   36.5660 O   0  0  0  0  0  0  0  0  0  0  0  0
   40.9180   25.5110   35.2960 F   0  0  0  0  0  0  0  0  0  0  0  0
   39.7300   26.0470   34.8990 C   0  0  0  0  0  0  0  0  0  0  0  0
   38.4790   25.8350   35.4850 C   0  0  0  0  0  0  0  0  0  0  0  0
   37.4240   26.4780   34.9160 C   0  0  0  0  0  0  0  0  0  0  0  0
   36.4650   26.3010   35.3820 H   0  0  0  0  0  0  0  0  0  0  0  0
   37.5390   27.3050   33.8170 C   0  0  0  0  0  0  0  0  0  0  0  0
   36.6140   27.7510   33.4690 H   0  0  0  0  0  0  0  0  0  0  0  0
   38.7630   27.5090   33.2490 C   0  0  0  0  0  3  0  0  0  0  0  0
   39.8690   26.8720   33.7960 C   0  0  0  0  0  3  0  0  0  0  0  0
  1  2  1  0  0  0  0
  1  6  1  0  0  0  0
  2  3  1  0  0  0  0
  3 10  1  0  0  0  0
  3  4  1  0  0  0  0
  4 11  1  0  0  0  0
  4 12  1  0  0  0  0
  5 14  1  0  0  0  0
  5  4  1  0  0  0  0
  5 13  1  0  0  0  0
  6 15  1  6  0  0  0
  6  5  1  0  0  0  0
  7  2  1  0  0  0  0
  8  2  1  0  0  0  0
  9  3  1  0  0  0  0
 16 17  1  0  0  0  0
 16  1  1  0  0  0  0
 17 22  1  0  0  0  0
 18 23  1  0  0  0  0
 18 17  2  0  0  0  0
 19 18  1  0  0  0  0
 20 19  2  0  0  0  0
 20 21  1  0  0  0  0
 21 16  2  0  0  0  0
 24 20  1  0  0  0  0
 25  6  1  0  0  0  0
 27 26  1  0  0  0  0
 27 28  1  0  0  0  0
 28 25  1  0  0  0  0
 29 30  1  0  0  0  0
 29 28  2  0  0  0  0
 31 29  1  0  0  0  0
 32 31  1  0  0  0  0
 33 34  1  0  0  0  0
 33 31  2  0  0  0  0
 34 27  2  0  0  0  0
M  END
>  <minimizedAffinity>
-5.26008844

$$$$

 OpenBabel03272503003D

 34 36  0  0  1  0  0  0  0  0999 V2000
   37.8080   25.4170   33.8630 N   0  0  0  0  0  0  0  0  0  0  0  0
   37.5140   26.2480   35.0120 C   0  0  0  0  0  0  0  0  0  0  0  0
   38.5200   27.2230   35.4120 C   0  0  0  0  0  0  0  0  0  0  0  0
   39.9330   26.9490   35.1070 C   0  0  0  0  0  0  0  0  0  0  0  0
   40.1320   26.0180   33.9410 C   0  0  0  0  0  0  0  0  0  0  0  0
   39.1370   24.8660   34.0290 C   0  0  1  0  0  0  0  0  0  0  0  0
   37.3500   25.5320   35.8700 H   0  0  0  0  0  0  0  0  0  0  0  0
   36.5280   26.7370   34.8540 H   0  0  0  0  0  0  0  0  0  0  0  0
   38.3960   27.4460   36.4980 H   0  0  0  0  0  0  0  0  0  0  0  0
   38.2610   28.1980   34.9130 H   0  0  0  0  0  0  0  0  0  0  0  0
   40.4290   26.4960   36.0000 H   0  0  0  0  0  0  0  0  0  0  0  0
   40.5010   27.8990   34.8940 H   0  0  0  0  0  0  0  0  0  0  0  0
   41.1670   25.6750   33.8700 H   0  0  0  0  0  0  0  0  0  0  0  0
   39.8770   26.5900   33.0210 H   0  0  0  0  0  0  0  0  0  0  0  0
   39.4270   24.1610   33.2310 H   0  0  0  0  0  0  0  0  0  0  0  0
   36.9250   25.1910   32.7600 C   0  0  0  0  0  0  0  0  0  0  0  0
   36.6350   23.9310   32.2440 C   0  0  0  0  0  0  0  0  0  0  0  0
   35.7540   23.8500   31.1650 C   0  0  0  0  0  0  0  0  0  0  0  0
   35.2290   25.0000   30.6770 N   0  0  0  0  0  0  0  0  0  0  0  0
   35.5370   26.1970   31.2070 C   0  0  0  0  0  0  0  0  0  0  0  0
   36.3880   26.2940   32.2520 N   0  0  0  0  0  0  0  0  0  0  0  0
   37.0940   23.0850   32.6910 H   0  0  0  0  0  0  0  0  0  0  0  0
   35.5580   22.8510   30.7970 H   0  0  0  0  0  0  0  0  0  0  0  0
   35.0730   27.0670   30.7570 H   0  0  0  0  0  0  0  0  0  0  0  0
   39.2930   24.3350   35.3200 O   0  0  0  0  0  0  0  0  0  0  0  0
   39.1980   23.4690   37.9650 F   0  0  0  0  0  0  0  0  0  0  0  0
   40.0480   22.9550   37.0330 C   0  0  0  0  0  0  0  0  0  0  0  0
   40.1530   23.3370   35.6930 C   0  0  0  0  0  0  0  0  0  0  0  0
   41.0790   22.6810   34.9430 C   0  0  0  0  0  0  0  0  0  0  0  0
   41.1440   22.9900   33.9100 H   0  0  0  0  0  0  0  0  0  0  0  0
   41.8940   21.6840   35.4400 C   0  0  0  0  0  0  0  0  0  0  0  0
   42.5860   21.2480   34.7290 H   0  0  0  0  0  0  0  0  0  0  0  0
   41.7880   21.3140   36.7500 C   0  0  0  0  0  3  0  0  0  0  0  0
   40.8550   21.9570   37.5530 C   0  0  0  0  0  3  0  0  0  0  0  0
  1  6  1  0  0  0  0
  1  2  1  0  0  0  0
  2  3  1  0  0  0  0
  2  7  1  0  0  0  0
  3  9  1  0  0  0  0
  4  3  1  0  0  0  0
  4 11  1  0  0  0  0
  5  6  1  0  0  0  0
  5  4  1  0  0  0  0
  6 15  1  6  0  0  0
  6 25  1  0  0  0  0
  8  2  1  0  0  0  0
 10  3  1  0  0  0  0
 12  4  1  0  0  0  0
 13  5  1  0  0  0  0
 14  5  1  0  0  0  0
 16  1  1  0  0  0  0
 17 22  1  0  0  0  0
 17 16  2  0  0  0  0
 18 17  1  0  0  0  0
 19 18  2  0  0  0  0
 19 20  1  0  0  0  0
 20 21  2  0  0  0  0
 21 16  1  0  0  0  0
 23 18  1  0  0  0  0
 24 20  1  0  0  0  0
 25 28  1  0  0  0  0
 27 34  1  0  0  0  0
 27 26  1  0  0  0  0
 28 27  2  0  0  0  0
 29 31  2  0  0  0  0
 29 28  1  0  0  0  0
 30 29  1  0  0  0  0
 31 33  1  0  0  0  0
 32 31  1  0  0  0  0
 33 34  2  0  0  0  0
M  END
>  <minimizedAffinity>
-5.25869751

$$$$

 OpenBabel03272503003D

 34 36  0  0  1  0  0  0  0  0999 V2000
   38.4460   26.4810   33.0180 N   0  0  0  0  0  0  0  0  0  0  0  0
   37.1510   26.6650   33.6410 C   0  0  0  0  0  0  0  0  0  0  0  0
   37.1100   27.3890   34.9040 C   0  0  0  0  0  0  0  0  0  0  0  0
   38.2940   27.3600   35.7770 C   0  0  0  0  0  0  0  0  0  0  0  0
   39.5810   27.0900   35.0440 C   0  0  0  0  0  0  0  0  0  0  0  0
   39.3650   25.9820   34.0190 C   0  0  1  0  0  0  0  0  0  0  0  0
   36.7470   25.6240   33.8130 H   0  0  0  0  0  0  0  0  0  0  0  0
   36.4610   27.1210   32.8990 H   0  0  0  0  0  0  0  0  0  0  0  0
   36.2040   27.0740   35.4730 H   0  0  0  0  0  0  0  0  0  0  0  0
   36.9070   28.4700   34.6660 H   0  0  0  0  0  0  0  0  0  0  0  0
   38.1670   26.5670   36.5550 H   0  0  0  0  0  0  0  0  0  0  0  0
   38.4120   28.3260   36.3450 H   0  0  0  0  0  0  0  0  0  0  0  0
   40.4000   26.8720   35.7330 H   0  0  0  0  0  0  0  0  0  0  0  0
   39.8270   28.0120   34.4710 H   0  0  0  0  0  0  0  0  0  0  0  0
   40.3680   25.7460   33.6220 H   0  0  0  0  0  0  0  0  0  0  0  0
   38.7470   26.7510   31.6460 C   0  0  0  0  0  0  0  0  0  0  0  0
   38.2940   27.8750   30.9590 C   0  0  0  0  0  0  0  0  0  0  0  0
   38.6610   28.0180   29.6200 C   0  0  0  0  0  0  0  0  0  0  0  0
   39.4380   27.0600   29.0610 N   0  0  0  0  0  0  0  0  0  0  0  0
   39.8540   25.9900   29.7630 C   0  0  0  0  0  0  0  0  0  0  0  0
   39.5080   25.8340   31.0600 N   0  0  0  0  0  0  0  0  0  0  0  0
   37.6880   28.5740   31.4790 H   0  0  0  0  0  0  0  0  0  0  0  0
   38.2860   28.9060   29.1270 H   0  0  0  0  0  0  0  0  0  0  0  0
   40.4730   25.2700   29.2400 H   0  0  0  0  0  0  0  0  0  0  0  0
   38.7890   24.9190   34.7330 O   0  0  0  0  0  0  0  0  0  0  0  0
   37.4380   24.3630   37.1040 F   0  0  0  0  0  0  0  0  0  0  0  0
   38.6790   23.8810   36.8120 C   0  0  0  0  0  0  0  0  0  0  0  0
   39.4160   24.1170   35.6480 C   0  0  0  0  0  0  0  0  0  0  0  0
   40.6400   23.5290   35.5740 C   0  0  0  0  0  0  0  0  0  0  0  0
   41.1940   23.7220   34.6670 H   0  0  0  0  0  0  0  0  0  0  0  0
   41.1650   22.7350   36.5730 C   0  0  0  0  0  0  0  0  0  0  0  0
   42.1520   22.3310   36.3790 H   0  0  0  0  0  0  0  0  0  0  0  0
   40.4410   22.5080   37.7080 C   0  0  0  0  0  3  0  0  0  0  0  0
   39.1850   23.0880   37.8270 C   0  0  0  0  0  3  0  0  0  0  0  0
  1  2  1  0  0  0  0
  1  6  1  0  0  0  0
  2  7  1  0  0  0  0
  2  3  1  0  0  0  0
  3  9  1  0  0  0  0
  3  4  1  0  0  0  0
  4 12  1  0  0  0  0
  4 11  1  0  0  0  0
  5 13  1  0  0  0  0
  5  4  1  0  0  0  0
  6 15  1  6  0  0  0
  6 25  1  0  0  0  0
  6  5  1  0  0  0  0
  8  2  1  0  0  0  0
 10  3  1  0  0  0  0
 14  5  1  0  0  0  0
 16  1  1  0  0  0  0
 17 22  1  0  0  0  0
 17 16  2  0  0  0  0
 18 17  1  0  0  0  0
 19 18  2  0  0  0  0
 19 20  1  0  0  0  0
 20 21  2  0  0  0  0
 21 16  1  0  0  0  0
 23 18  1  0  0  0  0
 24 20  1  0  0  0  0
 25 28  1  0  0  0  0
 27 26  1  0  0  0  0
 27 34  1  0  0  0  0
 28 27  2  0  0  0  0
 29 28  1  0  0  0  0
 29 31  2  0  0  0  0
 30 29  1  0  0  0  0
 31 33  1  0  0  0  0
 32 31  1  0  0  0  0
 33 34  2  0  0  0  0
M  END
>  <minimizedAffinity>
-5.23020554

$$$$

 OpenBabel03272503003D

 34 36  0  0  1  0  0  0  0  0999 V2000
   39.5260   24.8220   34.8440 N   0  0  0  0  0  0  0  0  0  0  0  0
   40.6560   24.4060   34.0390 C   0  0  0  0  0  0  0  0  0  0  0  0
   41.5070   25.4510   33.4850 C   0  0  0  0  0  0  0  0  0  0  0  0
   40.9220   26.7740   33.2170 C   0  0  0  0  0  0  0  0  0  0  0  0
   39.7090   27.0820   34.0530 C   0  0  0  0  0  0  0  0  0  0  0  0
   38.8090   25.8520   34.1240 C   0  0  1  0  0  0  0  0  0  0  0  0
   40.2170   23.8140   33.1840 H   0  0  0  0  0  0  0  0  0  0  0  0
   41.2550   23.6720   34.6190 H   0  0  0  0  0  0  0  0  0  0  0  0
   42.0130   25.0600   32.5700 H   0  0  0  0  0  0  0  0  0  0  0  0
   42.3570   25.6110   34.2060 H   0  0  0  0  0  0  0  0  0  0  0  0
   40.6260   26.8420   32.1410 H   0  0  0  0  0  0  0  0  0  0  0  0
   41.6730   27.5980   33.3760 H   0  0  0  0  0  0  0  0  0  0  0  0
   39.1830   27.9680   33.6910 H   0  0  0  0  0  0  0  0  0  0  0  0
   40.0690   27.2730   35.0890 H   0  0  0  0  0  0  0  0  0  0  0  0
   37.8870   26.1880   34.6300 H   0  0  0  0  0  0  0  0  0  0  0  0
   39.1910   24.2920   36.1300 C   0  0  0  0  0  0  0  0  0  0  0  0
   38.1040   24.7220   36.8870 C   0  0  0  0  0  0  0  0  0  0  0  0
   37.8900   24.1210   38.1280 C   0  0  0  0  0  0  0  0  0  0  0  0
   38.7470   23.1520   38.5300 N   0  0  0  0  0  0  0  0  0  0  0  0
   39.7850   22.7670   37.7650 C   0  0  0  0  0  0  0  0  0  0  0  0
   40.0090   23.3390   36.5610 N   0  0  0  0  0  0  0  0  0  0  0  0
   37.4850   25.4880   36.4920 H   0  0  0  0  0  0  0  0  0  0  0  0
   37.0340   24.4870   38.6810 H   0  0  0  0  0  0  0  0  0  0  0  0
   40.4230   21.9860   38.1610 H   0  0  0  0  0  0  0  0  0  0  0  0
   38.5980   25.4670   32.7900 O   0  0  0  0  0  0  0  0  0  0  0  0
   37.2940   27.7110   31.7820 F   0  0  0  0  0  0  0  0  0  0  0  0
   36.7940   26.4460   31.6970 C   0  0  0  0  0  0  0  0  0  0  0  0
   37.3890   25.2770   32.1780 C   0  0  0  0  0  0  0  0  0  0  0  0
   36.7020   24.1190   31.9800 C   0  0  0  0  0  0  0  0  0  0  0  0
   37.1780   23.2260   32.3570 H   0  0  0  0  0  0  0  0  0  0  0  0
   35.4800   24.0580   31.3430 C   0  0  0  0  0  0  0  0  0  0  0  0
   35.0470   23.0680   31.2540 H   0  0  0  0  0  0  0  0  0  0  0  0
   34.9020   25.2040   30.8750 C   0  0  0  0  0  3  0  0  0  0  0  0
   35.5680   26.4100   31.0550 C   0  0  0  0  0  3  0  0  0  0  0  0
  1 16  1  0  0  0  0
  2  8  1  0  0  0  0
  2  1  1  0  0  0  0
  3  2  1  0  0  0  0
  3 10  1  0  0  0  0
  4 12  1  0  0  0  0
  4  3  1  0  0  0  0
  4  5  1  0  0  0  0
  5  6  1  0  0  0  0
  5 14  1  0  0  0  0
  6 15  1  1  0  0  0
  6  1  1  0  0  0  0
  7  2  1  0  0  0  0
  9  3  1  0  0  0  0
 11  4  1  0  0  0  0
 13  5  1  0  0  0  0
 16 21  2  0  0  0  0
 16 17  1  0  0  0  0
 17 18  2  0  0  0  0
 18 19  1  0  0  0  0
 18 23  1  0  0  0  0
 20 24  1  0  0  0  0
 20 19  2  0  0  0  0
 21 20  1  0  0  0  0
 22 17  1  0  0  0  0
 25  6  1  0  0  0  0
 27 26  1  0  0  0  0
 27 28  1  0  0  0  0
 28 25  1  0  0  0  0
 29 28  2  0  0  0  0
 29 30  1  0  0  0  0
 31 29  1  0  0  0  0
 32 31  1  0  0  0  0
 33 34  1  0  0  0  0
 33 31  2  0  0  0  0
 34 27  2  0  0  0  0
M  END
>  <minimizedAffinity>
-5.18205357

$$$$

 OpenBabel03272503003D

 34 36  0  0  1  0  0  0  0  0999 V2000
   37.2950   27.5810   33.4150 N   0  0  0  0  0  0  0  0  0  0  0  0
   37.1220   27.3280   34.8310 C   0  0  0  0  0  0  0  0  0  0  0  0
   38.3220   27.2700   35.6550 C   0  0  0  0  0  0  0  0  0  0  0  0
   39.5890   26.8570   35.0330 C   0  0  0  0  0  0  0  0  0  0  0  0
   39.6430   27.0950   33.5470 C   0  0  0  0  0  0  0  0  0  0  0  0
   38.3170   26.6860   32.9150 C   0  0  1  0  0  0  0  0  0  0  0  0
   36.5950   26.3310   34.8980 H   0  0  0  0  0  0  0  0  0  0  0  0
   36.3950   28.0640   35.2370 H   0  0  0  0  0  0  0  0  0  0  0  0
   38.1130   26.6460   36.5560 H   0  0  0  0  0  0  0  0  0  0  0  0
   38.4870   28.2990   36.0810 H   0  0  0  0  0  0  0  0  0  0  0  0
   39.7580   25.7670   35.2140 H   0  0  0  0  0  0  0  0  0  0  0  0
   40.4700   27.3820   35.5010 H   0  0  0  0  0  0  0  0  0  0  0  0
   40.4990   26.5970   33.0890 H   0  0  0  0  0  0  0  0  0  0  0  0
   39.7420   28.1940   33.3990 H   0  0  0  0  0  0  0  0  0  0  0  0
   38.4740   26.7580   31.8240 H   0  0  0  0  0  0  0  0  0  0  0  0
   36.5700   28.5540   32.6570 C   0  0  0  0  0  0  0  0  0  0  0  0
   35.5590   29.3540   33.1850 C   0  0  0  0  0  0  0  0  0  0  0  0
   34.9320   30.2650   32.3350 C   0  0  0  0  0  0  0  0  0  0  0  0
   35.3380   30.3250   31.0440 N   0  0  0  0  0  0  0  0  0  0  0  0
   36.3210   29.5330   30.5760 C   0  0  0  0  0  0  0  0  0  0  0  0
   36.9390   28.6440   31.3840 N   0  0  0  0  0  0  0  0  0  0  0  0
   35.3070   29.2380   34.2090 H   0  0  0  0  0  0  0  0  0  0  0  0
   34.1530   30.8650   32.7880 H   0  0  0  0  0  0  0  0  0  0  0  0
   36.5850   29.6440   29.5310 H   0  0  0  0  0  0  0  0  0  0  0  0
   38.0820   25.3730   33.3540 O   0  0  0  0  0  0  0  0  0  0  0  0
   38.5130   22.7080   34.0350 F   0  0  0  0  0  0  0  0  0  0  0  0
   37.5920   23.1120   33.1160 C   0  0  0  0  0  0  0  0  0  0  0  0
   37.3210   24.4260   32.7240 C   0  0  0  0  0  0  0  0  0  0  0  0
   36.3530   24.5930   31.7830 C   0  0  0  0  0  0  0  0  0  0  0  0
   36.1580   25.6160   31.4940 H   0  0  0  0  0  0  0  0  0  0  0  0
   35.6510   23.5480   31.2190 C   0  0  0  0  0  0  0  0  0  0  0  0
   34.9070   23.8280   30.4820 H   0  0  0  0  0  0  0  0  0  0  0  0
   35.9200   22.2660   31.6050 C   0  0  0  0  0  3  0  0  0  0  0  0
   36.9000   22.0480   32.5640 C   0  0  0  0  0  3  0  0  0  0  0  0
  1  2  1  0  0  0  0
  2  7  1  0  0  0  0
  2  8  1  0  0  0  0
  2  3  1  0  0  0  0
  3 10  1  0  0  0  0
  3  9  1  0  0  0  0
  4 11  1  0  0  0  0
  4 12  1  0  0  0  0
  4  3  1  0  0  0  0
  5  4  1  0  0  0  0
  6 15  1  6  0  0  0
  6 25  1  0  0  0  0
  6  1  1  0  0  0  0
  6  5  1  0  0  0  0
 13  5  1  0  0  0  0
 14  5  1  0  0  0  0
 16 17  1  0  0  0  0
 16  1  1  0  0  0  0
 17 22  1  0  0  0  0
 18 23  1  0  0  0  0
 18 17  2  0  0  0  0
 19 18  1  0  0  0  0
 20 19  2  0  0  0  0
 20 21  1  0  0  0  0
 21 16  2  0  0  0  0
 24 20  1  0  0  0  0
 27 26  1  0  0  0  0
 28 27  1  0  0  0  0
 28 25  1  0  0  0  0
 29 28  2  0  0  0  0
 30 29  1  0  0  0  0
 31 33  2  0  0  0  0
 31 29  1  0  0  0  0
 32 31  1  0  0  0  0
 33 34  1  0  0  0  0
 34 27  2  0  0  0  0
M  END
>  <minimizedAffinity>
-5.13159418

$$$$

 OpenBabel03272503003D

 34 36  0  0  1  0  0  0  0  0999 V2000
   38.7770   24.9060   34.6860 N   0  0  0  0  0  0  0  0  0  0  0  0
   39.9390   25.3320   33.9340 C   0  0  0  0  0  0  0  0  0  0  0  0
   39.8950   26.6520   33.3180 C   0  0  0  0  0  0  0  0  0  0  0  0
   38.5900   27.2140   32.9400 C   0  0  0  0  0  0  0  0  0  0  0  0
   37.4360   26.6550   33.7300 C   0  0  0  0  0  0  0  0  0  0  0  0
   37.6000   25.1460   33.8770 C   0  0  1  0  0  0  0  0  0  0  0  0
   40.0710   24.5620   33.1190 H   0  0  0  0  0  0  0  0  0  0  0  0
   40.8380   25.2240   34.5790 H   0  0  0  0  0  0  0  0  0  0  0  0
   40.5890   26.6670   32.4450 H   0  0  0  0  0  0  0  0  0  0  0  0
   40.3660   27.3760   34.0400 H   0  0  0  0  0  0  0  0  0  0  0  0
   38.3950   27.0160   31.8570 H   0  0  0  0  0  0  0  0  0  0  0  0
   38.5760   28.3350   33.0500 H   0  0  0  0  0  0  0  0  0  0  0  0
   36.4750   26.9330   33.2930 H   0  0  0  0  0  0  0  0  0  0  0  0
   37.5060   27.0850   34.7540 H   0  0  0  0  0  0  0  0  0  0  0  0
   36.6630   24.7900   34.3400 H   0  0  0  0  0  0  0  0  0  0  0  0
   38.8050   24.3470   36.0020 C   0  0  0  0  0  0  0  0  0  0  0  0
   37.9250   24.7100   37.0190 C   0  0  0  0  0  0  0  0  0  0  0  0
   38.0620   24.0860   38.2590 C   0  0  0  0  0  0  0  0  0  0  0  0
   39.0400   23.1610   38.4090 N   0  0  0  0  0  0  0  0  0  0  0  0
   39.8680   22.8400   37.3980 C   0  0  0  0  0  0  0  0  0  0  0  0
   39.7510   23.4350   36.1910 N   0  0  0  0  0  0  0  0  0  0  0  0
   37.1890   25.4460   36.8100 H   0  0  0  0  0  0  0  0  0  0  0  0
   37.3570   24.4000   39.0190 H   0  0  0  0  0  0  0  0  0  0  0  0
   40.6240   22.0900   37.6020 H   0  0  0  0  0  0  0  0  0  0  0  0
   37.7900   24.6610   32.5720 O   0  0  0  0  0  0  0  0  0  0  0  0
   35.1580   24.3260   31.7290 F   0  0  0  0  0  0  0  0  0  0  0  0
   36.0930   23.3360   31.6940 C   0  0  0  0  0  0  0  0  0  0  0  0
   37.4280   23.4300   32.0990 C   0  0  0  0  0  0  0  0  0  0  0  0
   38.1820   22.3050   31.9740 C   0  0  0  0  0  0  0  0  0  0  0  0
   39.2110   22.3970   32.2910 H   0  0  0  0  0  0  0  0  0  0  0  0
   37.6950   21.1130   31.4780 C   0  0  0  0  0  0  0  0  0  0  0  0
   38.4090   20.2980   31.4340 H   0  0  0  0  0  0  0  0  0  0  0  0
   36.3900   21.0260   31.0840 C   0  0  0  0  0  3  0  0  0  0  0  0
   35.5830   22.1510   31.1930 C   0  0  0  0  0  3  0  0  0  0  0  0
  1 16  1  0  0  0  0
  2  8  1  0  0  0  0
  2  1  1  0  0  0  0
  3  2  1  0  0  0  0
  3 10  1  0  0  0  0
  4 12  1  0  0  0  0
  4  3  1  0  0  0  0
  4  5  1  0  0  0  0
  5  6  1  0  0  0  0
  5 14  1  0  0  0  0
  6 15  1  1  0  0  0
  6  1  1  0  0  0  0
  7  2  1  0  0  0  0
  9  3  1  0  0  0  0
 11  4  1  0  0  0  0
 13  5  1  0  0  0  0
 16 21  2  0  0  0  0
 16 17  1  0  0  0  0
 17 18  2  0  0  0  0
 18 19  1  0  0  0  0
 18 23  1  0  0  0  0
 20 24  1  0  0  0  0
 20 19  2  0  0  0  0
 21 20  1  0  0  0  0
 22 17  1  0  0  0  0
 25  6  1  0  0  0  0
 27 26  1  0  0  0  0
 27 28  1  0  0  0  0
 28 25  1  0  0  0  0
 29 28  2  0  0  0  0
 29 30  1  0  0  0  0
 31 29  1  0  0  0  0
 32 31  1  0  0  0  0
 33 34  1  0  0  0  0
 33 31  2  0  0  0  0
 34 27  2  0  0  0  0
M  END
>  <minimizedAffinity>
-5.07825041

$$$$

 OpenBabel03272503003D

 34 36  0  0  1  0  0  0  0  0999 V2000
   38.9030   25.0050   34.8200 N   0  0  0  0  0  0  0  0  0  0  0  0
   39.0430   24.3590   33.5310 C   0  0  0  0  0  0  0  0  0  0  0  0
   39.9790   24.9480   32.5820 C   0  0  0  0  0  0  0  0  0  0  0  0
   40.2520   26.3910   32.6590 C   0  0  0  0  0  0  0  0  0  0  0  0
   40.0070   26.9830   34.0210 C   0  0  0  0  0  0  0  0  0  0  0  0
   38.7110   26.4230   34.5980 C   0  0  1  0  0  0  0  0  0  0  0  0
   38.0120   24.3730   33.0710 H   0  0  0  0  0  0  0  0  0  0  0  0
   39.2690   23.2830   33.6960 H   0  0  0  0  0  0  0  0  0  0  0  0
   39.6680   24.6690   31.5470 H   0  0  0  0  0  0  0  0  0  0  0  0
   40.9650   24.4210   32.7110 H   0  0  0  0  0  0  0  0  0  0  0  0
   39.6080   26.9350   31.9250 H   0  0  0  0  0  0  0  0  0  0  0  0
   41.3140   26.6270   32.3630 H   0  0  0  0  0  0  0  0  0  0  0  0
   40.0190   28.0740   33.9950 H   0  0  0  0  0  0  0  0  0  0  0  0
   40.8290   26.6280   34.6820 H   0  0  0  0  0  0  0  0  0  0  0  0
   38.5260   26.9960   35.5230 H   0  0  0  0  0  0  0  0  0  0  0  0
   38.9490   24.3400   36.0850 C   0  0  0  0  0  0  0  0  0  0  0  0
   39.8810   23.3590   36.4130 C   0  0  0  0  0  0  0  0  0  0  0  0
   39.8150   22.7900   37.6860 C   0  0  0  0  0  0  0  0  0  0  0  0
   38.8500   23.2220   38.5330 N   0  0  0  0  0  0  0  0  0  0  0  0
   37.9700   24.1740   38.1740 C   0  0  0  0  0  0  0  0  0  0  0  0
   38.0180   24.7350   36.9470 N   0  0  0  0  0  0  0  0  0  0  0  0
   40.6010   23.0840   35.6840 H   0  0  0  0  0  0  0  0  0  0  0  0
   40.5590   22.0320   37.8960 H   0  0  0  0  0  0  0  0  0  0  0  0
   37.2300   24.4620   38.9130 H   0  0  0  0  0  0  0  0  0  0  0  0
   37.7370   26.6410   33.6090 O   0  0  0  0  0  0  0  0  0  0  0  0
   37.6770   27.7730   31.0660 F   0  0  0  0  0  0  0  0  0  0  0  0
   37.0070   28.2860   32.1360 C   0  0  0  0  0  0  0  0  0  0  0  0
   36.9900   27.7750   33.4370 C   0  0  0  0  0  0  0  0  0  0  0  0
   36.2470   28.4570   34.3490 C   0  0  0  0  0  0  0  0  0  0  0  0
   36.2460   28.0470   35.3480 H   0  0  0  0  0  0  0  0  0  0  0  0
   35.5320   29.5990   34.0480 C   0  0  0  0  0  0  0  0  0  0  0  0
   34.9840   30.0390   34.8740 H   0  0  0  0  0  0  0  0  0  0  0  0
   35.5520   30.0940   32.7760 C   0  0  0  0  0  3  0  0  0  0  0  0
   36.2970   29.4290   31.8110 C   0  0  0  0  0  3  0  0  0  0  0  0
  1 16  1  0  0  0  0
  2  8  1  0  0  0  0
  2  1  1  0  0  0  0
  3  4  1  0  0  0  0
  3 10  1  0  0  0  0
  3  2  1  0  0  0  0
  4  5  1  0  0  0  0
  5  6  1  0  0  0  0
  5 14  1  0  0  0  0
  6  1  1  0  0  0  0
  6 15  1  1  0  0  0
  7  2  1  0  0  0  0
  9  3  1  0  0  0  0
 11  4  1  0  0  0  0
 12  4  1  0  0  0  0
 13  5  1  0  0  0  0
 16 17  2  0  0  0  0
 16 21  1  0  0  0  0
 17 18  1  0  0  0  0
 18 23  1  0  0  0  0
 18 19  2  0  0  0  0
 20 19  1  0  0  0  0
 20 24  1  0  0  0  0
 21 20  2  0  0  0  0
 22 17  1  0  0  0  0
 25  6  1  0  0  0  0
 26 27  1  0  0  0  0
 27 28  1  0  0  0  0
 28 25  1  0  0  0  0
 28 29  2  0  0  0  0
 29 30  1  0  0  0  0
 31 29  1  0  0  0  0
 31 32  1  0  0  0  0
 33 31  2  0  0  0  0
 34 27  2  0  0  0  0
 34 33  1  0  0  0  0
M  END
>  <minimizedAffinity>
-5.05697489

$$$$
