
 OpenBabel03272509463D

 25 26  0  0  0  0  0  0  0  0999 V2000
   33.6160   28.4280   49.2960 C   0  0  0  0  0  0  0  0  0  0  0  0
   33.9360   28.0350   50.2900 H   0  0  0  0  0  0  0  0  0  0  0  0
   33.0100   29.3390   49.4800 H   0  0  0  0  0  0  0  0  0  0  0  0
   34.8470   28.7000   48.4960 C   0  0  0  0  0  0  0  0  0  0  0  0
   35.2690   27.8100   48.0310 H   0  0  0  0  0  0  0  0  0  0  0  0
   34.5530   29.4500   47.7070 H   0  0  0  0  0  0  0  0  0  0  0  0
   36.8470   30.1530   47.3090 F   0  0  0  0  0  0  0  0  0  0  0  0
   36.8200   30.0280   48.6730 C   0  0  0  0  0  0  0  0  0  0  0  0
   35.8610   29.3170   49.3960 C   0  0  0  0  0  0  0  0  0  0  0  0
   35.9590   29.2740   50.7670 C   0  0  0  0  0  0  0  0  0  0  0  0
   35.1600   28.6960   51.2140 H   0  0  0  0  0  0  0  0  0  0  0  0
   36.9730   29.9100   51.4280 C   0  0  0  0  0  0  0  0  0  0  0  0
   36.9960   29.8400   52.5000 H   0  0  0  0  0  0  0  0  0  0  0  0
   37.9320   30.6210   50.7060 C   0  0  0  0  0  3  0  0  0  0  0  0
   37.8520   30.6790   49.3110 C   0  0  0  0  0  3  0  0  0  0  0  0
   32.7720   27.5100   48.6500 O   0  0  0  0  0  0  0  0  0  0  0  0
   29.5120   28.4960   47.4170 C   0  0  0  0  0  0  0  0  0  0  0  0
   28.7750   28.4650   48.5950 C   0  0  0  0  0  0  0  0  0  0  0  0
   29.4310   28.1050   49.7650 C   0  0  0  0  0  0  0  0  0  0  0  0
   30.7580   27.8090   49.6650 N   0  0  0  0  0  0  0  0  0  0  0  0
   31.4430   27.8500   48.4990 C   0  0  0  0  0  0  0  0  0  0  0  0
   30.8060   28.2000   47.3610 N   0  0  0  0  0  0  0  0  0  0  0  0
   28.9460   28.7850   46.5360 H   0  0  0  0  0  0  0  0  0  0  0  0
   27.7380   28.6880   48.7190 H   0  0  0  0  0  0  0  0  0  0  0  0
   28.9470   28.0500   50.7340 H   0  0  0  0  0  0  0  0  0  0  0  0
  1  3  1  0  0  0  0
  1  2  1  0  0  0  0
  4  1  1  0  0  0  0
  4  9  1  0  0  0  0
  5  4  1  0  0  0  0
  6  4  1  0  0  0  0
  7  8  1  0  0  0  0
  8 15  2  0  0  0  0
  8  9  1  0  0  0  0
  9 10  2  0  0  0  0
 10 11  1  0  0  0  0
 10 12  1  0  0  0  0
 12 13  1  0  0  0  0
 14 12  2  0  0  0  0
 15 14  1  0  0  0  0
 16  1  1  0  0  0  0
 17 18  1  0  0  0  0
 18 24  1  0  0  0  0
 18 19  2  0  0  0  0
 19 25  1  0  0  0  0
 20 19  1  0  0  0  0
 21 16  1  0  0  0  0
 21 20  2  0  0  0  0
 22 17  2  0  0  0  0
 22 21  1  0  0  0  0
 23 17  1  0  0  0  0
M  END
>  <minimizedAffinity>
-5.16286087

>  <minimizedRMSD>
6.59604692

$$$$
