
 OpenBabel03272507553D

 23 24  0  0  0  0  0  0  0  0999 V2000
   35.1780   28.7050   49.9950 C   0  0  0  0  0  0  0  0  0  0  0  0
   36.2790   29.6020   49.8720 C   0  0  0  0  0  0  0  0  0  0  0  0
   36.2390   30.5200   48.8440 C   0  0  0  0  0  0  0  0  0  0  0  0
   35.1490   30.5270   47.9990 N   0  0  0  0  0  0  0  0  0  0  0  0
   34.1250   29.6510   48.1600 C   0  0  0  0  0  0  0  0  0  0  0  0
   34.1430   28.7440   49.1560 N   0  0  0  0  0  0  0  0  0  0  0  0
   33.1060   29.8270   47.1810 N   0  0  0  0  0  0  0  0  0  0  0  0
   35.1720   27.9510   50.8020 H   0  0  0  0  0  0  0  0  0  0  0  0
   33.4110   29.2620   46.3500 H   0  0  0  0  0  0  0  0  0  0  0  0
   32.2460   30.3750   47.2390 H   0  0  0  0  0  0  0  0  0  0  0  0
   37.9570   30.3550   46.6930 F   0  0  0  0  0  0  0  0  0  0  0  0
   38.1570   31.4330   47.5310 C   0  0  0  0  0  0  0  0  0  0  0  0
   37.2300   31.5150   48.5770 C   0  0  0  0  0  0  0  0  0  0  0  0
   37.3540   32.5890   49.4510 C   0  0  0  0  0  0  0  0  0  0  0  0
   36.7260   32.7900   50.3360 H   0  0  0  0  0  0  0  0  0  0  0  0
   38.3290   33.5370   49.3210 C   0  0  0  0  0  0  0  0  0  0  0  0
   38.5050   34.3900   49.9440 H   0  0  0  0  0  0  0  0  0  0  0  0
   39.2340   33.4180   48.2630 C   0  0  0  0  0  3  0  0  0  0  0  0
   39.1630   32.3830   47.3660 C   0  0  0  0  0  3  0  0  0  0  0  0
   37.4080   29.5360   50.8420 C   0  0  0  0  0  0  0  0  0  0  0  0
   38.6140   29.7760   50.2270 F   0  0  0  0  0  0  0  0  0  0  0  0
   37.1930   30.4670   51.8220 F   0  0  0  0  0  0  0  0  0  0  0  0
   37.4790   28.2950   51.4650 F   0  0  0  0  0  0  0  0  0  0  0  0
  1  8  1  0  0  0  0
  2  1  1  0  0  0  0
  2 20  1  0  0  0  0
  3  2  2  0  0  0  0
  4  5  2  0  0  0  0
  4  3  1  0  0  0  0
  5  6  1  0  0  0  0
  6  1  2  0  0  0  0
  7 10  1  0  0  0  0
  7  5  1  0  0  0  0
  9  7  1  0  0  0  0
 11 12  1  0  0  0  0
 12 13  1  0  0  0  0
 13  3  1  0  0  0  0
 13 14  2  0  0  0  0
 14 15  1  0  0  0  0
 16 14  1  0  0  0  0
 16 17  1  0  0  0  0
 18 16  2  0  0  0  0
 19 12  2  0  0  0  0
 19 18  1  0  0  0  0
 20 23  1  0  0  0  0
 20 22  1  0  0  0  0
 21 20  1  0  0  0  0
M  END
>  <minimizedAffinity>
-6.34632063

>  <minimizedRMSD>
1.48165607

$$$$
