
 OpenBabel03272501433D

 34 37  0  0  0  0  0  0  0  0999 V2000
   33.5910   28.8380   49.3850 C   0  0  0  0  0  0  0  0  0  0  0  0
   34.1140   29.3490   48.1580 C   0  0  0  0  0  0  0  0  0  0  0  0
   33.4460   29.0210   46.9870 C   0  0  0  0  0  0  0  0  0  0  0  0
   32.3410   28.2400   47.0680 N   0  0  0  0  0  0  0  0  0  0  0  0
   31.8610   27.7650   48.2410 C   0  0  0  0  0  0  0  0  0  0  0  0
   32.4920   28.0700   49.3890 N   0  0  0  0  0  0  0  0  0  0  0  0
   33.9640   28.9760   50.3900 H   0  0  0  0  0  0  0  0  0  0  0  0
   33.8610   29.4170   46.0910 H   0  0  0  0  0  0  0  0  0  0  0  0
   35.5710   30.6740   49.5750 C   0  0  0  0  0  0  0  0  0  0  0  0
   35.2930   30.1630   48.3070 C   0  0  0  0  0  0  0  0  0  0  0  0
   36.1760   30.4790   47.2870 C   0  0  0  0  0  0  0  0  0  0  0  0
   37.2860   31.2810   47.5730 C   0  0  0  0  0  0  0  0  0  0  0  0
   38.2920   31.7450   46.8100 N   0  0  0  0  0  0  0  0  0  0  0  0
   39.1210   32.4810   47.5520 C   0  0  0  0  0  0  0  0  0  0  0  0
   38.6540   32.5010   48.8170 N   0  0  0  0  0  0  0  0  0  0  0  0
   37.5320   31.7670   48.8300 C   0  0  0  0  0  0  0  0  0  0  0  0
   36.6670   31.4640   49.8470 C   0  0  0  0  0  0  0  0  0  0  0  0
   34.9600   30.5120   50.4790 H   0  0  0  0  0  0  0  0  0  0  0  0
   35.9800   30.0970   46.3070 H   0  0  0  0  0  0  0  0  0  0  0  0
   38.3970   31.5510   45.7930 H   0  0  0  0  0  0  0  0  0  0  0  0
   40.0270   33.0080   47.2920 H   0  0  0  0  0  0  0  0  0  0  0  0
   36.8930   31.8650   50.8310 H   0  0  0  0  0  0  0  0  0  0  0  0
   30.6350   26.9110   48.2500 C   0  0  0  0  0  0  0  0  0  0  0  0
   30.8630   26.0410   48.9050 H   0  0  0  0  0  0  0  0  0  0  0  0
   30.3970   26.6010   47.2160 H   0  0  0  0  0  0  0  0  0  0  0  0
   29.5040   26.5060   50.8440 F   0  0  0  0  0  0  0  0  0  0  0  0
   28.9540   27.5190   50.1040 C   0  0  0  0  0  0  0  0  0  0  0  0
   29.5290   27.6770   48.8650 C   0  0  0  0  0  0  0  0  0  0  0  0
   29.0420   28.6820   48.0280 C   0  0  0  0  0  0  0  0  0  0  0  0
   29.4160   28.9030   47.0280 H   0  0  0  0  0  0  0  0  0  0  0  0
   28.0060   29.4960   48.4470 C   0  0  0  0  0  0  0  0  0  0  0  0
   27.6020   30.2890   47.8180 H   0  0  0  0  0  0  0  0  0  0  0  0
   27.4360   29.3290   49.6890 C   0  0  0  0  0  0  0  0  0  0  0  0
   27.9230   28.3280   50.5210 C   0  0  0  0  0  0  0  0  0  0  0  0
  1  6  1  0  0  0  0
  1  7  1  0  0  0  0
  2 10  1  0  0  0  0
  2  1  2  0  0  0  0
  3  4  2  0  0  0  0
  3  2  1  0  0  0  0
  4  5  1  0  0  0  0
  5 23  1  0  0  0  0
  5  6  2  0  0  0  0
  8  3  1  0  0  0  0
  9 17  1  0  0  0  0
  9 18  1  0  0  0  0
 10  9  2  0  0  0  0
 11 12  2  0  0  0  0
 11 10  1  0  0  0  0
 12 16  1  0  0  0  0
 13 14  1  0  0  0  0
 13 12  1  0  0  0  0
 14 15  2  0  0  0  0
 15 16  1  0  0  0  0
 16 17  2  0  0  0  0
 17 22  1  0  0  0  0
 19 11  1  0  0  0  0
 20 13  1  0  0  0  0
 21 14  1  0  0  0  0
 23 28  1  0  0  0  0
 23 24  1  0  0  0  0
 25 23  1  0  0  0  0
 27 34  1  0  0  0  0
 27 26  1  0  0  0  0
 28 27  2  0  0  0  0
 29 31  2  0  0  0  0
 29 28  1  0  0  0  0
 30 29  1  0  0  0  0
 31 33  1  0  0  0  0
 32 31  1  0  0  0  0
 33 34  2  0  0  0  0
M  END
>  <minimizedAffinity>
-6.79058743

>  <minimizedRMSD>
2.51209378

$$$$
