
 OpenBabel03272506383D

 37 39  0  0  1  0  0  0  0  0999 V2000
   34.9250   28.4760   49.9580 O   0  0  0  0  0  0  0  0  0  0  0  0
   34.7390   28.8420   48.7900 C   0  0  0  0  0  0  0  0  0  0  0  0
   35.4470   29.9710   48.2280 C   0  0  2  0  0  0  0  0  0  0  0  0
   35.0100   29.8870   46.7290 C   0  0  0  0  0  0  0  0  0  0  0  0
   33.6790   29.1930   46.8090 C   0  0  0  0  0  0  0  0  0  0  0  0
   33.8280   28.2150   47.8800 N   0  0  0  0  0  0  0  0  0  0  0  0
   35.1050   30.9230   48.6300 H   0  0  0  0  0  0  0  0  0  0  0  0
   34.8400   30.9330   46.4230 H   0  0  0  0  0  0  0  0  0  0  0  0
   35.7590   29.3400   46.1550 H   0  0  0  0  0  0  0  0  0  0  0  0
   32.8310   29.8600   46.9580 H   0  0  0  0  0  0  0  0  0  0  0  0
   33.5860   28.6010   45.8630 H   0  0  0  0  0  0  0  0  0  0  0  0
   33.1800   26.9220   47.9410 C   0  0  0  0  0  0  0  0  0  0  0  0
   33.5740   26.3870   48.8070 H   0  0  0  0  0  0  0  0  0  0  0  0
   33.4140   26.2880   47.0440 H   0  0  0  0  0  0  0  0  0  0  0  0
   31.6460   28.2810   49.9590 F   0  0  0  0  0  0  0  0  0  0  0  0
   30.9750   27.6690   48.9580 C   0  0  0  0  0  0  0  0  0  0  0  0
   31.6990   27.0180   47.9870 C   0  0  0  0  0  0  0  0  0  0  0  0
   30.9970   26.3890   46.9500 C   0  0  0  0  0  0  0  0  0  0  0  0
   31.4770   25.8560   46.1450 H   0  0  0  0  0  0  0  0  0  0  0  0
   29.6280   26.4770   46.9950 C   0  0  0  0  0  0  0  0  0  0  0  0
   29.0650   25.9910   46.1930 H   0  0  0  0  0  0  0  0  0  0  0  0
   28.8800   27.1300   47.9690 C   0  0  0  0  0  0  0  0  0  0  0  0
   29.5970   27.7440   48.9830 C   0  0  0  0  0  0  0  0  0  0  0  0
   36.8680   29.8340   48.2190 O   0  0  0  0  0  0  0  0  0  0  0  0
   37.6260   31.0020   48.2600 C   0  0  0  0  0  0  0  0  0  0  0  0
   37.7660   31.6190   49.4900 C   0  0  0  0  0  0  0  0  0  0  0  0
   38.5140   32.7830   49.5600 C   0  0  0  0  0  0  0  0  0  0  0  0
   39.0780   33.2700   48.4170 N   0  0  0  0  0  0  0  0  0  0  0  0
   38.9310   32.6550   47.2310 C   0  0  0  0  0  0  0  0  0  0  0  0
   38.2150   31.5460   47.1760 N   0  0  0  0  0  0  0  0  0  0  0  0
   40.4630   32.2850   45.4570 C   0  0  0  0  0  0  0  0  0  0  0  0
   40.7750   31.1130   45.8320 O   0  0  0  0  0  0  0  0  0  0  0  0
   39.5370   33.1990   46.0640 N   0  0  0  0  0  0  0  0  0  0  0  0
   37.3440   31.2860   50.4330 H   0  0  0  0  0  0  0  0  0  0  0  0
   38.6580   33.3020   50.4730 H   0  0  0  0  0  0  0  0  0  0  0  0
   41.0030   32.5570   44.5580 H   0  0  0  0  0  0  0  0  0  0  0  0
   39.4170   34.1210   45.6010 H   0  0  0  0  0  0  0  0  0  0  0  0
  2  1  2  0  0  0  0
  3  7  1  1  0  0  0
  3  2  1  0  0  0  0
  4  5  1  0  0  0  0
  4  3  1  0  0  0  0
  5 10  1  0  0  0  0
  5  6  1  0  0  0  0
  6 12  1  0  0  0  0
  6  2  1  0  0  0  0
  8  4  1  0  0  0  0
  9  4  1  0  0  0  0
 11  5  1  0  0  0  0
 12 17  1  0  0  0  0
 12 13  1  0  0  0  0
 14 12  1  0  0  0  0
 16 23  1  0  0  0  0
 16 15  1  0  0  0  0
 17 16  2  0  0  0  0
 18 20  2  0  0  0  0
 18 17  1  0  0  0  0
 19 18  1  0  0  0  0
 20 22  1  0  0  0  0
 21 20  1  0  0  0  0
 22 23  2  0  0  0  0
 24  3  1  0  0  0  0
 24 25  1  0  0  0  0
 25 26  1  0  0  0  0
 26 27  2  0  0  0  0
 26 34  1  0  0  0  0
 27 35  1  0  0  0  0
 28 27  1  0  0  0  0
 29 28  2  0  0  0  0
 30 29  1  0  0  0  0
 30 25  2  0  0  0  0
 31 32  2  0  0  0  0
 31 33  1  0  0  0  0
 33 29  1  0  0  0  0
 36 31  1  0  0  0  0
 37 33  1  0  0  0  0
M  END
>  <minimizedAffinity>
-6.23315144

>  <minimizedRMSD>
3.28133011

$$$$
