
 OpenBabel03272509013D

 31 33  0  0  0  0  0  0  0  0999 V2000
   39.0950   23.8830   33.7840 Cl  0  0  0  0  0  0  0  0  0  0  0  0
   37.8490   22.6780   33.7900 C   0  0  0  0  0  0  0  0  0  0  0  0
   37.4630   22.0940   34.9910 C   0  0  0  0  0  0  0  0  0  0  0  0
   36.4850   21.1340   35.0440 C   0  0  0  0  0  0  0  0  0  0  0  0
   35.8520   20.7180   33.8970 C   0  0  0  0  0  0  0  0  0  0  0  0
   36.2070   21.2770   32.6810 C   0  0  0  0  0  0  0  0  0  0  0  0
   35.4750   20.8310   31.1510 Cl  0  0  0  0  0  0  0  0  0  0  0  0
   37.2020   22.2450   32.6770 C   0  0  0  0  0  0  0  0  0  0  0  0
   36.1620   20.6570   35.9700 H   0  0  0  0  0  0  0  0  0  0  0  0
   35.0760   19.9650   33.8920 H   0  0  0  0  0  0  0  0  0  0  0  0
   39.9610   22.6340   37.6160 C   0  0  0  0  0  0  0  0  0  0  0  0
   39.2710   23.3840   38.5700 C   0  0  0  0  0  0  0  0  0  0  0  0
   37.9150   23.7050   38.2910 C   0  0  0  0  0  0  0  0  0  0  0  0
   37.3990   23.2560   37.1220 N   0  0  0  0  0  0  0  0  0  0  0  0
   38.1130   22.5240   36.2150 C   0  0  0  0  0  0  0  0  0  0  0  0
   39.3770   22.2310   36.4850 N   0  0  0  0  0  0  0  0  0  0  0  0
   41.0010   22.4080   37.8690 H   0  0  0  0  0  0  0  0  0  0  0  0
   39.6630   23.7500   39.5070 H   0  0  0  0  0  0  0  0  0  0  0  0
   37.2700   24.2670   38.9250 H   0  0  0  0  0  0  0  0  0  0  0  0
   37.5830   22.8630   31.3700 C   0  0  0  0  0  0  0  0  0  0  0  0
   38.6730   23.0540   31.3300 H   0  0  0  0  0  0  0  0  0  0  0  0
   37.2540   22.2040   30.5240 H   0  0  0  0  0  0  0  0  0  0  0  0
   39.1260   25.1520   30.8830 F   0  0  0  0  0  0  0  0  0  0  0  0
   37.7630   25.2750   30.9650 C   0  0  0  0  0  0  0  0  0  0  0  0
   36.9230   24.1900   31.2040 C   0  0  0  0  0  0  0  0  0  0  0  0
   35.5600   24.4200   31.2680 C   0  0  0  0  0  0  0  0  0  0  0  0
   34.9840   23.5130   31.4590 H   0  0  0  0  0  0  0  0  0  0  0  0
   35.0410   25.6830   31.1030 C   0  0  0  0  0  0  0  0  0  0  0  0
   33.9520   25.7920   31.1670 H   0  0  0  0  0  0  0  0  0  0  0  0
   35.8990   26.7600   30.8640 C   0  0  0  0  0  3  0  0  0  0  0  0
   37.2720   26.5530   30.7950 C   0  0  0  0  0  3  0  0  0  0  0  0
  1  2  1  0  0  0  0
  2  3  1  0  0  0  0
  3  4  2  0  0  0  0
  3 15  1  0  0  0  0
  4  9  1  0  0  0  0
  5  4  1  0  0  0  0
  6  5  2  0  0  0  0
  7  6  1  0  0  0  0
  8  6  1  0  0  0  0
  8  2  2  0  0  0  0
 10  5  1  0  0  0  0
 11 17  1  0  0  0  0
 11 12  1  0  0  0  0
 12 18  1  0  0  0  0
 13 12  2  0  0  0  0
 13 19  1  0  0  0  0
 14 13  1  0  0  0  0
 15 16  1  0  0  0  0
 15 14  2  0  0  0  0
 16 11  2  0  0  0  0
 20  8  1  0  0  0  0
 21 20  1  0  0  0  0
 22 20  1  0  0  0  0
 23 24  1  0  0  0  0
 24 25  1  0  0  0  0
 25 26  2  0  0  0  0
 25 20  1  0  0  0  0
 26 27  1  0  0  0  0
 28 29  1  0  0  0  0
 28 26  1  0  0  0  0
 30 28  2  0  0  0  0
 31 30  1  0  0  0  0
 31 24  2  0  0  0  0
M  END
>  <minimizedAffinity>
-5.7144289

$$$$

 OpenBabel03272509013D

 31 33  0  0  0  0  0  0  0  0999 V2000
   38.5560   23.2190   32.3890 Cl  0  0  0  0  0  0  0  0  0  0  0  0
   37.1740   24.0740   31.7870 C   0  0  0  0  0  0  0  0  0  0  0  0
   35.9890   23.3860   31.5520 C   0  0  0  0  0  0  0  0  0  0  0  0
   34.8710   24.0190   31.0720 C   0  0  0  0  0  0  0  0  0  0  0  0
   34.8920   25.3680   30.8070 C   0  0  0  0  0  0  0  0  0  0  0  0
   36.0540   26.0890   31.0280 C   0  0  0  0  0  0  0  0  0  0  0  0
   36.2080   27.8100   30.7280 Cl  0  0  0  0  0  0  0  0  0  0  0  0
   37.1590   25.4050   31.5150 C   0  0  0  0  0  0  0  0  0  0  0  0
   33.9280   23.5070   30.8780 H   0  0  0  0  0  0  0  0  0  0  0  0
   34.0360   25.9080   30.4270 H   0  0  0  0  0  0  0  0  0  0  0  0
   36.1360   19.7440   31.1780 C   0  0  0  0  0  0  0  0  0  0  0  0
   35.8300   19.2750   32.4570 C   0  0  0  0  0  0  0  0  0  0  0  0
   35.5680   20.2440   33.4620 C   0  0  0  0  0  0  0  0  0  0  0  0
   35.6360   21.5490   33.1000 N   0  0  0  0  0  0  0  0  0  0  0  0
   35.9410   21.9640   31.8340 C   0  0  0  0  0  0  0  0  0  0  0  0
   36.1830   21.0510   30.9030 N   0  0  0  0  0  0  0  0  0  0  0  0
   36.3300   18.9670   30.4330 H   0  0  0  0  0  0  0  0  0  0  0  0
   35.7700   18.2420   32.7650 H   0  0  0  0  0  0  0  0  0  0  0  0
   35.3220   20.0330   34.4760 H   0  0  0  0  0  0  0  0  0  0  0  0
   38.4140   26.1770   31.7690 C   0  0  0  0  0  0  0  0  0  0  0  0
   39.3060   25.5520   31.5700 H   0  0  0  0  0  0  0  0  0  0  0  0
   38.4230   27.1080   31.1460 H   0  0  0  0  0  0  0  0  0  0  0  0
   40.8110   25.8390   33.1830 F   0  0  0  0  0  0  0  0  0  0  0  0
   39.7280   26.3780   33.8300 C   0  0  0  0  0  0  0  0  0  0  0  0
   38.5010   26.5790   33.2020 C   0  0  0  0  0  0  0  0  0  0  0  0
   37.4710   27.1300   33.9430 C   0  0  0  0  0  0  0  0  0  0  0  0
   36.5510   27.2500   33.3690 H   0  0  0  0  0  0  0  0  0  0  0  0
   37.6450   27.4720   35.2640 C   0  0  0  0  0  0  0  0  0  0  0  0
   36.7850   27.9040   35.7900 H   0  0  0  0  0  0  0  0  0  0  0  0
   38.8840   27.2620   35.8780 C   0  0  0  0  0  3  0  0  0  0  0  0
   39.9340   26.7100   35.1540 C   0  0  0  0  0  3  0  0  0  0  0  0
  2  1  1  0  0  0  0
  3  2  1  0  0  0  0
  3 15  1  0  0  0  0
  4  3  2  0  0  0  0
  5  6  2  0  0  0  0
  5  4  1  0  0  0  0
  6  8  1  0  0  0  0
  7  6  1  0  0  0  0
  8 20  1  0  0  0  0
  8  2  2  0  0  0  0
  9  4  1  0  0  0  0
 10  5  1  0  0  0  0
 11 12  1  0  0  0  0
 12 18  1  0  0  0  0
 12 13  2  0  0  0  0
 13 19  1  0  0  0  0
 14 13  1  0  0  0  0
 15 14  2  0  0  0  0
 16 11  2  0  0  0  0
 16 15  1  0  0  0  0
 17 11  1  0  0  0  0
 20 25  1  0  0  0  0
 21 20  1  0  0  0  0
 22 20  1  0  0  0  0
 23 24  1  0  0  0  0
 24 31  1  0  0  0  0
 25 24  2  0  0  0  0
 25 26  1  0  0  0  0
 26 28  2  0  0  0  0
 27 26  1  0  0  0  0
 28 29  1  0  0  0  0
 28 30  1  0  0  0  0
 31 30  2  0  0  0  0
M  END
>  <minimizedAffinity>
-5.70870018

$$$$

 OpenBabel03272509013D

 31 33  0  0  0  0  0  0  0  0999 V2000
   38.9200   21.7240   33.7220 Cl  0  0  0  0  0  0  0  0  0  0  0  0
   38.1060   23.1670   33.2150 C   0  0  0  0  0  0  0  0  0  0  0  0
   37.0080   23.0750   32.3690 C   0  0  0  0  0  0  0  0  0  0  0  0
   36.3340   24.1900   31.9380 C   0  0  0  0  0  0  0  0  0  0  0  0
   36.7320   25.4440   32.3360 C   0  0  0  0  0  0  0  0  0  0  0  0
   37.8220   25.5770   33.1800 C   0  0  0  0  0  0  0  0  0  0  0  0
   38.4270   27.1190   33.7570 Cl  0  0  0  0  0  0  0  0  0  0  0  0
   38.4710   24.4210   33.5900 C   0  0  0  0  0  0  0  0  0  0  0  0
   35.4700   24.1490   31.2730 H   0  0  0  0  0  0  0  0  0  0  0  0
   36.2320   26.3500   32.0210 H   0  0  0  0  0  0  0  0  0  0  0  0
   36.6320   19.9580   30.4800 C   0  0  0  0  0  0  0  0  0  0  0  0
   35.6650   19.2570   31.2030 C   0  0  0  0  0  0  0  0  0  0  0  0
   35.1380   19.8820   32.3650 C   0  0  0  0  0  0  0  0  0  0  0  0
   35.6150   21.1110   32.6790 N   0  0  0  0  0  0  0  0  0  0  0  0
   36.5640   21.7610   31.9420 C   0  0  0  0  0  0  0  0  0  0  0  0
   37.0490   21.1690   30.8600 N   0  0  0  0  0  0  0  0  0  0  0  0
   37.0110   19.4430   29.5930 H   0  0  0  0  0  0  0  0  0  0  0  0
   35.2710   18.2790   30.9690 H   0  0  0  0  0  0  0  0  0  0  0  0
   34.3980   19.4670   33.0090 H   0  0  0  0  0  0  0  0  0  0  0  0
   39.6410   24.5550   34.5110 C   0  0  0  0  0  0  0  0  0  0  0  0
   40.4460   23.8480   34.2280 H   0  0  0  0  0  0  0  0  0  0  0  0
   40.0110   25.6130   34.5100 H   0  0  0  0  0  0  0  0  0  0  0  0
   41.1360   22.6750   35.9580 F   0  0  0  0  0  0  0  0  0  0  0  0
   40.0490   23.2610   36.5540 C   0  0  0  0  0  0  0  0  0  0  0  0
   39.2530   24.2030   35.9070 C   0  0  0  0  0  0  0  0  0  0  0  0
   38.1780   24.7350   36.5970 C   0  0  0  0  0  0  0  0  0  0  0  0
   37.6140   25.4620   36.0110 H   0  0  0  0  0  0  0  0  0  0  0  0
   37.8960   24.3480   37.8860 C   0  0  0  0  0  0  0  0  0  0  0  0
   37.0280   24.8110   38.3720 H   0  0  0  0  0  0  0  0  0  0  0  0
   38.7050   23.4010   38.5210 C   0  0  0  0  0  3  0  0  0  0  0  0
   39.7910   22.8530   37.8470 C   0  0  0  0  0  3  0  0  0  0  0  0
  2  8  1  0  0  0  0
  2  1  1  0  0  0  0
  3  2  2  0  0  0  0
  4  5  2  0  0  0  0
  4  3  1  0  0  0  0
  5  6  1  0  0  0  0
  6  8  2  0  0  0  0
  6  7  1  0  0  0  0
  8 20  1  0  0  0  0
  9  4  1  0  0  0  0
 10  5  1  0  0  0  0
 11 16  2  0  0  0  0
 11 12  1  0  0  0  0
 12 13  2  0  0  0  0
 13 14  1  0  0  0  0
 13 19  1  0  0  0  0
 15  3  1  0  0  0  0
 15 14  2  0  0  0  0
 16 15  1  0  0  0  0
 17 11  1  0  0  0  0
 18 12  1  0  0  0  0
 20 25  1  0  0  0  0
 21 20  1  0  0  0  0
 22 20  1  0  0  0  0
 23 24  1  0  0  0  0
 24 31  1  0  0  0  0
 25 24  2  0  0  0  0
 25 26  1  0  0  0  0
 26 28  2  0  0  0  0
 27 26  1  0  0  0  0
 28 29  1  0  0  0  0
 28 30  1  0  0  0  0
 31 30  2  0  0  0  0
M  END
>  <minimizedAffinity>
-5.65124226

$$$$

 OpenBabel03272509013D

 31 33  0  0  0  0  0  0  0  0999 V2000
   38.0620   23.8080   33.6750 Cl  0  0  0  0  0  0  0  0  0  0  0  0
   37.0510   24.8010   32.6780 C   0  0  0  0  0  0  0  0  0  0  0  0
   36.2210   24.2080   31.7350 C   0  0  0  0  0  0  0  0  0  0  0  0
   35.4060   24.9530   30.9210 C   0  0  0  0  0  0  0  0  0  0  0  0
   35.3890   26.3240   31.0160 C   0  0  0  0  0  0  0  0  0  0  0  0
   36.2020   26.9530   31.9450 C   0  0  0  0  0  0  0  0  0  0  0  0
   36.2710   28.6920   32.1630 Cl  0  0  0  0  0  0  0  0  0  0  0  0
   37.0080   26.1570   32.7470 C   0  0  0  0  0  0  0  0  0  0  0  0
   34.7450   24.5160   30.1710 H   0  0  0  0  0  0  0  0  0  0  0  0
   34.7640   26.9510   30.3960 H   0  0  0  0  0  0  0  0  0  0  0  0
   37.1240   20.7710   30.8420 C   0  0  0  0  0  0  0  0  0  0  0  0
   36.1330   20.0050   31.4600 C   0  0  0  0  0  0  0  0  0  0  0  0
   35.1370   20.7000   32.1970 C   0  0  0  0  0  0  0  0  0  0  0  0
   35.2270   22.0510   32.2420 N   0  0  0  0  0  0  0  0  0  0  0  0
   36.2160   22.7610   31.6210 C   0  0  0  0  0  0  0  0  0  0  0  0
   37.1410   22.1030   30.9360 N   0  0  0  0  0  0  0  0  0  0  0  0
   37.8710   20.1990   30.2830 H   0  0  0  0  0  0  0  0  0  0  0  0
   36.0430   18.9300   31.4350 H   0  0  0  0  0  0  0  0  0  0  0  0
   34.3250   20.2480   32.7170 H   0  0  0  0  0  0  0  0  0  0  0  0
   37.8790   26.8270   33.7610 C   0  0  0  0  0  0  0  0  0  0  0  0
   37.4980   27.8390   33.9980 H   0  0  0  0  0  0  0  0  0  0  0  0
   37.9510   26.1940   34.6820 H   0  0  0  0  0  0  0  0  0  0  0  0
   40.0700   26.9180   35.5080 F   0  0  0  0  0  0  0  0  0  0  0  0
   40.2890   27.0520   34.1600 C   0  0  0  0  0  0  0  0  0  0  0  0
   39.2570   27.0190   33.2240 C   0  0  0  0  0  0  0  0  0  0  0  0
   39.5830   27.1630   31.8880 C   0  0  0  0  0  0  0  0  0  0  0  0
   38.7130   27.1240   31.2310 H   0  0  0  0  0  0  0  0  0  0  0  0
   40.8870   27.3350   31.4850 C   0  0  0  0  0  0  0  0  0  0  0  0
   41.0720   27.4430   30.4100 H   0  0  0  0  0  0  0  0  0  0  0  0
   41.9100   27.3660   32.4380 C   0  0  0  0  0  3  0  0  0  0  0  0
   41.6060   27.2240   33.7880 C   0  0  0  0  0  3  0  0  0  0  0  0
  2  8  1  0  0  0  0
  2  1  1  0  0  0  0
  3  2  2  0  0  0  0
  4  5  2  0  0  0  0
  4  3  1  0  0  0  0
  5  6  1  0  0  0  0
  6  7  1  0  0  0  0
  6  8  2  0  0  0  0
  8 20  1  0  0  0  0
  9  4  1  0  0  0  0
 10  5  1  0  0  0  0
 11 16  2  0  0  0  0
 11 12  1  0  0  0  0
 12 13  2  0  0  0  0
 13 14  1  0  0  0  0
 13 19  1  0  0  0  0
 15  3  1  0  0  0  0
 15 14  2  0  0  0  0
 16 15  1  0  0  0  0
 17 11  1  0  0  0  0
 18 12  1  0  0  0  0
 20 21  1  0  0  0  0
 20 22  1  0  0  0  0
 24 23  1  0  0  0  0
 25 20  1  0  0  0  0
 25 24  2  0  0  0  0
 26 25  1  0  0  0  0
 27 26  1  0  0  0  0
 28 26  2  0  0  0  0
 28 30  1  0  0  0  0
 29 28  1  0  0  0  0
 30 31  2  0  0  0  0
 31 24  1  0  0  0  0
M  END
>  <minimizedAffinity>
-5.59093571

$$$$

 OpenBabel03272509013D

 31 33  0  0  0  0  0  0  0  0999 V2000
   39.0560   27.0300   33.5800 Cl  0  0  0  0  0  0  0  0  0  0  0  0
   38.2010   25.6100   33.0760 C   0  0  0  0  0  0  0  0  0  0  0  0
   37.1010   25.7320   32.2350 C   0  0  0  0  0  0  0  0  0  0  0  0
   36.3910   24.6370   31.8130 C   0  0  0  0  0  0  0  0  0  0  0  0
   36.7520   23.3730   32.2160 C   0  0  0  0  0  0  0  0  0  0  0  0
   37.8430   23.2090   33.0530 C   0  0  0  0  0  0  0  0  0  0  0  0
   38.4020   21.6530   33.6360 Cl  0  0  0  0  0  0  0  0  0  0  0  0
   38.5310   24.3470   33.4530 C   0  0  0  0  0  0  0  0  0  0  0  0
   35.5240   24.7010   31.1550 H   0  0  0  0  0  0  0  0  0  0  0  0
   36.2220   22.4820   31.9100 H   0  0  0  0  0  0  0  0  0  0  0  0
   35.5580   29.0520   32.0880 C   0  0  0  0  0  0  0  0  0  0  0  0
   36.0070   29.5640   30.8690 C   0  0  0  0  0  0  0  0  0  0  0  0
   36.8600   28.7380   30.0900 C   0  0  0  0  0  0  0  0  0  0  0  0
   37.1700   27.5170   30.5900 N   0  0  0  0  0  0  0  0  0  0  0  0
   36.7060   27.0560   31.7910 C   0  0  0  0  0  0  0  0  0  0  0  0
   35.9110   27.8350   32.5100 N   0  0  0  0  0  0  0  0  0  0  0  0
   34.9030   29.7180   32.6570 H   0  0  0  0  0  0  0  0  0  0  0  0
   35.7720   30.5320   30.4530 H   0  0  0  0  0  0  0  0  0  0  0  0
   37.2760   28.9960   29.1440 H   0  0  0  0  0  0  0  0  0  0  0  0
   39.7180   24.1790   34.3460 C   0  0  0  0  0  0  0  0  0  0  0  0
   40.2880   23.2700   34.0740 H   0  0  0  0  0  0  0  0  0  0  0  0
   40.3650   25.0940   34.3000 H   0  0  0  0  0  0  0  0  0  0  0  0
   41.1040   22.4020   36.0140 F   0  0  0  0  0  0  0  0  0  0  0  0
   40.0300   23.0890   36.5210 C   0  0  0  0  0  0  0  0  0  0  0  0
   39.2870   23.9900   35.7610 C   0  0  0  0  0  0  0  0  0  0  0  0
   38.2220   24.6330   36.3670 C   0  0  0  0  0  0  0  0  0  0  0  0
   37.7010   25.3170   35.6950 H   0  0  0  0  0  0  0  0  0  0  0  0
   37.8990   24.3930   37.6820 C   0  0  0  0  0  0  0  0  0  0  0  0
   37.0420   24.9380   38.0970 H   0  0  0  0  0  0  0  0  0  0  0  0
   38.6550   23.4860   38.4300 C   0  0  0  0  0  3  0  0  0  0  0  0
   39.7300   22.8290   37.8420 C   0  0  0  0  0  3  0  0  0  0  0  0
  2  8  1  0  0  0  0
  2  1  1  0  0  0  0
  3  2  2  0  0  0  0
  4  5  2  0  0  0  0
  4  3  1  0  0  0  0
  5  6  1  0  0  0  0
  6  8  2  0  0  0  0
  6  7  1  0  0  0  0
  8 20  1  0  0  0  0
  9  4  1  0  0  0  0
 10  5  1  0  0  0  0
 11 16  1  0  0  0  0
 11 17  1  0  0  0  0
 12 11  2  0  0  0  0
 13 14  2  0  0  0  0
 13 12  1  0  0  0  0
 14 15  1  0  0  0  0
 15  3  1  0  0  0  0
 15 16  2  0  0  0  0
 18 12  1  0  0  0  0
 19 13  1  0  0  0  0
 20 25  1  0  0  0  0
 21 20  1  0  0  0  0
 22 20  1  0  0  0  0
 23 24  1  0  0  0  0
 24 31  1  0  0  0  0
 25 26  1  0  0  0  0
 25 24  2  0  0  0  0
 26 28  2  0  0  0  0
 27 26  1  0  0  0  0
 28 29  1  0  0  0  0
 28 30  1  0  0  0  0
 31 30  2  0  0  0  0
M  END
>  <minimizedAffinity>
-5.56011724

$$$$

 OpenBabel03272509013D

 31 33  0  0  0  0  0  0  0  0999 V2000
   36.5110   28.1980   34.5630 Cl  0  0  0  0  0  0  0  0  0  0  0  0
   36.2680   29.0880   33.0960 C   0  0  0  0  0  0  0  0  0  0  0  0
   35.4860   30.2370   33.1110 C   0  0  0  0  0  0  0  0  0  0  0  0
   35.2630   30.9720   31.9750 C   0  0  0  0  0  0  0  0  0  0  0  0
   35.8120   30.5870   30.7750 C   0  0  0  0  0  0  0  0  0  0  0  0
   36.5980   29.4480   30.7180 C   0  0  0  0  0  0  0  0  0  0  0  0
   37.3510   28.8530   29.2510 Cl  0  0  0  0  0  0  0  0  0  0  0  0
   36.7960   28.7370   31.8940 C   0  0  0  0  0  0  0  0  0  0  0  0
   34.6530   31.8770   31.9550 H   0  0  0  0  0  0  0  0  0  0  0  0
   35.6620   31.1340   29.8540 H   0  0  0  0  0  0  0  0  0  0  0  0
   33.1410   30.7550   35.8780 C   0  0  0  0  0  0  0  0  0  0  0  0
   33.8730   31.5270   36.7820 C   0  0  0  0  0  0  0  0  0  0  0  0
   35.2030   31.8700   36.4200 C   0  0  0  0  0  0  0  0  0  0  0  0
   35.6560   31.4220   35.2240 N   0  0  0  0  0  0  0  0  0  0  0  0
   34.9030   30.6670   34.3680 C   0  0  0  0  0  0  0  0  0  0  0  0
   33.6630   30.3530   34.7170 N   0  0  0  0  0  0  0  0  0  0  0  0
   32.1220   30.5130   36.1940 H   0  0  0  0  0  0  0  0  0  0  0  0
   33.5310   31.8940   37.7390 H   0  0  0  0  0  0  0  0  0  0  0  0
   35.8740   32.4510   37.0080 H   0  0  0  0  0  0  0  0  0  0  0  0
   37.6530   27.5140   31.8460 C   0  0  0  0  0  0  0  0  0  0  0  0
   38.3420   27.5510   30.9790 H   0  0  0  0  0  0  0  0  0  0  0  0
   38.2170   27.4020   32.8080 H   0  0  0  0  0  0  0  0  0  0  0  0
   38.5450   25.0330   32.8020 F   0  0  0  0  0  0  0  0  0  0  0  0
   37.3330   25.1020   32.1630 C   0  0  0  0  0  0  0  0  0  0  0  0
   36.8170   26.2940   31.6580 C   0  0  0  0  0  0  0  0  0  0  0  0
   35.5850   26.2570   31.0290 C   0  0  0  0  0  0  0  0  0  0  0  0
   35.2630   27.2340   30.6670 H   0  0  0  0  0  0  0  0  0  0  0  0
   34.8830   25.0810   30.9020 C   0  0  0  0  0  0  0  0  0  0  0  0
   33.9130   25.1260   30.3920 H   0  0  0  0  0  0  0  0  0  0  0  0
   35.4170   23.8950   31.4150 C   0  0  0  0  0  3  0  0  0  0  0  0
   36.6530   23.9070   32.0500 C   0  0  0  0  0  3  0  0  0  0  0  0
  2  3  1  0  0  0  0
  2  1  1  0  0  0  0
  3 15  1  0  0  0  0
  4  3  2  0  0  0  0
  5  4  1  0  0  0  0
  6  5  2  0  0  0  0
  6  8  1  0  0  0  0
  7  6  1  0  0  0  0
  8  2  2  0  0  0  0
  9  4  1  0  0  0  0
 10  5  1  0  0  0  0
 11 17  1  0  0  0  0
 11 12  1  0  0  0  0
 12 18  1  0  0  0  0
 13 12  2  0  0  0  0
 13 19  1  0  0  0  0
 14 13  1  0  0  0  0
 15 16  1  0  0  0  0
 15 14  2  0  0  0  0
 16 11  2  0  0  0  0
 20  8  1  0  0  0  0
 20 22  1  0  0  0  0
 21 20  1  0  0  0  0
 24 23  1  0  0  0  0
 25 20  1  0  0  0  0
 25 24  2  0  0  0  0
 26 25  1  0  0  0  0
 27 26  1  0  0  0  0
 28 26  2  0  0  0  0
 28 30  1  0  0  0  0
 29 28  1  0  0  0  0
 30 31  2  0  0  0  0
 31 24  1  0  0  0  0
M  END
>  <minimizedAffinity>
-5.55537462

$$$$

 OpenBabel03272509013D

 31 33  0  0  0  0  0  0  0  0999 V2000
   36.5220   28.1570   34.5420 Cl  0  0  0  0  0  0  0  0  0  0  0  0
   36.2950   29.0570   33.0780 C   0  0  0  0  0  0  0  0  0  0  0  0
   35.5260   30.2150   33.0960 C   0  0  0  0  0  0  0  0  0  0  0  0
   35.3150   30.9580   31.9620 C   0  0  0  0  0  0  0  0  0  0  0  0
   35.8640   30.5720   30.7630 C   0  0  0  0  0  0  0  0  0  0  0  0
   36.6380   29.4250   30.7040 C   0  0  0  0  0  0  0  0  0  0  0  0
   37.3910   28.8290   29.2370 Cl  0  0  0  0  0  0  0  0  0  0  0  0
   36.8240   28.7070   31.8770 C   0  0  0  0  0  0  0  0  0  0  0  0
   34.7160   31.8690   31.9450 H   0  0  0  0  0  0  0  0  0  0  0  0
   35.7250   31.1260   29.8440 H   0  0  0  0  0  0  0  0  0  0  0  0
   35.0560   31.7860   36.3730 C   0  0  0  0  0  0  0  0  0  0  0  0
   33.7540   31.4230   36.7210 C   0  0  0  0  0  0  0  0  0  0  0  0
   33.0310   30.6190   35.7990 C   0  0  0  0  0  0  0  0  0  0  0  0
   33.6640   30.2670   34.6540 N   0  0  0  0  0  0  0  0  0  0  0  0
   34.9420   30.6460   34.3530 C   0  0  0  0  0  0  0  0  0  0  0  0
   35.6070   31.3960   35.2200 N   0  0  0  0  0  0  0  0  0  0  0  0
   35.5780   32.4030   37.1100 H   0  0  0  0  0  0  0  0  0  0  0  0
   33.2320   31.6920   37.6280 H   0  0  0  0  0  0  0  0  0  0  0  0
   32.0350   30.2690   35.9320 H   0  0  0  0  0  0  0  0  0  0  0  0
   37.6670   27.4740   31.8260 C   0  0  0  0  0  0  0  0  0  0  0  0
   38.3520   27.5030   30.9560 H   0  0  0  0  0  0  0  0  0  0  0  0
   38.2340   27.3570   32.7860 H   0  0  0  0  0  0  0  0  0  0  0  0
   38.5440   24.9810   32.7630 F   0  0  0  0  0  0  0  0  0  0  0  0
   37.3270   25.0650   32.1380 C   0  0  0  0  0  0  0  0  0  0  0  0
   36.8170   26.2630   31.6420 C   0  0  0  0  0  0  0  0  0  0  0  0
   35.5780   26.2400   31.0280 C   0  0  0  0  0  0  0  0  0  0  0  0
   35.2610   27.2220   30.6720 H   0  0  0  0  0  0  0  0  0  0  0  0
   34.8630   25.0720   30.9040 C   0  0  0  0  0  0  0  0  0  0  0  0
   33.8880   25.1280   30.4050 H   0  0  0  0  0  0  0  0  0  0  0  0
   35.3900   23.8780   31.4060 C   0  0  0  0  0  3  0  0  0  0  0  0
   36.6340   23.8760   32.0290 C   0  0  0  0  0  3  0  0  0  0  0  0
  2  3  1  0  0  0  0
  2  1  1  0  0  0  0
  3 15  1  0  0  0  0
  4  3  2  0  0  0  0
  5  4  1  0  0  0  0
  6  5  2  0  0  0  0
  6  8  1  0  0  0  0
  7  6  1  0  0  0  0
  8  2  2  0  0  0  0
  9  4  1  0  0  0  0
 10  5  1  0  0  0  0
 11 12  1  0  0  0  0
 11 17  1  0  0  0  0
 12 18  1  0  0  0  0
 13 19  1  0  0  0  0
 13 12  2  0  0  0  0
 14 13  1  0  0  0  0
 15 14  2  0  0  0  0
 15 16  1  0  0  0  0
 16 11  2  0  0  0  0
 20  8  1  0  0  0  0
 20 22  1  0  0  0  0
 21 20  1  0  0  0  0
 24 23  1  0  0  0  0
 25 20  1  0  0  0  0
 25 24  2  0  0  0  0
 26 25  1  0  0  0  0
 27 26  1  0  0  0  0
 28 26  2  0  0  0  0
 28 30  1  0  0  0  0
 29 28  1  0  0  0  0
 30 31  2  0  0  0  0
 31 24  1  0  0  0  0
M  END
>  <minimizedAffinity>
-5.49576616

$$$$

 OpenBabel03272509013D

 31 33  0  0  0  0  0  0  0  0999 V2000
   39.2680   26.7040   35.3890 Cl  0  0  0  0  0  0  0  0  0  0  0  0
   38.7450   25.5020   34.2550 C   0  0  0  0  0  0  0  0  0  0  0  0
   38.4430   24.2210   34.7030 C   0  0  0  0  0  0  0  0  0  0  0  0
   38.0300   23.2360   33.8430 C   0  0  0  0  0  0  0  0  0  0  0  0
   37.9010   23.4920   32.4980 C   0  0  0  0  0  0  0  0  0  0  0  0
   38.1910   24.7560   32.0130 C   0  0  0  0  0  0  0  0  0  0  0  0
   38.0680   25.2060   30.3230 Cl  0  0  0  0  0  0  0  0  0  0  0  0
   38.6060   25.7200   32.9220 C   0  0  0  0  0  0  0  0  0  0  0  0
   37.7870   22.2220   34.1640 H   0  0  0  0  0  0  0  0  0  0  0  0
   37.5790   22.7470   31.7840 H   0  0  0  0  0  0  0  0  0  0  0  0
   37.7610   24.0140   38.2970 C   0  0  0  0  0  0  0  0  0  0  0  0
   38.8730   23.3350   38.7980 C   0  0  0  0  0  0  0  0  0  0  0  0
   39.8730   22.9450   37.8680 C   0  0  0  0  0  0  0  0  0  0  0  0
   39.6690   23.2640   36.5670 N   0  0  0  0  0  0  0  0  0  0  0  0
   38.5640   23.9310   36.1190 C   0  0  0  0  0  0  0  0  0  0  0  0
   37.6360   24.2900   36.9960 N   0  0  0  0  0  0  0  0  0  0  0  0
   37.0140   24.2970   39.0450 H   0  0  0  0  0  0  0  0  0  0  0  0
   39.0540   23.0720   39.8300 H   0  0  0  0  0  0  0  0  0  0  0  0
   40.7710   22.4240   38.1070 H   0  0  0  0  0  0  0  0  0  0  0  0
   38.9090   27.0920   32.4100 C   0  0  0  0  0  0  0  0  0  0  0  0
   39.5550   27.6420   33.1210 H   0  0  0  0  0  0  0  0  0  0  0  0
   39.3840   27.0260   31.3960 H   0  0  0  0  0  0  0  0  0  0  0  0
   38.4200   28.5770   30.0820 F   0  0  0  0  0  0  0  0  0  0  0  0
   37.4930   28.6010   31.0930 C   0  0  0  0  0  0  0  0  0  0  0  0
   37.6580   27.8930   32.2820 C   0  0  0  0  0  0  0  0  0  0  0  0
   36.6640   27.9840   33.2390 C   0  0  0  0  0  0  0  0  0  0  0  0
   36.8800   27.3970   34.1340 H   0  0  0  0  0  0  0  0  0  0  0  0
   35.5410   28.7510   33.0320 C   0  0  0  0  0  0  0  0  0  0  0  0
   34.7940   28.7770   33.8350 H   0  0  0  0  0  0  0  0  0  0  0  0
   35.3920   29.4550   31.8340 C   0  0  0  0  0  3  0  0  0  0  0  0
   36.3780   29.3790   30.8560 C   0  0  0  0  0  3  0  0  0  0  0  0
  2  3  1  0  0  0  0
  2  1  1  0  0  0  0
  3 15  1  0  0  0  0
  4  9  1  0  0  0  0
  4  3  2  0  0  0  0
  5  4  1  0  0  0  0
  6  5  2  0  0  0  0
  6  8  1  0  0  0  0
  7  6  1  0  0  0  0
  8  2  2  0  0  0  0
 10  5  1  0  0  0  0
 11 12  1  0  0  0  0
 11 17  1  0  0  0  0
 12 18  1  0  0  0  0
 13 19  1  0  0  0  0
 13 12  2  0  0  0  0
 14 13  1  0  0  0  0
 15 14  2  0  0  0  0
 15 16  1  0  0  0  0
 16 11  2  0  0  0  0
 20  8  1  0  0  0  0
 20 21  1  0  0  0  0
 22 20  1  0  0  0  0
 23 24  1  0  0  0  0
 24 25  1  0  0  0  0
 25 20  1  0  0  0  0
 25 26  2  0  0  0  0
 26 27  1  0  0  0  0
 28 26  1  0  0  0  0
 28 29  1  0  0  0  0
 30 28  2  0  0  0  0
 31 24  2  0  0  0  0
 31 30  1  0  0  0  0
M  END
>  <minimizedAffinity>
-5.48389816

$$$$

 OpenBabel03272509013D

 31 33  0  0  0  0  0  0  0  0999 V2000
   36.4320   27.8650   34.5360 Cl  0  0  0  0  0  0  0  0  0  0  0  0
   36.0800   29.0530   33.3250 C   0  0  0  0  0  0  0  0  0  0  0  0
   36.0870   28.6890   31.9840 C   0  0  0  0  0  0  0  0  0  0  0  0
   35.8190   29.5960   30.9890 C   0  0  0  0  0  0  0  0  0  0  0  0
   35.5330   30.9050   31.2970 C   0  0  0  0  0  0  0  0  0  0  0  0
   35.5160   31.3070   32.6220 C   0  0  0  0  0  0  0  0  0  0  0  0
   35.1670   32.9450   33.1410 Cl  0  0  0  0  0  0  0  0  0  0  0  0
   35.7930   30.3540   33.5920 C   0  0  0  0  0  0  0  0  0  0  0  0
   35.8170   29.3410   29.9290 H   0  0  0  0  0  0  0  0  0  0  0  0
   35.3170   31.6530   30.5470 H   0  0  0  0  0  0  0  0  0  0  0  0
   37.8700   25.5930   31.1720 C   0  0  0  0  0  0  0  0  0  0  0  0
   36.8410   24.6700   30.9760 C   0  0  0  0  0  0  0  0  0  0  0  0
   35.5080   25.1360   31.1290 C   0  0  0  0  0  0  0  0  0  0  0  0
   35.3400   26.4410   31.4530 N   0  0  0  0  0  0  0  0  0  0  0  0
   36.3780   27.3110   31.6360 C   0  0  0  0  0  0  0  0  0  0  0  0
   37.6180   26.8650   31.4910 N   0  0  0  0  0  0  0  0  0  0  0  0
   38.8810   25.1950   31.0440 H   0  0  0  0  0  0  0  0  0  0  0  0
   36.9540   23.6270   30.7170 H   0  0  0  0  0  0  0  0  0  0  0  0
   34.6290   24.5470   31.0090 H   0  0  0  0  0  0  0  0  0  0  0  0
   35.7640   30.7750   35.0270 C   0  0  0  0  0  0  0  0  0  0  0  0
   36.3480   30.0740   35.6530 H   0  0  0  0  0  0  0  0  0  0  0  0
   36.1470   31.8240   35.1250 H   0  0  0  0  0  0  0  0  0  0  0  0
   35.0500   32.3710   37.2190 F   0  0  0  0  0  0  0  0  0  0  0  0
   34.1000   31.5650   36.6460 C   0  0  0  0  0  0  0  0  0  0  0  0
   34.3700   30.7410   35.5560 C   0  0  0  0  0  0  0  0  0  0  0  0
   33.3410   29.9660   35.0520 C   0  0  0  0  0  0  0  0  0  0  0  0
   33.6460   29.3550   34.2010 H   0  0  0  0  0  0  0  0  0  0  0  0
   32.0840   30.0000   35.6080 C   0  0  0  0  0  0  0  0  0  0  0  0
   31.3160   29.3590   35.1570 H   0  0  0  0  0  0  0  0  0  0  0  0
   31.8300   30.8320   36.7020 C   0  0  0  0  0  3  0  0  0  0  0  0
   32.8490   31.6210   37.2250 C   0  0  0  0  0  3  0  0  0  0  0  0
  2  8  1  0  0  0  0
  2  1  1  0  0  0  0
  3  2  2  0  0  0  0
  4  5  2  0  0  0  0
  4  3  1  0  0  0  0
  5  6  1  0  0  0  0
  6  7  1  0  0  0  0
  6  8  2  0  0  0  0
  8 20  1  0  0  0  0
  9  4  1  0  0  0  0
 10  5  1  0  0  0  0
 11 16  1  0  0  0  0
 12 13  1  0  0  0  0
 12 11  2  0  0  0  0
 13 14  2  0  0  0  0
 14 15  1  0  0  0  0
 15  3  1  0  0  0  0
 16 15  2  0  0  0  0
 17 11  1  0  0  0  0
 18 12  1  0  0  0  0
 19 13  1  0  0  0  0
 20 22  1  0  0  0  0
 20 25  1  0  0  0  0
 20 21  1  0  0  0  0
 24 23  1  0  0  0  0
 24 31  1  0  0  0  0
 25 24  2  0  0  0  0
 26 25  1  0  0  0  0
 26 28  2  0  0  0  0
 27 26  1  0  0  0  0
 28 30  1  0  0  0  0
 29 28  1  0  0  0  0
 30 31  2  0  0  0  0
M  END
>  <minimizedAffinity>
-5.4332118

$$$$
