
 OpenBabel03272504093D

 33 35  0  0  0  0  0  0  0  0999 V2000
   37.4230   30.5490   50.2870 C   0  0  0  0  0  0  0  0  0  0  0  0
   37.0430   30.6600   48.9640 C   0  0  0  0  0  0  0  0  0  0  0  0
   35.7680   30.2050   48.5570 C   0  0  0  0  0  0  0  0  0  0  0  0
   34.9550   29.6680   49.4970 N   0  0  0  0  0  0  0  0  0  0  0  0
   35.3720   29.5740   50.8120 C   0  0  0  0  0  0  0  0  0  0  0  0
   36.6000   30.0150   51.1930 N   0  0  0  0  0  0  0  0  0  0  0  0
   34.4700   29.0000   51.7590 N   0  0  0  0  0  0  0  0  0  0  0  0
   38.4070   30.9100   50.5760 H   0  0  0  0  0  0  0  0  0  0  0  0
   34.1630   29.6000   52.5820 H   0  0  0  0  0  0  0  0  0  0  0  0
   34.0870   28.0310   51.7010 H   0  0  0  0  0  0  0  0  0  0  0  0
   38.0080   33.5210   49.3260 Cl  0  0  0  0  0  0  0  0  0  0  0  0
   38.5380   32.5300   48.0080 C   0  0  0  0  0  0  0  0  0  0  0  0
   38.0030   31.2680   48.0120 C   0  0  0  0  0  0  0  0  0  0  0  0
   38.3780   30.3910   46.9900 C   0  0  0  0  0  0  0  0  0  0  0  0
   39.2390   30.7450   46.0090 C   0  0  0  0  0  0  0  0  0  0  0  0
   39.7710   32.0320   46.0200 C   0  0  0  0  0  0  0  0  0  0  0  0
   40.8880   32.5480   44.7910 Cl  0  0  0  0  0  0  0  0  0  0  0  0
   39.4110   32.8970   47.0170 C   0  0  0  0  0  0  0  0  0  0  0  0
   38.0410   29.3690   46.8920 H   0  0  0  0  0  0  0  0  0  0  0  0
   39.5620   30.0990   45.1910 H   0  0  0  0  0  0  0  0  0  0  0  0
   39.8000   33.9040   47.0600 H   0  0  0  0  0  0  0  0  0  0  0  0
   35.3850   30.3290   47.1550 C   0  0  0  0  0  0  0  0  0  0  0  0
   35.3930   31.4040   46.8880 H   0  0  0  0  0  0  0  0  0  0  0  0
   36.1350   29.8530   46.4780 H   0  0  0  0  0  0  0  0  0  0  0  0
   34.8010   27.6400   47.3890 F   0  0  0  0  0  0  0  0  0  0  0  0
   33.7670   28.4060   46.9710 C   0  0  0  0  0  0  0  0  0  0  0  0
   34.0410   29.7520   46.8500 C   0  0  0  0  0  0  0  0  0  0  0  0
   33.0420   30.6090   46.4310 C   0  0  0  0  0  0  0  0  0  0  0  0
   33.1980   31.6860   46.3120 H   0  0  0  0  0  0  0  0  0  0  0  0
   31.7660   30.1720   46.1230 C   0  0  0  0  0  0  0  0  0  0  0  0
   30.9920   30.8500   45.7970 H   0  0  0  0  0  0  0  0  0  0  0  0
   31.5320   28.8250   46.2570 C   0  0  0  0  0  3  0  0  0  0  0  0
   32.5030   27.9260   46.6740 C   0  0  0  0  0  3  0  0  0  0  0  0
  1  8  1  0  0  0  0
  1  6  1  0  0  0  0
  2  1  2  0  0  0  0
  3  2  1  0  0  0  0
  3  4  2  0  0  0  0
  4  5  1  0  0  0  0
  5  6  2  0  0  0  0
  5  7  1  0  0  0  0
  7  9  1  0  0  0  0
 10  7  1  0  0  0  0
 12 13  1  0  0  0  0
 12 11  1  0  0  0  0
 13  2  1  0  0  0  0
 14 13  2  0  0  0  0
 15 16  2  0  0  0  0
 15 14  1  0  0  0  0
 16 18  1  0  0  0  0
 17 16  1  0  0  0  0
 18 21  1  0  0  0  0
 18 12  2  0  0  0  0
 19 14  1  0  0  0  0
 20 15  1  0  0  0  0
 22  3  1  0  0  0  0
 23 22  1  0  0  0  0
 24 22  1  0  0  0  0
 26 25  1  0  0  0  0
 27 26  1  0  0  0  0
 27 22  1  0  0  0  0
 28 27  2  0  0  0  0
 29 28  1  0  0  0  0
 30 32  2  0  0  0  0
 30 28  1  0  0  0  0
 31 30  1  0  0  0  0
 32 33  1  0  0  0  0
 33 26  2  0  0  0  0
M  END
>  <minimizedAffinity>
-5.97986364

>  <minimizedRMSD>
0.675660312

$$$$
