
 OpenBabel03272510303D

 28 30  0  0  0  0  0  0  0  0999 V2000
   37.3420   31.3970   49.2980 C   0  0  0  0  0  0  0  0  0  0  0  0
   37.6180   32.7000   49.7250 C   0  0  0  0  0  0  0  0  0  0  0  0
   38.4990   33.4050   48.9510 C   0  0  0  0  0  0  0  0  0  0  0  0
   39.0550   32.8340   47.8300 N   0  0  0  0  0  0  0  0  0  0  0  0
   38.7540   31.5670   47.4580 C   0  0  0  0  0  0  0  0  0  0  0  0
   37.8770   30.8190   48.2040 N   0  0  0  0  0  0  0  0  0  0  0  0
   37.1530   33.0790   50.6010 H   0  0  0  0  0  0  0  0  0  0  0  0
   38.7700   34.4270   49.2140 H   0  0  0  0  0  0  0  0  0  0  0  0
   36.3560   30.5860   50.1000 C   0  0  0  0  0  0  0  0  0  0  0  0
   36.2890   29.1490   50.0470 C   0  0  0  0  0  0  0  0  0  0  0  0
   37.0340   29.7730   51.2130 C   0  0  0  0  0  0  0  0  0  0  0  0
   35.4980   31.2120   50.4310 H   0  0  0  0  0  0  0  0  0  0  0  0
   35.3110   28.6640   50.2480 H   0  0  0  0  0  0  0  0  0  0  0  0
   36.9380   28.5530   49.3800 H   0  0  0  0  0  0  0  0  0  0  0  0
   38.1310   29.7190   51.2400 H   0  0  0  0  0  0  0  0  0  0  0  0
   36.4730   29.7670   52.1500 H   0  0  0  0  0  0  0  0  0  0  0  0
   39.3180   30.9480   46.2650 C   0  0  0  0  0  0  0  0  0  0  0  0
   39.0150   29.8630   46.2040 H   0  0  0  0  0  0  0  0  0  0  0  0
   40.4320   30.9040   46.2680 H   0  0  0  0  0  0  0  0  0  0  0  0
   36.6730   30.8230   45.1780 F   0  0  0  0  0  0  0  0  0  0  0  0
   37.5910   31.5330   44.4810 C   0  0  0  0  0  0  0  0  0  0  0  0
   38.8620   31.5910   45.0040 C   0  0  0  0  0  0  0  0  0  0  0  0
   39.8050   32.3260   44.2770 C   0  0  0  0  0  0  0  0  0  0  0  0
   40.8320   32.3970   44.6610 H   0  0  0  0  0  0  0  0  0  0  0  0
   39.5370   32.9740   43.1020 C   0  0  0  0  0  0  0  0  0  0  0  0
   40.3120   33.5240   42.5900 H   0  0  0  0  0  0  0  0  0  0  0  0
   38.2460   32.9100   42.5770 C   0  0  0  0  0  3  0  0  0  0  0  0
   37.3270   32.1890   43.2940 C   0  0  0  0  0  3  0  0  0  0  0  0
  1  2  1  0  0  0  0
  1  9  1  0  0  0  0
  2  7  1  0  0  0  0
  3  8  1  0  0  0  0
  3  2  2  0  0  0  0
  4  3  1  0  0  0  0
  5  4  2  0  0  0  0
  5  6  1  0  0  0  0
  6  1  2  0  0  0  0
  9 12  1  0  0  0  0
  9 11  1  0  0  0  0
 10  9  1  0  0  0  0
 10 13  1  0  0  0  0
 10 11  1  0  0  0  0
 11 15  1  0  0  0  0
 11 16  1  0  0  0  0
 14 10  1  0  0  0  0
 17 19  1  0  0  0  0
 17  5  1  0  0  0  0
 18 17  1  0  0  0  0
 21 22  1  0  0  0  0
 21 20  1  0  0  0  0
 22 17  1  0  0  0  0
 23 24  1  0  0  0  0
 23 22  2  0  0  0  0
 25 23  1  0  0  0  0
 26 25  1  0  0  0  0
 27 25  2  0  0  0  0
 27 28  1  0  0  0  0
 28 21  2  0  0  0  0
M  END
>  <minimizedAffinity>
-5.53617144

>  <minimizedRMSD>
1.0687896

$$$$
