
 OpenBabel03272510303D

 28 30  0  0  0  0  0  0  0  0999 V2000
   37.2900   31.3660   49.2780 C   0  0  0  0  0  0  0  0  0  0  0  0
   37.5670   32.6680   49.7050 C   0  0  0  0  0  0  0  0  0  0  0  0
   38.4570   33.3690   48.9370 C   0  0  0  0  0  0  0  0  0  0  0  0
   39.0200   32.7950   47.8210 N   0  0  0  0  0  0  0  0  0  0  0  0
   38.7180   31.5280   47.4490 C   0  0  0  0  0  0  0  0  0  0  0  0
   37.8320   30.7840   48.1890 N   0  0  0  0  0  0  0  0  0  0  0  0
   37.0960   33.0510   50.5750 H   0  0  0  0  0  0  0  0  0  0  0  0
   38.7290   34.3910   49.2000 H   0  0  0  0  0  0  0  0  0  0  0  0
   36.2950   30.5600   50.0730 C   0  0  0  0  0  0  0  0  0  0  0  0
   36.2030   29.1250   49.9990 C   0  0  0  0  0  0  0  0  0  0  0  0
   36.9650   29.7200   51.1700 C   0  0  0  0  0  0  0  0  0  0  0  0
   35.4490   31.1950   50.4170 H   0  0  0  0  0  0  0  0  0  0  0  0
   35.2190   28.6530   50.1980 H   0  0  0  0  0  0  0  0  0  0  0  0
   36.8400   28.5280   49.3200 H   0  0  0  0  0  0  0  0  0  0  0  0
   38.0600   29.6480   51.1910 H   0  0  0  0  0  0  0  0  0  0  0  0
   36.4080   29.7090   52.1100 H   0  0  0  0  0  0  0  0  0  0  0  0
   39.2890   30.9050   46.2610 C   0  0  0  0  0  0  0  0  0  0  0  0
   38.8880   29.8590   46.1350 H   0  0  0  0  0  0  0  0  0  0  0  0
   40.3920   30.7520   46.3230 H   0  0  0  0  0  0  0  0  0  0  0  0
   41.1420   32.4150   44.6860 F   0  0  0  0  0  0  0  0  0  0  0  0
   39.8620   32.3650   44.2490 C   0  0  0  0  0  0  0  0  0  0  0  0
   38.9720   31.6390   45.0080 C   0  0  0  0  0  0  0  0  0  0  0  0
   37.6510   31.5930   44.5500 C   0  0  0  0  0  0  0  0  0  0  0  0
   36.9090   31.0230   45.1280 H   0  0  0  0  0  0  0  0  0  0  0  0
   37.2070   32.2160   43.4160 C   0  0  0  0  0  0  0  0  0  0  0  0
   36.1710   32.1400   43.1190 H   0  0  0  0  0  0  0  0  0  0  0  0
   38.1130   32.9510   42.6510 C   0  0  0  0  0  3  0  0  0  0  0  0
   39.4060   32.9920   43.1040 C   0  0  0  0  0  3  0  0  0  0  0  0
  1  2  1  0  0  0  0
  1  9  1  0  0  0  0
  2  7  1  0  0  0  0
  3  8  1  0  0  0  0
  3  2  2  0  0  0  0
  4  3  1  0  0  0  0
  5  4  2  0  0  0  0
  5  6  1  0  0  0  0
  6  1  2  0  0  0  0
  9 12  1  0  0  0  0
  9 11  1  0  0  0  0
 10  9  1  0  0  0  0
 10 13  1  0  0  0  0
 10 11  1  0  0  0  0
 11 15  1  0  0  0  0
 11 16  1  0  0  0  0
 14 10  1  0  0  0  0
 17 19  1  0  0  0  0
 17  5  1  0  0  0  0
 18 17  1  0  0  0  0
 21 20  1  0  0  0  0
 21 22  1  0  0  0  0
 22 17  1  0  0  0  0
 23 22  2  0  0  0  0
 23 24  1  0  0  0  0
 25 23  1  0  0  0  0
 26 25  1  0  0  0  0
 27 28  1  0  0  0  0
 27 25  2  0  0  0  0
 28 21  2  0  0  0  0
M  END
>  <minimizedAffinity>
-5.76497889

>  <minimizedRMSD>
1.10553384

$$$$
