
 OpenBabel03272510303D

 28 30  0  0  0  0  0  0  0  0999 V2000
   37.5350   31.5210   49.4010 C   0  0  0  0  0  0  0  0  0  0  0  0
   37.8620   32.8340   49.7540 C   0  0  0  0  0  0  0  0  0  0  0  0
   38.7010   33.4900   48.8950 C   0  0  0  0  0  0  0  0  0  0  0  0
   39.1710   32.8630   47.7640 N   0  0  0  0  0  0  0  0  0  0  0  0
   38.8240   31.5880   47.4650 C   0  0  0  0  0  0  0  0  0  0  0  0
   37.9850   30.8890   48.2980 N   0  0  0  0  0  0  0  0  0  0  0  0
   37.4630   33.2570   50.6420 H   0  0  0  0  0  0  0  0  0  0  0  0
   39.0070   34.5160   49.0970 H   0  0  0  0  0  0  0  0  0  0  0  0
   36.5910   30.7630   50.2990 C   0  0  0  0  0  0  0  0  0  0  0  0
   36.5710   29.3260   50.3890 C   0  0  0  0  0  0  0  0  0  0  0  0
   37.3150   30.0870   51.4720 C   0  0  0  0  0  0  0  0  0  0  0  0
   35.7180   31.3910   50.5840 H   0  0  0  0  0  0  0  0  0  0  0  0
   35.6140   28.8330   50.6570 H   0  0  0  0  0  0  0  0  0  0  0  0
   37.2280   28.6880   49.7710 H   0  0  0  0  0  0  0  0  0  0  0  0
   38.4130   30.0700   51.4820 H   0  0  0  0  0  0  0  0  0  0  0  0
   36.7710   30.1560   52.4170 H   0  0  0  0  0  0  0  0  0  0  0  0
   39.2950   30.9110   46.2640 C   0  0  0  0  0  0  0  0  0  0  0  0
   38.9100   29.8510   46.2330 H   0  0  0  0  0  0  0  0  0  0  0  0
   40.4020   30.7830   46.2280 H   0  0  0  0  0  0  0  0  0  0  0  0
   36.6080   30.9810   45.2810 F   0  0  0  0  0  0  0  0  0  0  0  0
   37.5530   31.6020   44.5360 C   0  0  0  0  0  0  0  0  0  0  0  0
   38.8430   31.5670   45.0100 C   0  0  0  0  0  0  0  0  0  0  0  0
   39.8130   32.2110   44.2330 C   0  0  0  0  0  0  0  0  0  0  0  0
   40.8570   32.2060   44.5760 H   0  0  0  0  0  0  0  0  0  0  0  0
   39.5520   32.8580   43.0550 C   0  0  0  0  0  0  0  0  0  0  0  0
   40.3480   33.3360   42.5040 H   0  0  0  0  0  0  0  0  0  0  0  0
   38.2410   32.8910   42.5800 C   0  0  0  0  0  3  0  0  0  0  0  0
   37.2950   32.2580   43.3460 C   0  0  0  0  0  3  0  0  0  0  0  0
  1  2  1  0  0  0  0
  1  9  1  0  0  0  0
  2  7  1  0  0  0  0
  3  8  1  0  0  0  0
  3  2  2  0  0  0  0
  4  3  1  0  0  0  0
  5  4  2  0  0  0  0
  5  6  1  0  0  0  0
  6  1  2  0  0  0  0
  9 10  1  0  0  0  0
  9 12  1  0  0  0  0
  9 11  1  0  0  0  0
 10 13  1  0  0  0  0
 10 11  1  0  0  0  0
 11 15  1  0  0  0  0
 11 16  1  0  0  0  0
 14 10  1  0  0  0  0
 17  5  1  0  0  0  0
 18 17  1  0  0  0  0
 19 17  1  0  0  0  0
 21 22  1  0  0  0  0
 21 20  1  0  0  0  0
 22 17  1  0  0  0  0
 23 24  1  0  0  0  0
 23 22  2  0  0  0  0
 25 23  1  0  0  0  0
 26 25  1  0  0  0  0
 27 25  2  0  0  0  0
 27 28  1  0  0  0  0
 28 21  2  0  0  0  0
M  END
>  <minimizedAffinity>
-5.56029844

>  <minimizedRMSD>
1.02710581

$$$$
