
 OpenBabel03272502293D

 23 24  0  0  0  0  0  0  0  0999 V2000
   36.3770   28.0790   33.2620 C   0  0  0  0  0  0  0  0  0  0  0  0
   35.7660   27.2650   32.8350 H   0  0  0  0  0  0  0  0  0  0  0  0
   36.6230   28.7900   32.4350 H   0  0  0  0  0  0  0  0  0  0  0  0
   38.6110   27.3940   31.6080 F   0  0  0  0  0  0  0  0  0  0  0  0
   38.7290   27.2740   32.9510 C   0  0  0  0  0  0  0  0  0  0  0  0
   37.6790   27.5940   33.7790 C   0  0  0  0  0  0  0  0  0  0  0  0
   37.7740   27.4810   35.1520 C   0  0  0  0  0  0  0  0  0  0  0  0
   36.9740   27.7220   35.8250 H   0  0  0  0  0  0  0  0  0  0  0  0
   38.9380   27.0380   35.7530 C   0  0  0  0  0  0  0  0  0  0  0  0
   39.0190   26.9470   36.8230 H   0  0  0  0  0  0  0  0  0  0  0  0
   40.0080   26.7100   34.9490 C   0  0  0  0  0  3  0  0  0  0  0  0
   39.8770   26.8360   33.5780 C   0  0  0  0  0  3  0  0  0  0  0  0
   35.5660   30.1520   34.3110 C   0  0  0  0  0  3  0  0  0  0  0  0
   35.6670   28.8600   34.3150 C   0  0  0  0  0  3  0  0  0  0  0  0
   34.7980   32.5320   37.0610 C   0  0  0  0  0  0  0  0  0  0  0  0
   35.5400   31.8530   36.0770 C   0  0  0  0  0  0  0  0  0  0  0  0
   34.8830   30.8860   35.3310 C   0  0  0  0  0  0  0  0  0  0  0  0
   33.5740   30.6460   35.5830 N   0  0  0  0  0  0  0  0  0  0  0  0
   32.8860   31.3060   36.5280 C   0  0  0  0  0  0  0  0  0  0  0  0
   33.4870   32.2540   37.2760 N   0  0  0  0  0  0  0  0  0  0  0  0
   35.2570   33.3080   37.6860 H   0  0  0  0  0  0  0  0  0  0  0  0
   36.5900   32.0980   35.9280 H   0  0  0  0  0  0  0  0  0  0  0  0
   31.8290   31.0850   36.7040 H   0  0  0  0  0  0  0  0  0  0  0  0
  1  6  1  0  0  0  0
  1 14  1  0  0  0  0
  2  1  1  0  0  0  0
  3  1  1  0  0  0  0
  4  5  1  0  0  0  0
  5 12  2  0  0  0  0
  5  6  1  0  0  0  0
  6  7  2  0  0  0  0
  7  9  1  0  0  0  0
  7  8  1  0  0  0  0
  9 10  1  0  0  0  0
 11  9  2  0  0  0  0
 12 11  1  0  0  0  0
 13 14  2  0  0  0  0
 13 17  1  0  0  0  0
 15 20  1  0  0  0  0
 15 21  1  0  0  0  0
 16 15  2  0  0  0  0
 17 18  2  0  0  0  0
 17 16  1  0  0  0  0
 18 19  1  0  0  0  0
 19 23  1  0  0  0  0
 19 20  2  0  0  0  0
 22 16  1  0  0  0  0
M  END
>  <minimizedAffinity>
-4.84855843

$$$$

 OpenBabel03272502293D

 23 24  0  0  0  0  0  0  0  0999 V2000
   35.4270   30.1670   34.0350 C   0  0  0  0  0  0  0  0  0  0  0  0
   36.1180   30.8590   33.5240 H   0  0  0  0  0  0  0  0  0  0  0  0
   34.6140   29.9020   33.3140 H   0  0  0  0  0  0  0  0  0  0  0  0
   36.7180   31.9140   35.8990 F   0  0  0  0  0  0  0  0  0  0  0  0
   35.4050   31.6350   36.0660 C   0  0  0  0  0  0  0  0  0  0  0  0
   34.7480   30.8010   35.1920 C   0  0  0  0  0  0  0  0  0  0  0  0
   33.4090   30.5000   35.3390 C   0  0  0  0  0  0  0  0  0  0  0  0
   32.8680   29.8540   34.6760 H   0  0  0  0  0  0  0  0  0  0  0  0
   32.6690   31.0310   36.3810 C   0  0  0  0  0  0  0  0  0  0  0  0
   31.6240   30.8000   36.5020 H   0  0  0  0  0  0  0  0  0  0  0  0
   33.2990   31.8700   37.2730 C   0  0  0  0  0  3  0  0  0  0  0  0
   34.6420   32.1490   37.0940 C   0  0  0  0  0  3  0  0  0  0  0  0
   36.5530   28.0170   33.6300 C   0  0  0  0  0  3  0  0  0  0  0  0
   36.0730   28.8910   34.4580 C   0  0  0  0  0  3  0  0  0  0  0  0
   38.2160   25.4100   35.6930 C   0  0  0  0  0  0  0  0  0  0  0  0
   37.6220   26.6400   35.3540 C   0  0  0  0  0  0  0  0  0  0  0  0
   37.1690   26.7970   34.0530 C   0  0  0  0  0  0  0  0  0  0  0  0
   37.3180   25.7710   33.1820 N   0  0  0  0  0  0  0  0  0  0  0  0
   37.8890   24.6060   33.5270 C   0  0  0  0  0  0  0  0  0  0  0  0
   38.3430   24.4120   34.7820 N   0  0  0  0  0  0  0  0  0  0  0  0
   38.5960   25.2210   36.7040 H   0  0  0  0  0  0  0  0  0  0  0  0
   37.5350   27.4220   36.1060 H   0  0  0  0  0  0  0  0  0  0  0  0
   37.9930   23.7990   32.7960 H   0  0  0  0  0  0  0  0  0  0  0  0
  1 14  1  0  0  0  0
  1  6  1  0  0  0  0
  2  1  1  0  0  0  0
  3  1  1  0  0  0  0
  4  5  1  0  0  0  0
  5 12  1  0  0  0  0
  6  7  1  0  0  0  0
  6  5  2  0  0  0  0
  7  9  2  0  0  0  0
  8  7  1  0  0  0  0
  9 10  1  0  0  0  0
  9 11  1  0  0  0  0
 12 11  2  0  0  0  0
 13 17  1  0  0  0  0
 13 14  2  0  0  0  0
 15 21  1  0  0  0  0
 16 15  1  0  0  0  0
 16 22  1  0  0  0  0
 17 16  2  0  0  0  0
 18 19  2  0  0  0  0
 18 17  1  0  0  0  0
 19 20  1  0  0  0  0
 20 15  2  0  0  0  0
 23 19  1  0  0  0  0
M  END
>  <minimizedAffinity>
-4.83697987

$$$$

 OpenBabel03272502293D

 23 24  0  0  0  0  0  0  0  0999 V2000
   38.2230   26.7700   36.2140 C   0  0  0  0  0  0  0  0  0  0  0  0
   39.1680   27.1670   36.6210 H   0  0  0  0  0  0  0  0  0  0  0  0
   37.3970   27.0830   36.8990 H   0  0  0  0  0  0  0  0  0  0  0  0
   37.9970   25.1420   38.5580 F   0  0  0  0  0  0  0  0  0  0  0  0
   38.0860   24.5400   37.3500 C   0  0  0  0  0  0  0  0  0  0  0  0
   38.1950   25.2870   36.2000 C   0  0  0  0  0  0  0  0  0  0  0  0
   38.2870   24.6970   34.9550 C   0  0  0  0  0  0  0  0  0  0  0  0
   38.3730   25.2510   34.0400 H   0  0  0  0  0  0  0  0  0  0  0  0
   38.2730   23.3220   34.8140 C   0  0  0  0  0  0  0  0  0  0  0  0
   38.3450   22.8550   33.8450 H   0  0  0  0  0  0  0  0  0  0  0  0
   38.1640   22.5460   35.9480 C   0  0  0  0  0  3  0  0  0  0  0  0
   38.0740   23.1710   37.1780 C   0  0  0  0  0  3  0  0  0  0  0  0
   36.7980   27.9320   34.5780 C   0  0  0  0  0  3  0  0  0  0  0  0
   37.8940   27.2990   34.8590 C   0  0  0  0  0  3  0  0  0  0  0  0
   36.8450   28.5340   30.9100 C   0  0  0  0  0  0  0  0  0  0  0  0
   37.2010   27.9940   32.1610 C   0  0  0  0  0  0  0  0  0  0  0  0
   36.4980   28.4330   33.2730 C   0  0  0  0  0  0  0  0  0  0  0  0
   35.5150   29.3490   33.1020 N   0  0  0  0  0  0  0  0  0  0  0  0
   35.1940   29.8520   31.9000 C   0  0  0  0  0  0  0  0  0  0  0  0
   35.8520   29.4510   30.7930 N   0  0  0  0  0  0  0  0  0  0  0  0
   37.3620   28.2300   29.9920 H   0  0  0  0  0  0  0  0  0  0  0  0
   38.0020   27.2600   32.2230 H   0  0  0  0  0  0  0  0  0  0  0  0
   34.3930   30.5910   31.8010 H   0  0  0  0  0  0  0  0  0  0  0  0
  1  2  1  0  0  0  0
  1  3  1  0  0  0  0
  5  4  1  0  0  0  0
  6  1  1  0  0  0  0
  6  5  2  0  0  0  0
  7  6  1  0  0  0  0
  8  7  1  0  0  0  0
  9  7  2  0  0  0  0
  9 11  1  0  0  0  0
 10  9  1  0  0  0  0
 11 12  2  0  0  0  0
 12  5  1  0  0  0  0
 13 14  2  0  0  0  0
 14  1  1  0  0  0  0
 15 16  1  0  0  0  0
 16 22  1  0  0  0  0
 16 17  2  0  0  0  0
 17 13  1  0  0  0  0
 18 17  1  0  0  0  0
 19 18  2  0  0  0  0
 20 15  2  0  0  0  0
 20 19  1  0  0  0  0
 21 15  1  0  0  0  0
 23 19  1  0  0  0  0
M  END
>  <minimizedAffinity>
-4.70391417

$$$$

 OpenBabel03272502293D

 23 24  0  0  0  0  0  0  0  0999 V2000
   35.5510   29.9620   33.9290 C   0  0  0  0  0  0  0  0  0  0  0  0
   36.3380   30.6090   33.5050 H   0  0  0  0  0  0  0  0  0  0  0  0
   34.7920   29.7790   33.1300 H   0  0  0  0  0  0  0  0  0  0  0  0
   32.7770   29.5460   34.4970 F   0  0  0  0  0  0  0  0  0  0  0  0
   33.4840   30.3940   35.2780 C   0  0  0  0  0  0  0  0  0  0  0  0
   34.8190   30.6200   35.0390 C   0  0  0  0  0  0  0  0  0  0  0  0
   35.5640   31.4810   35.8210 C   0  0  0  0  0  0  0  0  0  0  0  0
   36.6060   31.6790   35.6610 H   0  0  0  0  0  0  0  0  0  0  0  0
   34.9910   32.1540   36.8850 C   0  0  0  0  0  0  0  0  0  0  0  0
   35.5660   32.8270   37.4990 H   0  0  0  0  0  0  0  0  0  0  0  0
   33.6550   31.9470   37.1510 C   0  0  0  0  0  3  0  0  0  0  0  0
   32.9410   31.0780   36.3460 C   0  0  0  0  0  3  0  0  0  0  0  0
   36.7700   27.8460   33.6240 C   0  0  0  0  0  3  0  0  0  0  0  0
   36.0560   28.6300   34.3690 C   0  0  0  0  0  3  0  0  0  0  0  0
   37.9260   24.3140   33.6680 C   0  0  0  0  0  0  0  0  0  0  0  0
   37.4570   25.5390   33.1600 C   0  0  0  0  0  0  0  0  0  0  0  0
   37.2460   26.5700   34.0620 C   0  0  0  0  0  0  0  0  0  0  0  0
   37.4990   26.3500   35.3740 N   0  0  0  0  0  0  0  0  0  0  0  0
   37.9460   25.1720   35.8380 C   0  0  0  0  0  0  0  0  0  0  0  0
   38.1640   24.1440   34.9930 N   0  0  0  0  0  0  0  0  0  0  0  0
   38.1130   23.4580   33.0090 H   0  0  0  0  0  0  0  0  0  0  0  0
   37.2750   25.6450   32.0920 H   0  0  0  0  0  0  0  0  0  0  0  0
   38.1390   25.0310   36.9050 H   0  0  0  0  0  0  0  0  0  0  0  0
  1 14  1  0  0  0  0
  1  6  1  0  0  0  0
  2  1  1  0  0  0  0
  3  1  1  0  0  0  0
  4  5  1  0  0  0  0
  5 12  1  0  0  0  0
  6  5  2  0  0  0  0
  6  7  1  0  0  0  0
  7  9  2  0  0  0  0
  8  7  1  0  0  0  0
  9 11  1  0  0  0  0
  9 10  1  0  0  0  0
 12 11  2  0  0  0  0
 13 17  1  0  0  0  0
 13 14  2  0  0  0  0
 15 20  1  0  0  0  0
 16 15  2  0  0  0  0
 16 17  1  0  0  0  0
 17 18  2  0  0  0  0
 18 19  1  0  0  0  0
 19 23  1  0  0  0  0
 20 19  2  0  0  0  0
 21 15  1  0  0  0  0
 22 16  1  0  0  0  0
M  END
>  <minimizedAffinity>
-4.67391443

$$$$

 OpenBabel03272502293D

 23 24  0  0  0  0  0  0  0  0999 V2000
   37.4370   27.8010   34.8500 C   0  0  0  0  0  0  0  0  0  0  0  0
   36.3840   27.9600   35.1370 H   0  0  0  0  0  0  0  0  0  0  0  0
   37.9810   28.7660   34.9950 H   0  0  0  0  0  0  0  0  0  0  0  0
   39.9510   27.4730   33.5210 F   0  0  0  0  0  0  0  0  0  0  0  0
   38.8100   27.3190   32.8100 C   0  0  0  0  0  0  0  0  0  0  0  0
   37.5830   27.4680   33.4120 C   0  0  0  0  0  0  0  0  0  0  0  0
   36.4040   27.3150   32.7090 C   0  0  0  0  0  0  0  0  0  0  0  0
   35.4310   27.4240   33.1490 H   0  0  0  0  0  0  0  0  0  0  0  0
   36.4110   27.0050   31.3610 C   0  0  0  0  0  0  0  0  0  0  0  0
   35.4950   26.8850   30.8070 H   0  0  0  0  0  0  0  0  0  0  0  0
   37.6260   26.8500   30.7300 C   0  0  0  0  0  3  0  0  0  0  0  0
   38.7860   27.0090   31.4650 C   0  0  0  0  0  3  0  0  0  0  0  0
   37.7660   25.5340   35.7510 C   0  0  0  0  0  3  0  0  0  0  0  0
   38.1290   26.7770   35.6840 C   0  0  0  0  0  3  0  0  0  0  0  0
   38.7450   23.3380   38.5850 C   0  0  0  0  0  0  0  0  0  0  0  0
   38.0310   24.3070   37.8560 C   0  0  0  0  0  0  0  0  0  0  0  0
   38.4410   24.5650   36.5570 C   0  0  0  0  0  0  0  0  0  0  0  0
   39.4980   23.8800   36.0590 N   0  0  0  0  0  0  0  0  0  0  0  0
   40.1660   22.9600   36.7740 C   0  0  0  0  0  0  0  0  0  0  0  0
   39.7990   22.6790   38.0400 N   0  0  0  0  0  0  0  0  0  0  0  0
   38.4730   23.0870   39.6180 H   0  0  0  0  0  0  0  0  0  0  0  0
   37.1900   24.8190   38.3200 H   0  0  0  0  0  0  0  0  0  0  0  0
   41.0160   22.4270   36.3380 H   0  0  0  0  0  0  0  0  0  0  0  0
  1  3  1  0  0  0  0
  1  2  1  0  0  0  0
  1 14  1  0  0  0  0
  5  6  1  0  0  0  0
  5  4  1  0  0  0  0
  6  1  1  0  0  0  0
  7  8  1  0  0  0  0
  7  6  2  0  0  0  0
  9  7  1  0  0  0  0
 10  9  1  0  0  0  0
 11  9  2  0  0  0  0
 11 12  1  0  0  0  0
 12  5  2  0  0  0  0
 13 17  1  0  0  0  0
 14 13  2  0  0  0  0
 15 21  1  0  0  0  0
 16 22  1  0  0  0  0
 16 15  2  0  0  0  0
 17 16  1  0  0  0  0
 18 17  2  0  0  0  0
 18 19  1  0  0  0  0
 19 20  2  0  0  0  0
 20 15  1  0  0  0  0
 23 19  1  0  0  0  0
M  END
>  <minimizedAffinity>
-4.5728035

$$$$

 OpenBabel03272502293D

 23 24  0  0  0  0  0  0  0  0999 V2000
   37.1970   27.6800   34.5790 C   0  0  0  0  0  0  0  0  0  0  0  0
   36.1100   27.6340   34.7670 H   0  0  0  0  0  0  0  0  0  0  0  0
   37.5500   28.7010   34.8670 H   0  0  0  0  0  0  0  0  0  0  0  0
   35.3010   27.9730   32.4540 F   0  0  0  0  0  0  0  0  0  0  0  0
   36.5850   27.6770   32.1490 C   0  0  0  0  0  0  0  0  0  0  0  0
   37.5260   27.5280   33.1410 C   0  0  0  0  0  0  0  0  0  0  0  0
   38.8430   27.2260   32.8560 C   0  0  0  0  0  0  0  0  0  0  0  0
   39.6000   27.1040   33.6060 H   0  0  0  0  0  0  0  0  0  0  0  0
   39.2710   27.0600   31.5520 C   0  0  0  0  0  0  0  0  0  0  0  0
   40.2970   26.8240   31.3230 H   0  0  0  0  0  0  0  0  0  0  0  0
   38.3520   27.2030   30.5360 C   0  0  0  0  0  3  0  0  0  0  0  0
   37.0410   27.5060   30.8580 C   0  0  0  0  0  3  0  0  0  0  0  0
   37.5670   25.5040   35.6680 C   0  0  0  0  0  3  0  0  0  0  0  0
   37.9780   26.7010   35.3880 C   0  0  0  0  0  3  0  0  0  0  0  0
   38.7850   23.3710   38.4580 C   0  0  0  0  0  0  0  0  0  0  0  0
   37.9850   24.2940   37.7590 C   0  0  0  0  0  0  0  0  0  0  0  0
   38.3300   24.5770   36.4460 C   0  0  0  0  0  0  0  0  0  0  0  0
   39.4080   23.9580   35.9070 N   0  0  0  0  0  0  0  0  0  0  0  0
   40.1570   23.0810   36.5940 C   0  0  0  0  0  0  0  0  0  0  0  0
   39.8560   22.7780   37.8720 N   0  0  0  0  0  0  0  0  0  0  0  0
   38.5670   23.1030   39.4990 H   0  0  0  0  0  0  0  0  0  0  0  0
   37.1330   24.7540   38.2560 H   0  0  0  0  0  0  0  0  0  0  0  0
   41.0210   22.6010   36.1250 H   0  0  0  0  0  0  0  0  0  0  0  0
  1  2  1  0  0  0  0
  1  3  1  0  0  0  0
  1 14  1  0  0  0  0
  5  4  1  0  0  0  0
  5  6  1  0  0  0  0
  6  1  1  0  0  0  0
  7  6  2  0  0  0  0
  7  8  1  0  0  0  0
  9  7  1  0  0  0  0
 10  9  1  0  0  0  0
 11 12  1  0  0  0  0
 11  9  2  0  0  0  0
 12  5  2  0  0  0  0
 13 17  1  0  0  0  0
 14 13  2  0  0  0  0
 15 21  1  0  0  0  0
 16 22  1  0  0  0  0
 16 15  2  0  0  0  0
 17 16  1  0  0  0  0
 18 17  2  0  0  0  0
 18 19  1  0  0  0  0
 19 20  2  0  0  0  0
 20 15  1  0  0  0  0
 23 19  1  0  0  0  0
M  END
>  <minimizedAffinity>
-4.5666647

$$$$

 OpenBabel03272502293D

 23 24  0  0  0  0  0  0  0  0999 V2000
   39.3610   22.9170   35.6830 C   0  0  0  0  0  0  0  0  0  0  0  0
   39.0550   22.4480   36.6340 H   0  0  0  0  0  0  0  0  0  0  0  0
   40.4590   22.7460   35.5560 H   0  0  0  0  0  0  0  0  0  0  0  0
   37.3340   24.2750   37.1810 F   0  0  0  0  0  0  0  0  0  0  0  0
   38.1920   25.0040   36.4310 C   0  0  0  0  0  0  0  0  0  0  0  0
   39.1800   24.3890   35.6980 C   0  0  0  0  0  0  0  0  0  0  0  0
   40.0680   25.1100   34.9240 C   0  0  0  0  0  0  0  0  0  0  0  0
   40.8490   24.6610   34.3410 H   0  0  0  0  0  0  0  0  0  0  0  0
   39.9990   26.4890   34.8560 C   0  0  0  0  0  0  0  0  0  0  0  0
   40.6890   27.0580   34.2540 H   0  0  0  0  0  0  0  0  0  0  0  0
   39.0200   27.1340   35.5800 C   0  0  0  0  0  3  0  0  0  0  0  0
   38.1480   26.3800   36.3440 C   0  0  0  0  0  3  0  0  0  0  0  0
   37.4680   21.8840   34.4960 C   0  0  0  0  0  3  0  0  0  0  0  0
   38.6850   22.3310   34.4900 C   0  0  0  0  0  3  0  0  0  0  0  0
   36.8590   20.5330   31.0870 C   0  0  0  0  0  0  0  0  0  0  0  0
   37.5530   21.0870   32.1790 C   0  0  0  0  0  0  0  0  0  0  0  0
   36.8360   21.3240   33.3420 C   0  0  0  0  0  0  0  0  0  0  0  0
   35.5180   21.0140   33.3690 N   0  0  0  0  0  0  0  0  0  0  0  0
   34.8760   20.4870   32.3150 C   0  0  0  0  0  0  0  0  0  0  0  0
   35.5360   20.2410   31.1650 N   0  0  0  0  0  0  0  0  0  0  0  0
   37.3670   20.3210   30.1380 H   0  0  0  0  0  0  0  0  0  0  0  0
   38.6140   21.3110   32.0860 H   0  0  0  0  0  0  0  0  0  0  0  0
   33.8090   20.2490   32.3740 H   0  0  0  0  0  0  0  0  0  0  0  0
  1  6  1  0  0  0  0
  1  2  1  0  0  0  0
  3  1  1  0  0  0  0
  5  4  1  0  0  0  0
  6  5  2  0  0  0  0
  7  6  1  0  0  0  0
  8  7  1  0  0  0  0
  9  7  2  0  0  0  0
  9 11  1  0  0  0  0
 10  9  1  0  0  0  0
 11 12  2  0  0  0  0
 12  5  1  0  0  0  0
 14 13  2  0  0  0  0
 14  1  1  0  0  0  0
 15 20  2  0  0  0  0
 15 16  1  0  0  0  0
 16 17  2  0  0  0  0
 17 18  1  0  0  0  0
 17 13  1  0  0  0  0
 19 23  1  0  0  0  0
 19 18  2  0  0  0  0
 20 19  1  0  0  0  0
 21 15  1  0  0  0  0
 22 16  1  0  0  0  0
M  END
>  <minimizedAffinity>
-4.45039034

$$$$

 OpenBabel03272502293D

 23 24  0  0  0  0  0  0  0  0999 V2000
   39.2870   23.8990   34.3660 C   0  0  0  0  0  0  0  0  0  0  0  0
   40.3540   24.0180   34.1100 H   0  0  0  0  0  0  0  0  0  0  0  0
   38.7500   24.8220   34.0330 H   0  0  0  0  0  0  0  0  0  0  0  0
   37.3160   25.4060   35.7930 F   0  0  0  0  0  0  0  0  0  0  0  0
   38.1090   24.5510   36.4790 C   0  0  0  0  0  0  0  0  0  0  0  0
   39.0670   23.8090   35.8300 C   0  0  0  0  0  0  0  0  0  0  0  0
   39.8890   22.9290   36.5060 C   0  0  0  0  0  0  0  0  0  0  0  0
   40.6450   22.3360   36.0300 H   0  0  0  0  0  0  0  0  0  0  0  0
   39.7790   22.7590   37.8750 C   0  0  0  0  0  0  0  0  0  0  0  0
   40.4170   22.0750   38.4090 H   0  0  0  0  0  0  0  0  0  0  0  0
   38.8280   23.4890   38.5530 C   0  0  0  0  0  3  0  0  0  0  0  0
   38.0220   24.3600   37.8420 C   0  0  0  0  0  3  0  0  0  0  0  0
   37.3720   22.6770   33.4200 C   0  0  0  0  0  3  0  0  0  0  0  0
   38.6400   22.7440   33.6800 C   0  0  0  0  0  3  0  0  0  0  0  0
   35.3900   19.6070   32.7360 C   0  0  0  0  0  0  0  0  0  0  0  0
   35.9490   20.6800   33.4540 C   0  0  0  0  0  0  0  0  0  0  0  0
   36.7670   21.5600   32.7620 C   0  0  0  0  0  0  0  0  0  0  0  0
   36.9850   21.3460   31.4420 N   0  0  0  0  0  0  0  0  0  0  0  0
   36.4430   20.3140   30.7770 C   0  0  0  0  0  0  0  0  0  0  0  0
   35.6410   19.4350   31.4130 N   0  0  0  0  0  0  0  0  0  0  0  0
   34.7350   18.8750   33.2230 H   0  0  0  0  0  0  0  0  0  0  0  0
   35.7300   20.7910   34.5150 H   0  0  0  0  0  0  0  0  0  0  0  0
   36.6420   20.1730   29.7110 H   0  0  0  0  0  0  0  0  0  0  0  0
  1  6  1  0  0  0  0
  2  1  1  0  0  0  0
  3  1  1  0  0  0  0
  4  5  1  0  0  0  0
  5 12  1  0  0  0  0
  6  5  2  0  0  0  0
  6  7  1  0  0  0  0
  7  9  2  0  0  0  0
  8  7  1  0  0  0  0
  9 10  1  0  0  0  0
  9 11  1  0  0  0  0
 12 11  2  0  0  0  0
 13 14  2  0  0  0  0
 14  1  1  0  0  0  0
 15 21  1  0  0  0  0
 15 16  1  0  0  0  0
 16 22  1  0  0  0  0
 17 13  1  0  0  0  0
 17 16  2  0  0  0  0
 18 17  1  0  0  0  0
 19 20  1  0  0  0  0
 19 18  2  0  0  0  0
 20 15  2  0  0  0  0
 23 19  1  0  0  0  0
M  END
>  <minimizedAffinity>
-4.43576622

$$$$

 OpenBabel03272502293D

 23 24  0  0  0  0  0  0  0  0999 V2000
   34.8810   29.9980   34.2990 C   0  0  0  0  0  0  0  0  0  0  0  0
   34.0160   29.9950   33.6150 H   0  0  0  0  0  0  0  0  0  0  0  0
   34.4920   29.8800   35.3410 H   0  0  0  0  0  0  0  0  0  0  0  0
   35.6980   31.4140   36.6490 F   0  0  0  0  0  0  0  0  0  0  0  0
   35.9820   31.9410   35.4350 C   0  0  0  0  0  0  0  0  0  0  0  0
   35.6070   31.2910   34.2830 C   0  0  0  0  0  0  0  0  0  0  0  0
   35.8840   31.8070   33.0330 C   0  0  0  0  0  0  0  0  0  0  0  0
   35.6060   31.3250   32.1160 H   0  0  0  0  0  0  0  0  0  0  0  0
   36.5560   33.0080   32.8890 C   0  0  0  0  0  0  0  0  0  0  0  0
   36.7750   33.4160   31.9170 H   0  0  0  0  0  0  0  0  0  0  0  0
   36.9450   33.6820   34.0250 C   0  0  0  0  0  3  0  0  0  0  0  0
   36.6500   33.1350   35.2610 C   0  0  0  0  0  3  0  0  0  0  0  0
   36.6090   28.3780   34.9650 C   0  0  0  0  0  3  0  0  0  0  0  0
   35.8310   28.8750   34.0560 C   0  0  0  0  0  3  0  0  0  0  0  0
   39.5970   26.1670   35.0240 C   0  0  0  0  0  0  0  0  0  0  0  0
   38.7620   27.2600   35.3210 C   0  0  0  0  0  0  0  0  0  0  0  0
   37.5160   27.3010   34.7140 C   0  0  0  0  0  0  0  0  0  0  0  0
   37.1680   26.2970   33.8740 N   0  0  0  0  0  0  0  0  0  0  0  0
   37.9810   25.2640   33.6040 C   0  0  0  0  0  0  0  0  0  0  0  0
   39.2010   25.1860   34.1740 N   0  0  0  0  0  0  0  0  0  0  0  0
   40.5950   26.0750   35.4700 H   0  0  0  0  0  0  0  0  0  0  0  0
   39.1080   28.0320   36.0070 H   0  0  0  0  0  0  0  0  0  0  0  0
   37.6650   24.4710   32.9190 H   0  0  0  0  0  0  0  0  0  0  0  0
  1  3  1  0  0  0  0
  2  1  1  0  0  0  0
  5  4  1  0  0  0  0
  6  1  1  0  0  0  0
  6  5  2  0  0  0  0
  7  6  1  0  0  0  0
  8  7  1  0  0  0  0
  9  7  2  0  0  0  0
  9 11  1  0  0  0  0
 10  9  1  0  0  0  0
 11 12  2  0  0  0  0
 12  5  1  0  0  0  0
 14  1  1  0  0  0  0
 14 13  2  0  0  0  0
 15 16  1  0  0  0  0
 15 21  1  0  0  0  0
 16 22  1  0  0  0  0
 17 13  1  0  0  0  0
 17 16  2  0  0  0  0
 18 17  1  0  0  0  0
 19 18  2  0  0  0  0
 19 20  1  0  0  0  0
 20 15  2  0  0  0  0
 23 19  1  0  0  0  0
M  END
>  <minimizedAffinity>
-4.42016649

$$$$
