
 OpenBabel03272505263D

 31 33  0  0  0  0  0  0  0  0999 V2000
   37.3900   31.0700   47.1520 N   0  0  0  0  0  0  0  0  0  0  0  0
   36.8080   30.7270   45.9710 C   0  0  0  0  0  0  0  0  0  0  0  0
   37.2720   31.2020   44.7540 C   0  0  0  0  0  0  0  0  0  0  0  0
   38.3840   32.0670   44.7870 C   0  0  0  0  0  0  0  0  0  0  0  0
   38.8370   32.5210   43.7110 O   0  0  0  0  0  0  0  0  0  0  0  0
   38.9610   32.4060   45.9720 N   0  0  0  0  0  0  0  0  0  0  0  0
   38.4220   31.8830   47.0790 C   0  0  0  0  0  0  0  0  0  0  0  0
   38.9790   32.2190   48.1480 O   0  0  0  0  0  0  0  0  0  0  0  0
   35.9440   30.0570   45.9240 H   0  0  0  0  0  0  0  0  0  0  0  0
   37.2360   29.4630   50.4950 C   0  0  0  0  0  0  0  0  0  0  0  0
   37.7140   29.9560   49.2760 C   0  0  0  0  0  0  0  0  0  0  0  0
   36.8980   30.5750   48.3630 C   0  0  0  0  0  0  0  0  0  0  0  0
   35.5950   30.6930   48.6920 N   0  0  0  0  0  0  0  0  0  0  0  0
   35.0850   30.2290   49.8650 C   0  0  0  0  0  0  0  0  0  0  0  0
   35.9040   29.6150   50.7690 N   0  0  0  0  0  0  0  0  0  0  0  0
   37.8140   28.9710   51.2520 H   0  0  0  0  0  0  0  0  0  0  0  0
   38.7630   29.7530   49.2040 H   0  0  0  0  0  0  0  0  0  0  0  0
   34.0270   30.3550   50.0700 H   0  0  0  0  0  0  0  0  0  0  0  0
   38.1480   28.9690   43.4170 F   0  0  0  0  0  0  0  0  0  0  0  0
   37.1540   29.7000   42.8800 C   0  0  0  0  0  0  0  0  0  0  0  0
   36.6500   30.8370   43.4820 C   0  0  0  0  0  0  0  0  0  0  0  0
   35.6230   31.5420   42.8710 C   0  0  0  0  0  0  0  0  0  0  0  0
   35.2880   32.4100   43.4010 H   0  0  0  0  0  0  0  0  0  0  0  0
   35.1430   31.0630   41.6660 C   0  0  0  0  0  0  0  0  0  0  0  0
   34.3410   31.6320   41.2090 H   0  0  0  0  0  0  0  0  0  0  0  0
   35.6320   29.9380   41.0580 C   0  0  0  0  0  0  0  0  0  0  0  0
   36.6440   29.2640   41.6820 C   0  0  0  0  0  0  0  0  0  0  0  0
   40.1100   33.2920   46.0060 C   0  0  0  0  0  0  0  0  0  0  0  0
   39.9770   34.2620   45.0670 F   0  0  0  0  0  0  0  0  0  0  0  0
   41.2960   32.6320   45.7230 F   0  0  0  0  0  0  0  0  0  0  0  0
   40.1780   33.8960   47.2540 F   0  0  0  0  0  0  0  0  0  0  0  0
  1 12  1  0  0  0  0
  2  1  1  0  0  0  0
  3  4  1  0  0  0  0
  3  2  2  0  0  0  0
  4  6  1  0  0  0  0
  5  4  2  0  0  0  0
  6 28  1  0  0  0  0
  6  7  1  0  0  0  0
  7  1  1  0  0  0  0
  7  8  2  0  0  0  0
  9  2  1  0  0  0  0
 10 15  1  0  0  0  0
 10 16  1  0  0  0  0
 11 10  2  0  0  0  0
 12 13  2  0  0  0  0
 12 11  1  0  0  0  0
 13 14  1  0  0  0  0
 14 18  1  0  0  0  0
 14 15  2  0  0  0  0
 17 11  1  0  0  0  0
 20 19  1  0  0  0  0
 20 21  1  0  0  0  0
 21  3  1  0  0  0  0
 22 23  1  0  0  0  0
 22 21  2  0  0  0  0
 24 22  1  0  0  0  0
 25 24  1  0  0  0  0
 26 24  2  0  0  0  0
 26 27  1  0  0  0  0
 27 20  2  0  0  0  0
 28 31  1  0  0  0  0
 29 28  1  0  0  0  0
 30 28  1  0  0  0  0
M  END
>  <minimizedAffinity>
-6.24613667

>  <minimizedRMSD>
0.437354237

$$$$
