
 OpenBabel03272510303D

 28 30  0  0  0  0  0  0  0  0999 V2000
   37.1800   31.3280   49.2140 C   0  0  0  0  0  0  0  0  0  0  0  0
   37.3310   32.5970   49.7810 C   0  0  0  0  0  0  0  0  0  0  0  0
   38.2790   33.3970   49.2040 C   0  0  0  0  0  0  0  0  0  0  0  0
   39.0160   32.9450   48.1350 N   0  0  0  0  0  0  0  0  0  0  0  0
   38.8320   31.7060   47.6210 C   0  0  0  0  0  0  0  0  0  0  0  0
   37.8920   30.8660   48.1660 N   0  0  0  0  0  0  0  0  0  0  0  0
   36.7270   32.8820   50.6070 H   0  0  0  0  0  0  0  0  0  0  0  0
   38.4620   34.4010   49.5860 H   0  0  0  0  0  0  0  0  0  0  0  0
   36.1280   30.4170   49.7940 C   0  0  0  0  0  0  0  0  0  0  0  0
   36.1370   28.9880   49.6170 C   0  0  0  0  0  0  0  0  0  0  0  0
   36.6760   29.5360   50.9260 C   0  0  0  0  0  0  0  0  0  0  0  0
   35.2030   30.9810   50.0430 H   0  0  0  0  0  0  0  0  0  0  0  0
   35.1650   28.4530   49.6320 H   0  0  0  0  0  0  0  0  0  0  0  0
   36.9030   28.4750   49.0070 H   0  0  0  0  0  0  0  0  0  0  0  0
   37.7590   29.5180   51.1100 H   0  0  0  0  0  0  0  0  0  0  0  0
   35.9870   29.4290   51.7670 H   0  0  0  0  0  0  0  0  0  0  0  0
   39.5880   31.2130   46.4770 C   0  0  0  0  0  0  0  0  0  0  0  0
   39.7350   30.0980   46.5530 H   0  0  0  0  0  0  0  0  0  0  0  0
   40.6300   31.6070   46.4270 H   0  0  0  0  0  0  0  0  0  0  0  0
   39.6510   33.6680   45.0050 F   0  0  0  0  0  0  0  0  0  0  0  0
   38.9420   32.6470   44.4690 C   0  0  0  0  0  0  0  0  0  0  0  0
   38.9130   31.4680   45.1770 C   0  0  0  0  0  0  0  0  0  0  0  0
   38.1770   30.4180   44.6160 C   0  0  0  0  0  0  0  0  0  0  0  0
   38.1290   29.4580   45.1510 H   0  0  0  0  0  0  0  0  0  0  0  0
   37.5020   30.4990   43.4290 C   0  0  0  0  0  0  0  0  0  0  0  0
   36.9530   29.6480   43.0520 H   0  0  0  0  0  0  0  0  0  0  0  0
   37.5350   31.6970   42.7140 C   0  0  0  0  0  3  0  0  0  0  0  0
   38.2580   32.7210   43.2690 C   0  0  0  0  0  3  0  0  0  0  0  0
  1  2  1  0  0  0  0
  1  9  1  0  0  0  0
  2  7  1  0  0  0  0
  3  8  1  0  0  0  0
  3  2  2  0  0  0  0
  4  3  1  0  0  0  0
  5  4  2  0  0  0  0
  5  6  1  0  0  0  0
  6  1  2  0  0  0  0
  9 12  1  0  0  0  0
  9 11  1  0  0  0  0
 10 13  1  0  0  0  0
 10  9  1  0  0  0  0
 10 11  1  0  0  0  0
 11 15  1  0  0  0  0
 11 16  1  0  0  0  0
 14 10  1  0  0  0  0
 17 18  1  0  0  0  0
 17  5  1  0  0  0  0
 19 17  1  0  0  0  0
 21 20  1  0  0  0  0
 21 22  1  0  0  0  0
 22 17  1  0  0  0  0
 23 24  1  0  0  0  0
 23 22  2  0  0  0  0
 25 23  1  0  0  0  0
 26 25  1  0  0  0  0
 27 28  1  0  0  0  0
 27 25  2  0  0  0  0
 28 21  2  0  0  0  0
M  END
>  <minimizedAffinity>
-5.57821083

>  <minimizedRMSD>
0.713577867

$$$$
