
 OpenBabel03272510303D

 28 30  0  0  0  0  0  0  0  0999 V2000
   37.2900   31.3670   49.2790 C   0  0  0  0  0  0  0  0  0  0  0  0
   37.5670   32.6690   49.7060 C   0  0  0  0  0  0  0  0  0  0  0  0
   38.4570   33.3700   48.9380 C   0  0  0  0  0  0  0  0  0  0  0  0
   39.0200   32.7950   47.8230 N   0  0  0  0  0  0  0  0  0  0  0  0
   38.7190   31.5290   47.4500 C   0  0  0  0  0  0  0  0  0  0  0  0
   37.8320   30.7850   48.1890 N   0  0  0  0  0  0  0  0  0  0  0  0
   37.0950   33.0510   50.5760 H   0  0  0  0  0  0  0  0  0  0  0  0
   38.7290   34.3920   49.2020 H   0  0  0  0  0  0  0  0  0  0  0  0
   36.2950   30.5600   50.0730 C   0  0  0  0  0  0  0  0  0  0  0  0
   36.2010   29.1250   49.9970 C   0  0  0  0  0  0  0  0  0  0  0  0
   36.9650   29.7170   51.1680 C   0  0  0  0  0  0  0  0  0  0  0  0
   35.4500   31.1950   50.4190 H   0  0  0  0  0  0  0  0  0  0  0  0
   35.2170   28.6540   50.1960 H   0  0  0  0  0  0  0  0  0  0  0  0
   36.8360   28.5290   49.3160 H   0  0  0  0  0  0  0  0  0  0  0  0
   38.0600   29.6440   51.1880 H   0  0  0  0  0  0  0  0  0  0  0  0
   36.4090   29.7060   52.1090 H   0  0  0  0  0  0  0  0  0  0  0  0
   39.2900   30.9060   46.2620 C   0  0  0  0  0  0  0  0  0  0  0  0
   38.8890   29.8590   46.1360 H   0  0  0  0  0  0  0  0  0  0  0  0
   40.3920   30.7540   46.3240 H   0  0  0  0  0  0  0  0  0  0  0  0
   41.1430   32.4150   44.6860 F   0  0  0  0  0  0  0  0  0  0  0  0
   39.8620   32.3650   44.2500 C   0  0  0  0  0  0  0  0  0  0  0  0
   38.9730   31.6400   45.0090 C   0  0  0  0  0  0  0  0  0  0  0  0
   37.6510   31.5940   44.5510 C   0  0  0  0  0  0  0  0  0  0  0  0
   36.9090   31.0250   45.1300 H   0  0  0  0  0  0  0  0  0  0  0  0
   37.2060   32.2170   43.4160 C   0  0  0  0  0  0  0  0  0  0  0  0
   36.1710   32.1410   43.1200 H   0  0  0  0  0  0  0  0  0  0  0  0
   38.1120   32.9500   42.6520 C   0  0  0  0  0  3  0  0  0  0  0  0
   39.4060   32.9920   43.1050 C   0  0  0  0  0  3  0  0  0  0  0  0
  1  2  1  0  0  0  0
  1  9  1  0  0  0  0
  2  7  1  0  0  0  0
  3  8  1  0  0  0  0
  3  2  2  0  0  0  0
  4  3  1  0  0  0  0
  5  4  2  0  0  0  0
  5  6  1  0  0  0  0
  6  1  2  0  0  0  0
  9 12  1  0  0  0  0
  9 11  1  0  0  0  0
 10  9  1  0  0  0  0
 10 13  1  0  0  0  0
 10 11  1  0  0  0  0
 11 15  1  0  0  0  0
 11 16  1  0  0  0  0
 14 10  1  0  0  0  0
 17 19  1  0  0  0  0
 17  5  1  0  0  0  0
 18 17  1  0  0  0  0
 21 20  1  0  0  0  0
 21 22  1  0  0  0  0
 22 17  1  0  0  0  0
 23 22  2  0  0  0  0
 23 24  1  0  0  0  0
 25 23  1  0  0  0  0
 26 25  1  0  0  0  0
 27 28  1  0  0  0  0
 27 25  2  0  0  0  0
 28 21  2  0  0  0  0
M  END
>  <minimizedAffinity>
-5.76774168

>  <minimizedRMSD>
1.16106248

$$$$
