
 OpenBabel03272501133D

 28 30  0  0  1  0  0  0  0  0999 V2000
   37.3610   26.6420   35.2120 C   0  0  1  0  0  0  0  0  0  0  0  0
   38.4570   25.7580   35.5460 C   0  0  1  0  0  0  0  0  0  0  0  0
   38.5070   27.1470   36.0850 C   0  0  0  0  0  0  0  0  0  0  0  0
   36.3610   26.6500   35.6960 H   0  0  0  0  0  0  0  0  0  0  0  0
   39.2230   25.5680   34.7440 H   0  0  0  0  0  0  0  0  0  0  0  0
   38.2500   27.2700   37.1360 H   0  0  0  0  0  0  0  0  0  0  0  0
   39.1990   27.8930   35.6730 H   0  0  0  0  0  0  0  0  0  0  0  0
   37.3100   27.3450   33.8750 C   0  0  0  0  0  0  0  0  0  0  0  0
   36.3220   28.3230   33.7450 C   0  0  0  0  0  0  0  0  0  0  0  0
   36.2700   28.9470   32.4880 C   0  0  0  0  0  0  0  0  0  0  0  0
   37.1430   28.5920   31.4940 N   0  0  0  0  0  0  0  0  0  0  0  0
   38.0880   27.6260   31.6870 C   0  0  0  0  0  0  0  0  0  0  0  0
   38.1460   27.0150   32.9050 N   0  0  0  0  0  0  0  0  0  0  0  0
   35.6200   28.6250   34.5090 H   0  0  0  0  0  0  0  0  0  0  0  0
   35.5220   29.7130   32.3300 H   0  0  0  0  0  0  0  0  0  0  0  0
   38.7720   27.3540   30.8960 H   0  0  0  0  0  0  0  0  0  0  0  0
   38.1410   24.5830   36.4570 C   0  0  0  0  0  0  0  0  0  0  0  0
   38.0750   24.8750   37.5250 H   0  0  0  0  0  0  0  0  0  0  0  0
   37.2630   24.0250   36.0960 H   0  0  0  0  0  0  0  0  0  0  0  0
   38.9560   23.1670   38.6730 F   0  0  0  0  0  0  0  0  0  0  0  0
   39.6480   22.9970   37.5180 C   0  0  0  0  0  0  0  0  0  0  0  0
   39.3260   23.6550   36.3370 C   0  0  0  0  0  0  0  0  0  0  0  0
   40.0940   23.4090   35.2200 C   0  0  0  0  0  0  0  0  0  0  0  0
   39.7830   23.9570   34.3430 H   0  0  0  0  0  0  0  0  0  0  0  0
   41.1420   22.5350   35.3010 C   0  0  0  0  0  0  0  0  0  0  0  0
   41.7190   22.3730   34.3950 H   0  0  0  0  0  0  0  0  0  0  0  0
   41.4920   21.8640   36.4520 C   0  0  0  0  0  3  0  0  0  0  0  0
   40.7140   22.1220   37.5570 C   0  0  0  0  0  3  0  0  0  0  0  0
  1  2  1  0  0  0  0
  1  4  1  1  0  0  0
  1  3  1  0  0  0  0
  2  5  1  6  0  0  0
  2  3  1  0  0  0  0
  2 17  1  0  0  0  0
  3  6  1  0  0  0  0
  7  3  1  0  0  0  0
  8  1  1  0  0  0  0
  9  8  1  0  0  0  0
  9 14  1  0  0  0  0
 10  9  2  0  0  0  0
 11 12  2  0  0  0  0
 11 10  1  0  0  0  0
 12 13  1  0  0  0  0
 13  8  2  0  0  0  0
 15 10  1  0  0  0  0
 16 12  1  0  0  0  0
 17 18  1  0  0  0  0
 19 17  1  0  0  0  0
 21 28  1  0  0  0  0
 21 20  1  0  0  0  0
 22 17  1  0  0  0  0
 22 21  2  0  0  0  0
 23 25  2  0  0  0  0
 23 22  1  0  0  0  0
 24 23  1  0  0  0  0
 25 27  1  0  0  0  0
 26 25  1  0  0  0  0
 27 28  2  0  0  0  0
M  END
>  <minimizedAffinity>
-5.07849026

$$$$

 OpenBabel03272501133D

 28 30  0  0  1  0  0  0  0  0999 V2000
   36.7830   28.0850   33.1570 C   0  0  1  0  0  0  0  0  0  0  0  0
   35.7300   28.7740   33.8720 C   0  0  1  0  0  0  0  0  0  0  0  0
   36.6930   27.9710   34.6770 C   0  0  0  0  0  0  0  0  0  0  0  0
   37.7180   28.5470   32.7740 H   0  0  0  0  0  0  0  0  0  0  0  0
   34.7010   28.3170   33.8310 H   0  0  0  0  0  0  0  0  0  0  0  0
   37.4590   28.5280   35.2150 H   0  0  0  0  0  0  0  0  0  0  0  0
   36.4030   27.0090   35.1210 H   0  0  0  0  0  0  0  0  0  0  0  0
   36.5210   26.7650   32.4690 C   0  0  0  0  0  0  0  0  0  0  0  0
   35.4920   26.7710   31.5260 C   0  0  0  0  0  0  0  0  0  0  0  0
   35.2420   25.5300   30.9160 C   0  0  0  0  0  0  0  0  0  0  0  0
   35.9780   24.4250   31.2530 N   0  0  0  0  0  0  0  0  0  0  0  0
   36.9720   24.4870   32.1860 C   0  0  0  0  0  0  0  0  0  0  0  0
   37.2220   25.6880   32.7830 N   0  0  0  0  0  0  0  0  0  0  0  0
   34.8950   27.6240   31.2390 H   0  0  0  0  0  0  0  0  0  0  0  0
   34.4540   25.4750   30.1770 H   0  0  0  0  0  0  0  0  0  0  0  0
   37.5460   23.6090   32.4440 H   0  0  0  0  0  0  0  0  0  0  0  0
   35.7840   30.2930   33.8840 C   0  0  0  0  0  0  0  0  0  0  0  0
   36.7880   30.6820   34.1490 H   0  0  0  0  0  0  0  0  0  0  0  0
   35.3780   30.7120   32.9500 H   0  0  0  0  0  0  0  0  0  0  0  0
   36.7250   31.9810   35.8440 F   0  0  0  0  0  0  0  0  0  0  0  0
   35.4350   31.5650   35.9260 C   0  0  0  0  0  0  0  0  0  0  0  0
   34.8520   30.7170   34.9940 C   0  0  0  0  0  0  0  0  0  0  0  0
   33.5340   30.3560   35.1700 C   0  0  0  0  0  0  0  0  0  0  0  0
   33.1510   29.6960   34.4060 H   0  0  0  0  0  0  0  0  0  0  0  0
   32.8410   30.8370   36.2470 C   0  0  0  0  0  0  0  0  0  0  0  0
   31.8060   30.5250   36.3450 H   0  0  0  0  0  0  0  0  0  0  0  0
   33.3860   31.6790   37.1920 C   0  0  0  0  0  3  0  0  0  0  0  0
   34.7020   32.0280   36.9990 C   0  0  0  0  0  3  0  0  0  0  0  0
  1  4  1  6  0  0  0
  1  2  1  0  0  0  0
  1  3  1  0  0  0  0
  2  5  1  6  0  0  0
  2 17  1  0  0  0  0
  2  3  1  0  0  0  0
  3  7  1  0  0  0  0
  3  6  1  0  0  0  0
  8 13  1  0  0  0  0
  8  1  1  0  0  0  0
  9  8  2  0  0  0  0
 10 11  2  0  0  0  0
 10  9  1  0  0  0  0
 11 12  1  0  0  0  0
 12 16  1  0  0  0  0
 12 13  2  0  0  0  0
 14  9  1  0  0  0  0
 15 10  1  0  0  0  0
 17 18  1  0  0  0  0
 17 22  1  0  0  0  0
 19 17  1  0  0  0  0
 20 21  1  0  0  0  0
 21 28  1  0  0  0  0
 22 23  1  0  0  0  0
 22 21  2  0  0  0  0
 23 25  2  0  0  0  0
 24 23  1  0  0  0  0
 25 26  1  0  0  0  0
 25 27  1  0  0  0  0
 28 27  2  0  0  0  0
M  END
>  <minimizedAffinity>
-5.06660891

$$$$

 OpenBabel03272501133D

 28 30  0  0  1  0  0  0  0  0999 V2000
   39.1590   25.3230   34.7780 C   0  0  1  0  0  0  0  0  0  0  0  0
   38.3630   26.5100   34.5440 C   0  0  1  0  0  0  0  0  0  0  0  0
   39.7760   26.7060   34.9750 C   0  0  0  0  0  0  0  0  0  0  0  0
   39.6410   24.7000   33.9950 H   0  0  0  0  0  0  0  0  0  0  0  0
   37.6160   26.7880   35.3400 H   0  0  0  0  0  0  0  0  0  0  0  0
   40.4840   26.9960   34.2000 H   0  0  0  0  0  0  0  0  0  0  0  0
   40.0200   27.0380   35.9930 H   0  0  0  0  0  0  0  0  0  0  0  0
   39.0490   24.5580   36.0760 C   0  0  0  0  0  0  0  0  0  0  0  0
   39.9700   23.5220   36.2440 C   0  0  0  0  0  0  0  0  0  0  0  0
   39.8370   22.8020   37.4430 C   0  0  0  0  0  0  0  0  0  0  0  0
   38.8640   23.1270   38.3500 N   0  0  0  0  0  0  0  0  0  0  0  0
   37.9940   24.1540   38.1240 C   0  0  0  0  0  0  0  0  0  0  0  0
   38.1150   24.8590   36.9630 N   0  0  0  0  0  0  0  0  0  0  0  0
   40.7480   23.2410   35.5490 H   0  0  0  0  0  0  0  0  0  0  0  0
   40.5240   21.9860   37.6260 H   0  0  0  0  0  0  0  0  0  0  0  0
   37.2290   24.4020   38.8460 H   0  0  0  0  0  0  0  0  0  0  0  0
   37.9420   26.7860   33.1100 C   0  0  0  0  0  0  0  0  0  0  0  0
   38.7880   27.1140   32.4730 H   0  0  0  0  0  0  0  0  0  0  0  0
   37.3750   25.9400   32.6920 H   0  0  0  0  0  0  0  0  0  0  0  0
   37.4600   28.2760   30.8460 F   0  0  0  0  0  0  0  0  0  0  0  0
   36.8240   28.6330   31.9910 C   0  0  0  0  0  0  0  0  0  0  0  0
   36.9870   27.9530   33.1910 C   0  0  0  0  0  0  0  0  0  0  0  0
   36.2940   28.3980   34.2950 C   0  0  0  0  0  0  0  0  0  0  0  0
   36.4720   27.8200   35.1900 H   0  0  0  0  0  0  0  0  0  0  0  0
   35.4720   29.4850   34.1830 C   0  0  0  0  0  0  0  0  0  0  0  0
   34.9460   29.8000   35.0790 H   0  0  0  0  0  0  0  0  0  0  0  0
   35.2840   30.1840   33.0100 C   0  0  0  0  0  3  0  0  0  0  0  0
   35.9850   29.7250   31.9190 C   0  0  0  0  0  3  0  0  0  0  0  0
  1  4  1  6  0  0  0
  1  3  1  0  0  0  0
  1  8  1  0  0  0  0
  2  1  1  0  0  0  0
  2  3  1  0  0  0  0
  2  5  1  1  0  0  0
  3  7  1  0  0  0  0
  6  3  1  0  0  0  0
  8  9  2  0  0  0  0
  8 13  1  0  0  0  0
  9 10  1  0  0  0  0
 10 15  1  0  0  0  0
 10 11  2  0  0  0  0
 12 11  1  0  0  0  0
 12 16  1  0  0  0  0
 13 12  2  0  0  0  0
 14  9  1  0  0  0  0
 17 22  1  0  0  0  0
 17  2  1  0  0  0  0
 18 17  1  0  0  0  0
 19 17  1  0  0  0  0
 20 21  1  0  0  0  0
 21 22  1  0  0  0  0
 22 23  2  0  0  0  0
 23 24  1  0  0  0  0
 25 23  1  0  0  0  0
 25 26  1  0  0  0  0
 27 25  2  0  0  0  0
 28 21  2  0  0  0  0
 28 27  1  0  0  0  0
M  END
>  <minimizedAffinity>
-4.84611416

$$$$

 OpenBabel03272501133D

 28 30  0  0  1  0  0  0  0  0999 V2000
   38.0210   26.4690   33.1310 C   0  0  1  0  0  0  0  0  0  0  0  0
   37.9000   25.4550   34.1570 C   0  0  1  0  0  0  0  0  0  0  0  0
   37.2490   25.1830   32.8440 C   0  0  0  0  0  0  0  0  0  0  0  0
   38.9100   26.6380   32.4870 H   0  0  0  0  0  0  0  0  0  0  0  0
   37.1610   25.6500   34.9840 H   0  0  0  0  0  0  0  0  0  0  0  0
   37.7640   24.4890   32.1810 H   0  0  0  0  0  0  0  0  0  0  0  0
   36.1580   25.2340   32.7280 H   0  0  0  0  0  0  0  0  0  0  0  0
   37.1240   27.6850   33.1310 C   0  0  0  0  0  0  0  0  0  0  0  0
   37.0720   28.3950   31.9300 C   0  0  0  0  0  0  0  0  0  0  0  0
   36.2560   29.5380   31.9550 C   0  0  0  0  0  0  0  0  0  0  0  0
   35.5790   29.8900   33.0930 N   0  0  0  0  0  0  0  0  0  0  0  0
   35.6730   29.1500   34.2360 C   0  0  0  0  0  0  0  0  0  0  0  0
   36.4640   28.0380   34.2220 N   0  0  0  0  0  0  0  0  0  0  0  0
   37.5920   28.1430   31.0180 H   0  0  0  0  0  0  0  0  0  0  0  0
   36.1780   30.1290   31.0520 H   0  0  0  0  0  0  0  0  0  0  0  0
   35.1360   29.4370   35.1280 H   0  0  0  0  0  0  0  0  0  0  0  0
   39.1720   24.7260   34.5600 C   0  0  0  0  0  0  0  0  0  0  0  0
   39.3270   23.7900   33.9840 H   0  0  0  0  0  0  0  0  0  0  0  0
   40.0390   25.4030   34.5460 H   0  0  0  0  0  0  0  0  0  0  0  0
   40.7890   22.7810   35.6450 F   0  0  0  0  0  0  0  0  0  0  0  0
   39.8300   23.3260   36.4360 C   0  0  0  0  0  0  0  0  0  0  0  0
   38.9600   24.3170   35.9970 C   0  0  0  0  0  0  0  0  0  0  0  0
   38.0230   24.8030   36.8820 C   0  0  0  0  0  0  0  0  0  0  0  0
   37.3840   25.5700   36.4690 H   0  0  0  0  0  0  0  0  0  0  0  0
   37.9730   24.3050   38.1550 C   0  0  0  0  0  0  0  0  0  0  0  0
   37.2180   24.7190   38.8160 H   0  0  0  0  0  0  0  0  0  0  0  0
   38.8190   23.3240   38.6250 C   0  0  0  0  0  3  0  0  0  0  0  0
   39.7480   22.8500   37.7270 C   0  0  0  0  0  3  0  0  0  0  0  0
  1  4  1  6  0  0  0
  1  8  1  0  0  0  0
  1  2  1  0  0  0  0
  2 17  1  0  0  0  0
  2  5  1  1  0  0  0
  3  1  1  0  0  0  0
  3  2  1  0  0  0  0
  6  3  1  0  0  0  0
  7  3  1  0  0  0  0
  8 13  1  0  0  0  0
  9 10  1  0  0  0  0
  9  8  2  0  0  0  0
 10 11  2  0  0  0  0
 11 12  1  0  0  0  0
 12 16  1  0  0  0  0
 13 12  2  0  0  0  0
 14  9  1  0  0  0  0
 15 10  1  0  0  0  0
 17 22  1  0  0  0  0
 18 17  1  0  0  0  0
 19 17  1  0  0  0  0
 20 21  1  0  0  0  0
 21 28  1  0  0  0  0
 22 21  2  0  0  0  0
 22 23  1  0  0  0  0
 23 25  2  0  0  0  0
 24 23  1  0  0  0  0
 25 27  1  0  0  0  0
 25 26  1  0  0  0  0
 28 27  2  0  0  0  0
M  END
>  <minimizedAffinity>
-4.74409008

$$$$

 OpenBabel03272501133D

 28 30  0  0  1  0  0  0  0  0999 V2000
   36.6930   25.3870   31.4010 C   0  0  1  0  0  0  0  0  0  0  0  0
   36.2550   24.0310   31.6560 C   0  0  1  0  0  0  0  0  0  0  0  0
   35.2830   24.9540   31.0040 C   0  0  0  0  0  0  0  0  0  0  0  0
   37.3390   25.7140   30.5590 H   0  0  0  0  0  0  0  0  0  0  0  0
   35.9770   23.7750   32.7160 H   0  0  0  0  0  0  0  0  0  0  0  0
   35.1370   24.8290   29.9320 H   0  0  0  0  0  0  0  0  0  0  0  0
   34.4270   25.3630   31.5570 H   0  0  0  0  0  0  0  0  0  0  0  0
   36.6820   26.4260   32.4990 C   0  0  0  0  0  0  0  0  0  0  0  0
   37.1940   26.0070   33.7290 C   0  0  0  0  0  0  0  0  0  0  0  0
   37.1520   26.9750   34.7460 C   0  0  0  0  0  0  0  0  0  0  0  0
   36.6380   28.2220   34.5040 N   0  0  0  0  0  0  0  0  0  0  0  0
   36.1520   28.5670   33.2770 C   0  0  0  0  0  0  0  0  0  0  0  0
   36.1900   27.6340   32.2820 N   0  0  0  0  0  0  0  0  0  0  0  0
   37.6050   25.0330   33.9500 H   0  0  0  0  0  0  0  0  0  0  0  0
   37.5340   26.7060   35.7220 H   0  0  0  0  0  0  0  0  0  0  0  0
   35.7490   29.5530   33.0970 H   0  0  0  0  0  0  0  0  0  0  0  0
   36.9320   22.9270   30.8590 C   0  0  0  0  0  0  0  0  0  0  0  0
   36.7250   22.9970   29.7720 H   0  0  0  0  0  0  0  0  0  0  0  0
   38.0030   22.8610   31.1030 H   0  0  0  0  0  0  0  0  0  0  0  0
   37.7390   20.5440   29.7420 F   0  0  0  0  0  0  0  0  0  0  0  0
   36.7780   20.5060   30.7000 C   0  0  0  0  0  0  0  0  0  0  0  0
   36.2960   21.6430   31.3360 C   0  0  0  0  0  0  0  0  0  0  0  0
   35.3200   21.4930   32.2960 C   0  0  0  0  0  0  0  0  0  0  0  0
   34.9970   22.4200   32.7450 H   0  0  0  0  0  0  0  0  0  0  0  0
   34.8550   20.2420   32.5960 C   0  0  0  0  0  0  0  0  0  0  0  0
   34.0860   20.1730   33.3590 H   0  0  0  0  0  0  0  0  0  0  0  0
   35.3090   19.0920   31.9880 C   0  0  0  0  0  3  0  0  0  0  0  0
   36.2830   19.2620   31.0310 C   0  0  0  0  0  3  0  0  0  0  0  0
  1  4  1  6  0  0  0
  1  2  1  0  0  0  0
  1  8  1  0  0  0  0
  2  5  1  1  0  0  0
  3  1  1  0  0  0  0
  3  7  1  0  0  0  0
  3  2  1  0  0  0  0
  6  3  1  0  0  0  0
  8  9  1  0  0  0  0
  9 14  1  0  0  0  0
  9 10  2  0  0  0  0
 10 15  1  0  0  0  0
 11 10  1  0  0  0  0
 12 11  2  0  0  0  0
 13  8  2  0  0  0  0
 13 12  1  0  0  0  0
 16 12  1  0  0  0  0
 17 19  1  0  0  0  0
 17 22  1  0  0  0  0
 17  2  1  0  0  0  0
 18 17  1  0  0  0  0
 20 21  1  0  0  0  0
 21 28  2  0  0  0  0
 21 22  1  0  0  0  0
 22 23  2  0  0  0  0
 23 25  1  0  0  0  0
 23 24  1  0  0  0  0
 25 26  1  0  0  0  0
 27 25  2  0  0  0  0
 28 27  1  0  0  0  0
M  END
>  <minimizedAffinity>
-4.69202185

$$$$

 OpenBabel03272501133D

 28 30  0  0  1  0  0  0  0  0999 V2000
   35.6290   30.2660   33.0840 C   0  0  1  0  0  0  0  0  0  0  0  0
   35.4800   28.8670   33.4260 C   0  0  1  0  0  0  0  0  0  0  0  0
   34.3380   29.5280   32.7330 C   0  0  0  0  0  0  0  0  0  0  0  0
   36.1930   30.6670   32.2160 H   0  0  0  0  0  0  0  0  0  0  0  0
   35.2620   28.6250   34.5040 H   0  0  0  0  0  0  0  0  0  0  0  0
   34.2210   29.3090   31.6730 H   0  0  0  0  0  0  0  0  0  0  0  0
   33.4160   29.7850   33.2720 H   0  0  0  0  0  0  0  0  0  0  0  0
   35.4040   31.3460   34.1180 C   0  0  0  0  0  0  0  0  0  0  0  0
   35.7340   31.0010   35.4300 C   0  0  0  0  0  0  0  0  0  0  0  0
   35.4930   32.0050   36.3830 C   0  0  0  0  0  0  0  0  0  0  0  0
   34.9740   33.2160   36.0060 N   0  0  0  0  0  0  0  0  0  0  0  0
   34.6730   33.4890   34.7040 C   0  0  0  0  0  0  0  0  0  0  0  0
   34.9040   32.5200   33.7720 N   0  0  0  0  0  0  0  0  0  0  0  0
   36.1440   30.0570   35.7580 H   0  0  0  0  0  0  0  0  0  0  0  0
   35.7290   31.7930   37.4170 H   0  0  0  0  0  0  0  0  0  0  0  0
   34.2650   34.4470   34.4180 H   0  0  0  0  0  0  0  0  0  0  0  0
   36.3700   27.8800   32.6880 C   0  0  0  0  0  0  0  0  0  0  0  0
   35.8530   26.9240   32.4660 H   0  0  0  0  0  0  0  0  0  0  0  0
   36.8370   28.3460   31.8070 H   0  0  0  0  0  0  0  0  0  0  0  0
   38.8260   27.1480   31.6830 F   0  0  0  0  0  0  0  0  0  0  0  0
   38.6770   27.1920   33.0320 C   0  0  0  0  0  0  0  0  0  0  0  0
   37.4860   27.5510   33.6510 C   0  0  0  0  0  0  0  0  0  0  0  0
   37.4420   27.5650   35.0270 C   0  0  0  0  0  0  0  0  0  0  0  0
   36.4840   27.8530   35.4350 H   0  0  0  0  0  0  0  0  0  0  0  0
   38.5590   27.2280   35.7420 C   0  0  0  0  0  0  0  0  0  0  0  0
   38.4760   27.2530   36.8240 H   0  0  0  0  0  0  0  0  0  0  0  0
   39.7560   26.8680   35.1640 C   0  0  0  0  0  3  0  0  0  0  0  0
   39.7810   26.8600   33.7880 C   0  0  0  0  0  3  0  0  0  0  0  0
  1  4  1  6  0  0  0
  1  2  1  0  0  0  0
  1  8  1  0  0  0  0
  2  5  1  1  0  0  0
  3  1  1  0  0  0  0
  3  7  1  0  0  0  0
  3  2  1  0  0  0  0
  6  3  1  0  0  0  0
  8  9  1  0  0  0  0
  9 14  1  0  0  0  0
  9 10  2  0  0  0  0
 10 15  1  0  0  0  0
 11 10  1  0  0  0  0
 12 11  2  0  0  0  0
 13  8  2  0  0  0  0
 13 12  1  0  0  0  0
 16 12  1  0  0  0  0
 17  2  1  0  0  0  0
 17 22  1  0  0  0  0
 18 17  1  0  0  0  0
 19 17  1  0  0  0  0
 20 21  1  0  0  0  0
 21 22  2  0  0  0  0
 21 28  1  0  0  0  0
 22 23  1  0  0  0  0
 23 24  1  0  0  0  0
 23 25  2  0  0  0  0
 25 26  1  0  0  0  0
 27 25  1  0  0  0  0
 28 27  2  0  0  0  0
M  END
>  <minimizedAffinity>
-4.69171143

$$$$

 OpenBabel03272501133D

 28 30  0  0  1  0  0  0  0  0999 V2000
   35.7940   29.3920   34.0610 C   0  0  1  0  0  0  0  0  0  0  0  0
   35.5890   30.7530   34.5110 C   0  0  1  0  0  0  0  0  0  0  0  0
   34.3770   29.9180   34.2790 C   0  0  0  0  0  0  0  0  0  0  0  0
   36.0810   28.5320   34.7020 H   0  0  0  0  0  0  0  0  0  0  0  0
   35.7160   31.5680   33.7450 H   0  0  0  0  0  0  0  0  0  0  0  0
   33.8830   29.5220   35.1660 H   0  0  0  0  0  0  0  0  0  0  0  0
   33.7310   30.0800   33.4070 H   0  0  0  0  0  0  0  0  0  0  0  0
   36.0710   29.0880   32.6070 C   0  0  0  0  0  0  0  0  0  0  0  0
   36.1160   27.7340   32.2730 C   0  0  0  0  0  0  0  0  0  0  0  0
   36.4020   27.4670   30.9230 C   0  0  0  0  0  0  0  0  0  0  0  0
   36.6140   28.4910   30.0380 N   0  0  0  0  0  0  0  0  0  0  0  0
   36.5560   29.7970   30.4310 C   0  0  0  0  0  0  0  0  0  0  0  0
   36.2780   30.0650   31.7390 N   0  0  0  0  0  0  0  0  0  0  0  0
   35.9530   26.9050   32.9460 H   0  0  0  0  0  0  0  0  0  0  0  0
   36.4510   26.4340   30.6070 H   0  0  0  0  0  0  0  0  0  0  0  0
   36.7250   30.5960   29.7240 H   0  0  0  0  0  0  0  0  0  0  0  0
   36.0440   31.0880   35.9220 C   0  0  0  0  0  0  0  0  0  0  0  0
   35.5280   30.4800   36.6930 H   0  0  0  0  0  0  0  0  0  0  0  0
   37.1420   31.0650   36.0020 H   0  0  0  0  0  0  0  0  0  0  0  0
   33.8750   31.5970   37.5390 F   0  0  0  0  0  0  0  0  0  0  0  0
   34.5140   32.6550   36.9780 C   0  0  0  0  0  0  0  0  0  0  0  0
   35.6210   32.5200   36.1490 C   0  0  0  0  0  0  0  0  0  0  0  0
   36.1950   33.6590   35.6320 C   0  0  0  0  0  0  0  0  0  0  0  0
   37.0490   33.4740   34.9970 H   0  0  0  0  0  0  0  0  0  0  0  0
   35.6680   34.8820   35.9440 C   0  0  0  0  0  0  0  0  0  0  0  0
   36.1540   35.7520   35.5120 H   0  0  0  0  0  0  0  0  0  0  0  0
   34.5730   35.0560   36.7610 C   0  0  0  0  0  3  0  0  0  0  0  0
   34.0130   33.9070   37.2680 C   0  0  0  0  0  3  0  0  0  0  0  0
  1  3  1  0  0  0  0
  1  2  1  0  0  0  0
  1  4  1  1  0  0  0
  2  5  1  6  0  0  0
  2 17  1  0  0  0  0
  3  2  1  0  0  0  0
  3  6  1  0  0  0  0
  7  3  1  0  0  0  0
  8  1  1  0  0  0  0
  9  8  1  0  0  0  0
  9 14  1  0  0  0  0
 10  9  2  0  0  0  0
 11 12  2  0  0  0  0
 11 10  1  0  0  0  0
 12 13  1  0  0  0  0
 13  8  2  0  0  0  0
 15 10  1  0  0  0  0
 16 12  1  0  0  0  0
 17 19  1  0  0  0  0
 17 22  1  0  0  0  0
 17 18  1  0  0  0  0
 21 28  1  0  0  0  0
 21 20  1  0  0  0  0
 22 21  2  0  0  0  0
 23 25  2  0  0  0  0
 23 22  1  0  0  0  0
 24 23  1  0  0  0  0
 25 27  1  0  0  0  0
 26 25  1  0  0  0  0
 27 28  2  0  0  0  0
M  END
>  <minimizedAffinity>
-4.62658024

$$$$

 OpenBabel03272501133D

 28 30  0  0  1  0  0  0  0  0999 V2000
   39.5670   25.2340   34.6200 C   0  0  1  0  0  0  0  0  0  0  0  0
   38.6250   26.1790   34.0590 C   0  0  1  0  0  0  0  0  0  0  0  0
   39.7590   26.7310   34.8550 C   0  0  0  0  0  0  0  0  0  0  0  0
   40.3920   24.7350   34.0690 H   0  0  0  0  0  0  0  0  0  0  0  0
   37.6320   26.2800   34.5800 H   0  0  0  0  0  0  0  0  0  0  0  0
   40.5790   27.1720   34.2900 H   0  0  0  0  0  0  0  0  0  0  0  0
   39.6040   27.1340   35.8640 H   0  0  0  0  0  0  0  0  0  0  0  0
   39.2560   24.4920   35.8990 C   0  0  0  0  0  0  0  0  0  0  0  0
   40.1680   23.4970   36.2560 C   0  0  0  0  0  0  0  0  0  0  0  0
   39.8490   22.7980   37.4320 C   0  0  0  0  0  0  0  0  0  0  0  0
   38.7180   23.1030   38.1420 N   0  0  0  0  0  0  0  0  0  0  0  0
   37.8670   24.0900   37.7380 C   0  0  0  0  0  0  0  0  0  0  0  0
   38.1680   24.7750   36.5970 N   0  0  0  0  0  0  0  0  0  0  0  0
   41.0670   23.2330   35.7170 H   0  0  0  0  0  0  0  0  0  0  0  0
   40.5210   22.0140   37.7560 H   0  0  0  0  0  0  0  0  0  0  0  0
   36.9780   24.3230   38.3060 H   0  0  0  0  0  0  0  0  0  0  0  0
   38.6010   26.3130   32.5460 C   0  0  0  0  0  0  0  0  0  0  0  0
   38.1760   27.2810   32.2090 H   0  0  0  0  0  0  0  0  0  0  0  0
   39.5860   26.0870   32.1100 H   0  0  0  0  0  0  0  0  0  0  0  0
   36.0210   27.0060   31.8800 F   0  0  0  0  0  0  0  0  0  0  0  0
   36.3810   25.7030   31.7610 C   0  0  0  0  0  0  0  0  0  0  0  0
   37.6550   25.2380   32.0650 C   0  0  0  0  0  0  0  0  0  0  0  0
   37.9170   23.8950   31.9090 C   0  0  0  0  0  0  0  0  0  0  0  0
   38.9270   23.6100   32.1640 H   0  0  0  0  0  0  0  0  0  0  0  0
   36.9280   23.0620   31.4640 C   0  0  0  0  0  0  0  0  0  0  0  0
   37.1800   22.0110   31.3570 H   0  0  0  0  0  0  0  0  0  0  0  0
   35.6540   23.4850   31.1540 C   0  0  0  0  0  3  0  0  0  0  0  0
   35.4110   24.8300   31.3160 C   0  0  0  0  0  3  0  0  0  0  0  0
  1  4  1  6  0  0  0
  1  3  1  0  0  0  0
  1  8  1  0  0  0  0
  2  5  1  1  0  0  0
  2  1  1  0  0  0  0
  2  3  1  0  0  0  0
  3  7  1  0  0  0  0
  6  3  1  0  0  0  0
  8  9  2  0  0  0  0
  8 13  1  0  0  0  0
  9 10  1  0  0  0  0
 10 15  1  0  0  0  0
 10 11  2  0  0  0  0
 12 11  1  0  0  0  0
 12 16  1  0  0  0  0
 13 12  2  0  0  0  0
 14  9  1  0  0  0  0
 17  2  1  0  0  0  0
 18 17  1  0  0  0  0
 19 17  1  0  0  0  0
 21 20  1  0  0  0  0
 21 22  1  0  0  0  0
 22 17  1  0  0  0  0
 23 22  2  0  0  0  0
 23 24  1  0  0  0  0
 25 23  1  0  0  0  0
 26 25  1  0  0  0  0
 27 28  1  0  0  0  0
 27 25  2  0  0  0  0
 28 21  2  0  0  0  0
M  END
>  <minimizedAffinity>
-4.57329226

$$$$

 OpenBabel03272501133D

 28 30  0  0  1  0  0  0  0  0999 V2000
   39.8690   25.3340   34.4070 C   0  0  1  0  0  0  0  0  0  0  0  0
   39.1760   26.5280   33.9710 C   0  0  1  0  0  0  0  0  0  0  0  0
   40.3940   26.7110   34.8100 C   0  0  0  0  0  0  0  0  0  0  0  0
   40.5670   24.7270   33.7920 H   0  0  0  0  0  0  0  0  0  0  0  0
   38.2240   26.7920   34.5110 H   0  0  0  0  0  0  0  0  0  0  0  0
   41.3010   27.0150   34.2900 H   0  0  0  0  0  0  0  0  0  0  0  0
   40.3210   27.0190   35.8620 H   0  0  0  0  0  0  0  0  0  0  0  0
   39.3780   24.5410   35.5950 C   0  0  0  0  0  0  0  0  0  0  0  0
   38.1060   24.8800   36.0620 C   0  0  0  0  0  0  0  0  0  0  0  0
   37.6750   24.1530   37.1840 C   0  0  0  0  0  0  0  0  0  0  0  0
   38.4760   23.1930   37.7450 N   0  0  0  0  0  0  0  0  0  0  0  0
   39.7110   22.9100   37.2390 C   0  0  0  0  0  0  0  0  0  0  0  0
   40.1380   23.6100   36.1490 N   0  0  0  0  0  0  0  0  0  0  0  0
   37.4520   25.6310   35.6420 H   0  0  0  0  0  0  0  0  0  0  0  0
   36.6970   24.3750   37.5900 H   0  0  0  0  0  0  0  0  0  0  0  0
   40.3340   22.1510   37.6890 H   0  0  0  0  0  0  0  0  0  0  0  0
   39.2050   26.8370   32.4830 C   0  0  0  0  0  0  0  0  0  0  0  0
   39.2270   27.9260   32.2740 H   0  0  0  0  0  0  0  0  0  0  0  0
   40.0010   26.2720   31.9750 H   0  0  0  0  0  0  0  0  0  0  0  0
   37.0590   28.5550   32.3300 F   0  0  0  0  0  0  0  0  0  0  0  0
   36.8810   27.2750   31.9150 C   0  0  0  0  0  0  0  0  0  0  0  0
   37.8920   26.3220   31.9420 C   0  0  0  0  0  0  0  0  0  0  0  0
   37.6060   25.0510   31.4970 C   0  0  0  0  0  0  0  0  0  0  0  0
   38.4410   24.3670   31.5490 H   0  0  0  0  0  0  0  0  0  0  0  0
   36.3490   24.7610   31.0440 C   0  0  0  0  0  0  0  0  0  0  0  0
   36.1700   23.7460   30.7030 H   0  0  0  0  0  0  0  0  0  0  0  0
   35.3220   25.6780   31.0010 C   0  0  0  0  0  3  0  0  0  0  0  0
   35.6260   26.9420   31.4500 C   0  0  0  0  0  3  0  0  0  0  0  0
  1  4  1  6  0  0  0
  1  3  1  0  0  0  0
  1  8  1  0  0  0  0
  2  1  1  0  0  0  0
  2  5  1  1  0  0  0
  2  3  1  0  0  0  0
  3  7  1  0  0  0  0
  6  3  1  0  0  0  0
  8  9  2  0  0  0  0
  8 13  1  0  0  0  0
  9 10  1  0  0  0  0
 10 15  1  0  0  0  0
 10 11  2  0  0  0  0
 12 16  1  0  0  0  0
 12 11  1  0  0  0  0
 13 12  2  0  0  0  0
 14  9  1  0  0  0  0
 17  2  1  0  0  0  0
 18 17  1  0  0  0  0
 19 17  1  0  0  0  0
 21 22  1  0  0  0  0
 21 20  1  0  0  0  0
 22 17  1  0  0  0  0
 23 24  1  0  0  0  0
 23 22  2  0  0  0  0
 25 23  1  0  0  0  0
 26 25  1  0  0  0  0
 27 25  2  0  0  0  0
 27 28  1  0  0  0  0
 28 21  2  0  0  0  0
M  END
>  <minimizedAffinity>
-4.55693579

$$$$
