
 OpenBabel03272510303D

 28 30  0  0  0  0  0  0  0  0999 V2000
   37.2260   31.3610   49.2980 C   0  0  0  0  0  0  0  0  0  0  0  0
   37.4440   32.6610   49.7650 C   0  0  0  0  0  0  0  0  0  0  0  0
   38.3560   33.4000   49.0620 C   0  0  0  0  0  0  0  0  0  0  0  0
   38.9950   32.8630   47.9690 N   0  0  0  0  0  0  0  0  0  0  0  0
   38.7480   31.5970   47.5550 C   0  0  0  0  0  0  0  0  0  0  0  0
   37.8420   30.8160   48.2290 N   0  0  0  0  0  0  0  0  0  0  0  0
   36.9150   33.0120   50.6150 H   0  0  0  0  0  0  0  0  0  0  0  0
   38.5860   34.4220   49.3600 H   0  0  0  0  0  0  0  0  0  0  0  0
   36.2100   30.5130   50.0190 C   0  0  0  0  0  0  0  0  0  0  0  0
   36.1560   29.0780   49.9080 C   0  0  0  0  0  0  0  0  0  0  0  0
   36.8400   29.6630   51.1310 C   0  0  0  0  0  0  0  0  0  0  0  0
   35.3310   31.1200   50.3320 H   0  0  0  0  0  0  0  0  0  0  0  0
   35.1750   28.5800   50.0430 H   0  0  0  0  0  0  0  0  0  0  0  0
   36.8420   28.5130   49.2510 H   0  0  0  0  0  0  0  0  0  0  0  0
   37.9350   29.6150   51.2090 H   0  0  0  0  0  0  0  0  0  0  0  0
   36.2340   29.6160   52.0400 H   0  0  0  0  0  0  0  0  0  0  0  0
   39.4000   31.0140   46.3890 C   0  0  0  0  0  0  0  0  0  0  0  0
   39.1000   29.9340   46.2690 H   0  0  0  0  0  0  0  0  0  0  0  0
   40.5110   30.9640   46.4770 H   0  0  0  0  0  0  0  0  0  0  0  0
   41.1690   32.5950   44.7860 F   0  0  0  0  0  0  0  0  0  0  0  0
   39.8960   32.4600   44.3470 C   0  0  0  0  0  0  0  0  0  0  0  0
   39.0470   31.7010   45.1190 C   0  0  0  0  0  0  0  0  0  0  0  0
   37.7330   31.5670   44.6570 C   0  0  0  0  0  0  0  0  0  0  0  0
   37.0230   30.9680   45.2460 H   0  0  0  0  0  0  0  0  0  0  0  0
   37.2570   32.1380   43.5080 C   0  0  0  0  0  0  0  0  0  0  0  0
   36.2290   31.9940   43.2100 H   0  0  0  0  0  0  0  0  0  0  0  0
   38.1220   32.9070   42.7300 C   0  0  0  0  0  3  0  0  0  0  0  0
   39.4090   33.0340   43.1870 C   0  0  0  0  0  3  0  0  0  0  0  0
  1  2  1  0  0  0  0
  1  9  1  0  0  0  0
  2  7  1  0  0  0  0
  3  8  1  0  0  0  0
  3  2  2  0  0  0  0
  4  3  1  0  0  0  0
  5  4  2  0  0  0  0
  5  6  1  0  0  0  0
  6  1  2  0  0  0  0
  9 12  1  0  0  0  0
  9 11  1  0  0  0  0
 10  9  1  0  0  0  0
 10 13  1  0  0  0  0
 10 11  1  0  0  0  0
 11 15  1  0  0  0  0
 11 16  1  0  0  0  0
 14 10  1  0  0  0  0
 17 19  1  0  0  0  0
 17  5  1  0  0  0  0
 18 17  1  0  0  0  0
 21 20  1  0  0  0  0
 21 22  1  0  0  0  0
 22 17  1  0  0  0  0
 23 22  2  0  0  0  0
 23 24  1  0  0  0  0
 25 23  1  0  0  0  0
 26 25  1  0  0  0  0
 27 28  1  0  0  0  0
 27 25  2  0  0  0  0
 28 21  2  0  0  0  0
M  END
>  <minimizedAffinity>
-5.7542243

>  <minimizedRMSD>
1.12221718

$$$$
