
 OpenBabel03272510303D

 28 30  0  0  0  0  0  0  0  0999 V2000
   37.2140   31.3330   49.1500 C   0  0  0  0  0  0  0  0  0  0  0  0
   37.4080   32.5800   49.7510 C   0  0  0  0  0  0  0  0  0  0  0  0
   38.3570   33.3780   49.1720 C   0  0  0  0  0  0  0  0  0  0  0  0
   39.0530   32.9450   48.0680 N   0  0  0  0  0  0  0  0  0  0  0  0
   38.8270   31.7270   47.5210 C   0  0  0  0  0  0  0  0  0  0  0  0
   37.8860   30.8900   48.0680 N   0  0  0  0  0  0  0  0  0  0  0  0
   36.8340   32.8510   50.6020 H   0  0  0  0  0  0  0  0  0  0  0  0
   38.5710   34.3660   49.5800 H   0  0  0  0  0  0  0  0  0  0  0  0
   36.1600   30.4260   49.7310 C   0  0  0  0  0  0  0  0  0  0  0  0
   36.1710   28.9950   49.5660 C   0  0  0  0  0  0  0  0  0  0  0  0
   36.7020   29.5550   50.8740 C   0  0  0  0  0  0  0  0  0  0  0  0
   35.2320   30.9910   49.9710 H   0  0  0  0  0  0  0  0  0  0  0  0
   35.1990   28.4600   49.5800 H   0  0  0  0  0  0  0  0  0  0  0  0
   36.9410   28.4780   48.9650 H   0  0  0  0  0  0  0  0  0  0  0  0
   37.7840   29.5400   51.0640 H   0  0  0  0  0  0  0  0  0  0  0  0
   36.0080   29.4540   51.7120 H   0  0  0  0  0  0  0  0  0  0  0  0
   39.5400   31.2550   46.3410 C   0  0  0  0  0  0  0  0  0  0  0  0
   39.9330   30.2110   46.5100 H   0  0  0  0  0  0  0  0  0  0  0  0
   40.4600   31.8410   46.1110 H   0  0  0  0  0  0  0  0  0  0  0  0
   39.2050   28.9870   44.6270 F   0  0  0  0  0  0  0  0  0  0  0  0
   38.5230   30.1110   44.3020 C   0  0  0  0  0  0  0  0  0  0  0  0
   38.6850   31.2000   45.1270 C   0  0  0  0  0  0  0  0  0  0  0  0
   37.9760   32.3570   44.7830 C   0  0  0  0  0  0  0  0  0  0  0  0
   38.0790   33.2490   45.4160 H   0  0  0  0  0  0  0  0  0  0  0  0
   37.1500   32.4600   43.6970 C   0  0  0  0  0  0  0  0  0  0  0  0
   36.6320   33.3840   43.4890 H   0  0  0  0  0  0  0  0  0  0  0  0
   36.9890   31.3520   42.8650 C   0  0  0  0  0  3  0  0  0  0  0  0
   37.6860   30.2220   43.2070 C   0  0  0  0  0  3  0  0  0  0  0  0
  1  9  1  0  0  0  0
  1  2  1  0  0  0  0
  2  7  1  0  0  0  0
  3  8  1  0  0  0  0
  3  2  2  0  0  0  0
  4  3  1  0  0  0  0
  5  6  1  0  0  0  0
  5  4  2  0  0  0  0
  6  1  2  0  0  0  0
  9 12  1  0  0  0  0
  9 11  1  0  0  0  0
 10 13  1  0  0  0  0
 10  9  1  0  0  0  0
 10 11  1  0  0  0  0
 11 15  1  0  0  0  0
 11 16  1  0  0  0  0
 14 10  1  0  0  0  0
 17 18  1  0  0  0  0
 17  5  1  0  0  0  0
 19 17  1  0  0  0  0
 21 20  1  0  0  0  0
 21 22  1  0  0  0  0
 22 17  1  0  0  0  0
 23 22  2  0  0  0  0
 23 24  1  0  0  0  0
 25 23  1  0  0  0  0
 26 25  1  0  0  0  0
 27 28  1  0  0  0  0
 27 25  2  0  0  0  0
 28 21  2  0  0  0  0
M  END
>  <minimizedAffinity>
-5.56950426

>  <minimizedRMSD>
0.581719935

$$$$
