
 OpenBabel03272501133D

 28 30  0  0  1  0  0  0  0  0999 V2000
   36.4450   30.6600   49.9280 C   0  0  1  0  0  0  0  0  0  0  0  0
   36.1260   29.2870   49.5980 C   0  0  1  0  0  0  0  0  0  0  0  0
   37.0670   29.5190   50.7300 C   0  0  0  0  0  0  0  0  0  0  0  0
   35.8050   31.3530   50.5140 H   0  0  0  0  0  0  0  0  0  0  0  0
   36.6290   28.8510   48.6890 H   0  0  0  0  0  0  0  0  0  0  0  0
   36.6580   29.4010   51.7330 H   0  0  0  0  0  0  0  0  0  0  0  0
   38.1420   29.3220   50.6270 H   0  0  0  0  0  0  0  0  0  0  0  0
   37.4780   31.4290   49.1370 C   0  0  0  0  0  0  0  0  0  0  0  0
   37.8180   32.6830   49.6490 C   0  0  0  0  0  0  0  0  0  0  0  0
   38.7580   33.3970   48.8880 C   0  0  0  0  0  0  0  0  0  0  0  0
   39.2760   32.8640   47.7370 N   0  0  0  0  0  0  0  0  0  0  0  0
   38.9000   31.6300   47.2910 C   0  0  0  0  0  0  0  0  0  0  0  0
   37.9880   30.9290   48.0240 N   0  0  0  0  0  0  0  0  0  0  0  0
   37.4280   33.1300   50.5520 H   0  0  0  0  0  0  0  0  0  0  0  0
   39.0580   34.3770   49.2360 H   0  0  0  0  0  0  0  0  0  0  0  0
   39.3150   31.2190   46.3820 H   0  0  0  0  0  0  0  0  0  0  0  0
   34.6990   28.8310   49.8540 C   0  0  0  0  0  0  0  0  0  0  0  0
   34.6450   27.9800   50.5640 H   0  0  0  0  0  0  0  0  0  0  0  0
   34.0540   29.6790   50.1290 H   0  0  0  0  0  0  0  0  0  0  0  0
   33.9890   30.6380   47.9030 F   0  0  0  0  0  0  0  0  0  0  0  0
   33.8690   29.3160   47.6210 C   0  0  0  0  0  0  0  0  0  0  0  0
   34.2000   28.3150   48.5250 C   0  0  0  0  0  0  0  0  0  0  0  0
   34.0410   27.0030   48.1380 C   0  0  0  0  0  0  0  0  0  0  0  0
   34.3190   26.2830   48.8930 H   0  0  0  0  0  0  0  0  0  0  0  0
   33.5660   26.7220   46.8870 C   0  0  0  0  0  0  0  0  0  0  0  0
   33.4560   25.6730   46.6260 H   0  0  0  0  0  0  0  0  0  0  0  0
   33.2270   27.6860   45.9630 C   0  0  0  0  0  0  0  0  0  0  0  0
   33.3920   28.9900   46.3680 C   0  0  0  0  0  0  0  0  0  0  0  0
  1  4  1  1  0  0  0
  1  3  1  0  0  0  0
  2  5  1  6  0  0  0
  2 17  1  0  0  0  0
  2  1  1  0  0  0  0
  2  3  1  0  0  0  0
  3  6  1  0  0  0  0
  7  3  1  0  0  0  0
  8  9  1  0  0  0  0
  8  1  1  0  0  0  0
  9 14  1  0  0  0  0
 10 15  1  0  0  0  0
 10  9  2  0  0  0  0
 11 10  1  0  0  0  0
 12 11  2  0  0  0  0
 12 13  1  0  0  0  0
 13  8  2  0  0  0  0
 16 12  1  0  0  0  0
 17 19  1  0  0  0  0
 17 18  1  0  0  0  0
 21 20  1  0  0  0  0
 21 22  1  0  0  0  0
 22 17  1  0  0  0  0
 23 22  2  0  0  0  0
 23 24  1  0  0  0  0
 25 23  1  0  0  0  0
 26 25  1  0  0  0  0
 27 28  1  0  0  0  0
 27 25  2  0  0  0  0
 28 21  2  0  0  0  0
M  END
>  <minimizedAffinity>
-5.6847229

>  <minimizedRMSD>
1.37151694

$$$$
