
 OpenBabel03272506323D

 40 42  0  0  1  0  0  0  0  0999 V2000
   38.2180   26.4300   35.3530 C   0  0  1  0  0  0  0  0  0  0  0  0
   39.5000   26.9120   34.8890 C   0  0  0  0  0  0  0  0  0  0  0  0
   39.7070   26.9690   33.3880 C   0  0  0  0  0  0  0  0  0  0  0  0
   38.5190   27.4010   32.5960 C   0  0  0  0  0  0  0  0  0  0  0  0
   37.1880   26.9440   33.0690 C   0  0  0  0  0  0  0  0  0  0  0  0
   37.0670   26.9910   34.5500 C   0  0  2  0  0  0  0  0  0  0  0  0
   38.0190   26.8550   36.3860 H   0  0  0  0  0  0  0  0  0  0  0  0
   40.4020   26.4840   35.3120 H   0  0  0  0  0  0  0  0  0  0  0  0
   39.5760   28.0060   35.1820 H   0  0  0  0  0  0  0  0  0  0  0  0
   40.0090   25.9390   33.0750 H   0  0  0  0  0  0  0  0  0  0  0  0
   40.5540   27.6320   33.1630 H   0  0  0  0  0  0  0  0  0  0  0  0
   38.5870   28.5150   32.4890 H   0  0  0  0  0  0  0  0  0  0  0  0
   38.6630   26.9990   31.5650 H   0  0  0  0  0  0  0  0  0  0  0  0
   36.4010   27.5680   32.6490 H   0  0  0  0  0  0  0  0  0  0  0  0
   37.0920   25.8690   32.7720 H   0  0  0  0  0  0  0  0  0  0  0  0
   36.0830   26.5950   34.8530 H   0  0  0  0  0  0  0  0  0  0  0  0
   38.3130   24.0040   34.5470 C   0  0  0  0  0  0  0  0  0  0  0  0
   38.0900   24.9770   35.5680 C   0  0  0  0  0  0  0  0  0  0  0  0
   37.7320   24.4650   36.8010 C   0  0  0  0  0  0  0  0  0  0  0  0
   37.6110   23.1070   36.9870 N   0  0  0  0  0  0  0  0  0  0  0  0
   37.8380   22.2400   35.9660 C   0  0  0  0  0  0  0  0  0  0  0  0
   38.1900   22.7010   34.7470 N   0  0  0  0  0  0  0  0  0  0  0  0
   38.5940   24.3860   33.5680 H   0  0  0  0  0  0  0  0  0  0  0  0
   37.5390   25.1040   37.6500 H   0  0  0  0  0  0  0  0  0  0  0  0
   37.7000   21.2190   36.2790 H   0  0  0  0  0  0  0  0  0  0  0  0
   37.0320   28.4920   34.9250 C   0  0  0  0  0  0  0  0  0  0  0  0
   37.9450   28.9840   34.5800 H   0  0  0  0  0  0  0  0  0  0  0  0
   36.9450   28.6490   35.9990 H   0  0  0  0  0  0  0  0  0  0  0  0
   35.8400   29.1570   34.2330 C   0  0  0  0  0  0  0  0  0  0  0  0
   35.0710   28.4030   33.9840 H   0  0  0  0  0  0  0  0  0  0  0  0
   36.1830   29.5750   33.2590 H   0  0  0  0  0  0  0  0  0  0  0  0
   33.0110   29.3710   34.4990 F   0  0  0  0  0  0  0  0  0  0  0  0
   33.8380   30.2550   35.1060 C   0  0  0  0  0  0  0  0  0  0  0  0
   35.2140   30.2160   35.0260 C   0  0  0  0  0  0  0  0  0  0  0  0
   35.9120   31.2070   35.7150 C   0  0  0  0  0  0  0  0  0  0  0  0
   37.0000   31.1500   35.6330 H   0  0  0  0  0  0  0  0  0  0  0  0
   35.3040   32.2060   36.4620 C   0  0  0  0  0  0  0  0  0  0  0  0
   35.9340   32.9410   36.9680 H   0  0  0  0  0  0  0  0  0  0  0  0
   33.9040   32.1950   36.5070 C   0  0  0  0  0  3  0  0  0  0  0  0
   33.1910   31.2290   35.8370 C   0  0  0  0  0  3  0  0  0  0  0  0
  1 18  1  0  0  0  0
  1  7  1  1  0  0  0
  2  9  1  0  0  0  0
  2  8  1  0  0  0  0
  2  1  1  0  0  0  0
  3  2  1  0  0  0  0
  4  5  1  0  0  0  0
  4  3  1  0  0  0  0
  5  6  1  0  0  0  0
  6 16  1  1  0  0  0
  6 26  1  0  0  0  0
  6  1  1  0  0  0  0
 10  3  1  0  0  0  0
 11  3  1  0  0  0  0
 12  4  1  0  0  0  0
 13  4  1  0  0  0  0
 14  5  1  0  0  0  0
 15  5  1  0  0  0  0
 17 22  2  0  0  0  0
 17 18  1  0  0  0  0
 18 19  2  0  0  0  0
 19 20  1  0  0  0  0
 19 24  1  0  0  0  0
 21 25  1  0  0  0  0
 21 20  2  0  0  0  0
 22 21  1  0  0  0  0
 23 17  1  0  0  0  0
 26 28  1  0  0  0  0
 27 26  1  0  0  0  0
 29 26  1  0  0  0  0
 29 34  1  0  0  0  0
 30 29  1  0  0  0  0
 31 29  1  0  0  0  0
 32 33  1  0  0  0  0
 33 40  1  0  0  0  0
 34 33  2  0  0  0  0
 34 35  1  0  0  0  0
 35 37  2  0  0  0  0
 36 35  1  0  0  0  0
 37 39  1  0  0  0  0
 37 38  1  0  0  0  0
 40 39  2  0  0  0  0
M  END
>  <minimizedAffinity>
-5.78018236

$$$$

 OpenBabel03272506323D

 40 42  0  0  1  0  0  0  0  0999 V2000
   37.2820   26.9070   33.5630 C   0  0  1  0  0  0  0  0  0  0  0  0
   38.3840   26.6480   32.6640 C   0  0  0  0  0  0  0  0  0  0  0  0
   39.7580   27.1030   33.1180 C   0  0  0  0  0  0  0  0  0  0  0  0
   40.0420   26.9230   34.5710 C   0  0  0  0  0  0  0  0  0  0  0  0
   38.9180   27.1530   35.5130 C   0  0  0  0  0  0  0  0  0  0  0  0
   37.6320   26.6110   35.0040 C   0  0  2  0  0  0  0  0  0  0  0  0
   36.4570   26.1560   33.3570 H   0  0  0  0  0  0  0  0  0  0  0  0
   38.2880   26.9390   31.6240 H   0  0  0  0  0  0  0  0  0  0  0  0
   38.5130   25.5230   32.6030 H   0  0  0  0  0  0  0  0  0  0  0  0
   39.8310   28.1870   32.8560 H   0  0  0  0  0  0  0  0  0  0  0  0
   40.5260   26.5800   32.5310 H   0  0  0  0  0  0  0  0  0  0  0  0
   40.5100   25.9110   34.6880 H   0  0  0  0  0  0  0  0  0  0  0  0
   40.8470   27.6510   34.8280 H   0  0  0  0  0  0  0  0  0  0  0  0
   39.1240   26.6820   36.4720 H   0  0  0  0  0  0  0  0  0  0  0  0
   38.7900   28.2630   35.5970 H   0  0  0  0  0  0  0  0  0  0  0  0
   36.8220   26.8520   35.7140 H   0  0  0  0  0  0  0  0  0  0  0  0
   35.9360   28.8760   34.4900 C   0  0  0  0  0  0  0  0  0  0  0  0
   36.5890   28.2010   33.4140 C   0  0  0  0  0  0  0  0  0  0  0  0
   36.5260   28.8430   32.1920 C   0  0  0  0  0  0  0  0  0  0  0  0
   35.8710   30.0460   32.0660 N   0  0  0  0  0  0  0  0  0  0  0  0
   35.2720   30.6300   33.1360 C   0  0  0  0  0  0  0  0  0  0  0  0
   35.3110   30.0340   34.3470 N   0  0  0  0  0  0  0  0  0  0  0  0
   35.9730   28.3870   35.4610 H   0  0  0  0  0  0  0  0  0  0  0  0
   36.9830   28.4280   31.3060 H   0  0  0  0  0  0  0  0  0  0  0  0
   34.8060   31.5630   32.8660 H   0  0  0  0  0  0  0  0  0  0  0  0
   37.7700   25.0710   35.0570 C   0  0  0  0  0  0  0  0  0  0  0  0
   38.5140   24.7390   34.3270 H   0  0  0  0  0  0  0  0  0  0  0  0
   36.8320   24.5620   34.8420 H   0  0  0  0  0  0  0  0  0  0  0  0
   38.2480   24.6550   36.4490 C   0  0  0  0  0  0  0  0  0  0  0  0
   37.4040   24.2540   37.0410 H   0  0  0  0  0  0  0  0  0  0  0  0
   38.5940   25.5640   36.9920 H   0  0  0  0  0  0  0  0  0  0  0  0
   39.0580   23.2690   38.8040 F   0  0  0  0  0  0  0  0  0  0  0  0
   39.6570   23.0310   37.6130 C   0  0  0  0  0  0  0  0  0  0  0  0
   39.3200   23.6590   36.4320 C   0  0  0  0  0  0  0  0  0  0  0  0
   40.0410   23.2910   35.2970 C   0  0  0  0  0  0  0  0  0  0  0  0
   39.7530   23.8060   34.3780 H   0  0  0  0  0  0  0  0  0  0  0  0
   41.0570   22.3460   35.2960 C   0  0  0  0  0  0  0  0  0  0  0  0
   41.5670   22.1230   34.3570 H   0  0  0  0  0  0  0  0  0  0  0  0
   41.3540   21.7410   36.5240 C   0  0  0  0  0  3  0  0  0  0  0  0
   40.6590   22.0850   37.6600 C   0  0  0  0  0  3  0  0  0  0  0  0
  1  7  1  6  0  0  0
  1  6  1  0  0  0  0
  2  3  1  0  0  0  0
  2  1  1  0  0  0  0
  3  4  1  0  0  0  0
  4 12  1  0  0  0  0
  4 13  1  0  0  0  0
  4  5  1  0  0  0  0
  5 15  1  0  0  0  0
  5 14  1  0  0  0  0
  6 26  1  0  0  0  0
  6  5  1  0  0  0  0
  6 16  1  1  0  0  0
  8  2  1  0  0  0  0
  9  2  1  0  0  0  0
 10  3  1  0  0  0  0
 11  3  1  0  0  0  0
 17 23  1  0  0  0  0
 18  1  1  0  0  0  0
 18 17  2  0  0  0  0
 19 18  1  0  0  0  0
 20 19  2  0  0  0  0
 20 21  1  0  0  0  0
 21 22  2  0  0  0  0
 22 17  1  0  0  0  0
 24 19  1  0  0  0  0
 25 21  1  0  0  0  0
 26 29  1  0  0  0  0
 27 26  1  0  0  0  0
 28 26  1  0  0  0  0
 29 31  1  0  0  0  0
 29 30  1  0  0  0  0
 33 40  1  0  0  0  0
 33 32  1  0  0  0  0
 34 29  1  0  0  0  0
 34 33  2  0  0  0  0
 35 34  1  0  0  0  0
 36 35  1  0  0  0  0
 37 35  2  0  0  0  0
 37 39  1  0  0  0  0
 38 37  1  0  0  0  0
 39 40  2  0  0  0  0
M  END
>  <minimizedAffinity>
-5.70560837

$$$$

 OpenBabel03272506323D

 40 42  0  0  1  0  0  0  0  0999 V2000
   38.2020   26.4240   35.3470 C   0  0  1  0  0  0  0  0  0  0  0  0
   39.4480   26.9540   34.8400 C   0  0  0  0  0  0  0  0  0  0  0  0
   39.5970   27.0250   33.3320 C   0  0  0  0  0  0  0  0  0  0  0  0
   38.3670   27.4190   32.5880 C   0  0  0  0  0  0  0  0  0  0  0  0
   37.0710   26.9130   33.1070 C   0  0  0  0  0  0  0  0  0  0  0  0
   37.0030   26.9470   34.5900 C   0  0  2  0  0  0  0  0  0  0  0  0
   38.0260   26.8360   36.3900 H   0  0  0  0  0  0  0  0  0  0  0  0
   40.3800   26.5560   35.2260 H   0  0  0  0  0  0  0  0  0  0  0  0
   39.4960   28.0480   35.1370 H   0  0  0  0  0  0  0  0  0  0  0  0
   39.9230   26.0090   33.0020 H   0  0  0  0  0  0  0  0  0  0  0  0
   40.4110   27.7200   33.0810 H   0  0  0  0  0  0  0  0  0  0  0  0
   38.3900   28.5350   32.4860 H   0  0  0  0  0  0  0  0  0  0  0  0
   38.4860   27.0270   31.5500 H   0  0  0  0  0  0  0  0  0  0  0  0
   36.2470   27.5100   32.7190 H   0  0  0  0  0  0  0  0  0  0  0  0
   37.0020   25.8360   32.8060 H   0  0  0  0  0  0  0  0  0  0  0  0
   36.0450   26.5150   34.9270 H   0  0  0  0  0  0  0  0  0  0  0  0
   37.6980   24.3630   36.7780 C   0  0  0  0  0  0  0  0  0  0  0  0
   38.1330   24.9660   35.5580 C   0  0  0  0  0  0  0  0  0  0  0  0
   38.5030   24.0800   34.5630 C   0  0  0  0  0  0  0  0  0  0  0  0
   38.4390   22.7220   34.7750 N   0  0  0  0  0  0  0  0  0  0  0  0
   38.0140   22.2210   35.9640 C   0  0  0  0  0  0  0  0  0  0  0  0
   37.6440   23.0540   36.9610 N   0  0  0  0  0  0  0  0  0  0  0  0
   37.4030   25.0430   37.5740 H   0  0  0  0  0  0  0  0  0  0  0  0
   38.8490   24.4190   33.5980 H   0  0  0  0  0  0  0  0  0  0  0  0
   38.0250   21.1440   35.9630 H   0  0  0  0  0  0  0  0  0  0  0  0
   36.9280   28.4440   34.9760 C   0  0  0  0  0  0  0  0  0  0  0  0
   37.7620   28.9870   34.5240 H   0  0  0  0  0  0  0  0  0  0  0  0
   36.9660   28.5970   36.0540 H   0  0  0  0  0  0  0  0  0  0  0  0
   35.6240   29.0380   34.4410 C   0  0  0  0  0  0  0  0  0  0  0  0
   34.8300   28.9750   35.2080 H   0  0  0  0  0  0  0  0  0  0  0  0
   35.2730   28.4140   33.5880 H   0  0  0  0  0  0  0  0  0  0  0  0
   35.7930   31.1880   36.3050 F   0  0  0  0  0  0  0  0  0  0  0  0
   35.8200   31.4170   34.9700 C   0  0  0  0  0  0  0  0  0  0  0  0
   35.7440   30.4320   34.0090 C   0  0  0  0  0  0  0  0  0  0  0  0
   35.7860   30.8470   32.6780 C   0  0  0  0  0  0  0  0  0  0  0  0
   35.7240   30.0440   31.9400 H   0  0  0  0  0  0  0  0  0  0  0  0
   35.8990   32.1720   32.2840 C   0  0  0  0  0  0  0  0  0  0  0  0
   35.9240   32.4020   31.2160 H   0  0  0  0  0  0  0  0  0  0  0  0
   35.9720   33.1290   33.3040 C   0  0  0  0  0  3  0  0  0  0  0  0
   35.9330   32.7470   34.6250 C   0  0  0  0  0  3  0  0  0  0  0  0
  1 18  1  0  0  0  0
  1  7  1  1  0  0  0
  2  9  1  0  0  0  0
  2  8  1  0  0  0  0
  2  1  1  0  0  0  0
  3  2  1  0  0  0  0
  4  5  1  0  0  0  0
  4  3  1  0  0  0  0
  5  6  1  0  0  0  0
  6 16  1  1  0  0  0
  6 26  1  0  0  0  0
  6  1  1  0  0  0  0
 10  3  1  0  0  0  0
 11  3  1  0  0  0  0
 12  4  1  0  0  0  0
 13  4  1  0  0  0  0
 14  5  1  0  0  0  0
 15  5  1  0  0  0  0
 17 22  1  0  0  0  0
 17 23  1  0  0  0  0
 18 17  2  0  0  0  0
 19 20  2  0  0  0  0
 19 18  1  0  0  0  0
 20 21  1  0  0  0  0
 21 22  2  0  0  0  0
 24 19  1  0  0  0  0
 25 21  1  0  0  0  0
 26 28  1  0  0  0  0
 27 26  1  0  0  0  0
 29 26  1  0  0  0  0
 29 30  1  0  0  0  0
 31 29  1  0  0  0  0
 33 32  1  0  0  0  0
 34 29  1  0  0  0  0
 34 33  2  0  0  0  0
 35 34  1  0  0  0  0
 36 35  1  0  0  0  0
 37 35  2  0  0  0  0
 37 39  1  0  0  0  0
 38 37  1  0  0  0  0
 39 40  2  0  0  0  0
 40 33  1  0  0  0  0
M  END
>  <minimizedAffinity>
-5.39159155

$$$$

 OpenBabel03272506323D

 40 42  0  0  1  0  0  0  0  0999 V2000
   34.3020   29.8700   34.6110 C   0  0  1  0  0  0  0  0  0  0  0  0
   33.2120   29.5620   33.7120 C   0  0  0  0  0  0  0  0  0  0  0  0
   33.1720   30.3220   32.4000 C   0  0  0  0  0  0  0  0  0  0  0  0
   34.4980   30.5650   31.7630 C   0  0  0  0  0  0  0  0  0  0  0  0
   35.6410   30.8530   32.6660 C   0  0  0  0  0  0  0  0  0  0  0  0
   35.6230   30.0090   33.8890 C   0  0  2  0  0  0  0  0  0  0  0  0
   34.4890   28.9740   35.2820 H   0  0  0  0  0  0  0  0  0  0  0  0
   32.2000   29.5590   34.1010 H   0  0  0  0  0  0  0  0  0  0  0  0
   33.3540   28.4910   33.3630 H   0  0  0  0  0  0  0  0  0  0  0  0
   32.6810   31.3010   32.6210 H   0  0  0  0  0  0  0  0  0  0  0  0
   32.5210   29.7900   31.6920 H   0  0  0  0  0  0  0  0  0  0  0  0
   34.6920   29.7000   31.0750 H   0  0  0  0  0  0  0  0  0  0  0  0
   34.3710   31.4480   31.0940 H   0  0  0  0  0  0  0  0  0  0  0  0
   36.5840   30.6790   32.1520 H   0  0  0  0  0  0  0  0  0  0  0  0
   35.5230   31.9140   33.0050 H   0  0  0  0  0  0  0  0  0  0  0  0
   36.4600   30.2960   34.5490 H   0  0  0  0  0  0  0  0  0  0  0  0
   32.7860   31.4350   35.9530 C   0  0  0  0  0  0  0  0  0  0  0  0
   34.0810   30.9610   35.5790 C   0  0  0  0  0  0  0  0  0  0  0  0
   35.1420   31.6040   36.1880 C   0  0  0  0  0  0  0  0  0  0  0  0
   34.9210   32.6230   37.0850 N   0  0  0  0  0  0  0  0  0  0  0  0
   33.6590   33.0210   37.3920 C   0  0  0  0  0  0  0  0  0  0  0  0
   32.5970   32.4180   36.8180 N   0  0  0  0  0  0  0  0  0  0  0  0
   31.9380   30.9420   35.4840 H   0  0  0  0  0  0  0  0  0  0  0  0
   36.1670   31.3320   35.9840 H   0  0  0  0  0  0  0  0  0  0  0  0
   33.6640   33.8270   38.1070 H   0  0  0  0  0  0  0  0  0  0  0  0
   35.9550   28.5730   33.4170 C   0  0  0  0  0  0  0  0  0  0  0  0
   36.6240   28.6100   32.5530 H   0  0  0  0  0  0  0  0  0  0  0  0
   35.0650   28.0130   33.1350 H   0  0  0  0  0  0  0  0  0  0  0  0
   36.6700   27.8250   34.5430 C   0  0  0  0  0  0  0  0  0  0  0  0
   36.0930   26.9290   34.8370 H   0  0  0  0  0  0  0  0  0  0  0  0
   36.6950   28.4800   35.4440 H   0  0  0  0  0  0  0  0  0  0  0  0
   38.6130   27.2440   36.5450 F   0  0  0  0  0  0  0  0  0  0  0  0
   38.9170   27.1480   35.2290 C   0  0  0  0  0  0  0  0  0  0  0  0
   38.0330   27.4110   34.2040 C   0  0  0  0  0  0  0  0  0  0  0  0
   38.5150   27.2610   32.9040 C   0  0  0  0  0  0  0  0  0  0  0  0
   37.7920   27.4760   32.1150 H   0  0  0  0  0  0  0  0  0  0  0  0
   39.8100   26.8680   32.5990 C   0  0  0  0  0  0  0  0  0  0  0  0
   40.0980   26.7780   31.5490 H   0  0  0  0  0  0  0  0  0  0  0  0
   40.6630   26.6150   33.6810 C   0  0  0  0  0  3  0  0  0  0  0  0
   40.2140   26.7550   34.9730 C   0  0  0  0  0  3  0  0  0  0  0  0
  1  7  1  1  0  0  0
  1 18  1  0  0  0  0
  2  8  1  0  0  0  0
  2  1  1  0  0  0  0
  3 10  1  0  0  0  0
  3  2  1  0  0  0  0
  4  3  1  0  0  0  0
  4  5  1  0  0  0  0
  5 15  1  0  0  0  0
  5  6  1  0  0  0  0
  6 16  1  1  0  0  0
  6  1  1  0  0  0  0
  9  2  1  0  0  0  0
 11  3  1  0  0  0  0
 12  4  1  0  0  0  0
 13  4  1  0  0  0  0
 14  5  1  0  0  0  0
 17 22  1  0  0  0  0
 18 17  2  0  0  0  0
 18 19  1  0  0  0  0
 19 20  2  0  0  0  0
 20 21  1  0  0  0  0
 21 25  1  0  0  0  0
 22 21  2  0  0  0  0
 23 17  1  0  0  0  0
 24 19  1  0  0  0  0
 26  6  1  0  0  0  0
 26 29  1  0  0  0  0
 27 26  1  0  0  0  0
 28 26  1  0  0  0  0
 29 30  1  0  0  0  0
 29 31  1  0  0  0  0
 33 32  1  0  0  0  0
 34 29  1  0  0  0  0
 34 33  2  0  0  0  0
 35 34  1  0  0  0  0
 36 35  1  0  0  0  0
 37 35  2  0  0  0  0
 37 39  1  0  0  0  0
 38 37  1  0  0  0  0
 39 40  2  0  0  0  0
 40 33  1  0  0  0  0
M  END
>  <minimizedAffinity>
-5.3900671

$$$$

 OpenBabel03272506323D

 40 42  0  0  1  0  0  0  0  0999 V2000
   37.0690   26.6120   32.7210 C   0  0  1  0  0  0  0  0  0  0  0  0
   38.4460   27.0410   32.6140 C   0  0  0  0  0  0  0  0  0  0  0  0
   38.8700   27.6550   31.2940 C   0  0  0  0  0  0  0  0  0  0  0  0
   37.8560   28.5360   30.6460 C   0  0  0  0  0  0  0  0  0  0  0  0
   36.4320   28.1330   30.7670 C   0  0  0  0  0  0  0  0  0  0  0  0
   36.1060   27.6090   32.1180 C   0  0  2  0  0  0  0  0  0  0  0  0
   36.7680   26.6180   33.8160 H   0  0  0  0  0  0  0  0  0  0  0  0
   39.2310   26.3520   32.9030 H   0  0  0  0  0  0  0  0  0  0  0  0
   38.5870   27.9060   33.3360 H   0  0  0  0  0  0  0  0  0  0  0  0
   39.1100   26.8010   30.6140 H   0  0  0  0  0  0  0  0  0  0  0  0
   39.8020   28.2200   31.4390 H   0  0  0  0  0  0  0  0  0  0  0  0
   38.0480   29.5790   31.0120 H   0  0  0  0  0  0  0  0  0  0  0  0
   38.1050   28.5580   29.5580 H   0  0  0  0  0  0  0  0  0  0  0  0
   35.7800   28.9820   30.5700 H   0  0  0  0  0  0  0  0  0  0  0  0
   36.2740   27.2900   30.0470 H   0  0  0  0  0  0  0  0  0  0  0  0
   35.0540   27.2760   32.1420 H   0  0  0  0  0  0  0  0  0  0  0  0
   37.5590   24.1000   32.6870 C   0  0  0  0  0  0  0  0  0  0  0  0
   36.7680   25.2280   32.3090 C   0  0  0  0  0  0  0  0  0  0  0  0
   35.6800   24.9410   31.5070 C   0  0  0  0  0  0  0  0  0  0  0  0
   35.4130   23.6460   31.1250 N   0  0  0  0  0  0  0  0  0  0  0  0
   36.2120   22.6230   31.5250 C   0  0  0  0  0  0  0  0  0  0  0  0
   37.2850   22.8630   32.3080 N   0  0  0  0  0  0  0  0  0  0  0  0
   38.4220   24.3050   33.3170 H   0  0  0  0  0  0  0  0  0  0  0  0
   35.0090   25.7120   31.1590 H   0  0  0  0  0  0  0  0  0  0  0  0
   35.8650   21.6790   31.1390 H   0  0  0  0  0  0  0  0  0  0  0  0
   36.1660   28.8260   33.0720 C   0  0  0  0  0  0  0  0  0  0  0  0
   36.6690   29.6610   32.5770 H   0  0  0  0  0  0  0  0  0  0  0  0
   36.7010   28.6040   33.9940 H   0  0  0  0  0  0  0  0  0  0  0  0
   34.7430   29.2640   33.4210 C   0  0  0  0  0  0  0  0  0  0  0  0
   34.1090   28.3810   33.6240 H   0  0  0  0  0  0  0  0  0  0  0  0
   34.2950   29.7610   32.5310 H   0  0  0  0  0  0  0  0  0  0  0  0
   32.3120   29.7000   34.8430 F   0  0  0  0  0  0  0  0  0  0  0  0
   33.4560   30.3260   35.2080 C   0  0  0  0  0  0  0  0  0  0  0  0
   34.6690   30.1650   34.5720 C   0  0  0  0  0  0  0  0  0  0  0  0
   35.7470   30.8880   35.0830 C   0  0  0  0  0  0  0  0  0  0  0  0
   36.6930   30.7400   34.5580 H   0  0  0  0  0  0  0  0  0  0  0  0
   35.6610   31.7400   36.1740 C   0  0  0  0  0  0  0  0  0  0  0  0
   36.5600   32.2650   36.5030 H   0  0  0  0  0  0  0  0  0  0  0  0
   34.4040   31.8630   36.7790 C   0  0  0  0  0  3  0  0  0  0  0  0
   33.3240   31.1620   36.2970 C   0  0  0  0  0  3  0  0  0  0  0  0
  1  7  1  1  0  0  0
  2  1  1  0  0  0  0
  2  8  1  0  0  0  0
  2  9  1  0  0  0  0
  3 11  1  0  0  0  0
  3  2  1  0  0  0  0
  4  5  1  0  0  0  0
  4 12  1  0  0  0  0
  4  3  1  0  0  0  0
  5  6  1  0  0  0  0
  6 16  1  6  0  0  0
  6  1  1  0  0  0  0
  6 26  1  0  0  0  0
 10  3  1  0  0  0  0
 13  4  1  0  0  0  0
 14  5  1  0  0  0  0
 15  5  1  0  0  0  0
 17 23  1  0  0  0  0
 18 17  1  0  0  0  0
 18  1  1  0  0  0  0
 19 18  2  0  0  0  0
 20 19  1  0  0  0  0
 20 21  2  0  0  0  0
 21 22  1  0  0  0  0
 22 17  2  0  0  0  0
 24 19  1  0  0  0  0
 25 21  1  0  0  0  0
 26 29  1  0  0  0  0
 26 28  1  0  0  0  0
 27 26  1  0  0  0  0
 29 30  1  0  0  0  0
 29 34  1  0  0  0  0
 31 29  1  0  0  0  0
 32 33  1  0  0  0  0
 33 40  1  0  0  0  0
 34 35  1  0  0  0  0
 34 33  2  0  0  0  0
 35 37  2  0  0  0  0
 36 35  1  0  0  0  0
 37 38  1  0  0  0  0
 37 39  1  0  0  0  0
 40 39  2  0  0  0  0
M  END
>  <minimizedAffinity>
-5.33377934

$$$$

 OpenBabel03272506323D

 40 42  0  0  1  0  0  0  0  0999 V2000
   38.5150   26.4870   32.7520 C   0  0  1  0  0  0  0  0  0  0  0  0
   39.2850   26.5350   31.5290 C   0  0  0  0  0  0  0  0  0  0  0  0
   40.5600   27.3560   31.5560 C   0  0  0  0  0  0  0  0  0  0  0  0
   41.3450   27.2720   32.8220 C   0  0  0  0  0  0  0  0  0  0  0  0
   40.5770   27.1900   34.0900 C   0  0  0  0  0  0  0  0  0  0  0  0
   39.3860   26.3100   33.9750 C   0  0  2  0  0  0  0  0  0  0  0  0
   37.8970   25.5340   32.7580 H   0  0  0  0  0  0  0  0  0  0  0  0
   38.7770   26.7800   30.6030 H   0  0  0  0  0  0  0  0  0  0  0  0
   39.6780   25.4890   31.3350 H   0  0  0  0  0  0  0  0  0  0  0  0
   40.2550   28.4150   31.3770 H   0  0  0  0  0  0  0  0  0  0  0  0
   41.2000   27.0600   30.7130 H   0  0  0  0  0  0  0  0  0  0  0  0
   42.0750   26.4300   32.6970 H   0  0  0  0  0  0  0  0  0  0  0  0
   41.9690   28.1960   32.8690 H   0  0  0  0  0  0  0  0  0  0  0  0
   41.2060   26.8010   34.8890 H   0  0  0  0  0  0  0  0  0  0  0  0
   40.1970   28.2210   34.3040 H   0  0  0  0  0  0  0  0  0  0  0  0
   38.8230   26.3220   34.9240 H   0  0  0  0  0  0  0  0  0  0  0  0
   37.0480   28.4010   31.8970 C   0  0  0  0  0  0  0  0  0  0  0  0
   37.4970   27.5370   32.9420 C   0  0  0  0  0  0  0  0  0  0  0  0
   36.9110   27.7510   34.1750 C   0  0  0  0  0  0  0  0  0  0  0  0
   35.9660   28.7380   34.3400 N   0  0  0  0  0  0  0  0  0  0  0  0
   35.5890   29.5230   33.2970 C   0  0  0  0  0  0  0  0  0  0  0  0
   36.1380   29.3450   32.0770 N   0  0  0  0  0  0  0  0  0  0  0  0
   37.4980   28.2490   30.9180 H   0  0  0  0  0  0  0  0  0  0  0  0
   37.1700   27.1590   35.0400 H   0  0  0  0  0  0  0  0  0  0  0  0
   34.8440   30.2420   33.5960 H   0  0  0  0  0  0  0  0  0  0  0  0
   39.9350   24.8680   33.8500 C   0  0  0  0  0  0  0  0  0  0  0  0
   40.8430   24.7620   34.4490 H   0  0  0  0  0  0  0  0  0  0  0  0
   40.1720   24.6020   32.8210 H   0  0  0  0  0  0  0  0  0  0  0  0
   38.8920   23.8840   34.3840 C   0  0  0  0  0  0  0  0  0  0  0  0
   39.0110   22.8980   33.8990 H   0  0  0  0  0  0  0  0  0  0  0  0
   37.8800   24.2470   34.0930 H   0  0  0  0  0  0  0  0  0  0  0  0
   37.0640   25.1860   36.1400 F   0  0  0  0  0  0  0  0  0  0  0  0
   38.0270   24.3640   36.6200 C   0  0  0  0  0  0  0  0  0  0  0  0
   38.9450   23.6990   35.8360 C   0  0  0  0  0  0  0  0  0  0  0  0
   39.8690   22.8900   36.4970 C   0  0  0  0  0  0  0  0  0  0  0  0
   40.5830   22.3770   35.8490 H   0  0  0  0  0  0  0  0  0  0  0  0
   39.9080   22.7250   37.8740 C   0  0  0  0  0  0  0  0  0  0  0  0
   40.6690   22.0700   38.3040 H   0  0  0  0  0  0  0  0  0  0  0  0
   38.9500   23.4250   38.6190 C   0  0  0  0  0  3  0  0  0  0  0  0
   38.0280   24.2290   37.9920 C   0  0  0  0  0  3  0  0  0  0  0  0
  1  7  1  6  0  0  0
  1 18  1  0  0  0  0
  1  6  1  0  0  0  0
  2  3  1  0  0  0  0
  2  1  1  0  0  0  0
  3  4  1  0  0  0  0
  4 13  1  0  0  0  0
  4  5  1  0  0  0  0
  5 15  1  0  0  0  0
  5 14  1  0  0  0  0
  6  5  1  0  0  0  0
  6 16  1  1  0  0  0
  8  2  1  0  0  0  0
  9  2  1  0  0  0  0
 10  3  1  0  0  0  0
 11  3  1  0  0  0  0
 12  4  1  0  0  0  0
 17 22  2  0  0  0  0
 17 18  1  0  0  0  0
 18 19  2  0  0  0  0
 19 20  1  0  0  0  0
 19 24  1  0  0  0  0
 21 25  1  0  0  0  0
 21 20  2  0  0  0  0
 22 21  1  0  0  0  0
 23 17  1  0  0  0  0
 26  6  1  0  0  0  0
 26 29  1  0  0  0  0
 26 27  1  0  0  0  0
 28 26  1  0  0  0  0
 29 34  1  0  0  0  0
 30 29  1  0  0  0  0
 31 29  1  0  0  0  0
 32 33  1  0  0  0  0
 33 40  1  0  0  0  0
 34 35  1  0  0  0  0
 34 33  2  0  0  0  0
 35 37  2  0  0  0  0
 36 35  1  0  0  0  0
 37 38  1  0  0  0  0
 37 39  1  0  0  0  0
 40 39  2  0  0  0  0
M  END
>  <minimizedAffinity>
-5.30459785

$$$$

 OpenBabel03272506323D

 40 42  0  0  1  0  0  0  0  0999 V2000
   34.5360   29.8540   33.5900 C   0  0  1  0  0  0  0  0  0  0  0  0
   33.4630   29.8400   32.6220 C   0  0  0  0  0  0  0  0  0  0  0  0
   33.4170   30.9910   31.6350 C   0  0  0  0  0  0  0  0  0  0  0  0
   34.7440   31.4570   31.1370 C   0  0  0  0  0  0  0  0  0  0  0  0
   35.8700   31.4520   32.1050 C   0  0  0  0  0  0  0  0  0  0  0  0
   35.8600   30.2500   32.9780 C   0  0  2  0  0  0  0  0  0  0  0  0
   34.7370   28.7900   33.9300 H   0  0  0  0  0  0  0  0  0  0  0  0
   32.4470   29.6890   32.9700 H   0  0  0  0  0  0  0  0  0  0  0  0
   33.6330   28.9480   31.9410 H   0  0  0  0  0  0  0  0  0  0  0  0
   32.9000   31.8320   32.1590 H   0  0  0  0  0  0  0  0  0  0  0  0
   32.7870   30.7110   30.7800 H   0  0  0  0  0  0  0  0  0  0  0  0
   34.9650   30.8730   30.2050 H   0  0  0  0  0  0  0  0  0  0  0  0
   34.6020   32.5090   30.7960 H   0  0  0  0  0  0  0  0  0  0  0  0
   36.8220   31.4760   31.5780 H   0  0  0  0  0  0  0  0  0  0  0  0
   35.7240   32.3380   32.7730 H   0  0  0  0  0  0  0  0  0  0  0  0
   36.6830   30.3180   33.7100 H   0  0  0  0  0  0  0  0  0  0  0  0
   35.2890   31.2410   35.6050 C   0  0  0  0  0  0  0  0  0  0  0  0
   34.2790   30.5580   34.8610 C   0  0  0  0  0  0  0  0  0  0  0  0
   33.0140   30.5910   35.4180 C   0  0  0  0  0  0  0  0  0  0  0  0
   32.7900   31.2460   36.6070 N   0  0  0  0  0  0  0  0  0  0  0  0
   33.8020   31.8740   37.2590 C   0  0  0  0  0  0  0  0  0  0  0  0
   35.0510   31.8650   36.7470 N   0  0  0  0  0  0  0  0  0  0  0  0
   36.2920   31.2260   35.1840 H   0  0  0  0  0  0  0  0  0  0  0  0
   32.1700   30.1100   34.9450 H   0  0  0  0  0  0  0  0  0  0  0  0
   33.4570   32.3350   38.1700 H   0  0  0  0  0  0  0  0  0  0  0  0
   36.2320   29.0580   32.0630 C   0  0  0  0  0  0  0  0  0  0  0  0
   37.2520   29.1780   31.6910 H   0  0  0  0  0  0  0  0  0  0  0  0
   35.5650   28.9690   31.2070 H   0  0  0  0  0  0  0  0  0  0  0  0
   36.1670   27.7620   32.8730 C   0  0  0  0  0  0  0  0  0  0  0  0
   36.0010   26.8980   32.2040 H   0  0  0  0  0  0  0  0  0  0  0  0
   35.2760   27.8050   33.5410 H   0  0  0  0  0  0  0  0  0  0  0  0
   38.6420   26.9990   31.6860 F   0  0  0  0  0  0  0  0  0  0  0  0
   38.5260   27.1400   33.0280 C   0  0  0  0  0  0  0  0  0  0  0  0
   37.3650   27.5070   33.6750 C   0  0  0  0  0  0  0  0  0  0  0  0
   37.4230   27.6050   35.0640 C   0  0  0  0  0  0  0  0  0  0  0  0
   36.4890   27.8970   35.5480 H   0  0  0  0  0  0  0  0  0  0  0  0
   38.5670   27.3580   35.8110 C   0  0  0  0  0  0  0  0  0  0  0  0
   38.5170   27.4610   36.8970 H   0  0  0  0  0  0  0  0  0  0  0  0
   39.7150   26.9900   35.0990 C   0  0  0  0  0  3  0  0  0  0  0  0
   39.6860   26.8860   33.7290 C   0  0  0  0  0  3  0  0  0  0  0  0
  1  7  1  1  0  0  0
  1 18  1  0  0  0  0
  2  8  1  0  0  0  0
  2  1  1  0  0  0  0
  3 10  1  0  0  0  0
  3  2  1  0  0  0  0
  4  3  1  0  0  0  0
  4  5  1  0  0  0  0
  5 15  1  0  0  0  0
  5  6  1  0  0  0  0
  6  1  1  0  0  0  0
  6 16  1  1  0  0  0
  9  2  1  0  0  0  0
 11  3  1  0  0  0  0
 12  4  1  0  0  0  0
 13  4  1  0  0  0  0
 14  5  1  0  0  0  0
 17 22  1  0  0  0  0
 18 19  1  0  0  0  0
 18 17  2  0  0  0  0
 19 20  2  0  0  0  0
 20 21  1  0  0  0  0
 21 25  1  0  0  0  0
 22 21  2  0  0  0  0
 23 17  1  0  0  0  0
 24 19  1  0  0  0  0
 26 29  1  0  0  0  0
 26  6  1  0  0  0  0
 27 26  1  0  0  0  0
 28 26  1  0  0  0  0
 29 31  1  0  0  0  0
 29 34  1  0  0  0  0
 30 29  1  0  0  0  0
 32 33  1  0  0  0  0
 33 34  2  0  0  0  0
 33 40  1  0  0  0  0
 34 35  1  0  0  0  0
 35 36  1  0  0  0  0
 35 37  2  0  0  0  0
 37 38  1  0  0  0  0
 39 37  1  0  0  0  0
 40 39  2  0  0  0  0
M  END
>  <minimizedAffinity>
-5.25276613

$$$$

 OpenBabel03272506323D

 40 42  0  0  1  0  0  0  0  0999 V2000
   38.7560   24.3380   35.2050 C   0  0  1  0  0  0  0  0  0  0  0  0
   37.8220   25.0020   36.0860 C   0  0  0  0  0  0  0  0  0  0  0  0
   38.2350   26.3590   36.6240 C   0  0  0  0  0  0  0  0  0  0  0  0
   38.9590   27.2330   35.6570 C   0  0  0  0  0  0  0  0  0  0  0  0
   39.9020   26.5710   34.7200 C   0  0  0  0  0  0  0  0  0  0  0  0
   39.3730   25.2840   34.2010 C   0  0  2  0  0  0  0  0  0  0  0  0
   38.1830   23.6200   34.5380 H   0  0  0  0  0  0  0  0  0  0  0  0
   37.4100   24.4480   36.9230 H   0  0  0  0  0  0  0  0  0  0  0  0
   36.9020   25.2580   35.4730 H   0  0  0  0  0  0  0  0  0  0  0  0
   38.8890   26.1590   37.5080 H   0  0  0  0  0  0  0  0  0  0  0  0
   37.3460   26.8880   36.9960 H   0  0  0  0  0  0  0  0  0  0  0  0
   38.1840   27.8520   35.1330 H   0  0  0  0  0  0  0  0  0  0  0  0
   39.5490   27.9580   36.2670 H   0  0  0  0  0  0  0  0  0  0  0  0
   40.1080   27.2180   33.8690 H   0  0  0  0  0  0  0  0  0  0  0  0
   40.8230   26.3280   35.3090 H   0  0  0  0  0  0  0  0  0  0  0  0
   40.1290   24.8080   33.5520 H   0  0  0  0  0  0  0  0  0  0  0  0
   39.6700   22.9970   37.1840 C   0  0  0  0  0  0  0  0  0  0  0  0
   39.7620   23.4630   35.8360 C   0  0  0  0  0  0  0  0  0  0  0  0
   40.8800   23.0410   35.1430 C   0  0  0  0  0  0  0  0  0  0  0  0
   41.8130   22.2290   35.7450 N   0  0  0  0  0  0  0  0  0  0  0  0
   41.6590   21.8250   37.0330 C   0  0  0  0  0  0  0  0  0  0  0  0
   40.5800   22.2160   37.7440 N   0  0  0  0  0  0  0  0  0  0  0  0
   38.7970   23.3190   37.7480 H   0  0  0  0  0  0  0  0  0  0  0  0
   41.0570   23.3290   34.1170 H   0  0  0  0  0  0  0  0  0  0  0  0
   42.4750   21.1980   37.3490 H   0  0  0  0  0  0  0  0  0  0  0  0
   38.2060   25.6560   33.2550 C   0  0  0  0  0  0  0  0  0  0  0  0
   37.3930   26.1100   33.8280 H   0  0  0  0  0  0  0  0  0  0  0  0
   37.8080   24.7900   32.7280 H   0  0  0  0  0  0  0  0  0  0  0  0
   38.6960   26.6760   32.2270 C   0  0  0  0  0  0  0  0  0  0  0  0
   39.0040   26.1660   31.2950 H   0  0  0  0  0  0  0  0  0  0  0  0
   39.6150   27.1660   32.6220 H   0  0  0  0  0  0  0  0  0  0  0  0
   38.5470   27.8410   29.6300 F   0  0  0  0  0  0  0  0  0  0  0  0
   37.6950   28.2160   30.6130 C   0  0  0  0  0  0  0  0  0  0  0  0
   37.7040   27.6990   31.8910 C   0  0  0  0  0  0  0  0  0  0  0  0
   36.7530   28.2000   32.7790 C   0  0  0  0  0  0  0  0  0  0  0  0
   36.7850   27.7720   33.7830 H   0  0  0  0  0  0  0  0  0  0  0  0
   35.8190   29.1720   32.4470 C   0  0  0  0  0  0  0  0  0  0  0  0
   35.1120   29.5040   33.2110 H   0  0  0  0  0  0  0  0  0  0  0  0
   35.8590   29.6590   31.1350 C   0  0  0  0  0  3  0  0  0  0  0  0
   36.7850   29.1820   30.2380 C   0  0  0  0  0  3  0  0  0  0  0  0
  1  7  1  6  0  0  0
  1 18  1  0  0  0  0
  1  2  1  0  0  0  0
  2  3  1  0  0  0  0
  2  8  1  0  0  0  0
  3 11  1  0  0  0  0
  3 10  1  0  0  0  0
  4 13  1  0  0  0  0
  4  3  1  0  0  0  0
  5 15  1  0  0  0  0
  5  4  1  0  0  0  0
  6 16  1  6  0  0  0
  6  5  1  0  0  0  0
  6  1  1  0  0  0  0
  9  2  1  0  0  0  0
 12  4  1  0  0  0  0
 14  5  1  0  0  0  0
 17 22  1  0  0  0  0
 17 23  1  0  0  0  0
 18 17  2  0  0  0  0
 19 20  2  0  0  0  0
 19 18  1  0  0  0  0
 20 21  1  0  0  0  0
 21 25  1  0  0  0  0
 21 22  2  0  0  0  0
 24 19  1  0  0  0  0
 26 27  1  0  0  0  0
 26  6  1  0  0  0  0
 28 26  1  0  0  0  0
 29 31  1  0  0  0  0
 29 26  1  0  0  0  0
 30 29  1  0  0  0  0
 32 33  1  0  0  0  0
 33 34  1  0  0  0  0
 34 29  1  0  0  0  0
 34 35  2  0  0  0  0
 35 36  1  0  0  0  0
 37 35  1  0  0  0  0
 37 38  1  0  0  0  0
 39 37  2  0  0  0  0
 40 33  2  0  0  0  0
 40 39  1  0  0  0  0
M  END
>  <minimizedAffinity>
-5.22112942

$$$$

 OpenBabel03272506323D

 40 42  0  0  1  0  0  0  0  0999 V2000
   37.9690   26.2920   35.1080 C   0  0  1  0  0  0  0  0  0  0  0  0
   39.2090   27.0120   35.2880 C   0  0  0  0  0  0  0  0  0  0  0  0
   40.1600   27.0420   34.1070 C   0  0  0  0  0  0  0  0  0  0  0  0
   39.5130   27.1760   32.7700 C   0  0  0  0  0  0  0  0  0  0  0  0
   38.2220   26.4700   32.5690 C   0  0  0  0  0  0  0  0  0  0  0  0
   37.3380   26.5590   33.7600 C   0  0  2  0  0  0  0  0  0  0  0  0
   37.1940   26.7120   35.8230 H   0  0  0  0  0  0  0  0  0  0  0  0
   39.8100   26.8040   36.1660 H   0  0  0  0  0  0  0  0  0  0  0  0
   38.9480   28.1090   35.4120 H   0  0  0  0  0  0  0  0  0  0  0  0
   40.7380   26.0860   34.1470 H   0  0  0  0  0  0  0  0  0  0  0  0
   40.8830   27.8580   34.2440 H   0  0  0  0  0  0  0  0  0  0  0  0
   39.4510   28.2730   32.5470 H   0  0  0  0  0  0  0  0  0  0  0  0
   40.2360   26.7660   32.0260 H   0  0  0  0  0  0  0  0  0  0  0  0
   37.6870   26.8930   31.7210 H   0  0  0  0  0  0  0  0  0  0  0  0
   38.4660   25.3860   32.4280 H   0  0  0  0  0  0  0  0  0  0  0  0
   36.4170   25.9780   33.5810 H   0  0  0  0  0  0  0  0  0  0  0  0
   38.2010   23.8210   34.4850 C   0  0  0  0  0  0  0  0  0  0  0  0
   37.9760   24.8550   35.4430 C   0  0  0  0  0  0  0  0  0  0  0  0
   37.7540   24.4210   36.7370 C   0  0  0  0  0  0  0  0  0  0  0  0
   37.7580   23.0780   37.0350 N   0  0  0  0  0  0  0  0  0  0  0  0
   37.9790   22.1500   36.0680 C   0  0  0  0  0  0  0  0  0  0  0  0
   38.2000   22.5340   34.7930 N   0  0  0  0  0  0  0  0  0  0  0  0
   38.3760   24.1410   33.4600 H   0  0  0  0  0  0  0  0  0  0  0  0
   37.5730   25.1120   37.5470 H   0  0  0  0  0  0  0  0  0  0  0  0
   37.9480   21.1500   36.4690 H   0  0  0  0  0  0  0  0  0  0  0  0
   36.8770   28.0340   33.8370 C   0  0  0  0  0  0  0  0  0  0  0  0
   37.7270   28.6990   33.6680 H   0  0  0  0  0  0  0  0  0  0  0  0
   36.4380   28.2810   34.8020 H   0  0  0  0  0  0  0  0  0  0  0  0
   35.8390   28.2950   32.7440 C   0  0  0  0  0  0  0  0  0  0  0  0
   34.8570   28.5310   33.1940 H   0  0  0  0  0  0  0  0  0  0  0  0
   35.6900   27.3560   32.1640 H   0  0  0  0  0  0  0  0  0  0  0  0
   35.5890   31.0370   33.4790 F   0  0  0  0  0  0  0  0  0  0  0  0
   36.0550   30.6820   32.2580 C   0  0  0  0  0  0  0  0  0  0  0  0
   36.2050   29.3790   31.8310 C   0  0  0  0  0  0  0  0  0  0  0  0
   36.7000   29.1940   30.5400 C   0  0  0  0  0  0  0  0  0  0  0  0
   36.8080   28.1530   30.2300 H   0  0  0  0  0  0  0  0  0  0  0  0
   37.0410   30.2330   29.6850 C   0  0  0  0  0  0  0  0  0  0  0  0
   37.4210   29.9900   28.6900 H   0  0  0  0  0  0  0  0  0  0  0  0
   36.8670   31.5330   30.1740 C   0  0  0  0  0  3  0  0  0  0  0  0
   36.3810   31.7450   31.4430 C   0  0  0  0  0  3  0  0  0  0  0  0
  1  2  1  0  0  0  0
  1 18  1  0  0  0  0
  1  7  1  1  0  0  0
  2  9  1  0  0  0  0
  2  8  1  0  0  0  0
  3 10  1  0  0  0  0
  3 11  1  0  0  0  0
  3  2  1  0  0  0  0
  4  3  1  0  0  0  0
  5  4  1  0  0  0  0
  5  6  1  0  0  0  0
  6 16  1  6  0  0  0
  6 26  1  0  0  0  0
  6  1  1  0  0  0  0
 12  4  1  0  0  0  0
 13  4  1  0  0  0  0
 14  5  1  0  0  0  0
 15  5  1  0  0  0  0
 17 22  2  0  0  0  0
 17 18  1  0  0  0  0
 18 19  2  0  0  0  0
 19 20  1  0  0  0  0
 19 24  1  0  0  0  0
 21 25  1  0  0  0  0
 21 20  2  0  0  0  0
 22 21  1  0  0  0  0
 23 17  1  0  0  0  0
 26 28  1  0  0  0  0
 27 26  1  0  0  0  0
 29 30  1  0  0  0  0
 29 26  1  0  0  0  0
 31 29  1  0  0  0  0
 33 32  1  0  0  0  0
 34 33  1  0  0  0  0
 34 29  1  0  0  0  0
 35 34  2  0  0  0  0
 36 35  1  0  0  0  0
 37 39  2  0  0  0  0
 37 35  1  0  0  0  0
 38 37  1  0  0  0  0
 39 40  1  0  0  0  0
 40 33  2  0  0  0  0
M  END
>  <minimizedAffinity>
-5.21013689

$$$$
