
 OpenBabel03262520143D

 42 44  0  0  0  0  0  0  0  0999 V2000
   36.5880   22.8830   31.1830 C   0  0  0  0  0  0  0  0  0  0  0  0
   36.3650   22.0930   30.4120 H   0  0  0  0  0  0  0  0  0  0  0  0
   37.6090   23.2470   30.9470 H   0  0  0  0  0  0  0  0  0  0  0  0
   38.6670   23.9830   33.2860 Br  0  0  0  0  0  0  0  0  0  0  0  0
   37.3850   22.5720   33.5420 C   0  0  0  0  0  0  0  0  0  0  0  0
   37.2980   21.9170   34.7470 C   0  0  0  0  0  0  0  0  0  0  0  0
   36.3770   20.9180   34.8700 C   0  0  0  0  0  0  0  0  0  0  0  0
   35.5370   20.5480   33.8280 C   0  0  0  0  0  0  0  0  0  0  0  0
   35.6550   21.2340   32.6170 C   0  0  0  0  0  0  0  0  0  0  0  0
   36.5750   22.2370   32.4900 C   0  0  0  0  0  0  0  0  0  0  0  0
   36.3500   20.4290   35.8580 H   0  0  0  0  0  0  0  0  0  0  0  0
   34.8790   19.7530   34.0890 H   0  0  0  0  0  0  0  0  0  0  0  0
   34.9480   20.8000   31.9530 H   0  0  0  0  0  0  0  0  0  0  0  0
   38.3910   23.3950   37.9010 C   0  0  0  0  0  0  0  0  0  0  0  0
   39.7490   23.0070   38.0100 C   0  0  0  0  0  0  0  0  0  0  0  0
   40.2610   22.2360   36.9810 C   0  0  0  0  0  0  0  0  0  0  0  0
   39.4600   21.8820   35.9180 N   0  0  0  0  0  0  0  0  0  0  0  0
   38.1740   22.2810   35.8690 C   0  0  0  0  0  0  0  0  0  0  0  0
   37.6590   23.0290   36.8570 N   0  0  0  0  0  0  0  0  0  0  0  0
   37.9550   24.0030   38.6940 H   0  0  0  0  0  0  0  0  0  0  0  0
   40.3620   23.2920   38.8490 H   0  0  0  0  0  0  0  0  0  0  0  0
   41.3000   21.9230   37.0370 H   0  0  0  0  0  0  0  0  0  0  0  0
   35.6440   24.0110   30.9770 C   0  0  0  0  0  0  0  0  0  0  0  0
   34.8760   24.0360   31.7220 H   0  0  0  0  0  0  0  0  0  0  0  0
   35.0820   23.7180   30.0230 H   0  0  0  0  0  0  0  0  0  0  0  0
   36.3680   25.1700   30.6160 N   0  0  0  0  0  0  0  0  0  0  0  0
   37.4110   25.0850   30.7360 H   0  0  0  0  0  0  0  0  0  0  0  0
   35.9480   26.4090   31.1610 C   0  0  0  0  0  0  0  0  0  0  0  0
   35.4930   27.0840   30.3990 H   0  0  0  0  0  0  0  0  0  0  0  0
   35.1640   26.2290   31.9350 H   0  0  0  0  0  0  0  0  0  0  0  0
   37.1320   27.0540   31.8080 C   0  0  0  0  0  0  0  0  0  0  0  0
   37.5010   26.4390   32.6670 H   0  0  0  0  0  0  0  0  0  0  0  0
   37.9100   27.4740   31.2030 H   0  0  0  0  0  0  0  0  0  0  0  0
   36.6110   27.2490   34.6230 F   0  0  0  0  0  0  0  0  0  0  0  0
   36.3140   28.3140   33.8560 C   0  0  0  0  0  0  0  0  0  0  0  0
   36.5370   28.2940   32.4870 C   0  0  0  0  0  0  0  0  0  0  0  0
   36.2090   29.4200   31.7640 C   0  0  0  0  0  0  0  0  0  0  0  0
   36.3890   29.3850   30.7010 H   0  0  0  0  0  0  0  0  0  0  0  0
   35.6770   30.5320   32.3770 C   0  0  0  0  0  0  0  0  0  0  0  0
   35.4400   31.3920   31.7390 H   0  0  0  0  0  0  0  0  0  0  0  0
   35.4580   30.5430   33.7380 C   0  0  0  0  0  3  0  0  0  0  0  0
   35.7810   29.4240   34.4760 C   0  0  0  0  0  3  0  0  0  0  0  0
  1 10  1  0  0  0  0
  2  1  1  0  0  0  0
  3  1  1  0  0  0  0
  4  5  1  0  0  0  0
  5  6  1  0  0  0  0
  6  7  2  0  0  0  0
  6 18  1  0  0  0  0
  7 11  1  0  0  0  0
  8 12  1  0  0  0  0
  8  7  1  0  0  0  0
  9  8  2  0  0  0  0
 10  9  1  0  0  0  0
 10  5  2  0  0  0  0
 13  9  1  0  0  0  0
 14 15  1  0  0  0  0
 14 20  1  0  0  0  0
 15 21  1  0  0  0  0
 16 22  1  0  0  0  0
 16 15  2  0  0  0  0
 17 16  1  0  0  0  0
 18 17  2  0  0  0  0
 18 19  1  0  0  0  0
 19 14  2  0  0  0  0
 23  1  1  0  0  0  0
 23 24  1  0  0  0  0
 25 23  1  0  0  0  0
 26 27  1  0  0  0  0
 26 23  1  0  0  0  0
 26 28  1  0  0  0  0
 28 31  1  0  0  0  0
 28 30  1  0  0  0  0
 29 28  1  0  0  0  0
 31 36  1  0  0  0  0
 31 32  1  0  0  0  0
 33 31  1  0  0  0  0
 35 42  1  0  0  0  0
 35 34  1  0  0  0  0
 36 35  2  0  0  0  0
 37 39  2  0  0  0  0
 37 36  1  0  0  0  0
 38 37  1  0  0  0  0
 39 41  1  0  0  0  0
 40 39  1  0  0  0  0
 41 42  2  0  0  0  0
M  END
>  <minimizedAffinity>
-5.79930115

$$$$

 OpenBabel03262520143D

 42 44  0  0  0  0  0  0  0  0999 V2000
   38.1310   27.0820   32.1140 C   0  0  0  0  0  0  0  0  0  0  0  0
   38.8380   27.0290   31.2400 H   0  0  0  0  0  0  0  0  0  0  0  0
   38.5940   27.7960   32.8260 H   0  0  0  0  0  0  0  0  0  0  0  0
   38.7600   26.9180   35.2020 Br  0  0  0  0  0  0  0  0  0  0  0  0
   38.2910   25.4680   34.0290 C   0  0  0  0  0  0  0  0  0  0  0  0
   38.1960   24.1830   34.5090 C   0  0  0  0  0  0  0  0  0  0  0  0
   37.8680   23.1920   33.6310 C   0  0  0  0  0  0  0  0  0  0  0  0
   37.6320   23.4380   32.2840 C   0  0  0  0  0  0  0  0  0  0  0  0
   37.7390   24.7560   31.8320 C   0  0  0  0  0  0  0  0  0  0  0  0
   38.0650   25.7520   32.7090 C   0  0  0  0  0  0  0  0  0  0  0  0
   37.8050   22.1830   34.0700 H   0  0  0  0  0  0  0  0  0  0  0  0
   37.3890   22.5580   31.7380 H   0  0  0  0  0  0  0  0  0  0  0  0
   37.5400   24.7340   30.7880 H   0  0  0  0  0  0  0  0  0  0  0  0
   39.8730   22.9560   37.5100 C   0  0  0  0  0  0  0  0  0  0  0  0
   38.9840   23.2910   38.5620 C   0  0  0  0  0  0  0  0  0  0  0  0
   37.8150   23.9390   38.2060 C   0  0  0  0  0  0  0  0  0  0  0  0
   37.5590   24.2300   36.8830 N   0  0  0  0  0  0  0  0  0  0  0  0
   38.4430   23.8860   35.9270 C   0  0  0  0  0  0  0  0  0  0  0  0
   39.5830   23.2570   36.2510 N   0  0  0  0  0  0  0  0  0  0  0  0
   40.8040   22.4450   37.7540 H   0  0  0  0  0  0  0  0  0  0  0  0
   39.1990   23.0570   39.5910 H   0  0  0  0  0  0  0  0  0  0  0  0
   37.1130   24.2090   38.9910 H   0  0  0  0  0  0  0  0  0  0  0  0
   36.8540   27.6750   31.6420 C   0  0  0  0  0  0  0  0  0  0  0  0
   36.0040   27.1020   31.9510 H   0  0  0  0  0  0  0  0  0  0  0  0
   36.8870   27.5130   30.5080 H   0  0  0  0  0  0  0  0  0  0  0  0
   36.9010   29.0790   31.7970 N   0  0  0  0  0  0  0  0  0  0  0  0
   37.8290   29.4470   32.1290 H   0  0  0  0  0  0  0  0  0  0  0  0
   35.8710   29.6960   32.5490 C   0  0  0  0  0  0  0  0  0  0  0  0
   36.0410   30.7880   32.7010 H   0  0  0  0  0  0  0  0  0  0  0  0
   34.9020   29.5980   32.0050 H   0  0  0  0  0  0  0  0  0  0  0  0
   35.7670   28.9840   33.8610 C   0  0  0  0  0  0  0  0  0  0  0  0
   34.9710   28.1990   33.8270 H   0  0  0  0  0  0  0  0  0  0  0  0
   36.6560   28.6860   34.3800 H   0  0  0  0  0  0  0  0  0  0  0  0
   32.9620   29.2940   34.3810 F   0  0  0  0  0  0  0  0  0  0  0  0
   33.8110   30.1350   35.0010 C   0  0  0  0  0  0  0  0  0  0  0  0
   35.1800   30.0470   34.7990 C   0  0  0  0  0  0  0  0  0  0  0  0
   35.9890   30.9400   35.4670 C   0  0  0  0  0  0  0  0  0  0  0  0
   37.0510   30.8560   35.2970 H   0  0  0  0  0  0  0  0  0  0  0  0
   35.4590   31.8910   36.3100 C   0  0  0  0  0  0  0  0  0  0  0  0
   36.1630   32.5690   36.8080 H   0  0  0  0  0  0  0  0  0  0  0  0
   34.0960   31.9720   36.5040 C   0  0  0  0  0  3  0  0  0  0  0  0
   33.2730   31.0850   35.8430 C   0  0  0  0  0  3  0  0  0  0  0  0
  1 10  1  0  0  0  0
  1  3  1  0  0  0  0
  2  1  1  0  0  0  0
  5  6  1  0  0  0  0
  5  4  1  0  0  0  0
  6 18  1  0  0  0  0
  7 11  1  0  0  0  0
  7  6  2  0  0  0  0
  8  7  1  0  0  0  0
  9  8  2  0  0  0  0
  9 10  1  0  0  0  0
 10  5  2  0  0  0  0
 12  8  1  0  0  0  0
 13  9  1  0  0  0  0
 14 20  1  0  0  0  0
 14 15  1  0  0  0  0
 15 21  1  0  0  0  0
 16 15  2  0  0  0  0
 16 22  1  0  0  0  0
 17 16  1  0  0  0  0
 18 19  1  0  0  0  0
 18 17  2  0  0  0  0
 19 14  2  0  0  0  0
 23 26  1  0  0  0  0
 23 24  1  0  0  0  0
 23  1  1  0  0  0  0
 25 23  1  0  0  0  0
 26 27  1  0  0  0  0
 26 28  1  0  0  0  0
 28 29  1  0  0  0  0
 28 31  1  0  0  0  0
 30 28  1  0  0  0  0
 31 33  1  0  0  0  0
 31 36  1  0  0  0  0
 32 31  1  0  0  0  0
 34 35  1  0  0  0  0
 35 42  1  0  0  0  0
 36 35  2  0  0  0  0
 36 37  1  0  0  0  0
 37 39  2  0  0  0  0
 38 37  1  0  0  0  0
 39 41  1  0  0  0  0
 39 40  1  0  0  0  0
 42 41  2  0  0  0  0
M  END
>  <minimizedAffinity>
-5.62972069

$$$$

 OpenBabel03262520143D

 42 44  0  0  0  0  0  0  0  0999 V2000
   37.3430   27.7050   32.6480 C   0  0  0  0  0  0  0  0  0  0  0  0
   37.8810   27.8810   31.6740 H   0  0  0  0  0  0  0  0  0  0  0  0
   37.8590   28.3480   33.3910 H   0  0  0  0  0  0  0  0  0  0  0  0
   38.3040   27.1210   35.5960 Br  0  0  0  0  0  0  0  0  0  0  0  0
   37.9110   25.8340   34.2210 C   0  0  0  0  0  0  0  0  0  0  0  0
   38.0350   24.4880   34.4680 C   0  0  0  0  0  0  0  0  0  0  0  0
   37.7520   23.6200   33.4540 C   0  0  0  0  0  0  0  0  0  0  0  0
   37.3480   24.0510   32.1970 C   0  0  0  0  0  0  0  0  0  0  0  0
   37.2340   25.4270   31.9820 C   0  0  0  0  0  0  0  0  0  0  0  0
   37.5150   26.2990   32.9960 C   0  0  0  0  0  0  0  0  0  0  0  0
   37.8680   22.5530   33.7080 H   0  0  0  0  0  0  0  0  0  0  0  0
   37.1670   23.2480   31.5210 H   0  0  0  0  0  0  0  0  0  0  0  0
   36.9330   25.5510   30.9700 H   0  0  0  0  0  0  0  0  0  0  0  0
   40.1630   23.0440   37.0590 C   0  0  0  0  0  0  0  0  0  0  0  0
   39.3490   23.0560   38.2190 C   0  0  0  0  0  0  0  0  0  0  0  0
   38.0710   23.5670   38.0770 C   0  0  0  0  0  0  0  0  0  0  0  0
   37.6440   24.0340   36.8520 N   0  0  0  0  0  0  0  0  0  0  0  0
   38.4650   23.9970   35.7850 C   0  0  0  0  0  0  0  0  0  0  0  0
   39.7080   23.5050   35.9020 N   0  0  0  0  0  0  0  0  0  0  0  0
   41.1760   22.6490   37.1340 H   0  0  0  0  0  0  0  0  0  0  0  0
   39.6980   22.6880   39.1680 H   0  0  0  0  0  0  0  0  0  0  0  0
   37.4230   23.5900   38.9490 H   0  0  0  0  0  0  0  0  0  0  0  0
   35.9510   28.2000   32.5050 C   0  0  0  0  0  0  0  0  0  0  0  0
   35.2850   27.7410   33.2050 H   0  0  0  0  0  0  0  0  0  0  0  0
   35.6170   27.7720   31.4970 H   0  0  0  0  0  0  0  0  0  0  0  0
   35.9670   29.5990   32.3030 N   0  0  0  0  0  0  0  0  0  0  0  0
   36.9320   30.0190   32.2570 H   0  0  0  0  0  0  0  0  0  0  0  0
   35.1640   30.4000   33.1520 C   0  0  0  0  0  0  0  0  0  0  0  0
   35.1610   31.4750   32.8570 H   0  0  0  0  0  0  0  0  0  0  0  0
   34.1040   30.0530   33.0990 H   0  0  0  0  0  0  0  0  0  0  0  0
   35.6620   30.2310   34.5530 C   0  0  0  0  0  0  0  0  0  0  0  0
   35.7800   29.1470   34.8060 H   0  0  0  0  0  0  0  0  0  0  0  0
   36.4510   30.8560   34.9200 H   0  0  0  0  0  0  0  0  0  0  0  0
   35.8140   32.2090   36.6260 F   0  0  0  0  0  0  0  0  0  0  0  0
   34.6180   31.6330   36.3960 C   0  0  0  0  0  0  0  0  0  0  0  0
   34.4680   30.6680   35.4110 C   0  0  0  0  0  0  0  0  0  0  0  0
   33.2160   30.1220   35.2310 C   0  0  0  0  0  0  0  0  0  0  0  0
   33.1180   29.3730   34.4610 H   0  0  0  0  0  0  0  0  0  0  0  0
   32.1460   30.5180   36.0010 C   0  0  0  0  0  0  0  0  0  0  0  0
   31.1790   30.0410   35.8030 H   0  0  0  0  0  0  0  0  0  0  0  0
   32.3060   31.4780   36.9790 C   0  0  0  0  0  3  0  0  0  0  0  0
   33.5520   32.0350   37.1710 C   0  0  0  0  0  3  0  0  0  0  0  0
  1 10  1  0  0  0  0
  1  3  1  0  0  0  0
  2  1  1  0  0  0  0
  5  6  1  0  0  0  0
  5  4  1  0  0  0  0
  6 18  1  0  0  0  0
  7 11  1  0  0  0  0
  7  6  2  0  0  0  0
  8  7  1  0  0  0  0
  9  8  2  0  0  0  0
  9 10  1  0  0  0  0
 10  5  2  0  0  0  0
 12  8  1  0  0  0  0
 13  9  1  0  0  0  0
 14 20  1  0  0  0  0
 14 15  1  0  0  0  0
 15 21  1  0  0  0  0
 16 15  2  0  0  0  0
 16 22  1  0  0  0  0
 17 16  1  0  0  0  0
 18 19  1  0  0  0  0
 18 17  2  0  0  0  0
 19 14  2  0  0  0  0
 23  1  1  0  0  0  0
 23 24  1  0  0  0  0
 25 23  1  0  0  0  0
 26 23  1  0  0  0  0
 26 28  1  0  0  0  0
 27 26  1  0  0  0  0
 28 31  1  0  0  0  0
 29 28  1  0  0  0  0
 30 28  1  0  0  0  0
 31 32  1  0  0  0  0
 31 33  1  0  0  0  0
 31 36  1  0  0  0  0
 35 34  1  0  0  0  0
 35 42  1  0  0  0  0
 36 35  2  0  0  0  0
 37 36  1  0  0  0  0
 37 39  2  0  0  0  0
 38 37  1  0  0  0  0
 39 41  1  0  0  0  0
 40 39  1  0  0  0  0
 41 42  2  0  0  0  0
M  END
>  <minimizedAffinity>
-5.61538744

$$$$

 OpenBabel03262520143D

 42 44  0  0  0  0  0  0  0  0999 V2000
   37.2070   27.6370   31.6270 C   0  0  0  0  0  0  0  0  0  0  0  0
   37.9080   27.2110   30.8570 H   0  0  0  0  0  0  0  0  0  0  0  0
   37.1860   28.7300   31.4360 H   0  0  0  0  0  0  0  0  0  0  0  0
   39.9090   26.0080   31.6450 Br  0  0  0  0  0  0  0  0  0  0  0  0
   38.9500   26.6920   33.1650 C   0  0  0  0  0  0  0  0  0  0  0  0
   39.4270   26.4940   34.4390 C   0  0  0  0  0  0  0  0  0  0  0  0
   38.7010   26.9930   35.4810 C   0  0  0  0  0  0  0  0  0  0  0  0
   37.5110   27.6840   35.2960 C   0  0  0  0  0  0  0  0  0  0  0  0
   37.0560   27.8650   33.9880 C   0  0  0  0  0  0  0  0  0  0  0  0
   37.7810   27.3680   32.9410 C   0  0  0  0  0  0  0  0  0  0  0  0
   39.1310   26.8050   36.4790 H   0  0  0  0  0  0  0  0  0  0  0  0
   37.0710   28.0050   36.2110 H   0  0  0  0  0  0  0  0  0  0  0  0
   36.1380   28.3950   34.0570 H   0  0  0  0  0  0  0  0  0  0  0  0
   41.6910   23.7510   35.2630 C   0  0  0  0  0  0  0  0  0  0  0  0
   42.9830   24.3200   35.1280 C   0  0  0  0  0  0  0  0  0  0  0  0
   43.0410   25.6500   34.7530 C   0  0  0  0  0  0  0  0  0  0  0  0
   41.8800   26.3580   34.5280 N   0  0  0  0  0  0  0  0  0  0  0  0
   40.6800   25.7630   34.6720 C   0  0  0  0  0  0  0  0  0  0  0  0
   40.6020   24.4740   35.0350 N   0  0  0  0  0  0  0  0  0  0  0  0
   41.6080   22.7060   35.5570 H   0  0  0  0  0  0  0  0  0  0  0  0
   43.8800   23.7530   35.3070 H   0  0  0  0  0  0  0  0  0  0  0  0
   44.0180   26.1140   34.6410 H   0  0  0  0  0  0  0  0  0  0  0  0
   35.8470   27.1040   31.3630 C   0  0  0  0  0  0  0  0  0  0  0  0
   35.1400   27.8810   31.1620 H   0  0  0  0  0  0  0  0  0  0  0  0
   35.5160   26.7000   32.3830 H   0  0  0  0  0  0  0  0  0  0  0  0
   35.9410   25.9550   30.5450 N   0  0  0  0  0  0  0  0  0  0  0  0
   35.4550   26.0440   29.6150 H   0  0  0  0  0  0  0  0  0  0  0  0
   35.6020   24.7050   31.1180 C   0  0  0  0  0  0  0  0  0  0  0  0
   35.1600   24.8020   32.1370 H   0  0  0  0  0  0  0  0  0  0  0  0
   34.8330   24.2010   30.4850 H   0  0  0  0  0  0  0  0  0  0  0  0
   36.8370   23.8600   31.1480 C   0  0  0  0  0  0  0  0  0  0  0  0
   37.0350   23.4080   30.1450 H   0  0  0  0  0  0  0  0  0  0  0  0
   37.7140   24.2130   31.6520 H   0  0  0  0  0  0  0  0  0  0  0  0
   38.1310   23.1200   33.6010 F   0  0  0  0  0  0  0  0  0  0  0  0
   37.0990   22.3620   33.1820 C   0  0  0  0  0  0  0  0  0  0  0  0
   36.4260   22.6570   32.0070 C   0  0  0  0  0  0  0  0  0  0  0  0
   35.3800   21.8380   31.6410 C   0  0  0  0  0  0  0  0  0  0  0  0
   34.8680   22.0840   30.7230 H   0  0  0  0  0  0  0  0  0  0  0  0
   35.0110   20.7600   32.4140 C   0  0  0  0  0  0  0  0  0  0  0  0
   34.1700   20.1530   32.0610 H   0  0  0  0  0  0  0  0  0  0  0  0
   35.6880   20.4740   33.5810 C   0  0  0  0  0  3  0  0  0  0  0  0
   36.7360   21.2840   33.9620 C   0  0  0  0  0  3  0  0  0  0  0  0
  1 10  1  0  0  0  0
  2  1  1  0  0  0  0
  3  1  1  0  0  0  0
  4  5  1  0  0  0  0
  5  6  1  0  0  0  0
  6 18  1  0  0  0  0
  6  7  2  0  0  0  0
  7 11  1  0  0  0  0
  8  7  1  0  0  0  0
  8 12  1  0  0  0  0
  9 13  1  0  0  0  0
  9  8  2  0  0  0  0
 10  5  2  0  0  0  0
 10  9  1  0  0  0  0
 14 20  1  0  0  0  0
 15 14  1  0  0  0  0
 15 21  1  0  0  0  0
 16 15  2  0  0  0  0
 17 18  2  0  0  0  0
 17 16  1  0  0  0  0
 18 19  1  0  0  0  0
 19 14  2  0  0  0  0
 22 16  1  0  0  0  0
 23  1  1  0  0  0  0
 23 25  1  0  0  0  0
 24 23  1  0  0  0  0
 26 28  1  0  0  0  0
 26 23  1  0  0  0  0
 27 26  1  0  0  0  0
 28 31  1  0  0  0  0
 28 29  1  0  0  0  0
 30 28  1  0  0  0  0
 31 33  1  0  0  0  0
 31 36  1  0  0  0  0
 32 31  1  0  0  0  0
 35 34  1  0  0  0  0
 35 42  1  0  0  0  0
 36 35  2  0  0  0  0
 37 36  1  0  0  0  0
 37 39  2  0  0  0  0
 38 37  1  0  0  0  0
 39 41  1  0  0  0  0
 40 39  1  0  0  0  0
 41 42  2  0  0  0  0
M  END
>  <minimizedAffinity>
-5.5492053

$$$$

 OpenBabel03262520143D

 42 44  0  0  0  0  0  0  0  0999 V2000
   38.6210   26.7700   32.0890 C   0  0  0  0  0  0  0  0  0  0  0  0
   39.0210   26.8500   33.1380 H   0  0  0  0  0  0  0  0  0  0  0  0
   39.4890   26.9630   31.4260 H   0  0  0  0  0  0  0  0  0  0  0  0
   37.0040   27.5650   34.6800 Br  0  0  0  0  0  0  0  0  0  0  0  0
   36.8220   28.3120   32.9170 C   0  0  0  0  0  0  0  0  0  0  0  0
   35.9090   29.3100   32.6720 C   0  0  0  0  0  0  0  0  0  0  0  0
   35.8170   29.7970   31.4000 C   0  0  0  0  0  0  0  0  0  0  0  0
   36.6050   29.3200   30.3610 C   0  0  0  0  0  0  0  0  0  0  0  0
   37.5210   28.3050   30.6470 C   0  0  0  0  0  0  0  0  0  0  0  0
   37.6180   27.8160   31.9200 C   0  0  0  0  0  0  0  0  0  0  0  0
   35.0690   30.5960   31.2610 H   0  0  0  0  0  0  0  0  0  0  0  0
   36.4080   29.8060   29.4350 H   0  0  0  0  0  0  0  0  0  0  0  0
   38.0100   28.0710   29.7330 H   0  0  0  0  0  0  0  0  0  0  0  0
   32.9870   29.7670   34.8110 C   0  0  0  0  0  0  0  0  0  0  0  0
   33.3900   30.7640   35.7340 C   0  0  0  0  0  0  0  0  0  0  0  0
   34.6730   31.2600   35.5940 C   0  0  0  0  0  0  0  0  0  0  0  0
   35.4940   30.7840   34.5950 N   0  0  0  0  0  0  0  0  0  0  0  0
   35.0560   29.8340   33.7460 C   0  0  0  0  0  0  0  0  0  0  0  0
   33.8140   29.3410   33.8650 N   0  0  0  0  0  0  0  0  0  0  0  0
   31.9820   29.3530   34.8920 H   0  0  0  0  0  0  0  0  0  0  0  0
   32.7360   31.1240   36.5100 H   0  0  0  0  0  0  0  0  0  0  0  0
   35.0110   32.0250   36.2880 H   0  0  0  0  0  0  0  0  0  0  0  0
   38.1810   25.3700   31.8660 C   0  0  0  0  0  0  0  0  0  0  0  0
   37.8350   25.2090   30.8660 H   0  0  0  0  0  0  0  0  0  0  0  0
   37.2270   25.2860   32.4960 H   0  0  0  0  0  0  0  0  0  0  0  0
   39.0900   24.4850   32.4890 N   0  0  0  0  0  0  0  0  0  0  0  0
   39.0080   23.4850   32.1720 H   0  0  0  0  0  0  0  0  0  0  0  0
   39.1720   24.5080   33.9040 C   0  0  0  0  0  0  0  0  0  0  0  0
   40.1950   24.2780   34.2810 H   0  0  0  0  0  0  0  0  0  0  0  0
   38.9190   25.5300   34.2750 H   0  0  0  0  0  0  0  0  0  0  0  0
   38.1720   23.5330   34.4390 C   0  0  0  0  0  0  0  0  0  0  0  0
   37.1340   23.9430   34.3610 H   0  0  0  0  0  0  0  0  0  0  0  0
   38.2530   22.4930   34.1940 H   0  0  0  0  0  0  0  0  0  0  0  0
   40.2580   22.0180   35.7000 F   0  0  0  0  0  0  0  0  0  0  0  0
   39.4730   22.7780   36.4870 C   0  0  0  0  0  0  0  0  0  0  0  0
   38.4440   23.5370   35.9490 C   0  0  0  0  0  0  0  0  0  0  0  0
   37.6800   24.2900   36.8140 C   0  0  0  0  0  0  0  0  0  0  0  0
   36.8840   24.8730   36.3770 H   0  0  0  0  0  0  0  0  0  0  0  0
   37.9270   24.2940   38.1680 C   0  0  0  0  0  0  0  0  0  0  0  0
   37.2790   24.9170   38.7960 H   0  0  0  0  0  0  0  0  0  0  0  0
   38.9520   23.5350   38.6930 C   0  0  0  0  0  3  0  0  0  0  0  0
   39.7260   22.7760   37.8410 C   0  0  0  0  0  3  0  0  0  0  0  0
  1  2  1  0  0  0  0
  3  1  1  0  0  0  0
  5  4  1  0  0  0  0
  6  5  1  0  0  0  0
  6 18  1  0  0  0  0
  7  6  2  0  0  0  0
  8  9  2  0  0  0  0
  8  7  1  0  0  0  0
  9 10  1  0  0  0  0
 10  1  1  0  0  0  0
 10  5  2  0  0  0  0
 11  7  1  0  0  0  0
 12  8  1  0  0  0  0
 13  9  1  0  0  0  0
 14 20  1  0  0  0  0
 14 15  1  0  0  0  0
 15 21  1  0  0  0  0
 16 15  2  0  0  0  0
 16 22  1  0  0  0  0
 17 16  1  0  0  0  0
 18 19  1  0  0  0  0
 18 17  2  0  0  0  0
 19 14  2  0  0  0  0
 23  1  1  0  0  0  0
 23 26  1  0  0  0  0
 23 25  1  0  0  0  0
 24 23  1  0  0  0  0
 26 28  1  0  0  0  0
 27 26  1  0  0  0  0
 28 30  1  0  0  0  0
 28 29  1  0  0  0  0
 28 31  1  0  0  0  0
 31 36  1  0  0  0  0
 32 31  1  0  0  0  0
 33 31  1  0  0  0  0
 34 35  1  0  0  0  0
 35 42  1  0  0  0  0
 36 35  2  0  0  0  0
 36 37  1  0  0  0  0
 37 39  2  0  0  0  0
 38 37  1  0  0  0  0
 39 41  1  0  0  0  0
 39 40  1  0  0  0  0
 42 41  2  0  0  0  0
M  END
>  <minimizedAffinity>
-5.44525242

$$$$

 OpenBabel03262520143D

 42 44  0  0  0  0  0  0  0  0999 V2000
   41.5990   26.5070   34.0480 C   0  0  0  0  0  0  0  0  0  0  0  0
   41.9180   27.5740   34.2090 H   0  0  0  0  0  0  0  0  0  0  0  0
   41.8190   26.2900   32.9820 H   0  0  0  0  0  0  0  0  0  0  0  0
   39.8210   25.7180   31.5640 Br  0  0  0  0  0  0  0  0  0  0  0  0
   39.2230   26.0990   33.3510 C   0  0  0  0  0  0  0  0  0  0  0  0
   37.8870   26.0440   33.6680 C   0  0  0  0  0  0  0  0  0  0  0  0
   37.5180   26.3340   34.9500 C   0  0  0  0  0  0  0  0  0  0  0  0
   38.4400   26.6790   35.9300 C   0  0  0  0  0  0  0  0  0  0  0  0
   39.7890   26.7260   35.5710 C   0  0  0  0  0  0  0  0  0  0  0  0
   40.1630   26.4350   34.2890 C   0  0  0  0  0  0  0  0  0  0  0  0
   36.4350   26.2730   35.1480 H   0  0  0  0  0  0  0  0  0  0  0  0
   37.9880   26.8740   36.8740 H   0  0  0  0  0  0  0  0  0  0  0  0
   40.3240   27.0200   36.4420 H   0  0  0  0  0  0  0  0  0  0  0  0
   35.3590   26.4340   31.0640 C   0  0  0  0  0  0  0  0  0  0  0  0
   34.9910   25.1040   30.7400 C   0  0  0  0  0  0  0  0  0  0  0  0
   35.6310   24.0950   31.4360 C   0  0  0  0  0  0  0  0  0  0  0  0
   36.5760   24.4030   32.3910 N   0  0  0  0  0  0  0  0  0  0  0  0
   36.8840   25.6870   32.6550 C   0  0  0  0  0  0  0  0  0  0  0  0
   36.2740   26.6810   31.9920 N   0  0  0  0  0  0  0  0  0  0  0  0
   34.8740   27.2550   30.5360 H   0  0  0  0  0  0  0  0  0  0  0  0
   34.2510   24.8810   29.9910 H   0  0  0  0  0  0  0  0  0  0  0  0
   35.3710   23.0640   31.2090 H   0  0  0  0  0  0  0  0  0  0  0  0
   42.4680   25.6330   34.8770 C   0  0  0  0  0  0  0  0  0  0  0  0
   42.5350   25.9740   35.8890 H   0  0  0  0  0  0  0  0  0  0  0  0
   43.5170   25.8280   34.4600 H   0  0  0  0  0  0  0  0  0  0  0  0
   42.2110   24.2800   34.5630 N   0  0  0  0  0  0  0  0  0  0  0  0
   41.4630   24.1370   33.8370 H   0  0  0  0  0  0  0  0  0  0  0  0
   41.9790   23.3840   35.6360 C   0  0  0  0  0  0  0  0  0  0  0  0
   42.8840   22.7930   35.9100 H   0  0  0  0  0  0  0  0  0  0  0  0
   41.6890   23.9610   36.5470 H   0  0  0  0  0  0  0  0  0  0  0  0
   40.8490   22.4830   35.2500 C   0  0  0  0  0  0  0  0  0  0  0  0
   40.3950   22.8070   34.2790 H   0  0  0  0  0  0  0  0  0  0  0  0
   40.9500   21.4220   35.3550 H   0  0  0  0  0  0  0  0  0  0  0  0
   38.0670   22.7750   34.6090 F   0  0  0  0  0  0  0  0  0  0  0  0
   38.4340   22.9380   35.8940 C   0  0  0  0  0  0  0  0  0  0  0  0
   39.7610   22.8130   36.2790 C   0  0  0  0  0  0  0  0  0  0  0  0
   40.0640   22.9930   37.6110 C   0  0  0  0  0  0  0  0  0  0  0  0
   41.1010   22.8930   37.8920 H   0  0  0  0  0  0  0  0  0  0  0  0
   39.0850   23.2870   38.5340 C   0  0  0  0  0  0  0  0  0  0  0  0
   39.3990   23.4170   39.5760 H   0  0  0  0  0  0  0  0  0  0  0  0
   37.7690   23.4100   38.1410 C   0  0  0  0  0  3  0  0  0  0  0  0
   37.4490   23.2320   36.8120 C   0  0  0  0  0  3  0  0  0  0  0  0
  1  2  1  0  0  0  0
  1 10  1  0  0  0  0
  1 23  1  0  0  0  0
  3  1  1  0  0  0  0
  4  5  1  0  0  0  0
  5  6  2  0  0  0  0
  5 10  1  0  0  0  0
  6  7  1  0  0  0  0
  7 11  1  0  0  0  0
  7  8  2  0  0  0  0
  8 12  1  0  0  0  0
  9  8  1  0  0  0  0
  9 13  1  0  0  0  0
 10  9  2  0  0  0  0
 14 19  1  0  0  0  0
 15 14  2  0  0  0  0
 15 16  1  0  0  0  0
 16 17  2  0  0  0  0
 17 18  1  0  0  0  0
 18  6  1  0  0  0  0
 19 18  2  0  0  0  0
 20 14  1  0  0  0  0
 21 15  1  0  0  0  0
 22 16  1  0  0  0  0
 23 24  1  0  0  0  0
 25 23  1  0  0  0  0
 26 23  1  0  0  0  0
 26 28  1  0  0  0  0
 27 26  1  0  0  0  0
 28 29  1  0  0  0  0
 28 30  1  0  0  0  0
 31 33  1  0  0  0  0
 31 28  1  0  0  0  0
 31 36  1  0  0  0  0
 32 31  1  0  0  0  0
 34 35  1  0  0  0  0
 35 36  2  0  0  0  0
 35 42  1  0  0  0  0
 36 37  1  0  0  0  0
 37 38  1  0  0  0  0
 37 39  2  0  0  0  0
 39 40  1  0  0  0  0
 41 39  1  0  0  0  0
 42 41  2  0  0  0  0
M  END
>  <minimizedAffinity>
-5.38170624

$$$$

 OpenBabel03262520143D

 42 44  0  0  0  0  0  0  0  0999 V2000
   37.0630   27.6930   31.5310 C   0  0  0  0  0  0  0  0  0  0  0  0
   35.9800   27.4260   31.6810 H   0  0  0  0  0  0  0  0  0  0  0  0
   37.4430   26.9740   30.7750 H   0  0  0  0  0  0  0  0  0  0  0  0
   40.0260   26.6230   31.3520 Br  0  0  0  0  0  0  0  0  0  0  0  0
   39.0340   27.0470   32.9440 C   0  0  0  0  0  0  0  0  0  0  0  0
   39.6060   26.8960   34.1850 C   0  0  0  0  0  0  0  0  0  0  0  0
   38.8530   27.2040   35.2800 C   0  0  0  0  0  0  0  0  0  0  0  0
   37.5440   27.6560   35.1810 C   0  0  0  0  0  0  0  0  0  0  0  0
   36.9950   27.7960   33.9030 C   0  0  0  0  0  0  0  0  0  0  0  0
   37.7470   27.4910   32.8030 C   0  0  0  0  0  0  0  0  0  0  0  0
   39.3620   27.0650   36.2490 H   0  0  0  0  0  0  0  0  0  0  0  0
   37.0990   27.8500   36.1280 H   0  0  0  0  0  0  0  0  0  0  0  0
   35.9960   28.1340   34.0380 H   0  0  0  0  0  0  0  0  0  0  0  0
   43.2530   26.8550   34.0270 C   0  0  0  0  0  0  0  0  0  0  0  0
   43.6050   25.5900   34.5580 C   0  0  0  0  0  0  0  0  0  0  0  0
   42.5650   24.7720   34.9620 C   0  0  0  0  0  0  0  0  0  0  0  0
   41.2600   25.2000   34.8390 N   0  0  0  0  0  0  0  0  0  0  0  0
   40.9870   26.4150   34.3270 C   0  0  0  0  0  0  0  0  0  0  0  0
   41.9820   27.2230   33.9290 N   0  0  0  0  0  0  0  0  0  0  0  0
   44.0470   27.5250   33.6990 H   0  0  0  0  0  0  0  0  0  0  0  0
   44.6300   25.2700   34.6470 H   0  0  0  0  0  0  0  0  0  0  0  0
   42.8040   23.7950   35.3730 H   0  0  0  0  0  0  0  0  0  0  0  0
   37.1280   29.0530   30.9370 C   0  0  0  0  0  0  0  0  0  0  0  0
   37.9790   29.1760   30.3010 H   0  0  0  0  0  0  0  0  0  0  0  0
   37.3660   29.7240   31.8350 H   0  0  0  0  0  0  0  0  0  0  0  0
   35.8340   29.4520   30.5340 N   0  0  0  0  0  0  0  0  0  0  0  0
   35.6980   29.4890   29.4900 H   0  0  0  0  0  0  0  0  0  0  0  0
   35.2980   30.6330   31.1040 C   0  0  0  0  0  0  0  0  0  0  0  0
   36.0820   31.3850   31.3580 H   0  0  0  0  0  0  0  0  0  0  0  0
   34.6140   31.1240   30.3710 H   0  0  0  0  0  0  0  0  0  0  0  0
   34.5150   30.2450   32.3180 C   0  0  0  0  0  0  0  0  0  0  0  0
   33.4740   30.6520   32.2680 H   0  0  0  0  0  0  0  0  0  0  0  0
   34.5780   29.2460   32.6990 H   0  0  0  0  0  0  0  0  0  0  0  0
   34.3660   29.5620   35.1010 F   0  0  0  0  0  0  0  0  0  0  0  0
   35.0500   30.6720   34.7640 C   0  0  0  0  0  0  0  0  0  0  0  0
   35.1640   31.0660   33.4390 C   0  0  0  0  0  0  0  0  0  0  0  0
   35.8790   32.2130   33.1680 C   0  0  0  0  0  0  0  0  0  0  0  0
   35.9570   32.5030   32.1320 H   0  0  0  0  0  0  0  0  0  0  0  0
   36.4630   32.9460   34.1760 C   0  0  0  0  0  0  0  0  0  0  0  0
   37.0170   33.8470   33.8870 H   0  0  0  0  0  0  0  0  0  0  0  0
   36.3430   32.5460   35.4910 C   0  0  0  0  0  3  0  0  0  0  0  0
   35.6310   31.4010   35.7790 C   0  0  0  0  0  3  0  0  0  0  0  0
  1  2  1  0  0  0  0
  1 10  1  0  0  0  0
  3  1  1  0  0  0  0
  4  5  1  0  0  0  0
  5  6  1  0  0  0  0
  6 18  1  0  0  0  0
  6  7  2  0  0  0  0
  7 11  1  0  0  0  0
  8  7  1  0  0  0  0
  8 12  1  0  0  0  0
  9 13  1  0  0  0  0
  9  8  2  0  0  0  0
 10  5  2  0  0  0  0
 10  9  1  0  0  0  0
 14 15  1  0  0  0  0
 15 21  1  0  0  0  0
 15 16  2  0  0  0  0
 16 22  1  0  0  0  0
 17 16  1  0  0  0  0
 18 17  2  0  0  0  0
 19 14  2  0  0  0  0
 19 18  1  0  0  0  0
 20 14  1  0  0  0  0
 23  1  1  0  0  0  0
 23 25  1  0  0  0  0
 24 23  1  0  0  0  0
 26 23  1  0  0  0  0
 26 28  1  0  0  0  0
 27 26  1  0  0  0  0
 28 29  1  0  0  0  0
 28 31  1  0  0  0  0
 30 28  1  0  0  0  0
 31 33  1  0  0  0  0
 31 36  1  0  0  0  0
 32 31  1  0  0  0  0
 35 34  1  0  0  0  0
 35 42  1  0  0  0  0
 36 35  2  0  0  0  0
 37 36  1  0  0  0  0
 37 39  2  0  0  0  0
 38 37  1  0  0  0  0
 39 41  1  0  0  0  0
 40 39  1  0  0  0  0
 41 42  2  0  0  0  0
M  END
>  <minimizedAffinity>
-5.27852249

$$$$

 OpenBabel03262520143D

 42 44  0  0  0  0  0  0  0  0999 V2000
   37.3910   23.9250   31.0440 C   0  0  0  0  0  0  0  0  0  0  0  0
   37.3460   23.2680   30.1310 H   0  0  0  0  0  0  0  0  0  0  0  0
   38.3980   24.3910   31.0230 H   0  0  0  0  0  0  0  0  0  0  0  0
   39.2070   24.6680   33.5150 Br  0  0  0  0  0  0  0  0  0  0  0  0
   37.9470   23.2200   33.3870 C   0  0  0  0  0  0  0  0  0  0  0  0
   37.7550   22.3660   34.4470 C   0  0  0  0  0  0  0  0  0  0  0  0
   36.8550   21.3510   34.2980 C   0  0  0  0  0  0  0  0  0  0  0  0
   36.1400   21.1560   33.1230 C   0  0  0  0  0  0  0  0  0  0  0  0
   36.3630   22.0430   32.0670 C   0  0  0  0  0  0  0  0  0  0  0  0
   37.2610   23.0630   32.2130 C   0  0  0  0  0  0  0  0  0  0  0  0
   36.7400   20.6970   35.1780 H   0  0  0  0  0  0  0  0  0  0  0  0
   35.4810   20.3210   33.1720 H   0  0  0  0  0  0  0  0  0  0  0  0
   35.7420   21.7230   31.2660 H   0  0  0  0  0  0  0  0  0  0  0  0
   40.4300   22.0710   36.9120 C   0  0  0  0  0  0  0  0  0  0  0  0
   39.9570   22.8140   38.0230 C   0  0  0  0  0  0  0  0  0  0  0  0
   38.7130   23.4050   37.8920 C   0  0  0  0  0  0  0  0  0  0  0  0
   37.9960   23.2580   36.7250 N   0  0  0  0  0  0  0  0  0  0  0  0
   38.4980   22.5390   35.7020 C   0  0  0  0  0  0  0  0  0  0  0  0
   39.7020   21.9580   35.8090 N   0  0  0  0  0  0  0  0  0  0  0  0
   41.4060   21.5920   36.9800 H   0  0  0  0  0  0  0  0  0  0  0  0
   40.5310   22.9190   38.9280 H   0  0  0  0  0  0  0  0  0  0  0  0
   38.3240   23.9820   38.7270 H   0  0  0  0  0  0  0  0  0  0  0  0
   36.3860   25.0070   30.8870 C   0  0  0  0  0  0  0  0  0  0  0  0
   35.5970   24.9320   31.6060 H   0  0  0  0  0  0  0  0  0  0  0  0
   35.8710   24.7510   29.8960 H   0  0  0  0  0  0  0  0  0  0  0  0
   37.0470   26.2300   30.6330 N   0  0  0  0  0  0  0  0  0  0  0  0
   38.0500   26.1260   30.3310 H   0  0  0  0  0  0  0  0  0  0  0  0
   36.9730   27.2410   31.6230 C   0  0  0  0  0  0  0  0  0  0  0  0
   37.4520   26.9400   32.5840 H   0  0  0  0  0  0  0  0  0  0  0  0
   37.5140   28.1500   31.2690 H   0  0  0  0  0  0  0  0  0  0  0  0
   35.5310   27.5810   31.8280 C   0  0  0  0  0  0  0  0  0  0  0  0
   35.0420   27.8470   30.8580 H   0  0  0  0  0  0  0  0  0  0  0  0
   34.9250   26.9780   32.4740 H   0  0  0  0  0  0  0  0  0  0  0  0
   35.6500   30.1430   30.5410 F   0  0  0  0  0  0  0  0  0  0  0  0
   35.6380   30.1180   31.8880 C   0  0  0  0  0  0  0  0  0  0  0  0
   35.5820   28.9170   32.5790 C   0  0  0  0  0  0  0  0  0  0  0  0
   35.5730   28.9680   33.9570 C   0  0  0  0  0  0  0  0  0  0  0  0
   35.5300   28.0240   34.4770 H   0  0  0  0  0  0  0  0  0  0  0  0
   35.6170   30.1690   34.6280 C   0  0  0  0  0  0  0  0  0  0  0  0
   35.6070   30.1330   35.7240 H   0  0  0  0  0  0  0  0  0  0  0  0
   35.6730   31.3570   33.9310 C   0  0  0  0  0  3  0  0  0  0  0  0
   35.6830   31.3240   32.5530 C   0  0  0  0  0  3  0  0  0  0  0  0
  1 10  1  0  0  0  0
  2  1  1  0  0  0  0
  3  1  1  0  0  0  0
  5  4  1  0  0  0  0
  5  6  1  0  0  0  0
  6 18  1  0  0  0  0
  7  6  2  0  0  0  0
  7 11  1  0  0  0  0
  8 12  1  0  0  0  0
  8  7  1  0  0  0  0
  9 10  1  0  0  0  0
  9  8  2  0  0  0  0
 10  5  2  0  0  0  0
 13  9  1  0  0  0  0
 14 20  1  0  0  0  0
 14 15  1  0  0  0  0
 15 21  1  0  0  0  0
 16 15  2  0  0  0  0
 16 22  1  0  0  0  0
 17 16  1  0  0  0  0
 18 19  1  0  0  0  0
 18 17  2  0  0  0  0
 19 14  2  0  0  0  0
 23  1  1  0  0  0  0
 23 24  1  0  0  0  0
 25 23  1  0  0  0  0
 26 23  1  0  0  0  0
 26 28  1  0  0  0  0
 27 26  1  0  0  0  0
 28 31  1  0  0  0  0
 28 29  1  0  0  0  0
 30 28  1  0  0  0  0
 31 33  1  0  0  0  0
 31 36  1  0  0  0  0
 32 31  1  0  0  0  0
 34 35  1  0  0  0  0
 35 42  2  0  0  0  0
 35 36  1  0  0  0  0
 36 37  2  0  0  0  0
 37 38  1  0  0  0  0
 37 39  1  0  0  0  0
 39 40  1  0  0  0  0
 41 39  2  0  0  0  0
 42 41  1  0  0  0  0
M  END
>  <minimizedAffinity>
-5.20242453

$$$$

 OpenBabel03262520143D

 42 44  0  0  0  0  0  0  0  0999 V2000
   36.3870   26.4750   32.1850 C   0  0  0  0  0  0  0  0  0  0  0  0
   35.4230   27.0400   32.3220 H   0  0  0  0  0  0  0  0  0  0  0  0
   36.0880   25.4290   31.9640 H   0  0  0  0  0  0  0  0  0  0  0  0
   37.9790   23.8700   32.9810 Br  0  0  0  0  0  0  0  0  0  0  0  0
   37.8730   25.5180   33.9660 C   0  0  0  0  0  0  0  0  0  0  0  0
   38.5370   25.6620   35.1620 C   0  0  0  0  0  0  0  0  0  0  0  0
   38.4190   26.8500   35.8220 C   0  0  0  0  0  0  0  0  0  0  0  0
   37.6580   27.9030   35.3320 C   0  0  0  0  0  0  0  0  0  0  0  0
   36.9970   27.7200   34.1150 C   0  0  0  0  0  0  0  0  0  0  0  0
   37.1140   26.5320   33.4480 C   0  0  0  0  0  0  0  0  0  0  0  0
   38.9730   26.9100   36.7740 H   0  0  0  0  0  0  0  0  0  0  0  0
   37.6720   28.7560   35.9680 H   0  0  0  0  0  0  0  0  0  0  0  0
   36.4650   28.6200   33.9210 H   0  0  0  0  0  0  0  0  0  0  0  0
   39.4640   22.7710   37.1890 C   0  0  0  0  0  0  0  0  0  0  0  0
   40.7970   22.4910   36.7980 C   0  0  0  0  0  0  0  0  0  0  0  0
   41.3500   23.3150   35.8350 C   0  0  0  0  0  0  0  0  0  0  0  0
   40.6110   24.3490   35.3020 N   0  0  0  0  0  0  0  0  0  0  0  0
   39.3470   24.5670   35.7120 C   0  0  0  0  0  0  0  0  0  0  0  0
   38.7930   23.7790   36.6470 N   0  0  0  0  0  0  0  0  0  0  0  0
   38.9970   22.1420   37.9460 H   0  0  0  0  0  0  0  0  0  0  0  0
   41.3610   21.6790   37.2250 H   0  0  0  0  0  0  0  0  0  0  0  0
   42.3710   23.1250   35.5150 H   0  0  0  0  0  0  0  0  0  0  0  0
   37.0750   27.0140   30.9850 C   0  0  0  0  0  0  0  0  0  0  0  0
   37.4510   26.2380   30.3520 H   0  0  0  0  0  0  0  0  0  0  0  0
   38.0230   27.4940   31.4140 H   0  0  0  0  0  0  0  0  0  0  0  0
   36.3350   28.1020   30.4680 N   0  0  0  0  0  0  0  0  0  0  0  0
   36.2010   28.0780   29.4240 H   0  0  0  0  0  0  0  0  0  0  0  0
   36.7310   29.4100   30.8450 C   0  0  0  0  0  0  0  0  0  0  0  0
   37.2330   29.4400   31.8400 H   0  0  0  0  0  0  0  0  0  0  0  0
   37.4670   29.8040   30.1050 H   0  0  0  0  0  0  0  0  0  0  0  0
   35.5140   30.2810   30.8330 C   0  0  0  0  0  0  0  0  0  0  0  0
   35.7860   31.3410   30.6020 H   0  0  0  0  0  0  0  0  0  0  0  0
   34.6180   29.9420   30.3530 H   0  0  0  0  0  0  0  0  0  0  0  0
   36.6270   32.1020   32.7520 F   0  0  0  0  0  0  0  0  0  0  0  0
   35.6810   31.2430   33.1780 C   0  0  0  0  0  0  0  0  0  0  0  0
   35.0980   30.3330   32.3090 C   0  0  0  0  0  0  0  0  0  0  0  0
   34.1370   29.4850   32.8140 C   0  0  0  0  0  0  0  0  0  0  0  0
   33.6960   28.7840   32.1220 H   0  0  0  0  0  0  0  0  0  0  0  0
   33.7640   29.5350   34.1380 C   0  0  0  0  0  0  0  0  0  0  0  0
   32.9930   28.8300   34.4700 H   0  0  0  0  0  0  0  0  0  0  0  0
   34.3500   30.4430   34.9950 C   0  0  0  0  0  3  0  0  0  0  0  0
   35.3130   31.2990   34.5050 C   0  0  0  0  0  3  0  0  0  0  0  0
  1  2  1  0  0  0  0
  1 10  1  0  0  0  0
  3  1  1  0  0  0  0
  4  5  1  0  0  0  0
  5  6  1  0  0  0  0
  6 18  1  0  0  0  0
  6  7  2  0  0  0  0
  7 11  1  0  0  0  0
  8  7  1  0  0  0  0
  8 12  1  0  0  0  0
  9  8  2  0  0  0  0
 10  5  2  0  0  0  0
 10  9  1  0  0  0  0
 13  9  1  0  0  0  0
 14 20  1  0  0  0  0
 15 14  1  0  0  0  0
 15 21  1  0  0  0  0
 16 15  2  0  0  0  0
 17 18  2  0  0  0  0
 17 16  1  0  0  0  0
 18 19  1  0  0  0  0
 19 14  2  0  0  0  0
 22 16  1  0  0  0  0
 23 25  1  0  0  0  0
 23  1  1  0  0  0  0
 24 23  1  0  0  0  0
 26 28  1  0  0  0  0
 26 23  1  0  0  0  0
 27 26  1  0  0  0  0
 28 29  1  0  0  0  0
 30 28  1  0  0  0  0
 31 28  1  0  0  0  0
 31 36  1  0  0  0  0
 32 31  1  0  0  0  0
 33 31  1  0  0  0  0
 34 35  1  0  0  0  0
 35 42  1  0  0  0  0
 36 37  1  0  0  0  0
 36 35  2  0  0  0  0
 37 39  2  0  0  0  0
 38 37  1  0  0  0  0
 39 40  1  0  0  0  0
 39 41  1  0  0  0  0
 42 41  2  0  0  0  0
M  END
>  <minimizedAffinity>
-5.17004681

$$$$
