
 OpenBabel03272500263D

 34 36  0  0  0  0  0  0  0  0999 V2000
   39.7930   32.2780   46.9770 C   0  0  0  0  0  0  0  0  0  0  0  0
   40.1550   31.3030   47.4210 H   0  0  0  0  0  0  0  0  0  0  0  0
   40.6590   32.9680   47.1980 H   0  0  0  0  0  0  0  0  0  0  0  0
   39.6950   32.1720   45.5560 C   0  0  0  0  0  0  0  0  0  0  0  0
   39.7190   33.2940   44.7690 C   0  0  0  0  0  0  0  0  0  0  0  0
   39.6240   33.2040   43.3670 C   0  0  0  0  0  0  0  0  0  0  0  0
   39.5060   31.9120   42.8550 N   0  0  0  0  0  0  0  0  0  0  0  0
   39.4870   30.8420   43.6640 C   0  0  0  0  0  0  0  0  0  0  0  0
   39.5810   30.9780   45.0000 N   0  0  0  0  0  0  0  0  0  0  0  0
   39.8080   34.3090   45.1290 H   0  0  0  0  0  0  0  0  0  0  0  0
   39.6400   34.0650   42.7430 H   0  0  0  0  0  0  0  0  0  0  0  0
   41.5430   29.7060   42.2770 F   0  0  0  0  0  0  0  0  0  0  0  0
   40.4140   28.9460   42.3850 C   0  0  0  0  0  0  0  0  0  0  0  0
   39.3630   29.5050   43.0850 C   0  0  0  0  0  0  0  0  0  0  0  0
   38.2300   28.7630   43.2030 C   0  0  0  0  0  0  0  0  0  0  0  0
   37.3710   29.1200   43.7280 H   0  0  0  0  0  0  0  0  0  0  0  0
   38.1720   27.5070   42.6340 C   0  0  0  0  0  0  0  0  0  0  0  0
   37.3150   26.8330   42.6710 H   0  0  0  0  0  0  0  0  0  0  0  0
   39.2420   26.9750   41.9400 C   0  0  0  0  0  0  0  0  0  0  0  0
   40.4100   27.6970   41.7970 C   0  0  0  0  0  0  0  0  0  0  0  0
   38.6300   32.6860   47.7710 C   0  0  0  0  0  0  0  0  0  0  0  0
   37.8350   33.2270   47.1990 H   0  0  0  0  0  0  0  0  0  0  0  0
   38.9150   33.4420   48.5610 H   0  0  0  0  0  0  0  0  0  0  0  0
   37.9590   31.5980   48.5090 C   0  0  0  0  0  0  0  0  0  0  0  0
   37.0850   30.7310   47.8720 C   0  0  0  0  0  0  0  0  0  0  0  0
   36.6180   29.8310   48.8000 C   0  0  0  0  0  0  0  0  0  0  0  0
   37.1870   30.1390   49.9580 N   0  0  0  0  0  0  0  0  0  0  0  0
   37.9640   31.1730   49.7570 N   0  0  0  0  0  0  0  0  0  0  0  0
   36.7920   30.7290   46.8230 H   0  0  0  0  0  0  0  0  0  0  0  0
   35.9120   29.0040   48.6490 H   0  0  0  0  0  0  0  0  0  0  0  0
   37.0230   29.4880   51.2560 C   0  0  0  0  0  0  0  0  0  0  0  0
   37.8170   28.3520   51.3190 F   0  0  0  0  0  0  0  0  0  0  0  0
   35.7220   29.1030   51.4740 F   0  0  0  0  0  0  0  0  0  0  0  0
   37.4330   30.3000   52.2890 F   0  0  0  0  0  0  0  0  0  0  0  0
  1  3  1  0  0  0  0
  1  2  1  0  0  0  0
  1 21  1  0  0  0  0
  4  1  1  0  0  0  0
  5 10  1  0  0  0  0
  5  4  2  0  0  0  0
  6  5  1  0  0  0  0
  7  6  2  0  0  0  0
  7  8  1  0  0  0  0
  8  9  2  0  0  0  0
  9  4  1  0  0  0  0
 11  6  1  0  0  0  0
 12 13  1  0  0  0  0
 13 14  1  0  0  0  0
 14 15  2  0  0  0  0
 14  8  1  0  0  0  0
 15 16  1  0  0  0  0
 17 18  1  0  0  0  0
 17 15  1  0  0  0  0
 19 17  2  0  0  0  0
 20 19  1  0  0  0  0
 20 13  2  0  0  0  0
 21 24  1  0  0  0  0
 21 23  1  0  0  0  0
 22 21  1  0  0  0  0
 24 28  2  0  0  0  0
 25 24  1  0  0  0  0
 25 26  2  0  0  0  0
 26 27  1  0  0  0  0
 27 31  1  0  0  0  0
 28 27  1  0  0  0  0
 29 25  1  0  0  0  0
 30 26  1  0  0  0  0
 31 32  1  0  0  0  0
 31 33  1  0  0  0  0
 31 34  1  0  0  0  0
M  END
>  <minimizedAffinity>
-6.24301672

>  <minimizedRMSD>
1.50172031

$$$$
