
 OpenBabel03262520233D

 32 34  0  0  0  0  0  0  0  0999 V2000
   39.8600   24.6070   34.9560 C   0  0  0  0  0  0  0  0  0  0  0  0
   40.5780   25.8180   34.9210 C   0  0  0  0  0  0  0  0  0  0  0  0
   40.2820   26.8960   34.1500 C   0  0  0  0  0  0  0  0  0  0  0  0
   39.2190   26.8690   33.3220 C   0  0  0  0  0  0  0  0  0  0  0  0
   38.5270   25.7090   33.3490 C   0  0  0  0  0  0  0  0  0  0  0  0
   38.8620   24.6980   34.1180 N   0  0  0  0  0  0  0  0  0  0  0  0
   41.4900   25.9080   35.5980 H   0  0  0  0  0  0  0  0  0  0  0  0
   40.9580   27.7980   34.2350 H   0  0  0  0  0  0  0  0  0  0  0  0
   38.9900   27.7110   32.7200 H   0  0  0  0  0  0  0  0  0  0  0  0
   41.5320   23.0010   35.4350 C   0  0  0  0  0  0  0  0  0  0  0  0
   40.2830   23.5480   35.8580 C   0  0  0  0  0  0  0  0  0  0  0  0
   39.7300   23.0230   36.9970 C   0  0  0  0  0  0  0  0  0  0  0  0
   40.4240   22.0210   37.6310 N   0  0  0  0  0  0  0  0  0  0  0  0
   41.5900   21.5230   37.2210 C   0  0  0  0  0  0  0  0  0  0  0  0
   42.1320   22.0310   36.1110 N   0  0  0  0  0  0  0  0  0  0  0  0
   42.1450   20.5000   38.0160 N   0  0  0  0  0  0  0  0  0  0  0  0
   42.0780   23.3180   34.5590 H   0  0  0  0  0  0  0  0  0  0  0  0
   42.1190   19.5520   37.5830 H   0  0  0  0  0  0  0  0  0  0  0  0
   42.5250   20.7760   38.9490 H   0  0  0  0  0  0  0  0  0  0  0  0
   38.4520   23.5410   37.4850 C   0  0  0  0  0  0  0  0  0  0  0  0
   38.2100   23.0410   38.6780 F   0  0  0  0  0  0  0  0  0  0  0  0
   38.3810   24.9200   37.5280 F   0  0  0  0  0  0  0  0  0  0  0  0
   37.3850   23.1420   36.6270 F   0  0  0  0  0  0  0  0  0  0  0  0
   36.8870   27.8230   32.6400 F   0  0  0  0  0  0  0  0  0  0  0  0
   36.5250   26.5940   32.1460 C   0  0  0  0  0  0  0  0  0  0  0  0
   37.3250   25.5300   32.4850 C   0  0  0  0  0  0  0  0  0  0  0  0
   36.9270   24.3210   31.9710 C   0  0  0  0  0  0  0  0  0  0  0  0
   37.5050   23.4390   32.1940 H   0  0  0  0  0  0  0  0  0  0  0  0
   35.8100   24.1920   31.1760 C   0  0  0  0  0  0  0  0  0  0  0  0
   35.5580   23.2040   30.8070 H   0  0  0  0  0  0  0  0  0  0  0  0
   35.0470   25.2960   30.8690 C   0  0  0  0  0  3  0  0  0  0  0  0
   35.3980   26.5280   31.3560 C   0  0  0  0  0  3  0  0  0  0  0  0
  1 11  1  0  0  0  0
  2  1  1  0  0  0  0
  2  7  1  0  0  0  0
  3  8  1  0  0  0  0
  3  2  2  0  0  0  0
  4  5  2  0  0  0  0
  4  3  1  0  0  0  0
  5  6  1  0  0  0  0
  6  1  2  0  0  0  0
  9  4  1  0  0  0  0
 10 11  2  0  0  0  0
 10 15  1  0  0  0  0
 11 12  1  0  0  0  0
 12 20  1  0  0  0  0
 12 13  2  0  0  0  0
 14 13  1  0  0  0  0
 14 16  1  0  0  0  0
 15 14  2  0  0  0  0
 16 19  1  0  0  0  0
 17 10  1  0  0  0  0
 18 16  1  0  0  0  0
 20 22  1  0  0  0  0
 20 21  1  0  0  0  0
 23 20  1  0  0  0  0
 25 26  1  0  0  0  0
 25 24  1  0  0  0  0
 26  5  1  0  0  0  0
 27 28  1  0  0  0  0
 27 26  2  0  0  0  0
 29 27  1  0  0  0  0
 30 29  1  0  0  0  0
 31 29  2  0  0  0  0
 31 32  1  0  0  0  0
 32 25  2  0  0  0  0
M  END
>  <minimizedAffinity>
-6.78255653

$$$$

 OpenBabel03262520233D

 32 34  0  0  0  0  0  0  0  0999 V2000
   37.7760   25.3450   32.4510 C   0  0  0  0  0  0  0  0  0  0  0  0
   36.8310   26.2090   31.8670 C   0  0  0  0  0  0  0  0  0  0  0  0
   35.6820   25.8300   31.2490 C   0  0  0  0  0  0  0  0  0  0  0  0
   35.3590   24.5260   31.1540 C   0  0  0  0  0  0  0  0  0  0  0  0
   36.2630   23.6910   31.7110 C   0  0  0  0  0  0  0  0  0  0  0  0
   37.3590   24.1160   32.2970 N   0  0  0  0  0  0  0  0  0  0  0  0
   37.0420   27.3280   31.9130 H   0  0  0  0  0  0  0  0  0  0  0  0
   35.0230   26.6470   30.8290 H   0  0  0  0  0  0  0  0  0  0  0  0
   34.4620   24.2320   30.6710 H   0  0  0  0  0  0  0  0  0  0  0  0
   40.0830   25.8300   32.2400 C   0  0  0  0  0  0  0  0  0  0  0  0
   38.9500   25.9010   33.1050 C   0  0  0  0  0  0  0  0  0  0  0  0
   39.1440   26.4720   34.3360 C   0  0  0  0  0  0  0  0  0  0  0  0
   40.4070   26.9240   34.6290 N   0  0  0  0  0  0  0  0  0  0  0  0
   41.4540   26.8500   33.8090 C   0  0  0  0  0  0  0  0  0  0  0  0
   41.2700   26.2940   32.6080 N   0  0  0  0  0  0  0  0  0  0  0  0
   42.6660   27.3790   34.2940 N   0  0  0  0  0  0  0  0  0  0  0  0
   40.0750   25.4070   31.2460 H   0  0  0  0  0  0  0  0  0  0  0  0
   43.3900   26.6640   34.5270 H   0  0  0  0  0  0  0  0  0  0  0  0
   42.7330   28.4180   34.3770 H   0  0  0  0  0  0  0  0  0  0  0  0
   38.0220   26.5770   35.2690 C   0  0  0  0  0  0  0  0  0  0  0  0
   37.1470   27.4400   34.7980 F   0  0  0  0  0  0  0  0  0  0  0  0
   37.3970   25.3730   35.5370 F   0  0  0  0  0  0  0  0  0  0  0  0
   38.4620   27.0570   36.5370 F   0  0  0  0  0  0  0  0  0  0  0  0
   37.8840   21.9820   30.2580 F   0  0  0  0  0  0  0  0  0  0  0  0
   36.8610   21.3870   30.9530 C   0  0  0  0  0  0  0  0  0  0  0  0
   36.0430   22.2160   31.6820 C   0  0  0  0  0  0  0  0  0  0  0  0
   35.0330   21.5810   32.3610 C   0  0  0  0  0  0  0  0  0  0  0  0
   34.3500   22.1660   32.9550 H   0  0  0  0  0  0  0  0  0  0  0  0
   34.8590   20.2150   32.3110 C   0  0  0  0  0  0  0  0  0  0  0  0
   34.0380   19.7850   32.8740 H   0  0  0  0  0  0  0  0  0  0  0  0
   35.7120   19.4350   31.5630 C   0  0  0  0  0  3  0  0  0  0  0  0
   36.7370   20.0170   30.8640 C   0  0  0  0  0  3  0  0  0  0  0  0
  1 11  1  0  0  0  0
  2  7  1  0  0  0  0
  2  1  2  0  0  0  0
  3  2  1  0  0  0  0
  4  3  2  0  0  0  0
  4  5  1  0  0  0  0
  5  6  2  0  0  0  0
  6  1  1  0  0  0  0
  8  3  1  0  0  0  0
  9  4  1  0  0  0  0
 10 15  2  0  0  0  0
 10 11  1  0  0  0  0
 11 12  2  0  0  0  0
 12 13  1  0  0  0  0
 12 20  1  0  0  0  0
 14 16  1  0  0  0  0
 14 13  2  0  0  0  0
 15 14  1  0  0  0  0
 16 19  1  0  0  0  0
 16 18  1  0  0  0  0
 17 10  1  0  0  0  0
 20 22  1  0  0  0  0
 20 23  1  0  0  0  0
 21 20  1  0  0  0  0
 24 25  1  0  0  0  0
 25 26  1  0  0  0  0
 26  5  1  0  0  0  0
 26 27  2  0  0  0  0
 27 28  1  0  0  0  0
 29 27  1  0  0  0  0
 29 30  1  0  0  0  0
 31 29  2  0  0  0  0
 32 25  2  0  0  0  0
 32 31  1  0  0  0  0
M  END
>  <minimizedAffinity>
-6.3122592

$$$$

 OpenBabel03262520233D

 32 34  0  0  0  0  0  0  0  0999 V2000
   41.0210   24.7880   35.2050 C   0  0  0  0  0  0  0  0  0  0  0  0
   42.1810   25.4900   34.8240 C   0  0  0  0  0  0  0  0  0  0  0  0
   42.2120   26.6440   34.1080 C   0  0  0  0  0  0  0  0  0  0  0  0
   41.0660   27.2190   33.6940 C   0  0  0  0  0  0  0  0  0  0  0  0
   39.9500   26.5490   34.0550 C   0  0  0  0  0  0  0  0  0  0  0  0
   39.9820   25.4350   34.7500 N   0  0  0  0  0  0  0  0  0  0  0  0
   43.1860   25.0580   35.1420 H   0  0  0  0  0  0  0  0  0  0  0  0
   43.2270   27.0880   33.8810 H   0  0  0  0  0  0  0  0  0  0  0  0
   41.0920   28.1190   33.1340 H   0  0  0  0  0  0  0  0  0  0  0  0
   42.4640   23.0420   35.8920 C   0  0  0  0  0  0  0  0  0  0  0  0
   41.1450   23.5760   36.0000 C   0  0  0  0  0  0  0  0  0  0  0  0
   40.2680   22.9040   36.8100 C   0  0  0  0  0  0  0  0  0  0  0  0
   40.7320   21.7780   37.4450 N   0  0  0  0  0  0  0  0  0  0  0  0
   41.9680   21.2930   37.3330 C   0  0  0  0  0  0  0  0  0  0  0  0
   42.8270   21.9450   36.5430 N   0  0  0  0  0  0  0  0  0  0  0  0
   42.2520   20.1280   38.0730 N   0  0  0  0  0  0  0  0  0  0  0  0
   43.2550   23.4680   35.2910 H   0  0  0  0  0  0  0  0  0  0  0  0
   42.3620   19.2650   37.4990 H   0  0  0  0  0  0  0  0  0  0  0  0
   42.3240   20.2290   39.1100 H   0  0  0  0  0  0  0  0  0  0  0  0
   38.9000   23.4010   36.9640 C   0  0  0  0  0  0  0  0  0  0  0  0
   38.3060   22.7370   37.9330 F   0  0  0  0  0  0  0  0  0  0  0  0
   38.8180   24.7590   37.2040 F   0  0  0  0  0  0  0  0  0  0  0  0
   38.1480   23.1890   35.7720 F   0  0  0  0  0  0  0  0  0  0  0  0
   38.2270   27.7080   35.8850 F   0  0  0  0  0  0  0  0  0  0  0  0
   37.7660   27.6360   34.5930 C   0  0  0  0  0  0  0  0  0  0  0  0
   38.6050   27.0640   33.6680 C   0  0  0  0  0  0  0  0  0  0  0  0
   38.1060   27.0110   32.3900 C   0  0  0  0  0  0  0  0  0  0  0  0
   38.7070   26.5760   31.6080 H   0  0  0  0  0  0  0  0  0  0  0  0
   36.8580   27.4960   32.0680 C   0  0  0  0  0  0  0  0  0  0  0  0
   36.5320   27.4190   31.0360 H   0  0  0  0  0  0  0  0  0  0  0  0
   36.0610   28.0590   33.0390 C   0  0  0  0  0  3  0  0  0  0  0  0
   36.5090   28.1380   34.3320 C   0  0  0  0  0  3  0  0  0  0  0  0
  1 11  1  0  0  0  0
  2  7  1  0  0  0  0
  2  1  1  0  0  0  0
  3  2  2  0  0  0  0
  4  5  2  0  0  0  0
  4  3  1  0  0  0  0
  5  6  1  0  0  0  0
  6  1  2  0  0  0  0
  8  3  1  0  0  0  0
  9  4  1  0  0  0  0
 10 11  2  0  0  0  0
 10 15  1  0  0  0  0
 11 12  1  0  0  0  0
 12 20  1  0  0  0  0
 12 13  2  0  0  0  0
 14 13  1  0  0  0  0
 14 16  1  0  0  0  0
 15 14  2  0  0  0  0
 16 19  1  0  0  0  0
 17 10  1  0  0  0  0
 18 16  1  0  0  0  0
 20 22  1  0  0  0  0
 20 21  1  0  0  0  0
 23 20  1  0  0  0  0
 25 24  1  0  0  0  0
 26  5  1  0  0  0  0
 26 25  2  0  0  0  0
 27 26  1  0  0  0  0
 28 27  1  0  0  0  0
 29 27  2  0  0  0  0
 29 31  1  0  0  0  0
 30 29  1  0  0  0  0
 31 32  2  0  0  0  0
 32 25  1  0  0  0  0
M  END
>  <minimizedAffinity>
-6.28890419

$$$$

 OpenBabel03262520233D

 32 34  0  0  0  0  0  0  0  0999 V2000
   37.7300   24.4190   33.3460 C   0  0  0  0  0  0  0  0  0  0  0  0
   37.1980   23.4000   32.5310 C   0  0  0  0  0  0  0  0  0  0  0  0
   36.7080   23.5620   31.2750 C   0  0  0  0  0  0  0  0  0  0  0  0
   36.7010   24.7800   30.6990 C   0  0  0  0  0  0  0  0  0  0  0  0
   37.2090   25.7620   31.4760 C   0  0  0  0  0  0  0  0  0  0  0  0
   37.6700   25.5450   32.6870 N   0  0  0  0  0  0  0  0  0  0  0  0
   37.1740   22.3450   32.9580 H   0  0  0  0  0  0  0  0  0  0  0  0
   36.3140   22.6430   30.7480 H   0  0  0  0  0  0  0  0  0  0  0  0
   36.3170   24.9050   29.7190 H   0  0  0  0  0  0  0  0  0  0  0  0
   38.5960   22.7040   34.7290 C   0  0  0  0  0  0  0  0  0  0  0  0
   38.2460   24.0870   34.6640 C   0  0  0  0  0  0  0  0  0  0  0  0
   38.4630   24.8350   35.7920 C   0  0  0  0  0  0  0  0  0  0  0  0
   38.9970   24.1920   36.8820 N   0  0  0  0  0  0  0  0  0  0  0  0
   39.3180   22.9000   36.9250 C   0  0  0  0  0  0  0  0  0  0  0  0
   39.1070   22.1660   35.8280 N   0  0  0  0  0  0  0  0  0  0  0  0
   39.8610   22.4310   38.1370 N   0  0  0  0  0  0  0  0  0  0  0  0
   38.4780   22.0000   33.9190 H   0  0  0  0  0  0  0  0  0  0  0  0
   39.2270   21.8120   38.6870 H   0  0  0  0  0  0  0  0  0  0  0  0
   40.8310   22.7380   38.3740 H   0  0  0  0  0  0  0  0  0  0  0  0
   38.1270   26.2590   35.7900 C   0  0  0  0  0  0  0  0  0  0  0  0
   38.2570   26.7350   37.0100 F   0  0  0  0  0  0  0  0  0  0  0  0
   38.8760   27.0140   34.9080 F   0  0  0  0  0  0  0  0  0  0  0  0
   36.7730   26.4580   35.3910 F   0  0  0  0  0  0  0  0  0  0  0  0
   35.1550   27.5690   31.8970 F   0  0  0  0  0  0  0  0  0  0  0  0
   36.2350   28.0450   31.1950 C   0  0  0  0  0  0  0  0  0  0  0  0
   37.2660   27.1650   30.9740 C   0  0  0  0  0  0  0  0  0  0  0  0
   38.3250   27.6800   30.2680 C   0  0  0  0  0  0  0  0  0  0  0  0
   39.1720   27.0500   30.0550 H   0  0  0  0  0  0  0  0  0  0  0  0
   38.3440   28.9830   29.8190 C   0  0  0  0  0  0  0  0  0  0  0  0
   39.2150   29.3190   29.2670 H   0  0  0  0  0  0  0  0  0  0  0  0
   37.2800   29.8190   30.0710 C   0  0  0  0  0  3  0  0  0  0  0  0
   36.1960   29.3550   30.7710 C   0  0  0  0  0  3  0  0  0  0  0  0
  1 11  1  0  0  0  0
  2  7  1  0  0  0  0
  2  1  2  0  0  0  0
  3  2  1  0  0  0  0
  4  3  2  0  0  0  0
  4  5  1  0  0  0  0
  5  6  2  0  0  0  0
  6  1  1  0  0  0  0
  8  3  1  0  0  0  0
  9  4  1  0  0  0  0
 10 15  1  0  0  0  0
 11 10  2  0  0  0  0
 11 12  1  0  0  0  0
 12 13  2  0  0  0  0
 13 14  1  0  0  0  0
 14 16  1  0  0  0  0
 15 14  2  0  0  0  0
 16 19  1  0  0  0  0
 16 18  1  0  0  0  0
 17 10  1  0  0  0  0
 20 12  1  0  0  0  0
 20 21  1  0  0  0  0
 22 20  1  0  0  0  0
 23 20  1  0  0  0  0
 25 24  1  0  0  0  0
 26 25  1  0  0  0  0
 26  5  1  0  0  0  0
 27 26  2  0  0  0  0
 28 27  1  0  0  0  0
 29 31  2  0  0  0  0
 29 27  1  0  0  0  0
 30 29  1  0  0  0  0
 31 32  1  0  0  0  0
 32 25  2  0  0  0  0
M  END
>  <minimizedAffinity>
-6.17490768

$$$$

 OpenBabel03262520233D

 32 34  0  0  0  0  0  0  0  0999 V2000
   36.4250   28.0130   33.0560 C   0  0  0  0  0  0  0  0  0  0  0  0
   36.7170   28.8060   31.9300 C   0  0  0  0  0  0  0  0  0  0  0  0
   36.3940   30.1160   31.7750 C   0  0  0  0  0  0  0  0  0  0  0  0
   35.7350   30.7750   32.7480 C   0  0  0  0  0  0  0  0  0  0  0  0
   35.4500   30.0190   33.8310 C   0  0  0  0  0  0  0  0  0  0  0  0
   35.7890   28.7530   33.9250 N   0  0  0  0  0  0  0  0  0  0  0  0
   37.2740   28.3110   31.0690 H   0  0  0  0  0  0  0  0  0  0  0  0
   36.7000   30.6170   30.8080 H   0  0  0  0  0  0  0  0  0  0  0  0
   35.4830   31.7970   32.6250 H   0  0  0  0  0  0  0  0  0  0  0  0
   36.2300   25.8780   32.0530 C   0  0  0  0  0  0  0  0  0  0  0  0
   36.8620   26.6270   33.0900 C   0  0  0  0  0  0  0  0  0  0  0  0
   37.7470   25.9520   33.8910 C   0  0  0  0  0  0  0  0  0  0  0  0
   37.9470   24.6190   33.6260 N   0  0  0  0  0  0  0  0  0  0  0  0
   37.3460   23.9360   32.6520 C   0  0  0  0  0  0  0  0  0  0  0  0
   36.4830   24.5900   31.8700 N   0  0  0  0  0  0  0  0  0  0  0  0
   37.6930   22.5750   32.5390 N   0  0  0  0  0  0  0  0  0  0  0  0
   35.5140   26.2810   31.3510 H   0  0  0  0  0  0  0  0  0  0  0  0
   36.9440   21.9110   32.8310 H   0  0  0  0  0  0  0  0  0  0  0  0
   38.6490   22.3550   32.1820 H   0  0  0  0  0  0  0  0  0  0  0  0
   38.4300   26.6620   34.9720 C   0  0  0  0  0  0  0  0  0  0  0  0
   37.5330   27.2220   35.7560 F   0  0  0  0  0  0  0  0  0  0  0  0
   39.2800   25.8690   35.7200 F   0  0  0  0  0  0  0  0  0  0  0  0
   39.2560   27.7020   34.4520 F   0  0  0  0  0  0  0  0  0  0  0  0
   36.6850   31.6950   35.6550 F   0  0  0  0  0  0  0  0  0  0  0  0
   35.3550   31.4400   35.8830 C   0  0  0  0  0  0  0  0  0  0  0  0
   34.7220   30.6100   34.9900 C   0  0  0  0  0  0  0  0  0  0  0  0
   33.3950   30.3810   35.2550 C   0  0  0  0  0  0  0  0  0  0  0  0
   32.8300   29.7390   34.5980 H   0  0  0  0  0  0  0  0  0  0  0  0
   32.7530   30.9440   36.3370 C   0  0  0  0  0  0  0  0  0  0  0  0
   31.7030   30.7150   36.4820 H   0  0  0  0  0  0  0  0  0  0  0  0
   33.4410   31.7680   37.1980 C   0  0  0  0  0  3  0  0  0  0  0  0
   34.7680   32.0310   36.9810 C   0  0  0  0  0  3  0  0  0  0  0  0
  1 11  1  0  0  0  0
  1  6  1  0  0  0  0
  2  1  2  0  0  0  0
  3  2  1  0  0  0  0
  3  4  2  0  0  0  0
  4  5  1  0  0  0  0
  5  6  2  0  0  0  0
  5 26  1  0  0  0  0
  7  2  1  0  0  0  0
  8  3  1  0  0  0  0
  9  4  1  0  0  0  0
 10 11  1  0  0  0  0
 11 12  2  0  0  0  0
 12 20  1  0  0  0  0
 13 12  1  0  0  0  0
 14 13  2  0  0  0  0
 15 10  2  0  0  0  0
 15 14  1  0  0  0  0
 16 14  1  0  0  0  0
 16 18  1  0  0  0  0
 17 10  1  0  0  0  0
 19 16  1  0  0  0  0
 20 22  1  0  0  0  0
 20 21  1  0  0  0  0
 23 20  1  0  0  0  0
 24 25  1  0  0  0  0
 25 32  1  0  0  0  0
 26 27  1  0  0  0  0
 26 25  2  0  0  0  0
 27 29  2  0  0  0  0
 28 27  1  0  0  0  0
 29 30  1  0  0  0  0
 29 31  1  0  0  0  0
 32 31  2  0  0  0  0
M  END
>  <minimizedAffinity>
-6.12151527

$$$$

 OpenBabel03262520233D

 32 34  0  0  0  0  0  0  0  0999 V2000
   36.1060   28.1780   32.4250 C   0  0  0  0  0  0  0  0  0  0  0  0
   36.4900   29.0410   31.3800 C   0  0  0  0  0  0  0  0  0  0  0  0
   36.3890   30.3950   31.3890 C   0  0  0  0  0  0  0  0  0  0  0  0
   35.8850   31.0330   32.4640 C   0  0  0  0  0  0  0  0  0  0  0  0
   35.5130   30.2110   33.4700 C   0  0  0  0  0  0  0  0  0  0  0  0
   35.6350   28.9040   33.4040 N   0  0  0  0  0  0  0  0  0  0  0  0
   36.9250   28.5660   30.4400 H   0  0  0  0  0  0  0  0  0  0  0  0
   36.7420   30.9500   30.4700 H   0  0  0  0  0  0  0  0  0  0  0  0
   35.8060   32.0900   32.4690 H   0  0  0  0  0  0  0  0  0  0  0  0
   35.5270   26.2420   31.1940 C   0  0  0  0  0  0  0  0  0  0  0  0
   36.3030   26.7450   32.2810 C   0  0  0  0  0  0  0  0  0  0  0  0
   37.0790   25.8410   32.9590 C   0  0  0  0  0  0  0  0  0  0  0  0
   37.0430   24.5360   32.5350 N   0  0  0  0  0  0  0  0  0  0  0  0
   36.3120   24.0830   31.5170 C   0  0  0  0  0  0  0  0  0  0  0  0
   35.5540   24.9610   30.8530 N   0  0  0  0  0  0  0  0  0  0  0  0
   36.4200   22.7080   31.2330 N   0  0  0  0  0  0  0  0  0  0  0  0
   34.8730   26.8390   30.5750 H   0  0  0  0  0  0  0  0  0  0  0  0
   35.5760   22.1460   31.4800 H   0  0  0  0  0  0  0  0  0  0  0  0
   37.3160   22.3770   30.8120 H   0  0  0  0  0  0  0  0  0  0  0  0
   37.8990   26.2930   34.0830 C   0  0  0  0  0  0  0  0  0  0  0  0
   38.6470   25.2950   34.5010 F   0  0  0  0  0  0  0  0  0  0  0  0
   38.6910   27.3890   33.7990 F   0  0  0  0  0  0  0  0  0  0  0  0
   37.0780   26.7030   35.1750 F   0  0  0  0  0  0  0  0  0  0  0  0
   32.8390   29.9240   34.1240 F   0  0  0  0  0  0  0  0  0  0  0  0
   33.6050   30.6170   35.0290 C   0  0  0  0  0  0  0  0  0  0  0  0
   34.9350   30.7710   34.7250 C   0  0  0  0  0  0  0  0  0  0  0  0
   35.6640   31.4700   35.6550 C   0  0  0  0  0  0  0  0  0  0  0  0
   36.7160   31.6320   35.4860 H   0  0  0  0  0  0  0  0  0  0  0  0
   35.0960   31.9740   36.8050 C   0  0  0  0  0  0  0  0  0  0  0  0
   35.7360   32.5160   37.4940 H   0  0  0  0  0  0  0  0  0  0  0  0
   33.7560   31.7870   37.0560 C   0  0  0  0  0  3  0  0  0  0  0  0
   32.9810   31.0970   36.1600 C   0  0  0  0  0  3  0  0  0  0  0  0
  1  6  1  0  0  0  0
  2  3  1  0  0  0  0
  2  1  2  0  0  0  0
  3  4  2  0  0  0  0
  4  9  1  0  0  0  0
  4  5  1  0  0  0  0
  5 26  1  0  0  0  0
  6  5  2  0  0  0  0
  7  2  1  0  0  0  0
  8  3  1  0  0  0  0
 10 11  1  0  0  0  0
 11  1  1  0  0  0  0
 11 12  2  0  0  0  0
 12 20  1  0  0  0  0
 13 12  1  0  0  0  0
 14 13  2  0  0  0  0
 15 10  2  0  0  0  0
 15 14  1  0  0  0  0
 16 18  1  0  0  0  0
 16 14  1  0  0  0  0
 17 10  1  0  0  0  0
 19 16  1  0  0  0  0
 20 21  1  0  0  0  0
 20 23  1  0  0  0  0
 22 20  1  0  0  0  0
 24 25  1  0  0  0  0
 25 32  1  0  0  0  0
 26 25  2  0  0  0  0
 26 27  1  0  0  0  0
 27 29  2  0  0  0  0
 28 27  1  0  0  0  0
 29 31  1  0  0  0  0
 29 30  1  0  0  0  0
 32 31  2  0  0  0  0
M  END
>  <minimizedAffinity>
-6.10074139

$$$$

 OpenBabel03262520233D

 32 34  0  0  0  0  0  0  0  0999 V2000
   37.9580   24.9310   33.8410 C   0  0  0  0  0  0  0  0  0  0  0  0
   37.5710   24.2530   32.6690 C   0  0  0  0  0  0  0  0  0  0  0  0
   36.8340   24.7760   31.6550 C   0  0  0  0  0  0  0  0  0  0  0  0
   36.4040   26.0510   31.7130 C   0  0  0  0  0  0  0  0  0  0  0  0
   36.7710   26.7070   32.8360 C   0  0  0  0  0  0  0  0  0  0  0  0
   37.4860   26.1480   33.7850 N   0  0  0  0  0  0  0  0  0  0  0  0
   37.9020   23.1690   32.5550 H   0  0  0  0  0  0  0  0  0  0  0  0
   36.6040   24.1010   30.7770 H   0  0  0  0  0  0  0  0  0  0  0  0
   35.8290   26.4570   30.9210 H   0  0  0  0  0  0  0  0  0  0  0  0
   38.0690   23.1320   35.3750 C   0  0  0  0  0  0  0  0  0  0  0  0
   38.7750   24.2460   34.8290 C   0  0  0  0  0  0  0  0  0  0  0  0
   40.0480   24.4590   35.2910 C   0  0  0  0  0  0  0  0  0  0  0  0
   40.5310   23.5860   36.2340 N   0  0  0  0  0  0  0  0  0  0  0  0
   39.8570   22.5500   36.7330 C   0  0  0  0  0  0  0  0  0  0  0  0
   38.6150   22.3390   36.2860 N   0  0  0  0  0  0  0  0  0  0  0  0
   40.5330   21.7670   37.6890 N   0  0  0  0  0  0  0  0  0  0  0  0
   37.0620   22.8480   35.1040 H   0  0  0  0  0  0  0  0  0  0  0  0
   40.1770   21.8690   38.6640 H   0  0  0  0  0  0  0  0  0  0  0  0
   41.3150   21.1650   37.3450 H   0  0  0  0  0  0  0  0  0  0  0  0
   40.8260   25.5840   34.7710 C   0  0  0  0  0  0  0  0  0  0  0  0
   42.0530   25.5140   35.2410 F   0  0  0  0  0  0  0  0  0  0  0  0
   40.8540   25.6600   33.3910 F   0  0  0  0  0  0  0  0  0  0  0  0
   40.2700   26.8240   35.2000 F   0  0  0  0  0  0  0  0  0  0  0  0
   36.8810   28.5870   30.8070 F   0  0  0  0  0  0  0  0  0  0  0  0
   36.4300   29.0440   32.0220 C   0  0  0  0  0  0  0  0  0  0  0  0
   36.3670   28.1280   33.0430 C   0  0  0  0  0  0  0  0  0  0  0  0
   35.9120   28.6250   34.2390 C   0  0  0  0  0  0  0  0  0  0  0  0
   35.8360   27.9660   35.0880 H   0  0  0  0  0  0  0  0  0  0  0  0
   35.5480   29.9450   34.3950 C   0  0  0  0  0  0  0  0  0  0  0  0
   35.1980   30.2650   35.3710 H   0  0  0  0  0  0  0  0  0  0  0  0
   35.6320   30.8170   33.3340 C   0  0  0  0  0  3  0  0  0  0  0  0
   36.0800   30.3730   32.1160 C   0  0  0  0  0  3  0  0  0  0  0  0
  1 11  1  0  0  0  0
  2  1  2  0  0  0  0
  3  4  2  0  0  0  0
  3  2  1  0  0  0  0
  4  5  1  0  0  0  0
  5 26  1  0  0  0  0
  5  6  2  0  0  0  0
  6  1  1  0  0  0  0
  7  2  1  0  0  0  0
  8  3  1  0  0  0  0
  9  4  1  0  0  0  0
 10 15  1  0  0  0  0
 11 12  1  0  0  0  0
 11 10  2  0  0  0  0
 12 13  2  0  0  0  0
 13 14  1  0  0  0  0
 14 16  1  0  0  0  0
 15 14  2  0  0  0  0
 16 18  1  0  0  0  0
 17 10  1  0  0  0  0
 19 16  1  0  0  0  0
 20 23  1  0  0  0  0
 20 21  1  0  0  0  0
 20 12  1  0  0  0  0
 22 20  1  0  0  0  0
 24 25  1  0  0  0  0
 25 32  2  0  0  0  0
 25 26  1  0  0  0  0
 26 27  2  0  0  0  0
 27 29  1  0  0  0  0
 27 28  1  0  0  0  0
 29 30  1  0  0  0  0
 31 29  2  0  0  0  0
 32 31  1  0  0  0  0
M  END
>  <minimizedAffinity>
-6.09323263

$$$$

 OpenBabel03262520233D

 32 34  0  0  0  0  0  0  0  0999 V2000
   37.9590   24.8090   33.6910 C   0  0  0  0  0  0  0  0  0  0  0  0
   37.5540   24.0650   32.5660 C   0  0  0  0  0  0  0  0  0  0  0  0
   36.8310   24.5390   31.5180 C   0  0  0  0  0  0  0  0  0  0  0  0
   36.4340   25.8260   31.4910 C   0  0  0  0  0  0  0  0  0  0  0  0
   36.8190   26.5450   32.5680 C   0  0  0  0  0  0  0  0  0  0  0  0
   37.5190   26.0320   33.5540 N   0  0  0  0  0  0  0  0  0  0  0  0
   37.8560   22.9680   32.5250 H   0  0  0  0  0  0  0  0  0  0  0  0
   36.5840   23.8130   30.6860 H   0  0  0  0  0  0  0  0  0  0  0  0
   35.8700   26.1930   30.6720 H   0  0  0  0  0  0  0  0  0  0  0  0
   38.0750   23.0320   35.2490 C   0  0  0  0  0  0  0  0  0  0  0  0
   38.7570   24.1700   34.7240 C   0  0  0  0  0  0  0  0  0  0  0  0
   39.9970   24.4440   35.2420 C   0  0  0  0  0  0  0  0  0  0  0  0
   40.4730   23.6010   36.2170 N   0  0  0  0  0  0  0  0  0  0  0  0
   39.8210   22.5420   36.6950 C   0  0  0  0  0  0  0  0  0  0  0  0
   38.6130   22.2720   36.1940 N   0  0  0  0  0  0  0  0  0  0  0  0
   40.4850   21.7980   37.6910 N   0  0  0  0  0  0  0  0  0  0  0  0
   37.0960   22.7010   34.9350 H   0  0  0  0  0  0  0  0  0  0  0  0
   40.0800   21.8940   38.6470 H   0  0  0  0  0  0  0  0  0  0  0  0
   41.3080   21.2290   37.3900 H   0  0  0  0  0  0  0  0  0  0  0  0
   40.7490   25.5960   34.7450 C   0  0  0  0  0  0  0  0  0  0  0  0
   40.8360   25.5230   33.4340 F   0  0  0  0  0  0  0  0  0  0  0  0
   40.2190   26.8180   35.1150 F   0  0  0  0  0  0  0  0  0  0  0  0
   42.0760   25.5950   35.2660 F   0  0  0  0  0  0  0  0  0  0  0  0
   36.0130   27.6850   34.9580 F   0  0  0  0  0  0  0  0  0  0  0  0
   36.0550   28.5310   33.8770 C   0  0  0  0  0  0  0  0  0  0  0  0
   36.4520   27.9870   32.6800 C   0  0  0  0  0  0  0  0  0  0  0  0
   36.4800   28.8650   31.6260 C   0  0  0  0  0  0  0  0  0  0  0  0
   36.7820   28.5120   30.6540 H   0  0  0  0  0  0  0  0  0  0  0  0
   36.1340   30.1920   31.7660 C   0  0  0  0  0  0  0  0  0  0  0  0
   36.1800   30.8260   30.8870 H   0  0  0  0  0  0  0  0  0  0  0  0
   35.7440   30.6800   32.9920 C   0  0  0  0  0  3  0  0  0  0  0  0
   35.6980   29.8460   34.0790 C   0  0  0  0  0  3  0  0  0  0  0  0
  1 11  1  0  0  0  0
  2  1  2  0  0  0  0
  3  2  1  0  0  0  0
  4  3  2  0  0  0  0
  4  5  1  0  0  0  0
  5 26  1  0  0  0  0
  5  6  2  0  0  0  0
  6  1  1  0  0  0  0
  7  2  1  0  0  0  0
  8  3  1  0  0  0  0
  9  4  1  0  0  0  0
 10 15  1  0  0  0  0
 11 12  1  0  0  0  0
 11 10  2  0  0  0  0
 12 13  2  0  0  0  0
 13 14  1  0  0  0  0
 14 16  1  0  0  0  0
 15 14  2  0  0  0  0
 16 18  1  0  0  0  0
 17 10  1  0  0  0  0
 19 16  1  0  0  0  0
 20 22  1  0  0  0  0
 20 12  1  0  0  0  0
 20 23  1  0  0  0  0
 21 20  1  0  0  0  0
 25 32  1  0  0  0  0
 25 24  1  0  0  0  0
 26 25  2  0  0  0  0
 27 29  2  0  0  0  0
 27 26  1  0  0  0  0
 28 27  1  0  0  0  0
 29 31  1  0  0  0  0
 30 29  1  0  0  0  0
 31 32  2  0  0  0  0
M  END
>  <minimizedAffinity>
-6.03822899

$$$$

 OpenBabel03262520233D

 32 34  0  0  0  0  0  0  0  0999 V2000
   37.3140   24.9330   32.8990 C   0  0  0  0  0  0  0  0  0  0  0  0
   36.8830   23.8260   32.1430 C   0  0  0  0  0  0  0  0  0  0  0  0
   37.1090   22.5210   32.4450 C   0  0  0  0  0  0  0  0  0  0  0  0
   37.8000   22.1880   33.5520 C   0  0  0  0  0  0  0  0  0  0  0  0
   38.2170   23.2460   34.2810 C   0  0  0  0  0  0  0  0  0  0  0  0
   37.9680   24.4900   33.9390 N   0  0  0  0  0  0  0  0  0  0  0  0
   36.2920   24.0360   31.1920 H   0  0  0  0  0  0  0  0  0  0  0  0
   36.6960   21.7430   31.7350 H   0  0  0  0  0  0  0  0  0  0  0  0
   37.9760   21.1700   33.7860 H   0  0  0  0  0  0  0  0  0  0  0  0
   36.6510   26.2840   31.0710 C   0  0  0  0  0  0  0  0  0  0  0  0
   36.9690   26.2770   32.4630 C   0  0  0  0  0  0  0  0  0  0  0  0
   36.8810   27.4740   33.1250 C   0  0  0  0  0  0  0  0  0  0  0  0
   36.4960   28.5710   32.3940 N   0  0  0  0  0  0  0  0  0  0  0  0
   36.2020   28.5590   31.0950 C   0  0  0  0  0  0  0  0  0  0  0  0
   36.2870   27.3940   30.4450 N   0  0  0  0  0  0  0  0  0  0  0  0
   35.8190   29.7910   30.5290 N   0  0  0  0  0  0  0  0  0  0  0  0
   36.6780   25.4160   30.4280 H   0  0  0  0  0  0  0  0  0  0  0  0
   36.5260   30.2130   29.8890 H   0  0  0  0  0  0  0  0  0  0  0  0
   34.8810   30.1670   30.7960 H   0  0  0  0  0  0  0  0  0  0  0  0
   37.1930   27.5340   34.5530 C   0  0  0  0  0  0  0  0  0  0  0  0
   36.8120   28.7010   35.0290 F   0  0  0  0  0  0  0  0  0  0  0  0
   36.6290   26.5150   35.2970 F   0  0  0  0  0  0  0  0  0  0  0  0
   38.5970   27.4180   34.7690 F   0  0  0  0  0  0  0  0  0  0  0  0
   40.8420   22.3680   34.2610 F   0  0  0  0  0  0  0  0  0  0  0  0
   40.2990   22.5990   35.5010 C   0  0  0  0  0  0  0  0  0  0  0  0
   38.9970   23.0360   35.5350 C   0  0  0  0  0  0  0  0  0  0  0  0
   38.4930   23.2540   36.7930 C   0  0  0  0  0  0  0  0  0  0  0  0
   37.4780   23.5980   36.9010 H   0  0  0  0  0  0  0  0  0  0  0  0
   39.2430   23.0490   37.9310 C   0  0  0  0  0  0  0  0  0  0  0  0
   38.7760   23.2420   38.8900 H   0  0  0  0  0  0  0  0  0  0  0  0
   40.5440   22.6100   37.8340 C   0  0  0  0  0  3  0  0  0  0  0  0
   41.0970   22.3750   36.6020 C   0  0  0  0  0  3  0  0  0  0  0  0
  1  6  1  0  0  0  0
  2  3  1  0  0  0  0
  2  1  2  0  0  0  0
  3  4  2  0  0  0  0
  4  9  1  0  0  0  0
  4  5  1  0  0  0  0
  5 26  1  0  0  0  0
  6  5  2  0  0  0  0
  7  2  1  0  0  0  0
  8  3  1  0  0  0  0
 10 11  1  0  0  0  0
 11  1  1  0  0  0  0
 11 12  2  0  0  0  0
 12 20  1  0  0  0  0
 13 12  1  0  0  0  0
 14 13  2  0  0  0  0
 15 10  2  0  0  0  0
 15 14  1  0  0  0  0
 16 19  1  0  0  0  0
 16 14  1  0  0  0  0
 17 10  1  0  0  0  0
 18 16  1  0  0  0  0
 20 23  1  0  0  0  0
 20 21  1  0  0  0  0
 20 22  1  0  0  0  0
 24 25  1  0  0  0  0
 25 26  2  0  0  0  0
 25 32  1  0  0  0  0
 26 27  1  0  0  0  0
 27 28  1  0  0  0  0
 27 29  2  0  0  0  0
 29 30  1  0  0  0  0
 31 29  1  0  0  0  0
 32 31  2  0  0  0  0
M  END
>  <minimizedAffinity>
-5.97816706

$$$$
