
 OpenBabel03272507133D

 40 44  0  0  0  0  0  0  0  0999 V2000
   35.8000   29.1270   49.8530 C   0  0  0  0  0  0  0  0  0  0  0  0
   34.7630   29.6220   50.5630 C   0  0  0  0  0  0  0  0  0  0  0  0
   33.6000   29.0380   50.0500 C   0  0  0  0  0  0  0  0  0  0  0  0
   34.0240   28.1910   49.0190 C   0  0  0  0  0  0  0  0  0  0  0  0
   35.3220   28.2950   48.9620 O   0  0  0  0  0  0  0  0  0  0  0  0
   34.7880   30.3470   51.3910 H   0  0  0  0  0  0  0  0  0  0  0  0
   32.6250   29.2620   50.4390 H   0  0  0  0  0  0  0  0  0  0  0  0
   33.5160   26.4300   47.3400 C   0  0  0  0  0  0  0  0  0  0  0  0
   33.0960   27.3920   48.2270 C   0  0  0  0  0  0  0  0  0  0  0  0
   31.7640   27.6530   48.4230 C   0  0  0  0  0  0  0  0  0  0  0  0
   30.8250   26.9240   47.7020 C   0  0  0  0  0  0  0  0  0  0  0  0
   29.4910   26.9560   47.6840 N   0  0  0  0  0  0  0  0  0  0  0  0
   29.0790   26.0390   46.8070 N   0  0  0  0  0  0  0  0  0  0  0  0
   30.1590   25.4240   46.2690 C   0  0  0  0  0  0  0  0  0  0  0  0
   31.2990   25.9640   46.8180 C   0  0  0  0  0  0  0  0  0  0  0  0
   32.6340   25.6920   46.6120 C   0  0  0  0  0  0  0  0  0  0  0  0
   34.5820   26.2940   47.2510 H   0  0  0  0  0  0  0  0  0  0  0  0
   31.3420   28.4030   49.1120 H   0  0  0  0  0  0  0  0  0  0  0  0
   28.8570   27.5820   48.2490 H   0  0  0  0  0  0  0  0  0  0  0  0
   30.1780   24.6240   45.5180 H   0  0  0  0  0  0  0  0  0  0  0  0
   32.9650   24.9330   45.9100 H   0  0  0  0  0  0  0  0  0  0  0  0
   37.1760   29.5140   50.1110 C   0  0  0  0  0  0  0  0  0  0  0  0
   37.8370   28.8820   50.9800 O   0  0  0  0  0  0  0  0  0  0  0  0
   37.7160   30.6130   49.3520 C   0  0  0  0  0  0  0  0  0  0  0  0
   37.8110   31.8410   49.9830 C   0  0  0  0  0  0  0  0  0  0  0  0
   38.3280   32.9200   49.2710 C   0  0  0  0  0  0  0  0  0  0  0  0
   38.7130   32.7030   47.9900 N   0  0  0  0  0  0  0  0  0  0  0  0
   38.6150   31.5050   47.3940 C   0  0  0  0  0  0  0  0  0  0  0  0
   38.1180   30.4740   48.0770 N   0  0  0  0  0  0  0  0  0  0  0  0
   37.5150   32.0580   51.0010 H   0  0  0  0  0  0  0  0  0  0  0  0
   38.4280   33.9030   49.7040 H   0  0  0  0  0  0  0  0  0  0  0  0
   36.7990   31.1640   45.3830 F   0  0  0  0  0  0  0  0  0  0  0  0
   38.1080   31.1620   45.0130 C   0  0  0  0  0  0  0  0  0  0  0  0
   39.0460   31.3320   46.0110 C   0  0  0  0  0  0  0  0  0  0  0  0
   40.3840   31.3360   45.6790 C   0  0  0  0  0  0  0  0  0  0  0  0
   41.1610   31.4660   46.4190 H   0  0  0  0  0  0  0  0  0  0  0  0
   40.7740   31.1710   44.3650 C   0  0  0  0  0  0  0  0  0  0  0  0
   41.7780   31.1580   43.9950 H   0  0  0  0  0  0  0  0  0  0  0  0
   39.7850   31.0020   43.3930 C   0  0  0  0  0  3  0  0  0  0  0  0
   38.4180   30.9900   43.6740 C   0  0  0  0  0  3  0  0  0  0  0  0
  1 22  1  0  0  0  0
  1  2  2  0  0  0  0
  2  6  1  0  0  0  0
  3  7  1  0  0  0  0
  3  2  1  0  0  0  0
  4  3  2  0  0  0  0
  5  4  1  0  0  0  0
  5  1  1  0  0  0  0
  8  9  1  0  0  0  0
  9 10  2  0  0  0  0
  9  4  1  0  0  0  0
 10 18  1  0  0  0  0
 11 10  1  0  0  0  0
 12 11  1  0  0  0  0
 12 19  1  0  0  0  0
 13 12  1  0  0  0  0
 14 13  2  0  0  0  0
 14 15  1  0  0  0  0
 15 11  2  0  0  0  0
 16 15  1  0  0  0  0
 16  8  2  0  0  0  0
 17  8  1  0  0  0  0
 20 14  1  0  0  0  0
 21 16  1  0  0  0  0
 22 23  2  0  0  0  0
 24 25  1  0  0  0  0
 24 22  1  0  0  0  0
 25 30  1  0  0  0  0
 26 31  1  0  0  0  0
 26 25  2  0  0  0  0
 27 26  1  0  0  0  0
 28 27  2  0  0  0  0
 28 29  1  0  0  0  0
 29 24  2  0  0  0  0
 33 32  1  0  0  0  0
 33 34  1  0  0  0  0
 34 28  1  0  0  0  0
 35 34  2  0  0  0  0
 35 36  1  0  0  0  0
 37 35  1  0  0  0  0
 38 37  1  0  0  0  0
 39 40  1  0  0  0  0
 39 37  2  0  0  0  0
 40 33  2  0  0  0  0
M  END
>  <minimizedAffinity>
-7.30058241

>  <minimizedRMSD>
0.40185529

$$$$
