
 OpenBabel03262520123D

 42 44  0  0  0  0  0  0  0  0999 V2000
   35.3380   30.3410   49.4420 C   0  0  0  0  0  0  0  0  0  0  0  0
   35.0320   31.3730   49.7730 H   0  0  0  0  0  0  0  0  0  0  0  0
   36.2010   30.0690   50.0860 H   0  0  0  0  0  0  0  0  0  0  0  0
   38.2150   31.5400   48.9490 Br  0  0  0  0  0  0  0  0  0  0  0  0
   36.9720   30.9100   47.6240 C   0  0  0  0  0  0  0  0  0  0  0  0
   37.2940   30.9490   46.2880 C   0  0  0  0  0  0  0  0  0  0  0  0
   36.3700   30.4970   45.3910 C   0  0  0  0  0  0  0  0  0  0  0  0
   35.1310   30.0070   45.7820 C   0  0  0  0  0  0  0  0  0  0  0  0
   34.8380   29.9830   47.1480 C   0  0  0  0  0  0  0  0  0  0  0  0
   35.7610   30.4330   48.0500 C   0  0  0  0  0  0  0  0  0  0  0  0
   36.6810   30.5510   44.3350 H   0  0  0  0  0  0  0  0  0  0  0  0
   34.5300   29.6950   44.9600 H   0  0  0  0  0  0  0  0  0  0  0  0
   33.8530   29.5940   47.2400 H   0  0  0  0  0  0  0  0  0  0  0  0
   39.7970   33.2750   45.0060 C   0  0  0  0  0  0  0  0  0  0  0  0
   40.9930   32.5140   44.9810 C   0  0  0  0  0  0  0  0  0  0  0  0
   40.9040   31.2030   45.4110 C   0  0  0  0  0  0  0  0  0  0  0  0
   39.6970   30.6940   45.8380 N   0  0  0  0  0  0  0  0  0  0  0  0
   38.5940   31.4660   45.8390 C   0  0  0  0  0  0  0  0  0  0  0  0
   38.6580   32.7410   45.4250 N   0  0  0  0  0  0  0  0  0  0  0  0
   39.8300   34.3120   44.6730 H   0  0  0  0  0  0  0  0  0  0  0  0
   41.9280   32.9280   44.6440 H   0  0  0  0  0  0  0  0  0  0  0  0
   41.8050   30.5940   45.4040 H   0  0  0  0  0  0  0  0  0  0  0  0
   34.2280   29.4060   49.7520 C   0  0  0  0  0  0  0  0  0  0  0  0
   33.2720   29.8140   49.4960 H   0  0  0  0  0  0  0  0  0  0  0  0
   34.2100   29.3820   50.8970 H   0  0  0  0  0  0  0  0  0  0  0  0
   34.5990   28.0940   49.3800 N   0  0  0  0  0  0  0  0  0  0  0  0
   35.5330   28.0290   48.8970 H   0  0  0  0  0  0  0  0  0  0  0  0
   33.6590   27.3190   48.6580 C   0  0  0  0  0  0  0  0  0  0  0  0
   33.8870   27.2680   47.5680 H   0  0  0  0  0  0  0  0  0  0  0  0
   33.6730   26.2690   49.0360 H   0  0  0  0  0  0  0  0  0  0  0  0
   32.3020   27.9030   48.8930 C   0  0  0  0  0  0  0  0  0  0  0  0
   31.9260   27.6410   49.9140 H   0  0  0  0  0  0  0  0  0  0  0  0
   32.0930   28.9110   48.5940 H   0  0  0  0  0  0  0  0  0  0  0  0
   29.4410   28.1250   48.8370 F   0  0  0  0  0  0  0  0  0  0  0  0
   30.0190   27.2520   47.9900 C   0  0  0  0  0  0  0  0  0  0  0  0
   31.3950   27.0890   47.9610 C   0  0  0  0  0  0  0  0  0  0  0  0
   31.9170   26.1770   47.0690 C   0  0  0  0  0  0  0  0  0  0  0  0
   32.9900   26.0650   47.0610 H   0  0  0  0  0  0  0  0  0  0  0  0
   31.1020   25.4500   46.2320 C   0  0  0  0  0  0  0  0  0  0  0  0
   31.5860   24.7420   45.5480 H   0  0  0  0  0  0  0  0  0  0  0  0
   29.7340   25.6180   46.2690 C   0  0  0  0  0  0  0  0  0  0  0  0
   29.1960   26.5270   47.1550 C   0  0  0  0  0  0  0  0  0  0  0  0
  1 23  1  0  0  0  0
  1  2  1  0  0  0  0
  1  3  1  0  0  0  0
  5 10  1  0  0  0  0
  5  4  1  0  0  0  0
  6  5  2  0  0  0  0
  7  8  2  0  0  0  0
  7  6  1  0  0  0  0
  8  9  1  0  0  0  0
  9 13  1  0  0  0  0
  9 10  2  0  0  0  0
 10  1  1  0  0  0  0
 11  7  1  0  0  0  0
 12  8  1  0  0  0  0
 14 19  1  0  0  0  0
 15 14  2  0  0  0  0
 15 16  1  0  0  0  0
 16 17  2  0  0  0  0
 17 18  1  0  0  0  0
 18  6  1  0  0  0  0
 19 18  2  0  0  0  0
 20 14  1  0  0  0  0
 21 15  1  0  0  0  0
 22 16  1  0  0  0  0
 23 25  1  0  0  0  0
 24 23  1  0  0  0  0
 26 23  1  0  0  0  0
 27 26  1  0  0  0  0
 28 31  1  0  0  0  0
 28 30  1  0  0  0  0
 28 26  1  0  0  0  0
 29 28  1  0  0  0  0
 31 32  1  0  0  0  0
 33 31  1  0  0  0  0
 35 34  1  0  0  0  0
 36 35  1  0  0  0  0
 36 31  1  0  0  0  0
 37 36  2  0  0  0  0
 38 37  1  0  0  0  0
 39 41  2  0  0  0  0
 39 37  1  0  0  0  0
 40 39  1  0  0  0  0
 41 42  1  0  0  0  0
 42 35  2  0  0  0  0
M  END
>  <minimizedAffinity>
-5.53751802

>  <minimizedRMSD>
0.604939997

$$$$
