
 OpenBabel03272502403D

 40 43  0  0  1  0  0  0  0  0999 V2000
   38.0820   25.6410   33.4900 N   0  0  0  0  0  0  0  0  0  0  0  0
   38.4490   25.7630   32.0920 C   0  0  0  0  0  0  0  0  0  0  0  0
   37.6360   26.9360   31.6270 C   0  0  0  0  0  0  0  0  0  0  0  0
   36.6650   27.2680   32.8520 C   0  0  1  0  0  0  0  0  0  0  0  0
   37.5670   26.9450   33.9590 C   0  0  0  0  0  0  0  0  0  0  0  0
   39.5170   25.8800   31.9190 H   0  0  0  0  0  0  0  0  0  0  0  0
   38.0450   24.8610   31.5590 H   0  0  0  0  0  0  0  0  0  0  0  0
   38.2880   27.8350   31.5980 H   0  0  0  0  0  0  0  0  0  0  0  0
   37.0480   26.7820   30.7270 H   0  0  0  0  0  0  0  0  0  0  0  0
   35.8800   26.5520   32.5920 H   0  0  0  0  0  0  0  0  0  0  0  0
   37.1010   26.8250   34.9460 H   0  0  0  0  0  0  0  0  0  0  0  0
   38.4240   27.6500   33.9650 H   0  0  0  0  0  0  0  0  0  0  0  0
   35.1240   28.5190   34.8830 F   0  0  0  0  0  0  0  0  0  0  0  0
   35.5710   29.1950   33.8030 C   0  0  0  0  0  0  0  0  0  0  0  0
   36.2620   28.6730   32.7380 C   0  0  0  0  0  0  0  0  0  0  0  0
   36.6180   29.5360   31.6820 C   0  0  0  0  0  0  0  0  0  0  0  0
   36.2870   30.8780   31.7070 C   0  0  0  0  0  0  0  0  0  0  0  0
   35.5850   31.3830   32.8000 C   0  0  0  0  0  0  0  0  0  0  0  0
   35.2290   30.5250   33.8500 C   0  0  0  0  0  0  0  0  0  0  0  0
   37.1550   29.0100   30.9060 H   0  0  0  0  0  0  0  0  0  0  0  0
   36.6080   31.4510   30.8490 H   0  0  0  0  0  0  0  0  0  0  0  0
   35.3410   32.4370   32.7880 H   0  0  0  0  0  0  0  0  0  0  0  0
   36.6620   31.4700   35.9870 F   0  0  0  0  0  0  0  0  0  0  0  0
   35.3130   31.5960   35.9680 C   0  0  0  0  0  0  0  0  0  0  0  0
   34.4970   31.1560   34.9420 C   0  0  0  0  0  0  0  0  0  0  0  0
   33.1250   31.3200   34.9900 C   0  0  0  0  0  0  0  0  0  0  0  0
   32.5880   30.9460   34.1490 H   0  0  0  0  0  0  0  0  0  0  0  0
   32.5780   31.9410   36.1000 C   0  0  0  0  0  0  0  0  0  0  0  0
   31.5120   32.0440   36.0890 H   0  0  0  0  0  0  0  0  0  0  0  0
   33.3980   32.3790   37.1210 C   0  0  0  0  0  3  0  0  0  0  0  0
   34.7810   32.2250   37.0940 C   0  0  0  0  0  3  0  0  0  0  0  0
   38.1770   24.4870   34.3020 C   0  0  0  0  0  0  0  0  0  0  0  0
   38.1280   24.7070   35.6870 C   0  0  0  0  0  0  0  0  0  0  0  0
   38.2320   23.6000   36.5400 C   0  0  0  0  0  0  0  0  0  0  0  0
   38.3740   22.3610   35.9430 N   0  0  0  0  0  0  0  0  0  0  0  0
   38.4160   22.1960   34.6200 C   0  0  0  0  0  0  0  0  0  0  0  0
   38.3170   23.2630   33.7810 N   0  0  0  0  0  0  0  0  0  0  0  0
   38.0160   25.6840   36.0880 H   0  0  0  0  0  0  0  0  0  0  0  0
   38.1950   23.7620   37.5920 H   0  0  0  0  0  0  0  0  0  0  0  0
   38.5290   21.1880   34.2680 H   0  0  0  0  0  0  0  0  0  0  0  0
  1  5  1  0  0  0  0
  1 32  1  0  0  0  0
  2  1  1  0  0  0  0
  3  2  1  0  0  0  0
  3  4  1  0  0  0  0
  4 10  1  6  0  0  0
  4  5  1  0  0  0  0
  5 12  1  0  0  0  0
  5 11  1  0  0  0  0
  6  2  1  0  0  0  0
  7  2  1  0  0  0  0
  8  3  1  0  0  0  0
  9  3  1  0  0  0  0
 14 19  1  0  0  0  0
 14 13  1  0  0  0  0
 15  4  1  0  0  0  0
 15 14  2  0  0  0  0
 16 17  2  0  0  0  0
 16 15  1  0  0  0  0
 17 18  1  0  0  0  0
 18 19  2  0  0  0  0
 19 25  1  0  0  0  0
 20 16  1  0  0  0  0
 21 17  1  0  0  0  0
 22 18  1  0  0  0  0
 24 23  1  0  0  0  0
 24 31  1  0  0  0  0
 25 26  1  0  0  0  0
 25 24  2  0  0  0  0
 26 28  2  0  0  0  0
 27 26  1  0  0  0  0
 28 30  1  0  0  0  0
 29 28  1  0  0  0  0
 31 30  2  0  0  0  0
 32 33  1  0  0  0  0
 33 38  1  0  0  0  0
 33 34  2  0  0  0  0
 34 39  1  0  0  0  0
 35 34  1  0  0  0  0
 36 35  2  0  0  0  0
 37 32  2  0  0  0  0
 37 36  1  0  0  0  0
 40 36  1  0  0  0  0
M  END
>  <minimizedAffinity>
-6.20639372

$$$$

 OpenBabel03272502403D

 40 43  0  0  1  0  0  0  0  0999 V2000
   39.3630   25.0190   34.1690 N   0  0  0  0  0  0  0  0  0  0  0  0
   39.4870   24.7740   32.7450 C   0  0  0  0  0  0  0  0  0  0  0  0
   38.4360   25.6660   32.1510 C   0  0  0  0  0  0  0  0  0  0  0  0
   37.6230   26.2250   33.4080 C   0  0  1  0  0  0  0  0  0  0  0  0
   38.7240   26.3370   34.3680 C   0  0  0  0  0  0  0  0  0  0  0  0
   40.4840   24.9530   32.3450 H   0  0  0  0  0  0  0  0  0  0  0  0
   39.1560   23.7170   32.5550 H   0  0  0  0  0  0  0  0  0  0  0  0
   38.9230   26.5850   31.7620 H   0  0  0  0  0  0  0  0  0  0  0  0
   37.7500   25.1950   31.4540 H   0  0  0  0  0  0  0  0  0  0  0  0
   36.9330   25.3830   33.5010 H   0  0  0  0  0  0  0  0  0  0  0  0
   38.4400   26.4550   35.4210 H   0  0  0  0  0  0  0  0  0  0  0  0
   39.4480   27.1040   34.0230 H   0  0  0  0  0  0  0  0  0  0  0  0
   36.2820   27.8580   35.3060 F   0  0  0  0  0  0  0  0  0  0  0  0
   36.4200   28.2250   34.0140 C   0  0  0  0  0  0  0  0  0  0  0  0
   36.9880   27.4850   33.0080 C   0  0  0  0  0  0  0  0  0  0  0  0
   37.0130   28.0280   31.7070 C   0  0  0  0  0  0  0  0  0  0  0  0
   36.4810   29.2760   31.4390 C   0  0  0  0  0  0  0  0  0  0  0  0
   35.9100   30.0080   32.4780 C   0  0  0  0  0  0  0  0  0  0  0  0
   35.8840   29.4670   33.7710 C   0  0  0  0  0  0  0  0  0  0  0  0
   37.4830   27.3540   31.0060 H   0  0  0  0  0  0  0  0  0  0  0  0
   36.5530   29.5990   30.4100 H   0  0  0  0  0  0  0  0  0  0  0  0
   35.5030   30.9800   32.2350 H   0  0  0  0  0  0  0  0  0  0  0  0
   33.1790   29.2510   34.1530 F   0  0  0  0  0  0  0  0  0  0  0  0
   33.8980   30.1280   34.8940 C   0  0  0  0  0  0  0  0  0  0  0  0
   35.2630   30.3160   34.7830 C   0  0  0  0  0  0  0  0  0  0  0  0
   35.9330   31.2310   35.5750 C   0  0  0  0  0  0  0  0  0  0  0  0
   36.9840   31.2980   35.4100 H   0  0  0  0  0  0  0  0  0  0  0  0
   35.2000   31.9630   36.4910 C   0  0  0  0  0  0  0  0  0  0  0  0
   35.7650   32.6580   37.0800 H   0  0  0  0  0  0  0  0  0  0  0  0
   33.8370   31.7710   36.5990 C   0  0  0  0  0  3  0  0  0  0  0  0
   33.1420   30.8570   35.8120 C   0  0  0  0  0  3  0  0  0  0  0  0
   39.7640   24.1640   35.2220 C   0  0  0  0  0  0  0  0  0  0  0  0
   38.8430   24.0110   36.2700 C   0  0  0  0  0  0  0  0  0  0  0  0
   39.1940   23.1870   37.3480 C   0  0  0  0  0  0  0  0  0  0  0  0
   40.4350   22.5790   37.2930 N   0  0  0  0  0  0  0  0  0  0  0  0
   41.2810   22.7510   36.2770 C   0  0  0  0  0  0  0  0  0  0  0  0
   40.9520   23.5500   35.2240 N   0  0  0  0  0  0  0  0  0  0  0  0
   37.9020   24.5040   36.2560 H   0  0  0  0  0  0  0  0  0  0  0  0
   38.4980   23.0680   38.1450 H   0  0  0  0  0  0  0  0  0  0  0  0
   42.2170   22.2300   36.3400 H   0  0  0  0  0  0  0  0  0  0  0  0
  1  5  1  0  0  0  0
  1 32  1  0  0  0  0
  2  1  1  0  0  0  0
  3  2  1  0  0  0  0
  3  4  1  0  0  0  0
  4 10  1  1  0  0  0
  4  5  1  0  0  0  0
  5 11  1  0  0  0  0
  6  2  1  0  0  0  0
  7  2  1  0  0  0  0
  8  3  1  0  0  0  0
  9  3  1  0  0  0  0
 12  5  1  0  0  0  0
 14 13  1  0  0  0  0
 15  4  1  0  0  0  0
 15 14  2  0  0  0  0
 16 15  1  0  0  0  0
 17 16  2  0  0  0  0
 17 18  1  0  0  0  0
 18 19  2  0  0  0  0
 19 14  1  0  0  0  0
 19 25  1  0  0  0  0
 20 16  1  0  0  0  0
 21 17  1  0  0  0  0
 22 18  1  0  0  0  0
 23 24  1  0  0  0  0
 24 31  1  0  0  0  0
 25 24  2  0  0  0  0
 25 26  1  0  0  0  0
 26 28  2  0  0  0  0
 27 26  1  0  0  0  0
 28 30  1  0  0  0  0
 28 29  1  0  0  0  0
 31 30  2  0  0  0  0
 32 37  2  0  0  0  0
 32 33  1  0  0  0  0
 33 34  2  0  0  0  0
 34 39  1  0  0  0  0
 35 34  1  0  0  0  0
 36 40  1  0  0  0  0
 36 35  2  0  0  0  0
 37 36  1  0  0  0  0
 38 33  1  0  0  0  0
M  END
>  <minimizedAffinity>
-6.17864275

$$$$

 OpenBabel03272502403D

 40 43  0  0  1  0  0  0  0  0999 V2000
   37.0430   25.3530   32.7400 N   0  0  0  0  0  0  0  0  0  0  0  0
   37.8820   25.8170   33.8280 C   0  0  0  0  0  0  0  0  0  0  0  0
   37.8290   27.3110   33.6870 C   0  0  0  0  0  0  0  0  0  0  0  0
   37.0660   27.5600   32.3060 C   0  0  1  0  0  0  0  0  0  0  0  0
   36.1210   26.4420   32.3560 C   0  0  0  0  0  0  0  0  0  0  0  0
   37.5750   25.4640   34.8120 H   0  0  0  0  0  0  0  0  0  0  0  0
   38.9370   25.5100   33.5960 H   0  0  0  0  0  0  0  0  0  0  0  0
   37.1070   27.7170   34.4280 H   0  0  0  0  0  0  0  0  0  0  0  0
   38.7870   27.8220   33.6710 H   0  0  0  0  0  0  0  0  0  0  0  0
   37.9410   27.4760   31.6570 H   0  0  0  0  0  0  0  0  0  0  0  0
   35.6200   26.1870   31.4130 H   0  0  0  0  0  0  0  0  0  0  0  0
   35.4150   26.5830   33.2000 H   0  0  0  0  0  0  0  0  0  0  0  0
   35.5000   28.3960   34.5230 F   0  0  0  0  0  0  0  0  0  0  0  0
   35.7900   29.2250   33.4970 C   0  0  0  0  0  0  0  0  0  0  0  0
   36.4770   28.9030   32.3540 C   0  0  0  0  0  0  0  0  0  0  0  0
   36.6550   29.9010   31.3750 C   0  0  0  0  0  0  0  0  0  0  0  0
   36.1540   31.1780   31.5500 C   0  0  0  0  0  0  0  0  0  0  0  0
   35.4590   31.4790   32.7210 C   0  0  0  0  0  0  0  0  0  0  0  0
   35.2820   30.4860   33.6940 C   0  0  0  0  0  0  0  0  0  0  0  0
   37.2090   29.5280   30.5250 H   0  0  0  0  0  0  0  0  0  0  0  0
   36.3460   31.8670   30.7410 H   0  0  0  0  0  0  0  0  0  0  0  0
   35.0810   32.4860   32.8260 H   0  0  0  0  0  0  0  0  0  0  0  0
   36.6660   31.7190   35.7130 F   0  0  0  0  0  0  0  0  0  0  0  0
   35.3330   31.5170   35.8330 C   0  0  0  0  0  0  0  0  0  0  0  0
   34.5410   30.9070   34.8770 C   0  0  0  0  0  0  0  0  0  0  0  0
   33.1820   30.7350   35.0680 C   0  0  0  0  0  0  0  0  0  0  0  0
   32.6630   30.2540   34.2710 H   0  0  0  0  0  0  0  0  0  0  0  0
   32.6240   31.1920   36.2500 C   0  0  0  0  0  0  0  0  0  0  0  0
   31.5680   31.0350   36.3500 H   0  0  0  0  0  0  0  0  0  0  0  0
   33.4190   31.8000   37.2000 C   0  0  0  0  0  3  0  0  0  0  0  0
   34.7880   31.9830   37.0300 C   0  0  0  0  0  3  0  0  0  0  0  0
   37.0760   24.0840   32.1170 C   0  0  0  0  0  0  0  0  0  0  0  0
   35.8300   23.5490   31.7520 C   0  0  0  0  0  0  0  0  0  0  0  0
   35.8010   22.2860   31.1440 C   0  0  0  0  0  0  0  0  0  0  0  0
   37.0180   21.6600   30.9450 N   0  0  0  0  0  0  0  0  0  0  0  0
   38.1800   22.2050   31.3060 C   0  0  0  0  0  0  0  0  0  0  0  0
   38.2220   23.4300   31.8990 N   0  0  0  0  0  0  0  0  0  0  0  0
   34.9270   24.0790   31.9300 H   0  0  0  0  0  0  0  0  0  0  0  0
   34.8590   21.8770   30.8660 H   0  0  0  0  0  0  0  0  0  0  0  0
   39.0620   21.6280   31.1030 H   0  0  0  0  0  0  0  0  0  0  0  0
  1  2  1  0  0  0  0
  2  6  1  0  0  0  0
  3  2  1  0  0  0  0
  3  8  1  0  0  0  0
  4 10  1  6  0  0  0
  4 15  1  0  0  0  0
  4  5  1  0  0  0  0
  4  3  1  0  0  0  0
  5  1  1  0  0  0  0
  5 12  1  0  0  0  0
  7  2  1  0  0  0  0
  9  3  1  0  0  0  0
 11  5  1  0  0  0  0
 14 19  1  0  0  0  0
 14 13  1  0  0  0  0
 15 14  2  0  0  0  0
 16 17  2  0  0  0  0
 16 15  1  0  0  0  0
 17 18  1  0  0  0  0
 18 22  1  0  0  0  0
 18 19  2  0  0  0  0
 19 25  1  0  0  0  0
 20 16  1  0  0  0  0
 21 17  1  0  0  0  0
 23 24  1  0  0  0  0
 24 31  1  0  0  0  0
 25 26  1  0  0  0  0
 25 24  2  0  0  0  0
 26 28  2  0  0  0  0
 27 26  1  0  0  0  0
 28 29  1  0  0  0  0
 28 30  1  0  0  0  0
 31 30  2  0  0  0  0
 32  1  1  0  0  0  0
 33 38  1  0  0  0  0
 33 32  2  0  0  0  0
 34 33  1  0  0  0  0
 35 34  2  0  0  0  0
 35 36  1  0  0  0  0
 36 37  2  0  0  0  0
 37 32  1  0  0  0  0
 39 34  1  0  0  0  0
 40 36  1  0  0  0  0
M  END
>  <minimizedAffinity>
-6.14252424

$$$$

 OpenBabel03272502403D

 40 43  0  0  1  0  0  0  0  0999 V2000
   35.8540   29.6850   33.3290 N   0  0  0  0  0  0  0  0  0  0  0  0
   36.2320   29.6500   31.9290 C   0  0  0  0  0  0  0  0  0  0  0  0
   37.0280   28.3810   31.8220 C   0  0  0  0  0  0  0  0  0  0  0  0
   37.2020   27.8830   33.3300 C   0  0  1  0  0  0  0  0  0  0  0  0
   35.9080   28.3100   33.8680 C   0  0  0  0  0  0  0  0  0  0  0  0
   35.3920   29.6950   31.2380 H   0  0  0  0  0  0  0  0  0  0  0  0
   36.9510   30.4950   31.7530 H   0  0  0  0  0  0  0  0  0  0  0  0
   36.3820   27.5880   31.3890 H   0  0  0  0  0  0  0  0  0  0  0  0
   38.0030   28.4680   31.3520 H   0  0  0  0  0  0  0  0  0  0  0  0
   38.0870   28.4820   33.5620 H   0  0  0  0  0  0  0  0  0  0  0  0
   35.8230   28.3380   34.9610 H   0  0  0  0  0  0  0  0  0  0  0  0
   35.0910   27.7380   33.3810 H   0  0  0  0  0  0  0  0  0  0  0  0
   38.7700   26.6180   35.3320 F   0  0  0  0  0  0  0  0  0  0  0  0
   38.1630   25.9200   34.3480 C   0  0  0  0  0  0  0  0  0  0  0  0
   37.4430   26.4370   33.3010 C   0  0  0  0  0  0  0  0  0  0  0  0
   36.9080   25.5450   32.3500 C   0  0  0  0  0  0  0  0  0  0  0  0
   37.0960   24.1800   32.4590 C   0  0  0  0  0  0  0  0  0  0  0  0
   37.8310   23.6800   33.5320 C   0  0  0  0  0  0  0  0  0  0  0  0
   38.3640   24.5670   34.4770 C   0  0  0  0  0  0  0  0  0  0  0  0
   36.3640   26.0700   31.5770 H   0  0  0  0  0  0  0  0  0  0  0  0
   36.6430   23.5850   31.6780 H   0  0  0  0  0  0  0  0  0  0  0  0
   37.9600   22.6070   33.5880 H   0  0  0  0  0  0  0  0  0  0  0  0
   37.1200   24.2410   36.8970 F   0  0  0  0  0  0  0  0  0  0  0  0
   38.3970   23.8230   36.7330 C   0  0  0  0  0  0  0  0  0  0  0  0
   39.1170   23.9390   35.5580 C   0  0  0  0  0  0  0  0  0  0  0  0
   40.4210   23.4880   35.4620 C   0  0  0  0  0  0  0  0  0  0  0  0
   40.8850   23.6240   34.5130 H   0  0  0  0  0  0  0  0  0  0  0  0
   40.9980   22.9120   36.5810 C   0  0  0  0  0  0  0  0  0  0  0  0
   42.0090   22.5790   36.4550 H   0  0  0  0  0  0  0  0  0  0  0  0
   40.2740   22.7980   37.7510 C   0  0  0  0  0  3  0  0  0  0  0  0
   38.9620   23.2450   37.8710 C   0  0  0  0  0  3  0  0  0  0  0  0
   35.4970   30.8220   34.0900 C   0  0  0  0  0  0  0  0  0  0  0  0
   35.8910   30.8060   35.4370 C   0  0  0  0  0  0  0  0  0  0  0  0
   35.5500   31.9010   36.2430 C   0  0  0  0  0  0  0  0  0  0  0  0
   34.8450   32.9260   35.6400 N   0  0  0  0  0  0  0  0  0  0  0  0
   34.4910   32.9020   34.3540 C   0  0  0  0  0  0  0  0  0  0  0  0
   34.8150   31.8440   33.5610 N   0  0  0  0  0  0  0  0  0  0  0  0
   36.4330   29.9880   35.8450 H   0  0  0  0  0  0  0  0  0  0  0  0
   35.8480   31.8920   37.2650 H   0  0  0  0  0  0  0  0  0  0  0  0
   33.9450   33.7530   33.9930 H   0  0  0  0  0  0  0  0  0  0  0  0
  1  5  1  0  0  0  0
  1 32  1  0  0  0  0
  2  1  1  0  0  0  0
  3  2  1  0  0  0  0
  3  4  1  0  0  0  0
  4 10  1  1  0  0  0
  4  5  1  0  0  0  0
  5 11  1  0  0  0  0
  6  2  1  0  0  0  0
  7  2  1  0  0  0  0
  8  3  1  0  0  0  0
  9  3  1  0  0  0  0
 12  5  1  0  0  0  0
 14 19  1  0  0  0  0
 14 13  1  0  0  0  0
 15  4  1  0  0  0  0
 15 14  2  0  0  0  0
 16 17  2  0  0  0  0
 16 15  1  0  0  0  0
 17 18  1  0  0  0  0
 18 22  1  0  0  0  0
 18 19  2  0  0  0  0
 19 25  1  0  0  0  0
 20 16  1  0  0  0  0
 21 17  1  0  0  0  0
 24 23  1  0  0  0  0
 24 31  1  0  0  0  0
 25 24  2  0  0  0  0
 26 25  1  0  0  0  0
 26 28  2  0  0  0  0
 27 26  1  0  0  0  0
 28 30  1  0  0  0  0
 29 28  1  0  0  0  0
 30 31  2  0  0  0  0
 32 33  1  0  0  0  0
 33 38  1  0  0  0  0
 33 34  2  0  0  0  0
 34 39  1  0  0  0  0
 35 34  1  0  0  0  0
 36 35  2  0  0  0  0
 37 32  2  0  0  0  0
 37 36  1  0  0  0  0
 40 36  1  0  0  0  0
M  END
>  <minimizedAffinity>
-6.0485363

$$$$

 OpenBabel03272502403D

 40 43  0  0  1  0  0  0  0  0999 V2000
   35.9020   26.6620   31.4170 N   0  0  0  0  0  0  0  0  0  0  0  0
   34.8670   25.8730   30.7760 C   0  0  0  0  0  0  0  0  0  0  0  0
   35.2900   24.4600   31.0600 C   0  0  0  0  0  0  0  0  0  0  0  0
   36.7410   24.5950   31.7150 C   0  0  1  0  0  0  0  0  0  0  0  0
   36.5440   25.8390   32.4630 C   0  0  0  0  0  0  0  0  0  0  0  0
   33.8580   26.0990   31.1150 H   0  0  0  0  0  0  0  0  0  0  0  0
   34.9680   26.0210   29.6670 H   0  0  0  0  0  0  0  0  0  0  0  0
   34.6880   24.0690   31.9070 H   0  0  0  0  0  0  0  0  0  0  0  0
   35.3380   23.7960   30.2020 H   0  0  0  0  0  0  0  0  0  0  0  0
   37.3030   24.6330   30.7790 H   0  0  0  0  0  0  0  0  0  0  0  0
   37.4530   26.3400   32.8210 H   0  0  0  0  0  0  0  0  0  0  0  0
   35.7890   25.6830   33.2620 H   0  0  0  0  0  0  0  0  0  0  0  0
   38.6390   24.6040   33.8270 F   0  0  0  0  0  0  0  0  0  0  0  0
   37.8780   23.5230   33.5510 C   0  0  0  0  0  0  0  0  0  0  0  0
   36.9850   23.3930   32.5180 C   0  0  0  0  0  0  0  0  0  0  0  0
   36.3020   22.1680   32.3730 C   0  0  0  0  0  0  0  0  0  0  0  0
   36.5170   21.1170   33.2440 C   0  0  0  0  0  0  0  0  0  0  0  0
   37.4310   21.2750   34.2860 C   0  0  0  0  0  0  0  0  0  0  0  0
   38.1100   22.4930   34.4300 C   0  0  0  0  0  0  0  0  0  0  0  0
   35.6290   22.1880   31.5270 H   0  0  0  0  0  0  0  0  0  0  0  0
   35.9420   20.2240   33.0460 H   0  0  0  0  0  0  0  0  0  0  0  0
   37.5760   20.4340   34.9490 H   0  0  0  0  0  0  0  0  0  0  0  0
   37.1680   23.3770   36.8470 F   0  0  0  0  0  0  0  0  0  0  0  0
   38.4660   23.0100   36.7210 C   0  0  0  0  0  0  0  0  0  0  0  0
   39.0420   22.5500   35.5510 C   0  0  0  0  0  0  0  0  0  0  0  0
   40.3770   22.1910   35.4960 C   0  0  0  0  0  0  0  0  0  0  0  0
   40.7210   21.8500   34.5470 H   0  0  0  0  0  0  0  0  0  0  0  0
   41.1320   22.3030   36.6500 C   0  0  0  0  0  0  0  0  0  0  0  0
   42.1600   22.0120   36.5550 H   0  0  0  0  0  0  0  0  0  0  0  0
   40.5520   22.7610   37.8150 C   0  0  0  0  0  3  0  0  0  0  0  0
   39.2120   23.1290   37.8940 C   0  0  0  0  0  3  0  0  0  0  0  0
   36.2720   27.9930   31.1150 C   0  0  0  0  0  0  0  0  0  0  0  0
   35.9220   28.9580   32.0730 C   0  0  0  0  0  0  0  0  0  0  0  0
   36.2510   30.2960   31.8180 C   0  0  0  0  0  0  0  0  0  0  0  0
   36.9060   30.5650   30.6300 N   0  0  0  0  0  0  0  0  0  0  0  0
   37.2210   29.6170   29.7470 C   0  0  0  0  0  0  0  0  0  0  0  0
   36.9060   28.3130   29.9810 N   0  0  0  0  0  0  0  0  0  0  0  0
   35.4200   28.6900   32.9690 H   0  0  0  0  0  0  0  0  0  0  0  0
   35.9880   31.0310   32.5420 H   0  0  0  0  0  0  0  0  0  0  0  0
   37.7290   29.9410   28.8590 H   0  0  0  0  0  0  0  0  0  0  0  0
  1  5  1  0  0  0  0
  2  3  1  0  0  0  0
  2  6  1  0  0  0  0
  2  1  1  0  0  0  0
  3  4  1  0  0  0  0
  3  8  1  0  0  0  0
  4 10  1  6  0  0  0
  4  5  1  0  0  0  0
  4 15  1  0  0  0  0
  5 11  1  0  0  0  0
  5 12  1  0  0  0  0
  7  2  1  0  0  0  0
  9  3  1  0  0  0  0
 14 13  1  0  0  0  0
 14 19  1  0  0  0  0
 15 14  2  0  0  0  0
 16 15  1  0  0  0  0
 16 17  2  0  0  0  0
 17 18  1  0  0  0  0
 18 19  2  0  0  0  0
 18 22  1  0  0  0  0
 19 25  1  0  0  0  0
 20 16  1  0  0  0  0
 21 17  1  0  0  0  0
 24 23  1  0  0  0  0
 24 31  1  0  0  0  0
 25 24  2  0  0  0  0
 26 25  1  0  0  0  0
 26 28  2  0  0  0  0
 27 26  1  0  0  0  0
 28 30  1  0  0  0  0
 29 28  1  0  0  0  0
 30 31  2  0  0  0  0
 32  1  1  0  0  0  0
 32 33  1  0  0  0  0
 33 38  1  0  0  0  0
 34 33  2  0  0  0  0
 34 39  1  0  0  0  0
 35 34  1  0  0  0  0
 36 37  1  0  0  0  0
 36 35  2  0  0  0  0
 37 32  2  0  0  0  0
 40 36  1  0  0  0  0
M  END
>  <minimizedAffinity>
-5.84264565

$$$$

 OpenBabel03272502403D

 40 43  0  0  1  0  0  0  0  0999 V2000
   37.0770   27.6280   30.7170 N   0  0  0  0  0  0  0  0  0  0  0  0
   37.4790   28.3390   29.5190 C   0  0  0  0  0  0  0  0  0  0  0  0
   37.0180   29.7430   29.7840 C   0  0  0  0  0  0  0  0  0  0  0  0
   36.1580   29.6410   31.1260 C   0  0  1  0  0  0  0  0  0  0  0  0
   36.9270   28.6030   31.8170 C   0  0  0  0  0  0  0  0  0  0  0  0
   38.5410   28.2670   29.2910 H   0  0  0  0  0  0  0  0  0  0  0  0
   36.8530   27.9510   28.6700 H   0  0  0  0  0  0  0  0  0  0  0  0
   37.8880   30.3510   30.1120 H   0  0  0  0  0  0  0  0  0  0  0  0
   36.4210   30.2040   29.0030 H   0  0  0  0  0  0  0  0  0  0  0  0
   35.2130   29.3620   30.6530 H   0  0  0  0  0  0  0  0  0  0  0  0
   36.4340   28.1220   32.6720 H   0  0  0  0  0  0  0  0  0  0  0  0
   37.9420   28.9820   32.0560 H   0  0  0  0  0  0  0  0  0  0  0  0
   34.5690   30.1600   33.4220 F   0  0  0  0  0  0  0  0  0  0  0  0
   35.3940   31.0900   32.8950 C   0  0  0  0  0  0  0  0  0  0  0  0
   36.1500   30.9640   31.7570 C   0  0  0  0  0  0  0  0  0  0  0  0
   36.9310   32.0630   31.3460 C   0  0  0  0  0  0  0  0  0  0  0  0
   36.9450   33.2450   32.0640 C   0  0  0  0  0  0  0  0  0  0  0  0
   36.1680   33.3470   33.2170 C   0  0  0  0  0  0  0  0  0  0  0  0
   35.3910   32.2540   33.6250 C   0  0  0  0  0  0  0  0  0  0  0  0
   37.4780   31.8430   30.4400 H   0  0  0  0  0  0  0  0  0  0  0  0
   37.5780   34.0240   31.6640 H   0  0  0  0  0  0  0  0  0  0  0  0
   36.2010   34.2840   33.7550 H   0  0  0  0  0  0  0  0  0  0  0  0
   36.5170   31.5250   36.0150 F   0  0  0  0  0  0  0  0  0  0  0  0
   35.2760   32.0660   35.9910 C   0  0  0  0  0  0  0  0  0  0  0  0
   34.6170   32.4680   34.8430 C   0  0  0  0  0  0  0  0  0  0  0  0
   33.3480   33.0160   34.8940 C   0  0  0  0  0  0  0  0  0  0  0  0
   32.9290   33.2920   33.9540 H   0  0  0  0  0  0  0  0  0  0  0  0
   32.7440   33.1540   36.1310 C   0  0  0  0  0  0  0  0  0  0  0  0
   31.7620   33.5830   36.1170 H   0  0  0  0  0  0  0  0  0  0  0  0
   33.4070   32.7520   37.2730 C   0  0  0  0  0  3  0  0  0  0  0  0
   34.6830   32.1980   37.2470 C   0  0  0  0  0  3  0  0  0  0  0  0
   36.8470   26.2390   30.8500 C   0  0  0  0  0  0  0  0  0  0  0  0
   35.5130   25.8570   31.0680 C   0  0  0  0  0  0  0  0  0  0  0  0
   35.2290   24.4940   31.2230 C   0  0  0  0  0  0  0  0  0  0  0  0
   36.2970   23.6190   31.1440 N   0  0  0  0  0  0  0  0  0  0  0  0
   37.5500   24.0240   30.9340 C   0  0  0  0  0  0  0  0  0  0  0  0
   37.8400   25.3460   30.7840 N   0  0  0  0  0  0  0  0  0  0  0  0
   34.7340   26.5770   31.1180 H   0  0  0  0  0  0  0  0  0  0  0  0
   34.2200   24.2000   31.3880 H   0  0  0  0  0  0  0  0  0  0  0  0
   38.3000   23.2570   30.8920 H   0  0  0  0  0  0  0  0  0  0  0  0
  1 32  1  0  0  0  0
  1  5  1  0  0  0  0
  2  3  1  0  0  0  0
  2  1  1  0  0  0  0
  3  8  1  0  0  0  0
  3  4  1  0  0  0  0
  4 10  1  6  0  0  0
  4 15  1  0  0  0  0
  4  5  1  0  0  0  0
  5 12  1  0  0  0  0
  5 11  1  0  0  0  0
  6  2  1  0  0  0  0
  7  2  1  0  0  0  0
  9  3  1  0  0  0  0
 14 13  1  0  0  0  0
 14 19  1  0  0  0  0
 15 14  2  0  0  0  0
 16 15  1  0  0  0  0
 16 17  2  0  0  0  0
 17 18  1  0  0  0  0
 18 19  2  0  0  0  0
 18 22  1  0  0  0  0
 19 25  1  0  0  0  0
 20 16  1  0  0  0  0
 21 17  1  0  0  0  0
 24 23  1  0  0  0  0
 24 31  1  0  0  0  0
 25 26  1  0  0  0  0
 25 24  2  0  0  0  0
 26 28  2  0  0  0  0
 27 26  1  0  0  0  0
 28 30  1  0  0  0  0
 29 28  1  0  0  0  0
 31 30  2  0  0  0  0
 32 33  1  0  0  0  0
 33 38  1  0  0  0  0
 33 34  2  0  0  0  0
 34 39  1  0  0  0  0
 35 34  1  0  0  0  0
 36 35  2  0  0  0  0
 37 32  2  0  0  0  0
 37 36  1  0  0  0  0
 40 36  1  0  0  0  0
M  END
>  <minimizedAffinity>
-5.78891611

$$$$

 OpenBabel03272502403D

 40 43  0  0  1  0  0  0  0  0999 V2000
   35.8780   29.6440   33.5150 N   0  0  0  0  0  0  0  0  0  0  0  0
   36.1260   29.5830   32.0880 C   0  0  0  0  0  0  0  0  0  0  0  0
   36.9220   28.3190   31.9340 C   0  0  0  0  0  0  0  0  0  0  0  0
   37.2390   27.8560   33.4290 C   0  0  1  0  0  0  0  0  0  0  0  0
   35.9960   28.2820   34.0750 C   0  0  0  0  0  0  0  0  0  0  0  0
   35.2260   29.6050   31.4760 H   0  0  0  0  0  0  0  0  0  0  0  0
   36.8170   30.4310   31.8290 H   0  0  0  0  0  0  0  0  0  0  0  0
   36.2470   27.5110   31.5790 H   0  0  0  0  0  0  0  0  0  0  0  0
   37.8490   28.4050   31.3750 H   0  0  0  0  0  0  0  0  0  0  0  0
   38.1350   28.4670   33.5670 H   0  0  0  0  0  0  0  0  0  0  0  0
   36.0100   28.3320   35.1710 H   0  0  0  0  0  0  0  0  0  0  0  0
   35.1440   27.6920   33.6770 H   0  0  0  0  0  0  0  0  0  0  0  0
   38.6590   26.5850   35.5360 F   0  0  0  0  0  0  0  0  0  0  0  0
   38.1340   25.8910   34.5030 C   0  0  0  0  0  0  0  0  0  0  0  0
   37.4920   26.4110   33.4080 C   0  0  0  0  0  0  0  0  0  0  0  0
   37.0380   25.5230   32.4120 C   0  0  0  0  0  0  0  0  0  0  0  0
   37.2270   24.1580   32.5250 C   0  0  0  0  0  0  0  0  0  0  0  0
   37.8820   23.6550   33.6480 C   0  0  0  0  0  0  0  0  0  0  0  0
   38.3340   24.5380   34.6380 C   0  0  0  0  0  0  0  0  0  0  0  0
   36.5510   26.0510   31.6040 H   0  0  0  0  0  0  0  0  0  0  0  0
   36.8390   23.5670   31.7080 H   0  0  0  0  0  0  0  0  0  0  0  0
   38.0130   22.5830   33.7050 H   0  0  0  0  0  0  0  0  0  0  0  0
   40.9780   23.8700   34.3600 F   0  0  0  0  0  0  0  0  0  0  0  0
   40.3340   23.6110   35.5220 C   0  0  0  0  0  0  0  0  0  0  0  0
   39.0060   23.9060   35.7680 C   0  0  0  0  0  0  0  0  0  0  0  0
   38.4140   23.6130   36.9830 C   0  0  0  0  0  0  0  0  0  0  0  0
   37.3860   23.8810   37.0700 H   0  0  0  0  0  0  0  0  0  0  0  0
   39.1870   23.0100   37.9600 C   0  0  0  0  0  0  0  0  0  0  0  0
   38.6820   22.8030   38.8820 H   0  0  0  0  0  0  0  0  0  0  0  0
   40.5130   22.7180   37.7090 C   0  0  0  0  0  3  0  0  0  0  0  0
   41.1300   23.0030   36.4950 C   0  0  0  0  0  3  0  0  0  0  0  0
   35.5790   30.7950   34.2820 C   0  0  0  0  0  0  0  0  0  0  0  0
   34.9420   31.8400   33.5950 C   0  0  0  0  0  0  0  0  0  0  0  0
   34.6360   33.0110   34.3020 C   0  0  0  0  0  0  0  0  0  0  0  0
   34.9860   33.0440   35.6400 N   0  0  0  0  0  0  0  0  0  0  0  0
   35.5890   32.0260   36.2550 C   0  0  0  0  0  0  0  0  0  0  0  0
   35.8940   30.8840   35.5790 N   0  0  0  0  0  0  0  0  0  0  0  0
   34.6970   31.7560   32.5650 H   0  0  0  0  0  0  0  0  0  0  0  0
   34.1530   33.8060   33.7850 H   0  0  0  0  0  0  0  0  0  0  0  0
   35.8140   32.1630   37.2960 H   0  0  0  0  0  0  0  0  0  0  0  0
  1  5  1  0  0  0  0
  1 32  1  0  0  0  0
  2  1  1  0  0  0  0
  3  2  1  0  0  0  0
  3  4  1  0  0  0  0
  4 10  1  1  0  0  0
  4  5  1  0  0  0  0
  5 11  1  0  0  0  0
  6  2  1  0  0  0  0
  7  2  1  0  0  0  0
  8  3  1  0  0  0  0
  9  3  1  0  0  0  0
 12  5  1  0  0  0  0
 14 19  1  0  0  0  0
 14 13  1  0  0  0  0
 15  4  1  0  0  0  0
 15 14  2  0  0  0  0
 16 17  2  0  0  0  0
 16 15  1  0  0  0  0
 17 18  1  0  0  0  0
 18 22  1  0  0  0  0
 18 19  2  0  0  0  0
 19 25  1  0  0  0  0
 20 16  1  0  0  0  0
 21 17  1  0  0  0  0
 23 24  1  0  0  0  0
 24 25  2  0  0  0  0
 24 31  1  0  0  0  0
 25 26  1  0  0  0  0
 26 27  1  0  0  0  0
 26 28  2  0  0  0  0
 28 29  1  0  0  0  0
 30 28  1  0  0  0  0
 31 30  2  0  0  0  0
 32 37  1  0  0  0  0
 33 32  2  0  0  0  0
 33 34  1  0  0  0  0
 34 35  2  0  0  0  0
 35 36  1  0  0  0  0
 36 40  1  0  0  0  0
 37 36  2  0  0  0  0
 38 33  1  0  0  0  0
 39 34  1  0  0  0  0
M  END
>  <minimizedAffinity>
-5.78481007

$$$$

 OpenBabel03272502403D

 40 43  0  0  1  0  0  0  0  0999 V2000
   39.7540   25.5510   33.2190 N   0  0  0  0  0  0  0  0  0  0  0  0
   39.0790   24.9400   32.0900 C   0  0  0  0  0  0  0  0  0  0  0  0
   37.8320   25.7650   31.9500 C   0  0  0  0  0  0  0  0  0  0  0  0
   37.8260   26.7120   33.2360 C   0  0  1  0  0  0  0  0  0  0  0  0
   39.2680   26.9390   33.3660 C   0  0  0  0  0  0  0  0  0  0  0  0
   39.6770   24.9000   31.1800 H   0  0  0  0  0  0  0  0  0  0  0  0
   38.7510   23.9140   32.4080 H   0  0  0  0  0  0  0  0  0  0  0  0
   37.9750   26.4940   31.1250 H   0  0  0  0  0  0  0  0  0  0  0  0
   36.8990   25.2120   31.9000 H   0  0  0  0  0  0  0  0  0  0  0  0
   37.3460   26.0030   33.9170 H   0  0  0  0  0  0  0  0  0  0  0  0
   39.6100   27.3510   34.3230 H   0  0  0  0  0  0  0  0  0  0  0  0
   39.6400   27.5080   32.4890 H   0  0  0  0  0  0  0  0  0  0  0  0
   36.4890   28.1570   35.2830 F   0  0  0  0  0  0  0  0  0  0  0  0
   36.4610   28.5500   33.9910 C   0  0  0  0  0  0  0  0  0  0  0  0
   37.0140   27.8910   32.9220 C   0  0  0  0  0  0  0  0  0  0  0  0
   36.8530   28.4460   31.6360 C   0  0  0  0  0  0  0  0  0  0  0  0
   36.1570   29.6250   31.4440 C   0  0  0  0  0  0  0  0  0  0  0  0
   35.6050   30.2750   32.5460 C   0  0  0  0  0  0  0  0  0  0  0  0
   35.7640   29.7230   33.8250 C   0  0  0  0  0  0  0  0  0  0  0  0
   37.3310   27.8380   30.8810 H   0  0  0  0  0  0  0  0  0  0  0  0
   36.0930   29.9640   30.4200 H   0  0  0  0  0  0  0  0  0  0  0  0
   35.0670   31.1940   32.3610 H   0  0  0  0  0  0  0  0  0  0  0  0
   33.0970   29.3290   34.3200 F   0  0  0  0  0  0  0  0  0  0  0  0
   33.8010   30.2100   35.0710 C   0  0  0  0  0  0  0  0  0  0  0  0
   35.1470   30.4820   34.9060 C   0  0  0  0  0  0  0  0  0  0  0  0
   35.8020   31.3960   35.7130 C   0  0  0  0  0  0  0  0  0  0  0  0
   36.8380   31.5330   35.5030 H   0  0  0  0  0  0  0  0  0  0  0  0
   35.0750   32.0380   36.6990 C   0  0  0  0  0  0  0  0  0  0  0  0
   35.6270   32.7350   37.2960 H   0  0  0  0  0  0  0  0  0  0  0  0
   33.7320   31.7610   36.8590 C   0  0  0  0  0  3  0  0  0  0  0  0
   33.0520   30.8470   36.0600 C   0  0  0  0  0  3  0  0  0  0  0  0
   40.7140   24.9520   34.0680 C   0  0  0  0  0  0  0  0  0  0  0  0
   41.8020   25.7620   34.4290 C   0  0  0  0  0  0  0  0  0  0  0  0
   42.7920   25.2150   35.2570 C   0  0  0  0  0  0  0  0  0  0  0  0
   42.6150   23.9050   35.6610 N   0  0  0  0  0  0  0  0  0  0  0  0
   41.5650   23.1700   35.2950 C   0  0  0  0  0  0  0  0  0  0  0  0
   40.5970   23.6880   34.4900 N   0  0  0  0  0  0  0  0  0  0  0  0
   41.8820   26.7640   34.0870 H   0  0  0  0  0  0  0  0  0  0  0  0
   43.6180   25.8260   35.5330 H   0  0  0  0  0  0  0  0  0  0  0  0
   41.5320   22.1640   35.6690 H   0  0  0  0  0  0  0  0  0  0  0  0
  1  5  1  0  0  0  0
  1 32  1  0  0  0  0
  2  7  1  0  0  0  0
  2  1  1  0  0  0  0
  3  2  1  0  0  0  0
  3  4  1  0  0  0  0
  4  5  1  0  0  0  0
  4 10  1  1  0  0  0
  5 11  1  0  0  0  0
  6  2  1  0  0  0  0
  8  3  1  0  0  0  0
  9  3  1  0  0  0  0
 12  5  1  0  0  0  0
 14 13  1  0  0  0  0
 15  4  1  0  0  0  0
 15 14  2  0  0  0  0
 16 15  1  0  0  0  0
 17 16  2  0  0  0  0
 17 18  1  0  0  0  0
 18 19  2  0  0  0  0
 19 14  1  0  0  0  0
 19 25  1  0  0  0  0
 20 16  1  0  0  0  0
 21 17  1  0  0  0  0
 22 18  1  0  0  0  0
 23 24  1  0  0  0  0
 24 31  1  0  0  0  0
 25 24  2  0  0  0  0
 25 26  1  0  0  0  0
 26 28  2  0  0  0  0
 27 26  1  0  0  0  0
 28 30  1  0  0  0  0
 28 29  1  0  0  0  0
 31 30  2  0  0  0  0
 32 33  2  0  0  0  0
 32 37  1  0  0  0  0
 33 34  1  0  0  0  0
 34 39  1  0  0  0  0
 34 35  2  0  0  0  0
 36 35  1  0  0  0  0
 36 40  1  0  0  0  0
 37 36  2  0  0  0  0
 38 33  1  0  0  0  0
M  END
>  <minimizedAffinity>
-5.72813272

$$$$

 OpenBabel03272502403D

 40 43  0  0  1  0  0  0  0  0999 V2000
   38.0640   27.3160   30.9900 N   0  0  0  0  0  0  0  0  0  0  0  0
   37.4160   27.7700   32.2050 C   0  0  0  0  0  0  0  0  0  0  0  0
   36.9130   26.4970   32.8210 C   0  0  0  0  0  0  0  0  0  0  0  0
   37.1740   25.3790   31.7090 C   0  0  1  0  0  0  0  0  0  0  0  0
   38.4270   25.8930   31.1510 C   0  0  0  0  0  0  0  0  0  0  0  0
   38.0610   28.3470   32.8670 H   0  0  0  0  0  0  0  0  0  0  0  0
   36.5090   28.3610   31.9030 H   0  0  0  0  0  0  0  0  0  0  0  0
   37.6110   26.1880   33.6280 H   0  0  0  0  0  0  0  0  0  0  0  0
   35.8660   26.4870   33.1080 H   0  0  0  0  0  0  0  0  0  0  0  0
   36.2490   25.5360   31.1480 H   0  0  0  0  0  0  0  0  0  0  0  0
   38.7330   25.4770   30.1830 H   0  0  0  0  0  0  0  0  0  0  0  0
   39.2280   25.8460   31.9180 H   0  0  0  0  0  0  0  0  0  0  0  0
   38.9620   24.9680   33.8770 F   0  0  0  0  0  0  0  0  0  0  0  0
   38.1080   24.0090   33.4600 C   0  0  0  0  0  0  0  0  0  0  0  0
   37.2550   24.0810   32.3870 C   0  0  0  0  0  0  0  0  0  0  0  0
   36.4570   22.9580   32.0880 C   0  0  0  0  0  0  0  0  0  0  0  0
   36.5220   21.8060   32.8490 C   0  0  0  0  0  0  0  0  0  0  0  0
   37.3970   21.7580   33.9330 C   0  0  0  0  0  0  0  0  0  0  0  0
   38.1910   22.8740   34.2310 C   0  0  0  0  0  0  0  0  0  0  0  0
   35.8310   23.1370   31.2250 H   0  0  0  0  0  0  0  0  0  0  0  0
   35.8690   21.0050   32.5350 H   0  0  0  0  0  0  0  0  0  0  0  0
   37.4240   20.8420   34.5080 H   0  0  0  0  0  0  0  0  0  0  0  0
   37.2620   23.6780   36.6810 F   0  0  0  0  0  0  0  0  0  0  0  0
   38.5050   23.1530   36.5690 C   0  0  0  0  0  0  0  0  0  0  0  0
   39.0700   22.7170   35.3840 C   0  0  0  0  0  0  0  0  0  0  0  0
   40.3470   22.1880   35.3450 C   0  0  0  0  0  0  0  0  0  0  0  0
   40.6880   21.8830   34.3830 H   0  0  0  0  0  0  0  0  0  0  0  0
   41.0580   22.1050   36.5300 C   0  0  0  0  0  0  0  0  0  0  0  0
   42.0420   21.6890   36.4460 H   0  0  0  0  0  0  0  0  0  0  0  0
   40.4890   22.5410   37.7090 C   0  0  0  0  0  3  0  0  0  0  0  0
   39.2060   23.0760   37.7730 C   0  0  0  0  0  3  0  0  0  0  0  0
   38.3160   28.0720   29.8210 C   0  0  0  0  0  0  0  0  0  0  0  0
   37.4600   29.1630   29.6020 C   0  0  0  0  0  0  0  0  0  0  0  0
   37.6550   29.9390   28.4510 C   0  0  0  0  0  0  0  0  0  0  0  0
   38.6900   29.5670   27.6130 N   0  0  0  0  0  0  0  0  0  0  0  0
   39.4810   28.5230   27.8600 C   0  0  0  0  0  0  0  0  0  0  0  0
   39.3020   27.7600   28.9740 N   0  0  0  0  0  0  0  0  0  0  0  0
   36.6810   29.4010   30.2840 H   0  0  0  0  0  0  0  0  0  0  0  0
   37.0080   30.7670   28.2800 H   0  0  0  0  0  0  0  0  0  0  0  0
   40.2530   28.3270   27.1400 H   0  0  0  0  0  0  0  0  0  0  0  0
  1  5  1  0  0  0  0
  1  2  1  0  0  0  0
  2  3  1  0  0  0  0
  2  6  1  0  0  0  0
  3  9  1  0  0  0  0
  3  8  1  0  0  0  0
  4 10  1  6  0  0  0
  4 15  1  0  0  0  0
  4  3  1  0  0  0  0
  5  4  1  0  0  0  0
  5 12  1  0  0  0  0
  7  2  1  0  0  0  0
 11  5  1  0  0  0  0
 14 13  1  0  0  0  0
 14 19  1  0  0  0  0
 15 14  2  0  0  0  0
 16 15  1  0  0  0  0
 16 17  2  0  0  0  0
 17 18  1  0  0  0  0
 18 19  2  0  0  0  0
 18 22  1  0  0  0  0
 19 25  1  0  0  0  0
 20 16  1  0  0  0  0
 21 17  1  0  0  0  0
 24 23  1  0  0  0  0
 24 31  1  0  0  0  0
 25 24  2  0  0  0  0
 26 25  1  0  0  0  0
 26 28  2  0  0  0  0
 27 26  1  0  0  0  0
 28 30  1  0  0  0  0
 29 28  1  0  0  0  0
 30 31  2  0  0  0  0
 32  1  1  0  0  0  0
 33 32  1  0  0  0  0
 33 38  1  0  0  0  0
 34 33  2  0  0  0  0
 35 36  2  0  0  0  0
 35 34  1  0  0  0  0
 36 37  1  0  0  0  0
 37 32  2  0  0  0  0
 39 34  1  0  0  0  0
 40 36  1  0  0  0  0
M  END
>  <minimizedAffinity>
-5.61358404

$$$$
