
 OpenBabel03272510013D

 21 22  0  0  0  0  0  0  0  0999 V2000
   38.3890   32.7160   49.3530 C   0  0  0  0  0  0  0  0  0  0  0  0
   38.9420   32.8030   48.0530 C   0  0  0  0  0  0  0  0  0  0  0  0
   38.3760   32.0330   47.0500 C   0  0  0  0  0  0  0  0  0  0  0  0
   37.3250   31.2480   47.3970 N   0  0  0  0  0  0  0  0  0  0  0  0
   36.8160   31.1780   48.6280 C   0  0  0  0  0  0  0  0  0  0  0  0
   37.3560   31.9140   49.5940 N   0  0  0  0  0  0  0  0  0  0  0  0
   38.8090   33.3050   50.1550 H   0  0  0  0  0  0  0  0  0  0  0  0
   39.7720   33.4390   47.8330 H   0  0  0  0  0  0  0  0  0  0  0  0
   40.8030   30.8190   46.3090 F   0  0  0  0  0  0  0  0  0  0  0  0
   40.0340   31.4300   45.3550 C   0  0  0  0  0  0  0  0  0  0  0  0
   38.8500   32.0300   45.6730 C   0  0  0  0  0  0  0  0  0  0  0  0
   38.1650   32.6120   44.6280 C   0  0  0  0  0  0  0  0  0  0  0  0
   37.2210   33.1040   44.8090 H   0  0  0  0  0  0  0  0  0  0  0  0
   38.6030   32.6150   43.3260 C   0  0  0  0  0  0  0  0  0  0  0  0
   38.0240   33.0880   42.5460 H   0  0  0  0  0  0  0  0  0  0  0  0
   39.8000   32.0080   43.0080 C   0  0  0  0  0  3  0  0  0  0  0  0
   40.5000   31.4180   44.0540 C   0  0  0  0  0  3  0  0  0  0  0  0
   35.6760   30.2680   48.8560 C   0  0  0  0  0  0  0  0  0  0  0  0
   34.8340   30.7120   49.8710 F   0  0  0  0  0  0  0  0  0  0  0  0
   34.8910   30.1390   47.7240 F   0  0  0  0  0  0  0  0  0  0  0  0
   36.0570   28.9860   49.2110 F   0  0  0  0  0  0  0  0  0  0  0  0
  1  6  1  0  0  0  0
  1  7  1  0  0  0  0
  2  1  2  0  0  0  0
  3  4  2  0  0  0  0
  3  2  1  0  0  0  0
  4  5  1  0  0  0  0
  5 18  1  0  0  0  0
  5  6  2  0  0  0  0
  8  2  1  0  0  0  0
 10 11  1  0  0  0  0
 10  9  1  0  0  0  0
 11  3  1  0  0  0  0
 12 13  1  0  0  0  0
 12 11  2  0  0  0  0
 14 12  1  0  0  0  0
 15 14  1  0  0  0  0
 16 14  2  0  0  0  0
 16 17  1  0  0  0  0
 17 10  2  0  0  0  0
 18 21  1  0  0  0  0
 18 19  1  0  0  0  0
 20 18  1  0  0  0  0
M  END
>  <minimizedAffinity>
-5.76401949

>  <minimizedRMSD>
2.28790021

$$$$
