
 OpenBabel03272506253D

 31 33  0  0  0  0  0  0  0  0999 V2000
   40.4080   23.7240   35.3470 C   0  0  0  0  0  0  0  0  0  0  0  0
   41.5290   23.0340   35.7130 C   0  0  0  0  0  0  0  0  0  0  0  0
   42.8040   23.5630   35.7600 C   0  0  0  0  0  0  0  0  0  0  0  0
   42.9810   24.9130   35.4080 C   0  0  0  0  0  0  0  0  0  0  0  0
   41.8340   25.6320   35.0290 C   0  0  0  0  0  0  0  0  0  0  0  0
   40.5830   25.0590   34.9980 C   0  0  0  0  0  0  0  0  0  0  0  0
   41.4760   21.9880   35.9980 H   0  0  0  0  0  0  0  0  0  0  0  0
   43.6670   22.9820   36.0560 H   0  0  0  0  0  0  0  0  0  0  0  0
   43.9460   25.4040   35.4180 H   0  0  0  0  0  0  0  0  0  0  0  0
   41.9630   26.6790   34.7540 H   0  0  0  0  0  0  0  0  0  0  0  0
   39.4320   24.9950   32.3870 F   0  0  0  0  0  0  0  0  0  0  0  0
   38.8480   25.7800   33.3270 C   0  0  0  0  0  0  0  0  0  0  0  0
   39.4130   25.8120   34.6020 C   0  0  0  0  0  0  0  0  0  0  0  0
   38.8510   26.5980   35.5820 C   0  0  0  0  0  0  0  0  0  0  0  0
   39.2070   26.6990   36.6040 H   0  0  0  0  0  0  0  0  0  0  0  0
   37.7220   27.3730   35.3410 C   0  0  0  0  0  0  0  0  0  0  0  0
   37.2260   28.0140   36.0590 H   0  0  0  0  0  0  0  0  0  0  0  0
   37.1750   27.3220   34.0550 C   0  0  0  0  0  3  0  0  0  0  0  0
   37.7250   26.5450   33.0760 C   0  0  0  0  0  3  0  0  0  0  0  0
   38.7500   22.4060   34.1270 C   0  0  0  0  0  0  0  0  0  0  0  0
   39.1570   23.0130   35.3570 C   0  0  0  0  0  0  0  0  0  0  0  0
   38.3020   22.8620   36.4500 C   0  0  0  0  0  0  0  0  0  0  0  0
   37.1480   22.1600   36.2930 N   0  0  0  0  0  0  0  0  0  0  0  0
   36.7900   21.5960   35.1120 C   0  0  0  0  0  0  0  0  0  0  0  0
   37.6040   21.7250   34.0220 N   0  0  0  0  0  0  0  0  0  0  0  0
   39.4100   22.5160   33.2620 H   0  0  0  0  0  0  0  0  0  0  0  0
   35.8600   21.0740   35.1340 H   0  0  0  0  0  0  0  0  0  0  0  0
   38.6060   23.4400   37.7880 C   0  0  0  0  0  0  0  0  0  0  0  0
   37.6360   22.9860   38.7140 F   0  0  0  0  0  0  0  0  0  0  0  0
   39.8330   23.1940   38.2970 F   0  0  0  0  0  0  0  0  0  0  0  0
   38.3900   24.8230   37.7580 F   0  0  0  0  0  0  0  0  0  0  0  0
  1 21  1  0  0  0  0
  1  2  1  0  0  0  0
  2  3  2  0  0  0  0
  2  7  1  0  0  0  0
  3  8  1  0  0  0  0
  4  9  1  0  0  0  0
  4  3  1  0  0  0  0
  5  4  2  0  0  0  0
  6  5  1  0  0  0  0
  6  1  2  0  0  0  0
 10  5  1  0  0  0  0
 11 12  1  0  0  0  0
 12 13  1  0  0  0  0
 13  6  1  0  0  0  0
 13 14  2  0  0  0  0
 14 15  1  0  0  0  0
 16 14  1  0  0  0  0
 16 17  1  0  0  0  0
 18 16  2  0  0  0  0
 19 12  2  0  0  0  0
 19 18  1  0  0  0  0
 20 21  1  0  0  0  0
 21 22  2  0  0  0  0
 22 28  1  0  0  0  0
 23 22  1  0  0  0  0
 24 27  1  0  0  0  0
 24 23  2  0  0  0  0
 25 20  2  0  0  0  0
 25 24  1  0  0  0  0
 26 20  1  0  0  0  0
 28 30  1  0  0  0  0
 28 29  1  0  0  0  0
 31 28  1  0  0  0  0
M  END
>  <minimizedAffinity>
-5.81686974

$$$$

 OpenBabel03272506253D

 31 33  0  0  0  0  0  0  0  0999 V2000
   38.4470   23.6450   33.6840 C   0  0  0  0  0  0  0  0  0  0  0  0
   38.0110   23.4390   32.4060 C   0  0  0  0  0  0  0  0  0  0  0  0
   37.1820   22.4080   32.0090 C   0  0  0  0  0  0  0  0  0  0  0  0
   36.7440   21.4890   32.9800 C   0  0  0  0  0  0  0  0  0  0  0  0
   37.1890   21.6920   34.2980 C   0  0  0  0  0  0  0  0  0  0  0  0
   38.0150   22.7360   34.6450 C   0  0  0  0  0  0  0  0  0  0  0  0
   38.3040   24.1030   31.5980 H   0  0  0  0  0  0  0  0  0  0  0  0
   36.8590   22.2800   30.9850 H   0  0  0  0  0  0  0  0  0  0  0  0
   36.0940   20.6540   32.7520 H   0  0  0  0  0  0  0  0  0  0  0  0
   36.8540   20.9840   35.0570 H   0  0  0  0  0  0  0  0  0  0  0  0
   40.5030   21.7840   35.6680 F   0  0  0  0  0  0  0  0  0  0  0  0
   39.6830   22.4650   36.5060 C   0  0  0  0  0  0  0  0  0  0  0  0
   38.4660   22.9280   36.0060 C   0  0  0  0  0  0  0  0  0  0  0  0
   37.6060   23.6210   36.8260 C   0  0  0  0  0  0  0  0  0  0  0  0
   36.6370   24.0240   36.5430 H   0  0  0  0  0  0  0  0  0  0  0  0
   37.9120   23.8800   38.1580 C   0  0  0  0  0  0  0  0  0  0  0  0
   37.2880   24.4160   38.8610 H   0  0  0  0  0  0  0  0  0  0  0  0
   39.1390   23.4060   38.6340 C   0  0  0  0  0  3  0  0  0  0  0  0
   40.0000   22.7170   37.8280 C   0  0  0  0  0  3  0  0  0  0  0  0
   40.7160   24.5310   33.8830 C   0  0  0  0  0  0  0  0  0  0  0  0
   39.3070   24.7740   33.9190 C   0  0  0  0  0  0  0  0  0  0  0  0
   38.8970   26.0830   34.1810 C   0  0  0  0  0  0  0  0  0  0  0  0
   39.8400   27.0400   34.3860 N   0  0  0  0  0  0  0  0  0  0  0  0
   41.1710   26.7780   34.3460 C   0  0  0  0  0  0  0  0  0  0  0  0
   41.6060   25.5080   34.0920 N   0  0  0  0  0  0  0  0  0  0  0  0
   41.0520   23.5100   33.6790 H   0  0  0  0  0  0  0  0  0  0  0  0
   41.7950   27.6240   34.5240 H   0  0  0  0  0  0  0  0  0  0  0  0
   37.4610   26.4730   34.2440 C   0  0  0  0  0  0  0  0  0  0  0  0
   37.3750   27.8830   34.3440 F   0  0  0  0  0  0  0  0  0  0  0  0
   36.6720   26.0650   33.2260 F   0  0  0  0  0  0  0  0  0  0  0  0
   36.9120   26.0370   35.4550 F   0  0  0  0  0  0  0  0  0  0  0  0
  1 21  1  0  0  0  0
  1  6  1  0  0  0  0
  2  1  2  0  0  0  0
  3  2  1  0  0  0  0
  3  4  2  0  0  0  0
  4  5  1  0  0  0  0
  5  6  2  0  0  0  0
  5 10  1  0  0  0  0
  6 13  1  0  0  0  0
  7  2  1  0  0  0  0
  8  3  1  0  0  0  0
  9  4  1  0  0  0  0
 11 12  1  0  0  0  0
 12 19  1  0  0  0  0
 13 12  2  0  0  0  0
 13 14  1  0  0  0  0
 14 16  2  0  0  0  0
 15 14  1  0  0  0  0
 16 18  1  0  0  0  0
 16 17  1  0  0  0  0
 19 18  2  0  0  0  0
 20 21  2  0  0  0  0
 20 25  1  0  0  0  0
 21 22  1  0  0  0  0
 22 28  1  0  0  0  0
 22 23  2  0  0  0  0
 24 23  1  0  0  0  0
 24 27  1  0  0  0  0
 25 24  2  0  0  0  0
 26 20  1  0  0  0  0
 28 29  1  0  0  0  0
 28 31  1  0  0  0  0
 30 28  1  0  0  0  0
M  END
>  <minimizedAffinity>
-5.60920095

$$$$

 OpenBabel03272506253D

 31 33  0  0  0  0  0  0  0  0999 V2000
   38.8210   25.1530   35.3210 C   0  0  0  0  0  0  0  0  0  0  0  0
   38.6960   26.3850   35.8970 C   0  0  0  0  0  0  0  0  0  0  0  0
   37.9510   27.4280   35.3830 C   0  0  0  0  0  0  0  0  0  0  0  0
   37.2600   27.2250   34.1750 C   0  0  0  0  0  0  0  0  0  0  0  0
   37.3810   25.9600   33.5730 C   0  0  0  0  0  0  0  0  0  0  0  0
   38.1380   24.9510   34.1250 C   0  0  0  0  0  0  0  0  0  0  0  0
   39.1980   26.6220   36.8300 H   0  0  0  0  0  0  0  0  0  0  0  0
   37.8780   28.3900   35.8710 H   0  0  0  0  0  0  0  0  0  0  0  0
   36.6540   27.9900   33.7060 H   0  0  0  0  0  0  0  0  0  0  0  0
   36.8490   25.7940   32.6360 H   0  0  0  0  0  0  0  0  0  0  0  0
   39.9510   24.3540   32.0040 F   0  0  0  0  0  0  0  0  0  0  0  0
   39.1430   23.3630   32.4560 C   0  0  0  0  0  0  0  0  0  0  0  0
   38.2550   23.6570   33.4910 C   0  0  0  0  0  0  0  0  0  0  0  0
   37.4170   22.6780   33.9750 C   0  0  0  0  0  0  0  0  0  0  0  0
   36.6900   22.7960   34.7740 H   0  0  0  0  0  0  0  0  0  0  0  0
   37.4250   21.3870   33.4590 C   0  0  0  0  0  0  0  0  0  0  0  0
   36.7980   20.5680   33.7870 H   0  0  0  0  0  0  0  0  0  0  0  0
   38.3250   21.1180   32.4220 C   0  0  0  0  0  3  0  0  0  0  0  0
   39.1600   22.0830   31.9350 C   0  0  0  0  0  3  0  0  0  0  0  0
   40.9260   23.9180   35.4330 C   0  0  0  0  0  0  0  0  0  0  0  0
   39.6390   24.1820   35.9970 C   0  0  0  0  0  0  0  0  0  0  0  0
   39.2940   23.4710   37.1480 C   0  0  0  0  0  0  0  0  0  0  0  0
   40.1830   22.5810   37.6640 N   0  0  0  0  0  0  0  0  0  0  0  0
   41.3980   22.3530   37.1060 C   0  0  0  0  0  0  0  0  0  0  0  0
   41.7670   23.0320   35.9780 N   0  0  0  0  0  0  0  0  0  0  0  0
   41.2100   24.4680   34.5310 H   0  0  0  0  0  0  0  0  0  0  0  0
   41.9920   21.6290   37.6170 H   0  0  0  0  0  0  0  0  0  0  0  0
   37.9860   23.6520   37.8380 C   0  0  0  0  0  0  0  0  0  0  0  0
   38.0090   24.8780   38.5460 F   0  0  0  0  0  0  0  0  0  0  0  0
   36.8780   23.6210   37.0660 F   0  0  0  0  0  0  0  0  0  0  0  0
   37.8630   22.7010   38.8580 F   0  0  0  0  0  0  0  0  0  0  0  0
  1  2  1  0  0  0  0
  1 21  1  0  0  0  0
  2  7  1  0  0  0  0
  3  8  1  0  0  0  0
  3  2  2  0  0  0  0
  4  3  1  0  0  0  0
  5  6  1  0  0  0  0
  5  4  2  0  0  0  0
  6  1  2  0  0  0  0
  9  4  1  0  0  0  0
 10  5  1  0  0  0  0
 11 12  1  0  0  0  0
 12 13  1  0  0  0  0
 13 14  2  0  0  0  0
 13  6  1  0  0  0  0
 14 15  1  0  0  0  0
 16 17  1  0  0  0  0
 16 14  1  0  0  0  0
 18 16  2  0  0  0  0
 19 18  1  0  0  0  0
 19 12  2  0  0  0  0
 20 25  2  0  0  0  0
 20 21  1  0  0  0  0
 21 22  2  0  0  0  0
 22 23  1  0  0  0  0
 22 28  1  0  0  0  0
 24 27  1  0  0  0  0
 24 23  2  0  0  0  0
 25 24  1  0  0  0  0
 26 20  1  0  0  0  0
 28 29  1  0  0  0  0
 28 31  1  0  0  0  0
 30 28  1  0  0  0  0
M  END
>  <minimizedAffinity>
-5.56509209

$$$$

 OpenBabel03272506253D

 31 33  0  0  0  0  0  0  0  0999 V2000
   39.4930   26.0740   32.9790 C   0  0  0  0  0  0  0  0  0  0  0  0
   40.2440   26.8860   32.1780 C   0  0  0  0  0  0  0  0  0  0  0  0
   41.4520   27.4530   32.5340 C   0  0  0  0  0  0  0  0  0  0  0  0
   41.9640   27.1860   33.8170 C   0  0  0  0  0  0  0  0  0  0  0  0
   41.1980   26.3530   34.6510 C   0  0  0  0  0  0  0  0  0  0  0  0
   39.9980   25.8110   34.2490 C   0  0  0  0  0  0  0  0  0  0  0  0
   39.9190   27.1400   31.1730 H   0  0  0  0  0  0  0  0  0  0  0  0
   42.0170   28.0910   31.8680 H   0  0  0  0  0  0  0  0  0  0  0  0
   42.9020   27.5910   34.1740 H   0  0  0  0  0  0  0  0  0  0  0  0
   41.5870   26.1410   35.6470 H   0  0  0  0  0  0  0  0  0  0  0  0
   38.2120   26.7610   36.2610 F   0  0  0  0  0  0  0  0  0  0  0  0
   38.3460   25.4210   36.1030 C   0  0  0  0  0  0  0  0  0  0  0  0
   39.2210   24.9580   35.1210 C   0  0  0  0  0  0  0  0  0  0  0  0
   39.3860   23.6040   34.9320 C   0  0  0  0  0  0  0  0  0  0  0  0
   40.0380   23.1350   34.2000 H   0  0  0  0  0  0  0  0  0  0  0  0
   38.6990   22.6690   35.6980 C   0  0  0  0  0  0  0  0  0  0  0  0
   38.7770   21.5930   35.6070 H   0  0  0  0  0  0  0  0  0  0  0  0
   37.8270   23.1600   36.6750 C   0  0  0  0  0  3  0  0  0  0  0  0
   37.6570   24.5010   36.8710 C   0  0  0  0  0  3  0  0  0  0  0  0
   38.2760   24.2330   31.9310 C   0  0  0  0  0  0  0  0  0  0  0  0
   38.2580   25.5690   32.4430 C   0  0  0  0  0  0  0  0  0  0  0  0
   37.0460   26.2590   32.3700 C   0  0  0  0  0  0  0  0  0  0  0  0
   35.9650   25.6370   31.8270 N   0  0  0  0  0  0  0  0  0  0  0  0
   36.0140   24.3670   31.3500 C   0  0  0  0  0  0  0  0  0  0  0  0
   37.1850   23.6640   31.4060 N   0  0  0  0  0  0  0  0  0  0  0  0
   39.2190   23.6810   31.9820 H   0  0  0  0  0  0  0  0  0  0  0  0
   35.0920   24.0070   30.9540 H   0  0  0  0  0  0  0  0  0  0  0  0
   36.8890   27.6530   32.8680 C   0  0  0  0  0  0  0  0  0  0  0  0
   35.5240   28.0190   32.7790 F   0  0  0  0  0  0  0  0  0  0  0  0
   37.3200   27.9070   34.1220 F   0  0  0  0  0  0  0  0  0  0  0  0
   37.5110   28.5370   31.9800 F   0  0  0  0  0  0  0  0  0  0  0  0
  1  6  1  0  0  0  0
  2  3  1  0  0  0  0
  2  1  2  0  0  0  0
  3  4  2  0  0  0  0
  4  9  1  0  0  0  0
  4  5  1  0  0  0  0
  5 10  1  0  0  0  0
  6  5  2  0  0  0  0
  6 13  1  0  0  0  0
  7  2  1  0  0  0  0
  8  3  1  0  0  0  0
 12 11  1  0  0  0  0
 12 19  1  0  0  0  0
 13 12  2  0  0  0  0
 14 13  1  0  0  0  0
 14 16  2  0  0  0  0
 15 14  1  0  0  0  0
 16 18  1  0  0  0  0
 17 16  1  0  0  0  0
 18 19  2  0  0  0  0
 20 26  1  0  0  0  0
 20 21  1  0  0  0  0
 21  1  1  0  0  0  0
 22 21  2  0  0  0  0
 22 28  1  0  0  0  0
 23 22  1  0  0  0  0
 24 25  1  0  0  0  0
 24 23  2  0  0  0  0
 25 20  2  0  0  0  0
 27 24  1  0  0  0  0
 28 30  1  0  0  0  0
 29 28  1  0  0  0  0
 31 28  1  0  0  0  0
M  END
>  <minimizedAffinity>
-5.53151274

$$$$

 OpenBabel03272506253D

 31 33  0  0  0  0  0  0  0  0999 V2000
   40.3610   25.8590   33.9120 C   0  0  0  0  0  0  0  0  0  0  0  0
   41.5800   26.2690   34.3710 C   0  0  0  0  0  0  0  0  0  0  0  0
   42.4160   27.1520   33.7170 C   0  0  0  0  0  0  0  0  0  0  0  0
   41.9980   27.6810   32.4820 C   0  0  0  0  0  0  0  0  0  0  0  0
   40.7450   27.2650   32.0000 C   0  0  0  0  0  0  0  0  0  0  0  0
   39.9460   26.3800   32.6900 C   0  0  0  0  0  0  0  0  0  0  0  0
   41.9750   25.9070   35.3160 H   0  0  0  0  0  0  0  0  0  0  0  0
   43.3760   27.4520   34.1160 H   0  0  0  0  0  0  0  0  0  0  0  0
   42.5930   28.3780   31.9070 H   0  0  0  0  0  0  0  0  0  0  0  0
   40.4130   27.6690   31.0440 H   0  0  0  0  0  0  0  0  0  0  0  0
   37.5350   27.8850   32.9530 F   0  0  0  0  0  0  0  0  0  0  0  0
   37.4820   26.6960   32.3030 C   0  0  0  0  0  0  0  0  0  0  0  0
   38.6610   25.9600   32.1780 C   0  0  0  0  0  0  0  0  0  0  0  0
   38.6470   24.7470   31.5270 C   0  0  0  0  0  0  0  0  0  0  0  0
   39.5020   24.0940   31.3730 H   0  0  0  0  0  0  0  0  0  0  0  0
   37.4800   24.2220   30.9820 C   0  0  0  0  0  0  0  0  0  0  0  0
   37.3920   23.2790   30.4590 H   0  0  0  0  0  0  0  0  0  0  0  0
   36.3130   24.9800   31.1210 C   0  0  0  0  0  3  0  0  0  0  0  0
   36.3160   26.1840   31.7650 C   0  0  0  0  0  3  0  0  0  0  0  0
   39.8940   23.5420   34.5340 C   0  0  0  0  0  0  0  0  0  0  0  0
   39.6210   24.9330   34.7260 C   0  0  0  0  0  0  0  0  0  0  0  0
   38.6590   25.2630   35.6840 C   0  0  0  0  0  0  0  0  0  0  0  0
   38.0430   24.2630   36.3710 N   0  0  0  0  0  0  0  0  0  0  0  0
   38.3250   22.9520   36.1650 C   0  0  0  0  0  0  0  0  0  0  0  0
   39.2600   22.5950   35.2350 N   0  0  0  0  0  0  0  0  0  0  0  0
   40.6450   23.2700   33.7870 H   0  0  0  0  0  0  0  0  0  0  0  0
   37.7670   22.2780   36.7740 H   0  0  0  0  0  0  0  0  0  0  0  0
   38.2810   26.6710   35.9860 C   0  0  0  0  0  0  0  0  0  0  0  0
   38.1280   26.8130   37.3860 F   0  0  0  0  0  0  0  0  0  0  0  0
   39.1160   27.6360   35.5440 F   0  0  0  0  0  0  0  0  0  0  0  0
   36.9920   26.9210   35.5010 F   0  0  0  0  0  0  0  0  0  0  0  0
  1  2  1  0  0  0  0
  1 21  1  0  0  0  0
  2  7  1  0  0  0  0
  3  8  1  0  0  0  0
  3  2  2  0  0  0  0
  4  3  1  0  0  0  0
  5  4  2  0  0  0  0
  5  6  1  0  0  0  0
  6  1  2  0  0  0  0
  9  4  1  0  0  0  0
 10  5  1  0  0  0  0
 12 11  1  0  0  0  0
 13 12  1  0  0  0  0
 13  6  1  0  0  0  0
 14 13  2  0  0  0  0
 15 14  1  0  0  0  0
 16 18  2  0  0  0  0
 16 14  1  0  0  0  0
 17 16  1  0  0  0  0
 18 19  1  0  0  0  0
 19 12  2  0  0  0  0
 20 21  2  0  0  0  0
 20 25  1  0  0  0  0
 21 22  1  0  0  0  0
 22 28  1  0  0  0  0
 22 23  2  0  0  0  0
 24 23  1  0  0  0  0
 24 27  1  0  0  0  0
 25 24  2  0  0  0  0
 26 20  1  0  0  0  0
 28 29  1  0  0  0  0
 30 28  1  0  0  0  0
 31 28  1  0  0  0  0
M  END
>  <minimizedAffinity>
-5.50219774

$$$$

 OpenBabel03272506253D

 31 33  0  0  0  0  0  0  0  0999 V2000
   38.3550   22.7200   34.3070 C   0  0  0  0  0  0  0  0  0  0  0  0
   37.4600   21.7180   34.0640 C   0  0  0  0  0  0  0  0  0  0  0  0
   36.5380   21.7120   33.0350 C   0  0  0  0  0  0  0  0  0  0  0  0
   36.5030   22.8150   32.1620 C   0  0  0  0  0  0  0  0  0  0  0  0
   37.4200   23.8520   32.4040 C   0  0  0  0  0  0  0  0  0  0  0  0
   38.3220   23.8110   33.4440 C   0  0  0  0  0  0  0  0  0  0  0  0
   37.4220   20.8330   34.6920 H   0  0  0  0  0  0  0  0  0  0  0  0
   35.8450   20.8980   32.8760 H   0  0  0  0  0  0  0  0  0  0  0  0
   35.8120   22.8880   31.3320 H   0  0  0  0  0  0  0  0  0  0  0  0
   37.4000   24.7100   31.7320 H   0  0  0  0  0  0  0  0  0  0  0  0
   40.9630   23.9200   32.3700 F   0  0  0  0  0  0  0  0  0  0  0  0
   40.5470   24.9450   33.1540 C   0  0  0  0  0  0  0  0  0  0  0  0
   39.2560   24.8890   33.6810 C   0  0  0  0  0  0  0  0  0  0  0  0
   38.7980   25.9080   34.4840 C   0  0  0  0  0  0  0  0  0  0  0  0
   37.8160   25.9670   34.9460 H   0  0  0  0  0  0  0  0  0  0  0  0
   39.5890   27.0090   34.7930 C   0  0  0  0  0  0  0  0  0  0  0  0
   39.2990   27.8460   35.4150 H   0  0  0  0  0  0  0  0  0  0  0  0
   40.8790   27.0410   34.2520 C   0  0  0  0  0  3  0  0  0  0  0  0
   41.3430   26.0340   33.4540 C   0  0  0  0  0  3  0  0  0  0  0  0
   40.5410   22.0160   35.1440 C   0  0  0  0  0  0  0  0  0  0  0  0
   39.2470   22.5580   35.4240 C   0  0  0  0  0  0  0  0  0  0  0  0
   38.9680   22.8750   36.7550 C   0  0  0  0  0  0  0  0  0  0  0  0
   39.9230   22.6570   37.6990 N   0  0  0  0  0  0  0  0  0  0  0  0
   41.1420   22.1410   37.4010 C   0  0  0  0  0  0  0  0  0  0  0  0
   41.4470   21.8190   36.1080 N   0  0  0  0  0  0  0  0  0  0  0  0
   40.7730   21.7630   34.1050 H   0  0  0  0  0  0  0  0  0  0  0  0
   41.7910   22.0240   38.2390 H   0  0  0  0  0  0  0  0  0  0  0  0
   37.6620   23.4480   37.1840 C   0  0  0  0  0  0  0  0  0  0  0  0
   37.6900   23.6510   38.5850 F   0  0  0  0  0  0  0  0  0  0  0  0
   37.2740   24.5970   36.5900 F   0  0  0  0  0  0  0  0  0  0  0  0
   36.6580   22.4860   37.0250 F   0  0  0  0  0  0  0  0  0  0  0  0
  1 21  1  0  0  0  0
  2  1  1  0  0  0  0
  2  7  1  0  0  0  0
  3  2  2  0  0  0  0
  4  5  2  0  0  0  0
  4  3  1  0  0  0  0
  5  6  1  0  0  0  0
  6 13  1  0  0  0  0
  6  1  2  0  0  0  0
  8  3  1  0  0  0  0
  9  4  1  0  0  0  0
 10  5  1  0  0  0  0
 11 12  1  0  0  0  0
 12 19  2  0  0  0  0
 12 13  1  0  0  0  0
 13 14  2  0  0  0  0
 14 16  1  0  0  0  0
 14 15  1  0  0  0  0
 16 17  1  0  0  0  0
 18 16  2  0  0  0  0
 19 18  1  0  0  0  0
 20 21  2  0  0  0  0
 20 25  1  0  0  0  0
 21 22  1  0  0  0  0
 22 28  1  0  0  0  0
 22 23  2  0  0  0  0
 24 23  1  0  0  0  0
 24 27  1  0  0  0  0
 25 24  2  0  0  0  0
 26 20  1  0  0  0  0
 28 29  1  0  0  0  0
 30 28  1  0  0  0  0
 31 28  1  0  0  0  0
M  END
>  <minimizedAffinity>
-5.46271324

$$$$

 OpenBabel03272506253D

 31 33  0  0  0  0  0  0  0  0999 V2000
   39.1920   24.0180   35.6170 C   0  0  0  0  0  0  0  0  0  0  0  0
   38.5630   23.5100   36.7170 C   0  0  0  0  0  0  0  0  0  0  0  0
   39.1870   22.8200   37.7380 C   0  0  0  0  0  0  0  0  0  0  0  0
   40.5760   22.6150   37.6560 C   0  0  0  0  0  0  0  0  0  0  0  0
   41.2340   23.1340   36.5270 C   0  0  0  0  0  0  0  0  0  0  0  0
   40.5660   23.8160   35.5340 C   0  0  0  0  0  0  0  0  0  0  0  0
   37.4920   23.6260   36.8550 H   0  0  0  0  0  0  0  0  0  0  0  0
   38.6510   22.4330   38.5940 H   0  0  0  0  0  0  0  0  0  0  0  0
   41.1410   22.0860   38.4130 H   0  0  0  0  0  0  0  0  0  0  0  0
   42.3100   22.9800   36.4550 H   0  0  0  0  0  0  0  0  0  0  0  0
   40.8310   22.4340   33.0520 F   0  0  0  0  0  0  0  0  0  0  0  0
   41.3850   23.6660   33.1620 C   0  0  0  0  0  0  0  0  0  0  0  0
   41.2580   24.3400   34.3770 C   0  0  0  0  0  0  0  0  0  0  0  0
   41.8090   25.5910   34.5290 C   0  0  0  0  0  0  0  0  0  0  0  0
   41.7710   26.2030   35.4260 H   0  0  0  0  0  0  0  0  0  0  0  0
   42.5000   26.2180   33.4970 C   0  0  0  0  0  0  0  0  0  0  0  0
   42.9590   27.1970   33.5420 H   0  0  0  0  0  0  0  0  0  0  0  0
   42.6130   25.5210   32.2890 C   0  0  0  0  0  3  0  0  0  0  0  0
   42.0690   24.2790   32.1280 C   0  0  0  0  0  3  0  0  0  0  0  0
   37.9180   23.9520   33.5330 C   0  0  0  0  0  0  0  0  0  0  0  0
   38.3840   24.7130   34.6510 C   0  0  0  0  0  0  0  0  0  0  0  0
   38.0160   26.0590   34.6980 C   0  0  0  0  0  0  0  0  0  0  0  0
   37.2470   26.5680   33.6980 N   0  0  0  0  0  0  0  0  0  0  0  0
   36.8200   25.8190   32.6500 C   0  0  0  0  0  0  0  0  0  0  0  0
   37.1630   24.4990   32.5730 N   0  0  0  0  0  0  0  0  0  0  0  0
   38.1990   22.8970   33.4820 H   0  0  0  0  0  0  0  0  0  0  0  0
   36.2240   26.3490   31.9410 H   0  0  0  0  0  0  0  0  0  0  0  0
   38.4310   26.9630   35.8060 C   0  0  0  0  0  0  0  0  0  0  0  0
   37.7500   28.1970   35.6690 F   0  0  0  0  0  0  0  0  0  0  0  0
   38.2490   26.5100   37.0660 F   0  0  0  0  0  0  0  0  0  0  0  0
   39.7730   27.3220   35.6360 F   0  0  0  0  0  0  0  0  0  0  0  0
  1  2  1  0  0  0  0
  2  7  1  0  0  0  0
  2  3  2  0  0  0  0
  3  8  1  0  0  0  0
  4  3  1  0  0  0  0
  4  9  1  0  0  0  0
  5  4  2  0  0  0  0
  6  1  2  0  0  0  0
  6  5  1  0  0  0  0
 10  5  1  0  0  0  0
 11 12  1  0  0  0  0
 12 13  1  0  0  0  0
 13 14  2  0  0  0  0
 13  6  1  0  0  0  0
 14 15  1  0  0  0  0
 16 17  1  0  0  0  0
 16 14  1  0  0  0  0
 18 16  2  0  0  0  0
 19 18  1  0  0  0  0
 19 12  2  0  0  0  0
 20 21  1  0  0  0  0
 21 22  2  0  0  0  0
 21  1  1  0  0  0  0
 22 28  1  0  0  0  0
 23 22  1  0  0  0  0
 24 23  2  0  0  0  0
 25 24  1  0  0  0  0
 25 20  2  0  0  0  0
 26 20  1  0  0  0  0
 27 24  1  0  0  0  0
 28 30  1  0  0  0  0
 29 28  1  0  0  0  0
 31 28  1  0  0  0  0
M  END
>  <minimizedAffinity>
-5.44166803

$$$$

 OpenBabel03272506253D

 31 33  0  0  0  0  0  0  0  0999 V2000
   37.3730   25.6880   32.1440 C   0  0  0  0  0  0  0  0  0  0  0  0
   37.2710   24.3270   32.1830 C   0  0  0  0  0  0  0  0  0  0  0  0
   36.1990   23.5990   31.7040 C   0  0  0  0  0  0  0  0  0  0  0  0
   35.1210   24.2960   31.1290 C   0  0  0  0  0  0  0  0  0  0  0  0
   35.2160   25.6980   31.0840 C   0  0  0  0  0  0  0  0  0  0  0  0
   36.3080   26.3780   31.5760 C   0  0  0  0  0  0  0  0  0  0  0  0
   38.0600   23.7160   32.6110 H   0  0  0  0  0  0  0  0  0  0  0  0
   36.1560   22.5200   31.7540 H   0  0  0  0  0  0  0  0  0  0  0  0
   34.2440   23.8020   30.7300 H   0  0  0  0  0  0  0  0  0  0  0  0
   34.3850   26.2460   30.6400 H   0  0  0  0  0  0  0  0  0  0  0  0
   37.5480   27.8510   29.4700 F   0  0  0  0  0  0  0  0  0  0  0  0
   36.9910   28.5430   30.4950 C   0  0  0  0  0  0  0  0  0  0  0  0
   36.3880   27.8210   31.5250 C   0  0  0  0  0  0  0  0  0  0  0  0
   35.8140   28.4870   32.5850 C   0  0  0  0  0  0  0  0  0  0  0  0
   35.3190   28.0280   33.4370 H   0  0  0  0  0  0  0  0  0  0  0  0
   35.8150   29.8750   32.6650 C   0  0  0  0  0  0  0  0  0  0  0  0
   35.3850   30.4660   33.4630 H   0  0  0  0  0  0  0  0  0  0  0  0
   36.4260   30.5750   31.6190 C   0  0  0  0  0  3  0  0  0  0  0  0
   36.9980   29.9240   30.5630 C   0  0  0  0  0  3  0  0  0  0  0  0
   39.6140   26.5860   31.7650 C   0  0  0  0  0  0  0  0  0  0  0  0
   38.5650   26.2800   32.6890 C   0  0  0  0  0  0  0  0  0  0  0  0
   38.7980   26.5810   34.0320 C   0  0  0  0  0  0  0  0  0  0  0  0
   39.9860   27.1390   34.3870 N   0  0  0  0  0  0  0  0  0  0  0  0
   40.9620   27.4180   33.4860 C   0  0  0  0  0  0  0  0  0  0  0  0
   40.7670   27.1360   32.1630 N   0  0  0  0  0  0  0  0  0  0  0  0
   39.4460   26.3560   30.7090 H   0  0  0  0  0  0  0  0  0  0  0  0
   41.8410   27.8550   33.9050 H   0  0  0  0  0  0  0  0  0  0  0  0
   37.7910   26.3170   35.0960 C   0  0  0  0  0  0  0  0  0  0  0  0
   38.2630   26.8580   36.3170 F   0  0  0  0  0  0  0  0  0  0  0  0
   36.5380   26.7730   34.8800 F   0  0  0  0  0  0  0  0  0  0  0  0
   37.7410   24.9430   35.3590 F   0  0  0  0  0  0  0  0  0  0  0  0
  1  2  1  0  0  0  0
  1 21  1  0  0  0  0
  2  7  1  0  0  0  0
  3  8  1  0  0  0  0
  3  2  2  0  0  0  0
  4  3  1  0  0  0  0
  5  4  2  0  0  0  0
  5  6  1  0  0  0  0
  6  1  2  0  0  0  0
  9  4  1  0  0  0  0
 10  5  1  0  0  0  0
 11 12  1  0  0  0  0
 12 19  2  0  0  0  0
 12 13  1  0  0  0  0
 13  6  1  0  0  0  0
 13 14  2  0  0  0  0
 14 16  1  0  0  0  0
 14 15  1  0  0  0  0
 16 17  1  0  0  0  0
 18 16  2  0  0  0  0
 19 18  1  0  0  0  0
 20 25  2  0  0  0  0
 20 21  1  0  0  0  0
 21 22  2  0  0  0  0
 22 23  1  0  0  0  0
 22 28  1  0  0  0  0
 24 27  1  0  0  0  0
 24 23  2  0  0  0  0
 25 24  1  0  0  0  0
 26 20  1  0  0  0  0
 28 31  1  0  0  0  0
 28 29  1  0  0  0  0
 30 28  1  0  0  0  0
M  END
>  <minimizedAffinity>
-5.36668444

$$$$

 OpenBabel03272506253D

 31 33  0  0  0  0  0  0  0  0999 V2000
   40.4700   24.9050   33.9780 C   0  0  0  0  0  0  0  0  0  0  0  0
   41.7360   24.3990   34.0520 C   0  0  0  0  0  0  0  0  0  0  0  0
   42.8860   25.1570   34.1550 C   0  0  0  0  0  0  0  0  0  0  0  0
   42.7650   26.5580   34.1860 C   0  0  0  0  0  0  0  0  0  0  0  0
   41.4650   27.0890   34.1100 C   0  0  0  0  0  0  0  0  0  0  0  0
   40.3480   26.2910   34.0090 C   0  0  0  0  0  0  0  0  0  0  0  0
   41.9150   23.3290   34.0340 H   0  0  0  0  0  0  0  0  0  0  0  0
   43.8730   24.7170   34.2110 H   0  0  0  0  0  0  0  0  0  0  0  0
   43.6150   27.2230   34.2650 H   0  0  0  0  0  0  0  0  0  0  0  0
   41.3620   28.1740   34.1330 H   0  0  0  0  0  0  0  0  0  0  0  0
   38.9060   27.3460   36.2330 F   0  0  0  0  0  0  0  0  0  0  0  0
   38.3140   27.3730   35.0130 C   0  0  0  0  0  0  0  0  0  0  0  0
   39.0180   26.8540   33.9270 C   0  0  0  0  0  0  0  0  0  0  0  0
   38.4500   26.8610   32.6740 C   0  0  0  0  0  0  0  0  0  0  0  0
   38.9070   26.4840   31.7620 H   0  0  0  0  0  0  0  0  0  0  0  0
   37.1780   27.3750   32.4490 C   0  0  0  0  0  0  0  0  0  0  0  0
   36.6670   27.4140   31.4960 H   0  0  0  0  0  0  0  0  0  0  0  0
   36.4920   27.8890   33.5550 C   0  0  0  0  0  3  0  0  0  0  0  0
   37.0480   27.8870   34.8030 C   0  0  0  0  0  3  0  0  0  0  0  0
   38.9180   23.6590   32.5610 C   0  0  0  0  0  0  0  0  0  0  0  0
   39.3840   23.9670   33.8770 C   0  0  0  0  0  0  0  0  0  0  0  0
   38.7400   23.3320   34.9420 C   0  0  0  0  0  0  0  0  0  0  0  0
   37.7230   22.4700   34.6770 N   0  0  0  0  0  0  0  0  0  0  0  0
   37.3030   22.1980   33.4150 C   0  0  0  0  0  0  0  0  0  0  0  0
   37.9110   22.8030   32.3510 N   0  0  0  0  0  0  0  0  0  0  0  0
   39.4120   24.1490   31.7180 H   0  0  0  0  0  0  0  0  0  0  0  0
   36.4960   21.5030   33.3570 H   0  0  0  0  0  0  0  0  0  0  0  0
   39.1280   23.5610   36.3610 C   0  0  0  0  0  0  0  0  0  0  0  0
   38.8600   24.9110   36.6960 F   0  0  0  0  0  0  0  0  0  0  0  0
   38.5520   22.7660   37.2890 F   0  0  0  0  0  0  0  0  0  0  0  0
   40.5190   23.4770   36.4830 F   0  0  0  0  0  0  0  0  0  0  0  0
  1  6  2  0  0  0  0
  1  2  1  0  0  0  0
  2  3  2  0  0  0  0
  3  4  1  0  0  0  0
  3  8  1  0  0  0  0
  4  9  1  0  0  0  0
  5 10  1  0  0  0  0
  5  4  2  0  0  0  0
  6  5  1  0  0  0  0
  7  2  1  0  0  0  0
 12 11  1  0  0  0  0
 13  6  1  0  0  0  0
 13 12  2  0  0  0  0
 14 13  1  0  0  0  0
 15 14  1  0  0  0  0
 16 14  2  0  0  0  0
 16 18  1  0  0  0  0
 17 16  1  0  0  0  0
 18 19  2  0  0  0  0
 19 12  1  0  0  0  0
 20 21  1  0  0  0  0
 21  1  1  0  0  0  0
 21 22  2  0  0  0  0
 22 28  1  0  0  0  0
 23 22  1  0  0  0  0
 24 23  2  0  0  0  0
 25 20  2  0  0  0  0
 25 24  1  0  0  0  0
 26 20  1  0  0  0  0
 27 24  1  0  0  0  0
 28 31  1  0  0  0  0
 28 29  1  0  0  0  0
 28 30  1  0  0  0  0
M  END
>  <minimizedAffinity>
-5.36523962

$$$$
