
 OpenBabel03272500283D

 34 36  0  0  0  0  0  0  0  0999 V2000
   37.0910   26.9330   33.4790 C   0  0  0  0  0  0  0  0  0  0  0  0
   36.3170   26.2270   33.9030 H   0  0  0  0  0  0  0  0  0  0  0  0
   37.2910   26.4740   32.4660 H   0  0  0  0  0  0  0  0  0  0  0  0
   36.5180   28.2210   33.2490 C   0  0  0  0  0  0  0  0  0  0  0  0
   36.6340   28.8280   32.0250 C   0  0  0  0  0  0  0  0  0  0  0  0
   36.0730   30.0970   31.7850 C   0  0  0  0  0  0  0  0  0  0  0  0
   35.4060   30.6730   32.8650 N   0  0  0  0  0  0  0  0  0  0  0  0
   35.3180   30.0410   34.0450 C   0  0  0  0  0  0  0  0  0  0  0  0
   35.8700   28.8270   34.2280 N   0  0  0  0  0  0  0  0  0  0  0  0
   37.1420   28.4130   31.1670 H   0  0  0  0  0  0  0  0  0  0  0  0
   36.1550   30.5810   30.8410 H   0  0  0  0  0  0  0  0  0  0  0  0
   36.6020   31.7300   35.7600 F   0  0  0  0  0  0  0  0  0  0  0  0
   35.2740   31.5330   36.0100 C   0  0  0  0  0  0  0  0  0  0  0  0
   34.6080   30.6820   35.1520 C   0  0  0  0  0  0  0  0  0  0  0  0
   33.2850   30.4730   35.3850 C   0  0  0  0  0  0  0  0  0  0  0  0
   32.6950   29.8300   34.7700 H   0  0  0  0  0  0  0  0  0  0  0  0
   32.6690   31.1060   36.4460 C   0  0  0  0  0  0  0  0  0  0  0  0
   31.6180   31.0090   36.7190 H   0  0  0  0  0  0  0  0  0  0  0  0
   33.3640   31.9530   37.2880 C   0  0  0  0  0  3  0  0  0  0  0  0
   34.7090   32.1910   37.0850 C   0  0  0  0  0  3  0  0  0  0  0  0
   38.2830   26.7920   34.3210 C   0  0  0  0  0  0  0  0  0  0  0  0
   38.5500   27.7020   34.9150 H   0  0  0  0  0  0  0  0  0  0  0  0
   39.2120   26.6310   33.6980 H   0  0  0  0  0  0  0  0  0  0  0  0
   38.2560   25.6580   35.2640 C   0  0  0  0  0  0  0  0  0  0  0  0
   38.2360   24.3480   34.8120 C   0  0  0  0  0  0  0  0  0  0  0  0
   38.2130   23.5150   35.9040 C   0  0  0  0  0  0  0  0  0  0  0  0
   38.2200   24.2890   36.9820 N   0  0  0  0  0  0  0  0  0  0  0  0
   38.2450   25.5330   36.5770 N   0  0  0  0  0  0  0  0  0  0  0  0
   38.2360   23.9970   33.7800 H   0  0  0  0  0  0  0  0  0  0  0  0
   38.1940   22.4180   35.9220 H   0  0  0  0  0  0  0  0  0  0  0  0
   38.2030   23.8940   38.3890 C   0  0  0  0  0  0  0  0  0  0  0  0
   37.8650   24.9820   39.1800 F   0  0  0  0  0  0  0  0  0  0  0  0
   39.4300   23.4370   38.8060 F   0  0  0  0  0  0  0  0  0  0  0  0
   37.2540   22.9290   38.6370 F   0  0  0  0  0  0  0  0  0  0  0  0
  1  2  1  0  0  0  0
  1 21  1  0  0  0  0
  3  1  1  0  0  0  0
  4  1  1  0  0  0  0
  4  9  1  0  0  0  0
  5  4  2  0  0  0  0
  6  5  1  0  0  0  0
  6  7  2  0  0  0  0
  7  8  1  0  0  0  0
  8  9  2  0  0  0  0
  8 14  1  0  0  0  0
 10  5  1  0  0  0  0
 11  6  1  0  0  0  0
 12 13  1  0  0  0  0
 13 20  1  0  0  0  0
 14 15  1  0  0  0  0
 14 13  2  0  0  0  0
 15 17  2  0  0  0  0
 16 15  1  0  0  0  0
 17 18  1  0  0  0  0
 17 19  1  0  0  0  0
 20 19  2  0  0  0  0
 21 22  1  0  0  0  0
 21 24  1  0  0  0  0
 23 21  1  0  0  0  0
 24 28  2  0  0  0  0
 25 24  1  0  0  0  0
 25 26  2  0  0  0  0
 26 30  1  0  0  0  0
 26 27  1  0  0  0  0
 27 31  1  0  0  0  0
 28 27  1  0  0  0  0
 29 25  1  0  0  0  0
 31 34  1  0  0  0  0
 31 33  1  0  0  0  0
 31 32  1  0  0  0  0
M  END
>  <minimizedAffinity>
-6.6335597

$$$$

 OpenBabel03272500283D

 34 36  0  0  0  0  0  0  0  0999 V2000
   37.2590   26.8490   33.3060 C   0  0  0  0  0  0  0  0  0  0  0  0
   36.5190   26.0470   33.6060 H   0  0  0  0  0  0  0  0  0  0  0  0
   37.6210   26.4670   32.3070 H   0  0  0  0  0  0  0  0  0  0  0  0
   36.5820   28.0830   33.0620 C   0  0  0  0  0  0  0  0  0  0  0  0
   36.4750   28.5800   31.7890 C   0  0  0  0  0  0  0  0  0  0  0  0
   35.8110   29.7950   31.5330 C   0  0  0  0  0  0  0  0  0  0  0  0
   35.2830   30.4370   32.6530 N   0  0  0  0  0  0  0  0  0  0  0  0
   35.4120   29.9130   33.8810 C   0  0  0  0  0  0  0  0  0  0  0  0
   36.0560   28.7470   34.0760 N   0  0  0  0  0  0  0  0  0  0  0  0
   36.8710   28.1120   30.8990 H   0  0  0  0  0  0  0  0  0  0  0  0
   35.7200   30.1950   30.5520 H   0  0  0  0  0  0  0  0  0  0  0  0
   32.7990   29.5760   34.5930 F   0  0  0  0  0  0  0  0  0  0  0  0
   33.5170   30.4370   35.3730 C   0  0  0  0  0  0  0  0  0  0  0  0
   34.8410   30.6200   35.0280 C   0  0  0  0  0  0  0  0  0  0  0  0
   35.5720   31.4740   35.7920 C   0  0  0  0  0  0  0  0  0  0  0  0
   36.6030   31.6710   35.5950 H   0  0  0  0  0  0  0  0  0  0  0  0
   34.9780   32.1120   36.8620 C   0  0  0  0  0  0  0  0  0  0  0  0
   35.4720   32.8130   37.5370 H   0  0  0  0  0  0  0  0  0  0  0  0
   33.6490   31.9090   37.1830 C   0  0  0  0  0  3  0  0  0  0  0  0
   32.8740   31.0490   36.4300 C   0  0  0  0  0  3  0  0  0  0  0  0
   38.3540   26.7850   34.2790 C   0  0  0  0  0  0  0  0  0  0  0  0
   38.4950   27.7110   34.8910 H   0  0  0  0  0  0  0  0  0  0  0  0
   39.3550   26.6800   33.7650 H   0  0  0  0  0  0  0  0  0  0  0  0
   38.2900   25.6530   35.2230 C   0  0  0  0  0  0  0  0  0  0  0  0
   38.2350   24.3430   34.7720 C   0  0  0  0  0  0  0  0  0  0  0  0
   38.1830   23.5130   35.8650 C   0  0  0  0  0  0  0  0  0  0  0  0
   38.2070   24.2870   36.9420 N   0  0  0  0  0  0  0  0  0  0  0  0
   38.2700   25.5300   36.5360 N   0  0  0  0  0  0  0  0  0  0  0  0
   38.2300   23.9910   33.7410 H   0  0  0  0  0  0  0  0  0  0  0  0
   38.1330   22.4160   35.8840 H   0  0  0  0  0  0  0  0  0  0  0  0
   38.1730   23.8960   38.3490 C   0  0  0  0  0  0  0  0  0  0  0  0
   39.4110   23.4030   38.7330 F   0  0  0  0  0  0  0  0  0  0  0  0
   37.2390   22.9140   38.5830 F   0  0  0  0  0  0  0  0  0  0  0  0
   37.9150   24.9690   39.1720 F   0  0  0  0  0  0  0  0  0  0  0  0
  1  2  1  0  0  0  0
  1 21  1  0  0  0  0
  3  1  1  0  0  0  0
  4  1  1  0  0  0  0
  4  9  1  0  0  0  0
  5  4  2  0  0  0  0
  6  5  1  0  0  0  0
  6  7  2  0  0  0  0
  7  8  1  0  0  0  0
  8  9  2  0  0  0  0
  8 14  1  0  0  0  0
 10  5  1  0  0  0  0
 11  6  1  0  0  0  0
 12 13  1  0  0  0  0
 13 20  1  0  0  0  0
 14 13  2  0  0  0  0
 14 15  1  0  0  0  0
 15 17  2  0  0  0  0
 16 15  1  0  0  0  0
 17 19  1  0  0  0  0
 17 18  1  0  0  0  0
 20 19  2  0  0  0  0
 21 22  1  0  0  0  0
 21 24  1  0  0  0  0
 23 21  1  0  0  0  0
 24 28  2  0  0  0  0
 25 24  1  0  0  0  0
 25 26  2  0  0  0  0
 26 30  1  0  0  0  0
 26 27  1  0  0  0  0
 27 31  1  0  0  0  0
 28 27  1  0  0  0  0
 29 25  1  0  0  0  0
 31 33  1  0  0  0  0
 31 32  1  0  0  0  0
 31 34  1  0  0  0  0
M  END
>  <minimizedAffinity>
-6.52263498

$$$$

 OpenBabel03272500283D

 34 36  0  0  0  0  0  0  0  0999 V2000
   38.1650   26.2950   32.8010 C   0  0  0  0  0  0  0  0  0  0  0  0
   39.1100   25.6780   32.7380 H   0  0  0  0  0  0  0  0  0  0  0  0
   38.4250   27.1840   32.1550 H   0  0  0  0  0  0  0  0  0  0  0  0
   37.0840   25.6160   32.1590 C   0  0  0  0  0  0  0  0  0  0  0  0
   36.1060   26.3200   31.5070 C   0  0  0  0  0  0  0  0  0  0  0  0
   35.0360   25.6630   30.8700 C   0  0  0  0  0  0  0  0  0  0  0  0
   35.0490   24.2710   30.9550 N   0  0  0  0  0  0  0  0  0  0  0  0
   36.0280   23.6240   31.6060 C   0  0  0  0  0  0  0  0  0  0  0  0
   37.0320   24.2960   32.1990 N   0  0  0  0  0  0  0  0  0  0  0  0
   36.0620   27.3960   31.4200 H   0  0  0  0  0  0  0  0  0  0  0  0
   34.2690   26.1950   30.3600 H   0  0  0  0  0  0  0  0  0  0  0  0
   37.8830   22.1200   30.2860 F   0  0  0  0  0  0  0  0  0  0  0  0
   36.9510   21.4180   30.9950 C   0  0  0  0  0  0  0  0  0  0  0  0
   36.0040   22.1630   31.6700 C   0  0  0  0  0  0  0  0  0  0  0  0
   35.0670   21.4810   32.3810 C   0  0  0  0  0  0  0  0  0  0  0  0
   34.3000   21.9800   32.9310 H   0  0  0  0  0  0  0  0  0  0  0  0
   35.0960   20.1010   32.4030 C   0  0  0  0  0  0  0  0  0  0  0  0
   34.3950   19.4610   32.9410 H   0  0  0  0  0  0  0  0  0  0  0  0
   36.0570   19.3840   31.7170 C   0  0  0  0  0  3  0  0  0  0  0  0
   37.0260   20.0390   30.9830 C   0  0  0  0  0  3  0  0  0  0  0  0
   38.0450   26.7260   34.1970 C   0  0  0  0  0  0  0  0  0  0  0  0
   37.0460   27.1460   34.4760 H   0  0  0  0  0  0  0  0  0  0  0  0
   38.7400   27.5870   34.4240 H   0  0  0  0  0  0  0  0  0  0  0  0
   38.3710   25.6970   35.2020 C   0  0  0  0  0  0  0  0  0  0  0  0
   39.3130   24.7130   34.9430 C   0  0  0  0  0  0  0  0  0  0  0  0
   39.4070   23.9040   36.0490 C   0  0  0  0  0  0  0  0  0  0  0  0
   38.5550   24.3780   36.9500 N   0  0  0  0  0  0  0  0  0  0  0  0
   37.9670   25.4240   36.4270 N   0  0  0  0  0  0  0  0  0  0  0  0
   39.8970   24.5690   34.0340 H   0  0  0  0  0  0  0  0  0  0  0  0
   40.0500   23.0270   36.1970 H   0  0  0  0  0  0  0  0  0  0  0  0
   38.2750   23.8770   38.2930 C   0  0  0  0  0  0  0  0  0  0  0  0
   37.8010   24.9070   39.0920 F   0  0  0  0  0  0  0  0  0  0  0  0
   39.4010   23.3650   38.8930 F   0  0  0  0  0  0  0  0  0  0  0  0
   37.2910   22.9140   38.2840 F   0  0  0  0  0  0  0  0  0  0  0  0
  1 21  1  0  0  0  0
  2  1  1  0  0  0  0
  3  1  1  0  0  0  0
  4  9  1  0  0  0  0
  4  1  1  0  0  0  0
  5  4  2  0  0  0  0
  6  7  2  0  0  0  0
  6  5  1  0  0  0  0
  7  8  1  0  0  0  0
  8 14  1  0  0  0  0
  8  9  2  0  0  0  0
 10  5  1  0  0  0  0
 11  6  1  0  0  0  0
 12 13  1  0  0  0  0
 13 14  1  0  0  0  0
 14 15  2  0  0  0  0
 15 17  1  0  0  0  0
 15 16  1  0  0  0  0
 17 18  1  0  0  0  0
 19 17  2  0  0  0  0
 20 13  2  0  0  0  0
 20 19  1  0  0  0  0
 21 23  1  0  0  0  0
 21 22  1  0  0  0  0
 21 24  1  0  0  0  0
 24 28  2  0  0  0  0
 25 24  1  0  0  0  0
 25 26  2  0  0  0  0
 26 30  1  0  0  0  0
 26 27  1  0  0  0  0
 27 31  1  0  0  0  0
 28 27  1  0  0  0  0
 29 25  1  0  0  0  0
 31 33  1  0  0  0  0
 31 32  1  0  0  0  0
 34 31  1  0  0  0  0
M  END
>  <minimizedAffinity>
-6.24535227

$$$$

 OpenBabel03272500283D

 34 36  0  0  0  0  0  0  0  0999 V2000
   36.9640   25.3430   31.7430 C   0  0  0  0  0  0  0  0  0  0  0  0
   36.9050   26.2340   31.0490 H   0  0  0  0  0  0  0  0  0  0  0  0
   37.8480   24.7800   31.3230 H   0  0  0  0  0  0  0  0  0  0  0  0
   37.3230   25.7620   33.0610 C   0  0  0  0  0  0  0  0  0  0  0  0
   36.9710   27.0060   33.5180 C   0  0  0  0  0  0  0  0  0  0  0  0
   37.3180   27.4320   34.8140 C   0  0  0  0  0  0  0  0  0  0  0  0
   38.0310   26.5090   35.5780 N   0  0  0  0  0  0  0  0  0  0  0  0
   38.3540   25.3020   35.0890 C   0  0  0  0  0  0  0  0  0  0  0  0
   38.0000   24.9390   33.8420 N   0  0  0  0  0  0  0  0  0  0  0  0
   36.4200   27.7460   32.9560 H   0  0  0  0  0  0  0  0  0  0  0  0
   37.0530   28.3940   35.1830 H   0  0  0  0  0  0  0  0  0  0  0  0
   37.3030   24.3290   37.4110 F   0  0  0  0  0  0  0  0  0  0  0  0
   38.5550   23.8830   37.0970 C   0  0  0  0  0  0  0  0  0  0  0  0
   39.1030   24.3640   35.9250 C   0  0  0  0  0  0  0  0  0  0  0  0
   40.3490   23.9320   35.5960 C   0  0  0  0  0  0  0  0  0  0  0  0
   40.8450   24.2550   34.7080 H   0  0  0  0  0  0  0  0  0  0  0  0
   41.0060   23.0460   36.4260 C   0  0  0  0  0  0  0  0  0  0  0  0
   42.0030   22.6380   36.2550 H   0  0  0  0  0  0  0  0  0  0  0  0
   40.4310   22.5810   37.5940 C   0  0  0  0  0  3  0  0  0  0  0  0
   39.1670   22.9970   37.9620 C   0  0  0  0  0  3  0  0  0  0  0  0
   35.7410   24.5650   31.5210 C   0  0  0  0  0  0  0  0  0  0  0  0
   35.1950   24.8060   30.5740 H   0  0  0  0  0  0  0  0  0  0  0  0
   34.9630   24.7850   32.3100 H   0  0  0  0  0  0  0  0  0  0  0  0
   35.9140   23.1000   31.5540 C   0  0  0  0  0  0  0  0  0  0  0  0
   37.0870   22.5050   31.1150 C   0  0  0  0  0  0  0  0  0  0  0  0
   36.9620   21.1450   31.2630 C   0  0  0  0  0  0  0  0  0  0  0  0
   35.7580   20.9190   31.7730 N   0  0  0  0  0  0  0  0  0  0  0  0
   35.1710   22.0780   31.9320 N   0  0  0  0  0  0  0  0  0  0  0  0
   37.9750   22.9930   30.7150 H   0  0  0  0  0  0  0  0  0  0  0  0
   37.6940   20.3640   31.0180 H   0  0  0  0  0  0  0  0  0  0  0  0
   35.1370   19.6420   32.1190 C   0  0  0  0  0  0  0  0  0  0  0  0
   35.6900   18.6260   31.3540 F   0  0  0  0  0  0  0  0  0  0  0  0
   33.7830   19.6530   31.8870 F   0  0  0  0  0  0  0  0  0  0  0  0
   35.3670   19.3030   33.4330 F   0  0  0  0  0  0  0  0  0  0  0  0
  1  4  1  0  0  0  0
  2  1  1  0  0  0  0
  3  1  1  0  0  0  0
  4  5  2  0  0  0  0
  4  9  1  0  0  0  0
  5  6  1  0  0  0  0
  6 11  1  0  0  0  0
  6  7  2  0  0  0  0
  8  7  1  0  0  0  0
  8 14  1  0  0  0  0
  9  8  2  0  0  0  0
 10  5  1  0  0  0  0
 13 12  1  0  0  0  0
 13 20  1  0  0  0  0
 14 13  2  0  0  0  0
 15 14  1  0  0  0  0
 15 17  2  0  0  0  0
 16 15  1  0  0  0  0
 17 19  1  0  0  0  0
 18 17  1  0  0  0  0
 19 20  2  0  0  0  0
 21 24  1  0  0  0  0
 21  1  1  0  0  0  0
 21 23  1  0  0  0  0
 22 21  1  0  0  0  0
 24 28  2  0  0  0  0
 25 26  2  0  0  0  0
 25 24  1  0  0  0  0
 26 27  1  0  0  0  0
 27 28  1  0  0  0  0
 27 31  1  0  0  0  0
 29 25  1  0  0  0  0
 30 26  1  0  0  0  0
 31 34  1  0  0  0  0
 32 31  1  0  0  0  0
 33 31  1  0  0  0  0
M  END
>  <minimizedAffinity>
-6.14571476

$$$$

 OpenBabel03272500283D

 34 36  0  0  0  0  0  0  0  0999 V2000
   36.5090   27.2410   32.0590 C   0  0  0  0  0  0  0  0  0  0  0  0
   37.5640   27.1000   31.6770 H   0  0  0  0  0  0  0  0  0  0  0  0
   36.5880   26.8410   33.1120 H   0  0  0  0  0  0  0  0  0  0  0  0
   36.2000   28.6320   32.1630 C   0  0  0  0  0  0  0  0  0  0  0  0
   36.3930   29.4720   31.0970 C   0  0  0  0  0  0  0  0  0  0  0  0
   36.0930   30.8450   31.1850 C   0  0  0  0  0  0  0  0  0  0  0  0
   35.5940   31.2720   32.4150 N   0  0  0  0  0  0  0  0  0  0  0  0
   35.4210   30.4130   33.4320 C   0  0  0  0  0  0  0  0  0  0  0  0
   35.7230   29.1090   33.2990 N   0  0  0  0  0  0  0  0  0  0  0  0
   36.7770   29.1780   30.1300 H   0  0  0  0  0  0  0  0  0  0  0  0
   36.2380   31.5090   30.3670 H   0  0  0  0  0  0  0  0  0  0  0  0
   32.8050   30.0520   34.1130 F   0  0  0  0  0  0  0  0  0  0  0  0
   33.5680   30.7130   35.0330 C   0  0  0  0  0  0  0  0  0  0  0  0
   34.8950   30.9040   34.7050 C   0  0  0  0  0  0  0  0  0  0  0  0
   35.6710   31.5610   35.6080 C   0  0  0  0  0  0  0  0  0  0  0  0
   36.7070   31.7510   35.4330 H   0  0  0  0  0  0  0  0  0  0  0  0
   35.1170   32.0010   36.7930 C   0  0  0  0  0  0  0  0  0  0  0  0
   35.6490   32.5340   37.5820 H   0  0  0  0  0  0  0  0  0  0  0  0
   33.7840   31.7940   37.0930 C   0  0  0  0  0  3  0  0  0  0  0  0
   32.9630   31.1310   36.2020 C   0  0  0  0  0  3  0  0  0  0  0  0
   35.6590   26.3510   31.2630 C   0  0  0  0  0  0  0  0  0  0  0  0
   35.5300   26.6550   30.1930 H   0  0  0  0  0  0  0  0  0  0  0  0
   34.5940   26.3490   31.6420 H   0  0  0  0  0  0  0  0  0  0  0  0
   36.0640   24.9330   31.2580 C   0  0  0  0  0  0  0  0  0  0  0  0
   37.3310   24.5490   30.8460 C   0  0  0  0  0  0  0  0  0  0  0  0
   37.4220   23.1820   30.9480 C   0  0  0  0  0  0  0  0  0  0  0  0
   36.2540   22.7490   31.4050 N   0  0  0  0  0  0  0  0  0  0  0  0
   35.4830   23.7920   31.5770 N   0  0  0  0  0  0  0  0  0  0  0  0
   38.1410   25.1880   30.4950 H   0  0  0  0  0  0  0  0  0  0  0  0
   38.2780   22.5380   30.7080 H   0  0  0  0  0  0  0  0  0  0  0  0
   35.8370   21.3780   31.6880 C   0  0  0  0  0  0  0  0  0  0  0  0
   35.7100   20.6680   30.5040 F   0  0  0  0  0  0  0  0  0  0  0  0
   34.6250   21.3360   32.3350 F   0  0  0  0  0  0  0  0  0  0  0  0
   36.7730   20.7040   32.4400 F   0  0  0  0  0  0  0  0  0  0  0  0
  1  4  1  0  0  0  0
  1  3  1  0  0  0  0
  2  1  1  0  0  0  0
  4  9  1  0  0  0  0
  5  6  1  0  0  0  0
  5  4  2  0  0  0  0
  6  7  2  0  0  0  0
  7  8  1  0  0  0  0
  8 14  1  0  0  0  0
  9  8  2  0  0  0  0
 10  5  1  0  0  0  0
 11  6  1  0  0  0  0
 12 13  1  0  0  0  0
 13 20  1  0  0  0  0
 14 13  2  0  0  0  0
 14 15  1  0  0  0  0
 15 17  2  0  0  0  0
 16 15  1  0  0  0  0
 17 19  1  0  0  0  0
 17 18  1  0  0  0  0
 20 19  2  0  0  0  0
 21 23  1  0  0  0  0
 21  1  1  0  0  0  0
 22 21  1  0  0  0  0
 24 21  1  0  0  0  0
 24 28  2  0  0  0  0
 25 26  2  0  0  0  0
 25 24  1  0  0  0  0
 26 27  1  0  0  0  0
 27 28  1  0  0  0  0
 27 31  1  0  0  0  0
 29 25  1  0  0  0  0
 30 26  1  0  0  0  0
 31 33  1  0  0  0  0
 31 34  1  0  0  0  0
 32 31  1  0  0  0  0
M  END
>  <minimizedAffinity>
-5.64327335

$$$$

 OpenBabel03272500283D

 34 36  0  0  0  0  0  0  0  0999 V2000
   36.7200   28.1500   34.5700 C   0  0  0  0  0  0  0  0  0  0  0  0
   36.2130   28.1510   35.5810 H   0  0  0  0  0  0  0  0  0  0  0  0
   37.6560   28.7450   34.7800 H   0  0  0  0  0  0  0  0  0  0  0  0
   37.1330   26.8280   34.2220 C   0  0  0  0  0  0  0  0  0  0  0  0
   36.8140   26.2960   33.0000 C   0  0  0  0  0  0  0  0  0  0  0  0
   37.2160   24.9940   32.6430 C   0  0  0  0  0  0  0  0  0  0  0  0
   37.9470   24.3050   33.6110 N   0  0  0  0  0  0  0  0  0  0  0  0
   38.2350   24.8670   34.7950 C   0  0  0  0  0  0  0  0  0  0  0  0
   37.8300   26.1160   35.0900 N   0  0  0  0  0  0  0  0  0  0  0  0
   36.2510   26.7980   32.2260 H   0  0  0  0  0  0  0  0  0  0  0  0
   36.9760   24.5670   31.6990 H   0  0  0  0  0  0  0  0  0  0  0  0
   37.1580   24.1790   37.2050 F   0  0  0  0  0  0  0  0  0  0  0  0
   38.4440   23.7700   36.9960 C   0  0  0  0  0  0  0  0  0  0  0  0
   39.0050   24.1090   35.7810 C   0  0  0  0  0  0  0  0  0  0  0  0
   40.2850   23.7110   35.5540 C   0  0  0  0  0  0  0  0  0  0  0  0
   40.7940   23.9310   34.6420 H   0  0  0  0  0  0  0  0  0  0  0  0
   40.9610   22.9980   36.5240 C   0  0  0  0  0  0  0  0  0  0  0  0
   41.9860   22.6320   36.4430 H   0  0  0  0  0  0  0  0  0  0  0  0
   40.3720   22.6730   37.7310 C   0  0  0  0  0  3  0  0  0  0  0  0
   39.0730   23.0600   37.9990 C   0  0  0  0  0  3  0  0  0  0  0  0
   35.8490   28.9150   33.6710 C   0  0  0  0  0  0  0  0  0  0  0  0
   35.3730   28.3160   32.8540 H   0  0  0  0  0  0  0  0  0  0  0  0
   36.4330   29.6900   33.0920 H   0  0  0  0  0  0  0  0  0  0  0  0
   34.7690   29.6690   34.3340 C   0  0  0  0  0  0  0  0  0  0  0  0
   33.4420   29.4870   33.9750 C   0  0  0  0  0  0  0  0  0  0  0  0
   32.6680   30.3140   34.7530 C   0  0  0  0  0  0  0  0  0  0  0  0
   33.4920   30.9750   35.5560 N   0  0  0  0  0  0  0  0  0  0  0  0
   34.7100   30.5770   35.2880 N   0  0  0  0  0  0  0  0  0  0  0  0
   33.0410   28.8170   33.2160 H   0  0  0  0  0  0  0  0  0  0  0  0
   31.5770   30.4320   34.7420 H   0  0  0  0  0  0  0  0  0  0  0  0
   33.1710   31.9740   36.5720 C   0  0  0  0  0  0  0  0  0  0  0  0
   34.2100   32.0710   37.4850 F   0  0  0  0  0  0  0  0  0  0  0  0
   32.0310   31.6470   37.2670 F   0  0  0  0  0  0  0  0  0  0  0  0
   33.0220   33.2290   36.0250 F   0  0  0  0  0  0  0  0  0  0  0  0
  1  3  1  0  0  0  0
  1  2  1  0  0  0  0
  4  1  1  0  0  0  0
  4  9  1  0  0  0  0
  5  4  2  0  0  0  0
  6  5  1  0  0  0  0
  6  7  2  0  0  0  0
  7  8  1  0  0  0  0
  8  9  2  0  0  0  0
  8 14  1  0  0  0  0
 10  5  1  0  0  0  0
 11  6  1  0  0  0  0
 13 12  1  0  0  0  0
 13 20  1  0  0  0  0
 14 13  2  0  0  0  0
 15 14  1  0  0  0  0
 15 17  2  0  0  0  0
 16 15  1  0  0  0  0
 17 19  1  0  0  0  0
 18 17  1  0  0  0  0
 19 20  2  0  0  0  0
 21 24  1  0  0  0  0
 21  1  1  0  0  0  0
 22 21  1  0  0  0  0
 23 21  1  0  0  0  0
 24 28  2  0  0  0  0
 25 24  1  0  0  0  0
 25 26  2  0  0  0  0
 26 27  1  0  0  0  0
 27 31  1  0  0  0  0
 28 27  1  0  0  0  0
 29 25  1  0  0  0  0
 30 26  1  0  0  0  0
 31 33  1  0  0  0  0
 31 32  1  0  0  0  0
 34 31  1  0  0  0  0
M  END
>  <minimizedAffinity>
-5.61226654

$$$$

 OpenBabel03272500283D

 34 36  0  0  0  0  0  0  0  0999 V2000
   38.2300   25.5140   36.3000 C   0  0  0  0  0  0  0  0  0  0  0  0
   37.1110   25.5440   36.4530 H   0  0  0  0  0  0  0  0  0  0  0  0
   38.6080   25.4750   37.3630 H   0  0  0  0  0  0  0  0  0  0  0  0
   38.6140   24.2870   35.6760 C   0  0  0  0  0  0  0  0  0  0  0  0
   39.8360   23.7240   35.9370 C   0  0  0  0  0  0  0  0  0  0  0  0
   40.2270   22.5150   35.3290 C   0  0  0  0  0  0  0  0  0  0  0  0
   39.2940   21.9510   34.4600 N   0  0  0  0  0  0  0  0  0  0  0  0
   38.1090   22.5390   34.2340 C   0  0  0  0  0  0  0  0  0  0  0  0
   37.7800   23.6950   34.8400 N   0  0  0  0  0  0  0  0  0  0  0  0
   40.5830   24.1310   36.6030 H   0  0  0  0  0  0  0  0  0  0  0  0
   41.1720   22.0650   35.5210 H   0  0  0  0  0  0  0  0  0  0  0  0
   36.1740   20.8430   35.1410 F   0  0  0  0  0  0  0  0  0  0  0  0
   36.1870   21.0570   33.7920 C   0  0  0  0  0  0  0  0  0  0  0  0
   37.1590   21.9120   33.3150 C   0  0  0  0  0  0  0  0  0  0  0  0
   37.1890   22.1370   31.9750 C   0  0  0  0  0  0  0  0  0  0  0  0
   37.9080   22.7850   31.5240 H   0  0  0  0  0  0  0  0  0  0  0  0
   36.2650   21.5160   31.1570 C   0  0  0  0  0  0  0  0  0  0  0  0
   36.2010   21.6280   30.0740 H   0  0  0  0  0  0  0  0  0  0  0  0
   35.3030   20.6640   31.6650 C   0  0  0  0  0  3  0  0  0  0  0  0
   35.2410   20.4110   33.0210 C   0  0  0  0  0  3  0  0  0  0  0  0
   38.5990   26.7980   35.6980 C   0  0  0  0  0  0  0  0  0  0  0  0
   39.6950   27.0250   35.7060 H   0  0  0  0  0  0  0  0  0  0  0  0
   38.1700   27.6660   36.2810 H   0  0  0  0  0  0  0  0  0  0  0  0
   38.1310   27.0020   34.3140 C   0  0  0  0  0  0  0  0  0  0  0  0
   39.0280   27.1380   33.2650 C   0  0  0  0  0  0  0  0  0  0  0  0
   38.3110   27.3130   32.1050 C   0  0  0  0  0  0  0  0  0  0  0  0
   37.0260   27.2840   32.4350 N   0  0  0  0  0  0  0  0  0  0  0  0
   36.9530   27.1000   33.7290 N   0  0  0  0  0  0  0  0  0  0  0  0
   40.1160   27.1170   33.3090 H   0  0  0  0  0  0  0  0  0  0  0  0
   38.6930   27.4520   31.0860 H   0  0  0  0  0  0  0  0  0  0  0  0
   35.8580   27.4230   31.5690 C   0  0  0  0  0  0  0  0  0  0  0  0
   34.9360   28.2790   32.1530 F   0  0  0  0  0  0  0  0  0  0  0  0
   35.2350   26.2170   31.3540 F   0  0  0  0  0  0  0  0  0  0  0  0
   36.1870   27.9840   30.3550 F   0  0  0  0  0  0  0  0  0  0  0  0
  1  2  1  0  0  0  0
  1  3  1  0  0  0  0
  4  5  1  0  0  0  0
  4  1  1  0  0  0  0
  5 10  1  0  0  0  0
  6 11  1  0  0  0  0
  6  5  2  0  0  0  0
  7  6  1  0  0  0  0
  8  7  2  0  0  0  0
  8  9  1  0  0  0  0
  9  4  2  0  0  0  0
 13 12  1  0  0  0  0
 14 13  1  0  0  0  0
 14  8  1  0  0  0  0
 15 14  2  0  0  0  0
 16 15  1  0  0  0  0
 17 19  2  0  0  0  0
 17 15  1  0  0  0  0
 18 17  1  0  0  0  0
 19 20  1  0  0  0  0
 20 13  2  0  0  0  0
 21 22  1  0  0  0  0
 21 23  1  0  0  0  0
 21  1  1  0  0  0  0
 24 21  1  0  0  0  0
 25 29  1  0  0  0  0
 25 24  1  0  0  0  0
 26 27  1  0  0  0  0
 26 25  2  0  0  0  0
 27 28  1  0  0  0  0
 28 24  2  0  0  0  0
 30 26  1  0  0  0  0
 31 32  1  0  0  0  0
 31 27  1  0  0  0  0
 33 31  1  0  0  0  0
 34 31  1  0  0  0  0
M  END
>  <minimizedAffinity>
-5.51561165

$$$$

 OpenBabel03272500283D

 34 36  0  0  0  0  0  0  0  0999 V2000
   37.1690   28.1270   32.5540 C   0  0  0  0  0  0  0  0  0  0  0  0
   37.7700   28.1040   31.5960 H   0  0  0  0  0  0  0  0  0  0  0  0
   37.8850   28.6390   33.2620 H   0  0  0  0  0  0  0  0  0  0  0  0
   36.0370   28.9860   32.4100 C   0  0  0  0  0  0  0  0  0  0  0  0
   35.9640   29.8760   31.3710 C   0  0  0  0  0  0  0  0  0  0  0  0
   34.8530   30.7290   31.2170 C   0  0  0  0  0  0  0  0  0  0  0  0
   33.8580   30.5980   32.1850 N   0  0  0  0  0  0  0  0  0  0  0  0
   33.9730   29.7120   33.1860 C   0  0  0  0  0  0  0  0  0  0  0  0
   35.0540   28.9180   33.2910 N   0  0  0  0  0  0  0  0  0  0  0  0
   36.7140   30.0060   30.6040 H   0  0  0  0  0  0  0  0  0  0  0  0
   34.7820   31.4250   30.4160 H   0  0  0  0  0  0  0  0  0  0  0  0
   34.2340   30.8190   35.6660 F   0  0  0  0  0  0  0  0  0  0  0  0
   33.0540   30.1730   35.4290 C   0  0  0  0  0  0  0  0  0  0  0  0
   32.9040   29.6070   34.1790 C   0  0  0  0  0  0  0  0  0  0  0  0
   31.7360   28.9600   33.9250 C   0  0  0  0  0  0  0  0  0  0  0  0
   31.5390   28.4950   32.9840 H   0  0  0  0  0  0  0  0  0  0  0  0
   30.7640   28.8940   34.9030 C   0  0  0  0  0  0  0  0  0  0  0  0
   29.7960   28.4020   34.8020 H   0  0  0  0  0  0  0  0  0  0  0  0
   30.9440   29.4710   36.1460 C   0  0  0  0  0  3  0  0  0  0  0  0
   32.1160   30.1370   36.4420 C   0  0  0  0  0  3  0  0  0  0  0  0
   36.9930   26.7310   32.9640 C   0  0  0  0  0  0  0  0  0  0  0  0
   37.4530   25.9760   32.2780 H   0  0  0  0  0  0  0  0  0  0  0  0
   35.9030   26.4330   32.9530 H   0  0  0  0  0  0  0  0  0  0  0  0
   37.4610   26.4120   34.3260 C   0  0  0  0  0  0  0  0  0  0  0  0
   38.0680   27.3730   35.1200 C   0  0  0  0  0  0  0  0  0  0  0  0
   38.3950   26.7950   36.3230 C   0  0  0  0  0  0  0  0  0  0  0  0
   38.0020   25.5290   36.2640 N   0  0  0  0  0  0  0  0  0  0  0  0
   37.4610   25.3360   35.0880 N   0  0  0  0  0  0  0  0  0  0  0  0
   38.2690   28.4150   34.8730 H   0  0  0  0  0  0  0  0  0  0  0  0
   38.8860   27.2580   37.1880 H   0  0  0  0  0  0  0  0  0  0  0  0
   38.1190   24.4880   37.2830 C   0  0  0  0  0  0  0  0  0  0  0  0
   37.0770   23.5820   37.1550 F   0  0  0  0  0  0  0  0  0  0  0  0
   38.0680   25.0100   38.5540 F   0  0  0  0  0  0  0  0  0  0  0  0
   39.2800   23.7620   37.1390 F   0  0  0  0  0  0  0  0  0  0  0  0
  1 21  1  0  0  0  0
  1  3  1  0  0  0  0
  2  1  1  0  0  0  0
  4  1  1  0  0  0  0
  4  9  1  0  0  0  0
  5  4  2  0  0  0  0
  6  5  1  0  0  0  0
  6  7  2  0  0  0  0
  7  8  1  0  0  0  0
  8  9  2  0  0  0  0
  8 14  1  0  0  0  0
 10  5  1  0  0  0  0
 11  6  1  0  0  0  0
 13 12  1  0  0  0  0
 13 20  1  0  0  0  0
 14 13  2  0  0  0  0
 15 14  1  0  0  0  0
 15 17  2  0  0  0  0
 16 15  1  0  0  0  0
 17 19  1  0  0  0  0
 18 17  1  0  0  0  0
 19 20  2  0  0  0  0
 21 24  1  0  0  0  0
 22 21  1  0  0  0  0
 23 21  1  0  0  0  0
 24 28  2  0  0  0  0
 24 25  1  0  0  0  0
 25 26  2  0  0  0  0
 26 30  1  0  0  0  0
 27 26  1  0  0  0  0
 27 31  1  0  0  0  0
 28 27  1  0  0  0  0
 29 25  1  0  0  0  0
 31 33  1  0  0  0  0
 32 31  1  0  0  0  0
 34 31  1  0  0  0  0
M  END
>  <minimizedAffinity>
-5.48664474

$$$$

 OpenBabel03272500283D

 34 36  0  0  0  0  0  0  0  0999 V2000
   36.7030   26.9810   32.4490 C   0  0  0  0  0  0  0  0  0  0  0  0
   36.5380   27.7880   31.6750 H   0  0  0  0  0  0  0  0  0  0  0  0
   35.6540   26.8080   32.8300 H   0  0  0  0  0  0  0  0  0  0  0  0
   37.1240   25.7690   31.8210 C   0  0  0  0  0  0  0  0  0  0  0  0
   38.0650   25.7890   30.8250 C   0  0  0  0  0  0  0  0  0  0  0  0
   38.4900   24.6020   30.1980 C   0  0  0  0  0  0  0  0  0  0  0  0
   37.8900   23.4310   30.6600 N   0  0  0  0  0  0  0  0  0  0  0  0
   36.9720   23.4600   31.6380 C   0  0  0  0  0  0  0  0  0  0  0  0
   36.5980   24.6200   32.2080 N   0  0  0  0  0  0  0  0  0  0  0  0
   38.5510   26.6750   30.4410 H   0  0  0  0  0  0  0  0  0  0  0  0
   39.2190   24.6010   29.4230 H   0  0  0  0  0  0  0  0  0  0  0  0
   37.4030   22.5180   34.1630 F   0  0  0  0  0  0  0  0  0  0  0  0
   36.5980   21.7460   33.3740 C   0  0  0  0  0  0  0  0  0  0  0  0
   36.3680   22.2070   32.0940 C   0  0  0  0  0  0  0  0  0  0  0  0
   35.5700   21.4520   31.2940 C   0  0  0  0  0  0  0  0  0  0  0  0
   35.3410   21.7360   30.2900 H   0  0  0  0  0  0  0  0  0  0  0  0
   35.0280   20.2790   31.7800 C   0  0  0  0  0  0  0  0  0  0  0  0
   34.3770   19.6030   31.2240 H   0  0  0  0  0  0  0  0  0  0  0  0
   35.2770   19.8430   33.0680 C   0  0  0  0  0  3  0  0  0  0  0  0
   36.0830   20.5830   33.9110 C   0  0  0  0  0  3  0  0  0  0  0  0
   37.5130   27.5850   33.5100 C   0  0  0  0  0  0  0  0  0  0  0  0
   37.0000   28.3910   34.0940 H   0  0  0  0  0  0  0  0  0  0  0  0
   38.4090   28.1280   33.0870 H   0  0  0  0  0  0  0  0  0  0  0  0
   38.0720   26.6370   34.4920 C   0  0  0  0  0  0  0  0  0  0  0  0
   39.4310   26.3650   34.5340 C   0  0  0  0  0  0  0  0  0  0  0  0
   39.6580   25.4540   35.5380 C   0  0  0  0  0  0  0  0  0  0  0  0
   38.4810   25.1820   36.0870 N   0  0  0  0  0  0  0  0  0  0  0  0
   37.5760   25.8870   35.4570 N   0  0  0  0  0  0  0  0  0  0  0  0
   40.2150   26.7780   33.9000 H   0  0  0  0  0  0  0  0  0  0  0  0
   40.6130   25.0150   35.8540 H   0  0  0  0  0  0  0  0  0  0  0  0
   38.1780   24.2760   37.1930 C   0  0  0  0  0  0  0  0  0  0  0  0
   38.0840   24.9910   38.3770 F   0  0  0  0  0  0  0  0  0  0  0  0
   39.1540   23.3220   37.3540 F   0  0  0  0  0  0  0  0  0  0  0  0
   36.9620   23.6540   37.0230 F   0  0  0  0  0  0  0  0  0  0  0  0
  1  3  1  0  0  0  0
  1 21  1  0  0  0  0
  2  1  1  0  0  0  0
  4  9  1  0  0  0  0
  4  1  1  0  0  0  0
  5  4  2  0  0  0  0
  6  7  2  0  0  0  0
  6  5  1  0  0  0  0
  7  8  1  0  0  0  0
  8 14  1  0  0  0  0
  8  9  2  0  0  0  0
 10  5  1  0  0  0  0
 11  6  1  0  0  0  0
 13 20  1  0  0  0  0
 13 12  1  0  0  0  0
 14 13  2  0  0  0  0
 15 17  2  0  0  0  0
 15 14  1  0  0  0  0
 16 15  1  0  0  0  0
 17 19  1  0  0  0  0
 18 17  1  0  0  0  0
 19 20  2  0  0  0  0
 21 22  1  0  0  0  0
 21 24  1  0  0  0  0
 23 21  1  0  0  0  0
 24 25  1  0  0  0  0
 24 28  2  0  0  0  0
 25 26  2  0  0  0  0
 26 30  1  0  0  0  0
 26 27  1  0  0  0  0
 27 31  1  0  0  0  0
 28 27  1  0  0  0  0
 29 25  1  0  0  0  0
 31 33  1  0  0  0  0
 31 32  1  0  0  0  0
 34 31  1  0  0  0  0
M  END
>  <minimizedAffinity>
-5.480896

$$$$
