
 OpenBabel03272510013D

 21 22  0  0  0  0  0  0  0  0999 V2000
   38.6340   32.8940   49.2460 C   0  0  0  0  0  0  0  0  0  0  0  0
   38.6710   32.5390   47.8760 C   0  0  0  0  0  0  0  0  0  0  0  0
   38.2270   31.2760   47.5170 C   0  0  0  0  0  0  0  0  0  0  0  0
   37.7890   30.4720   48.5180 N   0  0  0  0  0  0  0  0  0  0  0  0
   37.7610   30.8220   49.8040 C   0  0  0  0  0  0  0  0  0  0  0  0
   38.1850   32.0320   50.1540 N   0  0  0  0  0  0  0  0  0  0  0  0
   38.9730   33.8710   49.5550 H   0  0  0  0  0  0  0  0  0  0  0  0
   39.0270   33.2120   47.1260 H   0  0  0  0  0  0  0  0  0  0  0  0
   40.5980   30.7640   46.0910 F   0  0  0  0  0  0  0  0  0  0  0  0
   39.3860   30.5520   45.4880 C   0  0  0  0  0  0  0  0  0  0  0  0
   38.2130   30.7880   46.1450 C   0  0  0  0  0  0  0  0  0  0  0  0
   37.0590   30.5370   45.4340 C   0  0  0  0  0  0  0  0  0  0  0  0
   36.0960   30.7030   45.8950 H   0  0  0  0  0  0  0  0  0  0  0  0
   37.0350   30.0780   44.1400 C   0  0  0  0  0  0  0  0  0  0  0  0
   36.0990   29.9000   43.6320 H   0  0  0  0  0  0  0  0  0  0  0  0
   38.2220   29.8410   43.4790 C   0  0  0  0  0  3  0  0  0  0  0  0
   39.3930   30.0900   44.1860 C   0  0  0  0  0  3  0  0  0  0  0  0
   37.2660   29.8330   50.7820 C   0  0  0  0  0  0  0  0  0  0  0  0
   37.4950   30.2230   52.0980 F   0  0  0  0  0  0  0  0  0  0  0  0
   35.9020   29.6370   50.6650 F   0  0  0  0  0  0  0  0  0  0  0  0
   37.8490   28.5860   50.6480 F   0  0  0  0  0  0  0  0  0  0  0  0
  1  7  1  0  0  0  0
  1  6  1  0  0  0  0
  2  1  2  0  0  0  0
  3  2  1  0  0  0  0
  3  4  2  0  0  0  0
  4  5  1  0  0  0  0
  5  6  2  0  0  0  0
  5 18  1  0  0  0  0
  8  2  1  0  0  0  0
 10  9  1  0  0  0  0
 10 11  1  0  0  0  0
 11  3  1  0  0  0  0
 12 13  1  0  0  0  0
 12 11  2  0  0  0  0
 14 12  1  0  0  0  0
 15 14  1  0  0  0  0
 16 14  2  0  0  0  0
 16 17  1  0  0  0  0
 17 10  2  0  0  0  0
 18 19  1  0  0  0  0
 20 18  1  0  0  0  0
 21 18  1  0  0  0  0
M  END
>  <minimizedAffinity>
-5.83300638

>  <minimizedRMSD>
2.03859425

$$$$
