
 OpenBabel03272507133D

 40 44  0  0  0  0  0  0  0  0999 V2000
   35.6780   29.1150   49.8780 C   0  0  0  0  0  0  0  0  0  0  0  0
   34.6350   29.5970   50.5880 C   0  0  0  0  0  0  0  0  0  0  0  0
   33.4790   29.0070   50.0670 C   0  0  0  0  0  0  0  0  0  0  0  0
   33.9120   28.1710   49.0310 C   0  0  0  0  0  0  0  0  0  0  0  0
   35.2090   28.2860   48.9790 O   0  0  0  0  0  0  0  0  0  0  0  0
   34.6520   30.3160   51.4210 H   0  0  0  0  0  0  0  0  0  0  0  0
   32.5010   29.2200   50.4550 H   0  0  0  0  0  0  0  0  0  0  0  0
   33.4230   26.3990   47.3580 C   0  0  0  0  0  0  0  0  0  0  0  0
   32.9930   27.3700   48.2310 C   0  0  0  0  0  0  0  0  0  0  0  0
   31.6590   27.6380   48.4040 C   0  0  0  0  0  0  0  0  0  0  0  0
   30.7290   26.9080   47.6740 C   0  0  0  0  0  0  0  0  0  0  0  0
   29.3950   26.9460   47.6340 N   0  0  0  0  0  0  0  0  0  0  0  0
   28.9930   26.0240   46.7580 N   0  0  0  0  0  0  0  0  0  0  0  0
   30.0780   25.3990   46.2420 C   0  0  0  0  0  0  0  0  0  0  0  0
   31.2120   25.9390   46.8050 C   0  0  0  0  0  0  0  0  0  0  0  0
   32.5490   25.6590   46.6230 C   0  0  0  0  0  0  0  0  0  0  0  0
   34.4890   26.2560   47.2880 H   0  0  0  0  0  0  0  0  0  0  0  0
   31.2300   28.3960   49.0800 H   0  0  0  0  0  0  0  0  0  0  0  0
   28.7550   27.5800   48.1830 H   0  0  0  0  0  0  0  0  0  0  0  0
   30.1050   24.5940   45.4980 H   0  0  0  0  0  0  0  0  0  0  0  0
   32.8870   24.8920   45.9330 H   0  0  0  0  0  0  0  0  0  0  0  0
   37.0500   29.5120   50.1420 C   0  0  0  0  0  0  0  0  0  0  0  0
   37.7330   28.8420   50.9630 O   0  0  0  0  0  0  0  0  0  0  0  0
   37.5600   30.6640   49.4440 C   0  0  0  0  0  0  0  0  0  0  0  0
   37.4510   31.8930   50.0720 C   0  0  0  0  0  0  0  0  0  0  0  0
   37.9360   33.0220   49.4170 C   0  0  0  0  0  0  0  0  0  0  0  0
   38.4920   32.8520   48.1940 N   0  0  0  0  0  0  0  0  0  0  0  0
   38.5900   31.6530   47.6000 C   0  0  0  0  0  0  0  0  0  0  0  0
   38.1240   30.5730   48.2270 N   0  0  0  0  0  0  0  0  0  0  0  0
   37.0150   32.0740   51.0450 H   0  0  0  0  0  0  0  0  0  0  0  0
   37.8820   34.0080   49.8510 H   0  0  0  0  0  0  0  0  0  0  0  0
   40.2400   33.5990   46.6250 F   0  0  0  0  0  0  0  0  0  0  0  0
   40.0300   32.5300   45.8110 C   0  0  0  0  0  0  0  0  0  0  0  0
   39.1990   31.5320   46.2800 C   0  0  0  0  0  0  0  0  0  0  0  0
   38.9600   30.4310   45.4860 C   0  0  0  0  0  0  0  0  0  0  0  0
   38.3190   29.6210   45.8020 H   0  0  0  0  0  0  0  0  0  0  0  0
   39.5450   30.3330   44.2390 C   0  0  0  0  0  0  0  0  0  0  0  0
   39.4300   29.5290   43.5420 H   0  0  0  0  0  0  0  0  0  0  0  0
   40.3770   31.3710   43.8120 C   0  0  0  0  0  0  0  0  0  0  0  0
   40.6540   32.5060   44.5740 C   0  0  0  0  0  0  0  0  0  0  0  0
  1 22  1  0  0  0  0
  1  2  2  0  0  0  0
  2  6  1  0  0  0  0
  3  7  1  0  0  0  0
  3  2  1  0  0  0  0
  4  3  2  0  0  0  0
  5  4  1  0  0  0  0
  5  1  1  0  0  0  0
  8  9  1  0  0  0  0
  9 10  2  0  0  0  0
  9  4  1  0  0  0  0
 10 18  1  0  0  0  0
 11 10  1  0  0  0  0
 12 11  1  0  0  0  0
 12 19  1  0  0  0  0
 13 12  1  0  0  0  0
 14 13  2  0  0  0  0
 14 15  1  0  0  0  0
 15 11  2  0  0  0  0
 16 15  1  0  0  0  0
 16  8  2  0  0  0  0
 17  8  1  0  0  0  0
 20 14  1  0  0  0  0
 21 16  1  0  0  0  0
 22 23  2  0  0  0  0
 24 25  1  0  0  0  0
 24 22  1  0  0  0  0
 25 30  1  0  0  0  0
 26 31  1  0  0  0  0
 26 25  2  0  0  0  0
 27 26  1  0  0  0  0
 28 27  2  0  0  0  0
 28 29  1  0  0  0  0
 29 24  2  0  0  0  0
 33 34  1  0  0  0  0
 33 32  1  0  0  0  0
 34 28  1  0  0  0  0
 35 36  1  0  0  0  0
 35 34  2  0  0  0  0
 37 35  1  0  0  0  0
 38 37  1  0  0  0  0
 39 37  2  0  0  0  0
 39 40  1  0  0  0  0
 40 33  2  0  0  0  0
M  END
>  <minimizedAffinity>
-7.76607227

>  <minimizedRMSD>
0.69160521

$$$$
