
 OpenBabel03272510023D

 21 22  0  0  0  0  0  0  0  0999 V2000
   37.5640   31.3340   50.2370 C   0  0  0  0  0  0  0  0  0  0  0  0
   38.4710   31.6710   49.2040 C   0  0  0  0  0  0  0  0  0  0  0  0
   38.0950   31.4130   47.8960 C   0  0  0  0  0  0  0  0  0  0  0  0
   36.8740   30.8520   47.7070 N   0  0  0  0  0  0  0  0  0  0  0  0
   36.0310   30.5410   48.6930 C   0  0  0  0  0  0  0  0  0  0  0  0
   36.3870   30.7870   49.9490 N   0  0  0  0  0  0  0  0  0  0  0  0
   37.8310   31.5250   51.2660 H   0  0  0  0  0  0  0  0  0  0  0  0
   39.4230   32.1120   49.4080 H   0  0  0  0  0  0  0  0  0  0  0  0
   38.3950   29.6050   45.7600 F   0  0  0  0  0  0  0  0  0  0  0  0
   39.0530   30.8060   45.7280 C   0  0  0  0  0  0  0  0  0  0  0  0
   38.9340   31.7110   46.7430 C   0  0  0  0  0  0  0  0  0  0  0  0
   39.6440   32.8830   46.5960 C   0  0  0  0  0  0  0  0  0  0  0  0
   39.5950   33.6420   47.3630 H   0  0  0  0  0  0  0  0  0  0  0  0
   40.4390   33.1740   45.5150 C   0  0  0  0  0  0  0  0  0  0  0  0
   40.9730   34.1100   45.4540 H   0  0  0  0  0  0  0  0  0  0  0  0
   40.5570   32.2570   44.4910 C   0  0  0  0  0  3  0  0  0  0  0  0
   39.8450   31.0700   44.6260 C   0  0  0  0  0  3  0  0  0  0  0  0
   34.7390   29.9250   48.3320 C   0  0  0  0  0  0  0  0  0  0  0  0
   33.9560   29.6370   49.4450 F   0  0  0  0  0  0  0  0  0  0  0  0
   33.9830   30.7570   47.5270 F   0  0  0  0  0  0  0  0  0  0  0  0
   34.8710   28.7330   47.6410 F   0  0  0  0  0  0  0  0  0  0  0  0
  1  7  1  0  0  0  0
  2  8  1  0  0  0  0
  2  1  2  0  0  0  0
  3  2  1  0  0  0  0
  4  3  2  0  0  0  0
  4  5  1  0  0  0  0
  5  6  2  0  0  0  0
  6  1  1  0  0  0  0
 10  9  1  0  0  0  0
 10 11  1  0  0  0  0
 11  3  1  0  0  0  0
 12 11  2  0  0  0  0
 12 13  1  0  0  0  0
 14 12  1  0  0  0  0
 15 14  1  0  0  0  0
 16 17  1  0  0  0  0
 16 14  2  0  0  0  0
 17 10  2  0  0  0  0
 18  5  1  0  0  0  0
 18 19  1  0  0  0  0
 20 18  1  0  0  0  0
 21 18  1  0  0  0  0
M  END
>  <minimizedAffinity>
-5.46452427

>  <minimizedRMSD>
2.24368262

$$$$
