
 OpenBabel03272510033D

 21 22  0  0  0  0  0  0  0  0999 V2000
   39.6350   22.9020   35.2750 C   0  0  0  0  0  0  0  0  0  0  0  0
   39.0730   23.9010   34.4450 C   0  0  0  0  0  0  0  0  0  0  0  0
   38.2430   24.8440   35.0290 C   0  0  0  0  0  0  0  0  0  0  0  0
   38.0320   24.7340   36.3650 N   0  0  0  0  0  0  0  0  0  0  0  0
   38.5700   23.7860   37.1330 C   0  0  0  0  0  0  0  0  0  0  0  0
   39.3670   22.8790   36.5780 N   0  0  0  0  0  0  0  0  0  0  0  0
   40.2860   22.1550   34.8480 H   0  0  0  0  0  0  0  0  0  0  0  0
   39.2710   23.9430   33.3960 H   0  0  0  0  0  0  0  0  0  0  0  0
   37.8440   27.3930   36.1510 F   0  0  0  0  0  0  0  0  0  0  0  0
   37.4270   27.1450   34.8700 C   0  0  0  0  0  0  0  0  0  0  0  0
   37.6020   25.9220   34.2880 C   0  0  0  0  0  0  0  0  0  0  0  0
   37.1420   25.7950   32.9950 C   0  0  0  0  0  0  0  0  0  0  0  0
   37.2490   24.8530   32.4770 H   0  0  0  0  0  0  0  0  0  0  0  0
   36.5370   26.8050   32.2880 C   0  0  0  0  0  0  0  0  0  0  0  0
   36.1960   26.6470   31.2760 H   0  0  0  0  0  0  0  0  0  0  0  0
   36.3620   28.0390   32.8790 C   0  0  0  0  0  3  0  0  0  0  0  0
   36.8220   28.1800   34.1830 C   0  0  0  0  0  3  0  0  0  0  0  0
   38.2390   23.7890   38.5720 C   0  0  0  0  0  0  0  0  0  0  0  0
   37.3410   22.7810   38.9140 F   0  0  0  0  0  0  0  0  0  0  0  0
   39.3620   23.5940   39.3550 F   0  0  0  0  0  0  0  0  0  0  0  0
   37.6660   24.9710   39.0030 F   0  0  0  0  0  0  0  0  0  0  0  0
  1  6  1  0  0  0  0
  2  3  1  0  0  0  0
  2  1  2  0  0  0  0
  3  4  2  0  0  0  0
  4  5  1  0  0  0  0
  5 18  1  0  0  0  0
  6  5  2  0  0  0  0
  7  1  1  0  0  0  0
  8  2  1  0  0  0  0
 10  9  1  0  0  0  0
 11 10  1  0  0  0  0
 11  3  1  0  0  0  0
 12 11  2  0  0  0  0
 13 12  1  0  0  0  0
 14 16  2  0  0  0  0
 14 12  1  0  0  0  0
 15 14  1  0  0  0  0
 16 17  1  0  0  0  0
 17 10  2  0  0  0  0
 18 19  1  0  0  0  0
 18 21  1  0  0  0  0
 18 20  1  0  0  0  0
M  END
>  <minimizedAffinity>
-5.38192177

$$$$

 OpenBabel03272510033D

 21 22  0  0  0  0  0  0  0  0999 V2000
   40.6170   22.3510   35.7060 C   0  0  0  0  0  0  0  0  0  0  0  0
   39.7040   22.0500   34.6670 C   0  0  0  0  0  0  0  0  0  0  0  0
   38.3580   22.2950   34.8880 C   0  0  0  0  0  0  0  0  0  0  0  0
   38.0190   22.8090   36.0970 N   0  0  0  0  0  0  0  0  0  0  0  0
   38.8920   23.0880   37.0660 C   0  0  0  0  0  0  0  0  0  0  0  0
   40.1840   22.8550   36.8580 N   0  0  0  0  0  0  0  0  0  0  0  0
   41.6710   22.1720   35.5610 H   0  0  0  0  0  0  0  0  0  0  0  0
   40.0250   21.6450   33.7310 H   0  0  0  0  0  0  0  0  0  0  0  0
   38.0480   23.8790   32.5840 F   0  0  0  0  0  0  0  0  0  0  0  0
   37.2030   22.8230   32.7980 C   0  0  0  0  0  0  0  0  0  0  0  0
   37.3190   22.0290   33.9030 C   0  0  0  0  0  0  0  0  0  0  0  0
   36.4110   20.9980   34.0070 C   0  0  0  0  0  0  0  0  0  0  0  0
   36.4470   20.3330   34.8570 H   0  0  0  0  0  0  0  0  0  0  0  0
   35.4280   20.7390   33.0830 C   0  0  0  0  0  0  0  0  0  0  0  0
   34.7430   19.9150   33.2170 H   0  0  0  0  0  0  0  0  0  0  0  0
   35.3130   21.5430   31.9680 C   0  0  0  0  0  3  0  0  0  0  0  0
   36.2240   22.5870   31.8520 C   0  0  0  0  0  3  0  0  0  0  0  0
   38.3690   23.6350   38.3330 C   0  0  0  0  0  0  0  0  0  0  0  0
   37.9230   24.9470   38.2040 F   0  0  0  0  0  0  0  0  0  0  0  0
   37.2950   22.9010   38.8030 F   0  0  0  0  0  0  0  0  0  0  0  0
   39.3040   23.6500   39.3530 F   0  0  0  0  0  0  0  0  0  0  0  0
  1  6  1  0  0  0  0
  2  3  1  0  0  0  0
  2  1  2  0  0  0  0
  3  4  2  0  0  0  0
  4  5  1  0  0  0  0
  5 18  1  0  0  0  0
  6  5  2  0  0  0  0
  7  1  1  0  0  0  0
  8  2  1  0  0  0  0
  9 10  1  0  0  0  0
 10 11  1  0  0  0  0
 11 12  2  0  0  0  0
 11  3  1  0  0  0  0
 12 13  1  0  0  0  0
 14 15  1  0  0  0  0
 14 12  1  0  0  0  0
 16 14  2  0  0  0  0
 17 16  1  0  0  0  0
 17 10  2  0  0  0  0
 18 20  1  0  0  0  0
 18 21  1  0  0  0  0
 19 18  1  0  0  0  0
M  END
>  <minimizedAffinity>
-5.18421268

$$$$

 OpenBabel03272510033D

 21 22  0  0  0  0  0  0  0  0999 V2000
   38.3540   23.4360   38.0050 C   0  0  0  0  0  0  0  0  0  0  0  0
   37.5040   23.0930   36.9270 C   0  0  0  0  0  0  0  0  0  0  0  0
   38.0300   22.3250   35.9000 C   0  0  0  0  0  0  0  0  0  0  0  0
   39.3310   21.9590   36.0120 N   0  0  0  0  0  0  0  0  0  0  0  0
   40.1190   22.2910   37.0360 C   0  0  0  0  0  0  0  0  0  0  0  0
   39.6190   23.0270   38.0230 N   0  0  0  0  0  0  0  0  0  0  0  0
   37.9710   24.0320   38.8200 H   0  0  0  0  0  0  0  0  0  0  0  0
   36.4830   23.4080   36.8880 H   0  0  0  0  0  0  0  0  0  0  0  0
   35.9080   20.4870   36.0950 F   0  0  0  0  0  0  0  0  0  0  0  0
   36.2410   21.0100   34.8730 C   0  0  0  0  0  0  0  0  0  0  0  0
   37.2630   21.9050   34.7350 C   0  0  0  0  0  0  0  0  0  0  0  0
   37.5010   22.3610   33.4570 C   0  0  0  0  0  0  0  0  0  0  0  0
   38.2960   23.0700   33.2780 H   0  0  0  0  0  0  0  0  0  0  0  0
   36.7840   21.9710   32.3520 C   0  0  0  0  0  0  0  0  0  0  0  0
   37.0160   22.3620   31.3730 H   0  0  0  0  0  0  0  0  0  0  0  0
   35.7520   21.0670   32.4950 C   0  0  0  0  0  3  0  0  0  0  0  0
   35.5010   20.6000   33.7800 C   0  0  0  0  0  3  0  0  0  0  0  0
   41.5200   21.8270   37.0110 C   0  0  0  0  0  0  0  0  0  0  0  0
   41.8200   21.0950   35.8660 F   0  0  0  0  0  0  0  0  0  0  0  0
   42.4090   22.8860   37.0420 F   0  0  0  0  0  0  0  0  0  0  0  0
   41.8490   21.0130   38.0800 F   0  0  0  0  0  0  0  0  0  0  0  0
  1  6  1  0  0  0  0
  1  7  1  0  0  0  0
  2  1  2  0  0  0  0
  3  4  2  0  0  0  0
  3  2  1  0  0  0  0
  4  5  1  0  0  0  0
  5  6  2  0  0  0  0
  8  2  1  0  0  0  0
 10  9  1  0  0  0  0
 11 10  1  0  0  0  0
 11  3  1  0  0  0  0
 12 11  2  0  0  0  0
 13 12  1  0  0  0  0
 14 16  2  0  0  0  0
 14 12  1  0  0  0  0
 15 14  1  0  0  0  0
 16 17  1  0  0  0  0
 17 10  2  0  0  0  0
 18  5  1  0  0  0  0
 18 20  1  0  0  0  0
 18 21  1  0  0  0  0
 19 18  1  0  0  0  0
M  END
>  <minimizedAffinity>
-5.14829302

$$$$

 OpenBabel03272510033D

 21 22  0  0  0  0  0  0  0  0999 V2000
   37.6490   23.3800   32.3640 C   0  0  0  0  0  0  0  0  0  0  0  0
   38.1360   23.6950   33.6550 C   0  0  0  0  0  0  0  0  0  0  0  0
   37.8460   22.8220   34.6920 C   0  0  0  0  0  0  0  0  0  0  0  0
   37.1110   21.7240   34.3830 N   0  0  0  0  0  0  0  0  0  0  0  0
   36.6600   21.4430   33.1600 C   0  0  0  0  0  0  0  0  0  0  0  0
   36.9360   22.2760   32.1620 N   0  0  0  0  0  0  0  0  0  0  0  0
   37.8600   24.0410   31.5370 H   0  0  0  0  0  0  0  0  0  0  0  0
   38.7110   24.5750   33.8450 H   0  0  0  0  0  0  0  0  0  0  0  0
   40.3440   21.9100   35.6110 F   0  0  0  0  0  0  0  0  0  0  0  0
   39.5060   22.5700   36.4710 C   0  0  0  0  0  0  0  0  0  0  0  0
   38.2860   23.0280   36.0650 C   0  0  0  0  0  0  0  0  0  0  0  0
   37.5340   23.6770   37.0200 C   0  0  0  0  0  0  0  0  0  0  0  0
   36.5590   24.0640   36.7660 H   0  0  0  0  0  0  0  0  0  0  0  0
   37.9400   23.8770   38.3170 C   0  0  0  0  0  0  0  0  0  0  0  0
   37.3080   24.3930   39.0240 H   0  0  0  0  0  0  0  0  0  0  0  0
   39.1740   23.4120   38.7230 C   0  0  0  0  0  3  0  0  0  0  0  0
   39.9420   22.7560   37.7680 C   0  0  0  0  0  3  0  0  0  0  0  0
   35.8630   20.2140   32.9800 C   0  0  0  0  0  0  0  0  0  0  0  0
   34.7140   20.4290   32.2250 F   0  0  0  0  0  0  0  0  0  0  0  0
   36.5810   19.2280   32.3270 F   0  0  0  0  0  0  0  0  0  0  0  0
   35.4350   19.6550   34.1720 F   0  0  0  0  0  0  0  0  0  0  0  0
  1  2  1  0  0  0  0
  2  8  1  0  0  0  0
  2  3  2  0  0  0  0
  3 11  1  0  0  0  0
  4  3  1  0  0  0  0
  5  4  2  0  0  0  0
  6  1  2  0  0  0  0
  6  5  1  0  0  0  0
  7  1  1  0  0  0  0
  9 10  1  0  0  0  0
 10 17  1  0  0  0  0
 11 10  2  0  0  0  0
 11 12  1  0  0  0  0
 12 14  2  0  0  0  0
 13 12  1  0  0  0  0
 14 16  1  0  0  0  0
 14 15  1  0  0  0  0
 17 16  2  0  0  0  0
 18  5  1  0  0  0  0
 18 21  1  0  0  0  0
 19 18  1  0  0  0  0
 20 18  1  0  0  0  0
M  END
>  <minimizedAffinity>
-5.01861715

$$$$

 OpenBabel03272510033D

 21 22  0  0  0  0  0  0  0  0999 V2000
   38.2980   23.6330   38.4480 C   0  0  0  0  0  0  0  0  0  0  0  0
   37.8240   24.4500   37.3940 C   0  0  0  0  0  0  0  0  0  0  0  0
   38.5490   24.4780   36.2130 C   0  0  0  0  0  0  0  0  0  0  0  0
   39.6680   23.7120   36.1610 N   0  0  0  0  0  0  0  0  0  0  0  0
   40.1010   22.9480   37.1640 C   0  0  0  0  0  0  0  0  0  0  0  0
   39.4090   22.9170   38.2980 N   0  0  0  0  0  0  0  0  0  0  0  0
   37.7540   23.5900   39.3790 H   0  0  0  0  0  0  0  0  0  0  0  0
   36.9340   25.0350   37.4870 H   0  0  0  0  0  0  0  0  0  0  0  0
   38.4560   27.2880   36.3040 F   0  0  0  0  0  0  0  0  0  0  0  0
   38.1380   26.6380   35.1410 C   0  0  0  0  0  0  0  0  0  0  0  0
   38.1700   25.2750   35.0550 C   0  0  0  0  0  0  0  0  0  0  0  0
   37.8290   24.7380   33.8330 C   0  0  0  0  0  0  0  0  0  0  0  0
   37.8340   23.6670   33.6960 H   0  0  0  0  0  0  0  0  0  0  0  0
   37.4710   25.4820   32.7350 C   0  0  0  0  0  0  0  0  0  0  0  0
   37.2140   25.0050   31.8010 H   0  0  0  0  0  0  0  0  0  0  0  0
   37.4400   26.8580   32.8260 C   0  0  0  0  0  3  0  0  0  0  0  0
   37.7820   27.4130   34.0540 C   0  0  0  0  0  3  0  0  0  0  0  0
   41.3440   22.1780   36.9620 C   0  0  0  0  0  0  0  0  0  0  0  0
   41.5600   21.2410   37.9680 F   0  0  0  0  0  0  0  0  0  0  0  0
   41.3210   21.4740   35.7710 F   0  0  0  0  0  0  0  0  0  0  0  0
   42.4800   22.9650   36.9250 F   0  0  0  0  0  0  0  0  0  0  0  0
  1  7  1  0  0  0  0
  2  8  1  0  0  0  0
  2  1  2  0  0  0  0
  3  2  1  0  0  0  0
  4  3  2  0  0  0  0
  4  5  1  0  0  0  0
  5  6  2  0  0  0  0
  6  1  1  0  0  0  0
 10  9  1  0  0  0  0
 11 10  1  0  0  0  0
 11  3  1  0  0  0  0
 12 11  2  0  0  0  0
 13 12  1  0  0  0  0
 14 16  2  0  0  0  0
 14 12  1  0  0  0  0
 15 14  1  0  0  0  0
 16 17  1  0  0  0  0
 17 10  2  0  0  0  0
 18  5  1  0  0  0  0
 18 19  1  0  0  0  0
 20 18  1  0  0  0  0
 21 18  1  0  0  0  0
M  END
>  <minimizedAffinity>
-5.01189756

$$$$

 OpenBabel03272510033D

 21 22  0  0  0  0  0  0  0  0999 V2000
   36.1460   29.7720   31.8790 C   0  0  0  0  0  0  0  0  0  0  0  0
   35.4480   30.5380   32.8420 C   0  0  0  0  0  0  0  0  0  0  0  0
   35.3400   30.0310   34.1270 C   0  0  0  0  0  0  0  0  0  0  0  0
   35.9180   28.8260   34.3620 N   0  0  0  0  0  0  0  0  0  0  0  0
   36.5730   28.1160   33.4420 C   0  0  0  0  0  0  0  0  0  0  0  0
   36.6790   28.5990   32.2080 N   0  0  0  0  0  0  0  0  0  0  0  0
   36.2470   30.1430   30.8700 H   0  0  0  0  0  0  0  0  0  0  0  0
   35.0100   31.4840   32.6040 H   0  0  0  0  0  0  0  0  0  0  0  0
   36.6730   31.7970   35.8640 F   0  0  0  0  0  0  0  0  0  0  0  0
   35.3330   31.5680   36.0290 C   0  0  0  0  0  0  0  0  0  0  0  0
   34.6480   30.7180   35.2080 C   0  0  0  0  0  0  0  0  0  0  0  0
   33.3040   30.5700   35.4750 C   0  0  0  0  0  0  0  0  0  0  0  0
   32.7040   29.9130   34.8630 H   0  0  0  0  0  0  0  0  0  0  0  0
   32.6430   31.2150   36.4920 C   0  0  0  0  0  0  0  0  0  0  0  0
   31.5870   31.0600   36.6530 H   0  0  0  0  0  0  0  0  0  0  0  0
   33.3380   32.0720   37.3190 C   0  0  0  0  0  3  0  0  0  0  0  0
   34.6950   32.2300   37.0610 C   0  0  0  0  0  3  0  0  0  0  0  0
   37.1400   26.8150   33.8460 C   0  0  0  0  0  0  0  0  0  0  0  0
   38.5320   26.8140   33.8370 F   0  0  0  0  0  0  0  0  0  0  0  0
   36.7580   26.4650   35.1280 F   0  0  0  0  0  0  0  0  0  0  0  0
   36.7550   25.7680   33.0270 F   0  0  0  0  0  0  0  0  0  0  0  0
  1  6  2  0  0  0  0
  1  2  1  0  0  0  0
  2  3  2  0  0  0  0
  3  4  1  0  0  0  0
  3 11  1  0  0  0  0
  5 18  1  0  0  0  0
  5  4  2  0  0  0  0
  6  5  1  0  0  0  0
  7  1  1  0  0  0  0
  8  2  1  0  0  0  0
  9 10  1  0  0  0  0
 10 17  1  0  0  0  0
 11 12  1  0  0  0  0
 11 10  2  0  0  0  0
 12 14  2  0  0  0  0
 13 12  1  0  0  0  0
 14 15  1  0  0  0  0
 14 16  1  0  0  0  0
 17 16  2  0  0  0  0
 18 20  1  0  0  0  0
 19 18  1  0  0  0  0
 21 18  1  0  0  0  0
M  END
>  <minimizedAffinity>
-4.95867014

$$$$

 OpenBabel03272510033D

 21 22  0  0  0  0  0  0  0  0999 V2000
   37.0730   23.5930   32.3150 C   0  0  0  0  0  0  0  0  0  0  0  0
   37.9490   23.7010   33.4220 C   0  0  0  0  0  0  0  0  0  0  0  0
   38.0080   22.6410   34.3120 C   0  0  0  0  0  0  0  0  0  0  0  0
   37.2130   21.5730   34.0500 N   0  0  0  0  0  0  0  0  0  0  0  0
   36.3940   21.4880   33.0010 C   0  0  0  0  0  0  0  0  0  0  0  0
   36.3330   22.5020   32.1440 N   0  0  0  0  0  0  0  0  0  0  0  0
   37.0070   24.4040   31.6040 H   0  0  0  0  0  0  0  0  0  0  0  0
   38.5540   24.5670   33.5830 H   0  0  0  0  0  0  0  0  0  0  0  0
   37.1030   23.5220   36.8270 F   0  0  0  0  0  0  0  0  0  0  0  0
   38.3860   23.0620   36.6920 C   0  0  0  0  0  0  0  0  0  0  0  0
   38.8650   22.6260   35.4900 C   0  0  0  0  0  0  0  0  0  0  0  0
   40.1710   22.1870   35.4810 C   0  0  0  0  0  0  0  0  0  0  0  0
   40.6110   21.8280   34.5630 H   0  0  0  0  0  0  0  0  0  0  0  0
   40.9870   22.1680   36.5860 C   0  0  0  0  0  0  0  0  0  0  0  0
   42.0040   21.8130   36.5200 H   0  0  0  0  0  0  0  0  0  0  0  0
   40.5000   22.6100   37.7990 C   0  0  0  0  0  3  0  0  0  0  0  0
   39.1830   23.0560   37.8210 C   0  0  0  0  0  3  0  0  0  0  0  0
   35.5820   20.2640   32.8540 C   0  0  0  0  0  0  0  0  0  0  0  0
   36.1520   19.3480   31.9750 F   0  0  0  0  0  0  0  0  0  0  0  0
   35.4270   19.6050   34.0600 F   0  0  0  0  0  0  0  0  0  0  0  0
   34.3050   20.5040   32.3770 F   0  0  0  0  0  0  0  0  0  0  0  0
  1  2  1  0  0  0  0
  2  8  1  0  0  0  0
  2  3  2  0  0  0  0
  3 11  1  0  0  0  0
  4  3  1  0  0  0  0
  5  4  2  0  0  0  0
  6  1  2  0  0  0  0
  6  5  1  0  0  0  0
  7  1  1  0  0  0  0
 10  9  1  0  0  0  0
 10 17  1  0  0  0  0
 11 10  2  0  0  0  0
 12 11  1  0  0  0  0
 12 14  2  0  0  0  0
 13 12  1  0  0  0  0
 14 16  1  0  0  0  0
 15 14  1  0  0  0  0
 16 17  2  0  0  0  0
 18  5  1  0  0  0  0
 18 20  1  0  0  0  0
 19 18  1  0  0  0  0
 21 18  1  0  0  0  0
M  END
>  <minimizedAffinity>
-4.89985371

$$$$

 OpenBabel03272510033D

 21 22  0  0  0  0  0  0  0  0999 V2000
   37.5500   27.1210   33.8830 C   0  0  0  0  0  0  0  0  0  0  0  0
   38.2870   26.4320   34.8760 C   0  0  0  0  0  0  0  0  0  0  0  0
   38.3720   25.0520   34.7850 C   0  0  0  0  0  0  0  0  0  0  0  0
   37.7360   24.4640   33.7420 N   0  0  0  0  0  0  0  0  0  0  0  0
   37.0450   25.1290   32.8140 C   0  0  0  0  0  0  0  0  0  0  0  0
   36.9610   26.4530   32.8960 N   0  0  0  0  0  0  0  0  0  0  0  0
   37.4680   28.1970   33.9270 H   0  0  0  0  0  0  0  0  0  0  0  0
   38.7710   26.9450   35.6790 H   0  0  0  0  0  0  0  0  0  0  0  0
   37.2380   24.2630   37.2370 F   0  0  0  0  0  0  0  0  0  0  0  0
   38.5110   23.8650   36.9200 C   0  0  0  0  0  0  0  0  0  0  0  0
   39.0980   24.2260   35.7410 C   0  0  0  0  0  0  0  0  0  0  0  0
   40.3790   23.7640   35.5360 C   0  0  0  0  0  0  0  0  0  0  0  0
   40.9020   24.0130   34.6240 H   0  0  0  0  0  0  0  0  0  0  0  0
   41.0720   22.9840   36.4300 C   0  0  0  0  0  0  0  0  0  0  0  0
   42.0760   22.6510   36.2160 H   0  0  0  0  0  0  0  0  0  0  0  0
   40.4750   22.6220   37.6210 C   0  0  0  0  0  3  0  0  0  0  0  0
   39.1810   23.0820   37.8390 C   0  0  0  0  0  3  0  0  0  0  0  0
   36.3970   24.3490   31.7420 C   0  0  0  0  0  0  0  0  0  0  0  0
   35.0940   24.7710   31.4890 F   0  0  0  0  0  0  0  0  0  0  0  0
   37.0810   24.4570   30.5450 F   0  0  0  0  0  0  0  0  0  0  0  0
   36.3110   22.9960   32.0180 F   0  0  0  0  0  0  0  0  0  0  0  0
  1  7  1  0  0  0  0
  1  2  1  0  0  0  0
  2  8  1  0  0  0  0
  3  2  2  0  0  0  0
  3 11  1  0  0  0  0
  4  3  1  0  0  0  0
  5  6  1  0  0  0  0
  5  4  2  0  0  0  0
  6  1  2  0  0  0  0
 10  9  1  0  0  0  0
 10 17  1  0  0  0  0
 11 10  2  0  0  0  0
 12 11  1  0  0  0  0
 12 14  2  0  0  0  0
 13 12  1  0  0  0  0
 14 16  1  0  0  0  0
 15 14  1  0  0  0  0
 16 17  2  0  0  0  0
 18 21  1  0  0  0  0
 18  5  1  0  0  0  0
 19 18  1  0  0  0  0
 20 18  1  0  0  0  0
M  END
>  <minimizedAffinity>
-4.84193754

$$$$

 OpenBabel03272510033D

 21 22  0  0  0  0  0  0  0  0999 V2000
   37.5210   27.4010   33.3310 C   0  0  0  0  0  0  0  0  0  0  0  0
   38.0510   26.7510   34.4710 C   0  0  0  0  0  0  0  0  0  0  0  0
   37.9540   25.3700   34.5390 C   0  0  0  0  0  0  0  0  0  0  0  0
   37.3520   24.7450   33.4970 N   0  0  0  0  0  0  0  0  0  0  0  0
   36.8570   25.3730   32.4300 C   0  0  0  0  0  0  0  0  0  0  0  0
   36.9480   26.6970   32.3590 N   0  0  0  0  0  0  0  0  0  0  0  0
   37.5830   28.4760   33.2510 H   0  0  0  0  0  0  0  0  0  0  0  0
   38.5170   27.2920   35.2660 H   0  0  0  0  0  0  0  0  0  0  0  0
   40.3150   23.8520   34.3460 F   0  0  0  0  0  0  0  0  0  0  0  0
   39.6090   23.8590   35.5200 C   0  0  0  0  0  0  0  0  0  0  0  0
   38.4580   24.5820   35.6550 C   0  0  0  0  0  0  0  0  0  0  0  0
   37.8380   24.5090   36.8840 C   0  0  0  0  0  0  0  0  0  0  0  0
   36.9240   25.0580   37.0580 H   0  0  0  0  0  0  0  0  0  0  0  0
   38.3060   23.7700   37.9420 C   0  0  0  0  0  0  0  0  0  0  0  0
   37.7770   23.7500   38.8830 H   0  0  0  0  0  0  0  0  0  0  0  0
   39.4680   23.0400   37.8010 C   0  0  0  0  0  3  0  0  0  0  0  0
   40.1040   23.1050   36.5660 C   0  0  0  0  0  3  0  0  0  0  0  0
   36.2200   24.5570   31.3780 C   0  0  0  0  0  0  0  0  0  0  0  0
   35.5950   23.4220   31.8890 F   0  0  0  0  0  0  0  0  0  0  0  0
   35.2460   25.2670   30.7000 F   0  0  0  0  0  0  0  0  0  0  0  0
   37.1070   24.1020   30.4190 F   0  0  0  0  0  0  0  0  0  0  0  0
  1  2  1  0  0  0  0
  2  3  2  0  0  0  0
  2  8  1  0  0  0  0
  3 11  1  0  0  0  0
  4  3  1  0  0  0  0
  5  4  2  0  0  0  0
  6  5  1  0  0  0  0
  6  1  2  0  0  0  0
  7  1  1  0  0  0  0
  9 10  1  0  0  0  0
 10 11  2  0  0  0  0
 10 17  1  0  0  0  0
 11 12  1  0  0  0  0
 12 13  1  0  0  0  0
 12 14  2  0  0  0  0
 14 15  1  0  0  0  0
 16 14  1  0  0  0  0
 17 16  2  0  0  0  0
 18 19  1  0  0  0  0
 18  5  1  0  0  0  0
 20 18  1  0  0  0  0
 21 18  1  0  0  0  0
M  END
>  <minimizedAffinity>
-4.79250431

$$$$
