
 OpenBabel03272504293D

 42 45  0  0  0  0  0  0  0  0999 V2000
   38.0960   25.7080   33.6140 C   0  0  0  0  0  0  0  0  0  0  0  0
   38.0330   26.8800   34.2800 C   0  0  0  0  0  0  0  0  0  0  0  0
   38.9830   27.2410   35.1480 C   0  0  0  0  0  0  0  0  0  0  0  0
   40.0250   26.3970   35.3520 N   0  0  0  0  0  0  0  0  0  0  0  0
   40.0900   25.2430   34.6980 C   0  0  0  0  0  0  0  0  0  0  0  0
   39.1400   24.8800   33.8280 N   0  0  0  0  0  0  0  0  0  0  0  0
   37.2000   27.5550   34.1180 H   0  0  0  0  0  0  0  0  0  0  0  0
   38.9300   28.1820   35.6820 H   0  0  0  0  0  0  0  0  0  0  0  0
   41.2090   23.4610   35.9630 C   0  0  0  0  0  0  0  0  0  0  0  0
   41.2630   24.4470   34.9820 C   0  0  0  0  0  0  0  0  0  0  0  0
   42.3950   24.7620   34.2520 C   0  0  0  0  0  0  0  0  0  0  0  0
   43.5600   24.0600   34.5010 C   0  0  0  0  0  0  0  0  0  0  0  0
   43.6030   23.0660   35.4550 C   0  0  0  0  0  0  0  0  0  0  0  0
   42.4380   22.8340   36.1170 C   0  0  0  0  0  0  0  0  0  0  0  0
   42.3870   25.5370   33.4990 H   0  0  0  0  0  0  0  0  0  0  0  0
   44.4510   24.3040   33.9290 H   0  0  0  0  0  0  0  0  0  0  0  0
   44.4960   22.5100   35.6650 H   0  0  0  0  0  0  0  0  0  0  0  0
   42.4790   22.0420   36.8750 H   0  0  0  0  0  0  0  0  0  0  0  0
   39.8510   23.0420   36.8320 S   0  0  0  0  0  0  0  0  0  0  0  0
   40.5860   22.2050   37.9310 O   0  0  0  0  0  0  0  0  0  0  0  0
   39.0450   22.1020   35.9760 O   0  0  0  0  0  0  0  0  0  0  0  0
   38.7120   23.3410   37.9120 C   0  0  0  0  0  0  0  0  0  0  0  0
   37.3850   22.8760   37.8460 F   0  0  0  0  0  0  0  0  0  0  0  0
   38.2240   24.7220   37.7530 F   0  0  0  0  0  0  0  0  0  0  0  0
   39.0300   23.7040   39.2500 F   0  0  0  0  0  0  0  0  0  0  0  0
   35.4160   25.7240   31.1170 C   0  0  0  0  0  0  0  0  0  0  0  0
   35.2070   24.3420   30.8800 C   0  0  0  0  0  0  0  0  0  0  0  0
   35.9970   23.4550   31.5930 C   0  0  0  0  0  0  0  0  0  0  0  0
   36.9010   23.9710   32.4540 N   0  0  0  0  0  0  0  0  0  0  0  0
   37.0830   25.2930   32.6630 C   0  0  0  0  0  0  0  0  0  0  0  0
   36.3330   26.1610   31.9870 N   0  0  0  0  0  0  0  0  0  0  0  0
   34.7890   26.4190   30.5530 H   0  0  0  0  0  0  0  0  0  0  0  0
   34.4820   23.9660   30.1910 H   0  0  0  0  0  0  0  0  0  0  0  0
   37.9070   21.7240   30.2780 F   0  0  0  0  0  0  0  0  0  0  0  0
   36.8510   21.1640   30.9020 C   0  0  0  0  0  0  0  0  0  0  0  0
   35.9610   22.0080   31.5170 C   0  0  0  0  0  0  0  0  0  0  0  0
   34.9230   21.3300   32.1220 C   0  0  0  0  0  0  0  0  0  0  0  0
   34.1120   21.8400   32.6650 H   0  0  0  0  0  0  0  0  0  0  0  0
   34.8020   19.9520   32.1060 C   0  0  0  0  0  0  0  0  0  0  0  0
   33.9770   19.4560   32.5890 H   0  0  0  0  0  0  0  0  0  0  0  0
   35.7300   19.1690   31.4700 C   0  0  0  0  0  3  0  0  0  0  0  0
   36.7710   19.8040   30.8600 C   0  0  0  0  0  3  0  0  0  0  0  0
  1  6  2  0  0  0  0
  1  2  1  0  0  0  0
  2  3  2  0  0  0  0
  3  4  1  0  0  0  0
  3  8  1  0  0  0  0
  5 10  1  0  0  0  0
  5  4  2  0  0  0  0
  6  5  1  0  0  0  0
  7  2  1  0  0  0  0
  9 14  1  0  0  0  0
  9 19  1  0  0  0  0
 10  9  2  0  0  0  0
 11 12  2  0  0  0  0
 11 10  1  0  0  0  0
 12 13  1  0  0  0  0
 13 17  1  0  0  0  0
 13 14  2  0  0  0  0
 14 18  1  0  0  0  0
 15 11  1  0  0  0  0
 16 12  1  0  0  0  0
 19 22  1  0  0  0  0
 19 20  2  0  0  0  0
 21 19  2  0  0  0  0
 22 25  1  0  0  0  0
 23 22  1  0  0  0  0
 24 22  1  0  0  0  0
 26 31  1  0  0  0  0
 27 26  2  0  0  0  0
 27 28  1  0  0  0  0
 28 29  2  0  0  0  0
 29 30  1  0  0  0  0
 30  1  1  0  0  0  0
 31 30  2  0  0  0  0
 32 26  1  0  0  0  0
 33 27  1  0  0  0  0
 34 35  1  0  0  0  0
 35 36  1  0  0  0  0
 36 28  1  0  0  0  0
 36 37  2  0  0  0  0
 37 38  1  0  0  0  0
 39 37  1  0  0  0  0
 39 40  1  0  0  0  0
 41 39  2  0  0  0  0
 42 35  2  0  0  0  0
 42 41  1  0  0  0  0
M  END
>  <minimizedAffinity>
-7.64144468

$$$$

 OpenBabel03272504293D

 42 45  0  0  0  0  0  0  0  0999 V2000
   36.3540   28.7020   32.7910 C   0  0  0  0  0  0  0  0  0  0  0  0
   35.8320   29.1870   31.6460 C   0  0  0  0  0  0  0  0  0  0  0  0
   34.9260   30.1700   31.6550 C   0  0  0  0  0  0  0  0  0  0  0  0
   34.5340   30.6760   32.8500 N   0  0  0  0  0  0  0  0  0  0  0  0
   35.0470   30.2000   33.9790 C   0  0  0  0  0  0  0  0  0  0  0  0
   35.9540   29.2170   33.9730 N   0  0  0  0  0  0  0  0  0  0  0  0
   36.1440   28.7830   30.6900 H   0  0  0  0  0  0  0  0  0  0  0  0
   34.5070   30.5580   30.7340 H   0  0  0  0  0  0  0  0  0  0  0  0
   33.3110   30.5210   35.6860 C   0  0  0  0  0  0  0  0  0  0  0  0
   34.5680   30.8420   35.1830 C   0  0  0  0  0  0  0  0  0  0  0  0
   35.4170   31.7800   35.7420 C   0  0  0  0  0  0  0  0  0  0  0  0
   35.0040   32.4550   36.8760 C   0  0  0  0  0  0  0  0  0  0  0  0
   33.7730   32.2060   37.4450 C   0  0  0  0  0  0  0  0  0  0  0  0
   33.0150   31.2650   36.8200 C   0  0  0  0  0  0  0  0  0  0  0  0
   36.3870   31.9940   35.3150 H   0  0  0  0  0  0  0  0  0  0  0  0
   35.6680   33.1930   37.3190 H   0  0  0  0  0  0  0  0  0  0  0  0
   33.4320   32.7180   38.3230 H   0  0  0  0  0  0  0  0  0  0  0  0
   32.0370   31.0720   37.2760 H   0  0  0  0  0  0  0  0  0  0  0  0
   32.2850   29.3730   35.0500 S   0  0  0  0  0  0  0  0  0  0  0  0
   31.0120   30.2810   34.9790 O   0  0  0  0  0  0  0  0  0  0  0  0
   32.0690   28.3290   36.1130 O   0  0  0  0  0  0  0  0  0  0  0  0
   31.6760   28.5360   33.8320 C   0  0  0  0  0  0  0  0  0  0  0  0
   32.2950   28.3500   32.5820 F   0  0  0  0  0  0  0  0  0  0  0  0
   30.6100   29.3150   33.1760 F   0  0  0  0  0  0  0  0  0  0  0  0
   30.6900   27.5310   34.0370 F   0  0  0  0  0  0  0  0  0  0  0  0
   39.1050   26.4540   31.8940 C   0  0  0  0  0  0  0  0  0  0  0  0
   39.1670   25.5840   33.0110 C   0  0  0  0  0  0  0  0  0  0  0  0
   38.2570   25.8010   34.0310 C   0  0  0  0  0  0  0  0  0  0  0  0
   37.3830   26.8220   33.8860 N   0  0  0  0  0  0  0  0  0  0  0  0
   37.3430   27.6400   32.8130 C   0  0  0  0  0  0  0  0  0  0  0  0
   38.2100   27.4460   31.8210 N   0  0  0  0  0  0  0  0  0  0  0  0
   39.8240   26.2770   31.0910 H   0  0  0  0  0  0  0  0  0  0  0  0
   39.8720   24.7840   33.0950 H   0  0  0  0  0  0  0  0  0  0  0  0
   38.2700   26.8350   36.7340 F   0  0  0  0  0  0  0  0  0  0  0  0
   38.1370   25.5050   36.5520 C   0  0  0  0  0  0  0  0  0  0  0  0
   38.1340   25.0430   35.2610 C   0  0  0  0  0  0  0  0  0  0  0  0
   37.9910   23.6730   35.1910 C   0  0  0  0  0  0  0  0  0  0  0  0
   37.9660   23.1210   34.2380 H   0  0  0  0  0  0  0  0  0  0  0  0
   37.8660   22.8630   36.3060 C   0  0  0  0  0  0  0  0  0  0  0  0
   37.7560   21.7950   36.2150 H   0  0  0  0  0  0  0  0  0  0  0  0
   37.8770   23.3950   37.5700 C   0  0  0  0  0  3  0  0  0  0  0  0
   38.0160   24.7470   37.6770 C   0  0  0  0  0  3  0  0  0  0  0  0
  1 30  1  0  0  0  0
  1  6  1  0  0  0  0
  2  3  1  0  0  0  0
  2  1  2  0  0  0  0
  3  4  2  0  0  0  0
  4  5  1  0  0  0  0
  5 10  1  0  0  0  0
  6  5  2  0  0  0  0
  7  2  1  0  0  0  0
  8  3  1  0  0  0  0
  9 14  1  0  0  0  0
 10  9  2  0  0  0  0
 10 11  1  0  0  0  0
 11 12  2  0  0  0  0
 12 16  1  0  0  0  0
 12 13  1  0  0  0  0
 13 17  1  0  0  0  0
 14 18  1  0  0  0  0
 14 13  2  0  0  0  0
 15 11  1  0  0  0  0
 19  9  1  0  0  0  0
 19 21  2  0  0  0  0
 20 19  2  0  0  0  0
 22 25  1  0  0  0  0
 22 19  1  0  0  0  0
 23 22  1  0  0  0  0
 24 22  1  0  0  0  0
 26 27  1  0  0  0  0
 27 33  1  0  0  0  0
 27 28  2  0  0  0  0
 28 36  1  0  0  0  0
 29 28  1  0  0  0  0
 30 29  2  0  0  0  0
 31 26  2  0  0  0  0
 31 30  1  0  0  0  0
 32 26  1  0  0  0  0
 35 34  1  0  0  0  0
 35 42  1  0  0  0  0
 36 35  2  0  0  0  0
 37 36  1  0  0  0  0
 37 39  2  0  0  0  0
 38 37  1  0  0  0  0
 39 41  1  0  0  0  0
 40 39  1  0  0  0  0
 41 42  2  0  0  0  0
M  END
>  <minimizedAffinity>
-7.15683079

$$$$

 OpenBabel03272504293D

 42 45  0  0  0  0  0  0  0  0999 V2000
   37.6250   27.1880   34.0850 C   0  0  0  0  0  0  0  0  0  0  0  0
   38.4900   27.5580   35.0510 C   0  0  0  0  0  0  0  0  0  0  0  0
   39.4650   26.7420   35.4630 C   0  0  0  0  0  0  0  0  0  0  0  0
   39.5700   25.5190   34.8870 N   0  0  0  0  0  0  0  0  0  0  0  0
   38.7190   25.1530   33.9350 C   0  0  0  0  0  0  0  0  0  0  0  0
   37.7430   25.9680   33.5210 N   0  0  0  0  0  0  0  0  0  0  0  0
   38.4070   28.5360   35.5130 H   0  0  0  0  0  0  0  0  0  0  0  0
   40.1600   27.0410   36.2400 H   0  0  0  0  0  0  0  0  0  0  0  0
   38.7080   22.7070   34.1570 C   0  0  0  0  0  0  0  0  0  0  0  0
   38.9540   23.8370   33.3830 C   0  0  0  0  0  0  0  0  0  0  0  0
   39.4510   23.8070   32.0920 C   0  0  0  0  0  0  0  0  0  0  0  0
   39.7300   22.5800   31.5180 C   0  0  0  0  0  0  0  0  0  0  0  0
   39.5200   21.4060   32.2090 C   0  0  0  0  0  0  0  0  0  0  0  0
   39.0280   21.5440   33.4690 C   0  0  0  0  0  0  0  0  0  0  0  0
   39.6250   24.7140   31.5300 H   0  0  0  0  0  0  0  0  0  0  0  0
   40.1200   22.5530   30.5040 H   0  0  0  0  0  0  0  0  0  0  0  0
   39.7300   20.4440   31.7840 H   0  0  0  0  0  0  0  0  0  0  0  0
   38.8640   20.6070   34.0140 H   0  0  0  0  0  0  0  0  0  0  0  0
   38.0800   22.7160   35.6990 S   0  0  0  0  0  0  0  0  0  0  0  0
   39.3580   22.1760   36.4230 O   0  0  0  0  0  0  0  0  0  0  0  0
   37.0150   21.6540   35.7540 O   0  0  0  0  0  0  0  0  0  0  0  0
   37.6930   23.4460   37.0680 C   0  0  0  0  0  0  0  0  0  0  0  0
   37.3540   24.8060   37.1970 F   0  0  0  0  0  0  0  0  0  0  0  0
   38.9100   23.6860   37.8660 F   0  0  0  0  0  0  0  0  0  0  0  0
   37.2100   22.7190   38.1900 F   0  0  0  0  0  0  0  0  0  0  0  0
   35.1260   28.8450   31.9790 C   0  0  0  0  0  0  0  0  0  0  0  0
   34.5230   29.7580   32.8790 C   0  0  0  0  0  0  0  0  0  0  0  0
   35.0010   29.7730   34.1780 C   0  0  0  0  0  0  0  0  0  0  0  0
   36.0010   28.9180   34.4880 N   0  0  0  0  0  0  0  0  0  0  0  0
   36.5610   28.0550   33.6140 C   0  0  0  0  0  0  0  0  0  0  0  0
   36.1140   28.0270   32.3600 N   0  0  0  0  0  0  0  0  0  0  0  0
   34.7450   28.8390   30.9550 H   0  0  0  0  0  0  0  0  0  0  0  0
   33.7320   30.4220   32.6010 H   0  0  0  0  0  0  0  0  0  0  0  0
   36.5740   31.6430   35.7280 F   0  0  0  0  0  0  0  0  0  0  0  0
   35.2630   31.5110   36.0140 C   0  0  0  0  0  0  0  0  0  0  0  0
   34.5410   30.6170   35.2630 C   0  0  0  0  0  0  0  0  0  0  0  0
   33.2150   30.5620   35.6390 C   0  0  0  0  0  0  0  0  0  0  0  0
   32.4820   29.9020   35.1500 H   0  0  0  0  0  0  0  0  0  0  0  0
   32.6810   31.3280   36.6600 C   0  0  0  0  0  0  0  0  0  0  0  0
   31.6400   31.2590   36.9270 H   0  0  0  0  0  0  0  0  0  0  0  0
   33.4630   32.2030   37.3700 C   0  0  0  0  0  3  0  0  0  0  0  0
   34.7800   32.2830   37.0260 C   0  0  0  0  0  3  0  0  0  0  0  0
  1  2  1  0  0  0  0
  2  3  2  0  0  0  0
  2  7  1  0  0  0  0
  3  8  1  0  0  0  0
  4  3  1  0  0  0  0
  5  4  2  0  0  0  0
  6  5  1  0  0  0  0
  6  1  2  0  0  0  0
  9 19  1  0  0  0  0
 10  5  1  0  0  0  0
 10  9  2  0  0  0  0
 11 10  1  0  0  0  0
 12 11  2  0  0  0  0
 12 13  1  0  0  0  0
 13 14  2  0  0  0  0
 14 18  1  0  0  0  0
 14  9  1  0  0  0  0
 15 11  1  0  0  0  0
 16 12  1  0  0  0  0
 17 13  1  0  0  0  0
 19 21  2  0  0  0  0
 19 20  2  0  0  0  0
 19 22  1  0  0  0  0
 22 23  1  0  0  0  0
 22 24  1  0  0  0  0
 22 25  1  0  0  0  0
 26 31  2  0  0  0  0
 26 27  1  0  0  0  0
 27 28  2  0  0  0  0
 28 29  1  0  0  0  0
 28 36  1  0  0  0  0
 30  1  1  0  0  0  0
 30 29  2  0  0  0  0
 31 30  1  0  0  0  0
 32 26  1  0  0  0  0
 33 27  1  0  0  0  0
 34 35  1  0  0  0  0
 35 42  1  0  0  0  0
 36 37  1  0  0  0  0
 36 35  2  0  0  0  0
 37 39  2  0  0  0  0
 38 37  1  0  0  0  0
 39 40  1  0  0  0  0
 39 41  1  0  0  0  0
 42 41  2  0  0  0  0
M  END
>  <minimizedAffinity>
-6.98104239

$$$$

 OpenBabel03272504293D

 42 45  0  0  0  0  0  0  0  0999 V2000
   39.7460   25.7750   33.6300 C   0  0  0  0  0  0  0  0  0  0  0  0
   40.6510   26.7750   33.6550 C   0  0  0  0  0  0  0  0  0  0  0  0
   41.8030   26.6560   34.3200 C   0  0  0  0  0  0  0  0  0  0  0  0
   42.0520   25.4970   34.9800 N   0  0  0  0  0  0  0  0  0  0  0  0
   41.1630   24.5110   34.9570 C   0  0  0  0  0  0  0  0  0  0  0  0
   40.0080   24.6280   34.2910 N   0  0  0  0  0  0  0  0  0  0  0  0
   40.4530   27.7020   33.1280 H   0  0  0  0  0  0  0  0  0  0  0  0
   42.5290   27.4610   34.3390 H   0  0  0  0  0  0  0  0  0  0  0  0
   40.7200   22.7920   36.6530 C   0  0  0  0  0  0  0  0  0  0  0  0
   41.5570   23.3200   35.6750 C   0  0  0  0  0  0  0  0  0  0  0  0
   42.7940   22.7980   35.3410 C   0  0  0  0  0  0  0  0  0  0  0  0
   43.2450   21.6780   36.0160 C   0  0  0  0  0  0  0  0  0  0  0  0
   42.4850   21.0870   37.0030 C   0  0  0  0  0  0  0  0  0  0  0  0
   41.2850   21.6760   37.2540 C   0  0  0  0  0  0  0  0  0  0  0  0
   43.4090   23.2430   34.5720 H   0  0  0  0  0  0  0  0  0  0  0  0
   44.2160   21.2660   35.7570 H   0  0  0  0  0  0  0  0  0  0  0  0
   42.8160   20.2200   37.5400 H   0  0  0  0  0  0  0  0  0  0  0  0
   40.6860   21.2010   38.0410 H   0  0  0  0  0  0  0  0  0  0  0  0
   39.2140   23.3820   37.0500 S   0  0  0  0  0  0  0  0  0  0  0  0
   39.2550   22.9900   38.5650 O   0  0  0  0  0  0  0  0  0  0  0  0
   38.1970   22.5120   36.3600 O   0  0  0  0  0  0  0  0  0  0  0  0
   38.2150   24.5640   37.4500 C   0  0  0  0  0  0  0  0  0  0  0  0
   37.8010   24.8720   38.7590 F   0  0  0  0  0  0  0  0  0  0  0  0
   36.8310   24.1810   37.1150 F   0  0  0  0  0  0  0  0  0  0  0  0
   38.0120   25.6880   36.6020 F   0  0  0  0  0  0  0  0  0  0  0  0
   36.6910   24.9550   31.7810 C   0  0  0  0  0  0  0  0  0  0  0  0
   36.1020   26.2280   31.5800 C   0  0  0  0  0  0  0  0  0  0  0  0
   36.7820   27.3240   32.0860 C   0  0  0  0  0  0  0  0  0  0  0  0
   37.9470   27.0970   32.7310 N   0  0  0  0  0  0  0  0  0  0  0  0
   38.4890   25.8730   32.9120 C   0  0  0  0  0  0  0  0  0  0  0  0
   37.8510   24.8080   32.4310 N   0  0  0  0  0  0  0  0  0  0  0  0
   36.1520   24.0950   31.3780 H   0  0  0  0  0  0  0  0  0  0  0  0
   35.1770   26.3740   31.0640 H   0  0  0  0  0  0  0  0  0  0  0  0
   35.7230   28.9710   34.2170 F   0  0  0  0  0  0  0  0  0  0  0  0
   35.8710   29.5160   32.9920 C   0  0  0  0  0  0  0  0  0  0  0  0
   36.3750   28.7130   32.0010 C   0  0  0  0  0  0  0  0  0  0  0  0
   36.4840   29.3700   30.7930 C   0  0  0  0  0  0  0  0  0  0  0  0
   36.8690   28.8860   29.8820 H   0  0  0  0  0  0  0  0  0  0  0  0
   36.1230   30.6930   30.6120 C   0  0  0  0  0  0  0  0  0  0  0  0
   36.2220   31.1750   29.6530 H   0  0  0  0  0  0  0  0  0  0  0  0
   35.6250   31.4380   31.6490 C   0  0  0  0  0  3  0  0  0  0  0  0
   35.5030   30.8210   32.8590 C   0  0  0  0  0  3  0  0  0  0  0  0
  1  2  2  0  0  0  0
  1  6  1  0  0  0  0
  2  3  1  0  0  0  0
  3  8  1  0  0  0  0
  3  4  2  0  0  0  0
  5  4  1  0  0  0  0
  5 10  1  0  0  0  0
  6  5  2  0  0  0  0
  7  2  1  0  0  0  0
  9 19  1  0  0  0  0
  9 14  1  0  0  0  0
 10  9  2  0  0  0  0
 11 10  1  0  0  0  0
 11 12  2  0  0  0  0
 12 13  1  0  0  0  0
 13 14  2  0  0  0  0
 13 17  1  0  0  0  0
 14 18  1  0  0  0  0
 15 11  1  0  0  0  0
 16 12  1  0  0  0  0
 19 22  1  0  0  0  0
 19 20  2  0  0  0  0
 21 19  2  0  0  0  0
 22 23  1  0  0  0  0
 24 22  1  0  0  0  0
 25 22  1  0  0  0  0
 26 31  1  0  0  0  0
 27 26  2  0  0  0  0
 27 28  1  0  0  0  0
 28 29  2  0  0  0  0
 29 30  1  0  0  0  0
 30  1  1  0  0  0  0
 31 30  2  0  0  0  0
 32 26  1  0  0  0  0
 33 27  1  0  0  0  0
 35 34  1  0  0  0  0
 36 28  1  0  0  0  0
 36 35  2  0  0  0  0
 37 36  1  0  0  0  0
 38 37  1  0  0  0  0
 39 37  2  0  0  0  0
 39 41  1  0  0  0  0
 40 39  1  0  0  0  0
 41 42  2  0  0  0  0
 42 35  1  0  0  0  0
M  END
>  <minimizedAffinity>
-6.95823145

$$$$

 OpenBabel03272504293D

 42 45  0  0  0  0  0  0  0  0999 V2000
   36.5550   28.1370   33.3650 C   0  0  0  0  0  0  0  0  0  0  0  0
   36.2130   28.5130   32.1150 C   0  0  0  0  0  0  0  0  0  0  0  0
   35.4170   29.5630   31.8960 C   0  0  0  0  0  0  0  0  0  0  0  0
   34.9500   30.2540   32.9660 N   0  0  0  0  0  0  0  0  0  0  0  0
   35.2850   29.8870   34.1970 C   0  0  0  0  0  0  0  0  0  0  0  0
   36.0830   28.8360   34.4190 N   0  0  0  0  0  0  0  0  0  0  0  0
   36.5850   27.9610   31.2590 H   0  0  0  0  0  0  0  0  0  0  0  0
   35.1430   29.8640   30.8910 H   0  0  0  0  0  0  0  0  0  0  0  0
   33.4190   30.5670   35.6420 C   0  0  0  0  0  0  0  0  0  0  0  0
   34.7450   30.7200   35.2490 C   0  0  0  0  0  0  0  0  0  0  0  0
   35.6140   31.6570   35.7790 C   0  0  0  0  0  0  0  0  0  0  0  0
   35.1490   32.5080   36.7650 C   0  0  0  0  0  0  0  0  0  0  0  0
   33.8490   32.4330   37.2160 C   0  0  0  0  0  0  0  0  0  0  0  0
   33.0770   31.4780   36.6320 C   0  0  0  0  0  0  0  0  0  0  0  0
   36.6380   31.7360   35.4420 H   0  0  0  0  0  0  0  0  0  0  0  0
   35.8290   33.2460   37.1840 H   0  0  0  0  0  0  0  0  0  0  0  0
   33.4670   33.0830   37.9790 H   0  0  0  0  0  0  0  0  0  0  0  0
   32.0440   31.4230   36.9950 H   0  0  0  0  0  0  0  0  0  0  0  0
   32.3640   29.4260   35.0420 S   0  0  0  0  0  0  0  0  0  0  0  0
   31.0970   30.3430   35.0120 O   0  0  0  0  0  0  0  0  0  0  0  0
   32.1750   28.3850   36.1130 O   0  0  0  0  0  0  0  0  0  0  0  0
   31.7080   28.5920   33.8470 C   0  0  0  0  0  0  0  0  0  0  0  0
   32.2580   28.4440   32.5600 F   0  0  0  0  0  0  0  0  0  0  0  0
   30.5850   29.3500   33.2670 F   0  0  0  0  0  0  0  0  0  0  0  0
   30.7650   27.5550   34.0900 F   0  0  0  0  0  0  0  0  0  0  0  0
   39.3330   26.0440   34.5140 C   0  0  0  0  0  0  0  0  0  0  0  0
   38.9500   24.7540   34.0720 C   0  0  0  0  0  0  0  0  0  0  0  0
   37.7480   24.6530   33.3910 C   0  0  0  0  0  0  0  0  0  0  0  0
   37.0360   25.7850   33.2020 N   0  0  0  0  0  0  0  0  0  0  0  0
   37.4220   27.0050   33.6330 C   0  0  0  0  0  0  0  0  0  0  0  0
   38.5740   27.1230   34.2890 N   0  0  0  0  0  0  0  0  0  0  0  0
   40.2830   26.1190   35.0500 H   0  0  0  0  0  0  0  0  0  0  0  0
   39.5370   23.8760   34.2390 H   0  0  0  0  0  0  0  0  0  0  0  0
   38.0540   21.9540   34.3890 F   0  0  0  0  0  0  0  0  0  0  0  0
   37.2840   22.1560   33.3000 C   0  0  0  0  0  0  0  0  0  0  0  0
   37.1570   23.4450   32.8490 C   0  0  0  0  0  0  0  0  0  0  0  0
   36.3500   23.5360   31.7340 C   0  0  0  0  0  0  0  0  0  0  0  0
   36.1310   24.4910   31.2310 H   0  0  0  0  0  0  0  0  0  0  0  0
   35.7410   22.4430   31.1440 C   0  0  0  0  0  0  0  0  0  0  0  0
   35.1170   22.5510   30.2720 H   0  0  0  0  0  0  0  0  0  0  0  0
   35.9130   21.1800   31.6500 C   0  0  0  0  0  3  0  0  0  0  0  0
   36.7050   21.0520   32.7520 C   0  0  0  0  0  3  0  0  0  0  0  0
  1 30  1  0  0  0  0
  1  6  1  0  0  0  0
  2  1  2  0  0  0  0
  3  2  1  0  0  0  0
  3  4  2  0  0  0  0
  4  5  1  0  0  0  0
  5  6  2  0  0  0  0
  5 10  1  0  0  0  0
  7  2  1  0  0  0  0
  8  3  1  0  0  0  0
  9 14  1  0  0  0  0
 10  9  2  0  0  0  0
 10 11  1  0  0  0  0
 11 12  2  0  0  0  0
 12 16  1  0  0  0  0
 12 13  1  0  0  0  0
 13 17  1  0  0  0  0
 14 18  1  0  0  0  0
 14 13  2  0  0  0  0
 15 11  1  0  0  0  0
 19  9  1  0  0  0  0
 19 21  2  0  0  0  0
 20 19  2  0  0  0  0
 22 25  1  0  0  0  0
 22 19  1  0  0  0  0
 23 22  1  0  0  0  0
 24 22  1  0  0  0  0
 26 32  1  0  0  0  0
 27 33  1  0  0  0  0
 27 26  2  0  0  0  0
 28 27  1  0  0  0  0
 29 28  2  0  0  0  0
 29 30  1  0  0  0  0
 30 31  2  0  0  0  0
 31 26  1  0  0  0  0
 35 34  1  0  0  0  0
 36 35  1  0  0  0  0
 36 28  1  0  0  0  0
 37 36  2  0  0  0  0
 38 37  1  0  0  0  0
 39 41  2  0  0  0  0
 39 37  1  0  0  0  0
 40 39  1  0  0  0  0
 41 42  1  0  0  0  0
 42 35  2  0  0  0  0
M  END
>  <minimizedAffinity>
-6.94600868

$$$$

 OpenBabel03272504293D

 42 45  0  0  0  0  0  0  0  0999 V2000
   35.4170   29.4600   32.1270 C   0  0  0  0  0  0  0  0  0  0  0  0
   35.0820   30.3770   31.1960 C   0  0  0  0  0  0  0  0  0  0  0  0
   33.9850   31.1300   31.3210 C   0  0  0  0  0  0  0  0  0  0  0  0
   33.2020   30.9530   32.4140 N   0  0  0  0  0  0  0  0  0  0  0  0
   33.5290   30.0500   33.3320 C   0  0  0  0  0  0  0  0  0  0  0  0
   34.6270   29.2960   33.2090 N   0  0  0  0  0  0  0  0  0  0  0  0
   35.7080   30.5200   30.3220 H   0  0  0  0  0  0  0  0  0  0  0  0
   33.7180   31.8660   30.5720 H   0  0  0  0  0  0  0  0  0  0  0  0
   32.8880   30.7280   35.6040 C   0  0  0  0  0  0  0  0  0  0  0  0
   32.6280   29.9770   34.4610 C   0  0  0  0  0  0  0  0  0  0  0  0
   31.5580   29.1130   34.3220 C   0  0  0  0  0  0  0  0  0  0  0  0
   30.6780   28.9720   35.3790 C   0  0  0  0  0  0  0  0  0  0  0  0
   30.8560   29.6730   36.5520 C   0  0  0  0  0  0  0  0  0  0  0  0
   31.9370   30.4970   36.5880 C   0  0  0  0  0  0  0  0  0  0  0  0
   31.3970   28.5520   33.4120 H   0  0  0  0  0  0  0  0  0  0  0  0
   29.8360   28.2940   35.2730 H   0  0  0  0  0  0  0  0  0  0  0  0
   30.1870   29.5780   37.3850 H   0  0  0  0  0  0  0  0  0  0  0  0
   32.0730   31.0520   37.5240 H   0  0  0  0  0  0  0  0  0  0  0  0
   34.1510   31.8000   35.7840 S   0  0  0  0  0  0  0  0  0  0  0  0
   34.1880   31.7810   37.3480 O   0  0  0  0  0  0  0  0  0  0  0  0
   33.6590   33.1500   35.3340 O   0  0  0  0  0  0  0  0  0  0  0  0
   35.7070   32.1640   35.8160 C   0  0  0  0  0  0  0  0  0  0  0  0
   36.2370   33.4530   36.0080 F   0  0  0  0  0  0  0  0  0  0  0  0
   36.2490   32.1580   34.4450 F   0  0  0  0  0  0  0  0  0  0  0  0
   36.6960   31.1860   36.1130 F   0  0  0  0  0  0  0  0  0  0  0  0
   38.5060   27.9000   30.9250 C   0  0  0  0  0  0  0  0  0  0  0  0
   38.8270   27.0040   31.9750 C   0  0  0  0  0  0  0  0  0  0  0  0
   37.9650   26.9690   33.0590 C   0  0  0  0  0  0  0  0  0  0  0  0
   36.8900   27.7870   33.0330 N   0  0  0  0  0  0  0  0  0  0  0  0
   36.6040   28.6330   32.0200 C   0  0  0  0  0  0  0  0  0  0  0  0
   37.4210   28.6810   30.9700 N   0  0  0  0  0  0  0  0  0  0  0  0
   39.1880   27.9220   30.0720 H   0  0  0  0  0  0  0  0  0  0  0  0
   39.6870   26.3690   31.9650 H   0  0  0  0  0  0  0  0  0  0  0  0
   38.1240   27.8500   35.8100 F   0  0  0  0  0  0  0  0  0  0  0  0
   38.1670   26.5270   35.5530 C   0  0  0  0  0  0  0  0  0  0  0  0
   38.0900   26.1380   34.2400 C   0  0  0  0  0  0  0  0  0  0  0  0
   38.1430   24.7670   34.0920 C   0  0  0  0  0  0  0  0  0  0  0  0
   38.0950   24.2690   33.1120 H   0  0  0  0  0  0  0  0  0  0  0  0
   38.2600   23.8910   35.1570 C   0  0  0  0  0  0  0  0  0  0  0  0
   38.2990   22.8250   35.0040 H   0  0  0  0  0  0  0  0  0  0  0  0
   38.3330   24.3520   36.4460 C   0  0  0  0  0  3  0  0  0  0  0  0
   38.2840   25.7020   36.6300 C   0  0  0  0  0  3  0  0  0  0  0  0
  1  6  1  0  0  0  0
  2  3  1  0  0  0  0
  2  1  2  0  0  0  0
  3  4  2  0  0  0  0
  4  5  1  0  0  0  0
  5 10  1  0  0  0  0
  6  5  2  0  0  0  0
  7  2  1  0  0  0  0
  8  3  1  0  0  0  0
  9 19  1  0  0  0  0
  9 14  1  0  0  0  0
 10  9  2  0  0  0  0
 11 10  1  0  0  0  0
 11 12  2  0  0  0  0
 12 13  1  0  0  0  0
 13 14  2  0  0  0  0
 13 17  1  0  0  0  0
 14 18  1  0  0  0  0
 15 11  1  0  0  0  0
 16 12  1  0  0  0  0
 19 22  1  0  0  0  0
 19 20  2  0  0  0  0
 21 19  2  0  0  0  0
 22 23  1  0  0  0  0
 22 25  1  0  0  0  0
 24 22  1  0  0  0  0
 26 31  2  0  0  0  0
 26 27  1  0  0  0  0
 27 28  2  0  0  0  0
 28 36  1  0  0  0  0
 29 28  1  0  0  0  0
 30  1  1  0  0  0  0
 30 29  2  0  0  0  0
 31 30  1  0  0  0  0
 32 26  1  0  0  0  0
 33 27  1  0  0  0  0
 35 34  1  0  0  0  0
 35 42  1  0  0  0  0
 36 35  2  0  0  0  0
 37 36  1  0  0  0  0
 37 39  2  0  0  0  0
 38 37  1  0  0  0  0
 39 41  1  0  0  0  0
 40 39  1  0  0  0  0
 41 42  2  0  0  0  0
M  END
>  <minimizedAffinity>
-6.72992611

$$$$

 OpenBabel03272504293D

 42 45  0  0  0  0  0  0  0  0999 V2000
   39.8160   25.3430   34.0400 C   0  0  0  0  0  0  0  0  0  0  0  0
   40.8930   25.9760   34.5490 C   0  0  0  0  0  0  0  0  0  0  0  0
   41.4190   27.0480   33.9490 C   0  0  0  0  0  0  0  0  0  0  0  0
   40.8450   27.4940   32.8040 N   0  0  0  0  0  0  0  0  0  0  0  0
   39.7850   26.8720   32.3010 C   0  0  0  0  0  0  0  0  0  0  0  0
   39.2560   25.7990   32.9000 N   0  0  0  0  0  0  0  0  0  0  0  0
   41.3520   25.6200   35.4640 H   0  0  0  0  0  0  0  0  0  0  0  0
   42.2840   27.5550   34.3600 H   0  0  0  0  0  0  0  0  0  0  0  0
   37.9810   28.0310   31.1040 C   0  0  0  0  0  0  0  0  0  0  0  0
   39.2510   27.4620   31.0940 C   0  0  0  0  0  0  0  0  0  0  0  0
   40.0630   27.3830   29.9760 C   0  0  0  0  0  0  0  0  0  0  0  0
   39.5960   27.8980   28.7810 C   0  0  0  0  0  0  0  0  0  0  0  0
   38.3490   28.4790   28.6940 C   0  0  0  0  0  0  0  0  0  0  0  0
   37.6300   28.5080   29.8480 C   0  0  0  0  0  0  0  0  0  0  0  0
   41.0440   26.9320   30.0190 H   0  0  0  0  0  0  0  0  0  0  0  0
   40.2300   27.8380   27.9010 H   0  0  0  0  0  0  0  0  0  0  0  0
   37.9660   28.8830   27.7770 H   0  0  0  0  0  0  0  0  0  0  0  0
   36.6390   28.9710   29.7720 H   0  0  0  0  0  0  0  0  0  0  0  0
   36.9990   28.1670   32.4420 S   0  0  0  0  0  0  0  0  0  0  0  0
   36.0530   26.9680   32.1010 O   0  0  0  0  0  0  0  0  0  0  0  0
   36.2190   29.4470   32.2970 O   0  0  0  0  0  0  0  0  0  0  0  0
   36.6600   27.9110   33.9830 C   0  0  0  0  0  0  0  0  0  0  0  0
   36.0020   28.8190   34.8340 F   0  0  0  0  0  0  0  0  0  0  0  0
   37.8830   28.0560   34.7930 F   0  0  0  0  0  0  0  0  0  0  0  0
   36.5700   26.5960   34.5190 F   0  0  0  0  0  0  0  0  0  0  0  0
   38.8530   22.7870   36.4820 C   0  0  0  0  0  0  0  0  0  0  0  0
   38.0030   21.9430   35.7260 C   0  0  0  0  0  0  0  0  0  0  0  0
   37.7940   22.2840   34.4000 C   0  0  0  0  0  0  0  0  0  0  0  0
   38.4130   23.3900   33.9310 N   0  0  0  0  0  0  0  0  0  0  0  0
   39.2200   24.1800   34.6720 C   0  0  0  0  0  0  0  0  0  0  0  0
   39.4330   23.8680   35.9480 N   0  0  0  0  0  0  0  0  0  0  0  0
   39.0160   22.5120   37.5270 H   0  0  0  0  0  0  0  0  0  0  0  0
   37.5280   21.0740   36.1280 H   0  0  0  0  0  0  0  0  0  0  0  0
   35.4720   20.6510   34.9570 F   0  0  0  0  0  0  0  0  0  0  0  0
   35.8670   20.7950   33.6760 C   0  0  0  0  0  0  0  0  0  0  0  0
   36.9710   21.5750   33.4410 C   0  0  0  0  0  0  0  0  0  0  0  0
   37.2850   21.6540   32.1000 C   0  0  0  0  0  0  0  0  0  0  0  0
   38.1390   22.2350   31.7190 H   0  0  0  0  0  0  0  0  0  0  0  0
   36.5600   21.0150   31.1100 C   0  0  0  0  0  0  0  0  0  0  0  0
   36.8340   21.0980   30.0710 H   0  0  0  0  0  0  0  0  0  0  0  0
   35.4650   20.2490   31.4180 C   0  0  0  0  0  3  0  0  0  0  0  0
   35.1250   20.1480   32.7340 C   0  0  0  0  0  3  0  0  0  0  0  0
  1  2  1  0  0  0  0
  1 30  1  0  0  0  0
  2  7  1  0  0  0  0
  3  8  1  0  0  0  0
  3  2  2  0  0  0  0
  4  3  1  0  0  0  0
  5  4  2  0  0  0  0
  5  6  1  0  0  0  0
  6  1  2  0  0  0  0
  9 19  1  0  0  0  0
 10  9  1  0  0  0  0
 10  5  1  0  0  0  0
 11 15  1  0  0  0  0
 11 10  2  0  0  0  0
 12 11  1  0  0  0  0
 13 12  2  0  0  0  0
 13 14  1  0  0  0  0
 14  9  2  0  0  0  0
 16 12  1  0  0  0  0
 17 13  1  0  0  0  0
 18 14  1  0  0  0  0
 19 22  1  0  0  0  0
 20 19  2  0  0  0  0
 21 19  2  0  0  0  0
 22 25  1  0  0  0  0
 22 24  1  0  0  0  0
 22 23  1  0  0  0  0
 26 32  1  0  0  0  0
 27 33  1  0  0  0  0
 27 26  2  0  0  0  0
 28 27  1  0  0  0  0
 29 28  2  0  0  0  0
 29 30  1  0  0  0  0
 30 31  2  0  0  0  0
 31 26  1  0  0  0  0
 35 34  1  0  0  0  0
 36 35  1  0  0  0  0
 36 28  1  0  0  0  0
 37 36  2  0  0  0  0
 38 37  1  0  0  0  0
 39 41  2  0  0  0  0
 39 37  1  0  0  0  0
 40 39  1  0  0  0  0
 41 42  1  0  0  0  0
 42 35  2  0  0  0  0
M  END
>  <minimizedAffinity>
-6.59199667

$$$$

 OpenBabel03272504293D

 42 45  0  0  0  0  0  0  0  0999 V2000
   36.6820   27.8310   31.8790 C   0  0  0  0  0  0  0  0  0  0  0  0
   35.6980   26.9480   31.6110 C   0  0  0  0  0  0  0  0  0  0  0  0
   35.9480   25.6420   31.4810 C   0  0  0  0  0  0  0  0  0  0  0  0
   37.2270   25.2130   31.6240 N   0  0  0  0  0  0  0  0  0  0  0  0
   38.1980   26.0800   31.8890 C   0  0  0  0  0  0  0  0  0  0  0  0
   37.9490   27.3880   32.0200 N   0  0  0  0  0  0  0  0  0  0  0  0
   34.6750   27.2910   31.4960 H   0  0  0  0  0  0  0  0  0  0  0  0
   35.1560   24.9350   31.2650 H   0  0  0  0  0  0  0  0  0  0  0  0
   40.0520   25.3370   33.3180 C   0  0  0  0  0  0  0  0  0  0  0  0
   39.5110   25.4940   32.0450 C   0  0  0  0  0  0  0  0  0  0  0  0
   40.1600   25.1510   30.8730 C   0  0  0  0  0  0  0  0  0  0  0  0
   41.4330   24.6160   30.9520 C   0  0  0  0  0  0  0  0  0  0  0  0
   42.0510   24.4270   32.1700 C   0  0  0  0  0  0  0  0  0  0  0  0
   41.3280   24.7950   33.2610 C   0  0  0  0  0  0  0  0  0  0  0  0
   39.6970   25.2900   29.9060 H   0  0  0  0  0  0  0  0  0  0  0  0
   41.9460   24.3460   30.0340 H   0  0  0  0  0  0  0  0  0  0  0  0
   43.0380   24.0150   32.2550 H   0  0  0  0  0  0  0  0  0  0  0  0
   41.8250   24.6420   34.2270 H   0  0  0  0  0  0  0  0  0  0  0  0
   39.2780   25.7120   34.7450 S   0  0  0  0  0  0  0  0  0  0  0  0
   40.1880   26.9230   35.1360 O   0  0  0  0  0  0  0  0  0  0  0  0
   39.5430   24.5840   35.7070 O   0  0  0  0  0  0  0  0  0  0  0  0
   38.1060   26.4050   35.5810 C   0  0  0  0  0  0  0  0  0  0  0  0
   36.7650   26.5140   35.1680 F   0  0  0  0  0  0  0  0  0  0  0  0
   38.2370   27.8720   35.5020 F   0  0  0  0  0  0  0  0  0  0  0  0
   38.1910   26.5660   36.9920 F   0  0  0  0  0  0  0  0  0  0  0  0
   36.5170   31.4420   31.2860 C   0  0  0  0  0  0  0  0  0  0  0  0
   35.8980   31.9200   32.4680 C   0  0  0  0  0  0  0  0  0  0  0  0
   35.5620   30.9800   33.4280 C   0  0  0  0  0  0  0  0  0  0  0  0
   35.8480   29.6860   33.1660 N   0  0  0  0  0  0  0  0  0  0  0  0
   36.4380   29.2530   32.0310 C   0  0  0  0  0  0  0  0  0  0  0  0
   36.7690   30.1420   31.0970 N   0  0  0  0  0  0  0  0  0  0  0  0
   36.7810   32.1890   30.5330 H   0  0  0  0  0  0  0  0  0  0  0  0
   35.6850   32.9530   32.6440 H   0  0  0  0  0  0  0  0  0  0  0  0
   36.7340   32.2610   35.7420 F   0  0  0  0  0  0  0  0  0  0  0  0
   35.4560   31.8370   35.8170 C   0  0  0  0  0  0  0  0  0  0  0  0
   34.9260   31.2340   34.7060 C   0  0  0  0  0  0  0  0  0  0  0  0
   33.6170   30.8410   34.8920 C   0  0  0  0  0  0  0  0  0  0  0  0
   33.0250   30.3400   34.1100 H   0  0  0  0  0  0  0  0  0  0  0  0
   32.9230   31.0400   36.0730 C   0  0  0  0  0  0  0  0  0  0  0  0
   31.9010   30.7190   36.1840 H   0  0  0  0  0  0  0  0  0  0  0  0
   33.5180   31.6510   37.1470 C   0  0  0  0  0  3  0  0  0  0  0  0
   34.8120   32.0530   36.9990 C   0  0  0  0  0  3  0  0  0  0  0  0
  1  6  1  0  0  0  0
  1 30  1  0  0  0  0
  2  1  2  0  0  0  0
  3  2  1  0  0  0  0
  3  4  2  0  0  0  0
  4  5  1  0  0  0  0
  5  6  2  0  0  0  0
  5 10  1  0  0  0  0
  7  2  1  0  0  0  0
  8  3  1  0  0  0  0
  9 19  1  0  0  0  0
 10  9  2  0  0  0  0
 11 12  2  0  0  0  0
 11 10  1  0  0  0  0
 12 13  1  0  0  0  0
 13 17  1  0  0  0  0
 13 14  2  0  0  0  0
 14  9  1  0  0  0  0
 14 18  1  0  0  0  0
 15 11  1  0  0  0  0
 16 12  1  0  0  0  0
 19 20  2  0  0  0  0
 19 22  1  0  0  0  0
 19 21  2  0  0  0  0
 22 25  1  0  0  0  0
 23 22  1  0  0  0  0
 24 22  1  0  0  0  0
 26 27  1  0  0  0  0
 27 33  1  0  0  0  0
 27 28  2  0  0  0  0
 28 36  1  0  0  0  0
 29 28  1  0  0  0  0
 30 29  2  0  0  0  0
 31 26  2  0  0  0  0
 31 30  1  0  0  0  0
 32 26  1  0  0  0  0
 34 35  1  0  0  0  0
 35 42  1  0  0  0  0
 36 37  1  0  0  0  0
 36 35  2  0  0  0  0
 37 39  2  0  0  0  0
 38 37  1  0  0  0  0
 39 40  1  0  0  0  0
 39 41  1  0  0  0  0
 42 41  2  0  0  0  0
M  END
>  <minimizedAffinity>
-6.57357597

$$$$

 OpenBabel03272504293D

 42 45  0  0  0  0  0  0  0  0999 V2000
   35.8890   28.6410   31.6900 C   0  0  0  0  0  0  0  0  0  0  0  0
   37.0240   29.0760   31.1040 C   0  0  0  0  0  0  0  0  0  0  0  0
   38.0200   28.2380   30.8040 C   0  0  0  0  0  0  0  0  0  0  0  0
   37.8700   26.9230   31.1040 N   0  0  0  0  0  0  0  0  0  0  0  0
   36.7540   26.4920   31.6810 C   0  0  0  0  0  0  0  0  0  0  0  0
   35.7550   27.3300   31.9810 N   0  0  0  0  0  0  0  0  0  0  0  0
   37.1450   30.1270   30.8640 H   0  0  0  0  0  0  0  0  0  0  0  0
   38.9310   28.5900   30.3330 H   0  0  0  0  0  0  0  0  0  0  0  0
   37.3990   24.5250   33.0030 C   0  0  0  0  0  0  0  0  0  0  0  0
   36.7070   25.0680   31.9240 C   0  0  0  0  0  0  0  0  0  0  0  0
   35.9740   24.3260   31.0130 C   0  0  0  0  0  0  0  0  0  0  0  0
   35.9170   22.9540   31.1700 C   0  0  0  0  0  0  0  0  0  0  0  0
   36.5730   22.3270   32.2080 C   0  0  0  0  0  0  0  0  0  0  0  0
   37.2630   23.1450   33.0480 C   0  0  0  0  0  0  0  0  0  0  0  0
   35.4520   24.7940   30.1910 H   0  0  0  0  0  0  0  0  0  0  0  0
   35.3430   22.3680   30.4570 H   0  0  0  0  0  0  0  0  0  0  0  0
   36.5430   21.2640   32.3480 H   0  0  0  0  0  0  0  0  0  0  0  0
   37.7830   22.6410   33.8710 H   0  0  0  0  0  0  0  0  0  0  0  0
   38.2590   25.3990   34.1300 S   0  0  0  0  0  0  0  0  0  0  0  0
   39.6850   25.0170   33.6110 O   0  0  0  0  0  0  0  0  0  0  0  0
   38.0440   24.7400   35.4660 O   0  0  0  0  0  0  0  0  0  0  0  0
   38.8960   26.7550   34.6860 C   0  0  0  0  0  0  0  0  0  0  0  0
   38.9900   27.1130   36.0450 F   0  0  0  0  0  0  0  0  0  0  0  0
   37.9590   27.8720   34.4690 F   0  0  0  0  0  0  0  0  0  0  0  0
   39.8300   27.5090   33.9230 F   0  0  0  0  0  0  0  0  0  0  0  0
   33.5220   31.4370   31.7050 C   0  0  0  0  0  0  0  0  0  0  0  0
   32.6500   31.0960   32.7680 C   0  0  0  0  0  0  0  0  0  0  0  0
   32.9110   29.9150   33.4430 C   0  0  0  0  0  0  0  0  0  0  0  0
   33.9710   29.1820   33.0390 N   0  0  0  0  0  0  0  0  0  0  0  0
   34.7890   29.5270   32.0210 C   0  0  0  0  0  0  0  0  0  0  0  0
   34.5540   30.6590   31.3610 N   0  0  0  0  0  0  0  0  0  0  0  0
   33.3120   32.3700   31.1770 H   0  0  0  0  0  0  0  0  0  0  0  0
   31.8180   31.6990   33.0640 H   0  0  0  0  0  0  0  0  0  0  0  0
   33.2630   30.5090   36.2530 F   0  0  0  0  0  0  0  0  0  0  0  0
   32.3050   29.6300   35.8950 C   0  0  0  0  0  0  0  0  0  0  0  0
   32.1600   29.3670   34.5560 C   0  0  0  0  0  0  0  0  0  0  0  0
   31.1550   28.4580   34.3030 C   0  0  0  0  0  0  0  0  0  0  0  0
   30.8920   28.1240   33.2870 H   0  0  0  0  0  0  0  0  0  0  0  0
   30.3830   27.8810   35.2960 C   0  0  0  0  0  0  0  0  0  0  0  0
   29.6050   27.1730   35.0610 H   0  0  0  0  0  0  0  0  0  0  0  0
   30.5840   28.1910   36.6160 C   0  0  0  0  0  3  0  0  0  0  0  0
   31.5700   29.0870   36.9040 C   0  0  0  0  0  3  0  0  0  0  0  0
  1  6  1  0  0  0  0
  1 30  1  0  0  0  0
  2  1  2  0  0  0  0
  3  2  1  0  0  0  0
  3  4  2  0  0  0  0
  4  5  1  0  0  0  0
  5 10  1  0  0  0  0
  5  6  2  0  0  0  0
  7  2  1  0  0  0  0
  8  3  1  0  0  0  0
  9 14  1  0  0  0  0
  9 19  1  0  0  0  0
 10  9  2  0  0  0  0
 11 12  2  0  0  0  0
 11 10  1  0  0  0  0
 12 13  1  0  0  0  0
 13 17  1  0  0  0  0
 13 14  2  0  0  0  0
 14 18  1  0  0  0  0
 15 11  1  0  0  0  0
 16 12  1  0  0  0  0
 19 22  1  0  0  0  0
 19 21  2  0  0  0  0
 20 19  2  0  0  0  0
 22 23  1  0  0  0  0
 24 22  1  0  0  0  0
 25 22  1  0  0  0  0
 26 27  1  0  0  0  0
 27 33  1  0  0  0  0
 27 28  2  0  0  0  0
 28 36  1  0  0  0  0
 29 28  1  0  0  0  0
 30 29  2  0  0  0  0
 31 26  2  0  0  0  0
 31 30  1  0  0  0  0
 32 26  1  0  0  0  0
 35 34  1  0  0  0  0
 35 42  1  0  0  0  0
 36 35  2  0  0  0  0
 37 36  1  0  0  0  0
 37 39  2  0  0  0  0
 38 37  1  0  0  0  0
 39 41  1  0  0  0  0
 40 39  1  0  0  0  0
 41 42  2  0  0  0  0
M  END
>  <minimizedAffinity>
-6.50507069

$$$$
