
 OpenBabel03272507133D

 40 44  0  0  0  0  0  0  0  0999 V2000
   35.7970   29.1270   49.8540 C   0  0  0  0  0  0  0  0  0  0  0  0
   34.7600   29.6220   50.5640 C   0  0  0  0  0  0  0  0  0  0  0  0
   33.5980   29.0380   50.0510 C   0  0  0  0  0  0  0  0  0  0  0  0
   34.0220   28.1910   49.0190 C   0  0  0  0  0  0  0  0  0  0  0  0
   35.3200   28.2960   48.9620 O   0  0  0  0  0  0  0  0  0  0  0  0
   34.7850   30.3460   51.3920 H   0  0  0  0  0  0  0  0  0  0  0  0
   32.6230   29.2610   50.4400 H   0  0  0  0  0  0  0  0  0  0  0  0
   33.5150   26.4310   47.3400 C   0  0  0  0  0  0  0  0  0  0  0  0
   33.0940   27.3920   48.2270 C   0  0  0  0  0  0  0  0  0  0  0  0
   31.7620   27.6530   48.4230 C   0  0  0  0  0  0  0  0  0  0  0  0
   30.8240   26.9240   47.7010 C   0  0  0  0  0  0  0  0  0  0  0  0
   29.4890   26.9560   47.6830 N   0  0  0  0  0  0  0  0  0  0  0  0
   29.0780   26.0390   46.8060 N   0  0  0  0  0  0  0  0  0  0  0  0
   30.1580   25.4240   46.2680 C   0  0  0  0  0  0  0  0  0  0  0  0
   31.2970   25.9640   46.8170 C   0  0  0  0  0  0  0  0  0  0  0  0
   32.6330   25.6930   46.6120 C   0  0  0  0  0  0  0  0  0  0  0  0
   34.5800   26.2940   47.2510 H   0  0  0  0  0  0  0  0  0  0  0  0
   31.3400   28.4030   49.1120 H   0  0  0  0  0  0  0  0  0  0  0  0
   28.8550   27.5820   48.2480 H   0  0  0  0  0  0  0  0  0  0  0  0
   30.1770   24.6250   45.5170 H   0  0  0  0  0  0  0  0  0  0  0  0
   32.9640   24.9330   45.9100 H   0  0  0  0  0  0  0  0  0  0  0  0
   37.1730   29.5160   50.1120 C   0  0  0  0  0  0  0  0  0  0  0  0
   37.8340   28.8840   50.9800 O   0  0  0  0  0  0  0  0  0  0  0  0
   37.7130   30.6140   49.3520 C   0  0  0  0  0  0  0  0  0  0  0  0
   37.8060   31.8430   49.9820 C   0  0  0  0  0  0  0  0  0  0  0  0
   38.3230   32.9220   49.2700 C   0  0  0  0  0  0  0  0  0  0  0  0
   38.7100   32.7040   47.9900 N   0  0  0  0  0  0  0  0  0  0  0  0
   38.6130   31.5060   47.3940 C   0  0  0  0  0  0  0  0  0  0  0  0
   38.1160   30.4750   48.0780 N   0  0  0  0  0  0  0  0  0  0  0  0
   37.5090   32.0610   51.0000 H   0  0  0  0  0  0  0  0  0  0  0  0
   38.4220   33.9050   49.7020 H   0  0  0  0  0  0  0  0  0  0  0  0
   36.7980   31.1640   45.3820 F   0  0  0  0  0  0  0  0  0  0  0  0
   38.1090   31.1630   45.0130 C   0  0  0  0  0  0  0  0  0  0  0  0
   39.0460   31.3320   46.0120 C   0  0  0  0  0  0  0  0  0  0  0  0
   40.3840   31.3360   45.6810 C   0  0  0  0  0  0  0  0  0  0  0  0
   41.1600   31.4660   46.4220 H   0  0  0  0  0  0  0  0  0  0  0  0
   40.7750   31.1710   44.3680 C   0  0  0  0  0  0  0  0  0  0  0  0
   41.7790   31.1570   43.9980 H   0  0  0  0  0  0  0  0  0  0  0  0
   39.7870   31.0020   43.3950 C   0  0  0  0  0  3  0  0  0  0  0  0
   38.4200   30.9900   43.6740 C   0  0  0  0  0  3  0  0  0  0  0  0
  1 22  1  0  0  0  0
  1  2  2  0  0  0  0
  2  6  1  0  0  0  0
  3  7  1  0  0  0  0
  3  2  1  0  0  0  0
  4  3  2  0  0  0  0
  5  4  1  0  0  0  0
  5  1  1  0  0  0  0
  8  9  1  0  0  0  0
  9 10  2  0  0  0  0
  9  4  1  0  0  0  0
 10 18  1  0  0  0  0
 11 10  1  0  0  0  0
 12 11  1  0  0  0  0
 12 19  1  0  0  0  0
 13 12  1  0  0  0  0
 14 13  2  0  0  0  0
 14 15  1  0  0  0  0
 15 11  2  0  0  0  0
 16 15  1  0  0  0  0
 16  8  2  0  0  0  0
 17  8  1  0  0  0  0
 20 14  1  0  0  0  0
 21 16  1  0  0  0  0
 22 23  2  0  0  0  0
 24 25  1  0  0  0  0
 24 22  1  0  0  0  0
 25 30  1  0  0  0  0
 26 31  1  0  0  0  0
 26 25  2  0  0  0  0
 27 26  1  0  0  0  0
 28 27  2  0  0  0  0
 28 29  1  0  0  0  0
 29 24  2  0  0  0  0
 33 32  1  0  0  0  0
 33 34  1  0  0  0  0
 34 28  1  0  0  0  0
 35 34  2  0  0  0  0
 35 36  1  0  0  0  0
 37 35  1  0  0  0  0
 38 37  1  0  0  0  0
 39 40  1  0  0  0  0
 39 37  2  0  0  0  0
 40 33  2  0  0  0  0
M  END
>  <minimizedAffinity>
-7.29738331

>  <minimizedRMSD>
0.458282709

$$$$
