
 OpenBabel03272504273D

 42 45  0  0  0  0  0  0  0  0999 V2000
   34.6090   29.2570   48.0950 C   0  0  0  0  0  0  0  0  0  0  0  0
   34.6370   27.9620   48.4720 C   0  0  0  0  0  0  0  0  0  0  0  0
   33.7090   27.0950   48.0560 C   0  0  0  0  0  0  0  0  0  0  0  0
   32.7250   27.5450   47.2390 N   0  0  0  0  0  0  0  0  0  0  0  0
   32.6950   28.8190   46.8660 C   0  0  0  0  0  0  0  0  0  0  0  0
   33.6230   29.6890   47.2810 N   0  0  0  0  0  0  0  0  0  0  0  0
   35.4230   27.6010   49.1260 H   0  0  0  0  0  0  0  0  0  0  0  0
   33.7330   26.0550   48.3600 H   0  0  0  0  0  0  0  0  0  0  0  0
   30.2940   28.9900   46.3810 C   0  0  0  0  0  0  0  0  0  0  0  0
   31.6130   29.1670   45.9730 C   0  0  0  0  0  0  0  0  0  0  0  0
   31.9880   29.6360   44.7270 C   0  0  0  0  0  0  0  0  0  0  0  0
   31.0000   29.9540   43.8130 C   0  0  0  0  0  0  0  0  0  0  0  0
   29.6660   29.8090   44.1280 C   0  0  0  0  0  0  0  0  0  0  0  0
   29.4020   29.3420   45.3780 C   0  0  0  0  0  0  0  0  0  0  0  0
   33.0270   29.7580   44.4560 H   0  0  0  0  0  0  0  0  0  0  0  0
   31.2910   30.3230   42.8340 H   0  0  0  0  0  0  0  0  0  0  0  0
   28.8830   30.0490   43.4350 H   0  0  0  0  0  0  0  0  0  0  0  0
   28.3390   29.2280   45.6220 H   0  0  0  0  0  0  0  0  0  0  0  0
   29.8160   28.4580   47.8860 S   0  0  0  0  0  0  0  0  0  0  0  0
   29.3800   27.0210   47.4440 O   0  0  0  0  0  0  0  0  0  0  0  0
   28.5840   29.2350   48.2650 O   0  0  0  0  0  0  0  0  0  0  0  0
   30.1130   27.8510   49.3350 C   0  0  0  0  0  0  0  0  0  0  0  0
   29.6980   26.5850   49.7880 F   0  0  0  0  0  0  0  0  0  0  0  0
   29.2300   28.4850   50.3310 F   0  0  0  0  0  0  0  0  0  0  0  0
   31.1960   28.3180   50.1310 F   0  0  0  0  0  0  0  0  0  0  0  0
   36.5100   31.6910   50.0670 C   0  0  0  0  0  0  0  0  0  0  0  0
   37.5820   32.0180   49.2000 C   0  0  0  0  0  0  0  0  0  0  0  0
   37.6090   31.3900   47.9670 C   0  0  0  0  0  0  0  0  0  0  0  0
   36.6180   30.5170   47.6840 N   0  0  0  0  0  0  0  0  0  0  0  0
   35.6050   30.2200   48.5270 C   0  0  0  0  0  0  0  0  0  0  0  0
   35.5610   30.8140   49.7170 N   0  0  0  0  0  0  0  0  0  0  0  0
   36.4920   32.1910   51.0380 H   0  0  0  0  0  0  0  0  0  0  0  0
   38.3520   32.7150   49.4550 H   0  0  0  0  0  0  0  0  0  0  0  0
   39.4870   33.5740   47.6910 F   0  0  0  0  0  0  0  0  0  0  0  0
   39.5020   32.5900   46.7690 C   0  0  0  0  0  0  0  0  0  0  0  0
   38.6020   31.5670   46.9250 C   0  0  0  0  0  0  0  0  0  0  0  0
   38.7050   30.6180   45.9290 C   0  0  0  0  0  0  0  0  0  0  0  0
   38.0650   29.7230   45.8870 H   0  0  0  0  0  0  0  0  0  0  0  0
   39.6190   30.6970   44.8940 C   0  0  0  0  0  0  0  0  0  0  0  0
   39.6720   29.9360   44.1330 H   0  0  0  0  0  0  0  0  0  0  0  0
   40.4920   31.7510   44.8010 C   0  0  0  0  0  0  0  0  0  0  0  0
   40.4180   32.7090   45.7680 C   0  0  0  0  0  0  0  0  0  0  0  0
  1  2  1  0  0  0  0
  1 30  1  0  0  0  0
  2  7  1  0  0  0  0
  3  8  1  0  0  0  0
  3  2  2  0  0  0  0
  4  3  1  0  0  0  0
  5  4  2  0  0  0  0
  5  6  1  0  0  0  0
  6  1  2  0  0  0  0
  9 19  1  0  0  0  0
 10  9  1  0  0  0  0
 10  5  1  0  0  0  0
 11 10  2  0  0  0  0
 12 13  2  0  0  0  0
 12 11  1  0  0  0  0
 13 14  1  0  0  0  0
 14 18  1  0  0  0  0
 14  9  2  0  0  0  0
 15 11  1  0  0  0  0
 16 12  1  0  0  0  0
 17 13  1  0  0  0  0
 19 21  2  0  0  0  0
 19 22  1  0  0  0  0
 20 19  2  0  0  0  0
 22 23  1  0  0  0  0
 22 25  1  0  0  0  0
 22 24  1  0  0  0  0
 26 32  1  0  0  0  0
 27 33  1  0  0  0  0
 27 26  2  0  0  0  0
 28 27  1  0  0  0  0
 29 28  2  0  0  0  0
 29 30  1  0  0  0  0
 30 31  2  0  0  0  0
 31 26  1  0  0  0  0
 35 36  1  0  0  0  0
 35 34  1  0  0  0  0
 36 28  1  0  0  0  0
 37 36  2  0  0  0  0
 38 37  1  0  0  0  0
 39 37  1  0  0  0  0
 40 39  1  0  0  0  0
 41 39  2  0  0  0  0
 41 42  1  0  0  0  0
 42 35  2  0  0  0  0
M  END
>  <minimizedAffinity>
-7.32747984

>  <minimizedRMSD>
1.72962892

$$$$
