
 OpenBabel03272510263D

 45 49  0  0  1  0  0  0  0  0999 V2000
   39.4410   33.6190   43.4190 O   0  0  0  0  0  0  0  0  0  0  0  0
   36.1870   30.1630   46.9490 C   0  0  0  0  0  0  0  0  0  0  0  0
   37.0260   30.6890   47.9020 C   0  0  0  0  0  0  0  0  0  0  0  0
   38.0320   31.6030   47.5460 C   0  0  0  0  0  0  0  0  0  0  0  0
   38.1350   31.9440   46.2180 C   0  0  0  0  0  0  0  0  0  0  0  0
   39.0190   32.8140   45.6400 N   0  0  0  0  0  0  0  0  0  0  0  0
   38.7230   32.8220   44.3260 C   0  0  0  0  0  0  0  0  0  0  0  0
   37.7170   32.0120   44.0690 N   0  0  0  0  0  0  0  0  0  0  0  0
   37.3110   31.4360   45.2320 C   0  0  0  0  0  0  0  0  0  0  0  0
   36.3190   30.5280   45.6150 C   0  0  0  0  0  0  0  0  0  0  0  0
   35.3960   29.4570   47.1630 H   0  0  0  0  0  0  0  0  0  0  0  0
   38.7090   32.0340   48.2750 H   0  0  0  0  0  0  0  0  0  0  0  0
   39.7710   33.3600   46.1240 H   0  0  0  0  0  0  0  0  0  0  0  0
   35.6750   30.1310   44.8440 H   0  0  0  0  0  0  0  0  0  0  0  0
   37.4180   30.1060   51.6010 C   0  0  0  0  0  0  0  0  0  0  0  0
   37.7370   30.5350   50.3240 C   0  0  0  0  0  0  0  0  0  0  0  0
   36.8640   30.3060   49.2930 C   0  0  0  0  0  0  0  0  0  0  0  0
   35.6920   29.6460   49.6010 N   0  0  0  0  0  0  0  0  0  0  0  0
   35.3810   29.2290   50.8370 C   0  0  0  0  0  0  0  0  0  0  0  0
   36.2320   29.4570   51.8220 N   0  0  0  0  0  0  0  0  0  0  0  0
   38.1260   30.3000   52.3950 H   0  0  0  0  0  0  0  0  0  0  0  0
   38.6470   31.0540   50.0570 H   0  0  0  0  0  0  0  0  0  0  0  0
   34.4510   28.7270   50.9810 H   0  0  0  0  0  0  0  0  0  0  0  0
   39.7590   31.8370   42.0330 N   0  0  0  0  0  0  0  0  0  0  0  0
   39.3310   33.2540   42.0460 C   0  0  1  0  0  0  0  0  0  0  0  0
   37.9660   33.3390   41.5570 C   0  0  0  0  0  0  0  0  0  0  0  0
   37.9530   32.9430   40.2070 O   0  0  0  0  0  0  0  0  0  0  0  0
   38.4690   31.7080   39.9560 C   0  0  0  0  0  0  0  0  0  0  0  0
   39.7930   31.4570   40.6410 C   0  0  2  0  0  0  0  0  0  0  0  0
   40.7540   31.9420   42.3660 H   0  0  0  0  0  0  0  0  0  0  0  0
   39.9990   33.8560   41.4090 H   0  0  0  0  0  0  0  0  0  0  0  0
   37.7060   34.4400   41.4910 H   0  0  0  0  0  0  0  0  0  0  0  0
   37.1240   32.8620   41.9760 H   0  0  0  0  0  0  0  0  0  0  0  0
   37.7660   30.9340   40.3450 H   0  0  0  0  0  0  0  0  0  0  0  0
   38.6160   31.6470   38.8620 H   0  0  0  0  0  0  0  0  0  0  0  0
   40.5740   32.0400   40.0830 H   0  0  0  0  0  0  0  0  0  0  0  0
   42.3470   30.4850   39.8890 F   0  0  0  0  0  0  0  0  0  0  0  0
   41.3420   29.6090   40.0880 C   0  0  0  0  0  0  0  0  0  0  0  0
   40.0560   30.0050   40.4590 C   0  0  0  0  0  0  0  0  0  0  0  0
   39.0940   29.0250   40.6380 C   0  0  0  0  0  0  0  0  0  0  0  0
   38.0830   29.3310   40.9290 H   0  0  0  0  0  0  0  0  0  0  0  0
   39.3460   27.6780   40.4670 C   0  0  0  0  0  0  0  0  0  0  0  0
   38.5940   26.9170   40.6090 H   0  0  0  0  0  0  0  0  0  0  0  0
   40.6420   27.3150   40.0960 C   0  0  0  0  0  3  0  0  0  0  0  0
   41.6130   28.2630   39.9130 C   0  0  0  0  0  3  0  0  0  0  0  0
  1  7  1  0  0  0  0
  2 11  1  0  0  0  0
  2  3  1  0  0  0  0
  3 17  1  0  0  0  0
  4  3  2  0  0  0  0
  4 12  1  0  0  0  0
  5  4  1  0  0  0  0
  6 13  1  0  0  0  0
  6  5  1  0  0  0  0
  7  6  1  0  0  0  0
  8  7  2  0  0  0  0
  8  9  1  0  0  0  0
  9 10  1  0  0  0  0
  9  5  2  0  0  0  0
 10  2  2  0  0  0  0
 14 10  1  0  0  0  0
 15 20  1  0  0  0  0
 15 21  1  0  0  0  0
 16 15  2  0  0  0  0
 17 18  2  0  0  0  0
 17 16  1  0  0  0  0
 18 19  1  0  0  0  0
 19 23  1  0  0  0  0
 19 20  2  0  0  0  0
 22 16  1  0  0  0  0
 24 25  1  0  0  0  0
 24 30  1  0  0  0  0
 25 31  1  6  0  0  0
 25  1  1  0  0  0  0
 26 33  1  0  0  0  0
 26 25  1  0  0  0  0
 27 26  1  0  0  0  0
 28 27  1  0  0  0  0
 28 34  1  0  0  0  0
 28 29  1  0  0  0  0
 29 36  1  6  0  0  0
 29 24  1  0  0  0  0
 32 26  1  0  0  0  0
 35 28  1  0  0  0  0
 37 38  1  0  0  0  0
 38 39  1  0  0  0  0
 39 40  2  0  0  0  0
 39 29  1  0  0  0  0
 40 41  1  0  0  0  0
 42 43  1  0  0  0  0
 42 40  1  0  0  0  0
 44 42  2  0  0  0  0
 45 38  2  0  0  0  0
 45 44  1  0  0  0  0
M  END
>  <minimizedAffinity>
-6.18948507

>  <minimizedRMSD>
0.455308706

$$$$
