
 OpenBabel03262523173D

 39 42  0  0  0  0  0  0  0  0999 V2000
   37.0280   26.9240   32.4870 C   0  0  0  0  0  0  0  0  0  0  0  0
   37.4710   27.3770   31.2570 C   0  0  0  0  0  0  0  0  0  0  0  0
   37.2070   28.7040   31.0330 C   0  0  0  0  0  0  0  0  0  0  0  0
   36.5630   29.5150   31.9420 C   0  0  0  0  0  0  0  0  0  0  0  0
   36.1610   28.9760   33.1320 C   0  0  0  0  0  0  0  0  0  0  0  0
   36.3990   27.6770   33.3950 N   0  0  0  0  0  0  0  0  0  0  0  0
   37.9730   26.7120   30.5680 H   0  0  0  0  0  0  0  0  0  0  0  0
   37.5320   29.1280   30.0730 H   0  0  0  0  0  0  0  0  0  0  0  0
   36.4170   30.5460   31.6550 H   0  0  0  0  0  0  0  0  0  0  0  0
   33.1430   29.0630   32.9540 Cl  0  0  0  0  0  0  0  0  0  0  0  0
   34.1060   29.8810   34.1390 C   0  0  0  0  0  0  0  0  0  0  0  0
   35.4770   29.7740   34.1300 C   0  0  0  0  0  0  0  0  0  0  0  0
   36.1130   30.4830   35.1420 C   0  0  0  0  0  0  0  0  0  0  0  0
   35.4750   31.2340   36.0870 C   0  0  0  0  0  0  0  0  0  0  0  0
   34.0900   31.3170   36.0610 C   0  0  0  0  0  0  0  0  0  0  0  0
   33.2500   32.2710   37.2550 Cl  0  0  0  0  0  0  0  0  0  0  0  0
   33.4170   30.6350   35.0810 C   0  0  0  0  0  0  0  0  0  0  0  0
   37.1930   30.4400   35.1930 H   0  0  0  0  0  0  0  0  0  0  0  0
   36.0200   31.7640   36.8500 H   0  0  0  0  0  0  0  0  0  0  0  0
   32.3390   30.7160   35.0830 H   0  0  0  0  0  0  0  0  0  0  0  0
   37.3080   23.2650   32.2670 C   0  0  0  0  0  0  0  0  0  0  0  0
   37.7370   22.9130   33.5510 C   0  0  0  0  0  0  0  0  0  0  0  0
   37.9220   23.9210   34.4700 C   0  0  0  0  0  0  0  0  0  0  0  0
   37.6750   25.1850   34.0630 N   0  0  0  0  0  0  0  0  0  0  0  0
   37.2650   25.5190   32.8330 C   0  0  0  0  0  0  0  0  0  0  0  0
   37.0890   24.5290   31.9500 N   0  0  0  0  0  0  0  0  0  0  0  0
   37.9090   21.9050   33.7980 H   0  0  0  0  0  0  0  0  0  0  0  0
   40.2300   22.4530   35.4020 F   0  0  0  0  0  0  0  0  0  0  0  0
   39.4420   23.0670   36.3070 C   0  0  0  0  0  0  0  0  0  0  0  0
   38.3590   23.7550   35.8390 C   0  0  0  0  0  0  0  0  0  0  0  0
   37.6230   24.3440   36.8460 C   0  0  0  0  0  0  0  0  0  0  0  0
   36.7250   24.9300   36.6450 H   0  0  0  0  0  0  0  0  0  0  0  0
   37.9520   24.2470   38.1810 C   0  0  0  0  0  0  0  0  0  0  0  0
   37.3520   24.7230   38.9430 H   0  0  0  0  0  0  0  0  0  0  0  0
   39.0600   23.5390   38.5880 C   0  0  0  0  0  3  0  0  0  0  0  0
   39.8280   22.9310   37.6200 C   0  0  0  0  0  3  0  0  0  0  0  0
   37.0860   22.2840   31.2360 N   0  0  0  0  0  0  0  0  0  0  0  0
   36.2190   21.7350   31.0600 H   0  0  0  0  0  0  0  0  0  0  0  0
   37.9680   22.2320   30.7010 H   0  0  0  0  0  0  0  0  0  0  0  0
  1 25  1  0  0  0  0
  1  6  1  0  0  0  0
  2  1  2  0  0  0  0
  3  2  1  0  0  0  0
  3  4  2  0  0  0  0
  4  5  1  0  0  0  0
  5  6  2  0  0  0  0
  5 12  1  0  0  0  0
  7  2  1  0  0  0  0
  8  3  1  0  0  0  0
  9  4  1  0  0  0  0
 10 11  1  0  0  0  0
 11 17  1  0  0  0  0
 12 11  2  0  0  0  0
 12 13  1  0  0  0  0
 13 18  1  0  0  0  0
 13 14  2  0  0  0  0
 14 19  1  0  0  0  0
 15 14  1  0  0  0  0
 15 16  1  0  0  0  0
 17 20  1  0  0  0  0
 17 15  2  0  0  0  0
 21 22  1  0  0  0  0
 22 27  1  0  0  0  0
 22 23  2  0  0  0  0
 23 30  1  0  0  0  0
 24 23  1  0  0  0  0
 25 24  2  0  0  0  0
 26 21  2  0  0  0  0
 26 25  1  0  0  0  0
 28 29  1  0  0  0  0
 29 36  1  0  0  0  0
 30 29  2  0  0  0  0
 30 31  1  0  0  0  0
 31 33  2  0  0  0  0
 32 31  1  0  0  0  0
 33 35  1  0  0  0  0
 33 34  1  0  0  0  0
 36 35  2  0  0  0  0
 37 21  1  0  0  0  0
 38 37  1  0  0  0  0
 39 37  1  0  0  0  0
M  END
>  <minimizedAffinity>
-7.10620022

$$$$

 OpenBabel03262523173D

 39 42  0  0  0  0  0  0  0  0999 V2000
   38.6890   24.7450   33.6130 C   0  0  0  0  0  0  0  0  0  0  0  0
   38.8570   26.0990   33.8390 C   0  0  0  0  0  0  0  0  0  0  0  0
   39.9210   26.3920   34.6520 C   0  0  0  0  0  0  0  0  0  0  0  0
   40.7500   25.4340   35.1940 C   0  0  0  0  0  0  0  0  0  0  0  0
   40.5040   24.1190   34.9140 C   0  0  0  0  0  0  0  0  0  0  0  0
   39.4680   23.7840   34.1210 N   0  0  0  0  0  0  0  0  0  0  0  0
   38.1860   26.8230   33.3970 H   0  0  0  0  0  0  0  0  0  0  0  0
   40.1100   27.4520   34.8730 H   0  0  0  0  0  0  0  0  0  0  0  0
   41.5610   25.7880   35.8150 H   0  0  0  0  0  0  0  0  0  0  0  0
   39.6290   22.9290   37.5530 Cl  0  0  0  0  0  0  0  0  0  0  0  0
   41.0270   22.4540   36.6480 C   0  0  0  0  0  0  0  0  0  0  0  0
   41.3360   23.0630   35.4540 C   0  0  0  0  0  0  0  0  0  0  0  0
   42.4840   22.5750   34.8430 C   0  0  0  0  0  0  0  0  0  0  0  0
   43.2710   21.5790   35.3450 C   0  0  0  0  0  0  0  0  0  0  0  0
   42.9260   20.9900   36.5530 C   0  0  0  0  0  0  0  0  0  0  0  0
   43.9140   19.7160   37.2180 Cl  0  0  0  0  0  0  0  0  0  0  0  0
   41.8010   21.4370   37.1960 C   0  0  0  0  0  0  0  0  0  0  0  0
   42.7830   23.0110   33.8990 H   0  0  0  0  0  0  0  0  0  0  0  0
   44.1530   21.2400   34.8270 H   0  0  0  0  0  0  0  0  0  0  0  0
   41.5540   20.9620   38.1350 H   0  0  0  0  0  0  0  0  0  0  0  0
   35.8760   24.7980   31.2460 C   0  0  0  0  0  0  0  0  0  0  0  0
   35.5290   23.4460   31.1520 C   0  0  0  0  0  0  0  0  0  0  0  0
   36.2530   22.5400   31.8940 C   0  0  0  0  0  0  0  0  0  0  0  0
   37.2520   23.0240   32.6640 N   0  0  0  0  0  0  0  0  0  0  0  0
   37.5820   24.3190   32.7510 C   0  0  0  0  0  0  0  0  0  0  0  0
   36.8700   25.1880   32.0240 N   0  0  0  0  0  0  0  0  0  0  0  0
   34.7370   23.1410   30.5310 H   0  0  0  0  0  0  0  0  0  0  0  0
   35.2700   20.9700   34.1130 F   0  0  0  0  0  0  0  0  0  0  0  0
   35.5820   20.3430   32.9610 C   0  0  0  0  0  0  0  0  0  0  0  0
   36.0440   21.1090   31.9290 C   0  0  0  0  0  0  0  0  0  0  0  0
   36.3320   20.3690   30.8010 C   0  0  0  0  0  0  0  0  0  0  0  0
   36.7110   20.8260   29.8860 H   0  0  0  0  0  0  0  0  0  0  0  0
   36.1680   19.0020   30.7280 C   0  0  0  0  0  0  0  0  0  0  0  0
   36.4040   18.4550   29.8280 H   0  0  0  0  0  0  0  0  0  0  0  0
   35.6970   18.2870   31.8070 C   0  0  0  0  0  3  0  0  0  0  0  0
   35.3940   18.9800   32.9570 C   0  0  0  0  0  3  0  0  0  0  0  0
   35.1800   25.8220   30.5090 N   0  0  0  0  0  0  0  0  0  0  0  0
   34.3120   26.3240   30.7890 H   0  0  0  0  0  0  0  0  0  0  0  0
   35.7180   25.9590   29.6380 H   0  0  0  0  0  0  0  0  0  0  0  0
  1  2  2  0  0  0  0
  1  6  1  0  0  0  0
  2  3  1  0  0  0  0
  3  8  1  0  0  0  0
  3  4  2  0  0  0  0
  4  9  1  0  0  0  0
  5  4  1  0  0  0  0
  5 12  1  0  0  0  0
  6  5  2  0  0  0  0
  7  2  1  0  0  0  0
 11 17  1  0  0  0  0
 11 10  1  0  0  0  0
 12 11  2  0  0  0  0
 13 14  2  0  0  0  0
 13 12  1  0  0  0  0
 14 15  1  0  0  0  0
 15 17  2  0  0  0  0
 15 16  1  0  0  0  0
 17 20  1  0  0  0  0
 18 13  1  0  0  0  0
 19 14  1  0  0  0  0
 21 26  1  0  0  0  0
 22 21  2  0  0  0  0
 22 23  1  0  0  0  0
 23 30  1  0  0  0  0
 23 24  2  0  0  0  0
 24 25  1  0  0  0  0
 25  1  1  0  0  0  0
 26 25  2  0  0  0  0
 27 22  1  0  0  0  0
 29 28  1  0  0  0  0
 30 29  2  0  0  0  0
 31 30  1  0  0  0  0
 32 31  1  0  0  0  0
 33 31  2  0  0  0  0
 33 35  1  0  0  0  0
 34 33  1  0  0  0  0
 35 36  2  0  0  0  0
 36 29  1  0  0  0  0
 37 38  1  0  0  0  0
 37 21  1  0  0  0  0
 39 37  1  0  0  0  0
M  END
>  <minimizedAffinity>
-6.92618132

$$$$

 OpenBabel03262523173D

 39 42  0  0  0  0  0  0  0  0999 V2000
   37.0360   27.2460   32.5170 C   0  0  0  0  0  0  0  0  0  0  0  0
   37.0690   27.5650   31.1720 C   0  0  0  0  0  0  0  0  0  0  0  0
   36.4580   28.7560   30.8740 C   0  0  0  0  0  0  0  0  0  0  0  0
   35.8670   29.5650   31.8210 C   0  0  0  0  0  0  0  0  0  0  0  0
   35.8840   29.1650   33.1280 C   0  0  0  0  0  0  0  0  0  0  0  0
   36.4720   28.0010   33.4660 N   0  0  0  0  0  0  0  0  0  0  0  0
   37.5420   26.9060   30.4570 H   0  0  0  0  0  0  0  0  0  0  0  0
   36.4490   29.0690   29.8210 H   0  0  0  0  0  0  0  0  0  0  0  0
   35.4230   30.4840   31.4660 H   0  0  0  0  0  0  0  0  0  0  0  0
   32.8610   29.1740   33.2390 Cl  0  0  0  0  0  0  0  0  0  0  0  0
   33.9110   30.0400   34.3100 C   0  0  0  0  0  0  0  0  0  0  0  0
   35.2780   29.9670   34.1710 C   0  0  0  0  0  0  0  0  0  0  0  0
   35.9890   30.7130   35.1030 C   0  0  0  0  0  0  0  0  0  0  0  0
   35.4240   31.4690   36.0910 C   0  0  0  0  0  0  0  0  0  0  0  0
   34.0420   31.5170   36.1960 C   0  0  0  0  0  0  0  0  0  0  0  0
   33.2950   32.4760   37.4470 Cl  0  0  0  0  0  0  0  0  0  0  0  0
   33.2960   30.7980   35.2990 C   0  0  0  0  0  0  0  0  0  0  0  0
   37.0690   30.6980   35.0510 H   0  0  0  0  0  0  0  0  0  0  0  0
   36.0250   32.0280   36.7870 H   0  0  0  0  0  0  0  0  0  0  0  0
   32.2210   30.8520   35.4040 H   0  0  0  0  0  0  0  0  0  0  0  0
   39.4020   24.8410   33.9770 C   0  0  0  0  0  0  0  0  0  0  0  0
   38.7790   23.6120   33.7340 C   0  0  0  0  0  0  0  0  0  0  0  0
   37.5690   23.6200   33.0770 C   0  0  0  0  0  0  0  0  0  0  0  0
   37.0670   24.8200   32.7130 N   0  0  0  0  0  0  0  0  0  0  0  0
   37.6660   25.9940   32.9480 C   0  0  0  0  0  0  0  0  0  0  0  0
   38.8410   25.9720   33.5870 N   0  0  0  0  0  0  0  0  0  0  0  0
   39.2300   22.7150   34.0460 H   0  0  0  0  0  0  0  0  0  0  0  0
   36.9160   21.3880   34.7930 F   0  0  0  0  0  0  0  0  0  0  0  0
   36.4550   21.3900   33.5260 C   0  0  0  0  0  0  0  0  0  0  0  0
   36.7780   22.4570   32.7370 C   0  0  0  0  0  0  0  0  0  0  0  0
   36.2580   22.3580   31.4630 C   0  0  0  0  0  0  0  0  0  0  0  0
   36.4220   23.1260   30.7060 H   0  0  0  0  0  0  0  0  0  0  0  0
   35.4920   21.2940   31.0380 C   0  0  0  0  0  0  0  0  0  0  0  0
   35.1010   21.2510   30.0320 H   0  0  0  0  0  0  0  0  0  0  0  0
   35.2010   20.2480   31.8840 C   0  0  0  0  0  3  0  0  0  0  0  0
   35.6980   20.2990   33.1670 C   0  0  0  0  0  3  0  0  0  0  0  0
   40.6680   24.9380   34.6570 N   0  0  0  0  0  0  0  0  0  0  0  0
   41.6190   24.8690   34.2380 H   0  0  0  0  0  0  0  0  0  0  0  0
   40.4430   25.0910   35.6530 H   0  0  0  0  0  0  0  0  0  0  0  0
  1 25  1  0  0  0  0
  1  6  1  0  0  0  0
  2  1  2  0  0  0  0
  3  2  1  0  0  0  0
  3  4  2  0  0  0  0
  4  5  1  0  0  0  0
  5  6  2  0  0  0  0
  5 12  1  0  0  0  0
  7  2  1  0  0  0  0
  8  3  1  0  0  0  0
  9  4  1  0  0  0  0
 10 11  1  0  0  0  0
 11 17  1  0  0  0  0
 12 11  2  0  0  0  0
 12 13  1  0  0  0  0
 13 14  2  0  0  0  0
 14 15  1  0  0  0  0
 14 19  1  0  0  0  0
 15 16  1  0  0  0  0
 17 20  1  0  0  0  0
 17 15  2  0  0  0  0
 18 13  1  0  0  0  0
 21 37  1  0  0  0  0
 22 21  1  0  0  0  0
 22 27  1  0  0  0  0
 23 22  2  0  0  0  0
 24 25  2  0  0  0  0
 24 23  1  0  0  0  0
 25 26  1  0  0  0  0
 26 21  2  0  0  0  0
 29 28  1  0  0  0  0
 30 23  1  0  0  0  0
 30 29  2  0  0  0  0
 31 30  1  0  0  0  0
 32 31  1  0  0  0  0
 33 31  2  0  0  0  0
 33 35  1  0  0  0  0
 34 33  1  0  0  0  0
 35 36  2  0  0  0  0
 36 29  1  0  0  0  0
 37 39  1  0  0  0  0
 38 37  1  0  0  0  0
M  END
>  <minimizedAffinity>
-6.89870501

$$$$

 OpenBabel03262523173D

 39 42  0  0  0  0  0  0  0  0999 V2000
   37.2480   26.7790   33.8730 C   0  0  0  0  0  0  0  0  0  0  0  0
   37.9400   26.8080   35.0700 C   0  0  0  0  0  0  0  0  0  0  0  0
   38.5440   25.6180   35.3850 C   0  0  0  0  0  0  0  0  0  0  0  0
   38.4730   24.4960   34.5890 C   0  0  0  0  0  0  0  0  0  0  0  0
   37.7640   24.5630   33.4220 C   0  0  0  0  0  0  0  0  0  0  0  0
   37.1530   25.7120   33.0720 N   0  0  0  0  0  0  0  0  0  0  0  0
   37.9750   27.7080   35.6700 H   0  0  0  0  0  0  0  0  0  0  0  0
   39.1110   25.5730   36.3250 H   0  0  0  0  0  0  0  0  0  0  0  0
   38.9950   23.6170   34.9390 H   0  0  0  0  0  0  0  0  0  0  0  0
   39.8270   24.3410   31.2220 Cl  0  0  0  0  0  0  0  0  0  0  0  0
   38.5360   23.2230   31.5080 C   0  0  0  0  0  0  0  0  0  0  0  0
   37.6480   23.4180   32.5410 C   0  0  0  0  0  0  0  0  0  0  0  0
   36.6690   22.4390   32.6480 C   0  0  0  0  0  0  0  0  0  0  0  0
   36.5560   21.3570   31.8230 C   0  0  0  0  0  0  0  0  0  0  0  0
   37.4700   21.1960   30.7920 C   0  0  0  0  0  0  0  0  0  0  0  0
   37.3490   19.8230   29.7230 Cl  0  0  0  0  0  0  0  0  0  0  0  0
   38.4560   22.1370   30.6450 C   0  0  0  0  0  0  0  0  0  0  0  0
   35.9390   22.5320   33.4400 H   0  0  0  0  0  0  0  0  0  0  0  0
   35.7750   20.6270   31.9520 H   0  0  0  0  0  0  0  0  0  0  0  0
   39.1560   21.9870   29.8340 H   0  0  0  0  0  0  0  0  0  0  0  0
   35.8990   29.4690   31.7620 C   0  0  0  0  0  0  0  0  0  0  0  0
   35.2680   30.3020   32.6920 C   0  0  0  0  0  0  0  0  0  0  0  0
   35.3120   29.9380   34.0190 C   0  0  0  0  0  0  0  0  0  0  0  0
   35.9660   28.7980   34.3290 N   0  0  0  0  0  0  0  0  0  0  0  0
   36.5690   28.0030   33.4360 C   0  0  0  0  0  0  0  0  0  0  0  0
   36.5180   28.3680   32.1500 N   0  0  0  0  0  0  0  0  0  0  0  0
   34.7780   31.1770   32.3770 H   0  0  0  0  0  0  0  0  0  0  0  0
   36.6660   31.6800   35.8870 F   0  0  0  0  0  0  0  0  0  0  0  0
   35.3370   31.4950   36.0170 C   0  0  0  0  0  0  0  0  0  0  0  0
   34.7220   30.6670   35.1210 C   0  0  0  0  0  0  0  0  0  0  0  0
   33.3660   30.5480   35.3440 C   0  0  0  0  0  0  0  0  0  0  0  0
   32.7260   29.9250   34.7180 H   0  0  0  0  0  0  0  0  0  0  0  0
   32.7060   31.2000   36.3640 C   0  0  0  0  0  0  0  0  0  0  0  0
   31.6420   31.0830   36.5080 H   0  0  0  0  0  0  0  0  0  0  0  0
   33.3840   32.0220   37.2350 C   0  0  0  0  0  3  0  0  0  0  0  0
   34.7410   32.1740   37.0540 C   0  0  0  0  0  3  0  0  0  0  0  0
   35.9080   29.7630   30.3510 N   0  0  0  0  0  0  0  0  0  0  0  0
   36.5810   30.3650   29.8340 H   0  0  0  0  0  0  0  0  0  0  0  0
   35.1050   29.2520   29.9510 H   0  0  0  0  0  0  0  0  0  0  0  0
  1  2  1  0  0  0  0
  2  3  2  0  0  0  0
  2  7  1  0  0  0  0
  3  8  1  0  0  0  0
  4  9  1  0  0  0  0
  4  3  1  0  0  0  0
  5  4  2  0  0  0  0
  6  5  1  0  0  0  0
  6  1  2  0  0  0  0
 10 11  1  0  0  0  0
 11 12  1  0  0  0  0
 12 13  2  0  0  0  0
 12  5  1  0  0  0  0
 13 18  1  0  0  0  0
 14 19  1  0  0  0  0
 14 13  1  0  0  0  0
 15 14  2  0  0  0  0
 16 15  1  0  0  0  0
 17 15  1  0  0  0  0
 17 11  2  0  0  0  0
 20 17  1  0  0  0  0
 21 26  2  0  0  0  0
 21 22  1  0  0  0  0
 22 23  2  0  0  0  0
 23 24  1  0  0  0  0
 23 30  1  0  0  0  0
 25  1  1  0  0  0  0
 25 24  2  0  0  0  0
 26 25  1  0  0  0  0
 27 22  1  0  0  0  0
 28 29  1  0  0  0  0
 29 36  1  0  0  0  0
 30 31  1  0  0  0  0
 30 29  2  0  0  0  0
 31 33  2  0  0  0  0
 32 31  1  0  0  0  0
 33 34  1  0  0  0  0
 33 35  1  0  0  0  0
 36 35  2  0  0  0  0
 37 21  1  0  0  0  0
 38 37  1  0  0  0  0
 39 37  1  0  0  0  0
M  END
>  <minimizedAffinity>
-6.89689159

$$$$

 OpenBabel03262523173D

 39 42  0  0  0  0  0  0  0  0999 V2000
   37.2510   26.2680   33.5560 C   0  0  0  0  0  0  0  0  0  0  0  0
   37.9680   26.2540   34.7380 C   0  0  0  0  0  0  0  0  0  0  0  0
   38.4590   25.0170   35.0690 C   0  0  0  0  0  0  0  0  0  0  0  0
   38.2620   23.8910   34.3000 C   0  0  0  0  0  0  0  0  0  0  0  0
   37.5380   24.0020   33.1460 C   0  0  0  0  0  0  0  0  0  0  0  0
   37.0350   25.1980   32.7820 N   0  0  0  0  0  0  0  0  0  0  0  0
   38.1030   27.1580   35.3160 H   0  0  0  0  0  0  0  0  0  0  0  0
   39.0400   24.9370   35.9980 H   0  0  0  0  0  0  0  0  0  0  0  0
   38.7040   22.9730   34.6600 H   0  0  0  0  0  0  0  0  0  0  0  0
   39.6920   23.3330   31.1320 Cl  0  0  0  0  0  0  0  0  0  0  0  0
   38.2070   22.4660   31.3450 C   0  0  0  0  0  0  0  0  0  0  0  0
   37.2920   22.8560   32.2940 C   0  0  0  0  0  0  0  0  0  0  0  0
   36.1520   22.0640   32.3500 C   0  0  0  0  0  0  0  0  0  0  0  0
   35.9150   20.9820   31.5520 C   0  0  0  0  0  0  0  0  0  0  0  0
   36.8630   20.6210   30.6060 C   0  0  0  0  0  0  0  0  0  0  0  0
   36.5860   19.2430   29.5730 Cl  0  0  0  0  0  0  0  0  0  0  0  0
   38.0060   21.3720   30.5120 C   0  0  0  0  0  0  0  0  0  0  0  0
   35.3920   22.3160   33.0770 H   0  0  0  0  0  0  0  0  0  0  0  0
   35.0110   20.4020   31.6390 H   0  0  0  0  0  0  0  0  0  0  0  0
   38.7290   21.0690   29.7670 H   0  0  0  0  0  0  0  0  0  0  0  0
   36.1890   29.0630   31.4170 C   0  0  0  0  0  0  0  0  0  0  0  0
   35.5940   29.9390   32.3320 C   0  0  0  0  0  0  0  0  0  0  0  0
   35.5650   29.5680   33.6570 C   0  0  0  0  0  0  0  0  0  0  0  0
   36.1160   28.3790   33.9820 N   0  0  0  0  0  0  0  0  0  0  0  0
   36.6840   27.5420   33.1040 C   0  0  0  0  0  0  0  0  0  0  0  0
   36.7050   27.9150   31.8190 N   0  0  0  0  0  0  0  0  0  0  0  0
   35.1850   30.8520   32.0060 H   0  0  0  0  0  0  0  0  0  0  0  0
   32.8200   29.5520   34.5620 F   0  0  0  0  0  0  0  0  0  0  0  0
   33.7070   30.3490   35.1900 C   0  0  0  0  0  0  0  0  0  0  0  0
   34.9970   30.3370   34.7430 C   0  0  0  0  0  0  0  0  0  0  0  0
   35.8180   31.1870   35.4540 C   0  0  0  0  0  0  0  0  0  0  0  0
   36.8790   31.2980   35.2260 H   0  0  0  0  0  0  0  0  0  0  0  0
   35.3790   31.9630   36.5060 C   0  0  0  0  0  0  0  0  0  0  0  0
   36.0510   32.6160   37.0410 H   0  0  0  0  0  0  0  0  0  0  0  0
   34.0630   31.9280   36.9090 C   0  0  0  0  0  3  0  0  0  0  0  0
   33.2020   31.0950   36.2300 C   0  0  0  0  0  3  0  0  0  0  0  0
   36.2680   29.3600   30.0100 N   0  0  0  0  0  0  0  0  0  0  0  0
   37.0040   29.9090   29.5190 H   0  0  0  0  0  0  0  0  0  0  0  0
   35.4410   28.9150   29.5800 H   0  0  0  0  0  0  0  0  0  0  0  0
  1  2  1  0  0  0  0
  2  3  2  0  0  0  0
  2  7  1  0  0  0  0
  3  8  1  0  0  0  0
  4  9  1  0  0  0  0
  4  3  1  0  0  0  0
  5  4  2  0  0  0  0
  6  5  1  0  0  0  0
  6  1  2  0  0  0  0
 10 11  1  0  0  0  0
 11 12  1  0  0  0  0
 12 13  2  0  0  0  0
 12  5  1  0  0  0  0
 13 18  1  0  0  0  0
 14 19  1  0  0  0  0
 14 13  1  0  0  0  0
 15 14  2  0  0  0  0
 16 15  1  0  0  0  0
 17 15  1  0  0  0  0
 17 11  2  0  0  0  0
 20 17  1  0  0  0  0
 21 26  2  0  0  0  0
 21 22  1  0  0  0  0
 22 23  2  0  0  0  0
 23 24  1  0  0  0  0
 23 30  1  0  0  0  0
 25  1  1  0  0  0  0
 25 24  2  0  0  0  0
 26 25  1  0  0  0  0
 27 22  1  0  0  0  0
 28 29  1  0  0  0  0
 29 36  1  0  0  0  0
 30 29  2  0  0  0  0
 30 31  1  0  0  0  0
 31 33  2  0  0  0  0
 32 31  1  0  0  0  0
 33 35  1  0  0  0  0
 33 34  1  0  0  0  0
 36 35  2  0  0  0  0
 37 21  1  0  0  0  0
 38 37  1  0  0  0  0
 39 37  1  0  0  0  0
M  END
>  <minimizedAffinity>
-6.86352539

$$$$

 OpenBabel03262523173D

 39 42  0  0  0  0  0  0  0  0999 V2000
   36.2820   26.8080   32.0070 C   0  0  0  0  0  0  0  0  0  0  0  0
   35.5250   26.0200   31.1580 C   0  0  0  0  0  0  0  0  0  0  0  0
   35.8020   24.6810   31.2590 C   0  0  0  0  0  0  0  0  0  0  0  0
   36.7420   24.1620   32.1220 C   0  0  0  0  0  0  0  0  0  0  0  0
   37.4420   25.0200   32.9230 C   0  0  0  0  0  0  0  0  0  0  0  0
   37.2040   26.3450   32.8570 N   0  0  0  0  0  0  0  0  0  0  0  0
   34.7950   26.4620   30.4940 H   0  0  0  0  0  0  0  0  0  0  0  0
   35.2350   23.9980   30.6110 H   0  0  0  0  0  0  0  0  0  0  0  0
   36.8670   23.0890   32.1170 H   0  0  0  0  0  0  0  0  0  0  0  0
   40.2760   24.8590   31.8790 Cl  0  0  0  0  0  0  0  0  0  0  0  0
   39.7650   24.4280   33.4770 C   0  0  0  0  0  0  0  0  0  0  0  0
   38.4460   24.5390   33.8510 C   0  0  0  0  0  0  0  0  0  0  0  0
   38.1890   24.1600   35.1620 C   0  0  0  0  0  0  0  0  0  0  0  0
   39.1300   23.7090   36.0420 C   0  0  0  0  0  0  0  0  0  0  0  0
   40.4500   23.6100   35.6260 C   0  0  0  0  0  0  0  0  0  0  0  0
   41.6730   23.0350   36.7290 Cl  0  0  0  0  0  0  0  0  0  0  0  0
   40.7550   23.9730   34.3400 C   0  0  0  0  0  0  0  0  0  0  0  0
   37.1700   24.2250   35.5200 H   0  0  0  0  0  0  0  0  0  0  0  0
   38.8730   23.4280   37.0490 H   0  0  0  0  0  0  0  0  0  0  0  0
   41.7910   23.8860   34.0410 H   0  0  0  0  0  0  0  0  0  0  0  0
   36.0800   30.3000   30.8760 C   0  0  0  0  0  0  0  0  0  0  0  0
   35.6200   30.9650   32.0170 C   0  0  0  0  0  0  0  0  0  0  0  0
   35.3880   30.2190   33.1510 C   0  0  0  0  0  0  0  0  0  0  0  0
   35.6230   28.8910   33.0800 N   0  0  0  0  0  0  0  0  0  0  0  0
   36.0630   28.2570   31.9850 C   0  0  0  0  0  0  0  0  0  0  0  0
   36.2840   28.9940   30.8910 N   0  0  0  0  0  0  0  0  0  0  0  0
   35.4600   32.0050   32.0000 H   0  0  0  0  0  0  0  0  0  0  0  0
   32.7490   29.9000   34.2860 F   0  0  0  0  0  0  0  0  0  0  0  0
   33.6760   30.5910   34.9800 C   0  0  0  0  0  0  0  0  0  0  0  0
   34.9150   30.7260   34.4200 C   0  0  0  0  0  0  0  0  0  0  0  0
   35.7830   31.4490   35.2120 C   0  0  0  0  0  0  0  0  0  0  0  0
   36.8130   31.6500   34.9130 H   0  0  0  0  0  0  0  0  0  0  0  0
   35.4340   31.9750   36.4370 C   0  0  0  0  0  0  0  0  0  0  0  0
   36.1410   32.5350   37.0300 H   0  0  0  0  0  0  0  0  0  0  0  0
   34.1660   31.8020   36.9460 C   0  0  0  0  0  3  0  0  0  0  0  0
   33.2610   31.0880   36.1940 C   0  0  0  0  0  3  0  0  0  0  0  0
   36.3510   30.9910   29.6410 N   0  0  0  0  0  0  0  0  0  0  0  0
   37.2330   31.4690   29.3640 H   0  0  0  0  0  0  0  0  0  0  0  0
   35.4870   30.9190   29.0810 H   0  0  0  0  0  0  0  0  0  0  0  0
  1  6  1  0  0  0  0
  2  3  1  0  0  0  0
  2  1  2  0  0  0  0
  3  4  2  0  0  0  0
  4  5  1  0  0  0  0
  5 12  1  0  0  0  0
  6  5  2  0  0  0  0
  7  2  1  0  0  0  0
  8  3  1  0  0  0  0
  9  4  1  0  0  0  0
 10 11  1  0  0  0  0
 11 12  2  0  0  0  0
 11 17  1  0  0  0  0
 12 13  1  0  0  0  0
 13 18  1  0  0  0  0
 13 14  2  0  0  0  0
 14 19  1  0  0  0  0
 15 14  1  0  0  0  0
 15 16  1  0  0  0  0
 17 15  2  0  0  0  0
 20 17  1  0  0  0  0
 21 26  2  0  0  0  0
 21 22  1  0  0  0  0
 22 23  2  0  0  0  0
 23 30  1  0  0  0  0
 24 23  1  0  0  0  0
 25  1  1  0  0  0  0
 25 24  2  0  0  0  0
 26 25  1  0  0  0  0
 27 22  1  0  0  0  0
 28 29  1  0  0  0  0
 29 36  1  0  0  0  0
 30 29  2  0  0  0  0
 30 31  1  0  0  0  0
 31 33  2  0  0  0  0
 32 31  1  0  0  0  0
 33 35  1  0  0  0  0
 33 34  1  0  0  0  0
 36 35  2  0  0  0  0
 37 21  1  0  0  0  0
 38 37  1  0  0  0  0
 39 37  1  0  0  0  0
M  END
>  <minimizedAffinity>
-6.79964447

$$$$

 OpenBabel03262523173D

 39 42  0  0  0  0  0  0  0  0999 V2000
   36.6650   27.0730   32.1460 C   0  0  0  0  0  0  0  0  0  0  0  0
   37.0930   27.5930   30.9370 C   0  0  0  0  0  0  0  0  0  0  0  0
   36.8850   28.9420   30.8150 C   0  0  0  0  0  0  0  0  0  0  0  0
   36.3060   29.7140   31.7990 C   0  0  0  0  0  0  0  0  0  0  0  0
   35.9130   29.1100   32.9610 C   0  0  0  0  0  0  0  0  0  0  0  0
   36.0980   27.7860   33.1240 N   0  0  0  0  0  0  0  0  0  0  0  0
   37.5440   26.9570   30.1880 H   0  0  0  0  0  0  0  0  0  0  0  0
   37.2030   29.4190   29.8780 H   0  0  0  0  0  0  0  0  0  0  0  0
   36.2000   30.7690   31.5900 H   0  0  0  0  0  0  0  0  0  0  0  0
   32.8900   29.1110   33.0430 Cl  0  0  0  0  0  0  0  0  0  0  0  0
   33.9280   29.9290   34.1620 C   0  0  0  0  0  0  0  0  0  0  0  0
   35.2960   29.8640   34.0340 C   0  0  0  0  0  0  0  0  0  0  0  0
   35.9970   30.5680   35.0050 C   0  0  0  0  0  0  0  0  0  0  0  0
   35.4210   31.2780   36.0200 C   0  0  0  0  0  0  0  0  0  0  0  0
   34.0380   31.3200   36.1140 C   0  0  0  0  0  0  0  0  0  0  0  0
   33.2770   32.2200   37.4000 Cl  0  0  0  0  0  0  0  0  0  0  0  0
   33.3020   30.6410   35.1780 C   0  0  0  0  0  0  0  0  0  0  0  0
   37.0770   30.5570   34.9620 H   0  0  0  0  0  0  0  0  0  0  0  0
   36.0150   31.8060   36.7470 H   0  0  0  0  0  0  0  0  0  0  0  0
   32.2260   30.6890   35.2750 H   0  0  0  0  0  0  0  0  0  0  0  0
   36.3470   23.4180   31.9060 C   0  0  0  0  0  0  0  0  0  0  0  0
   37.2430   22.9680   32.8810 C   0  0  0  0  0  0  0  0  0  0  0  0
   37.9380   23.9110   33.6050 C   0  0  0  0  0  0  0  0  0  0  0  0
   37.7030   25.2100   33.3200 N   0  0  0  0  0  0  0  0  0  0  0  0
   36.8460   25.6380   32.3850 C   0  0  0  0  0  0  0  0  0  0  0  0
   36.1770   24.7110   31.6890 N   0  0  0  0  0  0  0  0  0  0  0  0
   37.3740   21.9380   33.0500 H   0  0  0  0  0  0  0  0  0  0  0  0
   37.3990   22.9150   36.2640 F   0  0  0  0  0  0  0  0  0  0  0  0
   38.6750   23.1710   35.9120 C   0  0  0  0  0  0  0  0  0  0  0  0
   38.9010   23.6400   34.6500 C   0  0  0  0  0  0  0  0  0  0  0  0
   40.2380   23.8690   34.3950 C   0  0  0  0  0  0  0  0  0  0  0  0
   40.5910   24.2450   33.4340 H   0  0  0  0  0  0  0  0  0  0  0  0
   41.2350   23.6430   35.3190 C   0  0  0  0  0  0  0  0  0  0  0  0
   42.2720   23.8330   35.0840 H   0  0  0  0  0  0  0  0  0  0  0  0
   40.9400   23.1680   36.5770 C   0  0  0  0  0  3  0  0  0  0  0  0
   39.6200   22.9240   36.8820 C   0  0  0  0  0  3  0  0  0  0  0  0
   35.5740   22.5110   31.0960 N   0  0  0  0  0  0  0  0  0  0  0  0
   34.6540   22.0820   31.3280 H   0  0  0  0  0  0  0  0  0  0  0  0
   36.1200   22.3690   30.2310 H   0  0  0  0  0  0  0  0  0  0  0  0
  1 25  1  0  0  0  0
  1  6  1  0  0  0  0
  2  1  2  0  0  0  0
  3  2  1  0  0  0  0
  3  4  2  0  0  0  0
  4  5  1  0  0  0  0
  5  6  2  0  0  0  0
  5 12  1  0  0  0  0
  7  2  1  0  0  0  0
  8  3  1  0  0  0  0
  9  4  1  0  0  0  0
 10 11  1  0  0  0  0
 11 17  1  0  0  0  0
 12 11  2  0  0  0  0
 12 13  1  0  0  0  0
 13 14  2  0  0  0  0
 14 15  1  0  0  0  0
 14 19  1  0  0  0  0
 15 16  1  0  0  0  0
 17 20  1  0  0  0  0
 17 15  2  0  0  0  0
 18 13  1  0  0  0  0
 21 22  1  0  0  0  0
 22 27  1  0  0  0  0
 22 23  2  0  0  0  0
 23 30  1  0  0  0  0
 24 23  1  0  0  0  0
 25 24  2  0  0  0  0
 26 21  2  0  0  0  0
 26 25  1  0  0  0  0
 29 28  1  0  0  0  0
 29 36  1  0  0  0  0
 30 29  2  0  0  0  0
 31 30  1  0  0  0  0
 31 33  2  0  0  0  0
 32 31  1  0  0  0  0
 33 35  1  0  0  0  0
 34 33  1  0  0  0  0
 35 36  2  0  0  0  0
 37 38  1  0  0  0  0
 37 21  1  0  0  0  0
 39 37  1  0  0  0  0
M  END
>  <minimizedAffinity>
-6.63531399

$$$$

 OpenBabel03262523173D

 39 42  0  0  0  0  0  0  0  0999 V2000
   36.0910   28.8980   31.9920 C   0  0  0  0  0  0  0  0  0  0  0  0
   36.9000   29.0930   30.8870 C   0  0  0  0  0  0  0  0  0  0  0  0
   38.0600   28.3640   30.9200 C   0  0  0  0  0  0  0  0  0  0  0  0
   38.3950   27.5150   31.9530 C   0  0  0  0  0  0  0  0  0  0  0  0
   37.5310   27.3880   33.0050 C   0  0  0  0  0  0  0  0  0  0  0  0
   36.3790   28.0860   33.0140 N   0  0  0  0  0  0  0  0  0  0  0  0
   36.6050   29.7670   30.0940 H   0  0  0  0  0  0  0  0  0  0  0  0
   38.7490   28.4720   30.0710 H   0  0  0  0  0  0  0  0  0  0  0  0
   39.3340   26.9880   31.8650 H   0  0  0  0  0  0  0  0  0  0  0  0
   37.4410   24.4160   32.4530 Cl  0  0  0  0  0  0  0  0  0  0  0  0
   37.8110   25.1470   33.9800 C   0  0  0  0  0  0  0  0  0  0  0  0
   37.8240   26.5140   34.1230 C   0  0  0  0  0  0  0  0  0  0  0  0
   38.1400   26.9530   35.4030 C   0  0  0  0  0  0  0  0  0  0  0  0
   38.4190   26.1360   36.4600 C   0  0  0  0  0  0  0  0  0  0  0  0
   38.3940   24.7610   36.2750 C   0  0  0  0  0  0  0  0  0  0  0  0
   38.7470   23.6930   37.6080 Cl  0  0  0  0  0  0  0  0  0  0  0  0
   38.0880   24.2790   35.0290 C   0  0  0  0  0  0  0  0  0  0  0  0
   38.1690   28.0190   35.5830 H   0  0  0  0  0  0  0  0  0  0  0  0
   38.6580   26.5310   37.4330 H   0  0  0  0  0  0  0  0  0  0  0  0
   38.0760   23.2040   34.9110 H   0  0  0  0  0  0  0  0  0  0  0  0
   33.3610   31.2460   31.2490 C   0  0  0  0  0  0  0  0  0  0  0  0
   32.4160   30.9380   32.2320 C   0  0  0  0  0  0  0  0  0  0  0  0
   32.7200   29.9400   33.1310 C   0  0  0  0  0  0  0  0  0  0  0  0
   33.9160   29.3290   32.9990 N   0  0  0  0  0  0  0  0  0  0  0  0
   34.8200   29.6260   32.0560 C   0  0  0  0  0  0  0  0  0  0  0  0
   34.5110   30.5970   31.1890 N   0  0  0  0  0  0  0  0  0  0  0  0
   31.5030   31.4580   32.2750 H   0  0  0  0  0  0  0  0  0  0  0  0
   31.1060   27.5440   33.1940 F   0  0  0  0  0  0  0  0  0  0  0  0
   31.1030   28.3580   34.2680 C   0  0  0  0  0  0  0  0  0  0  0  0
   31.8740   29.4830   34.2120 C   0  0  0  0  0  0  0  0  0  0  0  0
   31.7970   30.2430   35.3610 C   0  0  0  0  0  0  0  0  0  0  0  0
   32.3520   31.1740   35.4810 H   0  0  0  0  0  0  0  0  0  0  0  0
   31.0230   29.8970   36.4480 C   0  0  0  0  0  0  0  0  0  0  0  0
   30.9880   30.5170   37.3320 H   0  0  0  0  0  0  0  0  0  0  0  0
   30.2670   28.7470   36.4420 C   0  0  0  0  0  3  0  0  0  0  0  0
   30.3090   27.9530   35.3170 C   0  0  0  0  0  3  0  0  0  0  0  0
   33.1370   32.2730   30.2630 N   0  0  0  0  0  0  0  0  0  0  0  0
   33.3280   33.2920   30.3550 H   0  0  0  0  0  0  0  0  0  0  0  0
   32.7440   31.7910   29.4380 H   0  0  0  0  0  0  0  0  0  0  0  0
  1 25  1  0  0  0  0
  1  6  1  0  0  0  0
  2  3  1  0  0  0  0
  2  1  2  0  0  0  0
  3  4  2  0  0  0  0
  4  5  1  0  0  0  0
  5  6  2  0  0  0  0
  5 12  1  0  0  0  0
  7  2  1  0  0  0  0
  8  3  1  0  0  0  0
  9  4  1  0  0  0  0
 10 11  1  0  0  0  0
 11 12  2  0  0  0  0
 11 17  1  0  0  0  0
 12 13  1  0  0  0  0
 13 18  1  0  0  0  0
 13 14  2  0  0  0  0
 14 19  1  0  0  0  0
 15 14  1  0  0  0  0
 15 16  1  0  0  0  0
 17 15  2  0  0  0  0
 20 17  1  0  0  0  0
 21 22  1  0  0  0  0
 22 27  1  0  0  0  0
 22 23  2  0  0  0  0
 23 30  1  0  0  0  0
 24 23  1  0  0  0  0
 25 24  2  0  0  0  0
 26 21  2  0  0  0  0
 26 25  1  0  0  0  0
 28 29  1  0  0  0  0
 29 36  1  0  0  0  0
 30 29  2  0  0  0  0
 30 31  1  0  0  0  0
 31 32  1  0  0  0  0
 31 33  2  0  0  0  0
 33 34  1  0  0  0  0
 35 33  1  0  0  0  0
 36 35  2  0  0  0  0
 37 38  1  0  0  0  0
 37 21  1  0  0  0  0
 39 37  1  0  0  0  0
M  END
>  <minimizedAffinity>
-6.55431652

$$$$

 OpenBabel03262523173D

 39 42  0  0  0  0  0  0  0  0999 V2000
   37.4090   25.8260   31.9780 C   0  0  0  0  0  0  0  0  0  0  0  0
   38.2320   26.0550   30.8900 C   0  0  0  0  0  0  0  0  0  0  0  0
   38.2010   27.3500   30.4410 C   0  0  0  0  0  0  0  0  0  0  0  0
   37.4280   28.3360   31.0160 C   0  0  0  0  0  0  0  0  0  0  0  0
   36.6450   28.0130   32.0890 C   0  0  0  0  0  0  0  0  0  0  0  0
   36.6420   26.7530   32.5630 N   0  0  0  0  0  0  0  0  0  0  0  0
   38.8250   25.2570   30.4650 H   0  0  0  0  0  0  0  0  0  0  0  0
   38.8330   27.6000   29.5780 H   0  0  0  0  0  0  0  0  0  0  0  0
   37.4930   29.3220   30.5780 H   0  0  0  0  0  0  0  0  0  0  0  0
   37.0050   28.3370   35.0740 Cl  0  0  0  0  0  0  0  0  0  0  0  0
   35.8910   29.2290   34.0910 C   0  0  0  0  0  0  0  0  0  0  0  0
   35.8070   29.0020   32.7370 C   0  0  0  0  0  0  0  0  0  0  0  0
   34.8720   29.7930   32.0810 C   0  0  0  0  0  0  0  0  0  0  0  0
   34.0810   30.7280   32.6850 C   0  0  0  0  0  0  0  0  0  0  0  0
   34.1960   30.9260   34.0540 C   0  0  0  0  0  0  0  0  0  0  0  0
   33.1970   32.1130   34.8510 Cl  0  0  0  0  0  0  0  0  0  0  0  0
   35.1050   30.1690   34.7460 C   0  0  0  0  0  0  0  0  0  0  0  0
   34.7570   29.6660   31.0130 H   0  0  0  0  0  0  0  0  0  0  0  0
   33.3720   31.3140   32.1260 H   0  0  0  0  0  0  0  0  0  0  0  0
   35.1750   30.3430   35.8110 H   0  0  0  0  0  0  0  0  0  0  0  0
   36.7100   22.2470   32.4420 C   0  0  0  0  0  0  0  0  0  0  0  0
   37.3450   21.9660   33.6570 C   0  0  0  0  0  0  0  0  0  0  0  0
   37.9970   22.9950   34.2990 C   0  0  0  0  0  0  0  0  0  0  0  0
   37.9760   24.2080   33.7060 N   0  0  0  0  0  0  0  0  0  0  0  0
   37.3690   24.4740   32.5430 C   0  0  0  0  0  0  0  0  0  0  0  0
   36.7390   23.4640   31.9300 N   0  0  0  0  0  0  0  0  0  0  0  0
   37.3180   20.9950   34.0600 H   0  0  0  0  0  0  0  0  0  0  0  0
   37.1680   24.0550   36.8560 F   0  0  0  0  0  0  0  0  0  0  0  0
   38.3380   23.3900   36.7770 C   0  0  0  0  0  0  0  0  0  0  0  0
   38.7050   22.8990   35.5560 C   0  0  0  0  0  0  0  0  0  0  0  0
   39.9150   22.2380   35.5870 C   0  0  0  0  0  0  0  0  0  0  0  0
   40.3540   21.7850   34.6970 H   0  0  0  0  0  0  0  0  0  0  0  0
   40.6690   22.0890   36.7320 C   0  0  0  0  0  0  0  0  0  0  0  0
   41.6120   21.5640   36.7180 H   0  0  0  0  0  0  0  0  0  0  0  0
   40.2420   22.6080   37.9330 C   0  0  0  0  0  3  0  0  0  0  0  0
   39.0390   23.2780   37.9550 C   0  0  0  0  0  3  0  0  0  0  0  0
   36.0030   21.2380   31.6940 N   0  0  0  0  0  0  0  0  0  0  0  0
   35.0110   20.9430   31.8100 H   0  0  0  0  0  0  0  0  0  0  0  0
   36.6820   20.8630   31.0130 H   0  0  0  0  0  0  0  0  0  0  0  0
  1 25  1  0  0  0  0
  1  6  1  0  0  0  0
  2  1  2  0  0  0  0
  3  2  1  0  0  0  0
  3  4  2  0  0  0  0
  4  5  1  0  0  0  0
  5  6  2  0  0  0  0
  5 12  1  0  0  0  0
  7  2  1  0  0  0  0
  8  3  1  0  0  0  0
  9  4  1  0  0  0  0
 11 17  1  0  0  0  0
 11 10  1  0  0  0  0
 12 11  2  0  0  0  0
 13 14  2  0  0  0  0
 13 12  1  0  0  0  0
 14 15  1  0  0  0  0
 15 17  2  0  0  0  0
 15 16  1  0  0  0  0
 17 20  1  0  0  0  0
 18 13  1  0  0  0  0
 19 14  1  0  0  0  0
 21 22  1  0  0  0  0
 22 27  1  0  0  0  0
 22 23  2  0  0  0  0
 23 30  1  0  0  0  0
 24 23  1  0  0  0  0
 25 24  2  0  0  0  0
 26 21  2  0  0  0  0
 26 25  1  0  0  0  0
 29 28  1  0  0  0  0
 29 36  1  0  0  0  0
 30 31  1  0  0  0  0
 30 29  2  0  0  0  0
 31 33  2  0  0  0  0
 32 31  1  0  0  0  0
 33 35  1  0  0  0  0
 34 33  1  0  0  0  0
 35 36  2  0  0  0  0
 37 38  1  0  0  0  0
 37 21  1  0  0  0  0
 39 37  1  0  0  0  0
M  END
>  <minimizedAffinity>
-6.51981831

$$$$
