
 OpenBabel03272510273D

 45 49  0  0  1  0  0  0  0  0999 V2000
   39.5100   33.5860   43.4910 O   0  0  0  0  0  0  0  0  0  0  0  0
   36.1500   30.2040   46.9930 C   0  0  0  0  0  0  0  0  0  0  0  0
   37.0100   30.6880   47.9490 C   0  0  0  0  0  0  0  0  0  0  0  0
   38.0460   31.5710   47.6000 C   0  0  0  0  0  0  0  0  0  0  0  0
   38.1560   31.9240   46.2750 C   0  0  0  0  0  0  0  0  0  0  0  0
   39.0680   32.7690   45.7040 N   0  0  0  0  0  0  0  0  0  0  0  0
   38.7680   32.8040   44.3920 C   0  0  0  0  0  0  0  0  0  0  0  0
   37.7330   32.0340   44.1290 N   0  0  0  0  0  0  0  0  0  0  0  0
   37.3110   31.4580   45.2870 C   0  0  0  0  0  0  0  0  0  0  0  0
   36.2890   30.5800   45.6630 C   0  0  0  0  0  0  0  0  0  0  0  0
   35.3350   29.5240   47.2020 H   0  0  0  0  0  0  0  0  0  0  0  0
   38.7410   31.9680   48.3310 H   0  0  0  0  0  0  0  0  0  0  0  0
   39.8410   33.2820   46.1910 H   0  0  0  0  0  0  0  0  0  0  0  0
   35.6280   30.2170   44.8900 H   0  0  0  0  0  0  0  0  0  0  0  0
   37.3860   30.0660   51.6430 C   0  0  0  0  0  0  0  0  0  0  0  0
   37.7130   30.5040   50.3710 C   0  0  0  0  0  0  0  0  0  0  0  0
   36.8400   30.2940   49.3350 C   0  0  0  0  0  0  0  0  0  0  0  0
   35.6600   29.6430   49.6340 N   0  0  0  0  0  0  0  0  0  0  0  0
   35.3410   29.2190   50.8650 C   0  0  0  0  0  0  0  0  0  0  0  0
   36.1920   29.4280   51.8550 N   0  0  0  0  0  0  0  0  0  0  0  0
   38.0940   30.2450   52.4410 H   0  0  0  0  0  0  0  0  0  0  0  0
   38.6290   31.0150   50.1120 H   0  0  0  0  0  0  0  0  0  0  0  0
   34.4050   28.7240   51.0020 H   0  0  0  0  0  0  0  0  0  0  0  0
   39.7850   31.7170   42.2160 N   0  0  0  0  0  0  0  0  0  0  0  0
   39.4830   33.1640   42.1310 C   0  0  1  0  0  0  0  0  0  0  0  0
   38.1770   33.3390   41.5210 C   0  0  0  0  0  0  0  0  0  0  0  0
   38.2430   32.8790   40.1930 O   0  0  0  0  0  0  0  0  0  0  0  0
   38.6670   31.5940   40.0410 C   0  0  0  0  0  0  0  0  0  0  0  0
   39.9020   31.2670   40.8480 C   0  0  2  0  0  0  0  0  0  0  0  0
   40.7540   31.7550   42.6300 H   0  0  0  0  0  0  0  0  0  0  0  0
   40.2530   33.6760   41.5300 H   0  0  0  0  0  0  0  0  0  0  0  0
   38.0220   34.4540   41.3860 H   0  0  0  0  0  0  0  0  0  0  0  0
   37.2640   32.9560   41.8840 H   0  0  0  0  0  0  0  0  0  0  0  0
   37.8690   30.9030   40.3980 H   0  0  0  0  0  0  0  0  0  0  0  0
   38.8990   31.4670   38.9670 H   0  0  0  0  0  0  0  0  0  0  0  0
   40.7750   31.7540   40.3370 H   0  0  0  0  0  0  0  0  0  0  0  0
   41.6780   30.0630   38.9970 F   0  0  0  0  0  0  0  0  0  0  0  0
   40.9470   29.2780   39.8130 C   0  0  0  0  0  0  0  0  0  0  0  0
   40.0510   29.7910   40.7520 C   0  0  0  0  0  0  0  0  0  0  0  0
   39.3470   28.8980   41.5430 C   0  0  0  0  0  0  0  0  0  0  0  0
   38.6420   29.2960   42.2810 H   0  0  0  0  0  0  0  0  0  0  0  0
   39.4910   27.5280   41.4490 C   0  0  0  0  0  0  0  0  0  0  0  0
   38.9410   26.8350   42.0670 H   0  0  0  0  0  0  0  0  0  0  0  0
   40.3950   27.0470   40.5000 C   0  0  0  0  0  3  0  0  0  0  0  0
   41.1030   27.9060   39.7040 C   0  0  0  0  0  3  0  0  0  0  0  0
  1  7  1  0  0  0  0
  2 11  1  0  0  0  0
  2  3  1  0  0  0  0
  3 17  1  0  0  0  0
  4  3  2  0  0  0  0
  4 12  1  0  0  0  0
  5  4  1  0  0  0  0
  6 13  1  0  0  0  0
  6  5  1  0  0  0  0
  7  6  1  0  0  0  0
  8  7  2  0  0  0  0
  8  9  1  0  0  0  0
  9 10  1  0  0  0  0
  9  5  2  0  0  0  0
 10  2  2  0  0  0  0
 14 10  1  0  0  0  0
 15 20  1  0  0  0  0
 15 21  1  0  0  0  0
 16 15  2  0  0  0  0
 17 18  2  0  0  0  0
 17 16  1  0  0  0  0
 18 19  1  0  0  0  0
 19 23  1  0  0  0  0
 19 20  2  0  0  0  0
 22 16  1  0  0  0  0
 24 30  1  0  0  0  0
 25 31  1  6  0  0  0
 25 24  1  0  0  0  0
 25  1  1  0  0  0  0
 26 33  1  0  0  0  0
 26 25  1  0  0  0  0
 27 26  1  0  0  0  0
 28 27  1  0  0  0  0
 28 34  1  0  0  0  0
 28 29  1  0  0  0  0
 29 36  1  6  0  0  0
 29 24  1  0  0  0  0
 32 26  1  0  0  0  0
 35 28  1  0  0  0  0
 37 38  1  0  0  0  0
 38 39  1  0  0  0  0
 39 29  1  0  0  0  0
 39 40  2  0  0  0  0
 40 41  1  0  0  0  0
 42 40  1  0  0  0  0
 42 43  1  0  0  0  0
 44 42  2  0  0  0  0
 45 38  2  0  0  0  0
 45 44  1  0  0  0  0
M  END
>  <minimizedAffinity>
-6.09469891

>  <minimizedRMSD>
0.626040757

$$$$
