
 OpenBabel03272510273D

 45 49  0  0  1  0  0  0  0  0999 V2000
   39.4920   33.5790   43.4950 O   0  0  0  0  0  0  0  0  0  0  0  0
   36.1360   30.2020   47.0060 C   0  0  0  0  0  0  0  0  0  0  0  0
   37.0000   30.6850   47.9590 C   0  0  0  0  0  0  0  0  0  0  0  0
   38.0370   31.5660   47.6070 C   0  0  0  0  0  0  0  0  0  0  0  0
   38.1440   31.9190   46.2820 C   0  0  0  0  0  0  0  0  0  0  0  0
   39.0550   32.7620   45.7080 N   0  0  0  0  0  0  0  0  0  0  0  0
   38.7510   32.7980   44.3970 C   0  0  0  0  0  0  0  0  0  0  0  0
   37.7140   32.0300   44.1370 N   0  0  0  0  0  0  0  0  0  0  0  0
   37.2950   31.4540   45.2960 C   0  0  0  0  0  0  0  0  0  0  0  0
   36.2730   30.5790   45.6750 C   0  0  0  0  0  0  0  0  0  0  0  0
   35.3210   29.5230   47.2160 H   0  0  0  0  0  0  0  0  0  0  0  0
   38.7340   31.9620   48.3360 H   0  0  0  0  0  0  0  0  0  0  0  0
   39.8300   33.2750   46.1940 H   0  0  0  0  0  0  0  0  0  0  0  0
   35.6090   30.2160   44.9040 H   0  0  0  0  0  0  0  0  0  0  0  0
   37.3850   30.0620   51.6520 C   0  0  0  0  0  0  0  0  0  0  0  0
   37.7090   30.4990   50.3790 C   0  0  0  0  0  0  0  0  0  0  0  0
   36.8340   30.2910   49.3460 C   0  0  0  0  0  0  0  0  0  0  0  0
   35.6540   29.6420   49.6480 N   0  0  0  0  0  0  0  0  0  0  0  0
   35.3370   29.2180   50.8800 C   0  0  0  0  0  0  0  0  0  0  0  0
   36.1910   29.4250   51.8670 N   0  0  0  0  0  0  0  0  0  0  0  0
   38.0960   30.2390   52.4480 H   0  0  0  0  0  0  0  0  0  0  0  0
   38.6260   31.0090   50.1170 H   0  0  0  0  0  0  0  0  0  0  0  0
   34.4010   28.7250   51.0190 H   0  0  0  0  0  0  0  0  0  0  0  0
   39.7670   31.6960   42.2400 N   0  0  0  0  0  0  0  0  0  0  0  0
   39.4790   33.1450   42.1380 C   0  0  1  0  0  0  0  0  0  0  0  0
   38.1820   33.3260   41.5100 C   0  0  0  0  0  0  0  0  0  0  0  0
   38.2600   32.8530   40.1870 O   0  0  0  0  0  0  0  0  0  0  0  0
   38.6750   31.5630   40.0520 C   0  0  0  0  0  0  0  0  0  0  0  0
   39.8970   31.2330   40.8780 C   0  0  2  0  0  0  0  0  0  0  0  0
   40.7310   31.7290   42.6660 H   0  0  0  0  0  0  0  0  0  0  0  0
   40.2610   33.6450   41.5420 H   0  0  0  0  0  0  0  0  0  0  0  0
   38.0380   34.4410   41.3630 H   0  0  0  0  0  0  0  0  0  0  0  0
   37.2610   32.9540   41.8650 H   0  0  0  0  0  0  0  0  0  0  0  0
   37.8670   30.8820   40.4060 H   0  0  0  0  0  0  0  0  0  0  0  0
   38.9190   31.4240   38.9830 H   0  0  0  0  0  0  0  0  0  0  0  0
   40.7810   31.7080   40.3740 H   0  0  0  0  0  0  0  0  0  0  0  0
   41.3810   29.9810   38.8140 F   0  0  0  0  0  0  0  0  0  0  0  0
   40.7830   29.2180   39.7490 C   0  0  0  0  0  0  0  0  0  0  0  0
   40.0340   29.7550   40.7970 C   0  0  0  0  0  0  0  0  0  0  0  0
   39.4590   28.8820   41.7070 C   0  0  0  0  0  0  0  0  0  0  0  0
   38.8710   29.2980   42.5310 H   0  0  0  0  0  0  0  0  0  0  0  0
   39.5890   27.5090   41.6250 C   0  0  0  0  0  0  0  0  0  0  0  0
   39.1390   26.8330   42.3360 H   0  0  0  0  0  0  0  0  0  0  0  0
   40.3440   27.0050   40.5640 C   0  0  0  0  0  3  0  0  0  0  0  0
   40.9240   27.8440   39.6520 C   0  0  0  0  0  3  0  0  0  0  0  0
  1  7  1  0  0  0  0
  2 11  1  0  0  0  0
  2  3  1  0  0  0  0
  3 17  1  0  0  0  0
  4  3  2  0  0  0  0
  4 12  1  0  0  0  0
  5  4  1  0  0  0  0
  6 13  1  0  0  0  0
  6  5  1  0  0  0  0
  7  6  1  0  0  0  0
  8  7  2  0  0  0  0
  8  9  1  0  0  0  0
  9 10  1  0  0  0  0
  9  5  2  0  0  0  0
 10  2  2  0  0  0  0
 14 10  1  0  0  0  0
 15 20  1  0  0  0  0
 15 21  1  0  0  0  0
 16 15  2  0  0  0  0
 17 18  2  0  0  0  0
 17 16  1  0  0  0  0
 18 19  1  0  0  0  0
 19 23  1  0  0  0  0
 19 20  2  0  0  0  0
 22 16  1  0  0  0  0
 24 30  1  0  0  0  0
 25 31  1  6  0  0  0
 25 24  1  0  0  0  0
 25  1  1  0  0  0  0
 26 33  1  0  0  0  0
 26 25  1  0  0  0  0
 27 26  1  0  0  0  0
 28 27  1  0  0  0  0
 28 34  1  0  0  0  0
 28 29  1  0  0  0  0
 29 36  1  6  0  0  0
 29 24  1  0  0  0  0
 32 26  1  0  0  0  0
 35 28  1  0  0  0  0
 37 38  1  0  0  0  0
 38 39  1  0  0  0  0
 39 29  1  0  0  0  0
 39 40  2  0  0  0  0
 40 41  1  0  0  0  0
 42 40  1  0  0  0  0
 42 43  1  0  0  0  0
 44 42  2  0  0  0  0
 45 38  2  0  0  0  0
 45 44  1  0  0  0  0
M  END
>  <minimizedAffinity>
-6.09288025

>  <minimizedRMSD>
0.822752297

$$$$
