
 OpenBabel03272507353D

 36 39  0  0  1  0  0  0  0  0999 V2000
   37.7640   25.6060   34.5350 C   0  0  0  0  0  0  0  0  0  0  0  0
   38.1540   26.6070   35.3970 C   0  0  0  0  0  0  0  0  0  0  0  0
   37.6110   27.8060   34.9170 C   0  0  0  0  0  0  0  0  0  0  0  0
   36.9170   27.4520   33.7810 C   0  0  0  0  0  0  0  0  0  0  0  0
   37.0330   26.1560   33.5930 O   0  0  0  0  0  0  0  0  0  0  0  0
   38.7570   26.5620   36.2870 H   0  0  0  0  0  0  0  0  0  0  0  0
   37.6790   28.8160   35.3010 H   0  0  0  0  0  0  0  0  0  0  0  0
   38.1520   24.2190   34.7320 C   0  0  0  0  0  0  0  0  0  0  0  0
   38.2290   23.4660   33.7500 O   0  0  0  0  0  0  0  0  0  0  0  0
   38.4280   23.8050   36.0800 C   0  0  0  0  0  0  0  0  0  0  0  0
   39.7030   23.3310   36.3480 C   0  0  0  0  0  0  0  0  0  0  0  0
   40.0020   22.9190   37.6510 C   0  0  0  0  0  0  0  0  0  0  0  0
   39.0100   23.0060   38.5970 N   0  0  0  0  0  0  0  0  0  0  0  0
   37.7940   23.4670   38.3030 C   0  0  0  0  0  0  0  0  0  0  0  0
   37.4950   23.8660   37.0570 N   0  0  0  0  0  0  0  0  0  0  0  0
   40.4840   23.2620   35.6050 H   0  0  0  0  0  0  0  0  0  0  0  0
   41.0060   22.5470   37.8550 H   0  0  0  0  0  0  0  0  0  0  0  0
   37.1220   23.4760   39.1510 H   0  0  0  0  0  0  0  0  0  0  0  0
   36.1660   28.3680   32.9210 C   0  0  0  0  0  0  0  0  0  0  0  0
   36.0680   28.0960   31.6800 O   0  0  0  0  0  0  0  0  0  0  0  0
   35.5360   29.5990   33.5010 C   0  0  1  0  0  0  0  0  0  0  0  0
   34.0220   29.6700   33.1020 C   0  0  0  0  0  0  0  0  0  0  0  0
   34.4790   29.5080   34.5070 C   0  0  2  0  0  0  0  0  0  0  0  0
   35.9960   30.5400   33.1280 H   0  0  0  0  0  0  0  0  0  0  0  0
   33.5720   28.7640   32.6640 H   0  0  0  0  0  0  0  0  0  0  0  0
   33.6070   30.6160   32.7760 H   0  0  0  0  0  0  0  0  0  0  0  0
   34.3750   28.5770   35.0750 H   0  0  0  0  0  0  0  0  0  0  0  0
   32.2130   30.0400   35.9900 F   0  0  0  0  0  0  0  0  0  0  0  0
   33.2580   30.8960   36.1390 C   0  0  0  0  0  0  0  0  0  0  0  0
   34.4460   30.7030   35.4270 C   0  0  0  0  0  0  0  0  0  0  0  0
   35.4980   31.5800   35.5900 C   0  0  0  0  0  0  0  0  0  0  0  0
   36.3880   31.4090   35.0360 H   0  0  0  0  0  0  0  0  0  0  0  0
   35.3450   32.6530   36.4740 C   0  0  0  0  0  0  0  0  0  0  0  0
   36.1770   33.3310   36.5910 H   0  0  0  0  0  0  0  0  0  0  0  0
   34.1860   32.8690   37.1900 C   0  0  0  0  0  3  0  0  0  0  0  0
   33.1490   31.9770   37.0090 C   0  0  0  0  0  3  0  0  0  0  0  0
  1  8  1  0  0  0  0
  1  2  2  0  0  0  0
  2  6  1  0  0  0  0
  3  7  1  0  0  0  0
  3  2  1  0  0  0  0
  4  3  2  0  0  0  0
  5  4  1  0  0  0  0
  5  1  1  0  0  0  0
  8 10  1  0  0  0  0
  9  8  2  0  0  0  0
 10 11  2  0  0  0  0
 10 15  1  0  0  0  0
 11 12  1  0  0  0  0
 12 17  1  0  0  0  0
 12 13  2  0  0  0  0
 14 13  1  0  0  0  0
 14 18  1  0  0  0  0
 15 14  2  0  0  0  0
 16 11  1  0  0  0  0
 19 21  1  0  0  0  0
 19  4  1  0  0  0  0
 20 19  2  0  0  0  0
 21 24  1  6  0  0  0
 21 23  1  0  0  0  0
 22 21  1  0  0  0  0
 22 23  1  0  0  0  0
 23 27  1  1  0  0  0
 23 30  1  0  0  0  0
 25 22  1  0  0  0  0
 26 22  1  0  0  0  0
 28 29  1  0  0  0  0
 29 36  1  0  0  0  0
 30 31  1  0  0  0  0
 30 29  2  0  0  0  0
 31 33  2  0  0  0  0
 32 31  1  0  0  0  0
 33 34  1  0  0  0  0
 33 35  1  0  0  0  0
 36 35  2  0  0  0  0
M  END
>  <minimizedAffinity>
-6.13261557

$$$$

 OpenBabel03272507353D

 36 39  0  0  1  0  0  0  0  0999 V2000
   37.8840   25.4700   35.8540 C   0  0  0  0  0  0  0  0  0  0  0  0
   38.4600   26.6040   36.3830 C   0  0  0  0  0  0  0  0  0  0  0  0
   38.0630   27.6850   35.5840 C   0  0  0  0  0  0  0  0  0  0  0  0
   37.2610   27.1320   34.6100 C   0  0  0  0  0  0  0  0  0  0  0  0
   37.1830   25.8330   34.8040 O   0  0  0  0  0  0  0  0  0  0  0  0
   39.1020   26.7240   37.2380 H   0  0  0  0  0  0  0  0  0  0  0  0
   38.2940   28.7400   35.6570 H   0  0  0  0  0  0  0  0  0  0  0  0
   38.0850   24.1550   36.4380 C   0  0  0  0  0  0  0  0  0  0  0  0
   37.1520   23.6140   37.0490 O   0  0  0  0  0  0  0  0  0  0  0  0
   39.3790   23.5550   36.2650 C   0  0  0  0  0  0  0  0  0  0  0  0
   39.8780   22.8100   37.3210 C   0  0  0  0  0  0  0  0  0  0  0  0
   41.1370   22.2150   37.1840 C   0  0  0  0  0  0  0  0  0  0  0  0
   41.8110   22.4030   36.0030 N   0  0  0  0  0  0  0  0  0  0  0  0
   41.3010   23.1260   35.0060 C   0  0  0  0  0  0  0  0  0  0  0  0
   40.0940   23.7020   35.1270 N   0  0  0  0  0  0  0  0  0  0  0  0
   39.3490   22.6620   38.2510 H   0  0  0  0  0  0  0  0  0  0  0  0
   41.5230   21.6310   38.0190 H   0  0  0  0  0  0  0  0  0  0  0  0
   41.9480   23.1840   34.1420 H   0  0  0  0  0  0  0  0  0  0  0  0
   36.5970   27.8670   33.5340 C   0  0  0  0  0  0  0  0  0  0  0  0
   36.5140   27.3230   32.3840 O   0  0  0  0  0  0  0  0  0  0  0  0
   36.0350   29.2330   33.7910 C   0  0  1  0  0  0  0  0  0  0  0  0
   34.5790   29.3360   33.2200 C   0  0  0  0  0  0  0  0  0  0  0  0
   34.8830   29.4270   34.6710 C   0  0  2  0  0  0  0  0  0  0  0  0
   36.6160   30.0430   33.2960 H   0  0  0  0  0  0  0  0  0  0  0  0
   34.0880   28.3960   32.9180 H   0  0  0  0  0  0  0  0  0  0  0  0
   34.2880   30.2240   32.6730 H   0  0  0  0  0  0  0  0  0  0  0  0
   34.6380   28.6410   35.3940 H   0  0  0  0  0  0  0  0  0  0  0  0
   32.6780   30.2430   36.1160 F   0  0  0  0  0  0  0  0  0  0  0  0
   33.7200   31.1130   36.0440 C   0  0  0  0  0  0  0  0  0  0  0  0
   34.8780   30.7830   35.3330 C   0  0  0  0  0  0  0  0  0  0  0  0
   35.9270   31.6760   35.2700 C   0  0  0  0  0  0  0  0  0  0  0  0
   36.7950   31.3980   34.7230 H   0  0  0  0  0  0  0  0  0  0  0  0
   35.8020   32.9040   35.9280 C   0  0  0  0  0  0  0  0  0  0  0  0
   36.6310   33.5930   35.8700 H   0  0  0  0  0  0  0  0  0  0  0  0
   34.6720   33.2580   36.6370 C   0  0  0  0  0  3  0  0  0  0  0  0
   33.6380   32.3460   36.6840 C   0  0  0  0  0  3  0  0  0  0  0  0
  1  2  2  0  0  0  0
  1  8  1  0  0  0  0
  2  6  1  0  0  0  0
  3  7  1  0  0  0  0
  3  2  1  0  0  0  0
  4  5  1  0  0  0  0
  4  3  2  0  0  0  0
  5  1  1  0  0  0  0
  8  9  2  0  0  0  0
 10  8  1  0  0  0  0
 10 11  1  0  0  0  0
 11 16  1  0  0  0  0
 12 11  2  0  0  0  0
 12 17  1  0  0  0  0
 13 12  1  0  0  0  0
 14 15  1  0  0  0  0
 14 13  2  0  0  0  0
 15 10  2  0  0  0  0
 18 14  1  0  0  0  0
 19 21  1  0  0  0  0
 19  4  1  0  0  0  0
 20 19  2  0  0  0  0
 21 24  1  6  0  0  0
 21 23  1  0  0  0  0
 22 21  1  0  0  0  0
 22 23  1  0  0  0  0
 23 30  1  0  0  0  0
 23 27  1  1  0  0  0
 25 22  1  0  0  0  0
 26 22  1  0  0  0  0
 29 28  1  0  0  0  0
 29 36  1  0  0  0  0
 30 29  2  0  0  0  0
 31 30  1  0  0  0  0
 31 33  2  0  0  0  0
 32 31  1  0  0  0  0
 33 35  1  0  0  0  0
 34 33  1  0  0  0  0
 35 36  2  0  0  0  0
M  END
>  <minimizedAffinity>
-5.95961571

$$$$

 OpenBabel03272507353D

 36 39  0  0  1  0  0  0  0  0999 V2000
   36.9990   27.4850   34.5340 C   0  0  0  0  0  0  0  0  0  0  0  0
   37.9230   27.8800   35.4770 C   0  0  0  0  0  0  0  0  0  0  0  0
   38.5240   26.7190   35.9830 C   0  0  0  0  0  0  0  0  0  0  0  0
   37.9210   25.6820   35.3060 C   0  0  0  0  0  0  0  0  0  0  0  0
   37.0350   26.1740   34.4680 O   0  0  0  0  0  0  0  0  0  0  0  0
   38.1910   28.8640   35.8180 H   0  0  0  0  0  0  0  0  0  0  0  0
   39.2930   26.5930   36.7340 H   0  0  0  0  0  0  0  0  0  0  0  0
   36.1850   28.4400   33.8000 C   0  0  0  0  0  0  0  0  0  0  0  0
   35.2240   28.9780   34.3680 O   0  0  0  0  0  0  0  0  0  0  0  0
   36.5570   28.7030   32.4380 C   0  0  0  0  0  0  0  0  0  0  0  0
   35.9390   29.7710   31.8080 C   0  0  0  0  0  0  0  0  0  0  0  0
   36.2780   30.0530   30.4810 C   0  0  0  0  0  0  0  0  0  0  0  0
   37.2110   29.2490   29.8720 N   0  0  0  0  0  0  0  0  0  0  0  0
   37.7870   28.2300   30.5080 C   0  0  0  0  0  0  0  0  0  0  0  0
   37.4690   27.9500   31.7820 N   0  0  0  0  0  0  0  0  0  0  0  0
   35.2040   30.4040   32.2860 H   0  0  0  0  0  0  0  0  0  0  0  0
   35.7880   30.8940   29.9910 H   0  0  0  0  0  0  0  0  0  0  0  0
   38.5000   27.6900   29.8990 H   0  0  0  0  0  0  0  0  0  0  0  0
   38.2190   24.2610   35.4840 C   0  0  0  0  0  0  0  0  0  0  0  0
   38.5880   23.8550   36.6340 O   0  0  0  0  0  0  0  0  0  0  0  0
   38.0920   23.3150   34.3280 C   0  0  1  0  0  0  0  0  0  0  0  0
   39.2410   22.2490   34.3730 C   0  0  0  0  0  0  0  0  0  0  0  0
   37.8070   21.8970   34.5350 C   0  0  2  0  0  0  0  0  0  0  0  0
   38.1830   23.8210   33.3400 H   0  0  0  0  0  0  0  0  0  0  0  0
   39.8320   22.1830   35.3020 H   0  0  0  0  0  0  0  0  0  0  0  0
   39.7590   21.9930   33.4570 H   0  0  0  0  0  0  0  0  0  0  0  0
   37.3610   21.5860   35.4870 H   0  0  0  0  0  0  0  0  0  0  0  0
   35.3360   20.7320   34.9320 F   0  0  0  0  0  0  0  0  0  0  0  0
   35.8280   20.7080   33.6650 C   0  0  0  0  0  0  0  0  0  0  0  0
   37.0730   21.2750   33.3720 C   0  0  0  0  0  0  0  0  0  0  0  0
   37.5590   21.2430   32.0820 C   0  0  0  0  0  0  0  0  0  0  0  0
   38.5070   21.6810   31.8890 H   0  0  0  0  0  0  0  0  0  0  0  0
   36.7830   20.6360   31.0890 C   0  0  0  0  0  0  0  0  0  0  0  0
   37.1760   20.6180   30.0840 H   0  0  0  0  0  0  0  0  0  0  0  0
   35.5520   20.0680   31.3470 C   0  0  0  0  0  3  0  0  0  0  0  0
   35.0890   20.1140   32.6460 C   0  0  0  0  0  3  0  0  0  0  0  0
  1  2  2  0  0  0  0
  2  6  1  0  0  0  0
  2  3  1  0  0  0  0
  3  7  1  0  0  0  0
  4 19  1  0  0  0  0
  4  3  2  0  0  0  0
  5  1  1  0  0  0  0
  5  4  1  0  0  0  0
  8  9  2  0  0  0  0
  8  1  1  0  0  0  0
 10  8  1  0  0  0  0
 11 16  1  0  0  0  0
 11 10  1  0  0  0  0
 12 11  2  0  0  0  0
 13 12  1  0  0  0  0
 13 14  2  0  0  0  0
 14 15  1  0  0  0  0
 15 10  2  0  0  0  0
 17 12  1  0  0  0  0
 18 14  1  0  0  0  0
 19 20  2  0  0  0  0
 21 24  1  6  0  0  0
 21 22  1  0  0  0  0
 21 23  1  0  0  0  0
 21 19  1  0  0  0  0
 22 23  1  0  0  0  0
 22 25  1  0  0  0  0
 23 27  1  1  0  0  0
 26 22  1  0  0  0  0
 29 28  1  0  0  0  0
 30 29  1  0  0  0  0
 30 23  1  0  0  0  0
 31 30  2  0  0  0  0
 32 31  1  0  0  0  0
 33 35  2  0  0  0  0
 33 31  1  0  0  0  0
 34 33  1  0  0  0  0
 35 36  1  0  0  0  0
 36 29  2  0  0  0  0
M  END
>  <minimizedAffinity>
-5.9455061

$$$$

 OpenBabel03272507353D

 36 39  0  0  1  0  0  0  0  0999 V2000
   38.1760   24.9030   35.2140 C   0  0  0  0  0  0  0  0  0  0  0  0
   38.5680   25.8830   36.0990 C   0  0  0  0  0  0  0  0  0  0  0  0
   38.0150   27.0920   35.6560 C   0  0  0  0  0  0  0  0  0  0  0  0
   37.3130   26.7640   34.5170 C   0  0  0  0  0  0  0  0  0  0  0  0
   37.4340   25.4740   34.2930 O   0  0  0  0  0  0  0  0  0  0  0  0
   39.1790   25.8170   36.9830 H   0  0  0  0  0  0  0  0  0  0  0  0
   38.0810   28.0910   36.0660 H   0  0  0  0  0  0  0  0  0  0  0  0
   38.5740   23.5140   35.3700 C   0  0  0  0  0  0  0  0  0  0  0  0
   39.7170   23.2520   35.7720 O   0  0  0  0  0  0  0  0  0  0  0  0
   37.5950   22.5150   35.0430 C   0  0  0  0  0  0  0  0  0  0  0  0
   36.8920   21.9490   36.0950 C   0  0  0  0  0  0  0  0  0  0  0  0
   35.9320   20.9720   35.8090 C   0  0  0  0  0  0  0  0  0  0  0  0
   35.7390   20.6260   34.4940 N   0  0  0  0  0  0  0  0  0  0  0  0
   36.4330   21.1920   33.5070 C   0  0  0  0  0  0  0  0  0  0  0  0
   37.3560   22.1300   33.7690 N   0  0  0  0  0  0  0  0  0  0  0  0
   37.0430   22.2190   37.1300 H   0  0  0  0  0  0  0  0  0  0  0  0
   35.3840   20.5310   36.6400 H   0  0  0  0  0  0  0  0  0  0  0  0
   36.1690   20.8170   32.5260 H   0  0  0  0  0  0  0  0  0  0  0  0
   36.5500   27.6980   33.6880 C   0  0  0  0  0  0  0  0  0  0  0  0
   36.2250   27.3420   32.5090 O   0  0  0  0  0  0  0  0  0  0  0  0
   36.1710   29.0450   34.2270 C   0  0  1  0  0  0  0  0  0  0  0  0
   35.7540   29.9980   33.0550 C   0  0  0  0  0  0  0  0  0  0  0  0
   34.8050   29.5530   34.1080 C   0  0  2  0  0  0  0  0  0  0  0  0
   37.0090   29.5550   34.7530 H   0  0  0  0  0  0  0  0  0  0  0  0
   35.5830   29.5390   32.0670 H   0  0  0  0  0  0  0  0  0  0  0  0
   36.1150   31.0190   33.0510 H   0  0  0  0  0  0  0  0  0  0  0  0
   33.9940   28.8380   33.9320 H   0  0  0  0  0  0  0  0  0  0  0  0
   32.2100   29.6560   35.0410 F   0  0  0  0  0  0  0  0  0  0  0  0
   33.1050   30.4960   35.6250 C   0  0  0  0  0  0  0  0  0  0  0  0
   34.4420   30.5120   35.2150 C   0  0  0  0  0  0  0  0  0  0  0  0
   35.3390   31.3690   35.8170 C   0  0  0  0  0  0  0  0  0  0  0  0
   36.3480   31.3590   35.4850 H   0  0  0  0  0  0  0  0  0  0  0  0
   34.8790   32.2120   36.8340 C   0  0  0  0  0  0  0  0  0  0  0  0
   35.5920   32.8780   37.2970 H   0  0  0  0  0  0  0  0  0  0  0  0
   33.5670   32.2200   37.2610 C   0  0  0  0  0  3  0  0  0  0  0  0
   32.6910   31.3520   36.6420 C   0  0  0  0  0  3  0  0  0  0  0  0
  1  8  1  0  0  0  0
  1  2  2  0  0  0  0
  2  6  1  0  0  0  0
  3  7  1  0  0  0  0
  3  2  1  0  0  0  0
  4  3  2  0  0  0  0
  5  4  1  0  0  0  0
  5  1  1  0  0  0  0
  8  9  2  0  0  0  0
 10  8  1  0  0  0  0
 10 11  1  0  0  0  0
 11 16  1  0  0  0  0
 12 11  2  0  0  0  0
 12 17  1  0  0  0  0
 13 12  1  0  0  0  0
 14 15  1  0  0  0  0
 14 13  2  0  0  0  0
 15 10  2  0  0  0  0
 18 14  1  0  0  0  0
 19 21  1  0  0  0  0
 19  4  1  0  0  0  0
 20 19  2  0  0  0  0
 21 24  1  1  0  0  0
 22 23  1  0  0  0  0
 22 21  1  0  0  0  0
 23 27  1  6  0  0  0
 23 21  1  0  0  0  0
 23 30  1  0  0  0  0
 25 22  1  0  0  0  0
 26 22  1  0  0  0  0
 28 29  1  0  0  0  0
 29 36  1  0  0  0  0
 30 29  2  0  0  0  0
 30 31  1  0  0  0  0
 31 33  2  0  0  0  0
 32 31  1  0  0  0  0
 33 35  1  0  0  0  0
 33 34  1  0  0  0  0
 36 35  2  0  0  0  0
M  END
>  <minimizedAffinity>
-5.89674807

$$$$

 OpenBabel03272507353D

 36 39  0  0  1  0  0  0  0  0999 V2000
   37.9840   26.2600   34.1780 C   0  0  0  0  0  0  0  0  0  0  0  0
   38.5900   27.0300   33.2090 C   0  0  0  0  0  0  0  0  0  0  0  0
   37.9410   26.7620   31.9960 C   0  0  0  0  0  0  0  0  0  0  0  0
   36.9700   25.8370   32.3100 C   0  0  0  0  0  0  0  0  0  0  0  0
   37.0290   25.5700   33.5960 O   0  0  0  0  0  0  0  0  0  0  0  0
   39.4080   27.7250   33.2850 H   0  0  0  0  0  0  0  0  0  0  0  0
   38.1110   27.1570   31.0030 H   0  0  0  0  0  0  0  0  0  0  0  0
   38.4080   26.2880   35.5670 C   0  0  0  0  0  0  0  0  0  0  0  0
   38.4330   27.3700   36.1710 O   0  0  0  0  0  0  0  0  0  0  0  0
   38.7780   25.0330   36.1610 C   0  0  0  0  0  0  0  0  0  0  0  0
   38.0660   24.6270   37.2790 C   0  0  0  0  0  0  0  0  0  0  0  0
   38.4030   23.4110   37.8810 C   0  0  0  0  0  0  0  0  0  0  0  0
   39.4270   22.6810   37.3280 N   0  0  0  0  0  0  0  0  0  0  0  0
   40.0910   23.1020   36.2520 C   0  0  0  0  0  0  0  0  0  0  0  0
   39.7770   24.2680   35.6650 N   0  0  0  0  0  0  0  0  0  0  0  0
   37.2610   25.2000   37.7150 H   0  0  0  0  0  0  0  0  0  0  0  0
   37.8400   23.0980   38.7590 H   0  0  0  0  0  0  0  0  0  0  0  0
   40.8700   22.4210   35.9330 H   0  0  0  0  0  0  0  0  0  0  0  0
   36.0190   25.2470   31.3670 C   0  0  0  0  0  0  0  0  0  0  0  0
   35.1850   26.0130   30.7830 O   0  0  0  0  0  0  0  0  0  0  0  0
   36.0350   23.7700   31.1080 C   0  0  1  0  0  0  0  0  0  0  0  0
   37.4380   23.3320   30.5640 C   0  0  0  0  0  0  0  0  0  0  0  0
   36.9020   22.8750   31.8720 C   0  0  2  0  0  0  0  0  0  0  0  0
   35.2960   23.4560   30.3380 H   0  0  0  0  0  0  0  0  0  0  0  0
   38.2600   24.0630   30.6400 H   0  0  0  0  0  0  0  0  0  0  0  0
   37.4880   22.6410   29.7310 H   0  0  0  0  0  0  0  0  0  0  0  0
   37.2870   23.2180   32.8390 H   0  0  0  0  0  0  0  0  0  0  0  0
   38.6150   20.7140   31.9860 F   0  0  0  0  0  0  0  0  0  0  0  0
   37.2830   20.4440   32.0350 C   0  0  0  0  0  0  0  0  0  0  0  0
   36.3430   21.4780   31.9840 C   0  0  0  0  0  0  0  0  0  0  0  0
   34.9960   21.1890   32.0350 C   0  0  0  0  0  0  0  0  0  0  0  0
   34.3040   21.9940   31.9940 H   0  0  0  0  0  0  0  0  0  0  0  0
   34.6020   19.8500   32.1390 C   0  0  0  0  0  0  0  0  0  0  0  0
   33.5440   19.6390   32.1780 H   0  0  0  0  0  0  0  0  0  0  0  0
   35.5050   18.8090   32.1920 C   0  0  0  0  0  3  0  0  0  0  0  0
   36.8470   19.1260   32.1380 C   0  0  0  0  0  3  0  0  0  0  0  0
  1  8  1  0  0  0  0
  2  6  1  0  0  0  0
  2  1  2  0  0  0  0
  3  4  2  0  0  0  0
  3  2  1  0  0  0  0
  4  5  1  0  0  0  0
  5  1  1  0  0  0  0
  7  3  1  0  0  0  0
  8 10  1  0  0  0  0
  8  9  2  0  0  0  0
 10 11  1  0  0  0  0
 11 16  1  0  0  0  0
 11 12  2  0  0  0  0
 12 17  1  0  0  0  0
 13 12  1  0  0  0  0
 14 13  2  0  0  0  0
 15 10  2  0  0  0  0
 15 14  1  0  0  0  0
 18 14  1  0  0  0  0
 19  4  1  0  0  0  0
 20 19  2  0  0  0  0
 21 24  1  6  0  0  0
 21 19  1  0  0  0  0
 21 23  1  0  0  0  0
 22 25  1  0  0  0  0
 22 21  1  0  0  0  0
 22 23  1  0  0  0  0
 23 30  1  0  0  0  0
 23 27  1  1  0  0  0
 26 22  1  0  0  0  0
 28 29  1  0  0  0  0
 29 36  1  0  0  0  0
 30 31  1  0  0  0  0
 30 29  2  0  0  0  0
 31 33  2  0  0  0  0
 32 31  1  0  0  0  0
 33 34  1  0  0  0  0
 33 35  1  0  0  0  0
 36 35  2  0  0  0  0
M  END
>  <minimizedAffinity>
-5.86474752

$$$$

 OpenBabel03272507353D

 36 39  0  0  1  0  0  0  0  0999 V2000
   38.0730   25.3340   36.1060 C   0  0  0  0  0  0  0  0  0  0  0  0
   38.3800   26.6670   36.2780 C   0  0  0  0  0  0  0  0  0  0  0  0
   37.9700   27.3420   35.1210 C   0  0  0  0  0  0  0  0  0  0  0  0
   37.4330   26.3660   34.3110 C   0  0  0  0  0  0  0  0  0  0  0  0
   37.5130   25.2060   34.9250 O   0  0  0  0  0  0  0  0  0  0  0  0
   38.8440   27.1710   37.1080 H   0  0  0  0  0  0  0  0  0  0  0  0
   38.0300   28.3900   34.8570 H   0  0  0  0  0  0  0  0  0  0  0  0
   38.3620   24.3360   37.1210 C   0  0  0  0  0  0  0  0  0  0  0  0
   37.7000   24.3290   38.1700 O   0  0  0  0  0  0  0  0  0  0  0  0
   39.4160   23.4030   36.8360 C   0  0  0  0  0  0  0  0  0  0  0  0
   39.7830   23.2490   35.5080 C   0  0  0  0  0  0  0  0  0  0  0  0
   40.8060   22.3470   35.1970 C   0  0  0  0  0  0  0  0  0  0  0  0
   41.3940   21.6600   36.2320 N   0  0  0  0  0  0  0  0  0  0  0  0
   41.0160   21.8330   37.4980 C   0  0  0  0  0  0  0  0  0  0  0  0
   40.0350   22.6960   37.8080 N   0  0  0  0  0  0  0  0  0  0  0  0
   39.3220   23.7880   34.6940 H   0  0  0  0  0  0  0  0  0  0  0  0
   41.0890   22.2310   34.1520 H   0  0  0  0  0  0  0  0  0  0  0  0
   41.5700   21.2230   38.1990 H   0  0  0  0  0  0  0  0  0  0  0  0
   36.8610   26.5820   32.9820 C   0  0  0  0  0  0  0  0  0  0  0  0
   36.5310   27.7660   32.6440 O   0  0  0  0  0  0  0  0  0  0  0  0
   36.6660   25.4230   32.0500 C   0  0  1  0  0  0  0  0  0  0  0  0
   37.7140   25.4840   30.8860 C   0  0  0  0  0  0  0  0  0  0  0  0
   37.6910   24.3930   31.8950 C   0  0  2  0  0  0  0  0  0  0  0  0
   35.6660   25.4210   31.5620 H   0  0  0  0  0  0  0  0  0  0  0  0
   38.5540   26.1890   30.9990 H   0  0  0  0  0  0  0  0  0  0  0  0
   37.3880   25.2870   29.8720 H   0  0  0  0  0  0  0  0  0  0  0  0
   38.4440   24.2800   32.6840 H   0  0  0  0  0  0  0  0  0  0  0  0
   39.3120   22.4880   30.7300 F   0  0  0  0  0  0  0  0  0  0  0  0
   38.0100   22.1490   30.9230 C   0  0  0  0  0  0  0  0  0  0  0  0
   37.1170   23.0530   31.5070 C   0  0  0  0  0  0  0  0  0  0  0  0
   35.7990   22.6950   31.6980 C   0  0  0  0  0  0  0  0  0  0  0  0
   35.1430   23.4020   32.1440 H   0  0  0  0  0  0  0  0  0  0  0  0
   35.3860   21.4210   31.2950 C   0  0  0  0  0  0  0  0  0  0  0  0
   34.3510   21.1540   31.4510 H   0  0  0  0  0  0  0  0  0  0  0  0
   36.2430   20.5070   30.7170 C   0  0  0  0  0  3  0  0  0  0  0  0
   37.5560   20.8910   30.5380 C   0  0  0  0  0  3  0  0  0  0  0  0
  1  2  2  0  0  0  0
  1  8  1  0  0  0  0
  2  6  1  0  0  0  0
  3  2  1  0  0  0  0
  4  5  1  0  0  0  0
  4  3  2  0  0  0  0
  5  1  1  0  0  0  0
  7  3  1  0  0  0  0
  8  9  2  0  0  0  0
 10  8  1  0  0  0  0
 10 15  1  0  0  0  0
 11 10  2  0  0  0  0
 12 11  1  0  0  0  0
 12 13  2  0  0  0  0
 13 14  1  0  0  0  0
 14 15  2  0  0  0  0
 14 18  1  0  0  0  0
 16 11  1  0  0  0  0
 17 12  1  0  0  0  0
 19  4  1  0  0  0  0
 20 19  2  0  0  0  0
 21 24  1  6  0  0  0
 21 19  1  0  0  0  0
 22 25  1  0  0  0  0
 22 23  1  0  0  0  0
 22 21  1  0  0  0  0
 23 21  1  0  0  0  0
 23 27  1  1  0  0  0
 26 22  1  0  0  0  0
 28 29  1  0  0  0  0
 29 30  1  0  0  0  0
 30 31  2  0  0  0  0
 30 23  1  0  0  0  0
 31 32  1  0  0  0  0
 33 34  1  0  0  0  0
 33 31  1  0  0  0  0
 35 33  2  0  0  0  0
 36 35  1  0  0  0  0
 36 29  2  0  0  0  0
M  END
>  <minimizedAffinity>
-5.79420471

$$$$

 OpenBabel03272507353D

 36 39  0  0  1  0  0  0  0  0999 V2000
   36.1690   29.0240   32.3620 C   0  0  0  0  0  0  0  0  0  0  0  0
   36.4800   28.7440   31.0490 C   0  0  0  0  0  0  0  0  0  0  0  0
   37.4660   27.7480   31.0570 C   0  0  0  0  0  0  0  0  0  0  0  0
   37.6930   27.4830   32.3890 C   0  0  0  0  0  0  0  0  0  0  0  0
   36.9150   28.2520   33.1190 O   0  0  0  0  0  0  0  0  0  0  0  0
   36.0890   29.1620   30.1380 H   0  0  0  0  0  0  0  0  0  0  0  0
   37.9760   27.2530   30.2400 H   0  0  0  0  0  0  0  0  0  0  0  0
   35.1750   30.0190   32.7270 C   0  0  0  0  0  0  0  0  0  0  0  0
   34.0700   30.0050   32.1650 O   0  0  0  0  0  0  0  0  0  0  0  0
   35.5460   30.9710   33.7370 C   0  0  0  0  0  0  0  0  0  0  0  0
   35.9380   32.2290   33.3060 C   0  0  0  0  0  0  0  0  0  0  0  0
   36.3070   33.1790   34.2650 C   0  0  0  0  0  0  0  0  0  0  0  0
   36.2590   32.8090   35.5870 N   0  0  0  0  0  0  0  0  0  0  0  0
   35.8770   31.5900   35.9650 C   0  0  0  0  0  0  0  0  0  0  0  0
   35.5210   30.6710   35.0550 N   0  0  0  0  0  0  0  0  0  0  0  0
   35.9770   32.5200   32.2670 H   0  0  0  0  0  0  0  0  0  0  0  0
   36.6150   34.1650   33.9200 H   0  0  0  0  0  0  0  0  0  0  0  0
   35.8910   31.4490   37.0380 H   0  0  0  0  0  0  0  0  0  0  0  0
   38.6440   26.5020   32.9130 C   0  0  0  0  0  0  0  0  0  0  0  0
   39.7970   26.4240   32.3770 O   0  0  0  0  0  0  0  0  0  0  0  0
   38.2520   25.6100   34.0530 C   0  0  1  0  0  0  0  0  0  0  0  0
   37.9780   24.1570   33.5320 C   0  0  0  0  0  0  0  0  0  0  0  0
   39.0920   24.4840   34.4580 C   0  0  2  0  0  0  0  0  0  0  0  0
   37.3160   25.9350   34.5590 H   0  0  0  0  0  0  0  0  0  0  0  0
   38.2970   23.9210   32.5040 H   0  0  0  0  0  0  0  0  0  0  0  0
   37.1120   23.6200   33.8990 H   0  0  0  0  0  0  0  0  0  0  0  0
   40.1480   24.4850   34.1630 H   0  0  0  0  0  0  0  0  0  0  0  0
   40.7930   22.6480   35.6210 F   0  0  0  0  0  0  0  0  0  0  0  0
   39.8510   23.2070   36.4270 C   0  0  0  0  0  0  0  0  0  0  0  0
   38.9470   24.1470   35.9220 C   0  0  0  0  0  0  0  0  0  0  0  0
   37.9980   24.7060   36.7510 C   0  0  0  0  0  0  0  0  0  0  0  0
   37.3240   25.4170   36.3400 H   0  0  0  0  0  0  0  0  0  0  0  0
   37.9640   24.3100   38.0920 C   0  0  0  0  0  0  0  0  0  0  0  0
   37.2160   24.7560   38.7300 H   0  0  0  0  0  0  0  0  0  0  0  0
   38.8420   23.3860   38.6200 C   0  0  0  0  0  3  0  0  0  0  0  0
   39.7820   22.8430   37.7680 C   0  0  0  0  0  3  0  0  0  0  0  0
  1  8  1  0  0  0  0
  1  5  1  0  0  0  0
  2  3  1  0  0  0  0
  2  1  2  0  0  0  0
  3  4  2  0  0  0  0
  4 19  1  0  0  0  0
  4  5  1  0  0  0  0
  6  2  1  0  0  0  0
  7  3  1  0  0  0  0
  8 10  1  0  0  0  0
  9  8  2  0  0  0  0
 10 15  1  0  0  0  0
 11 10  2  0  0  0  0
 11 12  1  0  0  0  0
 12 13  2  0  0  0  0
 13 14  1  0  0  0  0
 14 18  1  0  0  0  0
 15 14  2  0  0  0  0
 16 11  1  0  0  0  0
 17 12  1  0  0  0  0
 19 21  1  0  0  0  0
 20 19  2  0  0  0  0
 21 23  1  0  0  0  0
 21 24  1  1  0  0  0
 22 26  1  0  0  0  0
 22 21  1  0  0  0  0
 22 23  1  0  0  0  0
 23 27  1  6  0  0  0
 23 30  1  0  0  0  0
 25 22  1  0  0  0  0
 28 29  1  0  0  0  0
 29 36  1  0  0  0  0
 30 29  2  0  0  0  0
 30 31  1  0  0  0  0
 31 33  2  0  0  0  0
 32 31  1  0  0  0  0
 33 35  1  0  0  0  0
 33 34  1  0  0  0  0
 36 35  2  0  0  0  0
M  END
>  <minimizedAffinity>
-5.65927505

$$$$

 OpenBabel03272507353D

 36 39  0  0  1  0  0  0  0  0999 V2000
   36.0680   28.9460   32.4660 C   0  0  0  0  0  0  0  0  0  0  0  0
   37.0580   28.9380   31.5080 C   0  0  0  0  0  0  0  0  0  0  0  0
   37.7010   27.6950   31.5830 C   0  0  0  0  0  0  0  0  0  0  0  0
   37.0520   27.0190   32.5920 C   0  0  0  0  0  0  0  0  0  0  0  0
   36.1030   27.7870   33.0830 O   0  0  0  0  0  0  0  0  0  0  0  0
   37.3470   29.6960   30.8020 H   0  0  0  0  0  0  0  0  0  0  0  0
   38.5260   27.2910   31.0090 H   0  0  0  0  0  0  0  0  0  0  0  0
   35.1950   30.0900   32.6690 C   0  0  0  0  0  0  0  0  0  0  0  0
   34.1470   30.1760   32.0120 O   0  0  0  0  0  0  0  0  0  0  0  0
   35.6130   31.0650   33.6380 C   0  0  0  0  0  0  0  0  0  0  0  0
   35.5810   30.6860   34.9710 C   0  0  0  0  0  0  0  0  0  0  0  0
   35.9810   31.6130   35.9390 C   0  0  0  0  0  0  0  0  0  0  0  0
   36.3860   32.8550   35.5120 N   0  0  0  0  0  0  0  0  0  0  0  0
   36.4040   33.1850   34.2210 C   0  0  0  0  0  0  0  0  0  0  0  0
   36.0220   32.3040   33.2830 N   0  0  0  0  0  0  0  0  0  0  0  0
   35.2630   29.7100   35.3080 H   0  0  0  0  0  0  0  0  0  0  0  0
   35.9540   31.3100   36.9850 H   0  0  0  0  0  0  0  0  0  0  0  0
   36.7450   34.1950   34.0400 H   0  0  0  0  0  0  0  0  0  0  0  0
   37.3620   25.6630   33.0460 C   0  0  0  0  0  0  0  0  0  0  0  0
   36.7520   24.6840   32.5050 O   0  0  0  0  0  0  0  0  0  0  0  0
   38.3750   25.4460   34.1300 C   0  0  1  0  0  0  0  0  0  0  0  0
   37.7860   25.8810   35.5160 C   0  0  0  0  0  0  0  0  0  0  0  0
   38.1470   24.4750   35.1990 C   0  0  2  0  0  0  0  0  0  0  0  0
   39.3010   26.0480   33.9880 H   0  0  0  0  0  0  0  0  0  0  0  0
   36.7010   26.0710   35.5660 H   0  0  0  0  0  0  0  0  0  0  0  0
   38.4040   26.4560   36.1940 H   0  0  0  0  0  0  0  0  0  0  0  0
   37.4090   23.6810   35.0360 H   0  0  0  0  0  0  0  0  0  0  0  0
   38.0890   22.9250   37.4810 F   0  0  0  0  0  0  0  0  0  0  0  0
   39.3070   23.1350   36.9130 C   0  0  0  0  0  0  0  0  0  0  0  0
   39.4300   23.9080   35.7550 C   0  0  0  0  0  0  0  0  0  0  0  0
   40.6710   24.1130   35.1900 C   0  0  0  0  0  0  0  0  0  0  0  0
   40.7350   24.7040   34.3100 H   0  0  0  0  0  0  0  0  0  0  0  0
   41.7880   23.5330   35.8010 C   0  0  0  0  0  0  0  0  0  0  0  0
   42.7530   23.7010   35.3480 H   0  0  0  0  0  0  0  0  0  0  0  0
   41.6990   22.7650   36.9440 C   0  0  0  0  0  3  0  0  0  0  0  0
   40.4450   22.5770   37.4880 C   0  0  0  0  0  3  0  0  0  0  0  0
  1  8  1  0  0  0  0
  1  5  1  0  0  0  0
  2  3  1  0  0  0  0
  2  1  2  0  0  0  0
  3  4  2  0  0  0  0
  4 19  1  0  0  0  0
  4  5  1  0  0  0  0
  6  2  1  0  0  0  0
  7  3  1  0  0  0  0
  8 10  1  0  0  0  0
  9  8  2  0  0  0  0
 10 11  1  0  0  0  0
 11 16  1  0  0  0  0
 11 12  2  0  0  0  0
 12 17  1  0  0  0  0
 13 12  1  0  0  0  0
 14 13  2  0  0  0  0
 15 10  2  0  0  0  0
 15 14  1  0  0  0  0
 18 14  1  0  0  0  0
 19 21  1  0  0  0  0
 20 19  2  0  0  0  0
 21 24  1  6  0  0  0
 21 23  1  0  0  0  0
 21 22  1  0  0  0  0
 22 25  1  0  0  0  0
 22 26  1  0  0  0  0
 23 27  1  6  0  0  0
 23 22  1  0  0  0  0
 23 30  1  0  0  0  0
 29 28  1  0  0  0  0
 29 36  1  0  0  0  0
 30 29  2  0  0  0  0
 31 30  1  0  0  0  0
 31 33  2  0  0  0  0
 32 31  1  0  0  0  0
 33 35  1  0  0  0  0
 34 33  1  0  0  0  0
 35 36  2  0  0  0  0
M  END
>  <minimizedAffinity>
-5.63449669

$$$$

 OpenBabel03272507353D

 36 39  0  0  1  0  0  0  0  0999 V2000
   37.5940   26.1220   33.5480 C   0  0  0  0  0  0  0  0  0  0  0  0
   37.4050   26.6590   34.8020 C   0  0  0  0  0  0  0  0  0  0  0  0
   36.7970   27.9110   34.6330 C   0  0  0  0  0  0  0  0  0  0  0  0
   36.6550   28.0550   33.2710 C   0  0  0  0  0  0  0  0  0  0  0  0
   37.1340   26.9860   32.6720 O   0  0  0  0  0  0  0  0  0  0  0  0
   37.6470   26.2610   35.7720 H   0  0  0  0  0  0  0  0  0  0  0  0
   36.4840   28.6480   35.3610 H   0  0  0  0  0  0  0  0  0  0  0  0
   38.2060   24.8190   33.3470 C   0  0  0  0  0  0  0  0  0  0  0  0
   39.3990   24.6580   33.6420 O   0  0  0  0  0  0  0  0  0  0  0  0
   37.3690   23.7820   32.8100 C   0  0  0  0  0  0  0  0  0  0  0  0
   36.5680   24.1120   31.7280 C   0  0  0  0  0  0  0  0  0  0  0  0
   35.7410   23.1250   31.1830 C   0  0  0  0  0  0  0  0  0  0  0  0
   35.7680   21.8760   31.7540 N   0  0  0  0  0  0  0  0  0  0  0  0
   36.5510   21.5930   32.7940 C   0  0  0  0  0  0  0  0  0  0  0  0
   37.3490   22.5330   33.3260 N   0  0  0  0  0  0  0  0  0  0  0  0
   36.5460   25.0940   31.2780 H   0  0  0  0  0  0  0  0  0  0  0  0
   35.1140   23.3910   30.3330 H   0  0  0  0  0  0  0  0  0  0  0  0
   36.4630   20.5700   33.1330 H   0  0  0  0  0  0  0  0  0  0  0  0
   36.0610   29.2080   32.5940 C   0  0  0  0  0  0  0  0  0  0  0  0
   36.3720   29.4280   31.3780 O   0  0  0  0  0  0  0  0  0  0  0  0
   35.1140   30.1080   33.3300 C   0  0  1  0  0  0  0  0  0  0  0  0
   33.6440   29.5820   33.1820 C   0  0  0  0  0  0  0  0  0  0  0  0
   34.3560   29.6290   34.4850 C   0  0  2  0  0  0  0  0  0  0  0  0
   35.1080   31.1490   32.9380 H   0  0  0  0  0  0  0  0  0  0  0  0
   33.5100   28.5670   32.7740 H   0  0  0  0  0  0  0  0  0  0  0  0
   32.8500   30.2900   32.9760 H   0  0  0  0  0  0  0  0  0  0  0  0
   34.7130   28.7380   35.0140 H   0  0  0  0  0  0  0  0  0  0  0  0
   36.3760   30.8910   35.8790 F   0  0  0  0  0  0  0  0  0  0  0  0
   35.1070   31.3140   36.1210 C   0  0  0  0  0  0  0  0  0  0  0  0
   34.0210   30.7310   35.4600 C   0  0  0  0  0  0  0  0  0  0  0  0
   32.7400   31.1710   35.7160 C   0  0  0  0  0  0  0  0  0  0  0  0
   31.9350   30.7100   35.1990 H   0  0  0  0  0  0  0  0  0  0  0  0
   32.5590   32.2020   36.6430 C   0  0  0  0  0  0  0  0  0  0  0  0
   31.5500   32.5370   36.8340 H   0  0  0  0  0  0  0  0  0  0  0  0
   33.6090   32.7970   37.3120 C   0  0  0  0  0  3  0  0  0  0  0  0
   34.8810   32.3380   37.0370 C   0  0  0  0  0  3  0  0  0  0  0  0
  1  2  2  0  0  0  0
  2  6  1  0  0  0  0
  3  2  1  0  0  0  0
  3  7  1  0  0  0  0
  4  3  2  0  0  0  0
  5  4  1  0  0  0  0
  5  1  1  0  0  0  0
  8  1  1  0  0  0  0
  8  9  2  0  0  0  0
 10 15  1  0  0  0  0
 10  8  1  0  0  0  0
 11 10  2  0  0  0  0
 12 11  1  0  0  0  0
 12 13  2  0  0  0  0
 13 14  1  0  0  0  0
 14 18  1  0  0  0  0
 14 15  2  0  0  0  0
 16 11  1  0  0  0  0
 17 12  1  0  0  0  0
 19  4  1  0  0  0  0
 19 21  1  0  0  0  0
 20 19  2  0  0  0  0
 21 24  1  6  0  0  0
 21 23  1  0  0  0  0
 22 21  1  0  0  0  0
 22 23  1  0  0  0  0
 23 27  1  1  0  0  0
 23 30  1  0  0  0  0
 25 22  1  0  0  0  0
 26 22  1  0  0  0  0
 28 29  1  0  0  0  0
 29 36  1  0  0  0  0
 30 31  1  0  0  0  0
 30 29  2  0  0  0  0
 31 33  2  0  0  0  0
 32 31  1  0  0  0  0
 33 34  1  0  0  0  0
 33 35  1  0  0  0  0
 36 35  2  0  0  0  0
M  END
>  <minimizedAffinity>
-5.63438511

$$$$
