
 OpenBabel03272510273D

 45 49  0  0  1  0  0  0  0  0999 V2000
   39.4880   33.5770   43.4930 O   0  0  0  0  0  0  0  0  0  0  0  0
   36.1330   30.2010   47.0060 C   0  0  0  0  0  0  0  0  0  0  0  0
   36.9980   30.6830   47.9590 C   0  0  0  0  0  0  0  0  0  0  0  0
   38.0340   31.5640   47.6070 C   0  0  0  0  0  0  0  0  0  0  0  0
   38.1410   31.9170   46.2810 C   0  0  0  0  0  0  0  0  0  0  0  0
   39.0520   32.7600   45.7070 N   0  0  0  0  0  0  0  0  0  0  0  0
   38.7470   32.7960   44.3960 C   0  0  0  0  0  0  0  0  0  0  0  0
   37.7100   32.0280   44.1370 N   0  0  0  0  0  0  0  0  0  0  0  0
   37.2910   31.4530   45.2960 C   0  0  0  0  0  0  0  0  0  0  0  0
   36.2690   30.5770   45.6760 C   0  0  0  0  0  0  0  0  0  0  0  0
   35.3180   29.5220   47.2180 H   0  0  0  0  0  0  0  0  0  0  0  0
   38.7320   31.9600   48.3350 H   0  0  0  0  0  0  0  0  0  0  0  0
   39.8270   33.2730   46.1920 H   0  0  0  0  0  0  0  0  0  0  0  0
   35.6050   30.2150   44.9050 H   0  0  0  0  0  0  0  0  0  0  0  0
   37.3840   30.0610   51.6520 C   0  0  0  0  0  0  0  0  0  0  0  0
   37.7080   30.4980   50.3790 C   0  0  0  0  0  0  0  0  0  0  0  0
   36.8320   30.2900   49.3460 C   0  0  0  0  0  0  0  0  0  0  0  0
   35.6520   29.6400   49.6490 N   0  0  0  0  0  0  0  0  0  0  0  0
   35.3360   29.2170   50.8810 C   0  0  0  0  0  0  0  0  0  0  0  0
   36.1900   29.4250   51.8670 N   0  0  0  0  0  0  0  0  0  0  0  0
   38.0950   30.2390   52.4470 H   0  0  0  0  0  0  0  0  0  0  0  0
   38.6240   31.0080   50.1170 H   0  0  0  0  0  0  0  0  0  0  0  0
   34.4000   28.7240   51.0200 H   0  0  0  0  0  0  0  0  0  0  0  0
   39.7630   31.6940   42.2390 N   0  0  0  0  0  0  0  0  0  0  0  0
   39.4740   33.1420   42.1370 C   0  0  1  0  0  0  0  0  0  0  0  0
   38.1770   33.3220   41.5090 C   0  0  0  0  0  0  0  0  0  0  0  0
   38.2550   32.8480   40.1860 O   0  0  0  0  0  0  0  0  0  0  0  0
   38.6710   31.5590   40.0520 C   0  0  0  0  0  0  0  0  0  0  0  0
   39.8940   31.2300   40.8780 C   0  0  2  0  0  0  0  0  0  0  0  0
   40.7280   31.7280   42.6640 H   0  0  0  0  0  0  0  0  0  0  0  0
   40.2550   33.6420   41.5400 H   0  0  0  0  0  0  0  0  0  0  0  0
   38.0320   34.4360   41.3620 H   0  0  0  0  0  0  0  0  0  0  0  0
   37.2570   32.9490   41.8650 H   0  0  0  0  0  0  0  0  0  0  0  0
   37.8630   30.8770   40.4060 H   0  0  0  0  0  0  0  0  0  0  0  0
   38.9150   31.4200   38.9820 H   0  0  0  0  0  0  0  0  0  0  0  0
   40.7770   31.7050   40.3720 H   0  0  0  0  0  0  0  0  0  0  0  0
   41.3730   29.9780   38.8110 F   0  0  0  0  0  0  0  0  0  0  0  0
   40.7770   29.2140   39.7470 C   0  0  0  0  0  0  0  0  0  0  0  0
   40.0320   29.7520   40.7970 C   0  0  0  0  0  0  0  0  0  0  0  0
   39.4590   28.8800   41.7090 C   0  0  0  0  0  0  0  0  0  0  0  0
   38.8730   29.2960   42.5350 H   0  0  0  0  0  0  0  0  0  0  0  0
   39.5910   27.5070   41.6270 C   0  0  0  0  0  0  0  0  0  0  0  0
   39.1440   26.8310   42.3390 H   0  0  0  0  0  0  0  0  0  0  0  0
   40.3430   27.0020   40.5650 C   0  0  0  0  0  3  0  0  0  0  0  0
   40.9210   27.8410   39.6510 C   0  0  0  0  0  3  0  0  0  0  0  0
  1  7  1  0  0  0  0
  2 11  1  0  0  0  0
  2  3  1  0  0  0  0
  3 17  1  0  0  0  0
  4  3  2  0  0  0  0
  4 12  1  0  0  0  0
  5  4  1  0  0  0  0
  6 13  1  0  0  0  0
  6  5  1  0  0  0  0
  7  6  1  0  0  0  0
  8  7  2  0  0  0  0
  8  9  1  0  0  0  0
  9 10  1  0  0  0  0
  9  5  2  0  0  0  0
 10  2  2  0  0  0  0
 14 10  1  0  0  0  0
 15 20  1  0  0  0  0
 15 21  1  0  0  0  0
 16 15  2  0  0  0  0
 17 18  2  0  0  0  0
 17 16  1  0  0  0  0
 18 19  1  0  0  0  0
 19 23  1  0  0  0  0
 19 20  2  0  0  0  0
 22 16  1  0  0  0  0
 24 30  1  0  0  0  0
 25 31  1  6  0  0  0
 25 24  1  0  0  0  0
 25  1  1  0  0  0  0
 26 33  1  0  0  0  0
 26 25  1  0  0  0  0
 27 26  1  0  0  0  0
 28 27  1  0  0  0  0
 28 34  1  0  0  0  0
 28 29  1  0  0  0  0
 29 36  1  6  0  0  0
 29 24  1  0  0  0  0
 32 26  1  0  0  0  0
 35 28  1  0  0  0  0
 37 38  1  0  0  0  0
 38 39  1  0  0  0  0
 39 29  1  0  0  0  0
 39 40  2  0  0  0  0
 40 41  1  0  0  0  0
 42 40  1  0  0  0  0
 42 43  1  0  0  0  0
 44 42  2  0  0  0  0
 45 38  2  0  0  0  0
 45 44  1  0  0  0  0
M  END
>  <minimizedAffinity>
-6.09354544

>  <minimizedRMSD>
1.00525391

$$$$
