
 OpenBabel03272510263D

 45 49  0  0  1  0  0  0  0  0999 V2000
   38.6930   32.6630   42.5730 O   0  0  0  0  0  0  0  0  0  0  0  0
   35.6360   30.0540   46.9130 C   0  0  0  0  0  0  0  0  0  0  0  0
   36.7130   30.4750   47.6540 C   0  0  0  0  0  0  0  0  0  0  0  0
   37.7710   31.1730   47.0470 C   0  0  0  0  0  0  0  0  0  0  0  0
   37.6780   31.4130   45.6960 C   0  0  0  0  0  0  0  0  0  0  0  0
   38.5680   32.0760   44.8970 N   0  0  0  0  0  0  0  0  0  0  0  0
   38.0370   32.0610   43.6600 C   0  0  0  0  0  0  0  0  0  0  0  0
   36.8810   31.4310   43.6560 N   0  0  0  0  0  0  0  0  0  0  0  0
   36.6110   31.0040   44.9200 C   0  0  0  0  0  0  0  0  0  0  0  0
   35.5730   30.3110   45.5500 C   0  0  0  0  0  0  0  0  0  0  0  0
   34.7930   29.5140   47.3250 H   0  0  0  0  0  0  0  0  0  0  0  0
   38.6350   31.5180   47.6040 H   0  0  0  0  0  0  0  0  0  0  0  0
   39.4780   32.5060   45.1910 H   0  0  0  0  0  0  0  0  0  0  0  0
   34.7390   29.9930   44.9410 H   0  0  0  0  0  0  0  0  0  0  0  0
   37.6290   30.2070   51.2960 C   0  0  0  0  0  0  0  0  0  0  0  0
   37.7570   30.5310   49.9560 C   0  0  0  0  0  0  0  0  0  0  0  0
   36.7540   30.2090   49.0800 C   0  0  0  0  0  0  0  0  0  0  0  0
   35.6510   29.5650   49.6020 N   0  0  0  0  0  0  0  0  0  0  0  0
   35.5230   29.2510   50.9000 C   0  0  0  0  0  0  0  0  0  0  0  0
   36.4980   29.5680   51.7340 N   0  0  0  0  0  0  0  0  0  0  0  0
   38.4360   30.4740   51.9640 H   0  0  0  0  0  0  0  0  0  0  0  0
   38.6110   31.0340   49.5230 H   0  0  0  0  0  0  0  0  0  0  0  0
   34.6330   28.7530   51.2130 H   0  0  0  0  0  0  0  0  0  0  0  0
   39.1710   30.4640   42.2090 N   0  0  0  0  0  0  0  0  0  0  0  0
   39.6090   31.8350   41.8620 C   0  0  1  0  0  0  0  0  0  0  0  0
   39.5140   32.0120   40.4240 C   0  0  0  0  0  0  0  0  0  0  0  0
   40.4360   31.1440   39.8090 O   0  0  0  0  0  0  0  0  0  0  0  0
   40.3050   29.8280   40.1340 C   0  0  0  0  0  0  0  0  0  0  0  0
   40.1530   29.5850   41.6180 C   0  0  2  0  0  0  0  0  0  0  0  0
   39.3320   30.4770   43.2510 H   0  0  0  0  0  0  0  0  0  0  0  0
   40.6470   31.9960   42.1950 H   0  0  0  0  0  0  0  0  0  0  0  0
   39.9440   33.0330   40.1860 H   0  0  0  0  0  0  0  0  0  0  0  0
   38.6400   31.9170   39.8410 H   0  0  0  0  0  0  0  0  0  0  0  0
   39.3810   29.4260   39.6570 H   0  0  0  0  0  0  0  0  0  0  0  0
   41.2250   29.3270   39.7830 H   0  0  0  0  0  0  0  0  0  0  0  0
   41.1620   29.7350   42.0870 H   0  0  0  0  0  0  0  0  0  0  0  0
   39.2230   28.4930   44.0610 F   0  0  0  0  0  0  0  0  0  0  0  0
   39.3240   27.6940   42.9800 C   0  0  0  0  0  0  0  0  0  0  0  0
   39.7740   28.1530   41.7410 C   0  0  0  0  0  0  0  0  0  0  0  0
   39.8420   27.2510   40.6920 C   0  0  0  0  0  0  0  0  0  0  0  0
   40.1940   27.6050   39.7180 H   0  0  0  0  0  0  0  0  0  0  0  0
   39.4880   25.9210   40.8160 C   0  0  0  0  0  0  0  0  0  0  0  0
   39.5420   25.2210   39.9970 H   0  0  0  0  0  0  0  0  0  0  0  0
   39.0430   25.4940   42.0680 C   0  0  0  0  0  3  0  0  0  0  0  0
   38.9660   26.3640   43.1210 C   0  0  0  0  0  3  0  0  0  0  0  0
  1  7  1  0  0  0  0
  2 11  1  0  0  0  0
  2  3  1  0  0  0  0
  3 17  1  0  0  0  0
  4 12  1  0  0  0  0
  4  3  2  0  0  0  0
  5  4  1  0  0  0  0
  6 13  1  0  0  0  0
  6  5  1  0  0  0  0
  7  6  1  0  0  0  0
  8  7  2  0  0  0  0
  8  9  1  0  0  0  0
  9 10  1  0  0  0  0
  9  5  2  0  0  0  0
 10  2  2  0  0  0  0
 14 10  1  0  0  0  0
 15 20  1  0  0  0  0
 15 21  1  0  0  0  0
 16 15  2  0  0  0  0
 17 18  2  0  0  0  0
 17 16  1  0  0  0  0
 18 19  1  0  0  0  0
 19 23  1  0  0  0  0
 19 20  2  0  0  0  0
 22 16  1  0  0  0  0
 24 30  1  0  0  0  0
 25 31  1  1  0  0  0
 25 24  1  0  0  0  0
 25  1  1  0  0  0  0
 26 25  1  0  0  0  0
 27 28  1  0  0  0  0
 27 26  1  0  0  0  0
 28 29  1  0  0  0  0
 29 39  1  0  0  0  0
 29 36  1  1  0  0  0
 29 24  1  0  0  0  0
 32 26  1  0  0  0  0
 33 26  1  0  0  0  0
 34 28  1  0  0  0  0
 35 28  1  0  0  0  0
 38 45  1  0  0  0  0
 38 37  1  0  0  0  0
 39 38  2  0  0  0  0
 40 42  2  0  0  0  0
 40 39  1  0  0  0  0
 41 40  1  0  0  0  0
 42 44  1  0  0  0  0
 43 42  1  0  0  0  0
 44 45  2  0  0  0  0
M  END
>  <minimizedAffinity>
-6.10533428

>  <minimizedRMSD>
1.90904307

$$$$
