
 OpenBabel03272510273D

 45 49  0  0  1  0  0  0  0  0999 V2000
   39.4690   33.5780   43.4470 O   0  0  0  0  0  0  0  0  0  0  0  0
   36.1480   30.1870   46.9780 C   0  0  0  0  0  0  0  0  0  0  0  0
   37.0080   30.6830   47.9280 C   0  0  0  0  0  0  0  0  0  0  0  0
   38.0350   31.5720   47.5710 C   0  0  0  0  0  0  0  0  0  0  0  0
   38.1390   31.9200   46.2440 C   0  0  0  0  0  0  0  0  0  0  0  0
   39.0420   32.7690   45.6660 N   0  0  0  0  0  0  0  0  0  0  0  0
   38.7370   32.7940   44.3540 C   0  0  0  0  0  0  0  0  0  0  0  0
   37.7070   32.0150   44.0990 N   0  0  0  0  0  0  0  0  0  0  0  0
   37.2940   31.4410   45.2610 C   0  0  0  0  0  0  0  0  0  0  0  0
   36.2800   30.5580   45.6450 C   0  0  0  0  0  0  0  0  0  0  0  0
   35.3400   29.5010   47.1920 H   0  0  0  0  0  0  0  0  0  0  0  0
   38.7290   31.9800   48.2970 H   0  0  0  0  0  0  0  0  0  0  0  0
   39.8120   33.2910   46.1480 H   0  0  0  0  0  0  0  0  0  0  0  0
   35.6200   30.1840   44.8760 H   0  0  0  0  0  0  0  0  0  0  0  0
   37.4020   30.0810   51.6230 C   0  0  0  0  0  0  0  0  0  0  0  0
   37.7210   30.5140   50.3480 C   0  0  0  0  0  0  0  0  0  0  0  0
   36.8450   30.2950   49.3170 C   0  0  0  0  0  0  0  0  0  0  0  0
   35.6700   29.6400   49.6240 N   0  0  0  0  0  0  0  0  0  0  0  0
   35.3580   29.2200   50.8580 C   0  0  0  0  0  0  0  0  0  0  0  0
   36.2120   29.4380   51.8430 N   0  0  0  0  0  0  0  0  0  0  0  0
   38.1120   30.2670   52.4170 H   0  0  0  0  0  0  0  0  0  0  0  0
   38.6340   31.0280   50.0830 H   0  0  0  0  0  0  0  0  0  0  0  0
   34.4250   28.7220   51.0010 H   0  0  0  0  0  0  0  0  0  0  0  0
   39.7630   31.7330   42.1410 N   0  0  0  0  0  0  0  0  0  0  0  0
   39.4120   33.1700   42.0830 C   0  0  1  0  0  0  0  0  0  0  0  0
   38.0820   33.3100   41.5180 C   0  0  0  0  0  0  0  0  0  0  0  0
   38.1190   32.8660   40.1830 O   0  0  0  0  0  0  0  0  0  0  0  0
   38.5790   31.5980   40.0020 C   0  0  0  0  0  0  0  0  0  0  0  0
   39.8500   31.3020   40.7660 C   0  0  2  0  0  0  0  0  0  0  0  0
   40.7430   31.7980   42.5240 H   0  0  0  0  0  0  0  0  0  0  0  0
   40.1450   33.7140   41.4640 H   0  0  0  0  0  0  0  0  0  0  0  0
   37.8860   34.4200   41.4020 H   0  0  0  0  0  0  0  0  0  0  0  0
   37.1940   32.8930   41.9060 H   0  0  0  0  0  0  0  0  0  0  0  0
   37.8160   30.8770   40.3770 H   0  0  0  0  0  0  0  0  0  0  0  0
   38.7800   31.4900   38.9200 H   0  0  0  0  0  0  0  0  0  0  0  0
   40.6900   31.8230   40.2320 H   0  0  0  0  0  0  0  0  0  0  0  0
   38.2020   29.4630   42.1550 F   0  0  0  0  0  0  0  0  0  0  0  0
   39.1880   28.9960   41.3640 C   0  0  0  0  0  0  0  0  0  0  0  0
   40.0430   29.8330   40.6470 C   0  0  0  0  0  0  0  0  0  0  0  0
   41.0260   29.2510   39.8620 C   0  0  0  0  0  0  0  0  0  0  0  0
   41.6990   29.9030   39.2980 H   0  0  0  0  0  0  0  0  0  0  0  0
   41.1990   27.8850   39.7580 C   0  0  0  0  0  0  0  0  0  0  0  0
   41.9650   27.4360   39.1450 H   0  0  0  0  0  0  0  0  0  0  0  0
   40.3270   27.0750   40.4880 C   0  0  0  0  0  3  0  0  0  0  0  0
   39.3470   27.6240   41.2700 C   0  0  0  0  0  3  0  0  0  0  0  0
  1  7  1  0  0  0  0
  2 11  1  0  0  0  0
  2  3  1  0  0  0  0
  3 17  1  0  0  0  0
  4  3  2  0  0  0  0
  4 12  1  0  0  0  0
  5  4  1  0  0  0  0
  6 13  1  0  0  0  0
  6  5  1  0  0  0  0
  7  6  1  0  0  0  0
  8  7  2  0  0  0  0
  8  9  1  0  0  0  0
  9 10  1  0  0  0  0
  9  5  2  0  0  0  0
 10  2  2  0  0  0  0
 14 10  1  0  0  0  0
 15 20  1  0  0  0  0
 15 21  1  0  0  0  0
 16 15  2  0  0  0  0
 17 18  2  0  0  0  0
 17 16  1  0  0  0  0
 18 19  1  0  0  0  0
 19 23  1  0  0  0  0
 19 20  2  0  0  0  0
 22 16  1  0  0  0  0
 24 30  1  0  0  0  0
 25 31  1  6  0  0  0
 25 24  1  0  0  0  0
 25  1  1  0  0  0  0
 26 33  1  0  0  0  0
 26 25  1  0  0  0  0
 27 26  1  0  0  0  0
 28 27  1  0  0  0  0
 28 34  1  0  0  0  0
 28 29  1  0  0  0  0
 29 36  1  6  0  0  0
 29 24  1  0  0  0  0
 32 26  1  0  0  0  0
 35 28  1  0  0  0  0
 38 37  1  0  0  0  0
 39 29  1  0  0  0  0
 39 38  2  0  0  0  0
 40 39  1  0  0  0  0
 41 40  1  0  0  0  0
 42 40  2  0  0  0  0
 42 44  1  0  0  0  0
 43 42  1  0  0  0  0
 44 45  2  0  0  0  0
 45 38  1  0  0  0  0
M  END
>  <minimizedAffinity>
-6.12224674

>  <minimizedRMSD>
0.526005387

$$$$
