
 OpenBabel03272510263D

 45 49  0  0  1  0  0  0  0  0999 V2000
   39.4970   33.5850   43.5000 O   0  0  0  0  0  0  0  0  0  0  0  0
   36.1400   30.2020   47.0050 C   0  0  0  0  0  0  0  0  0  0  0  0
   37.0020   30.6860   47.9600 C   0  0  0  0  0  0  0  0  0  0  0  0
   38.0380   31.5680   47.6100 C   0  0  0  0  0  0  0  0  0  0  0  0
   38.1470   31.9220   46.2850 C   0  0  0  0  0  0  0  0  0  0  0  0
   39.0580   32.7670   45.7130 N   0  0  0  0  0  0  0  0  0  0  0  0
   38.7560   32.8030   44.4010 C   0  0  0  0  0  0  0  0  0  0  0  0
   37.7200   32.0330   44.1400 N   0  0  0  0  0  0  0  0  0  0  0  0
   37.3000   31.4570   45.2980 C   0  0  0  0  0  0  0  0  0  0  0  0
   36.2780   30.5790   45.6750 C   0  0  0  0  0  0  0  0  0  0  0  0
   35.3260   29.5220   47.2140 H   0  0  0  0  0  0  0  0  0  0  0  0
   38.7340   31.9650   48.3400 H   0  0  0  0  0  0  0  0  0  0  0  0
   39.8310   33.2800   46.2000 H   0  0  0  0  0  0  0  0  0  0  0  0
   35.6170   30.2160   44.9020 H   0  0  0  0  0  0  0  0  0  0  0  0
   37.3830   30.0600   51.6520 C   0  0  0  0  0  0  0  0  0  0  0  0
   37.7090   30.4980   50.3800 C   0  0  0  0  0  0  0  0  0  0  0  0
   36.8340   30.2910   49.3460 C   0  0  0  0  0  0  0  0  0  0  0  0
   35.6530   29.6420   49.6470 N   0  0  0  0  0  0  0  0  0  0  0  0
   35.3350   29.2180   50.8780 C   0  0  0  0  0  0  0  0  0  0  0  0
   36.1880   29.4240   51.8660 N   0  0  0  0  0  0  0  0  0  0  0  0
   38.0930   30.2370   52.4490 H   0  0  0  0  0  0  0  0  0  0  0  0
   38.6260   31.0070   50.1200 H   0  0  0  0  0  0  0  0  0  0  0  0
   34.3990   28.7250   51.0160 H   0  0  0  0  0  0  0  0  0  0  0  0
   39.7700   31.7020   42.2460 N   0  0  0  0  0  0  0  0  0  0  0  0
   39.4870   33.1510   42.1440 C   0  0  1  0  0  0  0  0  0  0  0  0
   38.1920   33.3360   41.5120 C   0  0  0  0  0  0  0  0  0  0  0  0
   38.2730   32.8630   40.1890 O   0  0  0  0  0  0  0  0  0  0  0  0
   38.6850   31.5720   40.0550 C   0  0  0  0  0  0  0  0  0  0  0  0
   39.9040   31.2390   40.8850 C   0  0  2  0  0  0  0  0  0  0  0  0
   40.7340   31.7330   42.6740 H   0  0  0  0  0  0  0  0  0  0  0  0
   40.2710   33.6490   41.5500 H   0  0  0  0  0  0  0  0  0  0  0  0
   38.0510   34.4510   41.3650 H   0  0  0  0  0  0  0  0  0  0  0  0
   37.2690   32.9660   41.8650 H   0  0  0  0  0  0  0  0  0  0  0  0
   37.8730   30.8930   40.4060 H   0  0  0  0  0  0  0  0  0  0  0  0
   38.9320   31.4330   38.9860 H   0  0  0  0  0  0  0  0  0  0  0  0
   40.7900   31.7110   40.3830 H   0  0  0  0  0  0  0  0  0  0  0  0
   41.4290   29.9850   38.8510 F   0  0  0  0  0  0  0  0  0  0  0  0
   40.8060   29.2220   39.7710 C   0  0  0  0  0  0  0  0  0  0  0  0
   40.0370   29.7600   40.8030 C   0  0  0  0  0  0  0  0  0  0  0  0
   39.4380   28.8880   41.6970 C   0  0  0  0  0  0  0  0  0  0  0  0
   38.8330   29.3050   42.5100 H   0  0  0  0  0  0  0  0  0  0  0  0
   39.5660   27.5160   41.6160 C   0  0  0  0  0  0  0  0  0  0  0  0
   39.0980   26.8390   42.3160 H   0  0  0  0  0  0  0  0  0  0  0  0
   40.3430   27.0100   40.5720 C   0  0  0  0  0  3  0  0  0  0  0  0
   40.9460   27.8490   39.6740 C   0  0  0  0  0  3  0  0  0  0  0  0
  1  7  1  0  0  0  0
  2 11  1  0  0  0  0
  2  3  1  0  0  0  0
  3 17  1  0  0  0  0
  4  3  2  0  0  0  0
  4 12  1  0  0  0  0
  5  4  1  0  0  0  0
  6 13  1  0  0  0  0
  6  5  1  0  0  0  0
  7  6  1  0  0  0  0
  8  7  2  0  0  0  0
  8  9  1  0  0  0  0
  9 10  1  0  0  0  0
  9  5  2  0  0  0  0
 10  2  2  0  0  0  0
 14 10  1  0  0  0  0
 15 20  1  0  0  0  0
 15 21  1  0  0  0  0
 16 15  2  0  0  0  0
 17 18  2  0  0  0  0
 17 16  1  0  0  0  0
 18 19  1  0  0  0  0
 19 23  1  0  0  0  0
 19 20  2  0  0  0  0
 22 16  1  0  0  0  0
 24 30  1  0  0  0  0
 25 31  1  6  0  0  0
 25 24  1  0  0  0  0
 25  1  1  0  0  0  0
 26 33  1  0  0  0  0
 26 25  1  0  0  0  0
 27 26  1  0  0  0  0
 28 27  1  0  0  0  0
 28 34  1  0  0  0  0
 28 29  1  0  0  0  0
 29 36  1  6  0  0  0
 29 24  1  0  0  0  0
 32 26  1  0  0  0  0
 35 28  1  0  0  0  0
 37 38  1  0  0  0  0
 38 39  1  0  0  0  0
 39 29  1  0  0  0  0
 39 40  2  0  0  0  0
 40 41  1  0  0  0  0
 42 40  1  0  0  0  0
 42 43  1  0  0  0  0
 44 42  2  0  0  0  0
 45 38  2  0  0  0  0
 45 44  1  0  0  0  0
M  END
>  <minimizedAffinity>
-6.09426975

>  <minimizedRMSD>
0.684213996

$$$$
