
 OpenBabel03272500083D

 39 42  0  0  0  0  0  0  0  0999 V2000
   32.3230   27.1110   48.0070 O   0  0  0  0  0  0  0  0  0  0  0  0
   31.0190   27.5320   48.2630 C   0  0  0  0  0  0  0  0  0  0  0  0
   30.7530   27.7660   49.5960 C   0  0  0  0  0  0  0  0  0  0  0  0
   29.4990   28.1870   49.9960 C   0  0  0  0  0  0  0  0  0  0  0  0
   28.5100   28.3730   49.0410 C   0  0  0  0  0  0  0  0  0  0  0  0
   28.7920   28.1340   47.7040 C   0  0  0  0  0  0  0  0  0  0  0  0
   30.0300   27.7190   47.3340 C   0  0  0  0  0  0  0  0  0  0  0  0
   31.4850   27.6390   50.3870 H   0  0  0  0  0  0  0  0  0  0  0  0
   29.2970   28.3710   51.0520 H   0  0  0  0  0  0  0  0  0  0  0  0
   27.5180   28.7030   49.3220 H   0  0  0  0  0  0  0  0  0  0  0  0
   28.0210   28.2780   46.9520 H   0  0  0  0  0  0  0  0  0  0  0  0
   29.4230   25.2180   46.4440 F   0  0  0  0  0  0  0  0  0  0  0  0
   29.9710   26.1520   45.6070 C   0  0  0  0  0  0  0  0  0  0  0  0
   30.3290   27.4640   45.9440 C   0  0  0  0  0  0  0  0  0  0  0  0
   30.8690   28.2420   44.9390 C   0  0  0  0  0  0  0  0  0  0  0  0
   31.1020   29.2410   45.3300 H   0  0  0  0  0  0  0  0  0  0  0  0
   31.0430   27.7440   43.6800 C   0  0  0  0  0  0  0  0  0  0  0  0
   31.4790   28.4840   43.0120 H   0  0  0  0  0  0  0  0  0  0  0  0
   30.6970   26.4680   43.3530 C   0  0  0  0  0  0  0  0  0  0  0  0
   30.1560   25.6600   44.3170 C   0  0  0  0  0  0  0  0  0  0  0  0
   35.3160   28.8120   49.0540 C   0  0  0  0  0  0  0  0  0  0  0  0
   35.2810   30.0030   48.3300 C   0  0  0  0  0  0  0  0  0  0  0  0
   34.1850   30.1970   47.4670 C   0  0  0  0  0  0  0  0  0  0  0  0
   33.2430   29.2190   47.3970 N   0  0  0  0  0  0  0  0  0  0  0  0
   33.3070   28.0910   48.1040 C   0  0  0  0  0  0  0  0  0  0  0  0
   34.3550   27.8780   48.9460 N   0  0  0  0  0  0  0  0  0  0  0  0
   36.1480   28.6360   49.7280 H   0  0  0  0  0  0  0  0  0  0  0  0
   34.1520   31.1220   46.9010 H   0  0  0  0  0  0  0  0  0  0  0  0
   36.3270   30.9370   48.4960 N   0  0  0  0  0  0  0  0  0  0  0  0
   36.5270   31.5860   49.6390 C   0  0  0  0  0  0  0  0  0  0  0  0
   37.5780   32.5010   49.7310 C   0  0  0  0  0  0  0  0  0  0  0  0
   38.3270   32.6510   48.6090 C   0  0  0  0  0  0  0  0  0  0  0  0
   39.2800   33.4780   48.6820 O   0  0  0  0  0  0  0  0  0  0  0  0
   38.1600   32.0270   47.4600 N   0  0  0  0  0  0  0  0  0  0  0  0
   37.1240   31.1350   47.3940 C   0  0  0  0  0  0  0  0  0  0  0  0
   36.9460   30.5240   46.2950 O   0  0  0  0  0  0  0  0  0  0  0  0
   35.8770   31.4060   50.4960 H   0  0  0  0  0  0  0  0  0  0  0  0
   37.7680   33.0440   50.6440 H   0  0  0  0  0  0  0  0  0  0  0  0
   38.7520   32.1570   46.6030 H   0  0  0  0  0  0  0  0  0  0  0  0
  1 25  1  0  0  0  0
  1  2  1  0  0  0  0
  2  3  1  0  0  0  0
  3  4  2  0  0  0  0
  3  8  1  0  0  0  0
  4  9  1  0  0  0  0
  5 10  1  0  0  0  0
  5  4  1  0  0  0  0
  6  5  2  0  0  0  0
  7  6  1  0  0  0  0
  7  2  2  0  0  0  0
 11  6  1  0  0  0  0
 13 14  1  0  0  0  0
 13 12  1  0  0  0  0
 14  7  1  0  0  0  0
 15 16  1  0  0  0  0
 15 14  2  0  0  0  0
 17 15  1  0  0  0  0
 18 17  1  0  0  0  0
 19 17  2  0  0  0  0
 19 20  1  0  0  0  0
 20 13  2  0  0  0  0
 21 27  1  0  0  0  0
 22 29  1  0  0  0  0
 22 21  2  0  0  0  0
 23 22  1  0  0  0  0
 24 23  2  0  0  0  0
 24 25  1  0  0  0  0
 25 26  2  0  0  0  0
 26 21  1  0  0  0  0
 28 23  1  0  0  0  0
 29 30  1  0  0  0  0
 30 31  2  0  0  0  0
 30 37  1  0  0  0  0
 31 38  1  0  0  0  0
 32 33  2  0  0  0  0
 32 31  1  0  0  0  0
 34 32  1  0  0  0  0
 35 34  1  0  0  0  0
 35 29  1  0  0  0  0
 36 35  2  0  0  0  0
 39 34  1  0  0  0  0
M  END
>  <minimizedAffinity>
-5.88509083

>  <minimizedRMSD>
0.870027661

$$$$
