
 OpenBabel03272510273D

 45 49  0  0  1  0  0  0  0  0999 V2000
   39.4920   33.5780   43.4950 O   0  0  0  0  0  0  0  0  0  0  0  0
   36.1350   30.2030   47.0070 C   0  0  0  0  0  0  0  0  0  0  0  0
   37.0000   30.6840   47.9600 C   0  0  0  0  0  0  0  0  0  0  0  0
   38.0360   31.5650   47.6080 C   0  0  0  0  0  0  0  0  0  0  0  0
   38.1440   31.9180   46.2830 C   0  0  0  0  0  0  0  0  0  0  0  0
   39.0550   32.7610   45.7090 N   0  0  0  0  0  0  0  0  0  0  0  0
   38.7510   32.7970   44.3980 C   0  0  0  0  0  0  0  0  0  0  0  0
   37.7140   32.0300   44.1380 N   0  0  0  0  0  0  0  0  0  0  0  0
   37.2940   31.4540   45.2970 C   0  0  0  0  0  0  0  0  0  0  0  0
   36.2720   30.5790   45.6760 C   0  0  0  0  0  0  0  0  0  0  0  0
   35.3200   29.5240   47.2170 H   0  0  0  0  0  0  0  0  0  0  0  0
   38.7340   31.9610   48.3370 H   0  0  0  0  0  0  0  0  0  0  0  0
   39.8310   33.2730   46.1940 H   0  0  0  0  0  0  0  0  0  0  0  0
   35.6080   30.2170   44.9050 H   0  0  0  0  0  0  0  0  0  0  0  0
   37.3850   30.0610   51.6520 C   0  0  0  0  0  0  0  0  0  0  0  0
   37.7090   30.4990   50.3800 C   0  0  0  0  0  0  0  0  0  0  0  0
   36.8330   30.2900   49.3470 C   0  0  0  0  0  0  0  0  0  0  0  0
   35.6530   29.6410   49.6480 N   0  0  0  0  0  0  0  0  0  0  0  0
   35.3370   29.2170   50.8810 C   0  0  0  0  0  0  0  0  0  0  0  0
   36.1900   29.4250   51.8680 N   0  0  0  0  0  0  0  0  0  0  0  0
   38.0950   30.2390   52.4490 H   0  0  0  0  0  0  0  0  0  0  0  0
   38.6250   31.0090   50.1180 H   0  0  0  0  0  0  0  0  0  0  0  0
   34.4010   28.7240   51.0190 H   0  0  0  0  0  0  0  0  0  0  0  0
   39.7670   31.6950   42.2400 N   0  0  0  0  0  0  0  0  0  0  0  0
   39.4790   33.1440   42.1390 C   0  0  1  0  0  0  0  0  0  0  0  0
   38.1810   33.3250   41.5110 C   0  0  0  0  0  0  0  0  0  0  0  0
   38.2590   32.8520   40.1880 O   0  0  0  0  0  0  0  0  0  0  0  0
   38.6750   31.5620   40.0530 C   0  0  0  0  0  0  0  0  0  0  0  0
   39.8970   31.2320   40.8790 C   0  0  2  0  0  0  0  0  0  0  0  0
   40.7310   31.7290   42.6660 H   0  0  0  0  0  0  0  0  0  0  0  0
   40.2600   33.6440   41.5430 H   0  0  0  0  0  0  0  0  0  0  0  0
   38.0370   34.4400   41.3640 H   0  0  0  0  0  0  0  0  0  0  0  0
   37.2610   32.9530   41.8670 H   0  0  0  0  0  0  0  0  0  0  0  0
   37.8660   30.8810   40.4070 H   0  0  0  0  0  0  0  0  0  0  0  0
   38.9190   31.4230   38.9840 H   0  0  0  0  0  0  0  0  0  0  0  0
   40.7800   31.7070   40.3740 H   0  0  0  0  0  0  0  0  0  0  0  0
   41.3780   29.9800   38.8120 F   0  0  0  0  0  0  0  0  0  0  0  0
   40.7810   29.2170   39.7480 C   0  0  0  0  0  0  0  0  0  0  0  0
   40.0340   29.7540   40.7980 C   0  0  0  0  0  0  0  0  0  0  0  0
   39.4600   28.8820   41.7080 C   0  0  0  0  0  0  0  0  0  0  0  0
   38.8730   29.2970   42.5330 H   0  0  0  0  0  0  0  0  0  0  0  0
   39.5920   27.5090   41.6260 C   0  0  0  0  0  0  0  0  0  0  0  0
   39.1430   26.8330   42.3370 H   0  0  0  0  0  0  0  0  0  0  0  0
   40.3440   27.0050   40.5640 C   0  0  0  0  0  3  0  0  0  0  0  0
   40.9220   27.8440   39.6510 C   0  0  0  0  0  3  0  0  0  0  0  0
  1  7  1  0  0  0  0
  2 11  1  0  0  0  0
  2  3  1  0  0  0  0
  3 17  1  0  0  0  0
  4  3  2  0  0  0  0
  4 12  1  0  0  0  0
  5  4  1  0  0  0  0
  6 13  1  0  0  0  0
  6  5  1  0  0  0  0
  7  6  1  0  0  0  0
  8  7  2  0  0  0  0
  8  9  1  0  0  0  0
  9 10  1  0  0  0  0
  9  5  2  0  0  0  0
 10  2  2  0  0  0  0
 14 10  1  0  0  0  0
 15 20  1  0  0  0  0
 15 21  1  0  0  0  0
 16 15  2  0  0  0  0
 17 18  2  0  0  0  0
 17 16  1  0  0  0  0
 18 19  1  0  0  0  0
 19 23  1  0  0  0  0
 19 20  2  0  0  0  0
 22 16  1  0  0  0  0
 24 30  1  0  0  0  0
 25 31  1  6  0  0  0
 25 24  1  0  0  0  0
 25  1  1  0  0  0  0
 26 33  1  0  0  0  0
 26 25  1  0  0  0  0
 27 26  1  0  0  0  0
 28 27  1  0  0  0  0
 28 34  1  0  0  0  0
 28 29  1  0  0  0  0
 29 36  1  6  0  0  0
 29 24  1  0  0  0  0
 32 26  1  0  0  0  0
 35 28  1  0  0  0  0
 37 38  1  0  0  0  0
 38 39  1  0  0  0  0
 39 29  1  0  0  0  0
 39 40  2  0  0  0  0
 40 41  1  0  0  0  0
 42 40  1  0  0  0  0
 42 43  1  0  0  0  0
 44 42  2  0  0  0  0
 45 38  2  0  0  0  0
 45 44  1  0  0  0  0
M  END
>  <minimizedAffinity>
-6.09261179

>  <minimizedRMSD>
0.913662791

$$$$
