
 OpenBabel03272510273D

 45 49  0  0  1  0  0  0  0  0999 V2000
   39.4590   33.5750   43.4460 O   0  0  0  0  0  0  0  0  0  0  0  0
   36.1430   30.1810   46.9780 C   0  0  0  0  0  0  0  0  0  0  0  0
   37.0020   30.6790   47.9280 C   0  0  0  0  0  0  0  0  0  0  0  0
   38.0280   31.5690   47.5710 C   0  0  0  0  0  0  0  0  0  0  0  0
   38.1310   31.9160   46.2440 C   0  0  0  0  0  0  0  0  0  0  0  0
   39.0330   32.7660   45.6650 N   0  0  0  0  0  0  0  0  0  0  0  0
   38.7280   32.7910   44.3540 C   0  0  0  0  0  0  0  0  0  0  0  0
   37.6990   32.0100   44.0990 N   0  0  0  0  0  0  0  0  0  0  0  0
   37.2860   31.4360   45.2620 C   0  0  0  0  0  0  0  0  0  0  0  0
   36.2740   30.5520   45.6460 C   0  0  0  0  0  0  0  0  0  0  0  0
   35.3350   29.4940   47.1930 H   0  0  0  0  0  0  0  0  0  0  0  0
   38.7220   31.9770   48.2970 H   0  0  0  0  0  0  0  0  0  0  0  0
   39.8020   33.2900   46.1470 H   0  0  0  0  0  0  0  0  0  0  0  0
   35.6150   30.1770   44.8770 H   0  0  0  0  0  0  0  0  0  0  0  0
   37.3990   30.0750   51.6230 C   0  0  0  0  0  0  0  0  0  0  0  0
   37.7180   30.5070   50.3470 C   0  0  0  0  0  0  0  0  0  0  0  0
   36.8400   30.2910   49.3180 C   0  0  0  0  0  0  0  0  0  0  0  0
   35.6630   29.6390   49.6260 N   0  0  0  0  0  0  0  0  0  0  0  0
   35.3510   29.2200   50.8610 C   0  0  0  0  0  0  0  0  0  0  0  0
   36.2070   29.4350   51.8440 N   0  0  0  0  0  0  0  0  0  0  0  0
   38.1110   30.2590   52.4160 H   0  0  0  0  0  0  0  0  0  0  0  0
   38.6320   31.0190   50.0810 H   0  0  0  0  0  0  0  0  0  0  0  0
   34.4170   28.7250   51.0050 H   0  0  0  0  0  0  0  0  0  0  0  0
   39.7560   31.7300   42.1410 N   0  0  0  0  0  0  0  0  0  0  0  0
   39.4020   33.1670   42.0830 C   0  0  1  0  0  0  0  0  0  0  0  0
   38.0710   33.3040   41.5180 C   0  0  0  0  0  0  0  0  0  0  0  0
   38.1080   32.8600   40.1830 O   0  0  0  0  0  0  0  0  0  0  0  0
   38.5710   31.5920   40.0020 C   0  0  0  0  0  0  0  0  0  0  0  0
   39.8430   31.2990   40.7650 C   0  0  2  0  0  0  0  0  0  0  0  0
   40.7360   31.7970   42.5230 H   0  0  0  0  0  0  0  0  0  0  0  0
   40.1340   33.7120   41.4630 H   0  0  0  0  0  0  0  0  0  0  0  0
   37.8730   34.4140   41.4020 H   0  0  0  0  0  0  0  0  0  0  0  0
   37.1840   32.8850   41.9070 H   0  0  0  0  0  0  0  0  0  0  0  0
   37.8090   30.8700   40.3780 H   0  0  0  0  0  0  0  0  0  0  0  0
   38.7720   31.4850   38.9200 H   0  0  0  0  0  0  0  0  0  0  0  0
   40.6810   31.8220   40.2310 H   0  0  0  0  0  0  0  0  0  0  0  0
   38.2010   29.4580   42.1580 F   0  0  0  0  0  0  0  0  0  0  0  0
   39.1860   28.9920   41.3660 C   0  0  0  0  0  0  0  0  0  0  0  0
   40.0380   29.8310   40.6460 C   0  0  0  0  0  0  0  0  0  0  0  0
   41.0200   29.2510   39.8610 C   0  0  0  0  0  0  0  0  0  0  0  0
   41.6920   29.9040   39.2940 H   0  0  0  0  0  0  0  0  0  0  0  0
   41.1960   27.8840   39.7560 C   0  0  0  0  0  0  0  0  0  0  0  0
   41.9630   27.4360   39.1420 H   0  0  0  0  0  0  0  0  0  0  0  0
   40.3270   27.0730   40.4880 C   0  0  0  0  0  3  0  0  0  0  0  0
   39.3480   27.6200   41.2720 C   0  0  0  0  0  3  0  0  0  0  0  0
  1  7  1  0  0  0  0
  2 11  1  0  0  0  0
  2  3  1  0  0  0  0
  3 17  1  0  0  0  0
  4  3  2  0  0  0  0
  4 12  1  0  0  0  0
  5  4  1  0  0  0  0
  6 13  1  0  0  0  0
  6  5  1  0  0  0  0
  7  6  1  0  0  0  0
  8  7  2  0  0  0  0
  8  9  1  0  0  0  0
  9 10  1  0  0  0  0
  9  5  2  0  0  0  0
 10  2  2  0  0  0  0
 14 10  1  0  0  0  0
 15 20  1  0  0  0  0
 15 21  1  0  0  0  0
 16 15  2  0  0  0  0
 17 18  2  0  0  0  0
 17 16  1  0  0  0  0
 18 19  1  0  0  0  0
 19 23  1  0  0  0  0
 19 20  2  0  0  0  0
 22 16  1  0  0  0  0
 24 30  1  0  0  0  0
 25 31  1  6  0  0  0
 25 24  1  0  0  0  0
 25  1  1  0  0  0  0
 26 33  1  0  0  0  0
 26 25  1  0  0  0  0
 27 26  1  0  0  0  0
 28 27  1  0  0  0  0
 28 34  1  0  0  0  0
 28 29  1  0  0  0  0
 29 36  1  6  0  0  0
 29 24  1  0  0  0  0
 32 26  1  0  0  0  0
 35 28  1  0  0  0  0
 38 37  1  0  0  0  0
 39 29  1  0  0  0  0
 39 38  2  0  0  0  0
 40 39  1  0  0  0  0
 41 40  1  0  0  0  0
 42 40  2  0  0  0  0
 42 44  1  0  0  0  0
 43 42  1  0  0  0  0
 44 45  2  0  0  0  0
 45 38  1  0  0  0  0
M  END
>  <minimizedAffinity>
-6.12406826

>  <minimizedRMSD>
0.629294395

$$$$
