
 OpenBabel03272509143D

 40 43  0  0  1  0  0  0  0  0999 V2000
   40.4920   24.6560   33.5040 N   0  0  0  0  0  0  0  0  0  0  0  0
   41.9250   24.3590   33.7630 C   0  0  0  0  0  0  0  0  0  0  0  0
   42.1820   25.1970   35.0090 C   0  0  0  0  0  0  0  0  0  0  0  0
   41.3310   26.4230   34.7960 C   0  0  0  0  0  0  0  0  0  0  0  0
   40.4860   26.1080   33.5730 C   0  0  2  0  0  0  0  0  0  0  0  0
   42.4560   24.7420   32.8790 H   0  0  0  0  0  0  0  0  0  0  0  0
   42.0490   23.2880   33.9520 H   0  0  0  0  0  0  0  0  0  0  0  0
   41.8970   24.6310   35.9020 H   0  0  0  0  0  0  0  0  0  0  0  0
   43.2460   25.5090   34.9860 H   0  0  0  0  0  0  0  0  0  0  0  0
   40.6870   26.5970   35.6870 H   0  0  0  0  0  0  0  0  0  0  0  0
   41.9460   27.3440   34.6470 H   0  0  0  0  0  0  0  0  0  0  0  0
   41.0260   26.4620   32.6780 H   0  0  0  0  0  0  0  0  0  0  0  0
   39.2500   27.0920   31.3010 F   0  0  0  0  0  0  0  0  0  0  0  0
   38.5890   27.1910   32.5010 C   0  0  0  0  0  0  0  0  0  0  0  0
   39.1400   26.7110   33.6960 C   0  0  0  0  0  0  0  0  0  0  0  0
   38.3700   26.8750   34.8250 C   0  0  0  0  0  0  0  0  0  0  0  0
   38.8130   26.5070   35.7390 H   0  0  0  0  0  0  0  0  0  0  0  0
   37.1330   27.4800   34.7540 C   0  0  0  0  0  0  0  0  0  0  0  0
   36.5710   27.5800   35.6880 H   0  0  0  0  0  0  0  0  0  0  0  0
   36.5890   27.9510   33.5900 C   0  0  0  0  0  3  0  0  0  0  0  0
   37.3530   27.7910   32.4590 C   0  0  0  0  0  3  0  0  0  0  0  0
   38.9380   23.8460   31.8710 C   0  0  0  0  0  0  0  0  0  0  0  0
   39.3150   23.9130   33.2490 C   0  0  0  0  0  0  0  0  0  0  0  0
   38.4810   23.2690   34.1750 C   0  0  0  0  0  0  0  0  0  0  0  0
   37.3690   22.6240   33.7290 N   0  0  0  0  0  0  0  0  0  0  0  0
   37.0550   22.5920   32.4150 C   0  0  0  0  0  0  0  0  0  0  0  0
   37.8240   23.1910   31.5020 N   0  0  0  0  0  0  0  0  0  0  0  0
   39.5280   24.3110   31.0950 H   0  0  0  0  0  0  0  0  0  0  0  0
   36.1770   22.0900   32.0130 H   0  0  0  0  0  0  0  0  0  0  0  0
   38.7750   23.2640   35.5790 C   0  0  0  0  0  0  0  0  0  0  0  0
   37.9660   23.9710   36.4380 C   0  0  0  0  0  0  0  0  0  0  0  0
   38.1620   24.0270   37.8020 C   0  0  0  0  0  0  0  0  0  0  0  0
   39.2440   23.3160   38.2940 C   0  0  0  0  0  0  0  0  0  0  0  0
   40.1070   22.5770   37.4960 C   0  0  0  0  0  0  0  0  0  0  0  0
   39.8340   22.5770   36.1200 C   0  0  0  0  0  0  0  0  0  0  0  0
   37.1160   24.5240   36.0100 H   0  0  0  0  0  0  0  0  0  0  0  0
   37.4830   24.6010   38.3840 H   0  0  0  0  0  0  0  0  0  0  0  0
   39.3980   23.3600   39.3700 H   0  0  0  0  0  0  0  0  0  0  0  0
   40.9260   22.0510   37.9460 H   0  0  0  0  0  0  0  0  0  0  0  0
   40.4960   22.0060   35.4840 H   0  0  0  0  0  0  0  0  0  0  0  0
  1  5  1  0  0  0  0
  1  2  1  0  0  0  0
  2  7  1  0  0  0  0
  2  3  1  0  0  0  0
  3  8  1  0  0  0  0
  4  3  1  0  0  0  0
  4 10  1  0  0  0  0
  5 12  1  6  0  0  0
  5 15  1  0  0  0  0
  5  4  1  0  0  0  0
  6  2  1  0  0  0  0
  9  3  1  0  0  0  0
 11  4  1  0  0  0  0
 13 14  1  0  0  0  0
 14 15  1  0  0  0  0
 15 16  2  0  0  0  0
 16 17  1  0  0  0  0
 18 16  1  0  0  0  0
 18 19  1  0  0  0  0
 20 18  2  0  0  0  0
 21 14  2  0  0  0  0
 21 20  1  0  0  0  0
 22 23  1  0  0  0  0
 23  1  1  0  0  0  0
 23 24  2  0  0  0  0
 24 30  1  0  0  0  0
 25 24  1  0  0  0  0
 26 25  2  0  0  0  0
 27 22  2  0  0  0  0
 27 26  1  0  0  0  0
 28 22  1  0  0  0  0
 29 26  1  0  0  0  0
 30 35  2  0  0  0  0
 30 31  1  0  0  0  0
 31 32  2  0  0  0  0
 32 33  1  0  0  0  0
 32 37  1  0  0  0  0
 33 38  1  0  0  0  0
 34 39  1  0  0  0  0
 34 33  2  0  0  0  0
 35 34  1  0  0  0  0
 36 31  1  0  0  0  0
 40 35  1  0  0  0  0
M  END
>  <minimizedAffinity>
-5.74289274

$$$$

 OpenBabel03272509143D

 40 43  0  0  1  0  0  0  0  0999 V2000
   39.5740   26.6330   32.9670 N   0  0  0  0  0  0  0  0  0  0  0  0
   40.5650   27.5030   32.2810 C   0  0  0  0  0  0  0  0  0  0  0  0
   41.8680   27.0180   32.9020 C   0  0  0  0  0  0  0  0  0  0  0  0
   41.4860   26.6890   34.3230 C   0  0  0  0  0  0  0  0  0  0  0  0
   39.9700   26.7930   34.3560 C   0  0  2  0  0  0  0  0  0  0  0  0
   40.3040   28.5260   32.5930 H   0  0  0  0  0  0  0  0  0  0  0  0
   40.5280   27.3230   31.2020 H   0  0  0  0  0  0  0  0  0  0  0  0
   42.2400   26.1490   32.3490 H   0  0  0  0  0  0  0  0  0  0  0  0
   42.5670   27.8780   32.9240 H   0  0  0  0  0  0  0  0  0  0  0  0
   41.8170   25.6560   34.5750 H   0  0  0  0  0  0  0  0  0  0  0  0
   41.9640   27.3790   35.0600 H   0  0  0  0  0  0  0  0  0  0  0  0
   39.6990   27.8240   34.6390 H   0  0  0  0  0  0  0  0  0  0  0  0
   41.1930   24.3190   34.5590 F   0  0  0  0  0  0  0  0  0  0  0  0
   40.0710   24.5580   35.3140 C   0  0  0  0  0  0  0  0  0  0  0  0
   39.3960   25.7850   35.2770 C   0  0  0  0  0  0  0  0  0  0  0  0
   38.2870   25.8900   36.0850 C   0  0  0  0  0  0  0  0  0  0  0  0
   37.7750   26.8390   36.0380 H   0  0  0  0  0  0  0  0  0  0  0  0
   37.8860   24.8320   36.8730 C   0  0  0  0  0  0  0  0  0  0  0  0
   36.9950   24.9800   37.4920 H   0  0  0  0  0  0  0  0  0  0  0  0
   38.5390   23.6310   36.9140 C   0  0  0  0  0  3  0  0  0  0  0  0
   39.6490   23.5200   36.1100 C   0  0  0  0  0  3  0  0  0  0  0  0
   38.8540   24.4580   32.2700 C   0  0  0  0  0  0  0  0  0  0  0  0
   38.4930   25.8050   32.5860 C   0  0  0  0  0  0  0  0  0  0  0  0
   37.1390   26.1530   32.4600 C   0  0  0  0  0  0  0  0  0  0  0  0
   36.2470   25.2120   32.0480 N   0  0  0  0  0  0  0  0  0  0  0  0
   36.6400   23.9510   31.7600 C   0  0  0  0  0  0  0  0  0  0  0  0
   37.9190   23.5790   31.8680 N   0  0  0  0  0  0  0  0  0  0  0  0
   39.8720   24.1080   32.3450 H   0  0  0  0  0  0  0  0  0  0  0  0
   35.9640   23.1660   31.4270 H   0  0  0  0  0  0  0  0  0  0  0  0
   36.6690   27.4740   32.7660 C   0  0  0  0  0  0  0  0  0  0  0  0
   36.5070   28.3820   31.7450 C   0  0  0  0  0  0  0  0  0  0  0  0
   36.0580   29.6720   31.9320 C   0  0  0  0  0  0  0  0  0  0  0  0
   35.7650   30.0340   33.2370 C   0  0  0  0  0  0  0  0  0  0  0  0
   35.9000   29.1780   34.3220 C   0  0  0  0  0  0  0  0  0  0  0  0
   36.3630   27.8850   34.0390 C   0  0  0  0  0  0  0  0  0  0  0  0
   36.7510   28.0580   30.7210 H   0  0  0  0  0  0  0  0  0  0  0  0
   35.9660   30.3010   31.0810 H   0  0  0  0  0  0  0  0  0  0  0  0
   35.4110   31.0510   33.3850 H   0  0  0  0  0  0  0  0  0  0  0  0
   35.6540   29.5270   35.3070 H   0  0  0  0  0  0  0  0  0  0  0  0
   36.4740   27.2050   34.8730 H   0  0  0  0  0  0  0  0  0  0  0  0
  1  5  1  0  0  0  0
  2  6  1  0  0  0  0
  2  3  1  0  0  0  0
  2  1  1  0  0  0  0
  3  9  1  0  0  0  0
  3  4  1  0  0  0  0
  4  5  1  0  0  0  0
  4 10  1  0  0  0  0
  4 11  1  0  0  0  0
  5 12  1  1  0  0  0
  5 15  1  0  0  0  0
  7  2  1  0  0  0  0
  8  3  1  0  0  0  0
 13 14  1  0  0  0  0
 14 21  1  0  0  0  0
 15 14  2  0  0  0  0
 15 16  1  0  0  0  0
 16 18  2  0  0  0  0
 17 16  1  0  0  0  0
 18 20  1  0  0  0  0
 18 19  1  0  0  0  0
 21 20  2  0  0  0  0
 22 28  1  0  0  0  0
 22 23  1  0  0  0  0
 23  1  1  0  0  0  0
 24 23  2  0  0  0  0
 24 30  1  0  0  0  0
 25 24  1  0  0  0  0
 26 27  1  0  0  0  0
 26 25  2  0  0  0  0
 27 22  2  0  0  0  0
 29 26  1  0  0  0  0
 30 35  1  0  0  0  0
 31 32  1  0  0  0  0
 31 30  2  0  0  0  0
 32 33  2  0  0  0  0
 33 38  1  0  0  0  0
 33 34  1  0  0  0  0
 34 39  1  0  0  0  0
 35 34  2  0  0  0  0
 35 40  1  0  0  0  0
 36 31  1  0  0  0  0
 37 32  1  0  0  0  0
M  END
>  <minimizedAffinity>
-5.53895903

$$$$

 OpenBabel03272509143D

 40 43  0  0  1  0  0  0  0  0999 V2000
   39.3790   22.5150   34.3730 N   0  0  0  0  0  0  0  0  0  0  0  0
   39.8400   21.4120   33.4890 C   0  0  0  0  0  0  0  0  0  0  0  0
   40.9340   22.1090   32.6900 C   0  0  0  0  0  0  0  0  0  0  0  0
   40.4120   23.5140   32.5210 C   0  0  0  0  0  0  0  0  0  0  0  0
   39.1830   23.5870   33.4110 C   0  0  2  0  0  0  0  0  0  0  0  0
   38.9630   21.1590   32.8740 H   0  0  0  0  0  0  0  0  0  0  0  0
   40.2320   20.5920   34.0990 H   0  0  0  0  0  0  0  0  0  0  0  0
   41.8780   22.0690   33.2420 H   0  0  0  0  0  0  0  0  0  0  0  0
   40.9690   21.6330   31.6900 H   0  0  0  0  0  0  0  0  0  0  0  0
   41.1830   24.2470   32.8510 H   0  0  0  0  0  0  0  0  0  0  0  0
   40.1660   23.7480   31.4570 H   0  0  0  0  0  0  0  0  0  0  0  0
   38.3020   23.3050   32.8100 H   0  0  0  0  0  0  0  0  0  0  0  0
   36.8050   24.9640   33.0910 F   0  0  0  0  0  0  0  0  0  0  0  0
   37.8180   25.5640   33.7970 C   0  0  0  0  0  0  0  0  0  0  0  0
   39.0500   24.9330   34.0120 C   0  0  0  0  0  0  0  0  0  0  0  0
   39.9770   25.6480   34.7370 C   0  0  0  0  0  0  0  0  0  0  0  0
   40.9230   25.1500   34.8870 H   0  0  0  0  0  0  0  0  0  0  0  0
   39.6820   26.9080   35.2100 C   0  0  0  0  0  0  0  0  0  0  0  0
   40.4630   27.4240   35.7790 H   0  0  0  0  0  0  0  0  0  0  0  0
   38.4810   27.5310   35.0030 C   0  0  0  0  0  3  0  0  0  0  0  0
   37.5510   26.8230   34.2800 C   0  0  0  0  0  3  0  0  0  0  0  0
   37.7640   22.8910   36.1020 C   0  0  0  0  0  0  0  0  0  0  0  0
   39.1380   22.6940   35.7550 C   0  0  0  0  0  0  0  0  0  0  0  0
   40.0740   22.7250   36.8000 C   0  0  0  0  0  0  0  0  0  0  0  0
   39.6420   22.9400   38.0720 N   0  0  0  0  0  0  0  0  0  0  0  0
   38.3310   23.1220   38.3470 C   0  0  0  0  0  0  0  0  0  0  0  0
   37.4090   23.0980   37.3810 N   0  0  0  0  0  0  0  0  0  0  0  0
   36.9820   22.8760   35.3590 H   0  0  0  0  0  0  0  0  0  0  0  0
   37.9400   23.2970   39.3470 H   0  0  0  0  0  0  0  0  0  0  0  0
   41.4750   22.5250   36.5630 C   0  0  0  0  0  0  0  0  0  0  0  0
   41.9930   21.2520   36.6320 C   0  0  0  0  0  0  0  0  0  0  0  0
   43.3220   20.9540   36.4190 C   0  0  0  0  0  0  0  0  0  0  0  0
   44.1490   22.0250   36.1200 C   0  0  0  0  0  0  0  0  0  0  0  0
   43.7050   23.3390   36.0310 C   0  0  0  0  0  0  0  0  0  0  0  0
   42.3380   23.5490   36.2640 C   0  0  0  0  0  0  0  0  0  0  0  0
   41.3050   20.4270   36.8720 H   0  0  0  0  0  0  0  0  0  0  0  0
   43.6290   19.9400   36.4940 H   0  0  0  0  0  0  0  0  0  0  0  0
   45.1970   21.7910   35.9510 H   0  0  0  0  0  0  0  0  0  0  0  0
   44.4030   24.1190   35.7960 H   0  0  0  0  0  0  0  0  0  0  0  0
   41.9760   24.5660   36.1980 H   0  0  0  0  0  0  0  0  0  0  0  0
  1 23  1  0  0  0  0
  2  7  1  0  0  0  0
  2  1  1  0  0  0  0
  3  8  1  0  0  0  0
  3  2  1  0  0  0  0
  4  3  1  0  0  0  0
  4 10  1  0  0  0  0
  4  5  1  0  0  0  0
  5 12  1  6  0  0  0
  5 15  1  0  0  0  0
  5  1  1  0  0  0  0
  6  2  1  0  0  0  0
  9  3  1  0  0  0  0
 11  4  1  0  0  0  0
 13 14  1  0  0  0  0
 14 15  2  0  0  0  0
 14 21  1  0  0  0  0
 15 16  1  0  0  0  0
 16 17  1  0  0  0  0
 16 18  2  0  0  0  0
 18 19  1  0  0  0  0
 20 18  1  0  0  0  0
 21 20  2  0  0  0  0
 22 27  1  0  0  0  0
 23 22  2  0  0  0  0
 23 24  1  0  0  0  0
 24 25  2  0  0  0  0
 25 26  1  0  0  0  0
 26 29  1  0  0  0  0
 27 26  2  0  0  0  0
 28 22  1  0  0  0  0
 30 31  1  0  0  0  0
 30 24  1  0  0  0  0
 31 36  1  0  0  0  0
 32 37  1  0  0  0  0
 32 31  2  0  0  0  0
 33 32  1  0  0  0  0
 34 33  2  0  0  0  0
 34 35  1  0  0  0  0
 35 30  2  0  0  0  0
 38 33  1  0  0  0  0
 39 34  1  0  0  0  0
 40 35  1  0  0  0  0
M  END
>  <minimizedAffinity>
-5.53617716

$$$$

 OpenBabel03272509143D

 40 43  0  0  1  0  0  0  0  0999 V2000
   39.7180   23.3690   33.4490 N   0  0  0  0  0  0  0  0  0  0  0  0
   39.2430   22.9730   32.0970 C   0  0  0  0  0  0  0  0  0  0  0  0
   37.7380   23.1560   32.2460 C   0  0  0  0  0  0  0  0  0  0  0  0
   37.4690   22.7480   33.6730 C   0  0  0  0  0  0  0  0  0  0  0  0
   38.8430   22.5800   34.3000 C   0  0  2  0  0  0  0  0  0  0  0  0
   39.5320   21.9160   31.9950 H   0  0  0  0  0  0  0  0  0  0  0  0
   39.6690   23.6460   31.3460 H   0  0  0  0  0  0  0  0  0  0  0  0
   37.4690   24.1970   32.0420 H   0  0  0  0  0  0  0  0  0  0  0  0
   37.2460   22.4180   31.5800 H   0  0  0  0  0  0  0  0  0  0  0  0
   36.8920   23.5480   34.1920 H   0  0  0  0  0  0  0  0  0  0  0  0
   36.8660   21.8100   33.7390 H   0  0  0  0  0  0  0  0  0  0  0  0
   39.1540   21.5300   34.1750 H   0  0  0  0  0  0  0  0  0  0  0  0
   40.6950   21.4850   36.0380 F   0  0  0  0  0  0  0  0  0  0  0  0
   39.7920   22.3920   36.5330 C   0  0  0  0  0  0  0  0  0  0  0  0
   38.8260   23.0000   35.7190 C   0  0  0  0  0  0  0  0  0  0  0  0
   37.9840   23.8910   36.3440 C   0  0  0  0  0  0  0  0  0  0  0  0
   37.2410   24.3440   35.7040 H   0  0  0  0  0  0  0  0  0  0  0  0
   38.1060   24.1510   37.6920 C   0  0  0  0  0  0  0  0  0  0  0  0
   37.4040   24.8700   38.1280 H   0  0  0  0  0  0  0  0  0  0  0  0
   39.0460   23.5610   38.4930 C   0  0  0  0  0  3  0  0  0  0  0  0
   39.8900   22.6700   37.8750 C   0  0  0  0  0  3  0  0  0  0  0  0
   41.9670   23.6170   34.2350 C   0  0  0  0  0  0  0  0  0  0  0  0
   40.7030   24.2340   33.9820 C   0  0  0  0  0  0  0  0  0  0  0  0
   40.5750   25.5930   34.3070 C   0  0  0  0  0  0  0  0  0  0  0  0
   41.6400   26.2500   34.8410 N   0  0  0  0  0  0  0  0  0  0  0  0
   42.8140   25.6200   35.0630 C   0  0  0  0  0  0  0  0  0  0  0  0
   42.9770   24.3280   34.7660 N   0  0  0  0  0  0  0  0  0  0  0  0
   42.1490   22.5770   34.0090 H   0  0  0  0  0  0  0  0  0  0  0  0
   43.6910   26.1030   35.4890 H   0  0  0  0  0  0  0  0  0  0  0  0
   39.3540   26.3110   34.0800 C   0  0  0  0  0  0  0  0  0  0  0  0
   38.6700   26.8310   35.1550 C   0  0  0  0  0  0  0  0  0  0  0  0
   37.4920   27.5380   35.0430 C   0  0  0  0  0  0  0  0  0  0  0  0
   37.0040   27.7140   33.7590 C   0  0  0  0  0  0  0  0  0  0  0  0
   37.6320   27.2230   32.6220 C   0  0  0  0  0  0  0  0  0  0  0  0
   38.8250   26.5150   32.8290 C   0  0  0  0  0  0  0  0  0  0  0  0
   39.0890   26.6700   36.1600 H   0  0  0  0  0  0  0  0  0  0  0  0
   37.0370   27.9010   35.9320 H   0  0  0  0  0  0  0  0  0  0  0  0
   36.0740   28.2720   33.6710 H   0  0  0  0  0  0  0  0  0  0  0  0
   37.1960   27.3970   31.6580 H   0  0  0  0  0  0  0  0  0  0  0  0
   39.3280   26.1260   31.9550 H   0  0  0  0  0  0  0  0  0  0  0  0
  1 23  1  0  0  0  0
  1  5  1  0  0  0  0
  2  3  1  0  0  0  0
  2  1  1  0  0  0  0
  3  4  1  0  0  0  0
  4 11  1  0  0  0  0
  4 10  1  0  0  0  0
  4  5  1  0  0  0  0
  5 12  1  6  0  0  0
  5 15  1  0  0  0  0
  6  2  1  0  0  0  0
  7  2  1  0  0  0  0
  8  3  1  0  0  0  0
  9  3  1  0  0  0  0
 13 14  1  0  0  0  0
 14 21  1  0  0  0  0
 15 16  1  0  0  0  0
 15 14  2  0  0  0  0
 16 18  2  0  0  0  0
 17 16  1  0  0  0  0
 18 19  1  0  0  0  0
 18 20  1  0  0  0  0
 21 20  2  0  0  0  0
 22 27  1  0  0  0  0
 23 22  2  0  0  0  0
 23 24  1  0  0  0  0
 24 25  2  0  0  0  0
 25 26  1  0  0  0  0
 26 29  1  0  0  0  0
 27 26  2  0  0  0  0
 28 22  1  0  0  0  0
 30 24  1  0  0  0  0
 30 31  1  0  0  0  0
 31 36  1  0  0  0  0
 32 31  2  0  0  0  0
 32 37  1  0  0  0  0
 33 32  1  0  0  0  0
 34 35  1  0  0  0  0
 34 33  2  0  0  0  0
 35 30  2  0  0  0  0
 38 33  1  0  0  0  0
 39 34  1  0  0  0  0
 40 35  1  0  0  0  0
M  END
>  <minimizedAffinity>
-5.50155973

$$$$

 OpenBabel03272509143D

 40 43  0  0  1  0  0  0  0  0999 V2000
   39.0330   22.6190   35.6810 N   0  0  0  0  0  0  0  0  0  0  0  0
   37.7240   22.5380   36.3820 C   0  0  0  0  0  0  0  0  0  0  0  0
   37.9810   23.4230   37.5950 C   0  0  0  0  0  0  0  0  0  0  0  0
   39.4280   23.1610   37.9270 C   0  0  0  0  0  0  0  0  0  0  0  0
   39.9550   22.3330   36.7670 C   0  0  2  0  0  0  0  0  0  0  0  0
   37.6140   21.4760   36.6490 H   0  0  0  0  0  0  0  0  0  0  0  0
   36.9360   22.9390   35.7370 H   0  0  0  0  0  0  0  0  0  0  0  0
   37.7850   24.4690   37.3390 H   0  0  0  0  0  0  0  0  0  0  0  0
   37.3620   23.0330   38.4280 H   0  0  0  0  0  0  0  0  0  0  0  0
   39.9800   24.1260   38.0060 H   0  0  0  0  0  0  0  0  0  0  0  0
   39.5500   22.6310   38.9030 H   0  0  0  0  0  0  0  0  0  0  0  0
   39.8200   21.2660   37.0140 H   0  0  0  0  0  0  0  0  0  0  0  0
   41.8600   20.3290   36.8770 F   0  0  0  0  0  0  0  0  0  0  0  0
   42.2670   21.6020   36.5640 C   0  0  0  0  0  0  0  0  0  0  0  0
   41.3670   22.6720   36.4790 C   0  0  0  0  0  0  0  0  0  0  0  0
   41.9090   23.8950   36.1550 C   0  0  0  0  0  0  0  0  0  0  0  0
   41.2030   24.7090   36.1010 H   0  0  0  0  0  0  0  0  0  0  0  0
   43.2630   24.0290   35.9330 C   0  0  0  0  0  0  0  0  0  0  0  0
   43.6310   25.0280   35.6790 H   0  0  0  0  0  0  0  0  0  0  0  0
   44.1490   22.9890   36.0140 C   0  0  0  0  0  3  0  0  0  0  0  0
   43.6130   21.7650   36.3370 C   0  0  0  0  0  3  0  0  0  0  0  0
   40.0620   21.7650   33.6940 C   0  0  0  0  0  0  0  0  0  0  0  0
   39.4820   22.8860   34.3660 C   0  0  0  0  0  0  0  0  0  0  0  0
   39.4470   24.1030   33.6700 C   0  0  0  0  0  0  0  0  0  0  0  0
   39.9590   24.1640   32.4110 N   0  0  0  0  0  0  0  0  0  0  0  0
   40.4980   23.0740   31.8210 C   0  0  0  0  0  0  0  0  0  0  0  0
   40.5490   21.8960   32.4490 N   0  0  0  0  0  0  0  0  0  0  0  0
   40.1230   20.7910   34.1570 H   0  0  0  0  0  0  0  0  0  0  0  0
   40.9200   23.0750   30.8180 H   0  0  0  0  0  0  0  0  0  0  0  0
   38.8740   25.2860   34.2480 C   0  0  0  0  0  0  0  0  0  0  0  0
   37.6510   25.7280   33.7990 C   0  0  0  0  0  0  0  0  0  0  0  0
   37.0150   26.8490   34.2890 C   0  0  0  0  0  0  0  0  0  0  0  0
   37.6790   27.5390   35.2900 C   0  0  0  0  0  0  0  0  0  0  0  0
   38.9140   27.1600   35.7990 C   0  0  0  0  0  0  0  0  0  0  0  0
   39.4870   26.0080   35.2410 C   0  0  0  0  0  0  0  0  0  0  0  0
   37.1540   25.1530   33.0010 H   0  0  0  0  0  0  0  0  0  0  0  0
   36.0710   27.1120   33.8780 H   0  0  0  0  0  0  0  0  0  0  0  0
   37.1780   28.4240   35.6770 H   0  0  0  0  0  0  0  0  0  0  0  0
   39.3700   27.7430   36.5750 H   0  0  0  0  0  0  0  0  0  0  0  0
   40.4490   25.6980   35.6260 H   0  0  0  0  0  0  0  0  0  0  0  0
  1  2  1  0  0  0  0
  1  5  1  0  0  0  0
  2  6  1  0  0  0  0
  2  3  1  0  0  0  0
  3  4  1  0  0  0  0
  3  9  1  0  0  0  0
  4 10  1  0  0  0  0
  4 11  1  0  0  0  0
  5 12  1  1  0  0  0
  5  4  1  0  0  0  0
  7  2  1  0  0  0  0
  8  3  1  0  0  0  0
 14 13  1  0  0  0  0
 15 14  1  0  0  0  0
 15  5  1  0  0  0  0
 16 15  2  0  0  0  0
 17 16  1  0  0  0  0
 18 20  2  0  0  0  0
 18 16  1  0  0  0  0
 19 18  1  0  0  0  0
 20 21  1  0  0  0  0
 21 14  2  0  0  0  0
 22 28  1  0  0  0  0
 22 23  1  0  0  0  0
 23  1  1  0  0  0  0
 24 30  1  0  0  0  0
 24 23  2  0  0  0  0
 25 24  1  0  0  0  0
 26 25  2  0  0  0  0
 26 27  1  0  0  0  0
 27 22  2  0  0  0  0
 29 26  1  0  0  0  0
 30 35  1  0  0  0  0
 31 30  2  0  0  0  0
 31 32  1  0  0  0  0
 32 33  2  0  0  0  0
 33 38  1  0  0  0  0
 33 34  1  0  0  0  0
 34 39  1  0  0  0  0
 35 40  1  0  0  0  0
 35 34  2  0  0  0  0
 36 31  1  0  0  0  0
 37 32  1  0  0  0  0
M  END
>  <minimizedAffinity>
-5.48114681

$$$$

 OpenBabel03272509143D

 40 43  0  0  1  0  0  0  0  0999 V2000
   38.9680   23.2080   32.0540 N   0  0  0  0  0  0  0  0  0  0  0  0
   39.6630   22.0120   31.5080 C   0  0  0  0  0  0  0  0  0  0  0  0
   39.8820   21.1920   32.7730 C   0  0  0  0  0  0  0  0  0  0  0  0
   40.1460   22.2330   33.8310 C   0  0  0  0  0  0  0  0  0  0  0  0
   39.8410   23.5620   33.1600 C   0  0  2  0  0  0  0  0  0  0  0  0
   40.6030   22.4000   31.0870 H   0  0  0  0  0  0  0  0  0  0  0  0
   39.0100   21.5020   30.7920 H   0  0  0  0  0  0  0  0  0  0  0  0
   38.9940   20.5880   32.9810 H   0  0  0  0  0  0  0  0  0  0  0  0
   40.8110   20.6040   32.6310 H   0  0  0  0  0  0  0  0  0  0  0  0
   39.4720   22.0670   34.7020 H   0  0  0  0  0  0  0  0  0  0  0  0
   41.1950   22.1930   34.2120 H   0  0  0  0  0  0  0  0  0  0  0  0
   40.7720   23.9440   32.7100 H   0  0  0  0  0  0  0  0  0  0  0  0
   40.8620   26.1300   33.3030 F   0  0  0  0  0  0  0  0  0  0  0  0
   39.8290   25.7900   34.1410 C   0  0  0  0  0  0  0  0  0  0  0  0
   39.2490   24.5140   34.1270 C   0  0  0  0  0  0  0  0  0  0  0  0
   38.2210   24.3080   35.0190 C   0  0  0  0  0  0  0  0  0  0  0  0
   37.7910   23.3180   35.0010 H   0  0  0  0  0  0  0  0  0  0  0  0
   37.8080   25.3150   35.8640 C   0  0  0  0  0  0  0  0  0  0  0  0
   36.9850   25.0870   36.5500 H   0  0  0  0  0  0  0  0  0  0  0  0
   38.3690   26.5630   35.8830 C   0  0  0  0  0  3  0  0  0  0  0  0
   39.3970   26.7760   34.9950 C   0  0  0  0  0  3  0  0  0  0  0  0
   38.0370   25.2980   31.3450 C   0  0  0  0  0  0  0  0  0  0  0  0
   37.8010   23.9470   31.7520 C   0  0  0  0  0  0  0  0  0  0  0  0
   36.4650   23.5240   31.8290 C   0  0  0  0  0  0  0  0  0  0  0  0
   35.4720   24.4020   31.5220 N   0  0  0  0  0  0  0  0  0  0  0  0
   35.7490   25.6700   31.1440 C   0  0  0  0  0  0  0  0  0  0  0  0
   37.0060   26.1110   31.0560 N   0  0  0  0  0  0  0  0  0  0  0  0
   39.0350   25.6990   31.2560 H   0  0  0  0  0  0  0  0  0  0  0  0
   34.9890   26.4060   30.8900 H   0  0  0  0  0  0  0  0  0  0  0  0
   36.1190   22.1860   32.2140 C   0  0  0  0  0  0  0  0  0  0  0  0
   35.7760   21.2750   31.2410 C   0  0  0  0  0  0  0  0  0  0  0  0
   35.4310   19.9660   31.5050 C   0  0  0  0  0  0  0  0  0  0  0  0
   35.4430   19.5880   32.8380 C   0  0  0  0  0  0  0  0  0  0  0  0
   35.7770   20.4450   33.8780 C   0  0  0  0  0  0  0  0  0  0  0  0
   36.1150   21.7570   33.5180 C   0  0  0  0  0  0  0  0  0  0  0  0
   35.7770   21.6130   30.1930 H   0  0  0  0  0  0  0  0  0  0  0  0
   35.1810   19.3370   30.6860 H   0  0  0  0  0  0  0  0  0  0  0  0
   35.1710   18.5560   33.0460 H   0  0  0  0  0  0  0  0  0  0  0  0
   35.7650   20.0820   34.8880 H   0  0  0  0  0  0  0  0  0  0  0  0
   36.3780   22.4380   34.3160 H   0  0  0  0  0  0  0  0  0  0  0  0
  1  5  1  0  0  0  0
  2  1  1  0  0  0  0
  2  3  1  0  0  0  0
  3  8  1  0  0  0  0
  3  4  1  0  0  0  0
  4 11  1  0  0  0  0
  4 10  1  0  0  0  0
  5 12  1  6  0  0  0
  5  4  1  0  0  0  0
  5 15  1  0  0  0  0
  6  2  1  0  0  0  0
  7  2  1  0  0  0  0
  9  3  1  0  0  0  0
 13 14  1  0  0  0  0
 14 21  1  0  0  0  0
 15 14  2  0  0  0  0
 15 16  1  0  0  0  0
 16 18  2  0  0  0  0
 17 16  1  0  0  0  0
 18 20  1  0  0  0  0
 18 19  1  0  0  0  0
 21 20  2  0  0  0  0
 22 23  1  0  0  0  0
 23 24  2  0  0  0  0
 23  1  1  0  0  0  0
 24 30  1  0  0  0  0
 25 24  1  0  0  0  0
 26 25  2  0  0  0  0
 27 26  1  0  0  0  0
 27 22  2  0  0  0  0
 28 22  1  0  0  0  0
 29 26  1  0  0  0  0
 30 35  1  0  0  0  0
 31 32  1  0  0  0  0
 31 30  2  0  0  0  0
 32 33  2  0  0  0  0
 33 38  1  0  0  0  0
 33 34  1  0  0  0  0
 34 39  1  0  0  0  0
 35 34  2  0  0  0  0
 35 40  1  0  0  0  0
 36 31  1  0  0  0  0
 37 32  1  0  0  0  0
M  END
>  <minimizedAffinity>
-5.41327238

$$$$

 OpenBabel03272509143D

 40 43  0  0  1  0  0  0  0  0999 V2000
   37.1130   27.0620   32.2830 N   0  0  0  0  0  0  0  0  0  0  0  0
   35.7920   27.7420   32.3060 C   0  0  0  0  0  0  0  0  0  0  0  0
   35.9630   28.6850   33.4890 C   0  0  0  0  0  0  0  0  0  0  0  0
   36.8140   27.8970   34.4530 C   0  0  0  0  0  0  0  0  0  0  0  0
   37.2540   26.6680   33.6750 C   0  0  2  0  0  0  0  0  0  0  0  0
   35.0650   26.9390   32.5060 H   0  0  0  0  0  0  0  0  0  0  0  0
   35.6400   28.2810   31.3650 H   0  0  0  0  0  0  0  0  0  0  0  0
   36.4410   29.6120   33.1590 H   0  0  0  0  0  0  0  0  0  0  0  0
   34.9640   28.8250   33.9500 H   0  0  0  0  0  0  0  0  0  0  0  0
   37.6950   28.5040   34.7630 H   0  0  0  0  0  0  0  0  0  0  0  0
   36.2580   27.6220   35.3820 H   0  0  0  0  0  0  0  0  0  0  0  0
   36.5150   25.8670   33.8460 H   0  0  0  0  0  0  0  0  0  0  0  0
   37.7470   24.0100   34.2630 F   0  0  0  0  0  0  0  0  0  0  0  0
   38.7870   24.9030   34.3510 C   0  0  0  0  0  0  0  0  0  0  0  0
   38.6240   26.2640   34.0630 C   0  0  0  0  0  0  0  0  0  0  0  0
   39.7490   27.0470   34.1910 C   0  0  0  0  0  0  0  0  0  0  0  0
   39.6040   28.0950   33.9730 H   0  0  0  0  0  0  0  0  0  0  0  0
   40.9500   26.4970   34.5820 C   0  0  0  0  0  0  0  0  0  0  0  0
   41.8070   27.1750   34.6650 H   0  0  0  0  0  0  0  0  0  0  0  0
   41.1160   25.1690   34.8660 C   0  0  0  0  0  3  0  0  0  0  0  0
   39.9970   24.3810   34.7400 C   0  0  0  0  0  3  0  0  0  0  0  0
   38.9400   27.8820   30.9680 C   0  0  0  0  0  0  0  0  0  0  0  0
   38.1070   26.7740   31.3180 C   0  0  0  0  0  0  0  0  0  0  0  0
   38.3470   25.5580   30.6610 C   0  0  0  0  0  0  0  0  0  0  0  0
   39.3420   25.4890   29.7340 N   0  0  0  0  0  0  0  0  0  0  0  0
   40.1000   26.5680   29.4390 C   0  0  0  0  0  0  0  0  0  0  0  0
   39.9050   27.7430   30.0430 N   0  0  0  0  0  0  0  0  0  0  0  0
   38.8240   28.8510   31.4310 H   0  0  0  0  0  0  0  0  0  0  0  0
   40.9050   26.5610   28.7060 H   0  0  0  0  0  0  0  0  0  0  0  0
   37.5790   24.3800   30.9470 C   0  0  0  0  0  0  0  0  0  0  0  0
   38.2320   23.1950   31.1930 C   0  0  0  0  0  0  0  0  0  0  0  0
   37.5870   22.0110   31.4810 C   0  0  0  0  0  0  0  0  0  0  0  0
   36.2030   22.0610   31.5150 C   0  0  0  0  0  0  0  0  0  0  0  0
   35.4680   23.2160   31.2790 C   0  0  0  0  0  0  0  0  0  0  0  0
   36.2070   24.3740   30.9940 C   0  0  0  0  0  0  0  0  0  0  0  0
   39.3330   23.1940   31.1570 H   0  0  0  0  0  0  0  0  0  0  0  0
   38.1780   21.1460   31.6560 H   0  0  0  0  0  0  0  0  0  0  0  0
   35.6940   21.1270   31.7420 H   0  0  0  0  0  0  0  0  0  0  0  0
   34.3970   23.1810   31.3220 H   0  0  0  0  0  0  0  0  0  0  0  0
   35.6510   25.2820   30.8080 H   0  0  0  0  0  0  0  0  0  0  0  0
  1  2  1  0  0  0  0
  1  5  1  0  0  0  0
  2  6  1  0  0  0  0
  2  3  1  0  0  0  0
  3  9  1  0  0  0  0
  3  4  1  0  0  0  0
  4 10  1  0  0  0  0
  4 11  1  0  0  0  0
  5 12  1  1  0  0  0
  5 15  1  0  0  0  0
  5  4  1  0  0  0  0
  7  2  1  0  0  0  0
  8  3  1  0  0  0  0
 13 14  1  0  0  0  0
 14 21  1  0  0  0  0
 15 16  1  0  0  0  0
 15 14  2  0  0  0  0
 16 18  2  0  0  0  0
 17 16  1  0  0  0  0
 18 19  1  0  0  0  0
 18 20  1  0  0  0  0
 21 20  2  0  0  0  0
 22 23  1  0  0  0  0
 22 28  1  0  0  0  0
 23  1  1  0  0  0  0
 24 30  1  0  0  0  0
 24 23  2  0  0  0  0
 25 24  1  0  0  0  0
 26 25  2  0  0  0  0
 26 27  1  0  0  0  0
 27 22  2  0  0  0  0
 29 26  1  0  0  0  0
 30 35  2  0  0  0  0
 30 31  1  0  0  0  0
 31 32  2  0  0  0  0
 32 33  1  0  0  0  0
 32 37  1  0  0  0  0
 33 38  1  0  0  0  0
 34 39  1  0  0  0  0
 34 33  2  0  0  0  0
 35 34  1  0  0  0  0
 36 31  1  0  0  0  0
 40 35  1  0  0  0  0
M  END
>  <minimizedAffinity>
-5.38764477

$$$$

 OpenBabel03272509143D

 40 43  0  0  1  0  0  0  0  0999 V2000
   37.2500   24.9780   31.7880 N   0  0  0  0  0  0  0  0  0  0  0  0
   36.6200   23.6350   31.8800 C   0  0  0  0  0  0  0  0  0  0  0  0
   35.5010   23.7610   30.8550 C   0  0  0  0  0  0  0  0  0  0  0  0
   35.0600   25.1970   30.9830 C   0  0  0  0  0  0  0  0  0  0  0  0
   36.0880   25.8450   31.8950 C   0  0  2  0  0  0  0  0  0  0  0  0
   36.2430   23.5710   32.9120 H   0  0  0  0  0  0  0  0  0  0  0  0
   37.3500   22.8670   31.6040 H   0  0  0  0  0  0  0  0  0  0  0  0
   35.8820   23.5190   29.8580 H   0  0  0  0  0  0  0  0  0  0  0  0
   34.6660   23.1140   31.1940 H   0  0  0  0  0  0  0  0  0  0  0  0
   35.0580   25.6830   29.9810 H   0  0  0  0  0  0  0  0  0  0  0  0
   34.0260   25.2870   31.3960 H   0  0  0  0  0  0  0  0  0  0  0  0
   35.7330   25.7590   32.9350 H   0  0  0  0  0  0  0  0  0  0  0  0
   35.9610   27.8240   33.8240 F   0  0  0  0  0  0  0  0  0  0  0  0
   36.2420   28.1890   32.5300 C   0  0  0  0  0  0  0  0  0  0  0  0
   36.3330   27.2490   31.4950 C   0  0  0  0  0  0  0  0  0  0  0  0
   36.6200   27.7510   30.2460 C   0  0  0  0  0  0  0  0  0  0  0  0
   36.6790   27.0150   29.4590 H   0  0  0  0  0  0  0  0  0  0  0  0
   36.8030   29.1040   30.0550 C   0  0  0  0  0  0  0  0  0  0  0  0
   37.0290   29.4390   29.0380 H   0  0  0  0  0  0  0  0  0  0  0  0
   36.7150   30.0280   31.0610 C   0  0  0  0  0  3  0  0  0  0  0  0
   36.4280   29.5330   32.3110 C   0  0  0  0  0  3  0  0  0  0  0  0
   39.0460   25.5000   30.2910 C   0  0  0  0  0  0  0  0  0  0  0  0
   38.5590   25.4930   31.6350 C   0  0  0  0  0  0  0  0  0  0  0  0
   39.4250   25.9640   32.6340 C   0  0  0  0  0  0  0  0  0  0  0  0
   40.6670   26.3960   32.2860 N   0  0  0  0  0  0  0  0  0  0  0  0
   41.0800   26.3810   30.9990 C   0  0  0  0  0  0  0  0  0  0  0  0
   40.2860   25.9420   30.0190 N   0  0  0  0  0  0  0  0  0  0  0  0
   38.4410   25.1600   29.4640 H   0  0  0  0  0  0  0  0  0  0  0  0
   42.0630   26.7150   30.6730 H   0  0  0  0  0  0  0  0  0  0  0  0
   39.0310   26.0120   34.0130 C   0  0  0  0  0  0  0  0  0  0  0  0
   38.9910   27.2270   34.6580 C   0  0  0  0  0  0  0  0  0  0  0  0
   38.6230   27.3810   35.9780 C   0  0  0  0  0  0  0  0  0  0  0  0
   38.2820   26.2220   36.6560 C   0  0  0  0  0  0  0  0  0  0  0  0
   38.2960   24.9590   36.0790 C   0  0  0  0  0  0  0  0  0  0  0  0
   38.6830   24.8960   34.7330 C   0  0  0  0  0  0  0  0  0  0  0  0
   39.2690   28.1250   34.0860 H   0  0  0  0  0  0  0  0  0  0  0  0
   38.6230   28.3610   36.3890 H   0  0  0  0  0  0  0  0  0  0  0  0
   37.9910   26.3440   37.6980 H   0  0  0  0  0  0  0  0  0  0  0  0
   38.0190   24.1050   36.6660 H   0  0  0  0  0  0  0  0  0  0  0  0
   38.6980   23.9210   34.2680 H   0  0  0  0  0  0  0  0  0  0  0  0
  1  2  1  0  0  0  0
  1  5  1  0  0  0  0
  2  6  1  0  0  0  0
  3  4  1  0  0  0  0
  3  9  1  0  0  0  0
  3  2  1  0  0  0  0
  4 11  1  0  0  0  0
  4  5  1  0  0  0  0
  5 12  1  1  0  0  0
  7  2  1  0  0  0  0
  8  3  1  0  0  0  0
 10  4  1  0  0  0  0
 14 13  1  0  0  0  0
 15  5  1  0  0  0  0
 15 14  2  0  0  0  0
 16 15  1  0  0  0  0
 17 16  1  0  0  0  0
 18 16  2  0  0  0  0
 18 20  1  0  0  0  0
 19 18  1  0  0  0  0
 20 21  2  0  0  0  0
 21 14  1  0  0  0  0
 22 23  1  0  0  0  0
 23  1  1  0  0  0  0
 23 24  2  0  0  0  0
 24 30  1  0  0  0  0
 25 24  1  0  0  0  0
 26 25  2  0  0  0  0
 27 22  2  0  0  0  0
 27 26  1  0  0  0  0
 28 22  1  0  0  0  0
 29 26  1  0  0  0  0
 30 31  2  0  0  0  0
 30 35  1  0  0  0  0
 31 32  1  0  0  0  0
 32 37  1  0  0  0  0
 32 33  2  0  0  0  0
 33 38  1  0  0  0  0
 34 33  1  0  0  0  0
 34 39  1  0  0  0  0
 35 34  2  0  0  0  0
 36 31  1  0  0  0  0
 40 35  1  0  0  0  0
M  END
>  <minimizedAffinity>
-5.3679204

$$$$

 OpenBabel03272509143D

 40 43  0  0  1  0  0  0  0  0999 V2000
   41.0000   24.6550   34.1570 N   0  0  0  0  0  0  0  0  0  0  0  0
   42.4540   24.4710   33.9070 C   0  0  0  0  0  0  0  0  0  0  0  0
   43.0310   25.7120   34.5750 C   0  0  0  0  0  0  0  0  0  0  0  0
   41.9920   26.7730   34.3120 C   0  0  0  0  0  0  0  0  0  0  0  0
   40.8090   26.0280   33.7180 C   0  0  2  0  0  0  0  0  0  0  0  0
   42.5570   24.4940   32.8110 H   0  0  0  0  0  0  0  0  0  0  0  0
   42.7950   23.5470   34.3850 H   0  0  0  0  0  0  0  0  0  0  0  0
   43.1840   25.5210   35.6420 H   0  0  0  0  0  0  0  0  0  0  0  0
   43.9520   25.9890   34.0240 H   0  0  0  0  0  0  0  0  0  0  0  0
   41.7080   27.2700   35.2680 H   0  0  0  0  0  0  0  0  0  0  0  0
   42.3660   27.5700   33.6240 H   0  0  0  0  0  0  0  0  0  0  0  0
   40.9190   26.0200   32.6210 H   0  0  0  0  0  0  0  0  0  0  0  0
   38.9100   26.6600   31.8080 F   0  0  0  0  0  0  0  0  0  0  0  0
   38.6300   26.9340   33.1240 C   0  0  0  0  0  0  0  0  0  0  0  0
   39.5330   26.6380   34.1540 C   0  0  0  0  0  0  0  0  0  0  0  0
   39.1250   26.9650   35.4270 C   0  0  0  0  0  0  0  0  0  0  0  0
   39.8350   26.7370   36.2080 H   0  0  0  0  0  0  0  0  0  0  0  0
   37.8950   27.5480   35.6470 C   0  0  0  0  0  0  0  0  0  0  0  0
   37.6310   27.7830   36.6830 H   0  0  0  0  0  0  0  0  0  0  0  0
   37.0090   27.8400   34.6460 C   0  0  0  0  0  3  0  0  0  0  0  0
   37.4100   27.5170   33.3720 C   0  0  0  0  0  3  0  0  0  0  0  0
   39.9430   23.7040   36.0840 C   0  0  0  0  0  0  0  0  0  0  0  0
   39.9360   23.8740   34.6650 C   0  0  0  0  0  0  0  0  0  0  0  0
   38.9100   23.2410   33.9480 C   0  0  0  0  0  0  0  0  0  0  0  0
   37.9860   22.5040   34.6220 N   0  0  0  0  0  0  0  0  0  0  0  0
   38.0390   22.3730   35.9660 C   0  0  0  0  0  0  0  0  0  0  0  0
   38.9980   22.9610   36.6850 N   0  0  0  0  0  0  0  0  0  0  0  0
   40.6950   24.1620   36.7090 H   0  0  0  0  0  0  0  0  0  0  0  0
   37.3240   21.7930   36.5470 H   0  0  0  0  0  0  0  0  0  0  0  0
   38.8020   23.3590   32.5210 C   0  0  0  0  0  0  0  0  0  0  0  0
   37.6080   23.7630   31.9690 C   0  0  0  0  0  0  0  0  0  0  0  0
   37.4030   23.9100   30.6140 C   0  0  0  0  0  0  0  0  0  0  0  0
   38.4850   23.6260   29.7970 C   0  0  0  0  0  0  0  0  0  0  0  0
   39.7220   23.2140   30.2740 C   0  0  0  0  0  0  0  0  0  0  0  0
   39.8410   23.0910   31.6660 C   0  0  0  0  0  0  0  0  0  0  0  0
   36.7700   23.9790   32.6500 H   0  0  0  0  0  0  0  0  0  0  0  0
   36.4450   24.2280   30.2820 H   0  0  0  0  0  0  0  0  0  0  0  0
   38.3240   23.7430   28.7280 H   0  0  0  0  0  0  0  0  0  0  0  0
   40.5170   23.0110   29.5820 H   0  0  0  0  0  0  0  0  0  0  0  0
   40.7980   22.7710   32.0550 H   0  0  0  0  0  0  0  0  0  0  0  0
  1 23  1  0  0  0  0
  2  1  1  0  0  0  0
  2  7  1  0  0  0  0
  2  3  1  0  0  0  0
  3  8  1  0  0  0  0
  4  3  1  0  0  0  0
  4 10  1  0  0  0  0
  5 12  1  6  0  0  0
  5 15  1  0  0  0  0
  5  1  1  0  0  0  0
  5  4  1  0  0  0  0
  6  2  1  0  0  0  0
  9  3  1  0  0  0  0
 11  4  1  0  0  0  0
 13 14  1  0  0  0  0
 14 21  2  0  0  0  0
 14 15  1  0  0  0  0
 15 16  2  0  0  0  0
 16 18  1  0  0  0  0
 16 17  1  0  0  0  0
 18 19  1  0  0  0  0
 20 18  2  0  0  0  0
 21 20  1  0  0  0  0
 22 27  1  0  0  0  0
 22 28  1  0  0  0  0
 23 22  2  0  0  0  0
 24 25  2  0  0  0  0
 24 23  1  0  0  0  0
 25 26  1  0  0  0  0
 26 29  1  0  0  0  0
 26 27  2  0  0  0  0
 30 24  1  0  0  0  0
 31 30  1  0  0  0  0
 31 36  1  0  0  0  0
 32 31  2  0  0  0  0
 33 34  2  0  0  0  0
 33 32  1  0  0  0  0
 34 35  1  0  0  0  0
 35 40  1  0  0  0  0
 35 30  2  0  0  0  0
 37 32  1  0  0  0  0
 38 33  1  0  0  0  0
 39 34  1  0  0  0  0
M  END
>  <minimizedAffinity>
-5.20887852

$$$$
