
 OpenBabel03272507243D

 30 32  0  0  1  0  0  0  0  0999 V2000
   39.5270   23.8300   35.2880 C   0  0  0  0  0  0  0  0  0  0  0  0
   38.8770   24.4520   34.2090 C   0  0  0  0  0  0  0  0  0  0  0  0
   37.8350   23.7740   33.5980 C   0  0  0  0  0  0  0  0  0  0  0  0
   37.5260   22.5670   34.0910 N   0  0  0  0  0  0  0  0  0  0  0  0
   38.1380   21.9530   35.1270 C   0  0  0  0  0  0  0  0  0  0  0  0
   39.1570   22.6180   35.7220 N   0  0  0  0  0  0  0  0  0  0  0  0
   37.1020   24.2880   32.5110 N   0  0  0  0  0  0  0  0  0  0  0  0
   36.9010   25.7220   32.2990 C   0  0  0  0  0  0  0  0  0  0  0  0
   35.9500   25.8270   31.1340 C   0  0  0  0  0  0  0  0  0  0  0  0
   35.2440   24.4970   31.2250 C   0  0  0  0  0  0  0  0  0  0  0  0
   36.4500   23.6270   31.4620 C   0  0  2  0  0  0  0  0  0  0  0  0
   40.3450   24.3770   35.7590 H   0  0  0  0  0  0  0  0  0  0  0  0
   39.1310   25.4270   33.8160 H   0  0  0  0  0  0  0  0  0  0  0  0
   37.7810   20.9770   35.4150 H   0  0  0  0  0  0  0  0  0  0  0  0
   37.8600   26.2470   32.1450 H   0  0  0  0  0  0  0  0  0  0  0  0
   36.3520   26.1060   33.1920 H   0  0  0  0  0  0  0  0  0  0  0  0
   35.2590   26.6830   31.2340 H   0  0  0  0  0  0  0  0  0  0  0  0
   36.4950   25.8960   30.1690 H   0  0  0  0  0  0  0  0  0  0  0  0
   34.5770   24.5800   32.1020 H   0  0  0  0  0  0  0  0  0  0  0  0
   34.7040   24.2360   30.2960 H   0  0  0  0  0  0  0  0  0  0  0  0
   37.0780   23.7790   30.5220 H   0  0  0  0  0  0  0  0  0  0  0  0
   38.2140   21.6930   30.2750 F   0  0  0  0  0  0  0  0  0  0  0  0
   37.0710   21.3830   30.9450 C   0  0  0  0  0  0  0  0  0  0  0  0
   36.1490   22.2080   31.5820 C   0  0  0  0  0  0  0  0  0  0  0  0
   35.0800   21.6060   32.2160 C   0  0  0  0  0  0  0  0  0  0  0  0
   34.3960   22.3110   32.6960 H   0  0  0  0  0  0  0  0  0  0  0  0
   34.8880   20.2530   32.2450 C   0  0  0  0  0  0  0  0  0  0  0  0
   33.9990   19.9430   32.7850 H   0  0  0  0  0  0  0  0  0  0  0  0
   35.8090   19.4260   31.6080 C   0  0  0  0  0  3  0  0  0  0  0  0
   36.8950   20.0020   30.9610 C   0  0  0  0  0  3  0  0  0  0  0  0
  1  6  1  0  0  0  0
  1 12  1  0  0  0  0
  2  1  2  0  0  0  0
  3  4  2  0  0  0  0
  3  2  1  0  0  0  0
  4  5  1  0  0  0  0
  5 14  1  0  0  0  0
  5  6  2  0  0  0  0
  7  3  1  0  0  0  0
  8  7  1  0  0  0  0
  8 16  1  0  0  0  0
  9 10  1  0  0  0  0
  9 17  1  0  0  0  0
  9  8  1  0  0  0  0
 10 11  1  0  0  0  0
 10 19  1  0  0  0  0
 11 21  1  6  0  0  0
 11 24  1  0  0  0  0
 11  7  1  0  0  0  0
 13  2  1  0  0  0  0
 15  8  1  0  0  0  0
 18  9  1  0  0  0  0
 20 10  1  0  0  0  0
 22 23  1  0  0  0  0
 23 30  2  0  0  0  0
 23 24  1  0  0  0  0
 24 25  2  0  0  0  0
 25 27  1  0  0  0  0
 25 26  1  0  0  0  0
 27 28  1  0  0  0  0
 29 27  2  0  0  0  0
 30 29  1  0  0  0  0
M  END
>  <minimizedAffinity>
-5.00197649

$$$$

 OpenBabel03272507243D

 30 32  0  0  1  0  0  0  0  0999 V2000
   36.4390   24.1520   31.0160 C   0  0  0  0  0  0  0  0  0  0  0  0
   36.4330   25.1020   32.0500 C   0  0  0  0  0  0  0  0  0  0  0  0
   37.4630   25.0650   32.9760 C   0  0  0  0  0  0  0  0  0  0  0  0
   38.3940   24.1150   32.8080 N   0  0  0  0  0  0  0  0  0  0  0  0
   38.4170   23.1940   31.8200 C   0  0  0  0  0  0  0  0  0  0  0  0
   37.4080   23.2330   30.9180 N   0  0  0  0  0  0  0  0  0  0  0  0
   37.5740   25.9610   34.0560 N   0  0  0  0  0  0  0  0  0  0  0  0
   37.0550   27.3290   34.0060 C   0  0  0  0  0  0  0  0  0  0  0  0
   37.5130   27.9800   35.2860 C   0  0  0  0  0  0  0  0  0  0  0  0
   38.7310   27.1490   35.6050 C   0  0  0  0  0  0  0  0  0  0  0  0
   38.1470   25.7900   35.3230 C   0  0  2  0  0  0  0  0  0  0  0  0
   35.6220   24.1950   30.2950 H   0  0  0  0  0  0  0  0  0  0  0  0
   35.6790   25.8670   32.1800 H   0  0  0  0  0  0  0  0  0  0  0  0
   39.2320   22.4880   31.8110 H   0  0  0  0  0  0  0  0  0  0  0  0
   35.9600   27.3400   33.8630 H   0  0  0  0  0  0  0  0  0  0  0  0
   37.5910   27.8470   33.1760 H   0  0  0  0  0  0  0  0  0  0  0  0
   37.7520   29.0500   35.1490 H   0  0  0  0  0  0  0  0  0  0  0  0
   36.7600   27.8640   36.0930 H   0  0  0  0  0  0  0  0  0  0  0  0
   39.4990   27.4640   34.8740 H   0  0  0  0  0  0  0  0  0  0  0  0
   39.0620   27.2630   36.6540 H   0  0  0  0  0  0  0  0  0  0  0  0
   37.2920   25.7060   36.0740 H   0  0  0  0  0  0  0  0  0  0  0  0
   37.2480   23.4700   36.7600 F   0  0  0  0  0  0  0  0  0  0  0  0
   38.5100   23.6360   36.2790 C   0  0  0  0  0  0  0  0  0  0  0  0
   39.0650   24.6850   35.5540 C   0  0  0  0  0  0  0  0  0  0  0  0
   40.3870   24.5690   35.1680 C   0  0  0  0  0  0  0  0  0  0  0  0
   40.7590   25.4280   34.6020 H   0  0  0  0  0  0  0  0  0  0  0  0
   41.1640   23.4850   35.4630 C   0  0  0  0  0  0  0  0  0  0  0  0
   42.1800   23.5510   35.0870 H   0  0  0  0  0  0  0  0  0  0  0  0
   40.6100   22.4340   36.1900 C   0  0  0  0  0  3  0  0  0  0  0  0
   39.2830   22.5210   36.5920 C   0  0  0  0  0  3  0  0  0  0  0  0
  1  2  1  0  0  0  0
  2 13  1  0  0  0  0
  2  3  2  0  0  0  0
  3  7  1  0  0  0  0
  4  3  1  0  0  0  0
  5  4  2  0  0  0  0
  6  1  2  0  0  0  0
  6  5  1  0  0  0  0
  7 11  1  0  0  0  0
  8  7  1  0  0  0  0
  8  9  1  0  0  0  0
  9 10  1  0  0  0  0
  9 18  1  0  0  0  0
 10 20  1  0  0  0  0
 11 24  1  0  0  0  0
 11 10  1  0  0  0  0
 11 21  1  1  0  0  0
 12  1  1  0  0  0  0
 14  5  1  0  0  0  0
 15  8  1  0  0  0  0
 16  8  1  0  0  0  0
 17  9  1  0  0  0  0
 19 10  1  0  0  0  0
 23 30  1  0  0  0  0
 23 22  1  0  0  0  0
 24 23  2  0  0  0  0
 25 27  2  0  0  0  0
 25 24  1  0  0  0  0
 26 25  1  0  0  0  0
 27 29  1  0  0  0  0
 28 27  1  0  0  0  0
 29 30  2  0  0  0  0
M  END
>  <minimizedAffinity>
-4.98707581

$$$$

 OpenBabel03272507243D

 30 32  0  0  1  0  0  0  0  0999 V2000
   37.1180   22.6140   32.0790 C   0  0  0  0  0  0  0  0  0  0  0  0
   37.6720   23.4550   33.0590 C   0  0  0  0  0  0  0  0  0  0  0  0
   37.3040   24.7900   33.0550 C   0  0  0  0  0  0  0  0  0  0  0  0
   36.4380   25.1780   32.1080 N   0  0  0  0  0  0  0  0  0  0  0  0
   35.8960   24.3850   31.1580 C   0  0  0  0  0  0  0  0  0  0  0  0
   36.2580   23.0800   31.1640 N   0  0  0  0  0  0  0  0  0  0  0  0
   37.7830   25.7340   33.9840 N   0  0  0  0  0  0  0  0  0  0  0  0
   38.1800   25.3730   35.3460 C   0  0  0  0  0  0  0  0  0  0  0  0
   38.4780   26.6790   36.0370 C   0  0  0  0  0  0  0  0  0  0  0  0
   37.6330   27.6280   35.2250 C   0  0  0  0  0  0  0  0  0  0  0  0
   37.9860   27.1140   33.8540 C   0  0  2  0  0  0  0  0  0  0  0  0
   37.4180   21.5660   32.0950 H   0  0  0  0  0  0  0  0  0  0  0  0
   38.3690   23.1360   33.8220 H   0  0  0  0  0  0  0  0  0  0  0  0
   35.2110   24.8360   30.4580 H   0  0  0  0  0  0  0  0  0  0  0  0
   39.0250   24.6620   35.3450 H   0  0  0  0  0  0  0  0  0  0  0  0
   37.2760   24.9490   35.8440 H   0  0  0  0  0  0  0  0  0  0  0  0
   38.1930   26.6620   37.1040 H   0  0  0  0  0  0  0  0  0  0  0  0
   39.5490   26.9560   35.9400 H   0  0  0  0  0  0  0  0  0  0  0  0
   36.5890   27.4180   35.5230 H   0  0  0  0  0  0  0  0  0  0  0  0
   37.9180   28.6860   35.3710 H   0  0  0  0  0  0  0  0  0  0  0  0
   39.1110   27.2870   33.7850 H   0  0  0  0  0  0  0  0  0  0  0  0
   39.3330   27.3530   31.3260 F   0  0  0  0  0  0  0  0  0  0  0  0
   38.1160   27.8940   31.6040 C   0  0  0  0  0  0  0  0  0  0  0  0
   37.3480   27.8350   32.7620 C   0  0  0  0  0  0  0  0  0  0  0  0
   36.1180   28.4650   32.7490 C   0  0  0  0  0  0  0  0  0  0  0  0
   35.5680   28.3790   33.6900 H   0  0  0  0  0  0  0  0  0  0  0  0
   35.6280   29.1350   31.6640 C   0  0  0  0  0  0  0  0  0  0  0  0
   34.6480   29.5730   31.8190 H   0  0  0  0  0  0  0  0  0  0  0  0
   36.3960   29.1960   30.5040 C   0  0  0  0  0  3  0  0  0  0  0  0
   37.6370   28.5720   30.4860 C   0  0  0  0  0  3  0  0  0  0  0  0
  1 12  1  0  0  0  0
  1  2  1  0  0  0  0
  2 13  1  0  0  0  0
  3  2  2  0  0  0  0
  3  7  1  0  0  0  0
  4  3  1  0  0  0  0
  5  6  1  0  0  0  0
  5  4  2  0  0  0  0
  6  1  2  0  0  0  0
  7  8  1  0  0  0  0
  8 16  1  0  0  0  0
  8  9  1  0  0  0  0
  9 17  1  0  0  0  0
 10 20  1  0  0  0  0
 10 19  1  0  0  0  0
 10  9  1  0  0  0  0
 11 21  1  6  0  0  0
 11  7  1  0  0  0  0
 11 10  1  0  0  0  0
 14  5  1  0  0  0  0
 15  8  1  0  0  0  0
 18  9  1  0  0  0  0
 22 23  1  0  0  0  0
 23 24  1  0  0  0  0
 24 11  1  0  0  0  0
 25 24  2  0  0  0  0
 25 26  1  0  0  0  0
 27 28  1  0  0  0  0
 27 25  1  0  0  0  0
 29 27  2  0  0  0  0
 30 29  1  0  0  0  0
 30 23  2  0  0  0  0
M  END
>  <minimizedAffinity>
-4.9746232

$$$$

 OpenBabel03272507243D

 30 32  0  0  1  0  0  0  0  0999 V2000
   36.2190   22.6280   31.8710 C   0  0  0  0  0  0  0  0  0  0  0  0
   36.8830   23.8520   32.0550 C   0  0  0  0  0  0  0  0  0  0  0  0
   37.7300   23.9770   33.1440 C   0  0  0  0  0  0  0  0  0  0  0  0
   37.8490   22.9080   33.9440 N   0  0  0  0  0  0  0  0  0  0  0  0
   37.2190   21.7240   33.7840 C   0  0  0  0  0  0  0  0  0  0  0  0
   36.3920   21.6060   32.7180 N   0  0  0  0  0  0  0  0  0  0  0  0
   38.4560   25.1470   33.4380 N   0  0  0  0  0  0  0  0  0  0  0  0
   38.9010   26.0830   32.4040 C   0  0  0  0  0  0  0  0  0  0  0  0
   39.7590   27.0950   33.1210 C   0  0  0  0  0  0  0  0  0  0  0  0
   40.2110   26.2890   34.3120 C   0  0  0  0  0  0  0  0  0  0  0  0
   38.8880   25.6630   34.6670 C   0  0  2  0  0  0  0  0  0  0  0  0
   35.5570   22.5460   31.0080 H   0  0  0  0  0  0  0  0  0  0  0  0
   36.7840   24.7110   31.4050 H   0  0  0  0  0  0  0  0  0  0  0  0
   37.4110   20.9500   34.5090 H   0  0  0  0  0  0  0  0  0  0  0  0
   38.0460   26.5220   31.8610 H   0  0  0  0  0  0  0  0  0  0  0  0
   39.5810   25.5140   31.7260 H   0  0  0  0  0  0  0  0  0  0  0  0
   40.6020   27.4440   32.4990 H   0  0  0  0  0  0  0  0  0  0  0  0
   39.1600   27.9650   33.4630 H   0  0  0  0  0  0  0  0  0  0  0  0
   40.9510   25.5690   33.9150 H   0  0  0  0  0  0  0  0  0  0  0  0
   40.6170   26.9190   35.1250 H   0  0  0  0  0  0  0  0  0  0  0  0
   38.2260   26.5590   34.9110 H   0  0  0  0  0  0  0  0  0  0  0  0
   41.0130   23.7480   34.9430 F   0  0  0  0  0  0  0  0  0  0  0  0
   39.9960   23.9040   35.8350 C   0  0  0  0  0  0  0  0  0  0  0  0
   38.9300   24.7970   35.8360 C   0  0  0  0  0  0  0  0  0  0  0  0
   38.0520   24.7470   36.9020 C   0  0  0  0  0  0  0  0  0  0  0  0
   37.2390   25.4750   36.8400 H   0  0  0  0  0  0  0  0  0  0  0  0
   38.1820   23.8700   37.9410 C   0  0  0  0  0  0  0  0  0  0  0  0
   37.4090   23.9600   38.6970 H   0  0  0  0  0  0  0  0  0  0  0  0
   39.2490   22.9740   37.9410 C   0  0  0  0  0  3  0  0  0  0  0  0
   40.1490   23.0010   36.8840 C   0  0  0  0  0  3  0  0  0  0  0  0
  1  2  2  0  0  0  0
  1  6  1  0  0  0  0
  2  3  1  0  0  0  0
  3  7  1  0  0  0  0
  3  4  2  0  0  0  0
  5  4  1  0  0  0  0
  5 14  1  0  0  0  0
  6  5  2  0  0  0  0
  7 11  1  0  0  0  0
  8  9  1  0  0  0  0
  8  7  1  0  0  0  0
  9 18  1  0  0  0  0
  9 10  1  0  0  0  0
 10 11  1  0  0  0  0
 10 20  1  0  0  0  0
 11 21  1  1  0  0  0
 11 24  1  0  0  0  0
 12  1  1  0  0  0  0
 13  2  1  0  0  0  0
 15  8  1  0  0  0  0
 16  8  1  0  0  0  0
 17  9  1  0  0  0  0
 19 10  1  0  0  0  0
 22 23  1  0  0  0  0
 23 24  2  0  0  0  0
 23 30  1  0  0  0  0
 24 25  1  0  0  0  0
 25 27  2  0  0  0  0
 26 25  1  0  0  0  0
 27 29  1  0  0  0  0
 27 28  1  0  0  0  0
 30 29  2  0  0  0  0
M  END
>  <minimizedAffinity>
-4.96063232

$$$$

 OpenBabel03272507243D

 30 32  0  0  1  0  0  0  0  0999 V2000
   35.6890   22.9310   31.6880 C   0  0  0  0  0  0  0  0  0  0  0  0
   35.6500   24.2880   31.3270 C   0  0  0  0  0  0  0  0  0  0  0  0
   36.6310   25.1260   31.8330 C   0  0  0  0  0  0  0  0  0  0  0  0
   37.5500   24.5680   32.6340 N   0  0  0  0  0  0  0  0  0  0  0  0
   37.6040   23.2660   32.9910 C   0  0  0  0  0  0  0  0  0  0  0  0
   36.6430   22.4510   32.4960 N   0  0  0  0  0  0  0  0  0  0  0  0
   36.7060   26.5020   31.5450 N   0  0  0  0  0  0  0  0  0  0  0  0
   36.2170   27.0760   30.2900 C   0  0  0  0  0  0  0  0  0  0  0  0
   36.6230   28.5270   30.3280 C   0  0  0  0  0  0  0  0  0  0  0  0
   37.8060   28.4660   31.2610 C   0  0  0  0  0  0  0  0  0  0  0  0
   37.2090   27.5630   32.3090 C   0  0  2  0  0  0  0  0  0  0  0  0
   34.9100   22.2850   31.2820 H   0  0  0  0  0  0  0  0  0  0  0  0
   34.9060   24.7320   30.6800 H   0  0  0  0  0  0  0  0  0  0  0  0
   38.4040   22.9580   33.6460 H   0  0  0  0  0  0  0  0  0  0  0  0
   35.1310   26.9160   30.1680 H   0  0  0  0  0  0  0  0  0  0  0  0
   36.8050   26.6030   29.4690 H   0  0  0  0  0  0  0  0  0  0  0  0
   36.8900   28.9130   29.3280 H   0  0  0  0  0  0  0  0  0  0  0  0
   35.8270   29.1610   30.7730 H   0  0  0  0  0  0  0  0  0  0  0  0
   38.6160   27.9930   30.6760 H   0  0  0  0  0  0  0  0  0  0  0  0
   38.0860   29.4580   31.6610 H   0  0  0  0  0  0  0  0  0  0  0  0
   36.3160   28.1570   32.6960 H   0  0  0  0  0  0  0  0  0  0  0  0
   36.1580   27.5800   34.9830 F   0  0  0  0  0  0  0  0  0  0  0  0
   37.4620   27.3460   34.6700 C   0  0  0  0  0  0  0  0  0  0  0  0
   38.0930   27.2850   33.4320 C   0  0  0  0  0  0  0  0  0  0  0  0
   39.4440   26.9980   33.4140 C   0  0  0  0  0  0  0  0  0  0  0  0
   39.8760   26.9660   32.4100 H   0  0  0  0  0  0  0  0  0  0  0  0
   40.1800   26.7750   34.5430 C   0  0  0  0  0  0  0  0  0  0  0  0
   41.2270   26.5630   34.3550 H   0  0  0  0  0  0  0  0  0  0  0  0
   39.5500   26.8360   35.7840 C   0  0  0  0  0  3  0  0  0  0  0  0
   38.1920   27.1230   35.8340 C   0  0  0  0  0  3  0  0  0  0  0  0
  1  6  1  0  0  0  0
  2  1  2  0  0  0  0
  2  3  1  0  0  0  0
  3  4  2  0  0  0  0
  4  5  1  0  0  0  0
  5 14  1  0  0  0  0
  6  5  2  0  0  0  0
  7  3  1  0  0  0  0
  7 11  1  0  0  0  0
  8  9  1  0  0  0  0
  8  7  1  0  0  0  0
  9 18  1  0  0  0  0
  9 10  1  0  0  0  0
 10 20  1  0  0  0  0
 10 11  1  0  0  0  0
 11 21  1  1  0  0  0
 11 24  1  0  0  0  0
 12  1  1  0  0  0  0
 13  2  1  0  0  0  0
 15  8  1  0  0  0  0
 16  8  1  0  0  0  0
 17  9  1  0  0  0  0
 19 10  1  0  0  0  0
 23 22  1  0  0  0  0
 23 30  1  0  0  0  0
 24 23  2  0  0  0  0
 25 24  1  0  0  0  0
 25 27  2  0  0  0  0
 26 25  1  0  0  0  0
 27 29  1  0  0  0  0
 28 27  1  0  0  0  0
 29 30  2  0  0  0  0
M  END
>  <minimizedAffinity>
-4.9239397

$$$$

 OpenBabel03272507243D

 30 32  0  0  1  0  0  0  0  0999 V2000
   36.6240   22.5600   31.6670 C   0  0  0  0  0  0  0  0  0  0  0  0
   37.5870   23.2390   32.4310 C   0  0  0  0  0  0  0  0  0  0  0  0
   37.4230   24.6020   32.6250 C   0  0  0  0  0  0  0  0  0  0  0  0
   36.3460   25.1680   32.0620 N   0  0  0  0  0  0  0  0  0  0  0  0
   35.4090   24.5310   31.3260 C   0  0  0  0  0  0  0  0  0  0  0  0
   35.5730   23.2010   31.1380 N   0  0  0  0  0  0  0  0  0  0  0  0
   38.3130   25.3960   33.3710 N   0  0  0  0  0  0  0  0  0  0  0  0
   39.1010   24.8670   34.4870 C   0  0  0  0  0  0  0  0  0  0  0  0
   39.7900   26.0630   35.0940 C   0  0  0  0  0  0  0  0  0  0  0  0
   38.8530   27.1700   34.6800 C   0  0  0  0  0  0  0  0  0  0  0  0
   38.6430   26.7520   33.2480 C   0  0  2  0  0  0  0  0  0  0  0  0
   36.7670   21.4880   31.5240 H   0  0  0  0  0  0  0  0  0  0  0  0
   38.4540   22.7770   32.8830 H   0  0  0  0  0  0  0  0  0  0  0  0
   34.5940   25.1180   30.9340 H   0  0  0  0  0  0  0  0  0  0  0  0
   39.7910   24.0720   34.1540 H   0  0  0  0  0  0  0  0  0  0  0  0
   38.3730   24.4990   35.2490 H   0  0  0  0  0  0  0  0  0  0  0  0
   39.8880   25.9770   36.1910 H   0  0  0  0  0  0  0  0  0  0  0  0
   40.7900   26.2300   34.6410 H   0  0  0  0  0  0  0  0  0  0  0  0
   37.9570   27.0470   35.3150 H   0  0  0  0  0  0  0  0  0  0  0  0
   39.3110   28.1720   34.7690 H   0  0  0  0  0  0  0  0  0  0  0  0
   39.6890   26.8080   32.7970 H   0  0  0  0  0  0  0  0  0  0  0  0
   36.2700   27.8100   34.4750 F   0  0  0  0  0  0  0  0  0  0  0  0
   36.6500   28.0600   33.1930 C   0  0  0  0  0  0  0  0  0  0  0  0
   37.7730   27.6370   32.4890 C   0  0  0  0  0  0  0  0  0  0  0  0
   37.9160   28.0770   31.1860 C   0  0  0  0  0  0  0  0  0  0  0  0
   38.8190   27.7080   30.6920 H   0  0  0  0  0  0  0  0  0  0  0  0
   37.0160   28.8960   30.5660 C   0  0  0  0  0  0  0  0  0  0  0  0
   37.2760   29.1480   29.5430 H   0  0  0  0  0  0  0  0  0  0  0  0
   35.8910   29.3200   31.2700 C   0  0  0  0  0  3  0  0  0  0  0  0
   35.7190   28.8960   32.5810 C   0  0  0  0  0  3  0  0  0  0  0  0
  1  2  1  0  0  0  0
  2  3  2  0  0  0  0
  2 13  1  0  0  0  0
  3  7  1  0  0  0  0
  4  3  1  0  0  0  0
  5  4  2  0  0  0  0
  6  5  1  0  0  0  0
  6  1  2  0  0  0  0
  7  8  1  0  0  0  0
  8  9  1  0  0  0  0
  8 16  1  0  0  0  0
  9 17  1  0  0  0  0
 10 20  1  0  0  0  0
 10  9  1  0  0  0  0
 10 19  1  0  0  0  0
 11 21  1  6  0  0  0
 11  7  1  0  0  0  0
 11 10  1  0  0  0  0
 12  1  1  0  0  0  0
 14  5  1  0  0  0  0
 15  8  1  0  0  0  0
 18  9  1  0  0  0  0
 23 22  1  0  0  0  0
 24 23  2  0  0  0  0
 24 11  1  0  0  0  0
 25 24  1  0  0  0  0
 26 25  1  0  0  0  0
 27 25  2  0  0  0  0
 27 29  1  0  0  0  0
 28 27  1  0  0  0  0
 29 30  2  0  0  0  0
 30 23  1  0  0  0  0
M  END
>  <minimizedAffinity>
-4.91456175

$$$$

 OpenBabel03272507243D

 30 32  0  0  1  0  0  0  0  0999 V2000
   38.9640   26.3870   32.5270 C   0  0  0  0  0  0  0  0  0  0  0  0
   38.5420   25.0490   32.4600 C   0  0  0  0  0  0  0  0  0  0  0  0
   38.2070   24.4120   33.6440 C   0  0  0  0  0  0  0  0  0  0  0  0
   38.3130   25.1310   34.7700 N   0  0  0  0  0  0  0  0  0  0  0  0
   38.7170   26.4170   34.8540 C   0  0  0  0  0  0  0  0  0  0  0  0
   39.0440   27.0370   33.6960 N   0  0  0  0  0  0  0  0  0  0  0  0
   37.7680   23.0760   33.7130 N   0  0  0  0  0  0  0  0  0  0  0  0
   37.0410   22.4250   32.6220 C   0  0  0  0  0  0  0  0  0  0  0  0
   36.6320   21.0770   33.1590 C   0  0  0  0  0  0  0  0  0  0  0  0
   36.6110   21.3580   34.6400 C   0  0  0  0  0  0  0  0  0  0  0  0
   37.9030   22.1270   34.7340 C   0  0  2  0  0  0  0  0  0  0  0  0
   39.2240   26.8750   31.5870 H   0  0  0  0  0  0  0  0  0  0  0  0
   38.4580   24.4740   31.5480 H   0  0  0  0  0  0  0  0  0  0  0  0
   38.7540   26.8690   35.8320 H   0  0  0  0  0  0  0  0  0  0  0  0
   37.6510   22.3760   31.7020 H   0  0  0  0  0  0  0  0  0  0  0  0
   36.1000   23.0050   32.4700 H   0  0  0  0  0  0  0  0  0  0  0  0
   35.6490   20.7540   32.7740 H   0  0  0  0  0  0  0  0  0  0  0  0
   37.3950   20.3020   32.9360 H   0  0  0  0  0  0  0  0  0  0  0  0
   35.7110   21.9790   34.8070 H   0  0  0  0  0  0  0  0  0  0  0  0
   36.6180   20.4360   35.2500 H   0  0  0  0  0  0  0  0  0  0  0  0
   38.6880   21.3720   34.3950 H   0  0  0  0  0  0  0  0  0  0  0  0
   40.6180   21.9210   35.6530 F   0  0  0  0  0  0  0  0  0  0  0  0
   39.5840   22.3890   36.4040 C   0  0  0  0  0  0  0  0  0  0  0  0
   38.2430   22.5630   36.0810 C   0  0  0  0  0  0  0  0  0  0  0  0
   37.4120   23.0920   37.0500 C   0  0  0  0  0  0  0  0  0  0  0  0
   36.3730   23.2020   36.7290 H   0  0  0  0  0  0  0  0  0  0  0  0
   37.8430   23.4480   38.2960 C   0  0  0  0  0  0  0  0  0  0  0  0
   37.0650   23.8480   38.9380 H   0  0  0  0  0  0  0  0  0  0  0  0
   39.1860   23.2740   38.6230 C   0  0  0  0  0  3  0  0  0  0  0  0
   40.0460   22.7440   37.6690 C   0  0  0  0  0  3  0  0  0  0  0  0
  1  6  1  0  0  0  0
  2  1  2  0  0  0  0
  2  3  1  0  0  0  0
  3  7  1  0  0  0  0
  3  4  2  0  0  0  0
  4  5  1  0  0  0  0
  5 14  1  0  0  0  0
  6  5  2  0  0  0  0
  7 11  1  0  0  0  0
  8  9  1  0  0  0  0
  8  7  1  0  0  0  0
  9 10  1  0  0  0  0
 10 11  1  0  0  0  0
 10 19  1  0  0  0  0
 10 20  1  0  0  0  0
 11 21  1  6  0  0  0
 11 24  1  0  0  0  0
 12  1  1  0  0  0  0
 13  2  1  0  0  0  0
 15  8  1  0  0  0  0
 16  8  1  0  0  0  0
 17  9  1  0  0  0  0
 18  9  1  0  0  0  0
 22 23  1  0  0  0  0
 23 30  1  0  0  0  0
 24 23  2  0  0  0  0
 24 25  1  0  0  0  0
 25 27  2  0  0  0  0
 26 25  1  0  0  0  0
 27 29  1  0  0  0  0
 27 28  1  0  0  0  0
 30 29  2  0  0  0  0
M  END
>  <minimizedAffinity>
-4.89976215

$$$$

 OpenBabel03272507243D

 30 32  0  0  1  0  0  0  0  0999 V2000
   39.3960   23.9700   35.3970 C   0  0  0  0  0  0  0  0  0  0  0  0
   38.7380   24.6090   34.3330 C   0  0  0  0  0  0  0  0  0  0  0  0
   37.8770   23.8550   33.5530 C   0  0  0  0  0  0  0  0  0  0  0  0
   37.7380   22.5620   33.8800 N   0  0  0  0  0  0  0  0  0  0  0  0
   38.3620   21.9310   34.8990 C   0  0  0  0  0  0  0  0  0  0  0  0
   39.2030   22.6710   35.6590 N   0  0  0  0  0  0  0  0  0  0  0  0
   37.1550   24.3750   32.4620 N   0  0  0  0  0  0  0  0  0  0  0  0
   36.7320   25.7740   32.3870 C   0  0  0  0  0  0  0  0  0  0  0  0
   35.8720   25.8690   31.1530 C   0  0  0  0  0  0  0  0  0  0  0  0
   35.3960   24.4430   31.0300 C   0  0  0  0  0  0  0  0  0  0  0  0
   36.7090   23.7530   31.2890 C   0  0  2  0  0  0  0  0  0  0  0  0
   40.0710   24.5780   36.0020 H   0  0  0  0  0  0  0  0  0  0  0  0
   38.8540   25.6530   34.0740 H   0  0  0  0  0  0  0  0  0  0  0  0
   38.1530   20.8830   35.0440 H   0  0  0  0  0  0  0  0  0  0  0  0
   37.5980   26.4590   32.3850 H   0  0  0  0  0  0  0  0  0  0  0  0
   36.0580   25.9540   33.2580 H   0  0  0  0  0  0  0  0  0  0  0  0
   35.0400   26.5850   31.2760 H   0  0  0  0  0  0  0  0  0  0  0  0
   36.4720   26.1410   30.2590 H   0  0  0  0  0  0  0  0  0  0  0  0
   34.6570   24.3110   31.8420 H   0  0  0  0  0  0  0  0  0  0  0  0
   34.9830   24.2150   30.0300 H   0  0  0  0  0  0  0  0  0  0  0  0
   37.3740   24.1170   30.4360 H   0  0  0  0  0  0  0  0  0  0  0  0
   34.4720   22.3770   32.4560 F   0  0  0  0  0  0  0  0  0  0  0  0
   35.5210   21.7620   31.8460 C   0  0  0  0  0  0  0  0  0  0  0  0
   36.6430   22.3000   31.2250 C   0  0  0  0  0  0  0  0  0  0  0  0
   37.5460   21.4210   30.6570 C   0  0  0  0  0  0  0  0  0  0  0  0
   38.4030   21.9110   30.1870 H   0  0  0  0  0  0  0  0  0  0  0  0
   37.3880   20.0640   30.6770 C   0  0  0  0  0  0  0  0  0  0  0  0
   38.1870   19.5170   30.1870 H   0  0  0  0  0  0  0  0  0  0  0  0
   36.2650   19.5230   31.2990 C   0  0  0  0  0  3  0  0  0  0  0  0
   35.3400   20.3810   31.8790 C   0  0  0  0  0  3  0  0  0  0  0  0
  1  6  1  0  0  0  0
  1 12  1  0  0  0  0
  2  1  2  0  0  0  0
  3  4  2  0  0  0  0
  3  2  1  0  0  0  0
  4  5  1  0  0  0  0
  5 14  1  0  0  0  0
  5  6  2  0  0  0  0
  7  3  1  0  0  0  0
  8  7  1  0  0  0  0
  8 16  1  0  0  0  0
  9 17  1  0  0  0  0
  9  8  1  0  0  0  0
 10  9  1  0  0  0  0
 10 11  1  0  0  0  0
 10 19  1  0  0  0  0
 11 21  1  6  0  0  0
 11  7  1  0  0  0  0
 13  2  1  0  0  0  0
 15  8  1  0  0  0  0
 18  9  1  0  0  0  0
 20 10  1  0  0  0  0
 23 30  1  0  0  0  0
 23 22  1  0  0  0  0
 24 11  1  0  0  0  0
 24 23  2  0  0  0  0
 25 27  2  0  0  0  0
 25 24  1  0  0  0  0
 26 25  1  0  0  0  0
 27 29  1  0  0  0  0
 28 27  1  0  0  0  0
 29 30  2  0  0  0  0
M  END
>  <minimizedAffinity>
-4.75674534

$$$$

 OpenBabel03272507243D

 30 32  0  0  1  0  0  0  0  0999 V2000
   36.1830   22.5420   31.9640 C   0  0  0  0  0  0  0  0  0  0  0  0
   36.8060   23.7850   32.1600 C   0  0  0  0  0  0  0  0  0  0  0  0
   37.8580   23.8520   33.0590 C   0  0  0  0  0  0  0  0  0  0  0  0
   38.2010   22.7120   33.6760 N   0  0  0  0  0  0  0  0  0  0  0  0
   37.6140   21.5090   33.5000 C   0  0  0  0  0  0  0  0  0  0  0  0
   36.5860   21.4470   32.6210 N   0  0  0  0  0  0  0  0  0  0  0  0
   38.5670   25.0350   33.3430 N   0  0  0  0  0  0  0  0  0  0  0  0
   38.7320   26.1130   32.3660 C   0  0  0  0  0  0  0  0  0  0  0  0
   39.6680   27.1010   33.0120 C   0  0  0  0  0  0  0  0  0  0  0  0
   40.4070   26.2040   33.9740 C   0  0  0  0  0  0  0  0  0  0  0  0
   39.2240   25.4420   34.5110 C   0  0  2  0  0  0  0  0  0  0  0  0
   35.3570   22.5060   31.2530 H   0  0  0  0  0  0  0  0  0  0  0  0
   36.5250   24.7010   31.6590 H   0  0  0  0  0  0  0  0  0  0  0  0
   37.9980   20.6750   34.0670 H   0  0  0  0  0  0  0  0  0  0  0  0
   37.7590   26.5420   32.0700 H   0  0  0  0  0  0  0  0  0  0  0  0
   39.2800   25.6780   31.4960 H   0  0  0  0  0  0  0  0  0  0  0  0
   40.3400   27.5830   32.2800 H   0  0  0  0  0  0  0  0  0  0  0  0
   39.1120   27.8780   33.5780 H   0  0  0  0  0  0  0  0  0  0  0  0
   41.0810   25.5940   33.3450 H   0  0  0  0  0  0  0  0  0  0  0  0
   40.9430   26.7690   34.7590 H   0  0  0  0  0  0  0  0  0  0  0  0
   38.5840   26.2500   34.9980 H   0  0  0  0  0  0  0  0  0  0  0  0
   37.3590   24.8850   36.6250 F   0  0  0  0  0  0  0  0  0  0  0  0
   38.5810   24.2990   36.5030 C   0  0  0  0  0  0  0  0  0  0  0  0
   39.5610   24.4560   35.5280 C   0  0  0  0  0  0  0  0  0  0  0  0
   40.7100   23.6980   35.6450 C   0  0  0  0  0  0  0  0  0  0  0  0
   41.4370   23.8700   34.8460 H   0  0  0  0  0  0  0  0  0  0  0  0
   40.9260   22.8120   36.6630 C   0  0  0  0  0  0  0  0  0  0  0  0
   41.8790   22.2970   36.6090 H   0  0  0  0  0  0  0  0  0  0  0  0
   39.9460   22.6540   37.6410 C   0  0  0  0  0  3  0  0  0  0  0  0
   38.7790   23.4020   37.5500 C   0  0  0  0  0  3  0  0  0  0  0  0
  1  2  2  0  0  0  0
  1  6  1  0  0  0  0
  2  3  1  0  0  0  0
  3  7  1  0  0  0  0
  3  4  2  0  0  0  0
  5  4  1  0  0  0  0
  5 14  1  0  0  0  0
  6  5  2  0  0  0  0
  7 11  1  0  0  0  0
  8  9  1  0  0  0  0
  8  7  1  0  0  0  0
  9 18  1  0  0  0  0
  9 10  1  0  0  0  0
 10 11  1  0  0  0  0
 10 20  1  0  0  0  0
 11 21  1  1  0  0  0
 11 24  1  0  0  0  0
 12  1  1  0  0  0  0
 13  2  1  0  0  0  0
 15  8  1  0  0  0  0
 16  8  1  0  0  0  0
 17  9  1  0  0  0  0
 19 10  1  0  0  0  0
 23 22  1  0  0  0  0
 23 30  1  0  0  0  0
 24 25  1  0  0  0  0
 24 23  2  0  0  0  0
 25 27  2  0  0  0  0
 26 25  1  0  0  0  0
 27 29  1  0  0  0  0
 28 27  1  0  0  0  0
 30 29  2  0  0  0  0
M  END
>  <minimizedAffinity>
-4.74350595

$$$$
