
 OpenBabel03272508053D

 35 38  0  0  0  0  0  0  0  0999 V2000
   38.8230   31.1150   45.6620 C   0  0  0  0  0  0  0  0  0  0  0  0
   39.8700   31.9860   45.7840 C   0  0  0  0  0  0  0  0  0  0  0  0
   40.7060   31.9180   44.6870 C   0  0  0  0  0  0  0  0  0  0  0  0
   40.1310   30.9840   43.9110 N   0  0  0  0  0  0  0  0  0  0  0  0
   39.0310   30.5090   44.4730 N   0  0  0  0  0  0  0  0  0  0  0  0
   40.0230   32.6460   46.6300 H   0  0  0  0  0  0  0  0  0  0  0  0
   41.6050   32.4460   44.4490 H   0  0  0  0  0  0  0  0  0  0  0  0
   37.7230   30.8750   46.5920 C   0  0  0  0  0  0  0  0  0  0  0  0
   37.9780   31.1290   47.9720 C   0  0  0  0  0  0  0  0  0  0  0  0
   36.9270   30.8970   48.8600 C   0  0  0  0  0  0  0  0  0  0  0  0
   35.7400   30.4500   48.3650 N   0  0  0  0  0  0  0  0  0  0  0  0
   35.5390   30.2230   47.0520 C   0  0  0  0  0  0  0  0  0  0  0  0
   36.5400   30.4390   46.1790 N   0  0  0  0  0  0  0  0  0  0  0  0
   38.9540   31.4840   48.2750 H   0  0  0  0  0  0  0  0  0  0  0  0
   34.5690   29.8670   46.7320 H   0  0  0  0  0  0  0  0  0  0  0  0
   37.1650   31.1550   50.3120 C   0  0  0  0  0  0  0  0  0  0  0  0
   36.6530   32.3890   50.5610 F   0  0  0  0  0  0  0  0  0  0  0  0
   36.5200   30.2270   51.1210 F   0  0  0  0  0  0  0  0  0  0  0  0
   38.5260   31.1370   50.6240 F   0  0  0  0  0  0  0  0  0  0  0  0
   40.5620   30.4770   42.6090 C   0  0  0  0  0  0  0  0  0  0  0  0
   40.2710   31.1520   41.4180 C   0  0  0  0  0  0  0  0  0  0  0  0
   40.6700   30.6710   40.2430 C   0  0  0  0  0  0  0  0  0  0  0  0
   41.4050   29.4500   40.2090 C   0  0  0  0  0  0  0  0  0  0  0  0
   41.4840   29.0320   42.0150 S   0  0  0  0  0  0  0  0  0  0  0  0
   39.7060   32.0990   41.3960 H   0  0  0  0  0  0  0  0  0  0  0  0
   40.5630   31.0070   39.2480 H   0  0  0  0  0  0  0  0  0  0  0  0
   43.7910   30.2290   38.8640 F   0  0  0  0  0  0  0  0  0  0  0  0
   43.1610   29.0580   38.6180 C   0  0  0  0  0  0  0  0  0  0  0  0
   42.0120   28.5940   39.2110 C   0  0  0  0  0  0  0  0  0  0  0  0
   41.3810   27.4220   38.9660 C   0  0  0  0  0  0  0  0  0  0  0  0
   40.4760   27.1320   39.4790 H   0  0  0  0  0  0  0  0  0  0  0  0
   41.9280   26.5760   38.0210 C   0  0  0  0  0  0  0  0  0  0  0  0
   41.5130   25.6290   37.7500 H   0  0  0  0  0  0  0  0  0  0  0  0
   43.0990   26.9700   37.3680 C   0  0  0  0  0  0  0  0  0  0  0  0
   43.7100   28.1960   37.6620 C   0  0  0  0  0  0  0  0  0  0  0  0
  1  2  1  0  0  0  0
  1  8  1  0  0  0  0
  2  6  1  0  0  0  0
  3  2  2  0  0  0  0
  4  5  1  0  0  0  0
  4  3  1  0  0  0  0
  5  1  2  0  0  0  0
  7  3  1  0  0  0  0
  8  9  1  0  0  0  0
  9 14  1  0  0  0  0
  9 10  2  0  0  0  0
 10 16  1  0  0  0  0
 11 10  1  0  0  0  0
 12 11  2  0  0  0  0
 13  8  2  0  0  0  0
 13 12  1  0  0  0  0
 15 12  1  0  0  0  0
 16 17  1  0  0  0  0
 16 19  1  0  0  0  0
 16 18  1  0  0  0  0
 20  4  1  0  0  0  0
 21 20  2  0  0  0  0
 22 21  1  0  0  0  0
 23 22  2  0  0  0  0
 23 24  1  0  0  0  0
 24 20  1  0  0  0  0
 25 21  1  0  0  0  0
 26 22  1  0  0  0  0
 28 27  1  0  0  0  0
 28 29  1  0  0  0  0
 29 23  1  0  0  0  0
 30 29  2  0  0  0  0
 30 31  1  0  0  0  0
 32 30  1  0  0  0  0
 33 32  1  0  0  0  0
 34 35  1  0  0  0  0
 34 32  2  0  0  0  0
 35 28  2  0  0  0  0
M  END
>  <minimizedAffinity>
-6.496346

>  <minimizedRMSD>
0.34588325

$$$$
