
 OpenBabel03272510273D

 45 49  0  0  1  0  0  0  0  0999 V2000
   39.4670   33.5780   43.4440 O   0  0  0  0  0  0  0  0  0  0  0  0
   36.1480   30.1870   46.9760 C   0  0  0  0  0  0  0  0  0  0  0  0
   37.0080   30.6830   47.9260 C   0  0  0  0  0  0  0  0  0  0  0  0
   38.0350   31.5720   47.5690 C   0  0  0  0  0  0  0  0  0  0  0  0
   38.1380   31.9200   46.2410 C   0  0  0  0  0  0  0  0  0  0  0  0
   39.0400   32.7690   45.6620 N   0  0  0  0  0  0  0  0  0  0  0  0
   38.7350   32.7940   44.3510 C   0  0  0  0  0  0  0  0  0  0  0  0
   37.7050   32.0140   44.0960 N   0  0  0  0  0  0  0  0  0  0  0  0
   37.2920   31.4410   45.2590 C   0  0  0  0  0  0  0  0  0  0  0  0
   36.2790   30.5570   45.6440 C   0  0  0  0  0  0  0  0  0  0  0  0
   35.3390   29.5010   47.1910 H   0  0  0  0  0  0  0  0  0  0  0  0
   38.7300   31.9800   48.2940 H   0  0  0  0  0  0  0  0  0  0  0  0
   39.8110   33.2910   46.1440 H   0  0  0  0  0  0  0  0  0  0  0  0
   35.6190   30.1840   44.8750 H   0  0  0  0  0  0  0  0  0  0  0  0
   37.4030   30.0820   51.6210 C   0  0  0  0  0  0  0  0  0  0  0  0
   37.7220   30.5150   50.3460 C   0  0  0  0  0  0  0  0  0  0  0  0
   36.8460   30.2950   49.3150 C   0  0  0  0  0  0  0  0  0  0  0  0
   35.6710   29.6400   49.6230 N   0  0  0  0  0  0  0  0  0  0  0  0
   35.3600   29.2200   50.8580 C   0  0  0  0  0  0  0  0  0  0  0  0
   36.2140   29.4390   51.8420 N   0  0  0  0  0  0  0  0  0  0  0  0
   38.1140   30.2690   52.4150 H   0  0  0  0  0  0  0  0  0  0  0  0
   38.6350   31.0300   50.0800 H   0  0  0  0  0  0  0  0  0  0  0  0
   34.4270   28.7210   51.0000 H   0  0  0  0  0  0  0  0  0  0  0  0
   39.7610   31.7320   42.1390 N   0  0  0  0  0  0  0  0  0  0  0  0
   39.4100   33.1690   42.0800 C   0  0  1  0  0  0  0  0  0  0  0  0
   38.0790   33.3080   41.5150 C   0  0  0  0  0  0  0  0  0  0  0  0
   38.1170   32.8630   40.1800 O   0  0  0  0  0  0  0  0  0  0  0  0
   38.5770   31.5950   40.0000 C   0  0  0  0  0  0  0  0  0  0  0  0
   39.8480   31.3000   40.7630 C   0  0  2  0  0  0  0  0  0  0  0  0
   40.7410   31.7970   42.5220 H   0  0  0  0  0  0  0  0  0  0  0  0
   40.1430   33.7120   41.4600 H   0  0  0  0  0  0  0  0  0  0  0  0
   37.8840   34.4180   41.3970 H   0  0  0  0  0  0  0  0  0  0  0  0
   37.1920   32.8910   41.9030 H   0  0  0  0  0  0  0  0  0  0  0  0
   37.8140   30.8740   40.3750 H   0  0  0  0  0  0  0  0  0  0  0  0
   38.7780   31.4870   38.9180 H   0  0  0  0  0  0  0  0  0  0  0  0
   40.6880   31.8210   40.2300 H   0  0  0  0  0  0  0  0  0  0  0  0
   38.1990   29.4620   42.1520 F   0  0  0  0  0  0  0  0  0  0  0  0
   39.1850   28.9930   41.3630 C   0  0  0  0  0  0  0  0  0  0  0  0
   40.0410   29.8310   40.6450 C   0  0  0  0  0  0  0  0  0  0  0  0
   41.0240   29.2490   39.8620 C   0  0  0  0  0  0  0  0  0  0  0  0
   41.6980   29.9010   39.2960 H   0  0  0  0  0  0  0  0  0  0  0  0
   41.1960   27.8820   39.7580 C   0  0  0  0  0  0  0  0  0  0  0  0
   41.9630   27.4330   39.1460 H   0  0  0  0  0  0  0  0  0  0  0  0
   40.3250   27.0730   40.4880 C   0  0  0  0  0  3  0  0  0  0  0  0
   39.3450   27.6220   41.2700 C   0  0  0  0  0  3  0  0  0  0  0  0
  1  7  1  0  0  0  0
  2 11  1  0  0  0  0
  2  3  1  0  0  0  0
  3 17  1  0  0  0  0
  4  3  2  0  0  0  0
  4 12  1  0  0  0  0
  5  4  1  0  0  0  0
  6 13  1  0  0  0  0
  6  5  1  0  0  0  0
  7  6  1  0  0  0  0
  8  7  2  0  0  0  0
  8  9  1  0  0  0  0
  9 10  1  0  0  0  0
  9  5  2  0  0  0  0
 10  2  2  0  0  0  0
 14 10  1  0  0  0  0
 15 20  1  0  0  0  0
 15 21  1  0  0  0  0
 16 15  2  0  0  0  0
 17 18  2  0  0  0  0
 17 16  1  0  0  0  0
 18 19  1  0  0  0  0
 19 23  1  0  0  0  0
 19 20  2  0  0  0  0
 22 16  1  0  0  0  0
 24 30  1  0  0  0  0
 25 31  1  6  0  0  0
 25 24  1  0  0  0  0
 25  1  1  0  0  0  0
 26 33  1  0  0  0  0
 26 25  1  0  0  0  0
 27 26  1  0  0  0  0
 28 27  1  0  0  0  0
 28 34  1  0  0  0  0
 28 29  1  0  0  0  0
 29 36  1  6  0  0  0
 29 24  1  0  0  0  0
 32 26  1  0  0  0  0
 35 28  1  0  0  0  0
 38 37  1  0  0  0  0
 39 29  1  0  0  0  0
 39 38  2  0  0  0  0
 40 39  1  0  0  0  0
 41 40  1  0  0  0  0
 42 40  2  0  0  0  0
 42 44  1  0  0  0  0
 43 42  1  0  0  0  0
 44 45  2  0  0  0  0
 45 38  1  0  0  0  0
M  END
>  <minimizedAffinity>
-6.12340164

>  <minimizedRMSD>
0.555667162

$$$$
