
 OpenBabel03272510273D

 45 49  0  0  1  0  0  0  0  0999 V2000
   39.4420   33.6160   43.4220 O   0  0  0  0  0  0  0  0  0  0  0  0
   36.1850   30.1630   46.9520 C   0  0  0  0  0  0  0  0  0  0  0  0
   37.0240   30.6880   47.9050 C   0  0  0  0  0  0  0  0  0  0  0  0
   38.0310   31.6010   47.5500 C   0  0  0  0  0  0  0  0  0  0  0  0
   38.1350   31.9420   46.2210 C   0  0  0  0  0  0  0  0  0  0  0  0
   39.0190   32.8110   45.6430 N   0  0  0  0  0  0  0  0  0  0  0  0
   38.7240   32.8190   44.3290 C   0  0  0  0  0  0  0  0  0  0  0  0
   37.7170   32.0110   44.0720 N   0  0  0  0  0  0  0  0  0  0  0  0
   37.3100   31.4350   45.2350 C   0  0  0  0  0  0  0  0  0  0  0  0
   36.3170   30.5270   45.6180 C   0  0  0  0  0  0  0  0  0  0  0  0
   35.3930   29.4570   47.1660 H   0  0  0  0  0  0  0  0  0  0  0  0
   38.7090   32.0310   48.2780 H   0  0  0  0  0  0  0  0  0  0  0  0
   39.7720   33.3560   46.1270 H   0  0  0  0  0  0  0  0  0  0  0  0
   35.6730   30.1320   44.8470 H   0  0  0  0  0  0  0  0  0  0  0  0
   37.4150   30.1060   51.6040 C   0  0  0  0  0  0  0  0  0  0  0  0
   37.7340   30.5350   50.3270 C   0  0  0  0  0  0  0  0  0  0  0  0
   36.8620   30.3050   49.2960 C   0  0  0  0  0  0  0  0  0  0  0  0
   35.6910   29.6420   49.6030 N   0  0  0  0  0  0  0  0  0  0  0  0
   35.3790   29.2260   50.8390 C   0  0  0  0  0  0  0  0  0  0  0  0
   36.2290   29.4550   51.8250 N   0  0  0  0  0  0  0  0  0  0  0  0
   38.1220   30.3010   52.3990 H   0  0  0  0  0  0  0  0  0  0  0  0
   38.6440   31.0550   50.0620 H   0  0  0  0  0  0  0  0  0  0  0  0
   34.4500   28.7220   50.9820 H   0  0  0  0  0  0  0  0  0  0  0  0
   39.7600   31.8350   42.0350 N   0  0  0  0  0  0  0  0  0  0  0  0
   39.3310   33.2520   42.0490 C   0  0  1  0  0  0  0  0  0  0  0  0
   37.9650   33.3370   41.5620 C   0  0  0  0  0  0  0  0  0  0  0  0
   37.9510   32.9410   40.2110 O   0  0  0  0  0  0  0  0  0  0  0  0
   38.4680   31.7070   39.9590 C   0  0  0  0  0  0  0  0  0  0  0  0
   39.7930   31.4560   40.6420 C   0  0  2  0  0  0  0  0  0  0  0  0
   40.7560   31.9400   42.3670 H   0  0  0  0  0  0  0  0  0  0  0  0
   39.9980   33.8550   41.4120 H   0  0  0  0  0  0  0  0  0  0  0  0
   37.7050   34.4380   41.4970 H   0  0  0  0  0  0  0  0  0  0  0  0
   37.1240   32.8590   41.9820 H   0  0  0  0  0  0  0  0  0  0  0  0
   37.7660   30.9330   40.3480 H   0  0  0  0  0  0  0  0  0  0  0  0
   38.6130   31.6470   38.8650 H   0  0  0  0  0  0  0  0  0  0  0  0
   40.5730   32.0400   40.0840 H   0  0  0  0  0  0  0  0  0  0  0  0
   42.3460   30.4850   39.8910 F   0  0  0  0  0  0  0  0  0  0  0  0
   41.3420   29.6090   40.0880 C   0  0  0  0  0  0  0  0  0  0  0  0
   40.0560   30.0050   40.4590 C   0  0  0  0  0  0  0  0  0  0  0  0
   39.0940   29.0250   40.6370 C   0  0  0  0  0  0  0  0  0  0  0  0
   38.0840   29.3280   40.9280 H   0  0  0  0  0  0  0  0  0  0  0  0
   39.3460   27.6770   40.4660 C   0  0  0  0  0  0  0  0  0  0  0  0
   38.5940   26.9160   40.6050 H   0  0  0  0  0  0  0  0  0  0  0  0
   40.6430   27.3140   40.0940 C   0  0  0  0  0  3  0  0  0  0  0  0
   41.6130   28.2630   39.9120 C   0  0  0  0  0  3  0  0  0  0  0  0
  1  7  1  0  0  0  0
  2 11  1  0  0  0  0
  2  3  1  0  0  0  0
  3 17  1  0  0  0  0
  4  3  2  0  0  0  0
  4 12  1  0  0  0  0
  5  4  1  0  0  0  0
  6 13  1  0  0  0  0
  6  5  1  0  0  0  0
  7  6  1  0  0  0  0
  8  7  2  0  0  0  0
  8  9  1  0  0  0  0
  9 10  1  0  0  0  0
  9  5  2  0  0  0  0
 10  2  2  0  0  0  0
 14 10  1  0  0  0  0
 15 20  1  0  0  0  0
 15 21  1  0  0  0  0
 16 15  2  0  0  0  0
 17 18  2  0  0  0  0
 17 16  1  0  0  0  0
 18 19  1  0  0  0  0
 19 23  1  0  0  0  0
 19 20  2  0  0  0  0
 22 16  1  0  0  0  0
 24 25  1  0  0  0  0
 24 30  1  0  0  0  0
 25 31  1  6  0  0  0
 25  1  1  0  0  0  0
 26 33  1  0  0  0  0
 26 25  1  0  0  0  0
 27 26  1  0  0  0  0
 28 27  1  0  0  0  0
 28 34  1  0  0  0  0
 28 29  1  0  0  0  0
 29 36  1  6  0  0  0
 29 24  1  0  0  0  0
 32 26  1  0  0  0  0
 35 28  1  0  0  0  0
 37 38  1  0  0  0  0
 38 39  1  0  0  0  0
 39 40  2  0  0  0  0
 39 29  1  0  0  0  0
 40 41  1  0  0  0  0
 42 43  1  0  0  0  0
 42 40  1  0  0  0  0
 44 42  2  0  0  0  0
 45 38  2  0  0  0  0
 45 44  1  0  0  0  0
M  END
>  <minimizedAffinity>
-6.18932295

>  <minimizedRMSD>
0.435958505

$$$$
