
 OpenBabel03272510263D

 45 49  0  0  1  0  0  0  0  0999 V2000
   39.4560   33.5890   43.4210 O   0  0  0  0  0  0  0  0  0  0  0  0
   36.1510   30.1910   46.9590 C   0  0  0  0  0  0  0  0  0  0  0  0
   37.0100   30.6910   47.9080 C   0  0  0  0  0  0  0  0  0  0  0  0
   38.0340   31.5830   47.5490 C   0  0  0  0  0  0  0  0  0  0  0  0
   38.1350   31.9290   46.2210 C   0  0  0  0  0  0  0  0  0  0  0  0
   39.0340   32.7810   45.6410 N   0  0  0  0  0  0  0  0  0  0  0  0
   38.7270   32.8040   44.3290 C   0  0  0  0  0  0  0  0  0  0  0  0
   37.7000   32.0200   44.0760 N   0  0  0  0  0  0  0  0  0  0  0  0
   37.2900   31.4470   45.2400 C   0  0  0  0  0  0  0  0  0  0  0  0
   36.2800   30.5600   45.6260 C   0  0  0  0  0  0  0  0  0  0  0  0
   35.3450   29.5020   47.1760 H   0  0  0  0  0  0  0  0  0  0  0  0
   38.7280   31.9930   48.2740 H   0  0  0  0  0  0  0  0  0  0  0  0
   39.8030   33.3060   46.1210 H   0  0  0  0  0  0  0  0  0  0  0  0
   35.6200   30.1840   44.8580 H   0  0  0  0  0  0  0  0  0  0  0  0
   37.4110   30.0940   51.6030 C   0  0  0  0  0  0  0  0  0  0  0  0
   37.7280   30.5260   50.3270 C   0  0  0  0  0  0  0  0  0  0  0  0
   36.8510   30.3030   49.2980 C   0  0  0  0  0  0  0  0  0  0  0  0
   35.6780   29.6450   49.6070 N   0  0  0  0  0  0  0  0  0  0  0  0
   35.3690   29.2250   50.8420 C   0  0  0  0  0  0  0  0  0  0  0  0
   36.2230   29.4470   51.8250 N   0  0  0  0  0  0  0  0  0  0  0  0
   38.1220   30.2830   52.3960 H   0  0  0  0  0  0  0  0  0  0  0  0
   38.6390   31.0430   50.0600 H   0  0  0  0  0  0  0  0  0  0  0  0
   34.4380   28.7240   50.9870 H   0  0  0  0  0  0  0  0  0  0  0  0
   39.7540   31.7380   42.1230 N   0  0  0  0  0  0  0  0  0  0  0  0
   39.4040   33.1760   42.0590 C   0  0  1  0  0  0  0  0  0  0  0  0
   38.0760   33.3130   41.4880 C   0  0  0  0  0  0  0  0  0  0  0  0
   38.1170   32.8640   40.1550 O   0  0  0  0  0  0  0  0  0  0  0  0
   38.5780   31.5950   39.9800 C   0  0  0  0  0  0  0  0  0  0  0  0
   39.8460   31.3020   40.7500 C   0  0  2  0  0  0  0  0  0  0  0  0
   40.7330   31.8040   42.5100 H   0  0  0  0  0  0  0  0  0  0  0  0
   40.1390   33.7160   41.4400 H   0  0  0  0  0  0  0  0  0  0  0  0
   37.8810   34.4230   41.3660 H   0  0  0  0  0  0  0  0  0  0  0  0
   37.1860   32.8980   41.8740 H   0  0  0  0  0  0  0  0  0  0  0  0
   37.8130   30.8760   40.3560 H   0  0  0  0  0  0  0  0  0  0  0  0
   38.7830   31.4830   38.9000 H   0  0  0  0  0  0  0  0  0  0  0  0
   40.6880   31.8200   40.2170 H   0  0  0  0  0  0  0  0  0  0  0  0
   38.1920   29.4690   42.1410 F   0  0  0  0  0  0  0  0  0  0  0  0
   39.1810   28.9980   41.3560 C   0  0  0  0  0  0  0  0  0  0  0  0
   40.0380   29.8320   40.6380 C   0  0  0  0  0  0  0  0  0  0  0  0
   41.0230   29.2470   39.8580 C   0  0  0  0  0  0  0  0  0  0  0  0
   41.6990   29.8970   39.2930 H   0  0  0  0  0  0  0  0  0  0  0  0
   41.1960   27.8800   39.7600 C   0  0  0  0  0  0  0  0  0  0  0  0
   41.9650   27.4280   39.1520 H   0  0  0  0  0  0  0  0  0  0  0  0
   40.3220   27.0740   40.4910 C   0  0  0  0  0  3  0  0  0  0  0  0
   39.3400   27.6250   41.2680 C   0  0  0  0  0  3  0  0  0  0  0  0
  1  7  1  0  0  0  0
  2 11  1  0  0  0  0
  2  3  1  0  0  0  0
  3 17  1  0  0  0  0
  4  3  2  0  0  0  0
  4 12  1  0  0  0  0
  5  4  1  0  0  0  0
  6 13  1  0  0  0  0
  6  5  1  0  0  0  0
  7  6  1  0  0  0  0
  8  7  2  0  0  0  0
  8  9  1  0  0  0  0
  9 10  1  0  0  0  0
  9  5  2  0  0  0  0
 10  2  2  0  0  0  0
 14 10  1  0  0  0  0
 15 20  1  0  0  0  0
 15 21  1  0  0  0  0
 16 15  2  0  0  0  0
 17 18  2  0  0  0  0
 17 16  1  0  0  0  0
 18 19  1  0  0  0  0
 19 23  1  0  0  0  0
 19 20  2  0  0  0  0
 22 16  1  0  0  0  0
 24 30  1  0  0  0  0
 25 31  1  6  0  0  0
 25 24  1  0  0  0  0
 25  1  1  0  0  0  0
 26 33  1  0  0  0  0
 26 25  1  0  0  0  0
 27 26  1  0  0  0  0
 28 27  1  0  0  0  0
 28 34  1  0  0  0  0
 28 29  1  0  0  0  0
 29 36  1  6  0  0  0
 29 24  1  0  0  0  0
 32 26  1  0  0  0  0
 35 28  1  0  0  0  0
 38 37  1  0  0  0  0
 39 29  1  0  0  0  0
 39 38  2  0  0  0  0
 40 39  1  0  0  0  0
 41 40  1  0  0  0  0
 42 40  2  0  0  0  0
 42 44  1  0  0  0  0
 43 42  1  0  0  0  0
 44 45  2  0  0  0  0
 45 38  1  0  0  0  0
M  END
>  <minimizedAffinity>
-6.13556814

>  <minimizedRMSD>
0.540641963

$$$$
