
 OpenBabel03272502483D

 42 45  0  0  0  0  0  0  0  0999 V2000
   34.4730   27.6570   49.4450 Cl  0  0  0  0  0  0  0  0  0  0  0  0
   33.7810   28.5810   48.1420 C   0  0  0  0  0  0  0  0  0  0  0  0
   34.3030   29.8070   47.8390 C   0  0  0  0  0  0  0  0  0  0  0  0
   33.7800   30.5700   46.8110 C   0  0  0  0  0  0  0  0  0  0  0  0
   32.7140   30.1100   46.0640 C   0  0  0  0  0  0  0  0  0  0  0  0
   32.1720   28.8780   46.3510 C   0  0  0  0  0  0  0  0  0  0  0  0
   30.8200   28.1910   45.4730 Cl  0  0  0  0  0  0  0  0  0  0  0  0
   32.7260   28.1520   47.3870 C   0  0  0  0  0  0  0  0  0  0  0  0
   34.2300   31.5330   46.6120 H   0  0  0  0  0  0  0  0  0  0  0  0
   33.8340   29.8450   43.5870 F   0  0  0  0  0  0  0  0  0  0  0  0
   32.7750   30.6960   43.7640 C   0  0  0  0  0  0  0  0  0  0  0  0
   32.1450   30.8960   44.9740 C   0  0  0  0  0  0  0  0  0  0  0  0
   31.0780   31.7740   45.0760 C   0  0  0  0  0  0  0  0  0  0  0  0
   30.6360   31.8750   46.0650 H   0  0  0  0  0  0  0  0  0  0  0  0
   30.6640   32.4410   43.9400 C   0  0  0  0  0  0  0  0  0  0  0  0
   29.8330   33.1230   44.0290 H   0  0  0  0  0  0  0  0  0  0  0  0
   31.2970   32.2410   42.7250 C   0  0  0  0  0  0  0  0  0  0  0  0
   32.3730   31.3580   42.6060 C   0  0  0  0  0  0  0  0  0  0  0  0
   36.5810   30.5770   50.6090 C   0  0  0  0  0  0  0  0  0  0  0  0
   37.5840   31.3270   50.0000 C   0  0  0  0  0  0  0  0  0  0  0  0
   37.4560   31.5560   48.6380 C   0  0  0  0  0  0  0  0  0  0  0  0
   36.3880   31.0500   47.9810 N   0  0  0  0  0  0  0  0  0  0  0  0
   35.4360   30.3250   48.6130 C   0  0  0  0  0  0  0  0  0  0  0  0
   35.5520   30.1030   49.9170 N   0  0  0  0  0  0  0  0  0  0  0  0
   36.6440   30.3760   51.6770 H   0  0  0  0  0  0  0  0  0  0  0  0
   38.4200   31.7210   50.5240 H   0  0  0  0  0  0  0  0  0  0  0  0
   38.4440   32.3320   47.8750 C   0  0  0  0  0  0  0  0  0  0  0  0
   39.1180   33.4170   48.3760 C   0  0  0  0  0  0  0  0  0  0  0  0
   39.9650   33.9370   47.4540 N   0  0  0  0  0  0  0  0  0  0  0  0
   39.8220   33.1720   46.3620 C   0  0  0  0  0  0  0  0  0  0  0  0
   38.9130   32.2260   46.6380 N   0  0  0  0  0  0  0  0  0  0  0  0
   40.6080   31.9960   44.3800 C   0  0  0  0  0  0  0  0  0  0  0  0
   40.2110   30.9260   44.8910 O   0  0  0  0  0  0  0  0  0  0  0  0
   40.4400   33.2270   45.0930 N   0  0  0  0  0  0  0  0  0  0  0  0
   39.0310   33.8550   49.3760 H   0  0  0  0  0  0  0  0  0  0  0  0
   40.6140   34.7460   47.5050 H   0  0  0  0  0  0  0  0  0  0  0  0
   41.0890   31.9910   43.3780 H   0  0  0  0  0  0  0  0  0  0  0  0
   40.7620   34.1450   44.6920 H   0  0  0  0  0  0  0  0  0  0  0  0
   32.1570   26.8100   47.7190 C   0  0  0  0  0  0  0  0  0  0  0  0
   33.1630   25.8530   47.7850 F   0  0  0  0  0  0  0  0  0  0  0  0
   31.3590   26.3630   46.6460 F   0  0  0  0  0  0  0  0  0  0  0  0
   31.3670   26.8230   48.8330 F   0  0  0  0  0  0  0  0  0  0  0  0
  2  1  1  0  0  0  0
  3  2  1  0  0  0  0
  3 23  1  0  0  0  0
  4  3  2  0  0  0  0
  5  6  2  0  0  0  0
  5  4  1  0  0  0  0
  6  8  1  0  0  0  0
  7  6  1  0  0  0  0
  8 39  1  0  0  0  0
  8  2  2  0  0  0  0
  9  4  1  0  0  0  0
 10 11  1  0  0  0  0
 11 12  1  0  0  0  0
 12 13  2  0  0  0  0
 12  5  1  0  0  0  0
 13 14  1  0  0  0  0
 15 16  1  0  0  0  0
 15 13  1  0  0  0  0
 17 15  2  0  0  0  0
 18 17  1  0  0  0  0
 18 11  2  0  0  0  0
 19 25  1  0  0  0  0
 20 26  1  0  0  0  0
 20 19  1  0  0  0  0
 21 20  2  0  0  0  0
 22 23  2  0  0  0  0
 22 21  1  0  0  0  0
 23 24  1  0  0  0  0
 24 19  2  0  0  0  0
 27 28  2  0  0  0  0
 27 21  1  0  0  0  0
 28 35  1  0  0  0  0
 29 36  1  0  0  0  0
 29 28  1  0  0  0  0
 30 31  2  0  0  0  0
 30 29  1  0  0  0  0
 31 27  1  0  0  0  0
 32 33  2  0  0  0  0
 32 34  1  0  0  0  0
 34 30  1  0  0  0  0
 37 32  1  0  0  0  0
 38 34  1  0  0  0  0
 39 40  1  0  0  0  0
 39 42  1  0  0  0  0
 41 39  1  0  0  0  0
M  END
>  <minimizedAffinity>
-6.92261505

>  <minimizedRMSD>
0.859023869

$$$$
