
 OpenBabel03272510333D

 28 30  0  0  0  0  0  0  0  0999 V2000
   36.1870   30.3070   46.3460 C   0  0  0  0  0  0  0  0  0  0  0  0
   35.5050   30.2200   45.1430 C   0  0  0  0  0  0  0  0  0  0  0  0
   34.2220   29.6980   45.1080 C   0  0  0  0  0  0  0  0  0  0  0  0
   33.6450   29.2710   46.2970 C   0  0  0  0  0  0  0  0  0  0  0  0
   34.3130   29.3520   47.5000 C   0  0  0  0  0  0  0  0  0  0  0  0
   35.5940   29.8750   47.5270 C   0  0  0  0  0  0  0  0  0  0  0  0
   35.9710   30.5550   44.2440 H   0  0  0  0  0  0  0  0  0  0  0  0
   33.7060   29.6360   44.1720 H   0  0  0  0  0  0  0  0  0  0  0  0
   32.6420   28.8560   46.3130 H   0  0  0  0  0  0  0  0  0  0  0  0
   33.8970   29.0310   48.4440 H   0  0  0  0  0  0  0  0  0  0  0  0
   38.9400   32.6070   46.9610 C   0  0  0  0  0  0  0  0  0  0  0  0
   40.0280   32.0300   46.2940 C   0  0  0  0  0  0  0  0  0  0  0  0
   39.7890   30.8190   45.6230 C   0  0  0  0  0  0  0  0  0  0  0  0
   38.5480   30.2940   45.6600 N   0  0  0  0  0  0  0  0  0  0  0  0
   37.5250   30.8660   46.3040 C   0  0  0  0  0  0  0  0  0  0  0  0
   37.7330   32.0300   46.9560 N   0  0  0  0  0  0  0  0  0  0  0  0
   39.0290   33.5350   47.5030 H   0  0  0  0  0  0  0  0  0  0  0  0
   40.9500   32.5530   46.3490 H   0  0  0  0  0  0  0  0  0  0  0  0
   40.6330   30.3810   45.1100 H   0  0  0  0  0  0  0  0  0  0  0  0
   34.4790   31.4270   49.5580 F   0  0  0  0  0  0  0  0  0  0  0  0
   35.6640   30.7730   49.7280 C   0  0  0  0  0  0  0  0  0  0  0  0
   36.3210   29.9690   48.7910 C   0  0  0  0  0  0  0  0  0  0  0  0
   37.5310   29.3880   49.1650 C   0  0  0  0  0  0  0  0  0  0  0  0
   37.9510   28.7970   48.3830 H   0  0  0  0  0  0  0  0  0  0  0  0
   38.0310   29.6140   50.4090 C   0  0  0  0  0  0  0  0  0  0  0  0
   38.9720   29.1180   50.6000 H   0  0  0  0  0  0  0  0  0  0  0  0
   37.3940   30.4030   51.3430 C   0  0  0  0  0  3  0  0  0  0  0  0
   36.1860   30.9910   50.9860 C   0  0  0  0  0  3  0  0  0  0  0  0
  1  6  1  0  0  0  0
  2  1  2  0  0  0  0
  3  2  1  0  0  0  0
  3  4  2  0  0  0  0
  4  9  1  0  0  0  0
  4  5  1  0  0  0  0
  5  6  2  0  0  0  0
  5 10  1  0  0  0  0
  6 22  1  0  0  0  0
  7  2  1  0  0  0  0
  8  3  1  0  0  0  0
 11 17  1  0  0  0  0
 12 18  1  0  0  0  0
 12 11  2  0  0  0  0
 13 14  2  0  0  0  0
 13 12  1  0  0  0  0
 14 15  1  0  0  0  0
 15  1  1  0  0  0  0
 15 16  2  0  0  0  0
 16 11  1  0  0  0  0
 19 13  1  0  0  0  0
 20 21  1  0  0  0  0
 21 28  1  0  0  0  0
 22 23  1  0  0  0  0
 22 21  2  0  0  0  0
 23 25  2  0  0  0  0
 24 23  1  0  0  0  0
 25 26  1  0  0  0  0
 25 27  1  0  0  0  0
 28 27  2  0  0  0  0
M  END
>  <minimizedAffinity>
-4.79162359

>  <minimizedRMSD>
2.37515569

$$$$
