
 OpenBabel03272504503D

 42 45  0  0  1  0  0  0  0  0999 V2000
   37.2340   31.1550   48.6040 N   0  0  0  0  0  0  0  0  0  0  0  0
   37.9550   31.1280   49.8710 C   0  0  0  0  0  0  0  0  0  0  0  0
   39.0280   32.1560   49.9730 C   0  0  0  0  0  0  0  0  0  0  0  0
   38.6670   33.4150   49.1820 C   0  0  0  0  0  0  0  0  0  0  0  0
   38.6530   32.9540   47.7550 C   0  0  0  0  0  0  0  0  0  0  0  0
   37.5270   31.9960   47.4910 C   0  0  1  0  0  0  0  0  0  0  0  0
   37.1920   31.2910   50.6850 H   0  0  0  0  0  0  0  0  0  0  0  0
   38.3830   30.1230   50.0470 H   0  0  0  0  0  0  0  0  0  0  0  0
   40.0320   31.8360   49.6750 H   0  0  0  0  0  0  0  0  0  0  0  0
   39.0760   32.4920   51.0470 H   0  0  0  0  0  0  0  0  0  0  0  0
   37.6260   33.7200   49.4570 H   0  0  0  0  0  0  0  0  0  0  0  0
   39.3910   34.2100   49.3520 H   0  0  0  0  0  0  0  0  0  0  0  0
   38.6200   33.7800   47.0260 H   0  0  0  0  0  0  0  0  0  0  0  0
   39.6030   32.3700   47.6170 H   0  0  0  0  0  0  0  0  0  0  0  0
   36.6280   32.5970   47.2530 H   0  0  0  0  0  0  0  0  0  0  0  0
   40.1080   30.9380   46.8400 F   0  0  0  0  0  0  0  0  0  0  0  0
   39.0840   30.7300   45.9840 C   0  0  0  0  0  0  0  0  0  0  0  0
   37.8300   31.2100   46.2480 C   0  0  0  0  0  0  0  0  0  0  0  0
   36.8740   30.9160   45.2670 C   0  0  0  0  0  0  0  0  0  0  0  0
   35.8640   31.2950   45.4700 H   0  0  0  0  0  0  0  0  0  0  0  0
   37.1810   30.2010   44.1320 C   0  0  0  0  0  0  0  0  0  0  0  0
   36.3380   30.0540   43.4690 H   0  0  0  0  0  0  0  0  0  0  0  0
   38.4560   29.7450   43.9200 C   0  0  0  0  0  0  0  0  0  0  0  0
   39.4300   30.0120   44.8600 C   0  0  0  0  0  0  0  0  0  0  0  0
   36.1540   29.0310   49.1750 C   0  0  0  0  0  0  0  0  0  0  0  0
   36.1430   30.2470   48.5060 C   0  0  0  0  0  0  0  0  0  0  0  0
   35.0270   30.5320   47.7410 C   0  0  0  0  0  0  0  0  0  0  0  0
   34.0110   29.6270   47.6800 N   0  0  0  0  0  0  0  0  0  0  0  0
   34.0510   28.4630   48.3370 C   0  0  0  0  0  0  0  0  0  0  0  0
   35.1290   28.1770   49.0800 N   0  0  0  0  0  0  0  0  0  0  0  0
   36.9960   28.7400   49.7930 H   0  0  0  0  0  0  0  0  0  0  0  0
   34.9210   31.4510   47.1890 H   0  0  0  0  0  0  0  0  0  0  0  0
   32.9530   27.5200   48.2510 C   0  0  0  0  0  0  0  0  0  0  0  0
   33.1210   26.3140   47.6000 C   0  0  0  0  0  0  0  0  0  0  0  0
   32.1060   25.3900   47.4960 C   0  0  0  0  0  0  0  0  0  0  0  0
   30.9260   25.7440   48.0750 C   0  0  0  0  0  0  0  0  0  0  0  0
   30.7110   26.9530   48.7430 C   0  0  0  0  0  0  0  0  0  0  0  0
   31.7630   27.8410   48.8190 N   0  0  0  0  0  0  0  0  0  0  0  0
   34.0880   26.0850   47.1560 H   0  0  0  0  0  0  0  0  0  0  0  0
   32.1970   24.4390   46.9970 H   0  0  0  0  0  0  0  0  0  0  0  0
   30.0710   25.0710   48.0390 H   0  0  0  0  0  0  0  0  0  0  0  0
   29.7510   27.1970   49.1930 H   0  0  0  0  0  0  0  0  0  0  0  0
  1  2  1  0  0  0  0
  2  3  1  0  0  0  0
  2  8  1  0  0  0  0
  2  7  1  0  0  0  0
  3 10  1  0  0  0  0
  4 12  1  0  0  0  0
  4 11  1  0  0  0  0
  4  3  1  0  0  0  0
  5  4  1  0  0  0  0
  6 15  1  6  0  0  0
  6  5  1  0  0  0  0
  6  1  1  0  0  0  0
  9  3  1  0  0  0  0
 13  5  1  0  0  0  0
 14  5  1  0  0  0  0
 17 18  1  0  0  0  0
 17 16  1  0  0  0  0
 18  6  1  0  0  0  0
 19 20  1  0  0  0  0
 19 18  2  0  0  0  0
 21 19  1  0  0  0  0
 22 21  1  0  0  0  0
 23 21  2  0  0  0  0
 23 24  1  0  0  0  0
 24 17  2  0  0  0  0
 25 31  1  0  0  0  0
 26  1  1  0  0  0  0
 26 25  2  0  0  0  0
 27 26  1  0  0  0  0
 28 27  2  0  0  0  0
 28 29  1  0  0  0  0
 29 30  2  0  0  0  0
 30 25  1  0  0  0  0
 32 27  1  0  0  0  0
 33 29  1  0  0  0  0
 33 38  1  0  0  0  0
 34 33  2  0  0  0  0
 35 34  1  0  0  0  0
 35 36  2  0  0  0  0
 36 37  1  0  0  0  0
 37 38  2  0  0  0  0
 37 42  1  0  0  0  0
 39 34  1  0  0  0  0
 40 35  1  0  0  0  0
 41 36  1  0  0  0  0
M  END
>  <minimizedAffinity>
-5.85345507

>  <minimizedRMSD>
1.24112546

$$$$
