
 OpenBabel03272504513D

 42 45  0  0  1  0  0  0  0  0999 V2000
   36.2720   27.8230   32.0540 N   0  0  0  0  0  0  0  0  0  0  0  0
   35.8920   28.3440   33.3620 C   0  0  0  0  0  0  0  0  0  0  0  0
   35.8870   29.8320   33.4360 C   0  0  0  0  0  0  0  0  0  0  0  0
   35.5140   30.4530   32.0890 C   0  0  0  0  0  0  0  0  0  0  0  0
   36.6520   30.0760   31.1890 C   0  0  0  0  0  0  0  0  0  0  0  0
   36.6930   28.5960   30.9330 C   0  0  1  0  0  0  0  0  0  0  0  0
   34.8620   27.9470   33.5850 H   0  0  0  0  0  0  0  0  0  0  0  0
   36.5570   27.9340   34.1460 H   0  0  0  0  0  0  0  0  0  0  0  0
   36.8110   30.3000   33.7890 H   0  0  0  0  0  0  0  0  0  0  0  0
   35.0570   30.1340   34.1350 H   0  0  0  0  0  0  0  0  0  0  0  0
   34.5900   29.9480   31.7090 H   0  0  0  0  0  0  0  0  0  0  0  0
   35.3920   31.5320   32.1720 H   0  0  0  0  0  0  0  0  0  0  0  0
   36.6550   30.6210   30.2310 H   0  0  0  0  0  0  0  0  0  0  0  0
   37.5860   30.3230   31.7630 H   0  0  0  0  0  0  0  0  0  0  0  0
   36.0170   28.3870   30.0820 H   0  0  0  0  0  0  0  0  0  0  0  0
   37.5250   28.6220   28.1920 F   0  0  0  0  0  0  0  0  0  0  0  0
   38.4110   28.2410   29.1390 C   0  0  0  0  0  0  0  0  0  0  0  0
   38.0670   28.2150   30.4630 C   0  0  0  0  0  0  0  0  0  0  0  0
   39.0900   27.7960   31.3230 C   0  0  0  0  0  0  0  0  0  0  0  0
   38.8250   27.7730   32.3880 H   0  0  0  0  0  0  0  0  0  0  0  0
   40.3380   27.4430   30.8640 C   0  0  0  0  0  0  0  0  0  0  0  0
   41.0210   27.1420   31.6480 H   0  0  0  0  0  0  0  0  0  0  0  0
   40.6260   27.4880   29.5240 C   0  0  0  0  0  3  0  0  0  0  0  0
   39.6480   27.8940   28.6400 C   0  0  0  0  0  3  0  0  0  0  0  0
   36.9790   25.5690   32.7050 C   0  0  0  0  0  0  0  0  0  0  0  0
   36.2020   26.4080   31.9200 C   0  0  0  0  0  0  0  0  0  0  0  0
   35.3590   25.8060   31.0030 C   0  0  0  0  0  0  0  0  0  0  0  0
   35.3310   24.4470   30.9140 N   0  0  0  0  0  0  0  0  0  0  0  0
   36.0940   23.6650   31.6850 C   0  0  0  0  0  0  0  0  0  0  0  0
   36.9130   24.2390   32.5760 N   0  0  0  0  0  0  0  0  0  0  0  0
   37.6630   25.9690   33.4450 H   0  0  0  0  0  0  0  0  0  0  0  0
   34.7110   26.3700   30.3530 H   0  0  0  0  0  0  0  0  0  0  0  0
   36.0410   22.2220   31.5660 C   0  0  0  0  0  0  0  0  0  0  0  0
   35.0420   21.5070   32.1970 C   0  0  0  0  0  0  0  0  0  0  0  0
   34.9540   20.1360   32.1100 C   0  0  0  0  0  0  0  0  0  0  0  0
   35.9170   19.5320   31.3620 C   0  0  0  0  0  0  0  0  0  0  0  0
   36.9470   20.2140   30.7070 C   0  0  0  0  0  0  0  0  0  0  0  0
   36.9860   21.5860   30.8270 N   0  0  0  0  0  0  0  0  0  0  0  0
   34.2980   22.0460   32.7810 H   0  0  0  0  0  0  0  0  0  0  0  0
   34.1900   19.5440   32.5860 H   0  0  0  0  0  0  0  0  0  0  0  0
   35.9220   18.4490   31.2410 H   0  0  0  0  0  0  0  0  0  0  0  0
   37.6980   19.6910   30.1190 H   0  0  0  0  0  0  0  0  0  0  0  0
  1  2  1  0  0  0  0
  2  3  1  0  0  0  0
  2  7  1  0  0  0  0
  2  8  1  0  0  0  0
  3  9  1  0  0  0  0
  3 10  1  0  0  0  0
  4 12  1  0  0  0  0
  4  3  1  0  0  0  0
  5 14  1  0  0  0  0
  5  4  1  0  0  0  0
  6 15  1  6  0  0  0
  6  5  1  0  0  0  0
  6  1  1  0  0  0  0
 11  4  1  0  0  0  0
 13  5  1  0  0  0  0
 16 17  1  0  0  0  0
 17 18  1  0  0  0  0
 18  6  1  0  0  0  0
 18 19  2  0  0  0  0
 19 20  1  0  0  0  0
 21 19  1  0  0  0  0
 21 22  1  0  0  0  0
 23 21  2  0  0  0  0
 24 17  2  0  0  0  0
 24 23  1  0  0  0  0
 25 31  1  0  0  0  0
 26  1  1  0  0  0  0
 26 25  2  0  0  0  0
 27 26  1  0  0  0  0
 28 27  2  0  0  0  0
 28 29  1  0  0  0  0
 29 30  2  0  0  0  0
 30 25  1  0  0  0  0
 32 27  1  0  0  0  0
 33 29  1  0  0  0  0
 33 34  1  0  0  0  0
 34 39  1  0  0  0  0
 35 34  2  0  0  0  0
 35 40  1  0  0  0  0
 36 35  1  0  0  0  0
 37 38  1  0  0  0  0
 37 36  2  0  0  0  0
 38 33  2  0  0  0  0
 41 36  1  0  0  0  0
 42 37  1  0  0  0  0
M  END
>  <minimizedAffinity>
-5.69995785

$$$$

 OpenBabel03272504513D

 42 45  0  0  1  0  0  0  0  0999 V2000
   41.6840   24.0020   35.3110 N   0  0  0  0  0  0  0  0  0  0  0  0
   43.0010   24.5320   35.6440 C   0  0  0  0  0  0  0  0  0  0  0  0
   43.8530   23.5820   36.4120 C   0  0  0  0  0  0  0  0  0  0  0  0
   43.5480   22.1320   36.0330 C   0  0  0  0  0  0  0  0  0  0  0  0
   42.1420   21.9220   36.5060 C   0  0  0  0  0  0  0  0  0  0  0  0
   41.1600   22.7410   35.7190 C   0  0  1  0  0  0  0  0  0  0  0  0
   43.5030   24.7940   34.6690 H   0  0  0  0  0  0  0  0  0  0  0  0
   42.9010   25.4820   36.2040 H   0  0  0  0  0  0  0  0  0  0  0  0
   43.8110   23.6710   37.5020 H   0  0  0  0  0  0  0  0  0  0  0  0
   44.9200   23.7490   36.0920 H   0  0  0  0  0  0  0  0  0  0  0  0
   43.5530   22.0490   34.9160 H   0  0  0  0  0  0  0  0  0  0  0  0
   44.2500   21.4450   36.5020 H   0  0  0  0  0  0  0  0  0  0  0  0
   41.8310   20.8650   36.5070 H   0  0  0  0  0  0  0  0  0  0  0  0
   42.1140   22.3200   37.5570 H   0  0  0  0  0  0  0  0  0  0  0  0
   40.8890   22.1590   34.8170 H   0  0  0  0  0  0  0  0  0  0  0  0
   38.5440   22.2420   34.6650 F   0  0  0  0  0  0  0  0  0  0  0  0
   38.6640   22.6340   35.9520 C   0  0  0  0  0  0  0  0  0  0  0  0
   39.8900   22.8810   36.5070 C   0  0  0  0  0  0  0  0  0  0  0  0
   39.8530   23.2810   37.8490 C   0  0  0  0  0  0  0  0  0  0  0  0
   40.8310   23.4810   38.3040 H   0  0  0  0  0  0  0  0  0  0  0  0
   38.6730   23.4110   38.5450 C   0  0  0  0  0  0  0  0  0  0  0  0
   38.8060   23.7270   39.5720 H   0  0  0  0  0  0  0  0  0  0  0  0
   37.4730   23.1500   37.9360 C   0  0  0  0  0  3  0  0  0  0  0  0
   37.4610   22.7540   36.6150 C   0  0  0  0  0  3  0  0  0  0  0  0
   40.4290   26.0770   34.9610 C   0  0  0  0  0  0  0  0  0  0  0  0
   40.8760   24.8470   34.5000 C   0  0  0  0  0  0  0  0  0  0  0  0
   40.4980   24.4820   33.2200 C   0  0  0  0  0  0  0  0  0  0  0  0
   39.7220   25.3280   32.4870 N   0  0  0  0  0  0  0  0  0  0  0  0
   39.3070   26.5080   32.9590 C   0  0  0  0  0  0  0  0  0  0  0  0
   39.6680   26.8700   34.1980 N   0  0  0  0  0  0  0  0  0  0  0  0
   40.6860   26.4300   35.9530 H   0  0  0  0  0  0  0  0  0  0  0  0
   40.7980   23.5510   32.7700 H   0  0  0  0  0  0  0  0  0  0  0  0
   38.4820   27.3850   32.1540 C   0  0  0  0  0  0  0  0  0  0  0  0
   37.2540   27.8110   32.6220 C   0  0  0  0  0  0  0  0  0  0  0  0
   36.4390   28.6440   31.8910 C   0  0  0  0  0  0  0  0  0  0  0  0
   36.9220   29.0210   30.6750 C   0  0  0  0  0  0  0  0  0  0  0  0
   38.1560   28.6140   30.1610 C   0  0  0  0  0  0  0  0  0  0  0  0
   38.9330   27.7810   30.9360 N   0  0  0  0  0  0  0  0  0  0  0  0
   36.9210   27.4770   33.6030 H   0  0  0  0  0  0  0  0  0  0  0  0
   35.4760   28.9980   32.2220 H   0  0  0  0  0  0  0  0  0  0  0  0
   36.3400   29.6790   30.0320 H   0  0  0  0  0  0  0  0  0  0  0  0
   38.5050   28.9390   29.1820 H   0  0  0  0  0  0  0  0  0  0  0  0
  1  2  1  0  0  0  0
  1  6  1  0  0  0  0
  2  8  1  0  0  0  0
  2  3  1  0  0  0  0
  3  9  1  0  0  0  0
  4  3  1  0  0  0  0
  4 12  1  0  0  0  0
  4  5  1  0  0  0  0
  5 13  1  0  0  0  0
  5 14  1  0  0  0  0
  6 15  1  6  0  0  0
  6  5  1  0  0  0  0
  6 18  1  0  0  0  0
  7  2  1  0  0  0  0
 10  3  1  0  0  0  0
 11  4  1  0  0  0  0
 16 17  1  0  0  0  0
 17 18  2  0  0  0  0
 17 24  1  0  0  0  0
 18 19  1  0  0  0  0
 19 20  1  0  0  0  0
 19 21  2  0  0  0  0
 21 22  1  0  0  0  0
 23 21  1  0  0  0  0
 24 23  2  0  0  0  0
 25 31  1  0  0  0  0
 26 25  1  0  0  0  0
 26  1  1  0  0  0  0
 27 26  2  0  0  0  0
 28 29  2  0  0  0  0
 28 27  1  0  0  0  0
 29 30  1  0  0  0  0
 30 25  2  0  0  0  0
 32 27  1  0  0  0  0
 33 34  1  0  0  0  0
 33 29  1  0  0  0  0
 34 39  1  0  0  0  0
 35 40  1  0  0  0  0
 35 34  2  0  0  0  0
 36 35  1  0  0  0  0
 37 36  2  0  0  0  0
 37 38  1  0  0  0  0
 38 33  2  0  0  0  0
 41 36  1  0  0  0  0
 42 37  1  0  0  0  0
M  END
>  <minimizedAffinity>
-5.69025326

$$$$

 OpenBabel03272504513D

 42 45  0  0  1  0  0  0  0  0999 V2000
   39.8340   25.8120   31.1160 N   0  0  0  0  0  0  0  0  0  0  0  0
   39.9260   26.2830   29.7380 C   0  0  0  0  0  0  0  0  0  0  0  0
   40.8320   27.4520   29.5630 C   0  0  0  0  0  0  0  0  0  0  0  0
   41.9840   27.4180   30.5690 C   0  0  0  0  0  0  0  0  0  0  0  0
   41.3110   27.5950   31.8970 C   0  0  0  0  0  0  0  0  0  0  0  0
   40.4540   26.4140   32.2500 C   0  0  1  0  0  0  0  0  0  0  0  0
   40.2970   25.4160   29.1210 H   0  0  0  0  0  0  0  0  0  0  0  0
   38.9190   26.5290   29.3500 H   0  0  0  0  0  0  0  0  0  0  0  0
   40.3600   28.4390   29.6120 H   0  0  0  0  0  0  0  0  0  0  0  0
   41.3230   27.3520   28.5540 H   0  0  0  0  0  0  0  0  0  0  0  0
   42.4420   26.3970   30.5470 H   0  0  0  0  0  0  0  0  0  0  0  0
   42.7100   28.2020   30.3650 H   0  0  0  0  0  0  0  0  0  0  0  0
   42.0110   27.8090   32.7200 H   0  0  0  0  0  0  0  0  0  0  0  0
   40.6100   28.4650   31.7660 H   0  0  0  0  0  0  0  0  0  0  0  0
   41.1060   25.6640   32.7380 H   0  0  0  0  0  0  0  0  0  0  0  0
   40.9680   26.4010   35.0680 F   0  0  0  0  0  0  0  0  0  0  0  0
   39.7520   26.7930   34.6290 C   0  0  0  0  0  0  0  0  0  0  0  0
   39.4550   26.8220   33.2940 C   0  0  0  0  0  0  0  0  0  0  0  0
   38.1550   27.2480   32.9940 C   0  0  0  0  0  0  0  0  0  0  0  0
   37.9070   27.2770   31.9250 H   0  0  0  0  0  0  0  0  0  0  0  0
   37.2560   27.6080   33.9710 C   0  0  0  0  0  0  0  0  0  0  0  0
   36.2930   27.9160   33.5840 H   0  0  0  0  0  0  0  0  0  0  0  0
   37.6090   27.5590   35.2950 C   0  0  0  0  0  3  0  0  0  0  0  0
   38.8800   27.1450   35.6370 C   0  0  0  0  0  3  0  0  0  0  0  0
   37.8090   24.4980   30.7020 C   0  0  0  0  0  0  0  0  0  0  0  0
   39.0490   24.6410   31.3070 C   0  0  0  0  0  0  0  0  0  0  0  0
   39.4830   23.5970   32.1030 C   0  0  0  0  0  0  0  0  0  0  0  0
   38.6910   22.4990   32.2540 N   0  0  0  0  0  0  0  0  0  0  0  0
   37.4990   22.3900   31.6570 C   0  0  0  0  0  0  0  0  0  0  0  0
   37.0700   23.3970   30.8840 N   0  0  0  0  0  0  0  0  0  0  0  0
   37.4040   25.2750   30.0640 H   0  0  0  0  0  0  0  0  0  0  0  0
   40.4330   23.6100   32.6110 H   0  0  0  0  0  0  0  0  0  0  0  0
   36.6800   21.2090   31.8380 C   0  0  0  0  0  0  0  0  0  0  0  0
   35.3040   21.3180   31.8980 C   0  0  0  0  0  0  0  0  0  0  0  0
   34.4890   20.2230   32.0680 C   0  0  0  0  0  0  0  0  0  0  0  0
   35.1270   19.0250   32.1740 C   0  0  0  0  0  0  0  0  0  0  0  0
   36.5150   18.8680   32.1210 C   0  0  0  0  0  0  0  0  0  0  0  0
   37.2840   19.9980   31.9480 N   0  0  0  0  0  0  0  0  0  0  0  0
   34.8500   22.3030   31.8060 H   0  0  0  0  0  0  0  0  0  0  0  0
   33.4130   20.2670   32.1190 H   0  0  0  0  0  0  0  0  0  0  0  0
   34.5560   18.1080   32.3120 H   0  0  0  0  0  0  0  0  0  0  0  0
   36.9840   17.8900   32.2100 H   0  0  0  0  0  0  0  0  0  0  0  0
  1 26  1  0  0  0  0
  1  6  1  0  0  0  0
  2  1  1  0  0  0  0
  3  9  1  0  0  0  0
  3  2  1  0  0  0  0
  3  4  1  0  0  0  0
  4  5  1  0  0  0  0
  5  6  1  0  0  0  0
  5 13  1  0  0  0  0
  6 15  1  1  0  0  0
  6 18  1  0  0  0  0
  7  2  1  0  0  0  0
  8  2  1  0  0  0  0
 10  3  1  0  0  0  0
 11  4  1  0  0  0  0
 12  4  1  0  0  0  0
 14  5  1  0  0  0  0
 17 16  1  0  0  0  0
 17 24  1  0  0  0  0
 18 17  2  0  0  0  0
 19 18  1  0  0  0  0
 19 21  2  0  0  0  0
 20 19  1  0  0  0  0
 21 23  1  0  0  0  0
 22 21  1  0  0  0  0
 23 24  2  0  0  0  0
 25 30  2  0  0  0  0
 25 26  1  0  0  0  0
 26 27  2  0  0  0  0
 27 28  1  0  0  0  0
 27 32  1  0  0  0  0
 29 33  1  0  0  0  0
 29 28  2  0  0  0  0
 30 29  1  0  0  0  0
 31 25  1  0  0  0  0
 33 34  2  0  0  0  0
 33 38  1  0  0  0  0
 34 35  1  0  0  0  0
 35 40  1  0  0  0  0
 35 36  2  0  0  0  0
 36 41  1  0  0  0  0
 37 36  1  0  0  0  0
 37 42  1  0  0  0  0
 38 37  2  0  0  0  0
 39 34  1  0  0  0  0
M  END
>  <minimizedAffinity>
-5.68443203

$$$$

 OpenBabel03272504513D

 42 45  0  0  1  0  0  0  0  0999 V2000
   38.7030   22.9330   35.6110 N   0  0  0  0  0  0  0  0  0  0  0  0
   39.5800   22.2710   36.5700 C   0  0  0  0  0  0  0  0  0  0  0  0
   39.6390   22.9480   37.8950 C   0  0  0  0  0  0  0  0  0  0  0  0
   38.3120   23.6330   38.2280 C   0  0  0  0  0  0  0  0  0  0  0  0
   38.1960   24.7180   37.2000 C   0  0  0  0  0  0  0  0  0  0  0  0
   38.0050   24.1590   35.8190 C   0  0  1  0  0  0  0  0  0  0  0  0
   39.1920   21.2200   36.6950 H   0  0  0  0  0  0  0  0  0  0  0  0
   40.6010   22.1760   36.1530 H   0  0  0  0  0  0  0  0  0  0  0  0
   40.4460   23.6760   38.0290 H   0  0  0  0  0  0  0  0  0  0  0  0
   39.7590   22.1490   38.6800 H   0  0  0  0  0  0  0  0  0  0  0  0
   37.4830   22.9010   38.0550 H   0  0  0  0  0  0  0  0  0  0  0  0
   38.3140   24.0240   39.2440 H   0  0  0  0  0  0  0  0  0  0  0  0
   37.4020   25.4490   37.4210 H   0  0  0  0  0  0  0  0  0  0  0  0
   39.1920   25.2380   37.1960 H   0  0  0  0  0  0  0  0  0  0  0  0
   36.9220   23.9800   35.6790 H   0  0  0  0  0  0  0  0  0  0  0  0
   40.6700   25.1220   35.4020 F   0  0  0  0  0  0  0  0  0  0  0  0
   39.6680   25.6320   34.6530 C   0  0  0  0  0  0  0  0  0  0  0  0
   38.3780   25.2040   34.8080 C   0  0  0  0  0  0  0  0  0  0  0  0
   37.4510   25.8270   33.9620 C   0  0  0  0  0  0  0  0  0  0  0  0
   36.4130   25.4900   34.0780 H   0  0  0  0  0  0  0  0  0  0  0  0
   37.8180   26.7890   33.0510 C   0  0  0  0  0  0  0  0  0  0  0  0
   36.9910   27.1760   32.4690 H   0  0  0  0  0  0  0  0  0  0  0  0
   39.1270   27.1790   32.9390 C   0  0  0  0  0  3  0  0  0  0  0  0
   40.0750   26.5930   33.7530 C   0  0  0  0  0  3  0  0  0  0  0  0
   37.3040   21.8700   33.9040 C   0  0  0  0  0  0  0  0  0  0  0  0
   38.5520   22.2650   34.3640 C   0  0  0  0  0  0  0  0  0  0  0  0
   39.6370   21.9790   33.5560 C   0  0  0  0  0  0  0  0  0  0  0  0
   39.4360   21.3360   32.3720 N   0  0  0  0  0  0  0  0  0  0  0  0
   38.2200   20.9670   31.9560 C   0  0  0  0  0  0  0  0  0  0  0  0
   37.1620   21.2400   32.7330 N   0  0  0  0  0  0  0  0  0  0  0  0
   36.4070   22.0610   34.4840 H   0  0  0  0  0  0  0  0  0  0  0  0
   40.6450   22.2490   33.8210 H   0  0  0  0  0  0  0  0  0  0  0  0
   38.0390   20.2830   30.6920 C   0  0  0  0  0  0  0  0  0  0  0  0
   36.8600   19.6160   30.4230 C   0  0  0  0  0  0  0  0  0  0  0  0
   36.6470   18.9540   29.2350 C   0  0  0  0  0  0  0  0  0  0  0  0
   37.6740   19.0010   28.3430 C   0  0  0  0  0  0  0  0  0  0  0  0
   38.8840   19.6630   28.5720 C   0  0  0  0  0  0  0  0  0  0  0  0
   39.0440   20.3100   29.7790 N   0  0  0  0  0  0  0  0  0  0  0  0
   36.0740   19.6130   31.1750 H   0  0  0  0  0  0  0  0  0  0  0  0
   35.7420   18.4230   28.9880 H   0  0  0  0  0  0  0  0  0  0  0  0
   37.5880   18.5030   27.3780 H   0  0  0  0  0  0  0  0  0  0  0  0
   39.6800   19.6750   27.8310 H   0  0  0  0  0  0  0  0  0  0  0  0
  1  6  1  0  0  0  0
  1  2  1  0  0  0  0
  2  7  1  0  0  0  0
  2  3  1  0  0  0  0
  3  9  1  0  0  0  0
  3  4  1  0  0  0  0
  3 10  1  0  0  0  0
  4 12  1  0  0  0  0
  5 13  1  0  0  0  0
  5  4  1  0  0  0  0
  6 15  1  6  0  0  0
  6  5  1  0  0  0  0
  8  2  1  0  0  0  0
 11  4  1  0  0  0  0
 14  5  1  0  0  0  0
 17 18  1  0  0  0  0
 17 16  1  0  0  0  0
 18  6  1  0  0  0  0
 19 20  1  0  0  0  0
 19 18  2  0  0  0  0
 21 19  1  0  0  0  0
 22 21  1  0  0  0  0
 23 21  2  0  0  0  0
 23 24  1  0  0  0  0
 24 17  2  0  0  0  0
 25 26  1  0  0  0  0
 25 31  1  0  0  0  0
 26  1  1  0  0  0  0
 27 32  1  0  0  0  0
 27 26  2  0  0  0  0
 28 27  1  0  0  0  0
 29 28  2  0  0  0  0
 29 30  1  0  0  0  0
 30 25  2  0  0  0  0
 33 29  1  0  0  0  0
 34 33  1  0  0  0  0
 34 39  1  0  0  0  0
 35 34  2  0  0  0  0
 36 37  2  0  0  0  0
 36 35  1  0  0  0  0
 37 38  1  0  0  0  0
 38 33  2  0  0  0  0
 40 35  1  0  0  0  0
 41 36  1  0  0  0  0
 42 37  1  0  0  0  0
M  END
>  <minimizedAffinity>
-5.550035

$$$$

 OpenBabel03272504513D

 42 45  0  0  1  0  0  0  0  0999 V2000
   37.5060   26.4820   30.8220 N   0  0  0  0  0  0  0  0  0  0  0  0
   36.3480   27.3260   30.5500 C   0  0  0  0  0  0  0  0  0  0  0  0
   36.6960   28.7420   30.2460 C   0  0  0  0  0  0  0  0  0  0  0  0
   38.0530   28.8430   29.5470 C   0  0  0  0  0  0  0  0  0  0  0  0
   39.0300   28.3770   30.5840 C   0  0  0  0  0  0  0  0  0  0  0  0
   38.8620   26.9170   30.8930 C   0  0  1  0  0  0  0  0  0  0  0  0
   35.8090   26.8680   29.6720 H   0  0  0  0  0  0  0  0  0  0  0  0
   35.6390   27.2900   31.3990 H   0  0  0  0  0  0  0  0  0  0  0  0
   36.6920   29.4320   31.0960 H   0  0  0  0  0  0  0  0  0  0  0  0
   35.9510   29.1200   29.4900 H   0  0  0  0  0  0  0  0  0  0  0  0
   38.0710   28.1100   28.7010 H   0  0  0  0  0  0  0  0  0  0  0  0
   38.2530   29.8610   29.2180 H   0  0  0  0  0  0  0  0  0  0  0  0
   40.0800   28.5860   30.3250 H   0  0  0  0  0  0  0  0  0  0  0  0
   38.7590   28.9310   31.5250 H   0  0  0  0  0  0  0  0  0  0  0  0
   39.4560   26.3500   30.1510 H   0  0  0  0  0  0  0  0  0  0  0  0
   37.8050   27.8060   33.4020 F   0  0  0  0  0  0  0  0  0  0  0  0
   38.9400   27.0730   33.3960 C   0  0  0  0  0  0  0  0  0  0  0  0
   39.4850   26.6190   32.2260 C   0  0  0  0  0  0  0  0  0  0  0  0
   40.6610   25.8750   32.3800 C   0  0  0  0  0  0  0  0  0  0  0  0
   41.1060   25.5050   31.4470 H   0  0  0  0  0  0  0  0  0  0  0  0
   41.2170   25.6240   33.6140 C   0  0  0  0  0  0  0  0  0  0  0  0
   42.1240   25.0360   33.5710 H   0  0  0  0  0  0  0  0  0  0  0  0
   40.6260   26.1050   34.7540 C   0  0  0  0  0  3  0  0  0  0  0  0
   39.4660   26.8440   34.6490 C   0  0  0  0  0  3  0  0  0  0  0  0
   36.1400   24.6990   31.8010 C   0  0  0  0  0  0  0  0  0  0  0  0
   37.2190   25.1040   31.0270 C   0  0  0  0  0  0  0  0  0  0  0  0
   37.9990   24.1080   30.4690 C   0  0  0  0  0  0  0  0  0  0  0  0
   37.6810   22.8040   30.6980 N   0  0  0  0  0  0  0  0  0  0  0  0
   36.6340   22.4450   31.4500 C   0  0  0  0  0  0  0  0  0  0  0  0
   35.8720   23.4030   31.9950 N   0  0  0  0  0  0  0  0  0  0  0  0
   35.4840   25.4240   32.2700 H   0  0  0  0  0  0  0  0  0  0  0  0
   38.8540   24.3190   29.8490 H   0  0  0  0  0  0  0  0  0  0  0  0
   36.3230   21.0480   31.6750 C   0  0  0  0  0  0  0  0  0  0  0  0
   35.7490   20.6460   32.8660 C   0  0  0  0  0  0  0  0  0  0  0  0
   35.4360   19.3310   33.1210 C   0  0  0  0  0  0  0  0  0  0  0  0
   35.7300   18.4510   32.1250 C   0  0  0  0  0  0  0  0  0  0  0  0
   36.3110   18.8120   30.9060 C   0  0  0  0  0  0  0  0  0  0  0  0
   36.6020   20.1440   30.7020 N   0  0  0  0  0  0  0  0  0  0  0  0
   35.5360   21.3950   33.6260 H   0  0  0  0  0  0  0  0  0  0  0  0
   34.9880   18.9780   34.0360 H   0  0  0  0  0  0  0  0  0  0  0  0
   35.5150   17.3910   32.2450 H   0  0  0  0  0  0  0  0  0  0  0  0
   36.5300   18.0760   30.1350 H   0  0  0  0  0  0  0  0  0  0  0  0
  1  6  1  0  0  0  0
  1 26  1  0  0  0  0
  2  1  1  0  0  0  0
  2  8  1  0  0  0  0
  3  2  1  0  0  0  0
  3  9  1  0  0  0  0
  4  3  1  0  0  0  0
  4  5  1  0  0  0  0
  5  6  1  0  0  0  0
  5 14  1  0  0  0  0
  6 15  1  6  0  0  0
  6 18  1  0  0  0  0
  7  2  1  0  0  0  0
 10  3  1  0  0  0  0
 11  4  1  0  0  0  0
 12  4  1  0  0  0  0
 13  5  1  0  0  0  0
 17 16  1  0  0  0  0
 17 24  1  0  0  0  0
 18 19  1  0  0  0  0
 18 17  2  0  0  0  0
 19 21  2  0  0  0  0
 20 19  1  0  0  0  0
 21 23  1  0  0  0  0
 22 21  1  0  0  0  0
 24 23  2  0  0  0  0
 25 30  1  0  0  0  0
 25 31  1  0  0  0  0
 26 25  2  0  0  0  0
 27 28  2  0  0  0  0
 27 26  1  0  0  0  0
 28 29  1  0  0  0  0
 29 33  1  0  0  0  0
 29 30  2  0  0  0  0
 32 27  1  0  0  0  0
 33 34  1  0  0  0  0
 34 35  2  0  0  0  0
 34 39  1  0  0  0  0
 35 40  1  0  0  0  0
 36 41  1  0  0  0  0
 36 35  1  0  0  0  0
 37 36  2  0  0  0  0
 38 37  1  0  0  0  0
 38 33  2  0  0  0  0
 42 37  1  0  0  0  0
M  END
>  <minimizedAffinity>
-5.5262475

$$$$

 OpenBabel03272504513D

 42 45  0  0  1  0  0  0  0  0999 V2000
   36.2960   29.4050   32.3480 N   0  0  0  0  0  0  0  0  0  0  0  0
   36.7560   29.3820   30.9650 C   0  0  0  0  0  0  0  0  0  0  0  0
   36.4240   30.6170   30.2020 C   0  0  0  0  0  0  0  0  0  0  0  0
   36.4090   31.8460   31.1130 C   0  0  0  0  0  0  0  0  0  0  0  0
   35.2580   31.5950   32.0400 C   0  0  0  0  0  0  0  0  0  0  0  0
   35.5230   30.4360   32.9580 C   0  0  1  0  0  0  0  0  0  0  0  0
   37.8740   29.2400   30.9950 H   0  0  0  0  0  0  0  0  0  0  0  0
   36.3470   28.4970   30.4390 H   0  0  0  0  0  0  0  0  0  0  0  0
   35.4880   30.5960   29.6340 H   0  0  0  0  0  0  0  0  0  0  0  0
   37.2650   30.8040   29.4760 H   0  0  0  0  0  0  0  0  0  0  0  0
   37.3490   31.8460   31.7220 H   0  0  0  0  0  0  0  0  0  0  0  0
   36.2860   32.7620   30.5390 H   0  0  0  0  0  0  0  0  0  0  0  0
   34.9660   32.4790   32.6290 H   0  0  0  0  0  0  0  0  0  0  0  0
   34.4010   31.2860   31.3810 H   0  0  0  0  0  0  0  0  0  0  0  0
   36.0770   30.8250   33.8340 H   0  0  0  0  0  0  0  0  0  0  0  0
   34.7000   30.6850   35.6900 F   0  0  0  0  0  0  0  0  0  0  0  0
   33.8770   30.0670   34.8150 C   0  0  0  0  0  0  0  0  0  0  0  0
   34.2180   29.9260   33.4980 C   0  0  0  0  0  0  0  0  0  0  0  0
   33.2640   29.2630   32.7150 C   0  0  0  0  0  0  0  0  0  0  0  0
   33.5280   29.1450   31.6570 H   0  0  0  0  0  0  0  0  0  0  0  0
   32.0810   28.7960   33.2380 C   0  0  0  0  0  0  0  0  0  0  0  0
   31.4460   28.3070   32.5100 H   0  0  0  0  0  0  0  0  0  0  0  0
   31.7910   28.9660   34.5670 C   0  0  0  0  0  3  0  0  0  0  0  0
   32.7020   29.6140   35.3760 C   0  0  0  0  0  3  0  0  0  0  0  0
   37.0560   28.4210   34.4590 C   0  0  0  0  0  0  0  0  0  0  0  0
   36.6730   28.2800   33.1330 C   0  0  0  0  0  0  0  0  0  0  0  0
   36.6760   26.9990   32.6130 C   0  0  0  0  0  0  0  0  0  0  0  0
   37.0480   25.9560   33.4070 N   0  0  0  0  0  0  0  0  0  0  0  0
   37.4130   26.1250   34.6830 C   0  0  0  0  0  0  0  0  0  0  0  0
   37.4130   27.3630   35.1960 N   0  0  0  0  0  0  0  0  0  0  0  0
   37.0780   29.3950   34.9350 H   0  0  0  0  0  0  0  0  0  0  0  0
   36.3900   26.7840   31.5970 H   0  0  0  0  0  0  0  0  0  0  0  0
   37.8040   24.9960   35.5020 C   0  0  0  0  0  0  0  0  0  0  0  0
   37.8460   25.1150   36.8780 C   0  0  0  0  0  0  0  0  0  0  0  0
   38.2110   24.0690   37.6930 C   0  0  0  0  0  0  0  0  0  0  0  0
   38.5280   22.9080   37.0560 C   0  0  0  0  0  0  0  0  0  0  0  0
   38.5000   22.7420   35.6680 C   0  0  0  0  0  0  0  0  0  0  0  0
   38.1260   23.8230   34.8990 N   0  0  0  0  0  0  0  0  0  0  0  0
   37.5810   26.0680   37.3320 H   0  0  0  0  0  0  0  0  0  0  0  0
   38.2560   24.1220   38.7690 H   0  0  0  0  0  0  0  0  0  0  0  0
   38.8280   22.0310   37.6260 H   0  0  0  0  0  0  0  0  0  0  0  0
   38.7610   21.7960   35.1980 H   0  0  0  0  0  0  0  0  0  0  0  0
  1  6  1  0  0  0  0
  1 26  1  0  0  0  0
  2  7  1  0  0  0  0
  2  1  1  0  0  0  0
  3  2  1  0  0  0  0
  3  4  1  0  0  0  0
  4 11  1  0  0  0  0
  4  5  1  0  0  0  0
  5 13  1  0  0  0  0
  5  6  1  0  0  0  0
  6 18  1  0  0  0  0
  6 15  1  1  0  0  0
  8  2  1  0  0  0  0
  9  3  1  0  0  0  0
 10  3  1  0  0  0  0
 12  4  1  0  0  0  0
 14  5  1  0  0  0  0
 17 24  1  0  0  0  0
 17 16  1  0  0  0  0
 18 17  2  0  0  0  0
 19 21  2  0  0  0  0
 19 18  1  0  0  0  0
 20 19  1  0  0  0  0
 21 23  1  0  0  0  0
 22 21  1  0  0  0  0
 23 24  2  0  0  0  0
 25 31  1  0  0  0  0
 25 30  1  0  0  0  0
 26 25  2  0  0  0  0
 27 26  1  0  0  0  0
 27 28  2  0  0  0  0
 28 29  1  0  0  0  0
 29 30  2  0  0  0  0
 29 33  1  0  0  0  0
 32 27  1  0  0  0  0
 33 34  1  0  0  0  0
 34 39  1  0  0  0  0
 34 35  2  0  0  0  0
 35 40  1  0  0  0  0
 36 41  1  0  0  0  0
 36 35  1  0  0  0  0
 37 36  2  0  0  0  0
 38 33  2  0  0  0  0
 38 37  1  0  0  0  0
 42 37  1  0  0  0  0
M  END
>  <minimizedAffinity>
-5.46097994

$$$$

 OpenBabel03272504513D

 42 45  0  0  1  0  0  0  0  0999 V2000
   37.0860   25.7730   32.5550 N   0  0  0  0  0  0  0  0  0  0  0  0
   36.2220   25.1870   31.5370 C   0  0  0  0  0  0  0  0  0  0  0  0
   36.6230   23.8130   31.1290 C   0  0  0  0  0  0  0  0  0  0  0  0
   37.2700   23.0550   32.2900 C   0  0  0  0  0  0  0  0  0  0  0  0
   38.5380   23.8090   32.5530 C   0  0  0  0  0  0  0  0  0  0  0  0
   38.2680   25.1840   33.0920 C   0  0  1  0  0  0  0  0  0  0  0  0
   35.1790   25.1690   31.9650 H   0  0  0  0  0  0  0  0  0  0  0  0
   36.1780   25.8440   30.6470 H   0  0  0  0  0  0  0  0  0  0  0  0
   37.2840   23.7420   30.2590 H   0  0  0  0  0  0  0  0  0  0  0  0
   35.6820   23.2390   30.8950 H   0  0  0  0  0  0  0  0  0  0  0  0
   36.6120   23.1590   33.1900 H   0  0  0  0  0  0  0  0  0  0  0  0
   37.4530   22.0140   32.0280 H   0  0  0  0  0  0  0  0  0  0  0  0
   39.2370   23.2760   33.2180 H   0  0  0  0  0  0  0  0  0  0  0  0
   39.0180   23.9530   31.5460 H   0  0  0  0  0  0  0  0  0  0  0  0
   38.1530   25.0940   34.1900 H   0  0  0  0  0  0  0  0  0  0  0  0
   39.9820   26.1030   35.1950 F   0  0  0  0  0  0  0  0  0  0  0  0
   40.2620   26.4600   33.9220 C   0  0  0  0  0  0  0  0  0  0  0  0
   39.4790   26.0450   32.8800 C   0  0  0  0  0  0  0  0  0  0  0  0
   39.8960   26.4970   31.6210 C   0  0  0  0  0  0  0  0  0  0  0  0
   39.2750   26.1680   30.7780 H   0  0  0  0  0  0  0  0  0  0  0  0
   41.0050   27.2930   31.4560 C   0  0  0  0  0  0  0  0  0  0  0  0
   41.2000   27.5600   30.4250 H   0  0  0  0  0  0  0  0  0  0  0  0
   41.7530   27.6790   32.5380 C   0  0  0  0  0  3  0  0  0  0  0  0
   41.3790   27.2580   33.7980 C   0  0  0  0  0  3  0  0  0  0  0  0
   36.7480   27.3680   34.3840 C   0  0  0  0  0  0  0  0  0  0  0  0
   36.6810   27.0500   33.0350 C   0  0  0  0  0  0  0  0  0  0  0  0
   36.2020   28.0280   32.1840 C   0  0  0  0  0  0  0  0  0  0  0  0
   35.8260   29.2330   32.6960 N   0  0  0  0  0  0  0  0  0  0  0  0
   35.9020   29.5090   34.0020 C   0  0  0  0  0  0  0  0  0  0  0  0
   36.3650   28.5670   34.8350 N   0  0  0  0  0  0  0  0  0  0  0  0
   37.1130   26.6510   35.1110 H   0  0  0  0  0  0  0  0  0  0  0  0
   36.1170   27.8810   31.1200 H   0  0  0  0  0  0  0  0  0  0  0  0
   35.4940   30.8010   34.5160 C   0  0  0  0  0  0  0  0  0  0  0  0
   35.9310   31.2280   35.7540 C   0  0  0  0  0  0  0  0  0  0  0  0
   35.5680   32.4470   36.2800 C   0  0  0  0  0  0  0  0  0  0  0  0
   34.7490   33.2040   35.5000 C   0  0  0  0  0  0  0  0  0  0  0  0
   34.2810   32.8130   34.2420 C   0  0  0  0  0  0  0  0  0  0  0  0
   34.6770   31.5820   33.7630 N   0  0  0  0  0  0  0  0  0  0  0  0
   36.5860   30.5790   36.3330 H   0  0  0  0  0  0  0  0  0  0  0  0
   35.8890   32.8150   37.2410 H   0  0  0  0  0  0  0  0  0  0  0  0
   34.4140   34.1820   35.8410 H   0  0  0  0  0  0  0  0  0  0  0  0
   33.6270   33.4490   33.6500 H   0  0  0  0  0  0  0  0  0  0  0  0
  1 26  1  0  0  0  0
  1  6  1  0  0  0  0
  2  7  1  0  0  0  0
  2  1  1  0  0  0  0
  3  2  1  0  0  0  0
  3  4  1  0  0  0  0
  4  5  1  0  0  0  0
  4 11  1  0  0  0  0
  5  6  1  0  0  0  0
  5 13  1  0  0  0  0
  6 15  1  1  0  0  0
  8  2  1  0  0  0  0
  9  3  1  0  0  0  0
 10  3  1  0  0  0  0
 12  4  1  0  0  0  0
 14  5  1  0  0  0  0
 17 16  1  0  0  0  0
 18  6  1  0  0  0  0
 18 17  2  0  0  0  0
 19 18  1  0  0  0  0
 20 19  1  0  0  0  0
 21 19  2  0  0  0  0
 21 23  1  0  0  0  0
 22 21  1  0  0  0  0
 23 24  2  0  0  0  0
 24 17  1  0  0  0  0
 25 30  1  0  0  0  0
 25 31  1  0  0  0  0
 26 25  2  0  0  0  0
 27 28  2  0  0  0  0
 27 26  1  0  0  0  0
 28 29  1  0  0  0  0
 29 33  1  0  0  0  0
 29 30  2  0  0  0  0
 32 27  1  0  0  0  0
 33 34  1  0  0  0  0
 34 35  2  0  0  0  0
 34 39  1  0  0  0  0
 35 40  1  0  0  0  0
 36 41  1  0  0  0  0
 36 35  1  0  0  0  0
 37 36  2  0  0  0  0
 38 37  1  0  0  0  0
 38 33  2  0  0  0  0
 42 37  1  0  0  0  0
M  END
>  <minimizedAffinity>
-5.44551945

$$$$

 OpenBabel03272504513D

 42 45  0  0  1  0  0  0  0  0999 V2000
   38.8280   24.1020   35.6450 N   0  0  0  0  0  0  0  0  0  0  0  0
   38.4720   24.4740   37.0100 C   0  0  0  0  0  0  0  0  0  0  0  0
   38.8590   23.4580   38.0280 C   0  0  0  0  0  0  0  0  0  0  0  0
   40.1270   22.7090   37.6120 C   0  0  0  0  0  0  0  0  0  0  0  0
   39.7140   21.9500   36.3870 C   0  0  0  0  0  0  0  0  0  0  0  0
   39.4120   22.8670   35.2370 C   0  0  1  0  0  0  0  0  0  0  0  0
   38.9910   25.4500   37.2280 H   0  0  0  0  0  0  0  0  0  0  0  0
   37.3870   24.6790   37.0810 H   0  0  0  0  0  0  0  0  0  0  0  0
   38.0930   22.7210   38.2890 H   0  0  0  0  0  0  0  0  0  0  0  0
   39.1430   24.0100   38.9680 H   0  0  0  0  0  0  0  0  0  0  0  0
   40.8980   23.4620   37.3080 H   0  0  0  0  0  0  0  0  0  0  0  0
   40.4780   22.0540   38.4070 H   0  0  0  0  0  0  0  0  0  0  0  0
   40.4440   21.1870   36.0750 H   0  0  0  0  0  0  0  0  0  0  0  0
   38.7430   21.4500   36.6550 H   0  0  0  0  0  0  0  0  0  0  0  0
   40.3680   23.0800   34.7210 H   0  0  0  0  0  0  0  0  0  0  0  0
   36.7710   21.8920   35.7660 F   0  0  0  0  0  0  0  0  0  0  0  0
   37.3070   21.6910   34.5430 C   0  0  0  0  0  0  0  0  0  0  0  0
   38.5620   22.1410   34.2350 C   0  0  0  0  0  0  0  0  0  0  0  0
   38.9800   21.8560   32.9290 C   0  0  0  0  0  0  0  0  0  0  0  0
   39.9860   22.2130   32.6720 H   0  0  0  0  0  0  0  0  0  0  0  0
   38.1850   21.1790   32.0340 C   0  0  0  0  0  0  0  0  0  0  0  0
   38.6450   21.0360   31.0640 H   0  0  0  0  0  0  0  0  0  0  0  0
   36.9340   20.7520   32.3970 C   0  0  0  0  0  3  0  0  0  0  0  0
   36.4810   21.0100   33.6750 C   0  0  0  0  0  3  0  0  0  0  0  0
   37.3210   25.7190   34.5880 C   0  0  0  0  0  0  0  0  0  0  0  0
   38.5550   25.0880   34.6560 C   0  0  0  0  0  0  0  0  0  0  0  0
   39.5020   25.4610   33.7210 C   0  0  0  0  0  0  0  0  0  0  0  0
   39.1890   26.4090   32.7950 N   0  0  0  0  0  0  0  0  0  0  0  0
   37.9900   27.0000   32.7540 C   0  0  0  0  0  0  0  0  0  0  0  0
   37.0650   26.6450   33.6570 N   0  0  0  0  0  0  0  0  0  0  0  0
   36.5290   25.4790   35.2890 H   0  0  0  0  0  0  0  0  0  0  0  0
   40.4910   25.0340   33.6940 H   0  0  0  0  0  0  0  0  0  0  0  0
   37.6870   28.0050   31.7560 C   0  0  0  0  0  0  0  0  0  0  0  0
   36.5440   28.7740   31.8660 C   0  0  0  0  0  0  0  0  0  0  0  0
   36.2190   29.7390   30.9410 C   0  0  0  0  0  0  0  0  0  0  0  0
   37.0960   29.8870   29.9100 C   0  0  0  0  0  0  0  0  0  0  0  0
   38.2630   29.1320   29.7580 C   0  0  0  0  0  0  0  0  0  0  0  0
   38.5410   28.1790   30.7150 N   0  0  0  0  0  0  0  0  0  0  0  0
   35.8800   28.6110   32.7120 H   0  0  0  0  0  0  0  0  0  0  0  0
   35.3380   30.3590   30.9920 H   0  0  0  0  0  0  0  0  0  0  0  0
   36.9140   30.6290   29.1340 H   0  0  0  0  0  0  0  0  0  0  0  0
   38.9370   29.2820   28.9180 H   0  0  0  0  0  0  0  0  0  0  0  0
  1  2  1  0  0  0  0
  2  8  1  0  0  0  0
  2  7  1  0  0  0  0
  2  3  1  0  0  0  0
  3  9  1  0  0  0  0
  3 10  1  0  0  0  0
  4  3  1  0  0  0  0
  4 12  1  0  0  0  0
  5 14  1  0  0  0  0
  5  4  1  0  0  0  0
  6 15  1  6  0  0  0
  6  1  1  0  0  0  0
  6  5  1  0  0  0  0
 11  4  1  0  0  0  0
 13  5  1  0  0  0  0
 17 16  1  0  0  0  0
 18 17  1  0  0  0  0
 18  6  1  0  0  0  0
 19 18  2  0  0  0  0
 20 19  1  0  0  0  0
 21 23  2  0  0  0  0
 21 19  1  0  0  0  0
 22 21  1  0  0  0  0
 23 24  1  0  0  0  0
 24 17  2  0  0  0  0
 25 26  1  0  0  0  0
 25 31  1  0  0  0  0
 26  1  1  0  0  0  0
 27 26  2  0  0  0  0
 28 27  1  0  0  0  0
 29 28  2  0  0  0  0
 29 30  1  0  0  0  0
 30 25  2  0  0  0  0
 32 27  1  0  0  0  0
 33 34  1  0  0  0  0
 33 29  1  0  0  0  0
 34 39  1  0  0  0  0
 35 40  1  0  0  0  0
 35 34  2  0  0  0  0
 36 35  1  0  0  0  0
 37 36  2  0  0  0  0
 37 38  1  0  0  0  0
 38 33  2  0  0  0  0
 41 36  1  0  0  0  0
 42 37  1  0  0  0  0
M  END
>  <minimizedAffinity>
-5.36666536

$$$$

 OpenBabel03272504513D

 42 45  0  0  1  0  0  0  0  0999 V2000
   36.1390   30.1150   32.1840 N   0  0  0  0  0  0  0  0  0  0  0  0
   36.6520   30.7840   30.9950 C   0  0  0  0  0  0  0  0  0  0  0  0
   36.5790   32.2700   31.0650 C   0  0  0  0  0  0  0  0  0  0  0  0
   36.7390   32.7670   32.5030 C   0  0  0  0  0  0  0  0  0  0  0  0
   35.5200   32.2470   33.2030 C   0  0  0  0  0  0  0  0  0  0  0  0
   35.5330   30.7490   33.3080 C   0  0  1  0  0  0  0  0  0  0  0  0
   37.7240   30.4590   30.8740 H   0  0  0  0  0  0  0  0  0  0  0  0
   36.1180   30.4270   30.0930 H   0  0  0  0  0  0  0  0  0  0  0  0
   35.6820   32.7290   30.6390 H   0  0  0  0  0  0  0  0  0  0  0  0
   37.4730   32.6800   30.5150 H   0  0  0  0  0  0  0  0  0  0  0  0
   37.6350   32.2680   32.9520 H   0  0  0  0  0  0  0  0  0  0  0  0
   36.8070   33.8520   32.5410 H   0  0  0  0  0  0  0  0  0  0  0  0
   35.3610   32.6900   34.1990 H   0  0  0  0  0  0  0  0  0  0  0  0
   34.6530   32.5090   32.5360 H   0  0  0  0  0  0  0  0  0  0  0  0
   36.1060   30.4840   34.2180 H   0  0  0  0  0  0  0  0  0  0  0  0
   33.4090   30.9110   31.3930 F   0  0  0  0  0  0  0  0  0  0  0  0
   33.1560   30.3650   32.6030 C   0  0  0  0  0  0  0  0  0  0  0  0
   34.1350   30.2580   33.5520 C   0  0  0  0  0  0  0  0  0  0  0  0
   33.7200   29.6720   34.7550 C   0  0  0  0  0  0  0  0  0  0  0  0
   34.4980   29.5810   35.5230 H   0  0  0  0  0  0  0  0  0  0  0  0
   32.4300   29.2400   34.9550 C   0  0  0  0  0  0  0  0  0  0  0  0
   32.2620   28.8090   35.9340 H   0  0  0  0  0  0  0  0  0  0  0  0
   31.4890   29.3730   33.9670 C   0  0  0  0  0  3  0  0  0  0  0  0
   31.8530   29.9450   32.7650 C   0  0  0  0  0  3  0  0  0  0  0  0
   35.8000   27.9230   31.1430 C   0  0  0  0  0  0  0  0  0  0  0  0
   36.2750   28.6980   32.1910 C   0  0  0  0  0  0  0  0  0  0  0  0
   36.8830   28.0310   33.2380 C   0  0  0  0  0  0  0  0  0  0  0  0
   36.9860   26.6740   33.1950 N   0  0  0  0  0  0  0  0  0  0  0  0
   36.5170   25.9540   32.1700 C   0  0  0  0  0  0  0  0  0  0  0  0
   35.9260   26.5910   31.1510 N   0  0  0  0  0  0  0  0  0  0  0  0
   35.3110   28.3760   30.2880 H   0  0  0  0  0  0  0  0  0  0  0  0
   37.2900   28.5430   34.0950 H   0  0  0  0  0  0  0  0  0  0  0  0
   36.6420   24.5100   32.1550 C   0  0  0  0  0  0  0  0  0  0  0  0
   35.7820   23.7450   31.3910 C   0  0  0  0  0  0  0  0  0  0  0  0
   35.8650   22.3730   31.3470 C   0  0  0  0  0  0  0  0  0  0  0  0
   36.8500   21.8180   32.1050 C   0  0  0  0  0  0  0  0  0  0  0  0
   37.7420   22.5520   32.8930 C   0  0  0  0  0  0  0  0  0  0  0  0
   37.6140   23.9240   32.8990 N   0  0  0  0  0  0  0  0  0  0  0  0
   35.0130   24.2450   30.8050 H   0  0  0  0  0  0  0  0  0  0  0  0
   35.2140   21.7420   30.7640 H   0  0  0  0  0  0  0  0  0  0  0  0
   36.9850   20.7370   32.1270 H   0  0  0  0  0  0  0  0  0  0  0  0
   38.5160   22.0680   33.4850 H   0  0  0  0  0  0  0  0  0  0  0  0
  1 26  1  0  0  0  0
  1  6  1  0  0  0  0
  2  3  1  0  0  0  0
  2  1  1  0  0  0  0
  3  4  1  0  0  0  0
  4 12  1  0  0  0  0
  4 11  1  0  0  0  0
  4  5  1  0  0  0  0
  5  6  1  0  0  0  0
  5 13  1  0  0  0  0
  6 18  1  0  0  0  0
  6 15  1  1  0  0  0
  7  2  1  0  0  0  0
  8  2  1  0  0  0  0
  9  3  1  0  0  0  0
 10  3  1  0  0  0  0
 14  5  1  0  0  0  0
 16 17  1  0  0  0  0
 17 24  2  0  0  0  0
 17 18  1  0  0  0  0
 18 19  2  0  0  0  0
 19 21  1  0  0  0  0
 19 20  1  0  0  0  0
 21 22  1  0  0  0  0
 23 21  2  0  0  0  0
 24 23  1  0  0  0  0
 25 30  2  0  0  0  0
 25 26  1  0  0  0  0
 26 27  2  0  0  0  0
 27 32  1  0  0  0  0
 28 27  1  0  0  0  0
 29 28  2  0  0  0  0
 30 29  1  0  0  0  0
 31 25  1  0  0  0  0
 33 29  1  0  0  0  0
 33 38  1  0  0  0  0
 34 33  2  0  0  0  0
 35 34  1  0  0  0  0
 35 36  2  0  0  0  0
 36 41  1  0  0  0  0
 36 37  1  0  0  0  0
 37 38  2  0  0  0  0
 37 42  1  0  0  0  0
 39 34  1  0  0  0  0
 40 35  1  0  0  0  0
M  END
>  <minimizedAffinity>
-5.36214113

$$$$
