
 OpenBabel03262522103D

 29 31  0  0  0  0  0  0  0  0999 V2000
   37.7890   24.1540   33.2990 C   0  0  0  0  0  0  0  0  0  0  0  0
   37.1060   25.1420   32.6370 C   0  0  0  0  0  0  0  0  0  0  0  0
   36.1160   24.7930   31.7420 C   0  0  0  0  0  0  0  0  0  0  0  0
   35.8900   23.4220   31.5830 C   0  0  0  0  0  0  0  0  0  0  0  0
   36.5880   22.4560   32.2570 C   0  0  0  0  0  0  0  0  0  0  0  0
   37.5510   22.8360   33.1270 N   0  0  0  0  0  0  0  0  0  0  0  0
   37.3170   26.1970   32.7930 H   0  0  0  0  0  0  0  0  0  0  0  0
   35.5480   25.5330   31.1930 H   0  0  0  0  0  0  0  0  0  0  0  0
   35.1100   23.1740   30.8770 H   0  0  0  0  0  0  0  0  0  0  0  0
   35.3290   20.9440   34.1960 F   0  0  0  0  0  0  0  0  0  0  0  0
   35.7000   20.2980   33.0560 C   0  0  0  0  0  0  0  0  0  0  0  0
   36.3310   21.0330   32.0730 C   0  0  0  0  0  0  0  0  0  0  0  0
   36.6750   20.3090   30.9530 C   0  0  0  0  0  0  0  0  0  0  0  0
   37.1740   20.8180   30.1400 H   0  0  0  0  0  0  0  0  0  0  0  0
   36.4160   18.9620   30.8140 C   0  0  0  0  0  0  0  0  0  0  0  0
   36.6940   18.4140   29.9300 H   0  0  0  0  0  0  0  0  0  0  0  0
   35.7800   18.2710   31.8310 C   0  0  0  0  0  3  0  0  0  0  0  0
   35.4140   18.9490   32.9750 C   0  0  0  0  0  3  0  0  0  0  0  0
   38.8340   24.5790   34.2420 C   0  0  0  0  0  0  0  0  0  0  0  0
   39.7590   25.3210   33.9140 O   0  0  0  0  0  0  0  0  0  0  0  0
   37.8580   24.6290   36.5340 C   0  0  0  0  0  0  0  0  0  0  0  0
   38.8260   24.1310   35.6410 C   0  0  0  0  0  0  0  0  0  0  0  0
   39.7430   23.2230   36.1430 C   0  0  0  0  0  0  0  0  0  0  0  0
   39.6710   22.8550   37.4590 N   0  0  0  0  0  0  0  0  0  0  0  0
   38.7250   23.3590   38.2770 C   0  0  0  0  0  0  0  0  0  0  0  0
   37.8350   24.2290   37.8270 N   0  0  0  0  0  0  0  0  0  0  0  0
   37.1080   25.3500   36.1900 H   0  0  0  0  0  0  0  0  0  0  0  0
   40.4780   22.8460   35.4600 H   0  0  0  0  0  0  0  0  0  0  0  0
   38.7470   23.0100   39.3000 H   0  0  0  0  0  0  0  0  0  0  0  0
  1 19  1  0  0  0  0
  2  7  1  0  0  0  0
  2  1  2  0  0  0  0
  3  2  1  0  0  0  0
  4  3  2  0  0  0  0
  4  5  1  0  0  0  0
  5  6  2  0  0  0  0
  6  1  1  0  0  0  0
  8  3  1  0  0  0  0
  9  4  1  0  0  0  0
 11 10  1  0  0  0  0
 12  5  1  0  0  0  0
 12 11  2  0  0  0  0
 13 12  1  0  0  0  0
 14 13  1  0  0  0  0
 15 13  2  0  0  0  0
 15 17  1  0  0  0  0
 16 15  1  0  0  0  0
 17 18  2  0  0  0  0
 18 11  1  0  0  0  0
 19 22  1  0  0  0  0
 20 19  2  0  0  0  0
 21 26  1  0  0  0  0
 22 23  1  0  0  0  0
 22 21  2  0  0  0  0
 23 24  2  0  0  0  0
 24 25  1  0  0  0  0
 25 29  1  0  0  0  0
 26 25  2  0  0  0  0
 27 21  1  0  0  0  0
 28 23  1  0  0  0  0
M  END
>  <minimizedAffinity>
-5.74806261

$$$$

 OpenBabel03262522103D

 29 31  0  0  0  0  0  0  0  0999 V2000
   37.1260   25.5710   33.0350 C   0  0  0  0  0  0  0  0  0  0  0  0
   36.9600   26.9100   33.2820 C   0  0  0  0  0  0  0  0  0  0  0  0
   37.5140   27.4590   34.4210 C   0  0  0  0  0  0  0  0  0  0  0  0
   38.2170   26.5750   35.2470 C   0  0  0  0  0  0  0  0  0  0  0  0
   38.3670   25.2410   34.9760 C   0  0  0  0  0  0  0  0  0  0  0  0
   37.8090   24.7380   33.8500 N   0  0  0  0  0  0  0  0  0  0  0  0
   36.4050   27.5580   32.6100 H   0  0  0  0  0  0  0  0  0  0  0  0
   37.4130   28.5080   34.6620 H   0  0  0  0  0  0  0  0  0  0  0  0
   38.6410   27.0280   36.1310 H   0  0  0  0  0  0  0  0  0  0  0  0
   37.2770   24.2910   37.3290 F   0  0  0  0  0  0  0  0  0  0  0  0
   38.5390   23.8800   37.0250 C   0  0  0  0  0  0  0  0  0  0  0  0
   39.1050   24.3420   35.8550 C   0  0  0  0  0  0  0  0  0  0  0  0
   40.3820   23.8830   35.6190 C   0  0  0  0  0  0  0  0  0  0  0  0
   40.8900   24.2040   34.7200 H   0  0  0  0  0  0  0  0  0  0  0  0
   41.0500   23.0330   36.4740 C   0  0  0  0  0  0  0  0  0  0  0  0
   42.0480   22.6870   36.2720 H   0  0  0  0  0  0  0  0  0  0  0  0
   40.4360   22.5990   37.6370 C   0  0  0  0  0  3  0  0  0  0  0  0
   39.1570   23.0300   37.9210 C   0  0  0  0  0  3  0  0  0  0  0  0
   36.5160   25.0360   31.8090 C   0  0  0  0  0  0  0  0  0  0  0  0
   35.8570   25.7330   31.0390 O   0  0  0  0  0  0  0  0  0  0  0  0
   35.6200   22.7140   31.6860 C   0  0  0  0  0  0  0  0  0  0  0  0
   36.6660   23.6230   31.4370 C   0  0  0  0  0  0  0  0  0  0  0  0
   37.8110   23.1220   30.8400 C   0  0  0  0  0  0  0  0  0  0  0  0
   37.8750   21.7930   30.5220 N   0  0  0  0  0  0  0  0  0  0  0  0
   36.8470   20.9590   30.7810 C   0  0  0  0  0  0  0  0  0  0  0  0
   35.7400   21.4080   31.3510 N   0  0  0  0  0  0  0  0  0  0  0  0
   34.6920   23.0560   32.1570 H   0  0  0  0  0  0  0  0  0  0  0  0
   38.6050   23.8170   30.6520 H   0  0  0  0  0  0  0  0  0  0  0  0
   36.9900   19.9270   30.4950 H   0  0  0  0  0  0  0  0  0  0  0  0
  1  2  2  0  0  0  0
  1  6  1  0  0  0  0
  2  3  1  0  0  0  0
  3  8  1  0  0  0  0
  3  4  2  0  0  0  0
  4  9  1  0  0  0  0
  5  4  1  0  0  0  0
  5 12  1  0  0  0  0
  6  5  2  0  0  0  0
  7  2  1  0  0  0  0
 11 10  1  0  0  0  0
 11 18  1  0  0  0  0
 12 11  2  0  0  0  0
 13 12  1  0  0  0  0
 13 15  2  0  0  0  0
 14 13  1  0  0  0  0
 15 17  1  0  0  0  0
 16 15  1  0  0  0  0
 17 18  2  0  0  0  0
 19  1  1  0  0  0  0
 20 19  2  0  0  0  0
 21 27  1  0  0  0  0
 22 21  1  0  0  0  0
 22 19  1  0  0  0  0
 23 22  2  0  0  0  0
 24 25  2  0  0  0  0
 24 23  1  0  0  0  0
 25 26  1  0  0  0  0
 26 21  2  0  0  0  0
 28 23  1  0  0  0  0
 29 25  1  0  0  0  0
M  END
>  <minimizedAffinity>
-5.61295843

$$$$

 OpenBabel03262522103D

 29 31  0  0  0  0  0  0  0  0999 V2000
   37.7010   24.1250   33.2600 C   0  0  0  0  0  0  0  0  0  0  0  0
   37.0220   25.0730   32.5390 C   0  0  0  0  0  0  0  0  0  0  0  0
   36.0470   24.6720   31.6490 C   0  0  0  0  0  0  0  0  0  0  0  0
   35.8300   23.2930   31.5590 C   0  0  0  0  0  0  0  0  0  0  0  0
   36.5230   22.3670   32.2930 C   0  0  0  0  0  0  0  0  0  0  0  0
   37.4720   22.7990   33.1550 N   0  0  0  0  0  0  0  0  0  0  0  0
   37.2260   26.1350   32.6420 H   0  0  0  0  0  0  0  0  0  0  0  0
   35.4820   25.3790   31.0550 H   0  0  0  0  0  0  0  0  0  0  0  0
   35.0620   23.0040   30.8570 H   0  0  0  0  0  0  0  0  0  0  0  0
   37.5280   20.8820   30.1930 F   0  0  0  0  0  0  0  0  0  0  0  0
   36.7880   20.2140   31.1220 C   0  0  0  0  0  0  0  0  0  0  0  0
   36.2760   20.9350   32.1800 C   0  0  0  0  0  0  0  0  0  0  0  0
   35.5410   20.1900   33.0750 C   0  0  0  0  0  0  0  0  0  0  0  0
   35.1060   20.6880   33.9300 H   0  0  0  0  0  0  0  0  0  0  0  0
   35.3270   18.8360   32.9350 C   0  0  0  0  0  0  0  0  0  0  0  0
   34.7480   18.2710   33.6450 H   0  0  0  0  0  0  0  0  0  0  0  0
   35.8640   18.1580   31.8540 C   0  0  0  0  0  3  0  0  0  0  0  0
   36.6090   18.8580   30.9270 C   0  0  0  0  0  3  0  0  0  0  0  0
   38.7300   24.6050   34.1950 C   0  0  0  0  0  0  0  0  0  0  0  0
   39.6040   25.4040   33.8620 O   0  0  0  0  0  0  0  0  0  0  0  0
   37.8210   24.6300   36.5140 C   0  0  0  0  0  0  0  0  0  0  0  0
   38.7660   24.1470   35.5900 C   0  0  0  0  0  0  0  0  0  0  0  0
   39.7050   23.2420   36.0580 C   0  0  0  0  0  0  0  0  0  0  0  0
   39.6740   22.8640   37.3720 N   0  0  0  0  0  0  0  0  0  0  0  0
   38.7490   23.3540   38.2220 C   0  0  0  0  0  0  0  0  0  0  0  0
   37.8400   24.2200   37.8040 N   0  0  0  0  0  0  0  0  0  0  0  0
   37.0560   25.3470   36.1980 H   0  0  0  0  0  0  0  0  0  0  0  0
   40.4230   22.8770   35.3510 H   0  0  0  0  0  0  0  0  0  0  0  0
   38.8040   22.9970   39.2400 H   0  0  0  0  0  0  0  0  0  0  0  0
  1 19  1  0  0  0  0
  2  7  1  0  0  0  0
  2  1  2  0  0  0  0
  3  2  1  0  0  0  0
  4  3  2  0  0  0  0
  4  5  1  0  0  0  0
  5  6  2  0  0  0  0
  6  1  1  0  0  0  0
  8  3  1  0  0  0  0
  9  4  1  0  0  0  0
 10 11  1  0  0  0  0
 11 12  1  0  0  0  0
 12  5  1  0  0  0  0
 12 13  2  0  0  0  0
 13 14  1  0  0  0  0
 15 13  1  0  0  0  0
 15 16  1  0  0  0  0
 17 15  2  0  0  0  0
 18 11  2  0  0  0  0
 18 17  1  0  0  0  0
 19 22  1  0  0  0  0
 20 19  2  0  0  0  0
 21 26  1  0  0  0  0
 22 23  1  0  0  0  0
 22 21  2  0  0  0  0
 23 24  2  0  0  0  0
 24 25  1  0  0  0  0
 25 29  1  0  0  0  0
 26 25  2  0  0  0  0
 27 21  1  0  0  0  0
 28 23  1  0  0  0  0
M  END
>  <minimizedAffinity>
-5.61208916

$$$$

 OpenBabel03262522103D

 29 31  0  0  0  0  0  0  0  0999 V2000
   37.4020   26.2850   33.5230 C   0  0  0  0  0  0  0  0  0  0  0  0
   37.1680   27.5050   34.1050 C   0  0  0  0  0  0  0  0  0  0  0  0
   37.6400   27.7460   35.3790 C   0  0  0  0  0  0  0  0  0  0  0  0
   38.3370   26.6940   35.9820 C   0  0  0  0  0  0  0  0  0  0  0  0
   38.5570   25.4850   35.3780 C   0  0  0  0  0  0  0  0  0  0  0  0
   38.0790   25.2850   34.1280 N   0  0  0  0  0  0  0  0  0  0  0  0
   36.6200   28.2930   33.5960 H   0  0  0  0  0  0  0  0  0  0  0  0
   37.4820   28.6900   35.8830 H   0  0  0  0  0  0  0  0  0  0  0  0
   38.6960   26.9060   36.9790 H   0  0  0  0  0  0  0  0  0  0  0  0
   37.6360   24.3030   37.6970 F   0  0  0  0  0  0  0  0  0  0  0  0
   38.8080   23.8300   37.1890 C   0  0  0  0  0  0  0  0  0  0  0  0
   39.2880   24.4050   36.0300 C   0  0  0  0  0  0  0  0  0  0  0  0
   40.4760   23.8740   35.5800 C   0  0  0  0  0  0  0  0  0  0  0  0
   40.9140   24.2760   34.6770 H   0  0  0  0  0  0  0  0  0  0  0  0
   41.1400   22.8520   36.2240 C   0  0  0  0  0  0  0  0  0  0  0  0
   42.0680   22.4510   35.8560 H   0  0  0  0  0  0  0  0  0  0  0  0
   40.6140   22.3090   37.3840 C   0  0  0  0  0  3  0  0  0  0  0  0
   39.4260   22.8060   37.8790 C   0  0  0  0  0  3  0  0  0  0  0  0
   36.8790   26.0790   32.1650 C   0  0  0  0  0  0  0  0  0  0  0  0
   36.0570   25.2020   31.8990 O   0  0  0  0  0  0  0  0  0  0  0  0
   38.5600   26.6830   30.4280 C   0  0  0  0  0  0  0  0  0  0  0  0
   37.3160   26.9200   31.0430 C   0  0  0  0  0  0  0  0  0  0  0  0
   36.5500   27.9610   30.5440 C   0  0  0  0  0  0  0  0  0  0  0  0
   37.0260   28.7000   29.4950 N   0  0  0  0  0  0  0  0  0  0  0  0
   38.2260   28.4370   28.9380 C   0  0  0  0  0  0  0  0  0  0  0  0
   38.9790   27.4490   29.3930 N   0  0  0  0  0  0  0  0  0  0  0  0
   39.2060   25.8730   30.7820 H   0  0  0  0  0  0  0  0  0  0  0  0
   35.6040   28.1380   31.0150 H   0  0  0  0  0  0  0  0  0  0  0  0
   38.5170   29.0740   28.1160 H   0  0  0  0  0  0  0  0  0  0  0  0
  1  2  2  0  0  0  0
  1  6  1  0  0  0  0
  2  3  1  0  0  0  0
  3  8  1  0  0  0  0
  3  4  2  0  0  0  0
  4  9  1  0  0  0  0
  5  4  1  0  0  0  0
  5 12  1  0  0  0  0
  6  5  2  0  0  0  0
  7  2  1  0  0  0  0
 11 10  1  0  0  0  0
 11 18  1  0  0  0  0
 12 11  2  0  0  0  0
 13 12  1  0  0  0  0
 13 15  2  0  0  0  0
 14 13  1  0  0  0  0
 15 17  1  0  0  0  0
 16 15  1  0  0  0  0
 17 18  2  0  0  0  0
 19  1  1  0  0  0  0
 20 19  2  0  0  0  0
 21 27  1  0  0  0  0
 21 22  1  0  0  0  0
 22 19  1  0  0  0  0
 23 28  1  0  0  0  0
 23 22  2  0  0  0  0
 24 23  1  0  0  0  0
 25 26  1  0  0  0  0
 25 24  2  0  0  0  0
 26 21  2  0  0  0  0
 29 25  1  0  0  0  0
M  END
>  <minimizedAffinity>
-5.55796051

$$$$

 OpenBabel03262522103D

 29 31  0  0  0  0  0  0  0  0999 V2000
   37.5960   25.2490   32.6070 C   0  0  0  0  0  0  0  0  0  0  0  0
   38.2860   26.3790   32.2520 C   0  0  0  0  0  0  0  0  0  0  0  0
   39.1460   26.9580   33.1620 C   0  0  0  0  0  0  0  0  0  0  0  0
   39.2420   26.3210   34.4040 C   0  0  0  0  0  0  0  0  0  0  0  0
   38.5410   25.1920   34.7330 C   0  0  0  0  0  0  0  0  0  0  0  0
   37.7060   24.6530   33.8140 N   0  0  0  0  0  0  0  0  0  0  0  0
   38.1790   26.8400   31.2730 H   0  0  0  0  0  0  0  0  0  0  0  0
   39.7140   27.8500   32.9320 H   0  0  0  0  0  0  0  0  0  0  0  0
   39.9220   26.7930   35.0990 H   0  0  0  0  0  0  0  0  0  0  0  0
   40.4590   23.2690   35.2310 F   0  0  0  0  0  0  0  0  0  0  0  0
   39.6270   23.5900   36.2600 C   0  0  0  0  0  0  0  0  0  0  0  0
   38.6600   24.5480   36.0350 C   0  0  0  0  0  0  0  0  0  0  0  0
   37.8590   24.8160   37.1230 C   0  0  0  0  0  0  0  0  0  0  0  0
   37.0780   25.5570   37.0200 H   0  0  0  0  0  0  0  0  0  0  0  0
   38.0010   24.1860   38.3400 C   0  0  0  0  0  0  0  0  0  0  0  0
   37.3640   24.4100   39.1780 H   0  0  0  0  0  0  0  0  0  0  0  0
   38.9880   23.2310   38.5140 C   0  0  0  0  0  3  0  0  0  0  0  0
   39.8180   22.9250   37.4560 C   0  0  0  0  0  3  0  0  0  0  0  0
   36.6920   24.6710   31.6010 C   0  0  0  0  0  0  0  0  0  0  0  0
   35.8780   25.3500   30.9770 O   0  0  0  0  0  0  0  0  0  0  0  0
   35.5650   22.4530   31.4860 C   0  0  0  0  0  0  0  0  0  0  0  0
   36.7170   23.2370   31.2880 C   0  0  0  0  0  0  0  0  0  0  0  0
   37.8420   22.5960   30.7950 C   0  0  0  0  0  0  0  0  0  0  0  0
   37.7870   21.2560   30.5260 N   0  0  0  0  0  0  0  0  0  0  0  0
   36.6600   20.5450   30.7330 C   0  0  0  0  0  0  0  0  0  0  0  0
   35.5700   21.1290   31.2030 N   0  0  0  0  0  0  0  0  0  0  0  0
   34.6470   22.9070   31.8740 H   0  0  0  0  0  0  0  0  0  0  0  0
   38.7170   23.1970   30.6450 H   0  0  0  0  0  0  0  0  0  0  0  0
   36.7120   19.4930   30.4930 H   0  0  0  0  0  0  0  0  0  0  0  0
  1  6  1  0  0  0  0
  2  1  2  0  0  0  0
  2  3  1  0  0  0  0
  3  4  2  0  0  0  0
  4  5  1  0  0  0  0
  4  9  1  0  0  0  0
  5 12  1  0  0  0  0
  6  5  2  0  0  0  0
  7  2  1  0  0  0  0
  8  3  1  0  0  0  0
 10 11  1  0  0  0  0
 11 18  1  0  0  0  0
 12 11  2  0  0  0  0
 12 13  1  0  0  0  0
 13 15  2  0  0  0  0
 14 13  1  0  0  0  0
 15 17  1  0  0  0  0
 15 16  1  0  0  0  0
 18 17  2  0  0  0  0
 19  1  1  0  0  0  0
 20 19  2  0  0  0  0
 21 27  1  0  0  0  0
 22 21  1  0  0  0  0
 22 19  1  0  0  0  0
 23 22  2  0  0  0  0
 24 25  2  0  0  0  0
 24 23  1  0  0  0  0
 25 26  1  0  0  0  0
 26 21  2  0  0  0  0
 28 23  1  0  0  0  0
 29 25  1  0  0  0  0
M  END
>  <minimizedAffinity>
-5.48759413

$$$$

 OpenBabel03262522103D

 29 31  0  0  0  0  0  0  0  0999 V2000
   37.3330   26.0050   33.3190 C   0  0  0  0  0  0  0  0  0  0  0  0
   37.0250   27.2540   33.7930 C   0  0  0  0  0  0  0  0  0  0  0  0
   37.4240   27.6110   35.0640 C   0  0  0  0  0  0  0  0  0  0  0  0
   38.1290   26.6380   35.7800 C   0  0  0  0  0  0  0  0  0  0  0  0
   38.4250   25.3960   35.2820 C   0  0  0  0  0  0  0  0  0  0  0  0
   38.0160   25.0830   34.0310 N   0  0  0  0  0  0  0  0  0  0  0  0
   36.4730   27.9790   33.2000 H   0  0  0  0  0  0  0  0  0  0  0  0
   37.2060   28.5830   35.4860 H   0  0  0  0  0  0  0  0  0  0  0  0
   38.4310   26.9400   36.7720 H   0  0  0  0  0  0  0  0  0  0  0  0
   37.4160   24.3250   37.6190 F   0  0  0  0  0  0  0  0  0  0  0  0
   38.6380   23.8800   37.2150 C   0  0  0  0  0  0  0  0  0  0  0  0
   39.1620   24.4010   36.0500 C   0  0  0  0  0  0  0  0  0  0  0  0
   40.4000   23.9020   35.7090 C   0  0  0  0  0  0  0  0  0  0  0  0
   40.8750   24.2650   34.8080 H   0  0  0  0  0  0  0  0  0  0  0  0
   41.0690   22.9600   36.4600 C   0  0  0  0  0  0  0  0  0  0  0  0
   42.0360   22.5830   36.1770 H   0  0  0  0  0  0  0  0  0  0  0  0
   40.4980   22.4690   37.6220 C   0  0  0  0  0  3  0  0  0  0  0  0
   39.2590   22.9360   38.0090 C   0  0  0  0  0  3  0  0  0  0  0  0
   36.8860   25.6750   31.9590 C   0  0  0  0  0  0  0  0  0  0  0  0
   35.7000   25.6920   31.6300 O   0  0  0  0  0  0  0  0  0  0  0  0
   37.8950   23.9760   30.4410 C   0  0  0  0  0  0  0  0  0  0  0  0
   37.8440   25.3020   30.9100 C   0  0  0  0  0  0  0  0  0  0  0  0
   38.7230   26.2090   30.3420 C   0  0  0  0  0  0  0  0  0  0  0  0
   39.5870   25.7860   29.3680 N   0  0  0  0  0  0  0  0  0  0  0  0
   39.6000   24.5030   28.9510 C   0  0  0  0  0  0  0  0  0  0  0  0
   38.7720   23.6150   29.4750 N   0  0  0  0  0  0  0  0  0  0  0  0
   37.2220   23.2170   30.8550 H   0  0  0  0  0  0  0  0  0  0  0  0
   38.6810   27.2180   30.7020 H   0  0  0  0  0  0  0  0  0  0  0  0
   40.3170   24.2630   28.1790 H   0  0  0  0  0  0  0  0  0  0  0  0
  1  2  2  0  0  0  0
  1  6  1  0  0  0  0
  2  3  1  0  0  0  0
  3  8  1  0  0  0  0
  3  4  2  0  0  0  0
  4  9  1  0  0  0  0
  5  4  1  0  0  0  0
  5 12  1  0  0  0  0
  6  5  2  0  0  0  0
  7  2  1  0  0  0  0
 11 10  1  0  0  0  0
 11 18  1  0  0  0  0
 12 11  2  0  0  0  0
 13 12  1  0  0  0  0
 13 15  2  0  0  0  0
 14 13  1  0  0  0  0
 15 17  1  0  0  0  0
 16 15  1  0  0  0  0
 17 18  2  0  0  0  0
 19  1  1  0  0  0  0
 20 19  2  0  0  0  0
 21 27  1  0  0  0  0
 21 22  1  0  0  0  0
 22 19  1  0  0  0  0
 23 28  1  0  0  0  0
 23 22  2  0  0  0  0
 24 23  1  0  0  0  0
 25 24  2  0  0  0  0
 25 26  1  0  0  0  0
 26 21  2  0  0  0  0
 29 25  1  0  0  0  0
M  END
>  <minimizedAffinity>
-5.46662903

$$$$

 OpenBabel03262522103D

 29 31  0  0  0  0  0  0  0  0999 V2000
   37.0910   22.4110   32.5630 C   0  0  0  0  0  0  0  0  0  0  0  0
   36.1780   21.3920   32.4790 C   0  0  0  0  0  0  0  0  0  0  0  0
   35.8400   20.6940   33.6210 C   0  0  0  0  0  0  0  0  0  0  0  0
   36.4790   21.1000   34.7980 C   0  0  0  0  0  0  0  0  0  0  0  0
   37.3880   22.1230   34.8530 C   0  0  0  0  0  0  0  0  0  0  0  0
   37.6940   22.7840   33.7130 N   0  0  0  0  0  0  0  0  0  0  0  0
   35.7070   21.1110   31.5410 H   0  0  0  0  0  0  0  0  0  0  0  0
   35.1260   19.8820   33.6100 H   0  0  0  0  0  0  0  0  0  0  0  0
   36.1980   20.5390   35.6770 H   0  0  0  0  0  0  0  0  0  0  0  0
   40.0910   21.7400   35.2670 F   0  0  0  0  0  0  0  0  0  0  0  0
   39.3900   22.3240   36.2780 C   0  0  0  0  0  0  0  0  0  0  0  0
   38.0380   22.5260   36.0940 C   0  0  0  0  0  0  0  0  0  0  0  0
   37.4000   23.1200   37.1600 C   0  0  0  0  0  0  0  0  0  0  0  0
   36.3380   23.3080   37.0890 H   0  0  0  0  0  0  0  0  0  0  0  0
   38.0480   23.4870   38.3200 C   0  0  0  0  0  0  0  0  0  0  0  0
   37.5310   23.9500   39.1420 H   0  0  0  0  0  0  0  0  0  0  0  0
   39.4080   23.2630   38.4530 C   0  0  0  0  0  3  0  0  0  0  0  0
   40.0950   22.6700   37.4140 C   0  0  0  0  0  3  0  0  0  0  0  0
   37.4170   23.1230   31.3190 C   0  0  0  0  0  0  0  0  0  0  0  0
   37.9850   22.5770   30.3730 O   0  0  0  0  0  0  0  0  0  0  0  0
   35.7320   24.9560   31.2100 C   0  0  0  0  0  0  0  0  0  0  0  0
   37.0760   24.5400   31.1390 C   0  0  0  0  0  0  0  0  0  0  0  0
   38.0280   25.5160   30.8980 C   0  0  0  0  0  0  0  0  0  0  0  0
   37.6320   26.8170   30.7410 N   0  0  0  0  0  0  0  0  0  0  0  0
   36.3320   27.1670   30.8170 C   0  0  0  0  0  0  0  0  0  0  0  0
   35.3990   26.2570   31.0460 N   0  0  0  0  0  0  0  0  0  0  0  0
   34.9380   24.2260   31.3980 H   0  0  0  0  0  0  0  0  0  0  0  0
   39.0500   25.1960   30.8450 H   0  0  0  0  0  0  0  0  0  0  0  0
   36.1150   28.2170   30.6800 H   0  0  0  0  0  0  0  0  0  0  0  0
  1  6  1  0  0  0  0
  2  1  2  0  0  0  0
  2  3  1  0  0  0  0
  3  4  2  0  0  0  0
  4  5  1  0  0  0  0
  4  9  1  0  0  0  0
  5 12  1  0  0  0  0
  6  5  2  0  0  0  0
  7  2  1  0  0  0  0
  8  3  1  0  0  0  0
 10 11  1  0  0  0  0
 11 18  1  0  0  0  0
 12 11  2  0  0  0  0
 12 13  1  0  0  0  0
 13 15  2  0  0  0  0
 14 13  1  0  0  0  0
 15 17  1  0  0  0  0
 15 16  1  0  0  0  0
 18 17  2  0  0  0  0
 19  1  1  0  0  0  0
 20 19  2  0  0  0  0
 21 27  1  0  0  0  0
 22 21  1  0  0  0  0
 22 19  1  0  0  0  0
 23 22  2  0  0  0  0
 24 25  2  0  0  0  0
 24 23  1  0  0  0  0
 25 26  1  0  0  0  0
 26 21  2  0  0  0  0
 28 23  1  0  0  0  0
 29 25  1  0  0  0  0
M  END
>  <minimizedAffinity>
-5.40219402

$$$$

 OpenBabel03262522103D

 29 31  0  0  0  0  0  0  0  0999 V2000
   37.7220   23.9840   32.3180 C   0  0  0  0  0  0  0  0  0  0  0  0
   38.6600   24.7280   31.6500 C   0  0  0  0  0  0  0  0  0  0  0  0
   39.7370   25.2370   32.3460 C   0  0  0  0  0  0  0  0  0  0  0  0
   39.7790   24.9390   33.7130 C   0  0  0  0  0  0  0  0  0  0  0  0
   38.8270   24.1930   34.3550 C   0  0  0  0  0  0  0  0  0  0  0  0
   37.7850   23.7110   33.6390 N   0  0  0  0  0  0  0  0  0  0  0  0
   38.5860   24.9340   30.5860 H   0  0  0  0  0  0  0  0  0  0  0  0
   40.5050   25.8300   31.8670 H   0  0  0  0  0  0  0  0  0  0  0  0
   40.6310   25.3480   34.2360 H   0  0  0  0  0  0  0  0  0  0  0  0
   37.1680   25.4380   36.1770 F   0  0  0  0  0  0  0  0  0  0  0  0
   38.0560   24.5320   36.6720 C   0  0  0  0  0  0  0  0  0  0  0  0
   38.8950   23.8970   35.7810 C   0  0  0  0  0  0  0  0  0  0  0  0
   39.7630   22.9970   36.3580 C   0  0  0  0  0  0  0  0  0  0  0  0
   40.4530   22.4610   35.7210 H   0  0  0  0  0  0  0  0  0  0  0  0
   39.8000   22.7440   37.7120 C   0  0  0  0  0  0  0  0  0  0  0  0
   40.4870   22.0370   38.1440 H   0  0  0  0  0  0  0  0  0  0  0  0
   38.9350   23.4090   38.5640 C   0  0  0  0  0  3  0  0  0  0  0  0
   38.0450   24.3220   38.0370 C   0  0  0  0  0  3  0  0  0  0  0  0
   36.5940   23.4640   31.5310 C   0  0  0  0  0  0  0  0  0  0  0  0
   35.8900   24.1880   30.8270 O   0  0  0  0  0  0  0  0  0  0  0  0
   35.1120   21.5970   32.2540 C   0  0  0  0  0  0  0  0  0  0  0  0
   36.2460   22.0380   31.5460 C   0  0  0  0  0  0  0  0  0  0  0  0
   36.9930   21.0770   30.8840 C   0  0  0  0  0  0  0  0  0  0  0  0
   36.6040   19.7660   30.9450 N   0  0  0  0  0  0  0  0  0  0  0  0
   35.5100   19.3900   31.6370 C   0  0  0  0  0  0  0  0  0  0  0  0
   34.7760   20.2850   32.2790 N   0  0  0  0  0  0  0  0  0  0  0  0
   34.4850   22.3130   32.7950 H   0  0  0  0  0  0  0  0  0  0  0  0
   37.8560   21.4170   30.3460 H   0  0  0  0  0  0  0  0  0  0  0  0
   35.2820   18.3340   31.6280 H   0  0  0  0  0  0  0  0  0  0  0  0
  1  6  1  0  0  0  0
  2  1  2  0  0  0  0
  2  3  1  0  0  0  0
  3  4  2  0  0  0  0
  4  9  1  0  0  0  0
  4  5  1  0  0  0  0
  5 12  1  0  0  0  0
  6  5  2  0  0  0  0
  7  2  1  0  0  0  0
  8  3  1  0  0  0  0
 10 11  1  0  0  0  0
 11 18  1  0  0  0  0
 12 13  1  0  0  0  0
 12 11  2  0  0  0  0
 13 15  2  0  0  0  0
 14 13  1  0  0  0  0
 15 16  1  0  0  0  0
 15 17  1  0  0  0  0
 18 17  2  0  0  0  0
 19 22  1  0  0  0  0
 19  1  1  0  0  0  0
 20 19  2  0  0  0  0
 21 26  1  0  0  0  0
 21 27  1  0  0  0  0
 22 21  2  0  0  0  0
 23 24  2  0  0  0  0
 23 22  1  0  0  0  0
 24 25  1  0  0  0  0
 25 26  2  0  0  0  0
 28 23  1  0  0  0  0
 29 25  1  0  0  0  0
M  END
>  <minimizedAffinity>
-5.38733578

$$$$

 OpenBabel03262522103D

 29 31  0  0  0  0  0  0  0  0999 V2000
   39.6660   26.0140   32.4150 C   0  0  0  0  0  0  0  0  0  0  0  0
   40.6440   26.9740   32.4560 C   0  0  0  0  0  0  0  0  0  0  0  0
   41.3020   27.2160   33.6450 C   0  0  0  0  0  0  0  0  0  0  0  0
   40.9000   26.4370   34.7360 C   0  0  0  0  0  0  0  0  0  0  0  0
   39.9190   25.4840   34.6660 C   0  0  0  0  0  0  0  0  0  0  0  0
   39.2970   25.2750   33.4830 N   0  0  0  0  0  0  0  0  0  0  0  0
   40.9230   27.5560   31.5820 H   0  0  0  0  0  0  0  0  0  0  0  0
   42.0810   27.9620   33.7320 H   0  0  0  0  0  0  0  0  0  0  0  0
   41.4290   26.6440   35.6540 H   0  0  0  0  0  0  0  0  0  0  0  0
   37.7500   26.1730   36.2300 F   0  0  0  0  0  0  0  0  0  0  0  0
   38.4340   25.0500   36.5860 C   0  0  0  0  0  0  0  0  0  0  0  0
   39.5210   24.6860   35.8190 C   0  0  0  0  0  0  0  0  0  0  0  0
   40.1590   23.5410   36.2420 C   0  0  0  0  0  0  0  0  0  0  0  0
   41.0210   23.1940   35.6900 H   0  0  0  0  0  0  0  0  0  0  0  0
   39.7540   22.8110   37.3390 C   0  0  0  0  0  0  0  0  0  0  0  0
   40.2670   21.9190   37.6540 H   0  0  0  0  0  0  0  0  0  0  0  0
   38.6550   23.2200   38.0750 C   0  0  0  0  0  3  0  0  0  0  0  0
   37.9800   24.3610   37.6940 C   0  0  0  0  0  3  0  0  0  0  0  0
   38.9960   25.7950   31.1240 C   0  0  0  0  0  0  0  0  0  0  0  0
   39.5980   25.8390   30.0520 O   0  0  0  0  0  0  0  0  0  0  0  0
   36.6250   26.5580   31.1680 C   0  0  0  0  0  0  0  0  0  0  0  0
   37.5580   25.5100   31.0510 C   0  0  0  0  0  0  0  0  0  0  0  0
   37.0550   24.2330   30.8670 C   0  0  0  0  0  0  0  0  0  0  0  0
   35.7000   24.0470   30.8090 N   0  0  0  0  0  0  0  0  0  0  0  0
   34.8450   25.0830   30.9270 C   0  0  0  0  0  0  0  0  0  0  0  0
   35.2950   26.3140   31.1040 N   0  0  0  0  0  0  0  0  0  0  0  0
   36.9670   27.5880   31.3150 H   0  0  0  0  0  0  0  0  0  0  0  0
   37.7680   23.4380   30.7780 H   0  0  0  0  0  0  0  0  0  0  0  0
   33.7940   24.8380   30.8690 H   0  0  0  0  0  0  0  0  0  0  0  0
  1  2  2  0  0  0  0
  1  6  1  0  0  0  0
  2  3  1  0  0  0  0
  3  8  1  0  0  0  0
  3  4  2  0  0  0  0
  4  9  1  0  0  0  0
  5  4  1  0  0  0  0
  5 12  1  0  0  0  0
  6  5  2  0  0  0  0
  7  2  1  0  0  0  0
 10 11  1  0  0  0  0
 11 18  1  0  0  0  0
 12 13  1  0  0  0  0
 12 11  2  0  0  0  0
 13 15  2  0  0  0  0
 14 13  1  0  0  0  0
 15 16  1  0  0  0  0
 15 17  1  0  0  0  0
 18 17  2  0  0  0  0
 19  1  1  0  0  0  0
 20 19  2  0  0  0  0
 21 27  1  0  0  0  0
 22 19  1  0  0  0  0
 22 21  2  0  0  0  0
 23 22  1  0  0  0  0
 24 23  2  0  0  0  0
 24 25  1  0  0  0  0
 25 26  2  0  0  0  0
 26 21  1  0  0  0  0
 28 23  1  0  0  0  0
 29 25  1  0  0  0  0
M  END
>  <minimizedAffinity>
-5.35359812

$$$$
