
 OpenBabel03272510333D

 28 30  0  0  0  0  0  0  0  0999 V2000
   36.0020   30.2040   46.7120 C   0  0  0  0  0  0  0  0  0  0  0  0
   35.3570   30.2240   45.4860 C   0  0  0  0  0  0  0  0  0  0  0  0
   34.1360   29.5860   45.3320 C   0  0  0  0  0  0  0  0  0  0  0  0
   33.5840   28.9350   46.4280 C   0  0  0  0  0  0  0  0  0  0  0  0
   34.2160   28.9070   47.6520 C   0  0  0  0  0  0  0  0  0  0  0  0
   35.4340   29.5470   47.7980 C   0  0  0  0  0  0  0  0  0  0  0  0
   35.8030   30.7320   44.6610 H   0  0  0  0  0  0  0  0  0  0  0  0
   33.6480   29.6100   44.3800 H   0  0  0  0  0  0  0  0  0  0  0  0
   32.6300   28.4240   46.3500 H   0  0  0  0  0  0  0  0  0  0  0  0
   33.8170   28.4110   48.5260 H   0  0  0  0  0  0  0  0  0  0  0  0
   38.4900   32.6460   47.7540 C   0  0  0  0  0  0  0  0  0  0  0  0
   39.6430   32.2930   47.0390 C   0  0  0  0  0  0  0  0  0  0  0  0
   39.5400   31.1830   46.1840 C   0  0  0  0  0  0  0  0  0  0  0  0
   38.3610   30.5360   46.1030 N   0  0  0  0  0  0  0  0  0  0  0  0
   37.2740   30.8950   46.7960 C   0  0  0  0  0  0  0  0  0  0  0  0
   37.3510   31.9580   47.6240 N   0  0  0  0  0  0  0  0  0  0  0  0
   38.4740   33.4830   48.4340 H   0  0  0  0  0  0  0  0  0  0  0  0
   40.5030   32.8910   47.2020 H   0  0  0  0  0  0  0  0  0  0  0  0
   40.4330   30.9170   45.6360 H   0  0  0  0  0  0  0  0  0  0  0  0
   33.8870   29.7950   50.1040 F   0  0  0  0  0  0  0  0  0  0  0  0
   35.2440   29.6610   50.1660 C   0  0  0  0  0  0  0  0  0  0  0  0
   36.1230   29.5290   49.0870 C   0  0  0  0  0  0  0  0  0  0  0  0
   37.4830   29.4030   49.3650 C   0  0  0  0  0  0  0  0  0  0  0  0
   38.0670   29.3090   48.4780 H   0  0  0  0  0  0  0  0  0  0  0  0
   37.9100   29.4110   50.6550 C   0  0  0  0  0  0  0  0  0  0  0  0
   38.9800   29.3070   50.7640 H   0  0  0  0  0  0  0  0  0  0  0  0
   37.0540   29.5410   51.7300 C   0  0  0  0  0  3  0  0  0  0  0  0
   35.6960   29.6680   51.4690 C   0  0  0  0  0  3  0  0  0  0  0  0
  1 15  1  0  0  0  0
  1  6  1  0  0  0  0
  2  1  2  0  0  0  0
  3  2  1  0  0  0  0
  3  4  2  0  0  0  0
  4  5  1  0  0  0  0
  5  6  2  0  0  0  0
  5 10  1  0  0  0  0
  6 22  1  0  0  0  0
  7  2  1  0  0  0  0
  8  3  1  0  0  0  0
  9  4  1  0  0  0  0
 11 17  1  0  0  0  0
 12 18  1  0  0  0  0
 12 11  2  0  0  0  0
 13 12  1  0  0  0  0
 14 13  2  0  0  0  0
 14 15  1  0  0  0  0
 15 16  2  0  0  0  0
 16 11  1  0  0  0  0
 19 13  1  0  0  0  0
 20 21  1  0  0  0  0
 21 28  1  0  0  0  0
 22 23  1  0  0  0  0
 22 21  2  0  0  0  0
 23 25  2  0  0  0  0
 24 23  1  0  0  0  0
 25 26  1  0  0  0  0
 25 27  1  0  0  0  0
 28 27  2  0  0  0  0
M  END
>  <minimizedAffinity>
-5.34833145

>  <minimizedRMSD>
2.1634295

$$$$
