
 OpenBabel03272510233D

 31 34  0  0  0  0  0  0  0  0999 V2000
   35.3770   29.8310   47.0780 C   0  0  0  0  0  0  0  0  0  0  0  0
   36.5170   30.3670   47.6600 C   0  0  0  0  0  0  0  0  0  0  0  0
   37.4170   31.0450   46.8810 C   0  0  0  0  0  0  0  0  0  0  0  0
   37.1520   31.1700   45.5190 C   0  0  0  0  0  0  0  0  0  0  0  0
   37.8920   31.7920   44.5670 N   0  0  0  0  0  0  0  0  0  0  0  0
   37.2540   31.6650   43.3980 C   0  0  0  0  0  0  0  0  0  0  0  0
   36.1270   30.9760   43.5890 N   0  0  0  0  0  0  0  0  0  0  0  0
   36.0260   30.6510   44.8970 C   0  0  0  0  0  0  0  0  0  0  0  0
   35.1260   29.9670   45.7080 C   0  0  0  0  0  0  0  0  0  0  0  0
   34.6180   29.2810   47.6240 H   0  0  0  0  0  0  0  0  0  0  0  0
   38.3080   31.4680   47.3200 H   0  0  0  0  0  0  0  0  0  0  0  0
   38.7910   32.2790   44.7110 H   0  0  0  0  0  0  0  0  0  0  0  0
   34.2530   29.5580   45.2520 H   0  0  0  0  0  0  0  0  0  0  0  0
   37.8570   30.3630   51.1740 C   0  0  0  0  0  0  0  0  0  0  0  0
   37.7860   30.5980   49.7970 C   0  0  0  0  0  0  0  0  0  0  0  0
   36.6800   30.1690   49.0840 C   0  0  0  0  0  0  0  0  0  0  0  0
   35.6820   29.5240   49.7520 N   0  0  0  0  0  0  0  0  0  0  0  0
   35.7750   29.3040   51.1040 C   0  0  0  0  0  0  0  0  0  0  0  0
   36.8380   29.7140   51.7950 N   0  0  0  0  0  0  0  0  0  0  0  0
   38.7080   30.6880   51.7380 H   0  0  0  0  0  0  0  0  0  0  0  0
   38.5760   31.1040   49.2920 H   0  0  0  0  0  0  0  0  0  0  0  0
   34.9440   28.7860   51.5620 H   0  0  0  0  0  0  0  0  0  0  0  0
   36.0190   33.8700   42.1410 F   0  0  0  0  0  0  0  0  0  0  0  0
   37.0740   33.2740   41.5180 C   0  0  0  0  0  0  0  0  0  0  0  0
   37.7080   32.1920   42.0970 C   0  0  0  0  0  0  0  0  0  0  0  0
   38.7890   31.5760   41.4630 C   0  0  0  0  0  0  0  0  0  0  0  0
   39.3140   30.7260   41.8820 H   0  0  0  0  0  0  0  0  0  0  0  0
   39.2460   32.0500   40.2280 C   0  0  0  0  0  0  0  0  0  0  0  0
   40.0700   31.6350   39.6740 H   0  0  0  0  0  0  0  0  0  0  0  0
   38.5460   33.1340   39.7350 C   0  0  0  0  0  3  0  0  0  0  0  0
   37.4760   33.7870   40.3030 C   0  0  0  0  0  3  0  0  0  0  0  0
  1 10  1  0  0  0  0
  1  2  1  0  0  0  0
  2 16  1  0  0  0  0
  3 11  1  0  0  0  0
  3  2  2  0  0  0  0
  4  3  1  0  0  0  0
  5 12  1  0  0  0  0
  5  4  1  0  0  0  0
  6  7  2  0  0  0  0
  6  5  1  0  0  0  0
  7  8  1  0  0  0  0
  8  4  2  0  0  0  0
  8  9  1  0  0  0  0
  9  1  2  0  0  0  0
 13  9  1  0  0  0  0
 14 20  1  0  0  0  0
 14 19  1  0  0  0  0
 15 14  2  0  0  0  0
 16 17  2  0  0  0  0
 16 15  1  0  0  0  0
 17 18  1  0  0  0  0
 18 22  1  0  0  0  0
 18 19  2  0  0  0  0
 21 15  1  0  0  0  0
 24 25  1  0  0  0  0
 24 23  1  0  0  0  0
 25  6  1  0  0  0  0
 26 27  1  0  0  0  0
 26 25  2  0  0  0  0
 28 26  1  0  0  0  0
 29 28  1  0  0  0  0
 30 28  2  0  0  0  0
 30 31  1  0  0  0  0
 31 24  2  0  0  0  0
M  END
>  <minimizedAffinity>
-5.17245865

>  <minimizedRMSD>
3.3941679

$$$$
