
 OpenBabel03272508483D

 40 44  0  0  0  0  0  0  0  0999 V2000
   35.4630   29.5020   49.6250 C   0  0  0  0  0  0  0  0  0  0  0  0
   36.5090   29.0000   50.3760 C   0  0  0  0  0  0  0  0  0  0  0  0
   37.6350   29.5470   49.7650 C   0  0  0  0  0  0  0  0  0  0  0  0
   37.2380   30.3280   48.7090 C   0  0  0  0  0  0  0  0  0  0  0  0
   35.9280   30.2760   48.6550 O   0  0  0  0  0  0  0  0  0  0  0  0
   36.4260   28.3500   51.2190 H   0  0  0  0  0  0  0  0  0  0  0  0
   38.6500   29.3710   50.0880 H   0  0  0  0  0  0  0  0  0  0  0  0
   38.5430   32.3350   48.1800 C   0  0  0  0  0  0  0  0  0  0  0  0
   38.0930   31.0830   47.8010 C   0  0  0  0  0  0  0  0  0  0  0  0
   38.4350   30.5260   46.5750 C   0  0  0  0  0  0  0  0  0  0  0  0
   39.2470   31.2260   45.6920 C   0  0  0  0  0  0  0  0  0  0  0  0
   39.7420   30.9690   44.4680 N   0  0  0  0  0  0  0  0  0  0  0  0
   40.4640   32.0210   44.1150 N   0  0  0  0  0  0  0  0  0  0  0  0
   40.4450   32.9590   45.0940 C   0  0  0  0  0  0  0  0  0  0  0  0
   39.6610   32.4700   46.1330 C   0  0  0  0  0  0  0  0  0  0  0  0
   39.3640   33.0740   47.3200 C   0  0  0  0  0  0  0  0  0  0  0  0
   38.2620   32.7490   49.1430 H   0  0  0  0  0  0  0  0  0  0  0  0
   38.0920   29.5510   46.2640 H   0  0  0  0  0  0  0  0  0  0  0  0
   39.5590   30.0820   43.9350 H   0  0  0  0  0  0  0  0  0  0  0  0
   40.9800   33.9010   44.9950 H   0  0  0  0  0  0  0  0  0  0  0  0
   39.7340   34.0390   47.5650 H   0  0  0  0  0  0  0  0  0  0  0  0
   34.0630   29.2110   49.8760 C   0  0  0  0  0  0  0  0  0  0  0  0
   33.5050   29.7940   50.8350 O   0  0  0  0  0  0  0  0  0  0  0  0
   31.3350   27.2250   48.4850 C   0  0  0  0  0  0  0  0  0  0  0  0
   31.9660   26.5120   47.4680 C   0  0  0  0  0  0  0  0  0  0  0  0
   33.3070   26.6950   47.2460 C   0  0  0  0  0  0  0  0  0  0  0  0
   33.9510   27.5720   48.0410 N   0  0  0  0  0  0  0  0  0  0  0  0
   33.3400   28.2640   49.0260 C   0  0  0  0  0  0  0  0  0  0  0  0
   32.0270   28.0840   49.2430 N   0  0  0  0  0  0  0  0  0  0  0  0
   30.2820   27.1310   48.7140 H   0  0  0  0  0  0  0  0  0  0  0  0
   31.3900   25.8260   46.8690 H   0  0  0  0  0  0  0  0  0  0  0  0
   34.3700   24.1920   47.6860 F   0  0  0  0  0  0  0  0  0  0  0  0
   34.5590   24.7420   46.4510 C   0  0  0  0  0  0  0  0  0  0  0  0
   34.0400   25.9890   46.2060 C   0  0  0  0  0  0  0  0  0  0  0  0
   34.2680   26.4790   44.9460 C   0  0  0  0  0  0  0  0  0  0  0  0
   33.8890   27.4540   44.6820 H   0  0  0  0  0  0  0  0  0  0  0  0
   34.9720   25.7550   44.0070 C   0  0  0  0  0  0  0  0  0  0  0  0
   35.1310   26.1840   43.0160 H   0  0  0  0  0  0  0  0  0  0  0  0
   35.4850   24.5050   44.2760 C   0  0  0  0  0  3  0  0  0  0  0  0
   35.2660   23.9950   45.5380 C   0  0  0  0  0  3  0  0  0  0  0  0
  1 22  1  0  0  0  0
  1  2  2  0  0  0  0
  2  6  1  0  0  0  0
  3  7  1  0  0  0  0
  3  2  1  0  0  0  0
  4  3  2  0  0  0  0
  5  4  1  0  0  0  0
  5  1  1  0  0  0  0
  8 17  1  0  0  0  0
  9  8  1  0  0  0  0
  9  4  1  0  0  0  0
 10  9  2  0  0  0  0
 11 15  2  0  0  0  0
 11 10  1  0  0  0  0
 12 11  1  0  0  0  0
 13 12  1  0  0  0  0
 13 14  2  0  0  0  0
 14 15  1  0  0  0  0
 15 16  1  0  0  0  0
 16 21  1  0  0  0  0
 16  8  2  0  0  0  0
 18 10  1  0  0  0  0
 19 12  1  0  0  0  0
 20 14  1  0  0  0  0
 22 23  2  0  0  0  0
 24 30  1  0  0  0  0
 24 29  1  0  0  0  0
 25 24  2  0  0  0  0
 26 25  1  0  0  0  0
 26 27  2  0  0  0  0
 27 28  1  0  0  0  0
 28 29  2  0  0  0  0
 28 22  1  0  0  0  0
 31 25  1  0  0  0  0
 33 32  1  0  0  0  0
 34 33  1  0  0  0  0
 34 26  1  0  0  0  0
 35 34  2  0  0  0  0
 36 35  1  0  0  0  0
 37 39  2  0  0  0  0
 37 35  1  0  0  0  0
 38 37  1  0  0  0  0
 39 40  1  0  0  0  0
 40 33  2  0  0  0  0
M  END
>  <minimizedAffinity>
-6.83331633

>  <minimizedRMSD>
0.616307437

$$$$
