
 OpenBabel03272508483D

 40 44  0  0  0  0  0  0  0  0999 V2000
   35.4460   29.4860   49.6350 C   0  0  0  0  0  0  0  0  0  0  0  0
   36.4770   29.0210   50.4290 C   0  0  0  0  0  0  0  0  0  0  0  0
   37.6150   29.5410   49.8160 C   0  0  0  0  0  0  0  0  0  0  0  0
   37.2390   30.2710   48.7170 C   0  0  0  0  0  0  0  0  0  0  0  0
   35.9300   30.2150   48.6390 O   0  0  0  0  0  0  0  0  0  0  0  0
   36.3770   28.4110   51.2990 H   0  0  0  0  0  0  0  0  0  0  0  0
   38.6220   29.3810   50.1670 H   0  0  0  0  0  0  0  0  0  0  0  0
   38.4730   32.2890   48.0740 C   0  0  0  0  0  0  0  0  0  0  0  0
   38.1100   30.9840   47.7920 C   0  0  0  0  0  0  0  0  0  0  0  0
   38.5580   30.3360   46.6490 C   0  0  0  0  0  0  0  0  0  0  0  0
   39.3890   30.9940   45.7510 C   0  0  0  0  0  0  0  0  0  0  0  0
   39.9730   30.6520   44.5890 N   0  0  0  0  0  0  0  0  0  0  0  0
   40.6640   31.7050   44.1800 N   0  0  0  0  0  0  0  0  0  0  0  0
   40.5350   32.7280   45.0610 C   0  0  0  0  0  0  0  0  0  0  0  0
   39.7120   32.2950   46.0940 C   0  0  0  0  0  0  0  0  0  0  0  0
   39.3090   32.9900   47.1970 C   0  0  0  0  0  0  0  0  0  0  0  0
   38.1100   32.7750   48.9750 H   0  0  0  0  0  0  0  0  0  0  0  0
   38.2840   29.3190   46.4140 H   0  0  0  0  0  0  0  0  0  0  0  0
   39.8700   29.7100   44.1350 H   0  0  0  0  0  0  0  0  0  0  0  0
   41.0280   33.6850   44.9030 H   0  0  0  0  0  0  0  0  0  0  0  0
   39.6140   33.9920   47.3690 H   0  0  0  0  0  0  0  0  0  0  0  0
   34.0410   29.2040   49.8710 C   0  0  0  0  0  0  0  0  0  0  0  0
   33.4690   29.8110   50.8060 O   0  0  0  0  0  0  0  0  0  0  0  0
   31.3290   27.1930   48.4840 C   0  0  0  0  0  0  0  0  0  0  0  0
   31.9740   26.4540   47.4940 C   0  0  0  0  0  0  0  0  0  0  0  0
   33.3190   26.6280   47.2900 C   0  0  0  0  0  0  0  0  0  0  0  0
   33.9530   27.5220   48.0740 N   0  0  0  0  0  0  0  0  0  0  0  0
   33.3280   28.2390   49.0320 C   0  0  0  0  0  0  0  0  0  0  0  0
   32.0120   28.0690   49.2320 N   0  0  0  0  0  0  0  0  0  0  0  0
   30.2720   27.1080   48.6990 H   0  0  0  0  0  0  0  0  0  0  0  0
   31.4050   25.7550   46.9040 H   0  0  0  0  0  0  0  0  0  0  0  0
   33.7160   27.6630   44.7700 F   0  0  0  0  0  0  0  0  0  0  0  0
   34.2500   26.4330   45.0300 C   0  0  0  0  0  0  0  0  0  0  0  0
   34.0660   25.8940   46.2790 C   0  0  0  0  0  0  0  0  0  0  0  0
   34.6290   24.6590   46.4700 C   0  0  0  0  0  0  0  0  0  0  0  0
   34.5230   24.1740   47.4290 H   0  0  0  0  0  0  0  0  0  0  0  0
   35.3250   24.0200   45.4670 C   0  0  0  0  0  0  0  0  0  0  0  0
   35.7570   23.0370   45.6620 H   0  0  0  0  0  0  0  0  0  0  0  0
   35.4970   24.5820   44.2190 C   0  0  0  0  0  3  0  0  0  0  0  0
   34.9390   25.8240   44.0070 C   0  0  0  0  0  3  0  0  0  0  0  0
  1 22  1  0  0  0  0
  1  2  2  0  0  0  0
  2  6  1  0  0  0  0
  3  7  1  0  0  0  0
  3  2  1  0  0  0  0
  4  3  2  0  0  0  0
  5  4  1  0  0  0  0
  5  1  1  0  0  0  0
  8 17  1  0  0  0  0
  9  8  1  0  0  0  0
  9  4  1  0  0  0  0
 10  9  2  0  0  0  0
 11 15  2  0  0  0  0
 11 10  1  0  0  0  0
 12 11  1  0  0  0  0
 13 12  1  0  0  0  0
 13 14  2  0  0  0  0
 14 15  1  0  0  0  0
 15 16  1  0  0  0  0
 16 21  1  0  0  0  0
 16  8  2  0  0  0  0
 18 10  1  0  0  0  0
 19 12  1  0  0  0  0
 20 14  1  0  0  0  0
 22 23  2  0  0  0  0
 24 30  1  0  0  0  0
 24 29  1  0  0  0  0
 25 24  2  0  0  0  0
 26 25  1  0  0  0  0
 26 27  2  0  0  0  0
 27 28  1  0  0  0  0
 28 29  2  0  0  0  0
 28 22  1  0  0  0  0
 31 25  1  0  0  0  0
 32 33  1  0  0  0  0
 33 34  1  0  0  0  0
 34 35  2  0  0  0  0
 34 26  1  0  0  0  0
 35 36  1  0  0  0  0
 37 38  1  0  0  0  0
 37 35  1  0  0  0  0
 39 37  2  0  0  0  0
 40 39  1  0  0  0  0
 40 33  2  0  0  0  0
M  END
>  <minimizedAffinity>
-6.78229046

>  <minimizedRMSD>
0.617862225

$$$$
