
 OpenBabel03272505393D

 31 33  0  0  0  0  0  0  0  0999 V2000
   40.8350   25.3030   34.6700 C   0  0  0  0  0  0  0  0  0  0  0  0
   42.1660   24.9250   34.7200 C   0  0  0  0  0  0  0  0  0  0  0  0
   43.1640   25.7430   34.2410 C   0  0  0  0  0  0  0  0  0  0  0  0
   42.8980   26.9780   33.6880 C   0  0  0  0  0  0  0  0  0  0  0  0
   41.5830   27.3730   33.6290 C   0  0  0  0  0  0  0  0  0  0  0  0
   40.6020   26.5350   34.1160 C   0  0  0  0  0  0  0  0  0  0  0  0
   42.4470   23.9520   35.1470 H   0  0  0  0  0  0  0  0  0  0  0  0
   44.1880   25.4020   34.3010 H   0  0  0  0  0  0  0  0  0  0  0  0
   43.7050   27.6040   33.3190 H   0  0  0  0  0  0  0  0  0  0  0  0
   41.3020   28.3260   33.2110 H   0  0  0  0  0  0  0  0  0  0  0  0
   39.0490   27.4900   36.3100 F   0  0  0  0  0  0  0  0  0  0  0  0
   38.4230   27.4320   35.0980 C   0  0  0  0  0  0  0  0  0  0  0  0
   39.2010   26.9660   34.0550 C   0  0  0  0  0  0  0  0  0  0  0  0
   38.6690   26.8630   32.7680 C   0  0  0  0  0  0  0  0  0  0  0  0
   39.2320   26.5000   31.8940 H   0  0  0  0  0  0  0  0  0  0  0  0
   37.3570   27.2240   32.5130 C   0  0  0  0  0  0  0  0  0  0  0  0
   36.9270   27.1470   31.5020 H   0  0  0  0  0  0  0  0  0  0  0  0
   36.5890   27.6880   33.5680 C   0  0  0  0  0  3  0  0  0  0  0  0
   37.1210   27.7890   34.8490 C   0  0  0  0  0  3  0  0  0  0  0  0
   38.5040   23.5990   36.9030 C   0  0  0  0  0  0  0  0  0  0  0  0
   37.8200   22.7320   36.0390 C   0  0  0  0  0  0  0  0  0  0  0  0
   38.1800   22.7490   34.6820 C   0  0  0  0  0  0  0  0  0  0  0  0
   39.1640   23.6040   34.3000 N   0  0  0  0  0  0  0  0  0  0  0  0
   39.8010   24.4280   35.1720 C   0  0  0  0  0  0  0  0  0  0  0  0
   39.4600   24.4120   36.4590 N   0  0  0  0  0  0  0  0  0  0  0  0
   37.0400   22.0500   36.3190 H   0  0  0  0  0  0  0  0  0  0  0  0
   37.7130   22.1180   33.9350 H   0  0  0  0  0  0  0  0  0  0  0  0
   38.1060   23.5640   38.3460 C   0  0  0  0  0  0  0  0  0  0  0  0
   37.7030   24.8450   38.7340 F   0  0  0  0  0  0  0  0  0  0  0  0
   37.1070   22.6360   38.4740 F   0  0  0  0  0  0  0  0  0  0  0  0
   39.2140   23.2400   39.0990 F   0  0  0  0  0  0  0  0  0  0  0  0
  1  2  1  0  0  0  0
  1 24  1  0  0  0  0
  2  7  1  0  0  0  0
  3  8  1  0  0  0  0
  3  2  2  0  0  0  0
  4  3  1  0  0  0  0
  5  4  2  0  0  0  0
  5  6  1  0  0  0  0
  6  1  2  0  0  0  0
  9  4  1  0  0  0  0
 10  5  1  0  0  0  0
 12 11  1  0  0  0  0
 13  6  1  0  0  0  0
 13 12  2  0  0  0  0
 14 13  1  0  0  0  0
 15 14  1  0  0  0  0
 16 14  2  0  0  0  0
 16 18  1  0  0  0  0
 17 16  1  0  0  0  0
 18 19  2  0  0  0  0
 19 12  1  0  0  0  0
 20 28  1  0  0  0  0
 21 26  1  0  0  0  0
 21 20  2  0  0  0  0
 22 21  1  0  0  0  0
 23 22  2  0  0  0  0
 23 24  1  0  0  0  0
 24 25  2  0  0  0  0
 25 20  1  0  0  0  0
 27 22  1  0  0  0  0
 28 30  1  0  0  0  0
 28 29  1  0  0  0  0
 28 31  1  0  0  0  0
M  END
>  <minimizedAffinity>
-6.34594297

$$$$

 OpenBabel03272505393D

 31 33  0  0  0  0  0  0  0  0999 V2000
   37.8050   22.8610   33.7470 C   0  0  0  0  0  0  0  0  0  0  0  0
   37.0120   21.8030   33.3380 C   0  0  0  0  0  0  0  0  0  0  0  0
   36.2670   21.8680   32.1830 C   0  0  0  0  0  0  0  0  0  0  0  0
   36.2690   22.9830   31.3700 C   0  0  0  0  0  0  0  0  0  0  0  0
   37.0500   24.0450   31.7580 C   0  0  0  0  0  0  0  0  0  0  0  0
   37.7870   23.9540   32.9200 C   0  0  0  0  0  0  0  0  0  0  0  0
   36.9640   20.8850   33.9400 H   0  0  0  0  0  0  0  0  0  0  0  0
   35.6630   21.0160   31.9060 H   0  0  0  0  0  0  0  0  0  0  0  0
   35.6730   23.0060   30.4630 H   0  0  0  0  0  0  0  0  0  0  0  0
   37.1010   24.9470   31.1710 H   0  0  0  0  0  0  0  0  0  0  0  0
   37.0410   26.0130   34.7490 F   0  0  0  0  0  0  0  0  0  0  0  0
   38.2920   26.1010   34.2060 C   0  0  0  0  0  0  0  0  0  0  0  0
   38.6240   25.0900   33.3250 C   0  0  0  0  0  0  0  0  0  0  0  0
   39.8760   25.0740   32.7070 C   0  0  0  0  0  0  0  0  0  0  0  0
   40.2030   24.3000   31.9960 H   0  0  0  0  0  0  0  0  0  0  0  0
   40.8050   26.0670   32.9650 C   0  0  0  0  0  0  0  0  0  0  0  0
   41.7960   26.0640   32.4830 H   0  0  0  0  0  0  0  0  0  0  0  0
   40.4580   27.0740   33.8490 C   0  0  0  0  0  3  0  0  0  0  0  0
   39.2110   27.0890   34.4630 C   0  0  0  0  0  3  0  0  0  0  0  0
   38.8310   23.1500   37.2380 C   0  0  0  0  0  0  0  0  0  0  0  0
   40.1090   22.5740   37.2380 C   0  0  0  0  0  0  0  0  0  0  0  0
   40.6040   22.0890   36.0160 C   0  0  0  0  0  0  0  0  0  0  0  0
   39.8100   22.2110   34.9210 N   0  0  0  0  0  0  0  0  0  0  0  0
   38.5750   22.7770   34.9670 C   0  0  0  0  0  0  0  0  0  0  0  0
   38.1070   23.2370   36.1250 N   0  0  0  0  0  0  0  0  0  0  0  0
   40.7520   22.4670   38.0910 H   0  0  0  0  0  0  0  0  0  0  0  0
   41.5780   21.6280   35.9100 H   0  0  0  0  0  0  0  0  0  0  0  0
   38.3250   23.6620   38.5520 C   0  0  0  0  0  0  0  0  0  0  0  0
   37.8910   24.9810   38.3840 F   0  0  0  0  0  0  0  0  0  0  0  0
   37.3200   22.8250   38.9600 F   0  0  0  0  0  0  0  0  0  0  0  0
   39.3730   23.6890   39.4450 F   0  0  0  0  0  0  0  0  0  0  0  0
  1 24  1  0  0  0  0
  2  1  1  0  0  0  0
  2  7  1  0  0  0  0
  3  2  2  0  0  0  0
  4  5  2  0  0  0  0
  4  3  1  0  0  0  0
  5  6  1  0  0  0  0
  6 13  1  0  0  0  0
  6  1  2  0  0  0  0
  8  3  1  0  0  0  0
  9  4  1  0  0  0  0
 10  5  1  0  0  0  0
 12 19  1  0  0  0  0
 12 11  1  0  0  0  0
 13 12  2  0  0  0  0
 14 16  2  0  0  0  0
 14 13  1  0  0  0  0
 15 14  1  0  0  0  0
 16 18  1  0  0  0  0
 17 16  1  0  0  0  0
 18 19  2  0  0  0  0
 20 28  1  0  0  0  0
 21 20  1  0  0  0  0
 21 26  1  0  0  0  0
 22 21  2  0  0  0  0
 23 24  2  0  0  0  0
 23 22  1  0  0  0  0
 24 25  1  0  0  0  0
 25 20  2  0  0  0  0
 27 22  1  0  0  0  0
 28 30  1  0  0  0  0
 28 31  1  0  0  0  0
 29 28  1  0  0  0  0
M  END
>  <minimizedAffinity>
-6.1099205

$$$$

 OpenBabel03272505393D

 31 33  0  0  0  0  0  0  0  0999 V2000
   37.9480   22.7180   34.3220 C   0  0  0  0  0  0  0  0  0  0  0  0
   37.1660   21.6380   33.9490 C   0  0  0  0  0  0  0  0  0  0  0  0
   36.4340   21.6490   32.7850 C   0  0  0  0  0  0  0  0  0  0  0  0
   36.4360   22.7290   31.9270 C   0  0  0  0  0  0  0  0  0  0  0  0
   37.2050   23.8120   32.2780 C   0  0  0  0  0  0  0  0  0  0  0  0
   37.9300   23.7760   33.4500 C   0  0  0  0  0  0  0  0  0  0  0  0
   37.1190   20.7450   34.5880 H   0  0  0  0  0  0  0  0  0  0  0  0
   35.8380   20.7820   32.5380 H   0  0  0  0  0  0  0  0  0  0  0  0
   35.8480   22.7110   31.0130 H   0  0  0  0  0  0  0  0  0  0  0  0
   37.2550   24.6900   31.6550 H   0  0  0  0  0  0  0  0  0  0  0  0
   37.1240   25.9390   35.1260 F   0  0  0  0  0  0  0  0  0  0  0  0
   38.3930   25.9960   34.6230 C   0  0  0  0  0  0  0  0  0  0  0  0
   38.7540   24.9340   33.8160 C   0  0  0  0  0  0  0  0  0  0  0  0
   40.0270   24.8820   33.2450 C   0  0  0  0  0  0  0  0  0  0  0  0
   40.3780   24.0660   32.5930 H   0  0  0  0  0  0  0  0  0  0  0  0
   40.9490   25.8880   33.4750 C   0  0  0  0  0  0  0  0  0  0  0  0
   41.9560   25.8570   33.0300 H   0  0  0  0  0  0  0  0  0  0  0  0
   40.5730   26.9460   34.2860 C   0  0  0  0  0  3  0  0  0  0  0  0
   39.3040   26.9970   34.8530 C   0  0  0  0  0  3  0  0  0  0  0  0
   40.6080   22.1440   36.7540 C   0  0  0  0  0  0  0  0  0  0  0  0
   40.0750   22.6830   37.9340 C   0  0  0  0  0  0  0  0  0  0  0  0
   38.7890   23.2420   37.8710 C   0  0  0  0  0  0  0  0  0  0  0  0
   38.1510   23.2230   36.6720 N   0  0  0  0  0  0  0  0  0  0  0  0
   38.7060   22.6910   35.5520 C   0  0  0  0  0  0  0  0  0  0  0  0
   39.9260   22.1600   35.6120 N   0  0  0  0  0  0  0  0  0  0  0  0
   40.5620   22.7080   38.8910 H   0  0  0  0  0  0  0  0  0  0  0  0
   38.2890   23.6820   38.7250 H   0  0  0  0  0  0  0  0  0  0  0  0
   41.9810   21.5520   36.8450 C   0  0  0  0  0  0  0  0  0  0  0  0
   42.0810   20.8300   38.0390 F   0  0  0  0  0  0  0  0  0  0  0  0
   42.1650   20.7670   35.7380 F   0  0  0  0  0  0  0  0  0  0  0  0
   42.8980   22.5780   36.9120 F   0  0  0  0  0  0  0  0  0  0  0  0
  1 24  1  0  0  0  0
  2  1  1  0  0  0  0
  2  7  1  0  0  0  0
  3  2  2  0  0  0  0
  4  5  2  0  0  0  0
  4  3  1  0  0  0  0
  5  6  1  0  0  0  0
  6 13  1  0  0  0  0
  6  1  2  0  0  0  0
  8  3  1  0  0  0  0
  9  4  1  0  0  0  0
 10  5  1  0  0  0  0
 12 19  1  0  0  0  0
 12 11  1  0  0  0  0
 13 12  2  0  0  0  0
 14 16  2  0  0  0  0
 14 13  1  0  0  0  0
 15 14  1  0  0  0  0
 16 18  1  0  0  0  0
 17 16  1  0  0  0  0
 18 19  2  0  0  0  0
 20 28  1  0  0  0  0
 20 21  1  0  0  0  0
 21 26  1  0  0  0  0
 22 21  2  0  0  0  0
 22 27  1  0  0  0  0
 23 22  1  0  0  0  0
 24 25  1  0  0  0  0
 24 23  2  0  0  0  0
 25 20  2  0  0  0  0
 28 31  1  0  0  0  0
 28 29  1  0  0  0  0
 30 28  1  0  0  0  0
M  END
>  <minimizedAffinity>
-5.77965879

$$$$

 OpenBabel03272505393D

 31 33  0  0  0  0  0  0  0  0999 V2000
   37.1970   22.0790   33.7330 C   0  0  0  0  0  0  0  0  0  0  0  0
   36.2570   21.0710   33.8630 C   0  0  0  0  0  0  0  0  0  0  0  0
   35.3210   20.8300   32.8840 C   0  0  0  0  0  0  0  0  0  0  0  0
   35.2650   21.5750   31.7230 C   0  0  0  0  0  0  0  0  0  0  0  0
   36.1890   22.5810   31.5740 C   0  0  0  0  0  0  0  0  0  0  0  0
   37.1170   22.8010   32.5700 C   0  0  0  0  0  0  0  0  0  0  0  0
   36.2460   20.4400   34.7630 H   0  0  0  0  0  0  0  0  0  0  0  0
   34.6080   20.0320   33.0320 H   0  0  0  0  0  0  0  0  0  0  0  0
   34.5160   21.3630   30.9660 H   0  0  0  0  0  0  0  0  0  0  0  0
   36.2050   23.2020   30.6930 H   0  0  0  0  0  0  0  0  0  0  0  0
   37.1070   25.3110   33.9260 F   0  0  0  0  0  0  0  0  0  0  0  0
   38.1270   25.0980   33.0420 C   0  0  0  0  0  0  0  0  0  0  0  0
   38.1040   23.8740   32.4020 C   0  0  0  0  0  0  0  0  0  0  0  0
   39.0960   23.5420   31.4760 C   0  0  0  0  0  0  0  0  0  0  0  0
   39.1370   22.5860   30.9310 H   0  0  0  0  0  0  0  0  0  0  0  0
   40.1160   24.4290   31.1830 C   0  0  0  0  0  0  0  0  0  0  0  0
   40.9040   24.1790   30.4540 H   0  0  0  0  0  0  0  0  0  0  0  0
   40.1250   25.6530   31.8310 C   0  0  0  0  0  3  0  0  0  0  0  0
   39.1370   25.9820   32.7520 C   0  0  0  0  0  3  0  0  0  0  0  0
   38.7340   23.0730   36.8910 C   0  0  0  0  0  0  0  0  0  0  0  0
   40.0830   22.7420   36.7000 C   0  0  0  0  0  0  0  0  0  0  0  0
   40.4460   22.1750   35.4680 C   0  0  0  0  0  0  0  0  0  0  0  0
   39.4650   21.9860   34.5480 N   0  0  0  0  0  0  0  0  0  0  0  0
   38.1680   22.3200   34.7750 C   0  0  0  0  0  0  0  0  0  0  0  0
   37.8250   22.8590   35.9440 N   0  0  0  0  0  0  0  0  0  0  0  0
   40.8730   22.8830   37.4130 H   0  0  0  0  0  0  0  0  0  0  0  0
   41.4600   21.8860   35.2210 H   0  0  0  0  0  0  0  0  0  0  0  0
   38.3700   23.6780   38.2120 C   0  0  0  0  0  0  0  0  0  0  0  0
   39.4490   23.5270   39.0890 F   0  0  0  0  0  0  0  0  0  0  0  0
   38.0520   24.9910   37.9890 F   0  0  0  0  0  0  0  0  0  0  0  0
   37.3130   22.9700   38.7420 F   0  0  0  0  0  0  0  0  0  0  0  0
  1  2  1  0  0  0  0
  1 24  1  0  0  0  0
  2  7  1  0  0  0  0
  3  8  1  0  0  0  0
  3  2  2  0  0  0  0
  4  3  1  0  0  0  0
  5  4  2  0  0  0  0
  5  6  1  0  0  0  0
  6  1  2  0  0  0  0
  9  4  1  0  0  0  0
 10  5  1  0  0  0  0
 12 11  1  0  0  0  0
 13  6  1  0  0  0  0
 13 12  2  0  0  0  0
 14 13  1  0  0  0  0
 15 14  1  0  0  0  0
 16 14  2  0  0  0  0
 16 18  1  0  0  0  0
 17 16  1  0  0  0  0
 18 19  2  0  0  0  0
 19 12  1  0  0  0  0
 20 28  1  0  0  0  0
 21 20  1  0  0  0  0
 21 26  1  0  0  0  0
 22 21  2  0  0  0  0
 23 24  2  0  0  0  0
 23 22  1  0  0  0  0
 24 25  1  0  0  0  0
 25 20  2  0  0  0  0
 27 22  1  0  0  0  0
 28 31  1  0  0  0  0
 28 29  1  0  0  0  0
 30 28  1  0  0  0  0
M  END
>  <minimizedAffinity>
-5.77919531

$$$$

 OpenBabel03272505393D

 31 33  0  0  0  0  0  0  0  0999 V2000
   40.7740   25.0320   34.7950 C   0  0  0  0  0  0  0  0  0  0  0  0
   42.0870   24.6100   34.9140 C   0  0  0  0  0  0  0  0  0  0  0  0
   43.1390   25.4210   34.5550 C   0  0  0  0  0  0  0  0  0  0  0  0
   42.9470   26.6950   34.0610 C   0  0  0  0  0  0  0  0  0  0  0  0
   41.6510   27.1350   33.9350 C   0  0  0  0  0  0  0  0  0  0  0  0
   40.6150   26.3020   34.3020 C   0  0  0  0  0  0  0  0  0  0  0  0
   42.3100   23.6050   35.3000 H   0  0  0  0  0  0  0  0  0  0  0  0
   44.1460   25.0460   34.6660 H   0  0  0  0  0  0  0  0  0  0  0  0
   43.7950   27.3150   33.7870 H   0  0  0  0  0  0  0  0  0  0  0  0
   41.4270   28.1190   33.5580 H   0  0  0  0  0  0  0  0  0  0  0  0
   39.0030   27.3550   36.4060 F   0  0  0  0  0  0  0  0  0  0  0  0
   38.4280   27.2930   35.1680 C   0  0  0  0  0  0  0  0  0  0  0  0
   39.2340   26.7800   34.1700 C   0  0  0  0  0  0  0  0  0  0  0  0
   38.7550   26.6690   32.8630 C   0  0  0  0  0  0  0  0  0  0  0  0
   39.3440   26.2680   32.0220 H   0  0  0  0  0  0  0  0  0  0  0  0
   37.4700   27.0700   32.5430 C   0  0  0  0  0  0  0  0  0  0  0  0
   37.0820   26.9870   31.5150 H   0  0  0  0  0  0  0  0  0  0  0  0
   36.6740   27.5820   33.5540 C   0  0  0  0  0  3  0  0  0  0  0  0
   37.1520   27.6910   34.8550 C   0  0  0  0  0  3  0  0  0  0  0  0
   38.0340   22.6260   34.6390 C   0  0  0  0  0  0  0  0  0  0  0  0
   37.6190   22.5370   35.9760 C   0  0  0  0  0  0  0  0  0  0  0  0
   38.3000   23.3200   36.9220 C   0  0  0  0  0  0  0  0  0  0  0  0
   39.3130   24.1070   36.4770 N   0  0  0  0  0  0  0  0  0  0  0  0
   39.6830   24.1630   35.1710 C   0  0  0  0  0  0  0  0  0  0  0  0
   39.0360   23.4210   34.2730 N   0  0  0  0  0  0  0  0  0  0  0  0
   36.8230   21.9210   36.3480 H   0  0  0  0  0  0  0  0  0  0  0  0
   38.0570   23.3230   37.9770 H   0  0  0  0  0  0  0  0  0  0  0  0
   37.2920   21.7840   33.6470 C   0  0  0  0  0  0  0  0  0  0  0  0
   36.3110   21.0510   34.3230 F   0  0  0  0  0  0  0  0  0  0  0  0
   36.7650   22.6270   32.7050 F   0  0  0  0  0  0  0  0  0  0  0  0
   38.1720   20.8770   33.0980 F   0  0  0  0  0  0  0  0  0  0  0  0
  1  2  1  0  0  0  0
  1 24  1  0  0  0  0
  2  7  1  0  0  0  0
  3  8  1  0  0  0  0
  3  2  2  0  0  0  0
  4  3  1  0  0  0  0
  5  4  2  0  0  0  0
  5  6  1  0  0  0  0
  6  1  2  0  0  0  0
  9  4  1  0  0  0  0
 10  5  1  0  0  0  0
 12 11  1  0  0  0  0
 13  6  1  0  0  0  0
 13 12  2  0  0  0  0
 14 13  1  0  0  0  0
 15 14  1  0  0  0  0
 16 14  2  0  0  0  0
 16 18  1  0  0  0  0
 17 16  1  0  0  0  0
 18 19  2  0  0  0  0
 19 12  1  0  0  0  0
 20 21  1  0  0  0  0
 21 26  1  0  0  0  0
 21 22  2  0  0  0  0
 22 27  1  0  0  0  0
 23 22  1  0  0  0  0
 24 23  2  0  0  0  0
 25 20  2  0  0  0  0
 25 24  1  0  0  0  0
 28 29  1  0  0  0  0
 28 20  1  0  0  0  0
 30 28  1  0  0  0  0
 31 28  1  0  0  0  0
M  END
>  <minimizedAffinity>
-5.70876646

$$$$

 OpenBabel03272505393D

 31 33  0  0  0  0  0  0  0  0999 V2000
   38.1040   24.8280   34.0880 C   0  0  0  0  0  0  0  0  0  0  0  0
   37.4040   25.8230   33.4260 C   0  0  0  0  0  0  0  0  0  0  0  0
   37.4100   27.1240   33.8740 C   0  0  0  0  0  0  0  0  0  0  0  0
   38.1090   27.5100   34.9990 C   0  0  0  0  0  0  0  0  0  0  0  0
   38.8110   26.5380   35.6700 C   0  0  0  0  0  0  0  0  0  0  0  0
   38.7890   25.2410   35.2010 C   0  0  0  0  0  0  0  0  0  0  0  0
   36.8250   25.5830   32.5230 H   0  0  0  0  0  0  0  0  0  0  0  0
   36.8470   27.8650   33.3240 H   0  0  0  0  0  0  0  0  0  0  0  0
   38.0980   28.5450   35.3290 H   0  0  0  0  0  0  0  0  0  0  0  0
   39.3810   26.7670   36.5560 H   0  0  0  0  0  0  0  0  0  0  0  0
   41.4660   24.4330   34.6370 F   0  0  0  0  0  0  0  0  0  0  0  0
   40.8400   23.7960   35.6700 C   0  0  0  0  0  0  0  0  0  0  0  0
   39.5450   24.2090   35.9190 C   0  0  0  0  0  0  0  0  0  0  0  0
   38.8050   23.6300   36.9510 C   0  0  0  0  0  0  0  0  0  0  0  0
   37.7700   23.9120   37.2020 H   0  0  0  0  0  0  0  0  0  0  0  0
   39.3510   22.6340   37.7420 C   0  0  0  0  0  0  0  0  0  0  0  0
   38.7770   22.1700   38.5600 H   0  0  0  0  0  0  0  0  0  0  0  0
   40.6500   22.2290   37.4810 C   0  0  0  0  0  3  0  0  0  0  0  0
   41.3850   22.8070   36.4520 C   0  0  0  0  0  3  0  0  0  0  0  0
   37.0160   21.4290   33.3220 C   0  0  0  0  0  0  0  0  0  0  0  0
   38.1250   20.8880   32.6560 C   0  0  0  0  0  0  0  0  0  0  0  0
   39.2450   21.7150   32.4800 C   0  0  0  0  0  0  0  0  0  0  0  0
   39.1770   22.9810   32.9660 N   0  0  0  0  0  0  0  0  0  0  0  0
   38.0810   23.4660   33.6060 C   0  0  0  0  0  0  0  0  0  0  0  0
   37.0180   22.6810   33.7730 N   0  0  0  0  0  0  0  0  0  0  0  0
   38.1990   19.8910   32.2630 H   0  0  0  0  0  0  0  0  0  0  0  0
   40.1510   21.3930   31.9800 H   0  0  0  0  0  0  0  0  0  0  0  0
   35.8320   20.5280   33.4990 C   0  0  0  0  0  0  0  0  0  0  0  0
   35.5550   20.4130   34.8650 F   0  0  0  0  0  0  0  0  0  0  0  0
   34.7920   21.0710   32.7940 F   0  0  0  0  0  0  0  0  0  0  0  0
   36.1670   19.2710   33.0450 F   0  0  0  0  0  0  0  0  0  0  0  0
  1  6  1  0  0  0  0
  2  3  1  0  0  0  0
  2  1  2  0  0  0  0
  3  4  2  0  0  0  0
  4  9  1  0  0  0  0
  4  5  1  0  0  0  0
  5 10  1  0  0  0  0
  6  5  2  0  0  0  0
  6 13  1  0  0  0  0
  7  2  1  0  0  0  0
  8  3  1  0  0  0  0
 11 12  1  0  0  0  0
 12 13  2  0  0  0  0
 12 19  1  0  0  0  0
 13 14  1  0  0  0  0
 14 15  1  0  0  0  0
 14 16  2  0  0  0  0
 16 17  1  0  0  0  0
 18 16  1  0  0  0  0
 19 18  2  0  0  0  0
 20 28  1  0  0  0  0
 20 25  1  0  0  0  0
 21 20  2  0  0  0  0
 22 21  1  0  0  0  0
 22 23  2  0  0  0  0
 23 24  1  0  0  0  0
 24 25  2  0  0  0  0
 24  1  1  0  0  0  0
 26 21  1  0  0  0  0
 27 22  1  0  0  0  0
 28 29  1  0  0  0  0
 30 28  1  0  0  0  0
 31 28  1  0  0  0  0
M  END
>  <minimizedAffinity>
-5.67243958

$$$$

 OpenBabel03272505393D

 31 33  0  0  0  0  0  0  0  0999 V2000
   39.5570   24.8760   33.2400 C   0  0  0  0  0  0  0  0  0  0  0  0
   39.9820   25.6670   32.1860 C   0  0  0  0  0  0  0  0  0  0  0  0
   40.6330   26.8600   32.4000 C   0  0  0  0  0  0  0  0  0  0  0  0
   40.8980   27.3330   33.6680 C   0  0  0  0  0  0  0  0  0  0  0  0
   40.4850   26.5640   34.7290 C   0  0  0  0  0  0  0  0  0  0  0  0
   39.8360   25.3720   34.4870 C   0  0  0  0  0  0  0  0  0  0  0  0
   39.8020   25.3480   31.1500 H   0  0  0  0  0  0  0  0  0  0  0  0
   40.9440   27.4420   31.5450 H   0  0  0  0  0  0  0  0  0  0  0  0
   41.4150   28.2790   33.8080 H   0  0  0  0  0  0  0  0  0  0  0  0
   40.6600   26.8710   35.7470 H   0  0  0  0  0  0  0  0  0  0  0  0
   41.3650   23.3200   35.7480 F   0  0  0  0  0  0  0  0  0  0  0  0
   40.1180   23.5520   36.2550 C   0  0  0  0  0  0  0  0  0  0  0  0
   39.4020   24.5520   35.6240 C   0  0  0  0  0  0  0  0  0  0  0  0
   38.1150   24.8790   36.0560 C   0  0  0  0  0  0  0  0  0  0  0  0
   37.4910   25.6630   35.5980 H   0  0  0  0  0  0  0  0  0  0  0  0
   37.5340   24.2120   37.1190 C   0  0  0  0  0  0  0  0  0  0  0  0
   36.5190   24.4610   37.4680 H   0  0  0  0  0  0  0  0  0  0  0  0
   38.2620   23.2120   37.7410 C   0  0  0  0  0  3  0  0  0  0  0  0
   39.5430   22.8870   37.3100 C   0  0  0  0  0  3  0  0  0  0  0  0
   36.9830   22.4350   32.3830 C   0  0  0  0  0  0  0  0  0  0  0  0
   37.6440   21.2100   32.5520 C   0  0  0  0  0  0  0  0  0  0  0  0
   38.9850   21.2460   32.9650 C   0  0  0  0  0  0  0  0  0  0  0  0
   39.5480   22.4640   33.1720 N   0  0  0  0  0  0  0  0  0  0  0  0
   38.8700   23.6280   32.9950 C   0  0  0  0  0  0  0  0  0  0  0  0
   37.5980   23.5930   32.6040 N   0  0  0  0  0  0  0  0  0  0  0  0
   37.2180   20.2370   32.3940 H   0  0  0  0  0  0  0  0  0  0  0  0
   39.5830   20.3570   33.1250 H   0  0  0  0  0  0  0  0  0  0  0  0
   35.5520   22.3720   31.9430 C   0  0  0  0  0  0  0  0  0  0  0  0
   34.8310   21.6030   32.8630 F   0  0  0  0  0  0  0  0  0  0  0  0
   35.0910   23.6580   31.8560 F   0  0  0  0  0  0  0  0  0  0  0  0
   35.4950   21.7170   30.7320 F   0  0  0  0  0  0  0  0  0  0  0  0
  1  6  1  0  0  0  0
  2  3  1  0  0  0  0
  2  1  2  0  0  0  0
  3  4  2  0  0  0  0
  4  9  1  0  0  0  0
  4  5  1  0  0  0  0
  5 10  1  0  0  0  0
  6  5  2  0  0  0  0
  6 13  1  0  0  0  0
  7  2  1  0  0  0  0
  8  3  1  0  0  0  0
 11 12  1  0  0  0  0
 12 19  1  0  0  0  0
 13 14  1  0  0  0  0
 13 12  2  0  0  0  0
 14 16  2  0  0  0  0
 15 14  1  0  0  0  0
 16 17  1  0  0  0  0
 16 18  1  0  0  0  0
 19 18  2  0  0  0  0
 20 21  2  0  0  0  0
 20 25  1  0  0  0  0
 21 22  1  0  0  0  0
 22 27  1  0  0  0  0
 22 23  2  0  0  0  0
 24 23  1  0  0  0  0
 24  1  1  0  0  0  0
 25 24  2  0  0  0  0
 26 21  1  0  0  0  0
 28 20  1  0  0  0  0
 28 29  1  0  0  0  0
 30 28  1  0  0  0  0
 31 28  1  0  0  0  0
M  END
>  <minimizedAffinity>
-5.63565731

$$$$

 OpenBabel03272505393D

 31 33  0  0  0  0  0  0  0  0999 V2000
   36.4000   25.7090   31.9080 C   0  0  0  0  0  0  0  0  0  0  0  0
   35.4390   24.9630   31.2480 C   0  0  0  0  0  0  0  0  0  0  0  0
   35.4520   23.5870   31.2750 C   0  0  0  0  0  0  0  0  0  0  0  0
   36.4180   22.8770   31.9580 C   0  0  0  0  0  0  0  0  0  0  0  0
   37.3810   23.5980   32.6210 C   0  0  0  0  0  0  0  0  0  0  0  0
   37.3450   24.9750   32.5780 C   0  0  0  0  0  0  0  0  0  0  0  0
   34.6410   25.4670   30.6830 H   0  0  0  0  0  0  0  0  0  0  0  0
   34.6810   23.0500   30.7420 H   0  0  0  0  0  0  0  0  0  0  0  0
   36.4040   21.7910   31.9640 H   0  0  0  0  0  0  0  0  0  0  0  0
   38.1650   23.1090   33.1760 H   0  0  0  0  0  0  0  0  0  0  0  0
   37.1810   25.8810   35.2780 F   0  0  0  0  0  0  0  0  0  0  0  0
   38.3240   26.1920   34.5980 C   0  0  0  0  0  0  0  0  0  0  0  0
   38.3740   25.7390   33.2930 C   0  0  0  0  0  0  0  0  0  0  0  0
   39.4930   25.9960   32.4990 C   0  0  0  0  0  0  0  0  0  0  0  0
   39.5970   25.6650   31.4530 H   0  0  0  0  0  0  0  0  0  0  0  0
   40.5700   26.7060   33.0000 C   0  0  0  0  0  0  0  0  0  0  0  0
   41.4580   26.9150   32.3830 H   0  0  0  0  0  0  0  0  0  0  0  0
   40.5050   27.1540   34.3090 C   0  0  0  0  0  3  0  0  0  0  0  0
   39.3900   26.8980   35.0980 C   0  0  0  0  0  3  0  0  0  0  0  0
   35.9390   29.2080   32.8380 C   0  0  0  0  0  0  0  0  0  0  0  0
   36.3550   29.8950   31.6890 C   0  0  0  0  0  0  0  0  0  0  0  0
   36.7930   29.1300   30.5960 C   0  0  0  0  0  0  0  0  0  0  0  0
   36.7840   27.7780   30.7290 N   0  0  0  0  0  0  0  0  0  0  0  0
   36.3730   27.1530   31.8630 C   0  0  0  0  0  0  0  0  0  0  0  0
   35.9570   27.8790   32.8990 N   0  0  0  0  0  0  0  0  0  0  0  0
   36.3710   30.9610   31.5630 H   0  0  0  0  0  0  0  0  0  0  0  0
   37.1340   29.5630   29.6640 H   0  0  0  0  0  0  0  0  0  0  0  0
   35.4740   30.0450   33.9900 C   0  0  0  0  0  0  0  0  0  0  0  0
   36.2670   29.7550   35.1060 F   0  0  0  0  0  0  0  0  0  0  0  0
   35.5620   31.3570   33.6080 F   0  0  0  0  0  0  0  0  0  0  0  0
   34.1820   29.6810   34.3030 F   0  0  0  0  0  0  0  0  0  0  0  0
  1  6  1  0  0  0  0
  2  3  1  0  0  0  0
  2  1  2  0  0  0  0
  3  4  2  0  0  0  0
  4  9  1  0  0  0  0
  4  5  1  0  0  0  0
  5 10  1  0  0  0  0
  6  5  2  0  0  0  0
  6 13  1  0  0  0  0
  7  2  1  0  0  0  0
  8  3  1  0  0  0  0
 12 19  1  0  0  0  0
 12 11  1  0  0  0  0
 13 12  2  0  0  0  0
 14 16  2  0  0  0  0
 14 13  1  0  0  0  0
 15 14  1  0  0  0  0
 16 18  1  0  0  0  0
 17 16  1  0  0  0  0
 18 19  2  0  0  0  0
 20 25  1  0  0  0  0
 20 28  1  0  0  0  0
 21 20  2  0  0  0  0
 22 23  2  0  0  0  0
 22 21  1  0  0  0  0
 23 24  1  0  0  0  0
 24  1  1  0  0  0  0
 24 25  2  0  0  0  0
 26 21  1  0  0  0  0
 27 22  1  0  0  0  0
 28 31  1  0  0  0  0
 28 29  1  0  0  0  0
 30 28  1  0  0  0  0
M  END
>  <minimizedAffinity>
-5.6270647

$$$$

 OpenBabel03272505393D

 31 33  0  0  0  0  0  0  0  0999 V2000
   38.1000   24.8290   34.0520 C   0  0  0  0  0  0  0  0  0  0  0  0
   37.3510   25.8620   33.5150 C   0  0  0  0  0  0  0  0  0  0  0  0
   37.3740   27.1250   34.0600 C   0  0  0  0  0  0  0  0  0  0  0  0
   38.1410   27.4330   35.1650 C   0  0  0  0  0  0  0  0  0  0  0  0
   38.8920   26.4220   35.7140 C   0  0  0  0  0  0  0  0  0  0  0  0
   38.8510   25.1650   35.1490 C   0  0  0  0  0  0  0  0  0  0  0  0
   36.7180   25.6840   32.6350 H   0  0  0  0  0  0  0  0  0  0  0  0
   36.7710   27.8980   33.6050 H   0  0  0  0  0  0  0  0  0  0  0  0
   38.1410   28.4400   35.5740 H   0  0  0  0  0  0  0  0  0  0  0  0
   39.5150   26.5920   36.5770 H   0  0  0  0  0  0  0  0  0  0  0  0
   37.9100   23.1440   36.9280 F   0  0  0  0  0  0  0  0  0  0  0  0
   39.2350   23.1000   36.6000 C   0  0  0  0  0  0  0  0  0  0  0  0
   39.6610   24.0920   35.7360 C   0  0  0  0  0  0  0  0  0  0  0  0
   40.9950   24.1490   35.3290 C   0  0  0  0  0  0  0  0  0  0  0  0
   41.4000   24.9120   34.6450 H   0  0  0  0  0  0  0  0  0  0  0  0
   41.9140   23.2180   35.7810 C   0  0  0  0  0  0  0  0  0  0  0  0
   42.9690   23.2530   35.4660 H   0  0  0  0  0  0  0  0  0  0  0  0
   41.4730   22.2300   36.6460 C   0  0  0  0  0  3  0  0  0  0  0  0
   40.1450   22.1750   37.0510 C   0  0  0  0  0  3  0  0  0  0  0  0
   37.0290   21.4560   33.1590 C   0  0  0  0  0  0  0  0  0  0  0  0
   38.0600   21.0120   32.3190 C   0  0  0  0  0  0  0  0  0  0  0  0
   39.1230   21.8950   32.0710 C   0  0  0  0  0  0  0  0  0  0  0  0
   39.0780   23.1170   32.6620 N   0  0  0  0  0  0  0  0  0  0  0  0
   38.0580   23.5070   33.4700 C   0  0  0  0  0  0  0  0  0  0  0  0
   37.0500   22.6690   33.7050 N   0  0  0  0  0  0  0  0  0  0  0  0
   38.1150   20.0520   31.8420 H   0  0  0  0  0  0  0  0  0  0  0  0
   39.9670   21.6490   31.4390 H   0  0  0  0  0  0  0  0  0  0  0  0
   35.9060   20.4960   33.4100 C   0  0  0  0  0  0  0  0  0  0  0  0
   36.2510   19.2500   32.8770 F   0  0  0  0  0  0  0  0  0  0  0  0
   35.6980   20.4520   34.7620 F   0  0  0  0  0  0  0  0  0  0  0  0
   34.7930   20.9370   32.7270 F   0  0  0  0  0  0  0  0  0  0  0  0
  1  6  1  0  0  0  0
  2  1  2  0  0  0  0
  2  3  1  0  0  0  0
  3  4  2  0  0  0  0
  4  9  1  0  0  0  0
  4  5  1  0  0  0  0
  5 10  1  0  0  0  0
  6  5  2  0  0  0  0
  6 13  1  0  0  0  0
  7  2  1  0  0  0  0
  8  3  1  0  0  0  0
 12 11  1  0  0  0  0
 12 19  1  0  0  0  0
 13 12  2  0  0  0  0
 14 13  1  0  0  0  0
 14 16  2  0  0  0  0
 15 14  1  0  0  0  0
 16 18  1  0  0  0  0
 17 16  1  0  0  0  0
 18 19  2  0  0  0  0
 20 28  1  0  0  0  0
 20 25  1  0  0  0  0
 21 20  2  0  0  0  0
 22 21  1  0  0  0  0
 22 23  2  0  0  0  0
 23 24  1  0  0  0  0
 24 25  2  0  0  0  0
 24  1  1  0  0  0  0
 26 21  1  0  0  0  0
 27 22  1  0  0  0  0
 28 30  1  0  0  0  0
 29 28  1  0  0  0  0
 31 28  1  0  0  0  0
M  END
>  <minimizedAffinity>
-5.61767864

$$$$
