
 OpenBabel03272505383D

 31 33  0  0  0  0  0  0  0  0999 V2000
   36.4440   30.6240   46.3190 C   0  0  0  0  0  0  0  0  0  0  0  0
   35.1530   30.1290   46.2560 C   0  0  0  0  0  0  0  0  0  0  0  0
   34.5440   29.8610   45.0510 C   0  0  0  0  0  0  0  0  0  0  0  0
   35.1820   30.0680   43.8460 C   0  0  0  0  0  0  0  0  0  0  0  0
   36.4650   30.5590   43.8860 C   0  0  0  0  0  0  0  0  0  0  0  0
   37.0520   30.8190   45.1060 C   0  0  0  0  0  0  0  0  0  0  0  0
   34.5870   29.9420   47.1800 H   0  0  0  0  0  0  0  0  0  0  0  0
   33.5340   29.4770   45.0540 H   0  0  0  0  0  0  0  0  0  0  0  0
   34.6780   29.8480   42.9090 H   0  0  0  0  0  0  0  0  0  0  0  0
   37.0230   30.7430   42.9830 H   0  0  0  0  0  0  0  0  0  0  0  0
   39.4040   29.2880   45.6190 F   0  0  0  0  0  0  0  0  0  0  0  0
   39.5810   30.6230   45.3880 C   0  0  0  0  0  0  0  0  0  0  0  0
   38.4240   31.3370   45.1420 C   0  0  0  0  0  0  0  0  0  0  0  0
   38.4810   32.7090   44.8920 C   0  0  0  0  0  0  0  0  0  0  0  0
   37.5980   33.3370   44.6900 H   0  0  0  0  0  0  0  0  0  0  0  0
   39.6920   33.3790   44.8850 C   0  0  0  0  0  0  0  0  0  0  0  0
   39.7490   34.4610   44.6890 H   0  0  0  0  0  0  0  0  0  0  0  0
   40.8430   32.6500   45.1330 C   0  0  0  0  0  0  0  0  0  0  0  0
   40.7850   31.2840   45.3830 C   0  0  0  0  0  0  0  0  0  0  0  0
   37.4640   30.3890   49.8170 C   0  0  0  0  0  0  0  0  0  0  0  0
   38.2840   31.5150   49.9800 C   0  0  0  0  0  0  0  0  0  0  0  0
   38.4740   32.3480   48.8660 C   0  0  0  0  0  0  0  0  0  0  0  0
   37.8510   32.0060   47.7080 N   0  0  0  0  0  0  0  0  0  0  0  0
   37.0640   30.9040   47.5940 C   0  0  0  0  0  0  0  0  0  0  0  0
   36.8840   30.1140   48.6510 N   0  0  0  0  0  0  0  0  0  0  0  0
   38.7860   31.8030   50.8840 H   0  0  0  0  0  0  0  0  0  0  0  0
   39.0880   33.2410   48.8880 H   0  0  0  0  0  0  0  0  0  0  0  0
   37.2740   29.5160   51.0180 C   0  0  0  0  0  0  0  0  0  0  0  0
   35.9060   29.2800   51.1930 F   0  0  0  0  0  0  0  0  0  0  0  0
   37.9840   28.3640   50.8060 F   0  0  0  0  0  0  0  0  0  0  0  0
   37.7140   30.2000   52.1310 F   0  0  0  0  0  0  0  0  0  0  0  0
  1 24  1  0  0  0  0
  2  1  1  0  0  0  0
  2  7  1  0  0  0  0
  3  8  1  0  0  0  0
  3  2  2  0  0  0  0
  4  5  2  0  0  0  0
  4  3  1  0  0  0  0
  5  6  1  0  0  0  0
  6 13  1  0  0  0  0
  6  1  2  0  0  0  0
  9  4  1  0  0  0  0
 10  5  1  0  0  0  0
 12 11  1  0  0  0  0
 13 12  2  0  0  0  0
 14 13  1  0  0  0  0
 15 14  1  0  0  0  0
 16 14  2  0  0  0  0
 16 18  1  0  0  0  0
 17 16  1  0  0  0  0
 18 19  2  0  0  0  0
 19 12  1  0  0  0  0
 20 21  1  0  0  0  0
 20 28  1  0  0  0  0
 21 26  1  0  0  0  0
 22 27  1  0  0  0  0
 22 21  2  0  0  0  0
 23 22  1  0  0  0  0
 24 23  2  0  0  0  0
 24 25  1  0  0  0  0
 25 20  2  0  0  0  0
 28 29  1  0  0  0  0
 28 31  1  0  0  0  0
 30 28  1  0  0  0  0
M  END
>  <minimizedAffinity>
-6.90477705

>  <minimizedRMSD>
0.315828413

$$$$
