
 OpenBabel03272508183D

 25 27  0  0  0  0  0  0  0  0999 V2000
   38.7240   31.5730   44.7850 C   0  0  0  0  0  0  0  0  0  0  0  0
   39.4120   31.5620   46.0260 C   0  0  0  0  0  0  0  0  0  0  0  0
   40.7590   31.2240   45.9430 C   0  0  0  0  0  0  0  0  0  0  0  0
   41.3210   30.9360   44.7340 N   0  0  0  0  0  0  0  0  0  0  0  0
   40.6130   30.9610   43.5670 C   0  0  0  0  0  0  0  0  0  0  0  0
   39.3030   31.2820   43.5930 N   0  0  0  0  0  0  0  0  0  0  0  0
   41.3480   31.1940   46.8490 H   0  0  0  0  0  0  0  0  0  0  0  0
   41.0820   30.7290   42.6230 H   0  0  0  0  0  0  0  0  0  0  0  0
   37.6610   29.7560   47.2630 F   0  0  0  0  0  0  0  0  0  0  0  0
   37.8920   30.9600   47.8290 C   0  0  0  0  0  0  0  0  0  0  0  0
   38.7450   31.8810   47.2580 C   0  0  0  0  0  0  0  0  0  0  0  0
   38.9260   33.0900   47.9050 C   0  0  0  0  0  0  0  0  0  0  0  0
   39.5900   33.8400   47.4860 H   0  0  0  0  0  0  0  0  0  0  0  0
   38.2660   33.3670   49.0980 C   0  0  0  0  0  0  0  0  0  0  0  0
   38.4270   34.3150   49.5730 H   0  0  0  0  0  0  0  0  0  0  0  0
   37.4040   32.4250   49.6650 C   0  0  0  0  0  3  0  0  0  0  0  0
   37.2260   31.2110   49.0100 C   0  0  0  0  0  3  0  0  0  0  0  0
   37.2790   32.0240   44.8880 C   0  0  0  0  0  0  0  0  0  0  0  0
   36.4880   32.2130   43.6990 C   0  0  0  0  0  0  0  0  0  0  0  0
   36.3270   30.9020   44.4330 C   0  0  0  0  0  0  0  0  0  0  0  0
   36.9780   32.3460   45.9180 H   0  0  0  0  0  0  0  0  0  0  0  0
   36.9840   32.1790   42.6940 H   0  0  0  0  0  0  0  0  0  0  0  0
   35.6100   32.8940   43.6810 H   0  0  0  0  0  0  0  0  0  0  0  0
   36.7810   29.9910   44.0270 H   0  0  0  0  0  0  0  0  0  0  0  0
   35.4140   30.7730   45.0250 H   0  0  0  0  0  0  0  0  0  0  0  0
  1 18  1  0  0  0  0
  1  2  1  0  0  0  0
  2 11  1  0  0  0  0
  3  2  2  0  0  0  0
  3  7  1  0  0  0  0
  4  3  1  0  0  0  0
  5  6  1  0  0  0  0
  5  4  2  0  0  0  0
  6  1  2  0  0  0  0
  8  5  1  0  0  0  0
  9 10  1  0  0  0  0
 10 17  1  0  0  0  0
 11 10  2  0  0  0  0
 11 12  1  0  0  0  0
 12 14  2  0  0  0  0
 13 12  1  0  0  0  0
 14 15  1  0  0  0  0
 14 16  1  0  0  0  0
 17 16  2  0  0  0  0
 18 21  1  0  0  0  0
 19 20  1  0  0  0  0
 19 18  1  0  0  0  0
 20 18  1  0  0  0  0
 20 25  1  0  0  0  0
 22 19  1  0  0  0  0
 23 19  1  0  0  0  0
 24 20  1  0  0  0  0
M  END
>  <minimizedAffinity>
-4.28845978

>  <minimizedRMSD>
4.99980879

$$$$
