
 OpenBabel03272508483D

 40 44  0  0  0  0  0  0  0  0999 V2000
   35.4550   29.4900   49.6210 C   0  0  0  0  0  0  0  0  0  0  0  0
   36.5010   28.9830   50.3690 C   0  0  0  0  0  0  0  0  0  0  0  0
   37.6280   29.5310   49.7590 C   0  0  0  0  0  0  0  0  0  0  0  0
   37.2310   30.3170   48.7070 C   0  0  0  0  0  0  0  0  0  0  0  0
   35.9210   30.2680   48.6540 O   0  0  0  0  0  0  0  0  0  0  0  0
   36.4170   28.3300   51.2090 H   0  0  0  0  0  0  0  0  0  0  0  0
   38.6420   29.3520   50.0810 H   0  0  0  0  0  0  0  0  0  0  0  0
   38.5370   32.3240   48.1850 C   0  0  0  0  0  0  0  0  0  0  0  0
   38.0860   31.0740   47.8010 C   0  0  0  0  0  0  0  0  0  0  0  0
   38.4280   30.5210   46.5750 C   0  0  0  0  0  0  0  0  0  0  0  0
   39.2410   31.2230   45.6940 C   0  0  0  0  0  0  0  0  0  0  0  0
   39.7360   30.9700   44.4690 N   0  0  0  0  0  0  0  0  0  0  0  0
   40.4600   32.0230   44.1200 N   0  0  0  0  0  0  0  0  0  0  0  0
   40.4410   32.9570   45.1020 C   0  0  0  0  0  0  0  0  0  0  0  0
   39.6560   32.4650   46.1390 C   0  0  0  0  0  0  0  0  0  0  0  0
   39.3590   33.0660   47.3270 C   0  0  0  0  0  0  0  0  0  0  0  0
   38.2560   32.7360   49.1500 H   0  0  0  0  0  0  0  0  0  0  0  0
   38.0850   29.5480   46.2600 H   0  0  0  0  0  0  0  0  0  0  0  0
   39.5530   30.0850   43.9330 H   0  0  0  0  0  0  0  0  0  0  0  0
   40.9760   33.9000   45.0060 H   0  0  0  0  0  0  0  0  0  0  0  0
   39.7300   34.0300   47.5760 H   0  0  0  0  0  0  0  0  0  0  0  0
   34.0550   29.2000   49.8720 C   0  0  0  0  0  0  0  0  0  0  0  0
   33.4920   29.7950   50.8200 O   0  0  0  0  0  0  0  0  0  0  0  0
   31.3290   27.2130   48.4790 C   0  0  0  0  0  0  0  0  0  0  0  0
   31.9700   26.4640   47.4940 C   0  0  0  0  0  0  0  0  0  0  0  0
   33.3170   26.6240   47.2950 C   0  0  0  0  0  0  0  0  0  0  0  0
   33.9570   27.5140   48.0790 N   0  0  0  0  0  0  0  0  0  0  0  0
   33.3360   28.2400   49.0320 C   0  0  0  0  0  0  0  0  0  0  0  0
   32.0170   28.0830   49.2270 N   0  0  0  0  0  0  0  0  0  0  0  0
   30.2690   27.1390   48.6890 H   0  0  0  0  0  0  0  0  0  0  0  0
   31.3970   25.7700   46.9020 H   0  0  0  0  0  0  0  0  0  0  0  0
   34.3840   24.1440   47.8400 F   0  0  0  0  0  0  0  0  0  0  0  0
   34.5830   24.6460   46.5860 C   0  0  0  0  0  0  0  0  0  0  0  0
   34.0610   25.8810   46.2890 C   0  0  0  0  0  0  0  0  0  0  0  0
   34.2980   26.3220   45.0130 C   0  0  0  0  0  0  0  0  0  0  0  0
   33.9170   27.2850   44.7080 H   0  0  0  0  0  0  0  0  0  0  0  0
   35.0120   25.5650   44.1070 C   0  0  0  0  0  0  0  0  0  0  0  0
   35.1770   25.9540   43.1020 H   0  0  0  0  0  0  0  0  0  0  0  0
   35.5260   24.3260   44.4300 C   0  0  0  0  0  0  0  0  0  0  0  0
   35.2990   23.8650   45.7090 C   0  0  0  0  0  0  0  0  0  0  0  0
  1 22  1  0  0  0  0
  1  2  2  0  0  0  0
  2  6  1  0  0  0  0
  3  7  1  0  0  0  0
  3  2  1  0  0  0  0
  4  3  2  0  0  0  0
  5  4  1  0  0  0  0
  5  1  1  0  0  0  0
  8 17  1  0  0  0  0
  9  8  1  0  0  0  0
  9  4  1  0  0  0  0
 10  9  2  0  0  0  0
 11 15  2  0  0  0  0
 11 10  1  0  0  0  0
 12 11  1  0  0  0  0
 13 12  1  0  0  0  0
 13 14  2  0  0  0  0
 14 15  1  0  0  0  0
 15 16  1  0  0  0  0
 16 21  1  0  0  0  0
 16  8  2  0  0  0  0
 18 10  1  0  0  0  0
 19 12  1  0  0  0  0
 20 14  1  0  0  0  0
 22 23  2  0  0  0  0
 24 30  1  0  0  0  0
 24 29  1  0  0  0  0
 25 24  2  0  0  0  0
 26 25  1  0  0  0  0
 26 27  2  0  0  0  0
 27 28  1  0  0  0  0
 28 29  2  0  0  0  0
 28 22  1  0  0  0  0
 31 25  1  0  0  0  0
 33 32  1  0  0  0  0
 34 33  1  0  0  0  0
 34 26  1  0  0  0  0
 35 34  2  0  0  0  0
 36 35  1  0  0  0  0
 37 39  2  0  0  0  0
 37 35  1  0  0  0  0
 38 37  1  0  0  0  0
 39 40  1  0  0  0  0
 40 33  2  0  0  0  0
M  END
>  <minimizedAffinity>
-6.84117889

>  <minimizedRMSD>
0.738044858

$$$$
