
 OpenBabel03272503193D

 35 38  0  0  0  0  0  0  0  0999 V2000
   36.9040   30.8190   47.6480 C   0  0  0  0  0  0  0  0  0  0  0  0
   37.8940   31.7010   47.7890 C   0  0  0  0  0  0  0  0  0  0  0  0
   38.4080   32.3250   46.7130 C   0  0  0  0  0  0  0  0  0  0  0  0
   37.8620   32.0070   45.4850 C   0  0  0  0  0  0  0  0  0  0  0  0
   36.5770   30.7720   45.9160 S   0  0  0  0  0  0  0  0  0  0  0  0
   38.2640   31.8900   48.8000 H   0  0  0  0  0  0  0  0  0  0  0  0
   39.2060   33.0550   46.6920 H   0  0  0  0  0  0  0  0  0  0  0  0
   40.7820   32.5640   44.8360 Cl  0  0  0  0  0  0  0  0  0  0  0  0
   39.4160   32.7160   43.7730 C   0  0  0  0  0  0  0  0  0  0  0  0
   38.1320   32.4480   44.1400 C   0  0  0  0  0  0  0  0  0  0  0  0
   37.0320   32.5550   43.3420 C   0  0  0  0  0  0  0  0  0  0  0  0
   37.2030   32.9760   42.0200 C   0  0  0  0  0  0  0  0  0  0  0  0
   38.4640   33.2620   41.5800 C   0  0  0  0  0  0  0  0  0  0  0  0
   38.7860   33.7960   39.9420 Cl  0  0  0  0  0  0  0  0  0  0  0  0
   39.5450   33.1320   42.4440 C   0  0  0  0  0  0  0  0  0  0  0  0
   36.0160   32.3390   43.6510 H   0  0  0  0  0  0  0  0  0  0  0  0
   36.3600   33.0770   41.3470 H   0  0  0  0  0  0  0  0  0  0  0  0
   40.5550   33.3650   42.0800 H   0  0  0  0  0  0  0  0  0  0  0  0
   35.7040   29.2740   50.8620 C   0  0  0  0  0  0  0  0  0  0  0  0
   36.4620   30.0930   49.9950 C   0  0  0  0  0  0  0  0  0  0  0  0
   36.1680   30.0050   48.6190 C   0  0  0  0  0  0  0  0  0  0  0  0
   35.2100   29.1730   48.2020 N   0  0  0  0  0  0  0  0  0  0  0  0
   34.5130   28.4110   49.0630 C   0  0  0  0  0  0  0  0  0  0  0  0
   34.7600   28.4630   50.3840 N   0  0  0  0  0  0  0  0  0  0  0  0
   35.9400   29.3510   51.9190 H   0  0  0  0  0  0  0  0  0  0  0  0
   37.2320   30.7620   50.3330 H   0  0  0  0  0  0  0  0  0  0  0  0
   31.8250   28.6110   49.8470 F   0  0  0  0  0  0  0  0  0  0  0  0
   32.1700   27.6550   48.9440 C   0  0  0  0  0  0  0  0  0  0  0  0
   33.4830   27.5280   48.5350 C   0  0  0  0  0  0  0  0  0  0  0  0
   33.8370   26.5610   47.6220 C   0  0  0  0  0  0  0  0  0  0  0  0
   34.8630   26.4440   47.2880 H   0  0  0  0  0  0  0  0  0  0  0  0
   32.8360   25.7420   47.1440 C   0  0  0  0  0  0  0  0  0  0  0  0
   33.1520   24.9850   46.4200 H   0  0  0  0  0  0  0  0  0  0  0  0
   31.5160   25.8450   47.5330 C   0  0  0  0  0  0  0  0  0  0  0  0
   31.1860   26.8220   48.4500 C   0  0  0  0  0  0  0  0  0  0  0  0
  1  2  2  0  0  0  0
  1 21  1  0  0  0  0
  2  6  1  0  0  0  0
  3  2  1  0  0  0  0
  4  5  1  0  0  0  0
  4  3  2  0  0  0  0
  5  1  1  0  0  0  0
  7  3  1  0  0  0  0
  9 10  1  0  0  0  0
  9  8  1  0  0  0  0
 10  4  1  0  0  0  0
 11 16  1  0  0  0  0
 11 10  2  0  0  0  0
 12 11  1  0  0  0  0
 13 12  2  0  0  0  0
 13 15  1  0  0  0  0
 14 13  1  0  0  0  0
 15  9  2  0  0  0  0
 17 12  1  0  0  0  0
 18 15  1  0  0  0  0
 19 25  1  0  0  0  0
 20 26  1  0  0  0  0
 20 19  2  0  0  0  0
 21 20  1  0  0  0  0
 22 21  2  0  0  0  0
 22 23  1  0  0  0  0
 23 24  2  0  0  0  0
 24 19  1  0  0  0  0
 28 27  1  0  0  0  0
 29 28  1  0  0  0  0
 29 23  1  0  0  0  0
 30 29  2  0  0  0  0
 31 30  1  0  0  0  0
 32 34  2  0  0  0  0
 32 30  1  0  0  0  0
 33 32  1  0  0  0  0
 34 35  1  0  0  0  0
 35 28  2  0  0  0  0
M  END
>  <minimizedAffinity>
-6.30426836

>  <minimizedRMSD>
1.70036495

$$$$
