
 OpenBabel03272501373D

 36 39  0  0  1  0  0  0  0  0999 V2000
   37.0810   26.9350   33.4160 C   0  0  2  0  0  3  0  0  0  0  0  0
   37.3720   26.1790   32.4100 O   0  0  0  0  0  1  0  0  0  0  0  0
   36.0680   30.1650   31.8580 C   0  0  0  0  0  0  0  0  0  0  0  0
   36.5820   28.9060   32.0610 C   0  0  0  0  0  0  0  0  0  0  0  0
   36.4870   28.2330   33.2970 C   0  0  0  0  0  0  0  0  0  0  0  0
   35.8740   28.8770   34.2560 N   0  0  0  0  0  0  0  0  0  0  0  0
   35.3640   30.1360   34.0430 C   0  0  0  0  0  0  0  0  0  0  0  0
   35.4510   30.7720   32.8830 N   0  0  0  0  0  0  0  0  0  0  0  0
   36.1390   30.6770   30.9220 H   0  0  0  0  0  0  0  0  0  0  0  0
   37.0760   28.4320   31.2220 H   0  0  0  0  0  0  0  0  0  0  0  0
   36.6940   31.8680   35.8630 F   0  0  0  0  0  0  0  0  0  0  0  0
   35.3620   31.6160   36.0420 C   0  0  0  0  0  0  0  0  0  0  0  0
   34.6960   30.7780   35.1710 C   0  0  0  0  0  0  0  0  0  0  0  0
   33.3490   30.5630   35.4050 C   0  0  0  0  0  0  0  0  0  0  0  0
   32.8040   29.9100   34.7370 H   0  0  0  0  0  0  0  0  0  0  0  0
   32.6570   31.1450   36.4610 C   0  0  0  0  0  0  0  0  0  0  0  0
   31.5940   30.9130   36.5630 H   0  0  0  0  0  0  0  0  0  0  0  0
   33.3250   31.9830   37.3300 C   0  0  0  0  0  3  0  0  0  0  0  0
   34.6660   32.1890   37.0860 C   0  0  0  0  0  3  0  0  0  0  0  0
   37.3880   26.4330   34.8060 C   0  0  2  0  0  0  0  0  0  0  0  0
   38.8500   26.9520   35.1790 C   0  0  0  0  0  0  0  0  0  0  0  0
   38.4480   25.5070   35.0300 C   0  0  1  0  0  0  0  0  0  0  0  0
   36.6840   26.8070   35.5810 H   0  0  0  0  0  0  0  0  0  0  0  0
   38.9500   27.3510   36.2090 H   0  0  0  0  0  0  0  0  0  0  0  0
   39.4250   27.4460   34.4100 H   0  0  0  0  0  0  0  0  0  0  0  0
   38.9670   25.0350   34.1340 H   0  0  0  0  0  0  0  0  0  0  0  0
   38.6320   24.6810   36.2260 C   0  0  0  0  0  0  0  0  0  0  0  0
   37.8520   24.9790   37.3380 C   0  0  0  0  0  0  0  0  0  0  0  0
   38.0290   24.2050   38.4560 C   0  0  0  0  0  0  0  0  0  0  0  0
   38.9440   23.1640   38.4980 C   0  0  0  0  0  0  0  0  0  0  0  0
   39.6930   22.9040   37.3780 C   0  0  0  0  0  0  0  0  0  0  0  0
   39.5240   23.6580   36.2800 N   0  0  0  0  0  0  0  0  0  0  0  0
   37.1370   25.7970   37.3010 H   0  0  0  0  0  0  0  0  0  0  0  0
   37.4260   24.4320   39.3260 H   0  0  0  0  0  0  0  0  0  0  0  0
   39.0030   22.6160   39.4320 H   0  0  0  0  0  0  0  0  0  0  0  0
   40.4050   22.0900   37.4150 H   0  0  0  0  0  0  0  0  0  0  0  0
  1  2  1  6  0  0  0
  1 20  1  0  0  0  0
  3  4  2  0  0  0  0
  3  8  1  0  0  0  0
  4  5  1  0  0  0  0
  5  1  1  0  0  0  0
  5  6  2  0  0  0  0
  7  6  1  0  0  0  0
  7 13  1  0  0  0  0
  8  7  2  0  0  0  0
  9  3  1  0  0  0  0
 10  4  1  0  0  0  0
 11 12  1  0  0  0  0
 12 19  1  0  0  0  0
 13 14  1  0  0  0  0
 13 12  2  0  0  0  0
 14 16  2  0  0  0  0
 15 14  1  0  0  0  0
 16 17  1  0  0  0  0
 16 18  1  0  0  0  0
 19 18  2  0  0  0  0
 20 22  1  0  0  0  0
 20 21  1  0  0  0  0
 20 23  1  1  0  0  0
 21 24  1  0  0  0  0
 22 26  1  6  0  0  0
 22 21  1  0  0  0  0
 22 27  1  0  0  0  0
 25 21  1  0  0  0  0
 27 32  2  0  0  0  0
 27 28  1  0  0  0  0
 28 29  2  0  0  0  0
 29 30  1  0  0  0  0
 29 34  1  0  0  0  0
 30 35  1  0  0  0  0
 31 36  1  0  0  0  0
 31 30  2  0  0  0  0
 32 31  1  0  0  0  0
 33 28  1  0  0  0  0
M  END
>  <minimizedAffinity>
-6.80647659

$$$$

 OpenBabel03272501373D

 36 39  0  0  1  0  0  0  0  0999 V2000
   37.0900   26.7690   33.3850 C   0  0  2  0  0  3  0  0  0  0  0  0
   37.2850   25.9660   32.3930 O   0  0  0  0  0  1  0  0  0  0  0  0
   36.2180   30.0330   31.8130 C   0  0  0  0  0  0  0  0  0  0  0  0
   36.6890   28.7590   32.0250 C   0  0  0  0  0  0  0  0  0  0  0  0
   36.5380   28.0840   33.2540 C   0  0  0  0  0  0  0  0  0  0  0  0
   35.9170   28.7430   34.1980 N   0  0  0  0  0  0  0  0  0  0  0  0
   35.4490   30.0170   33.9760 C   0  0  0  0  0  0  0  0  0  0  0  0
   35.5890   30.6540   32.8220 N   0  0  0  0  0  0  0  0  0  0  0  0
   36.3310   30.5460   30.8820 H   0  0  0  0  0  0  0  0  0  0  0  0
   37.1940   28.2740   31.1990 H   0  0  0  0  0  0  0  0  0  0  0  0
   32.7030   29.6010   34.5860 F   0  0  0  0  0  0  0  0  0  0  0  0
   33.4330   30.4560   35.3640 C   0  0  0  0  0  0  0  0  0  0  0  0
   34.7670   30.6740   35.0870 C   0  0  0  0  0  0  0  0  0  0  0  0
   35.4510   31.5490   35.9120 C   0  0  0  0  0  0  0  0  0  0  0  0
   36.4970   31.7370   35.7150 H   0  0  0  0  0  0  0  0  0  0  0  0
   34.8580   32.2050   36.9850 C   0  0  0  0  0  0  0  0  0  0  0  0
   35.4810   32.8780   37.5780 H   0  0  0  0  0  0  0  0  0  0  0  0
   33.5240   31.9860   37.2600 C   0  0  0  0  0  3  0  0  0  0  0  0
   32.8540   31.1110   36.4320 C   0  0  0  0  0  3  0  0  0  0  0  0
   37.4740   26.3080   34.7700 C   0  0  2  0  0  0  0  0  0  0  0  0
   38.9880   26.7510   35.0090 C   0  0  0  0  0  0  0  0  0  0  0  0
   38.4920   25.3290   34.9580 C   0  0  1  0  0  0  0  0  0  0  0  0
   36.8550   26.7570   35.5780 H   0  0  0  0  0  0  0  0  0  0  0  0
   39.1910   27.1850   36.0100 H   0  0  0  0  0  0  0  0  0  0  0  0
   39.5310   27.1760   34.1780 H   0  0  0  0  0  0  0  0  0  0  0  0
   38.9120   24.7880   34.0490 H   0  0  0  0  0  0  0  0  0  0  0  0
   38.7200   24.5430   36.1730 C   0  0  0  0  0  0  0  0  0  0  0  0
   37.9000   24.8030   37.2670 C   0  0  0  0  0  0  0  0  0  0  0  0
   38.1180   24.0680   38.4040 C   0  0  0  0  0  0  0  0  0  0  0  0
   39.1090   23.1010   38.4820 C   0  0  0  0  0  0  0  0  0  0  0  0
   39.8940   22.8770   37.3790 C   0  0  0  0  0  0  0  0  0  0  0  0
   39.6860   23.5930   36.2620 N   0  0  0  0  0  0  0  0  0  0  0  0
   37.1260   25.5630   37.2020 H   0  0  0  0  0  0  0  0  0  0  0  0
   37.4850   24.2650   39.2600 H   0  0  0  0  0  0  0  0  0  0  0  0
   39.1950   22.5780   39.4280 H   0  0  0  0  0  0  0  0  0  0  0  0
   40.6650   22.1200   37.4440 H   0  0  0  0  0  0  0  0  0  0  0  0
  1  2  1  6  0  0  0
  1 20  1  0  0  0  0
  3  4  2  0  0  0  0
  3  8  1  0  0  0  0
  4  5  1  0  0  0  0
  5  1  1  0  0  0  0
  5  6  2  0  0  0  0
  7  6  1  0  0  0  0
  7 13  1  0  0  0  0
  8  7  2  0  0  0  0
  9  3  1  0  0  0  0
 10  4  1  0  0  0  0
 11 12  1  0  0  0  0
 12 19  1  0  0  0  0
 13 12  2  0  0  0  0
 13 14  1  0  0  0  0
 14 16  2  0  0  0  0
 15 14  1  0  0  0  0
 16 18  1  0  0  0  0
 16 17  1  0  0  0  0
 19 18  2  0  0  0  0
 20 22  1  0  0  0  0
 20 21  1  0  0  0  0
 20 23  1  1  0  0  0
 21 24  1  0  0  0  0
 22 26  1  6  0  0  0
 22 21  1  0  0  0  0
 22 27  1  0  0  0  0
 25 21  1  0  0  0  0
 27 32  2  0  0  0  0
 27 28  1  0  0  0  0
 28 29  2  0  0  0  0
 29 30  1  0  0  0  0
 29 34  1  0  0  0  0
 30 35  1  0  0  0  0
 31 36  1  0  0  0  0
 31 30  2  0  0  0  0
 32 31  1  0  0  0  0
 33 28  1  0  0  0  0
M  END
>  <minimizedAffinity>
-6.64912748

$$$$

 OpenBabel03272501373D

 36 39  0  0  1  0  0  0  0  0999 V2000
   37.3570   25.3310   31.5770 C   0  0  2  0  0  3  0  0  0  0  0  0
   37.5050   26.2140   30.6470 O   0  0  0  0  0  1  0  0  0  0  0  0
   37.1520   27.1500   34.8230 C   0  0  0  0  0  0  0  0  0  0  0  0
   37.0060   26.7920   33.5040 C   0  0  0  0  0  0  0  0  0  0  0  0
   37.5380   25.5990   32.9720 C   0  0  0  0  0  0  0  0  0  0  0  0
   38.1890   24.8370   33.8130 N   0  0  0  0  0  0  0  0  0  0  0  0
   38.3300   25.2030   35.1300 C   0  0  0  0  0  0  0  0  0  0  0  0
   37.8310   26.3240   35.6330 N   0  0  0  0  0  0  0  0  0  0  0  0
   36.7500   28.0540   35.2270 H   0  0  0  0  0  0  0  0  0  0  0  0
   36.4550   27.4710   32.8650 H   0  0  0  0  0  0  0  0  0  0  0  0
   37.3150   24.2240   37.5990 F   0  0  0  0  0  0  0  0  0  0  0  0
   38.5580   23.8260   37.1890 C   0  0  0  0  0  0  0  0  0  0  0  0
   39.0710   24.2890   35.9950 C   0  0  0  0  0  0  0  0  0  0  0  0
   40.3330   23.8500   35.6350 C   0  0  0  0  0  0  0  0  0  0  0  0
   40.7570   24.1990   34.7040 H   0  0  0  0  0  0  0  0  0  0  0  0
   41.0880   22.9810   36.4150 C   0  0  0  0  0  0  0  0  0  0  0  0
   42.0750   22.6920   36.0450 H   0  0  0  0  0  0  0  0  0  0  0  0
   40.5730   22.5200   37.6080 C   0  0  0  0  0  3  0  0  0  0  0  0
   39.3150   22.9630   37.9550 C   0  0  0  0  0  3  0  0  0  0  0  0
   36.9780   23.9250   31.1800 C   0  0  2  0  0  0  0  0  0  0  0  0
   35.3920   23.8980   31.0070 C   0  0  0  0  0  0  0  0  0  0  0  0
   36.1720   23.1170   32.0340 C   0  0  1  0  0  0  0  0  0  0  0  0
   37.4320   23.5930   30.2210 H   0  0  0  0  0  0  0  0  0  0  0  0
   35.0340   23.3480   30.1130 H   0  0  0  0  0  0  0  0  0  0  0  0
   34.8350   24.7780   31.2910 H   0  0  0  0  0  0  0  0  0  0  0  0
   35.9380   23.4880   33.0840 H   0  0  0  0  0  0  0  0  0  0  0  0
   36.0240   21.6620   31.9580 C   0  0  0  0  0  0  0  0  0  0  0  0
   35.5680   21.0030   33.0950 C   0  0  0  0  0  0  0  0  0  0  0  0
   35.4330   19.6400   33.0200 C   0  0  0  0  0  0  0  0  0  0  0  0
   35.7340   18.9290   31.8690 C   0  0  0  0  0  0  0  0  0  0  0  0
   36.1810   19.6190   30.7700 C   0  0  0  0  0  0  0  0  0  0  0  0
   36.3160   20.9530   30.8370 N   0  0  0  0  0  0  0  0  0  0  0  0
   35.3340   21.5650   33.9950 H   0  0  0  0  0  0  0  0  0  0  0  0
   35.0790   19.1210   33.9010 H   0  0  0  0  0  0  0  0  0  0  0  0
   35.5910   17.8540   31.9180 H   0  0  0  0  0  0  0  0  0  0  0  0
   36.4150   19.0590   29.8740 H   0  0  0  0  0  0  0  0  0  0  0  0
  1  2  1  6  0  0  0
  1  5  1  0  0  0  0
  3  9  1  0  0  0  0
  3  8  1  0  0  0  0
  4  3  2  0  0  0  0
  5  4  1  0  0  0  0
  5  6  2  0  0  0  0
  6  7  1  0  0  0  0
  7  8  2  0  0  0  0
  7 13  1  0  0  0  0
 10  4  1  0  0  0  0
 12 11  1  0  0  0  0
 12 19  1  0  0  0  0
 13 12  2  0  0  0  0
 14 13  1  0  0  0  0
 14 16  2  0  0  0  0
 15 14  1  0  0  0  0
 16 18  1  0  0  0  0
 17 16  1  0  0  0  0
 18 19  2  0  0  0  0
 20 23  1  6  0  0  0
 20  1  1  0  0  0  0
 20 22  1  0  0  0  0
 21 20  1  0  0  0  0
 21 25  1  0  0  0  0
 21 22  1  0  0  0  0
 22 26  1  1  0  0  0
 24 21  1  0  0  0  0
 27 22  1  0  0  0  0
 27 28  1  0  0  0  0
 28 33  1  0  0  0  0
 29 28  2  0  0  0  0
 29 34  1  0  0  0  0
 30 35  1  0  0  0  0
 30 29  1  0  0  0  0
 31 32  1  0  0  0  0
 31 30  2  0  0  0  0
 32 27  2  0  0  0  0
 36 31  1  0  0  0  0
M  END
>  <minimizedAffinity>
-6.32798338

$$$$

 OpenBabel03272501373D

 36 39  0  0  1  0  0  0  0  0999 V2000
   38.4400   26.1720   32.7420 C   0  0  2  0  0  3  0  0  0  0  0  0
   39.1860   27.0070   32.1000 O   0  0  0  0  0  1  0  0  0  0  0  0
   35.1870   25.6060   31.0140 C   0  0  0  0  0  0  0  0  0  0  0  0
   36.2930   26.2000   31.5770 C   0  0  0  0  0  0  0  0  0  0  0  0
   37.3450   25.4590   32.1550 C   0  0  0  0  0  0  0  0  0  0  0  0
   37.2140   24.1590   32.1270 N   0  0  0  0  0  0  0  0  0  0  0  0
   36.1050   23.5750   31.5620 C   0  0  0  0  0  0  0  0  0  0  0  0
   35.1140   24.2670   31.0180 N   0  0  0  0  0  0  0  0  0  0  0  0
   34.3890   26.1660   30.5760 H   0  0  0  0  0  0  0  0  0  0  0  0
   36.3340   27.2820   31.5640 H   0  0  0  0  0  0  0  0  0  0  0  0
   37.9900   21.9250   30.2170 F   0  0  0  0  0  0  0  0  0  0  0  0
   36.9730   21.3350   30.9160 C   0  0  0  0  0  0  0  0  0  0  0  0
   36.0460   22.1160   31.5760 C   0  0  0  0  0  0  0  0  0  0  0  0
   35.0420   21.4600   32.2660 C   0  0  0  0  0  0  0  0  0  0  0  0
   34.3030   22.0500   32.7910 H   0  0  0  0  0  0  0  0  0  0  0  0
   34.9320   20.0750   32.3170 C   0  0  0  0  0  0  0  0  0  0  0  0
   34.1030   19.6510   32.8880 H   0  0  0  0  0  0  0  0  0  0  0  0
   35.8600   19.2970   31.6560 C   0  0  0  0  0  3  0  0  0  0  0  0
   36.8560   19.9610   30.9730 C   0  0  0  0  0  3  0  0  0  0  0  0
   38.7250   25.9310   34.2050 C   0  0  2  0  0  0  0  0  0  0  0  0
   40.2120   25.3600   34.3050 C   0  0  0  0  0  0  0  0  0  0  0  0
   38.9620   24.6140   34.6950 C   0  0  1  0  0  0  0  0  0  0  0  0
   38.6690   26.8490   34.8280 H   0  0  0  0  0  0  0  0  0  0  0  0
   40.8210   25.7980   35.1230 H   0  0  0  0  0  0  0  0  0  0  0  0
   40.7290   25.1260   33.3870 H   0  0  0  0  0  0  0  0  0  0  0  0
   38.7890   23.7280   34.0020 H   0  0  0  0  0  0  0  0  0  0  0  0
   38.8980   24.1900   36.0960 C   0  0  0  0  0  0  0  0  0  0  0  0
   39.8290   23.2490   36.5240 C   0  0  0  0  0  0  0  0  0  0  0  0
   39.7650   22.8540   37.8360 C   0  0  0  0  0  0  0  0  0  0  0  0
   38.8190   23.3580   38.7160 C   0  0  0  0  0  0  0  0  0  0  0  0
   37.9200   24.2850   38.2510 C   0  0  0  0  0  0  0  0  0  0  0  0
   37.9780   24.6770   36.9680 N   0  0  0  0  0  0  0  0  0  0  0  0
   40.5670   22.8560   35.8310 H   0  0  0  0  0  0  0  0  0  0  0  0
   40.4850   22.1210   38.1760 H   0  0  0  0  0  0  0  0  0  0  0  0
   38.8580   22.9770   39.7310 H   0  0  0  0  0  0  0  0  0  0  0  0
   37.1840   24.6760   38.9420 H   0  0  0  0  0  0  0  0  0  0  0  0
  1  2  1  1  0  0  0
  1 20  1  0  0  0  0
  3  8  2  0  0  0  0
  3  4  1  0  0  0  0
  4  5  2  0  0  0  0
  5  1  1  0  0  0  0
  6  5  1  0  0  0  0
  7 13  1  0  0  0  0
  7  6  2  0  0  0  0
  8  7  1  0  0  0  0
  9  3  1  0  0  0  0
 10  4  1  0  0  0  0
 11 12  1  0  0  0  0
 12 19  2  0  0  0  0
 12 13  1  0  0  0  0
 13 14  2  0  0  0  0
 14 16  1  0  0  0  0
 14 15  1  0  0  0  0
 16 17  1  0  0  0  0
 18 16  2  0  0  0  0
 19 18  1  0  0  0  0
 20 21  1  0  0  0  0
 20 22  1  0  0  0  0
 20 23  1  1  0  0  0
 21 22  1  0  0  0  0
 21 24  1  0  0  0  0
 22 26  1  6  0  0  0
 22 27  1  0  0  0  0
 25 21  1  0  0  0  0
 27 28  2  0  0  0  0
 27 32  1  0  0  0  0
 28 29  1  0  0  0  0
 29 34  1  0  0  0  0
 29 30  2  0  0  0  0
 30 35  1  0  0  0  0
 31 30  1  0  0  0  0
 31 36  1  0  0  0  0
 32 31  2  0  0  0  0
 33 28  1  0  0  0  0
M  END
>  <minimizedAffinity>
-6.23165846

$$$$

 OpenBabel03272501373D

 36 39  0  0  1  0  0  0  0  0999 V2000
   36.9890   27.3960   33.9260 C   0  0  2  0  0  3  0  0  0  0  0  0
   36.3930   28.5400   33.9210 O   0  0  0  0  0  1  0  0  0  0  0  0
   38.4100   26.7740   30.5370 C   0  0  0  0  0  0  0  0  0  0  0  0
   38.0420   27.3690   31.7210 C   0  0  0  0  0  0  0  0  0  0  0  0
   37.3560   26.6780   32.7420 C   0  0  0  0  0  0  0  0  0  0  0  0
   37.0850   25.4220   32.5020 N   0  0  0  0  0  0  0  0  0  0  0  0
   37.4580   24.8360   31.3150 C   0  0  0  0  0  0  0  0  0  0  0  0
   38.1020   25.4820   30.3530 N   0  0  0  0  0  0  0  0  0  0  0  0
   38.9300   27.2960   29.7630 H   0  0  0  0  0  0  0  0  0  0  0  0
   38.2990   28.4130   31.8520 H   0  0  0  0  0  0  0  0  0  0  0  0
   34.8340   23.8100   31.7030 F   0  0  0  0  0  0  0  0  0  0  0  0
   35.8320   22.9530   31.3290 C   0  0  0  0  0  0  0  0  0  0  0  0
   37.1130   23.4280   31.1360 C   0  0  0  0  0  0  0  0  0  0  0  0
   38.0780   22.5110   30.7580 C   0  0  0  0  0  0  0  0  0  0  0  0
   39.0900   22.8590   30.6000 H   0  0  0  0  0  0  0  0  0  0  0  0
   37.8130   21.1600   30.5710 C   0  0  0  0  0  0  0  0  0  0  0  0
   38.6420   20.5140   30.2720 H   0  0  0  0  0  0  0  0  0  0  0  0
   36.5310   20.6870   30.7650 C   0  0  0  0  0  3  0  0  0  0  0  0
   35.5790   21.6100   31.1400 C   0  0  0  0  0  3  0  0  0  0  0  0
   37.3180   26.7610   35.2550 C   0  0  2  0  0  0  0  0  0  0  0  0
   38.7960   27.2200   35.6420 C   0  0  0  0  0  0  0  0  0  0  0  0
   38.3650   25.8020   35.3680 C   0  0  1  0  0  0  0  0  0  0  0  0
   36.6380   27.0710   36.0790 H   0  0  0  0  0  0  0  0  0  0  0  0
   38.9260   27.5180   36.7020 H   0  0  0  0  0  0  0  0  0  0  0  0
   39.3640   27.7750   34.9100 H   0  0  0  0  0  0  0  0  0  0  0  0
   38.8570   25.4080   34.4200 H   0  0  0  0  0  0  0  0  0  0  0  0
   38.5610   24.8640   36.4760 C   0  0  0  0  0  0  0  0  0  0  0  0
   37.8150   25.0720   37.6320 C   0  0  0  0  0  0  0  0  0  0  0  0
   38.0020   24.1940   38.6680 C   0  0  0  0  0  0  0  0  0  0  0  0
   38.8950   23.1360   38.5890 C   0  0  0  0  0  0  0  0  0  0  0  0
   39.6110   22.9670   37.4300 C   0  0  0  0  0  0  0  0  0  0  0  0
   39.4310   23.8230   36.4120 N   0  0  0  0  0  0  0  0  0  0  0  0
   37.1180   25.9040   37.6890 H   0  0  0  0  0  0  0  0  0  0  0  0
   37.4260   24.3510   39.5700 H   0  0  0  0  0  0  0  0  0  0  0  0
   38.9660   22.5010   39.4660 H   0  0  0  0  0  0  0  0  0  0  0  0
   40.3060   22.1390   37.3730 H   0  0  0  0  0  0  0  0  0  0  0  0
  1  2  1  1  0  0  0
  1 20  1  0  0  0  0
  3  4  1  0  0  0  0
  4 10  1  0  0  0  0
  4  5  2  0  0  0  0
  5  1  1  0  0  0  0
  6  5  1  0  0  0  0
  7  6  2  0  0  0  0
  8  3  2  0  0  0  0
  8  7  1  0  0  0  0
  9  3  1  0  0  0  0
 12 11  1  0  0  0  0
 13  7  1  0  0  0  0
 13 12  2  0  0  0  0
 14 13  1  0  0  0  0
 15 14  1  0  0  0  0
 16 14  2  0  0  0  0
 16 18  1  0  0  0  0
 17 16  1  0  0  0  0
 18 19  2  0  0  0  0
 19 12  1  0  0  0  0
 20 22  1  0  0  0  0
 20 21  1  0  0  0  0
 20 23  1  1  0  0  0
 21 24  1  0  0  0  0
 22 26  1  6  0  0  0
 22 21  1  0  0  0  0
 22 27  1  0  0  0  0
 25 21  1  0  0  0  0
 27 28  1  0  0  0  0
 28 33  1  0  0  0  0
 28 29  2  0  0  0  0
 29 34  1  0  0  0  0
 30 29  1  0  0  0  0
 30 35  1  0  0  0  0
 31 30  2  0  0  0  0
 32 27  2  0  0  0  0
 32 31  1  0  0  0  0
 36 31  1  0  0  0  0
M  END
>  <minimizedAffinity>
-6.20127869

$$$$

 OpenBabel03272501373D

 36 39  0  0  1  0  0  0  0  0999 V2000
   37.1570   25.9970   31.5150 C   0  0  2  0  0  3  0  0  0  0  0  0
   36.6000   27.0180   30.9560 O   0  0  0  0  0  1  0  0  0  0  0  0
   40.2260   27.1020   33.3180 C   0  0  0  0  0  0  0  0  0  0  0  0
   39.2250   26.9660   32.3850 C   0  0  0  0  0  0  0  0  0  0  0  0
   38.1330   26.0890   32.5590 C   0  0  0  0  0  0  0  0  0  0  0  0
   38.1210   25.4020   33.6720 N   0  0  0  0  0  0  0  0  0  0  0  0
   39.1270   25.5460   34.5990 C   0  0  0  0  0  0  0  0  0  0  0  0
   40.1550   26.3680   34.4380 N   0  0  0  0  0  0  0  0  0  0  0  0
   41.0540   27.7650   33.1870 H   0  0  0  0  0  0  0  0  0  0  0  0
   39.3000   27.5650   31.4870 H   0  0  0  0  0  0  0  0  0  0  0  0
   40.7760   23.2870   35.1060 F   0  0  0  0  0  0  0  0  0  0  0  0
   39.8410   23.6470   36.0370 C   0  0  0  0  0  0  0  0  0  0  0  0
   39.0290   24.7390   35.8120 C   0  0  0  0  0  0  0  0  0  0  0  0
   38.1030   25.0530   36.7910 C   0  0  0  0  0  0  0  0  0  0  0  0
   37.4540   25.9050   36.6380 H   0  0  0  0  0  0  0  0  0  0  0  0
   37.9610   24.3240   37.9660 C   0  0  0  0  0  0  0  0  0  0  0  0
   37.2000   24.6500   38.6790 H   0  0  0  0  0  0  0  0  0  0  0  0
   38.7740   23.2320   38.1890 C   0  0  0  0  0  3  0  0  0  0  0  0
   39.6930   22.9310   37.2070 C   0  0  0  0  0  3  0  0  0  0  0  0
   36.7700   24.6170   31.0420 C   0  0  2  0  0  0  0  0  0  0  0  0
   35.1760   24.5510   31.0440 C   0  0  0  0  0  0  0  0  0  0  0  0
   36.0860   23.7140   31.9070 C   0  0  1  0  0  0  0  0  0  0  0  0
   37.1210   24.3830   30.0140 H   0  0  0  0  0  0  0  0  0  0  0  0
   34.7320   24.0660   30.1500 H   0  0  0  0  0  0  0  0  0  0  0  0
   34.6330   25.3850   31.4630 H   0  0  0  0  0  0  0  0  0  0  0  0
   35.9630   23.9870   33.0040 H   0  0  0  0  0  0  0  0  0  0  0  0
   35.9660   22.2660   31.7200 C   0  0  0  0  0  0  0  0  0  0  0  0
   36.9320   21.6370   30.9410 C   0  0  0  0  0  0  0  0  0  0  0  0
   36.8150   20.2820   30.7670 C   0  0  0  0  0  0  0  0  0  0  0  0
   35.7830   19.5490   31.3350 C   0  0  0  0  0  0  0  0  0  0  0  0
   34.8520   20.2100   32.0970 C   0  0  0  0  0  0  0  0  0  0  0  0
   34.9610   21.5360   32.2710 N   0  0  0  0  0  0  0  0  0  0  0  0
   37.7370   22.2160   30.4980 H   0  0  0  0  0  0  0  0  0  0  0  0
   37.5620   19.7860   30.1610 H   0  0  0  0  0  0  0  0  0  0  0  0
   35.7850   18.4830   31.1340 H   0  0  0  0  0  0  0  0  0  0  0  0
   34.0490   19.6330   32.5390 H   0  0  0  0  0  0  0  0  0  0  0  0
  1  2  1  6  0  0  0
  1  5  1  0  0  0  0
  3  8  1  0  0  0  0
  4  5  1  0  0  0  0
  4  3  2  0  0  0  0
  5  6  2  0  0  0  0
  6  7  1  0  0  0  0
  7 13  1  0  0  0  0
  8  7  2  0  0  0  0
  9  3  1  0  0  0  0
 10  4  1  0  0  0  0
 11 12  1  0  0  0  0
 12 19  1  0  0  0  0
 13 12  2  0  0  0  0
 13 14  1  0  0  0  0
 14 16  2  0  0  0  0
 15 14  1  0  0  0  0
 16 18  1  0  0  0  0
 16 17  1  0  0  0  0
 19 18  2  0  0  0  0
 20 23  1  6  0  0  0
 20 21  1  0  0  0  0
 20  1  1  0  0  0  0
 20 22  1  0  0  0  0
 21 25  1  0  0  0  0
 21 22  1  0  0  0  0
 22 26  1  1  0  0  0
 24 21  1  0  0  0  0
 27 22  1  0  0  0  0
 27 32  1  0  0  0  0
 28 27  2  0  0  0  0
 29 28  1  0  0  0  0
 29 30  2  0  0  0  0
 30 31  1  0  0  0  0
 31 32  2  0  0  0  0
 31 36  1  0  0  0  0
 33 28  1  0  0  0  0
 34 29  1  0  0  0  0
 35 30  1  0  0  0  0
M  END
>  <minimizedAffinity>
-6.16562986

$$$$

 OpenBabel03272501373D

 36 39  0  0  1  0  0  0  0  0999 V2000
   36.2110   27.6720   32.0110 C   0  0  2  0  0  3  0  0  0  0  0  0
   35.8890   27.3690   30.7980 O   0  0  0  0  0  1  0  0  0  0  0  0
   39.7730   26.9140   32.8010 C   0  0  0  0  0  0  0  0  0  0  0  0
   38.6320   27.4170   32.2220 C   0  0  0  0  0  0  0  0  0  0  0  0
   37.3380   27.1220   32.7020 C   0  0  0  0  0  0  0  0  0  0  0  0
   37.2790   26.3330   33.7430 N   0  0  0  0  0  0  0  0  0  0  0  0
   38.4260   25.8350   34.3150 C   0  0  0  0  0  0  0  0  0  0  0  0
   39.6430   26.1090   33.8660 N   0  0  0  0  0  0  0  0  0  0  0  0
   40.7530   27.1360   32.4380 H   0  0  0  0  0  0  0  0  0  0  0  0
   38.7560   28.0640   31.3630 H   0  0  0  0  0  0  0  0  0  0  0  0
   38.2690   26.8020   36.9840 F   0  0  0  0  0  0  0  0  0  0  0  0
   38.1880   25.4550   36.7610 C   0  0  0  0  0  0  0  0  0  0  0  0
   38.2620   24.9630   35.4740 C   0  0  0  0  0  0  0  0  0  0  0  0
   38.1720   23.5910   35.3150 C   0  0  0  0  0  0  0  0  0  0  0  0
   38.2280   23.1810   34.3150 H   0  0  0  0  0  0  0  0  0  0  0  0
   38.0160   22.7090   36.3780 C   0  0  0  0  0  0  0  0  0  0  0  0
   37.9550   21.6420   36.1500 H   0  0  0  0  0  0  0  0  0  0  0  0
   37.9420   23.2030   37.6640 C   0  0  0  0  0  3  0  0  0  0  0  0
   38.0310   24.5710   37.8100 C   0  0  0  0  0  3  0  0  0  0  0  0
   35.3470   28.6580   32.7600 C   0  0  2  0  0  0  0  0  0  0  0  0
   35.8170   30.1190   32.3200 C   0  0  0  0  0  0  0  0  0  0  0  0
   35.9170   29.5510   33.7130 C   0  0  1  0  0  0  0  0  0  0  0  0
   34.2630   28.5660   32.5330 H   0  0  0  0  0  0  0  0  0  0  0  0
   34.9890   30.8290   32.1180 H   0  0  0  0  0  0  0  0  0  0  0  0
   36.6930   30.2050   31.6960 H   0  0  0  0  0  0  0  0  0  0  0  0
   37.0060   29.4150   34.0150 H   0  0  0  0  0  0  0  0  0  0  0  0
   35.1870   30.2920   34.7450 C   0  0  0  0  0  0  0  0  0  0  0  0
   35.9230   31.1420   35.5650 C   0  0  0  0  0  0  0  0  0  0  0  0
   35.2360   31.8320   36.5310 C   0  0  0  0  0  0  0  0  0  0  0  0
   33.8660   31.7030   36.7000 C   0  0  0  0  0  0  0  0  0  0  0  0
   33.1800   30.8540   35.8690 C   0  0  0  0  0  0  0  0  0  0  0  0
   33.8460   30.1750   34.9210 N   0  0  0  0  0  0  0  0  0  0  0  0
   36.9960   31.2390   35.4290 H   0  0  0  0  0  0  0  0  0  0  0  0
   35.8020   32.4950   37.1730 H   0  0  0  0  0  0  0  0  0  0  0  0
   33.4230   32.2950   37.4950 H   0  0  0  0  0  0  0  0  0  0  0  0
   32.1110   30.7560   36.0050 H   0  0  0  0  0  0  0  0  0  0  0  0
  1  2  1  1  0  0  0
  1  5  1  0  0  0  0
  1 20  1  0  0  0  0
  3  8  1  0  0  0  0
  4  5  1  0  0  0  0
  4  3  2  0  0  0  0
  5  6  2  0  0  0  0
  6  7  1  0  0  0  0
  7 13  1  0  0  0  0
  8  7  2  0  0  0  0
  9  3  1  0  0  0  0
 10  4  1  0  0  0  0
 12 11  1  0  0  0  0
 12 19  1  0  0  0  0
 13 12  2  0  0  0  0
 14 13  1  0  0  0  0
 14 16  2  0  0  0  0
 15 14  1  0  0  0  0
 16 18  1  0  0  0  0
 17 16  1  0  0  0  0
 18 19  2  0  0  0  0
 20 23  1  1  0  0  0
 20 22  1  0  0  0  0
 21 20  1  0  0  0  0
 21 22  1  0  0  0  0
 22 26  1  1  0  0  0
 22 27  1  0  0  0  0
 24 21  1  0  0  0  0
 25 21  1  0  0  0  0
 27 32  2  0  0  0  0
 27 28  1  0  0  0  0
 28 29  2  0  0  0  0
 29 30  1  0  0  0  0
 29 34  1  0  0  0  0
 30 35  1  0  0  0  0
 31 36  1  0  0  0  0
 31 30  2  0  0  0  0
 32 31  1  0  0  0  0
 33 28  1  0  0  0  0
M  END
>  <minimizedAffinity>
-6.06600475

$$$$

 OpenBabel03272501373D

 36 39  0  0  1  0  0  0  0  0999 V2000
   39.8690   25.2740   34.4520 C   0  0  2  0  0  3  0  0  0  0  0  0
   41.1600   25.3020   34.4870 O   0  0  0  0  0  1  0  0  0  0  0  0
   38.3320   22.6310   36.5840 C   0  0  0  0  0  0  0  0  0  0  0  0
   39.0360   23.7320   36.1550 C   0  0  0  0  0  0  0  0  0  0  0  0
   39.0840   24.1280   34.8020 C   0  0  0  0  0  0  0  0  0  0  0  0
   38.4120   23.3840   33.9620 N   0  0  0  0  0  0  0  0  0  0  0  0
   37.7120   22.2850   34.4010 C   0  0  0  0  0  0  0  0  0  0  0  0
   37.6650   21.9090   35.6720 N   0  0  0  0  0  0  0  0  0  0  0  0
   38.2960   22.3290   37.6090 H   0  0  0  0  0  0  0  0  0  0  0  0
   39.5690   24.3020   36.9060 H   0  0  0  0  0  0  0  0  0  0  0  0
   35.3530   20.8010   34.9620 F   0  0  0  0  0  0  0  0  0  0  0  0
   35.8470   20.8020   33.6870 C   0  0  0  0  0  0  0  0  0  0  0  0
   36.9910   21.5140   33.3920 C   0  0  0  0  0  0  0  0  0  0  0  0
   37.4410   21.4760   32.0830 C   0  0  0  0  0  0  0  0  0  0  0  0
   38.3360   22.0270   31.8270 H   0  0  0  0  0  0  0  0  0  0  0  0
   36.8000   20.7610   31.0780 C   0  0  0  0  0  0  0  0  0  0  0  0
   37.2330   20.7930   30.0760 H   0  0  0  0  0  0  0  0  0  0  0  0
   35.6560   20.0490   31.3760 C   0  0  0  0  0  3  0  0  0  0  0  0
   35.2180   20.0960   32.6820 C   0  0  0  0  0  3  0  0  0  0  0  0
   39.1340   26.5150   34.0100 C   0  0  2  0  0  0  0  0  0  0  0  0
   38.7930   27.3520   35.3250 C   0  0  0  0  0  0  0  0  0  0  0  0
   37.7800   26.7370   34.3930 C   0  0  1  0  0  0  0  0  0  0  0  0
   39.7280   27.1690   33.3340 H   0  0  0  0  0  0  0  0  0  0  0  0
   38.9700   28.4430   35.2380 H   0  0  0  0  0  0  0  0  0  0  0  0
   39.0040   26.9010   36.2830 H   0  0  0  0  0  0  0  0  0  0  0  0
   37.2090   25.9010   34.9130 H   0  0  0  0  0  0  0  0  0  0  0  0
   36.8510   27.6830   33.7690 C   0  0  0  0  0  0  0  0  0  0  0  0
   36.7750   27.6850   32.3790 C   0  0  0  0  0  0  0  0  0  0  0  0
   35.9070   28.5730   31.7990 C   0  0  0  0  0  0  0  0  0  0  0  0
   35.1270   29.4420   32.5470 C   0  0  0  0  0  0  0  0  0  0  0  0
   35.2330   29.4060   33.9140 C   0  0  0  0  0  0  0  0  0  0  0  0
   36.0810   28.5390   34.4890 N   0  0  0  0  0  0  0  0  0  0  0  0
   37.3890   27.0030   31.7980 H   0  0  0  0  0  0  0  0  0  0  0  0
   35.8430   28.5810   30.7180 H   0  0  0  0  0  0  0  0  0  0  0  0
   34.4730   30.1030   31.9860 H   0  0  0  0  0  0  0  0  0  0  0  0
   34.6220   30.0860   34.4940 H   0  0  0  0  0  0  0  0  0  0  0  0
  1  2  1  6  0  0  0
  1  5  1  0  0  0  0
  3  9  1  0  0  0  0
  4  3  1  0  0  0  0
  4 10  1  0  0  0  0
  5  4  2  0  0  0  0
  6  7  2  0  0  0  0
  6  5  1  0  0  0  0
  7  8  1  0  0  0  0
  8  3  2  0  0  0  0
 12 11  1  0  0  0  0
 13 12  1  0  0  0  0
 13  7  1  0  0  0  0
 14 13  2  0  0  0  0
 15 14  1  0  0  0  0
 16 18  2  0  0  0  0
 16 14  1  0  0  0  0
 17 16  1  0  0  0  0
 18 19  1  0  0  0  0
 19 12  2  0  0  0  0
 20 23  1  6  0  0  0
 20 22  1  0  0  0  0
 20  1  1  0  0  0  0
 20 21  1  0  0  0  0
 21 25  1  0  0  0  0
 22 26  1  1  0  0  0
 22 21  1  0  0  0  0
 24 21  1  0  0  0  0
 27 22  1  0  0  0  0
 27 32  1  0  0  0  0
 28 27  2  0  0  0  0
 29 28  1  0  0  0  0
 29 30  2  0  0  0  0
 30 31  1  0  0  0  0
 31 32  2  0  0  0  0
 31 36  1  0  0  0  0
 33 28  1  0  0  0  0
 34 29  1  0  0  0  0
 35 30  1  0  0  0  0
M  END
>  <minimizedAffinity>
-5.91902781

$$$$

 OpenBabel03272501373D

 36 39  0  0  1  0  0  0  0  0999 V2000
   39.1570   24.7970   32.1990 C   0  0  2  0  0  3  0  0  0  0  0  0
   40.0280   24.6210   31.2630 O   0  0  0  0  0  1  0  0  0  0  0  0
   35.6610   25.3180   31.0170 C   0  0  0  0  0  0  0  0  0  0  0  0
   36.8940   24.7670   31.2770 C   0  0  0  0  0  0  0  0  0  0  0  0
   37.8940   25.4450   32.0070 C   0  0  0  0  0  0  0  0  0  0  0  0
   37.5830   26.6420   32.4310 N   0  0  0  0  0  0  0  0  0  0  0  0
   36.3470   27.1830   32.1650 C   0  0  0  0  0  0  0  0  0  0  0  0
   35.4050   26.5510   31.4800 N   0  0  0  0  0  0  0  0  0  0  0  0
   34.9030   24.8060   30.4640 H   0  0  0  0  0  0  0  0  0  0  0  0
   37.0830   23.7720   30.8950 H   0  0  0  0  0  0  0  0  0  0  0  0
   36.1950   29.4870   30.5060 F   0  0  0  0  0  0  0  0  0  0  0  0
   36.0190   29.6290   31.8540 C   0  0  0  0  0  0  0  0  0  0  0  0
   36.0890   28.5260   32.6800 C   0  0  0  0  0  0  0  0  0  0  0  0
   35.9020   28.7350   34.0350 C   0  0  0  0  0  0  0  0  0  0  0  0
   35.9530   27.8850   34.7020 H   0  0  0  0  0  0  0  0  0  0  0  0
   35.6530   29.9870   34.5840 C   0  0  0  0  0  0  0  0  0  0  0  0
   35.5200   30.0510   35.6670 H   0  0  0  0  0  0  0  0  0  0  0  0
   35.5830   31.0890   33.7580 C   0  0  0  0  0  3  0  0  0  0  0  0
   35.7710   30.8680   32.4100 C   0  0  0  0  0  3  0  0  0  0  0  0
   39.4830   24.3030   33.5870 C   0  0  2  0  0  0  0  0  0  0  0  0
   39.0350   22.7720   33.6570 C   0  0  0  0  0  0  0  0  0  0  0  0
   38.4490   23.8930   34.4780 C   0  0  1  0  0  0  0  0  0  0  0  0
   40.5650   24.3540   33.8370 H   0  0  0  0  0  0  0  0  0  0  0  0
   39.7620   22.1000   34.1570 H   0  0  0  0  0  0  0  0  0  0  0  0
   38.4940   22.3630   32.8170 H   0  0  0  0  0  0  0  0  0  0  0  0
   37.3640   24.0790   34.1880 H   0  0  0  0  0  0  0  0  0  0  0  0
   38.5720   23.7350   35.9290 C   0  0  0  0  0  0  0  0  0  0  0  0
   39.6800   23.0420   36.4060 C   0  0  0  0  0  0  0  0  0  0  0  0
   39.7920   22.8940   37.7650 C   0  0  0  0  0  0  0  0  0  0  0  0
   38.8500   23.4050   38.6450 C   0  0  0  0  0  0  0  0  0  0  0  0
   37.7730   24.0830   38.1310 C   0  0  0  0  0  0  0  0  0  0  0  0
   37.6580   24.2310   36.8020 N   0  0  0  0  0  0  0  0  0  0  0  0
   40.4150   22.6420   35.7130 H   0  0  0  0  0  0  0  0  0  0  0  0
   40.6510   22.3550   38.1430 H   0  0  0  0  0  0  0  0  0  0  0  0
   39.0350   23.2320   39.7000 H   0  0  0  0  0  0  0  0  0  0  0  0
   37.0400   24.4810   38.8220 H   0  0  0  0  0  0  0  0  0  0  0  0
  1  2  1  1  0  0  0
  1 20  1  0  0  0  0
  3  4  2  0  0  0  0
  3  8  1  0  0  0  0
  4  5  1  0  0  0  0
  5  1  1  0  0  0  0
  5  6  2  0  0  0  0
  7  6  1  0  0  0  0
  7 13  1  0  0  0  0
  8  7  2  0  0  0  0
  9  3  1  0  0  0  0
 10  4  1  0  0  0  0
 11 12  1  0  0  0  0
 12 19  2  0  0  0  0
 12 13  1  0  0  0  0
 13 14  2  0  0  0  0
 14 16  1  0  0  0  0
 14 15  1  0  0  0  0
 16 17  1  0  0  0  0
 18 16  2  0  0  0  0
 19 18  1  0  0  0  0
 20 21  1  0  0  0  0
 20 23  1  1  0  0  0
 20 22  1  0  0  0  0
 21 24  1  0  0  0  0
 21 22  1  0  0  0  0
 22 26  1  6  0  0  0
 22 27  1  0  0  0  0
 25 21  1  0  0  0  0
 27 28  2  0  0  0  0
 27 32  1  0  0  0  0
 28 29  1  0  0  0  0
 29 34  1  0  0  0  0
 29 30  2  0  0  0  0
 30 35  1  0  0  0  0
 31 30  1  0  0  0  0
 31 36  1  0  0  0  0
 32 31  2  0  0  0  0
 33 28  1  0  0  0  0
M  END
>  <minimizedAffinity>
-5.75116014

$$$$
