
 OpenBabel03272502123D

 26 28  0  0  0  0  0  0  0  0999 V2000
   36.5650   27.9990   33.5850 C   0  0  0  0  0  0  0  0  0  0  0  0
   36.6440   28.5600   32.3180 C   0  0  0  0  0  0  0  0  0  0  0  0
   36.0940   29.8080   31.9920 C   0  0  0  0  0  0  0  0  0  0  0  0
   35.4580   30.4900   32.9720 N   0  0  0  0  0  0  0  0  0  0  0  0
   35.3800   29.9420   34.2110 C   0  0  0  0  0  0  0  0  0  0  0  0
   35.9170   28.7510   34.4810 N   0  0  0  0  0  0  0  0  0  0  0  0
   37.1550   28.0090   31.5360 H   0  0  0  0  0  0  0  0  0  0  0  0
   36.1930   30.1770   30.9980 H   0  0  0  0  0  0  0  0  0  0  0  0
   37.3490   25.6980   32.9600 C   0  0  0  0  0  0  0  0  0  0  0  0
   37.1300   26.7280   33.8960 C   0  0  0  0  0  0  0  0  0  0  0  0
   37.4940   26.4850   35.2290 C   0  0  0  0  0  0  0  0  0  0  0  0
   38.0360   25.2690   35.5350 N   0  0  0  0  0  0  0  0  0  0  0  0
   38.2320   24.3030   34.6060 C   0  0  0  0  0  0  0  0  0  0  0  0
   37.8890   24.5200   33.3260 N   0  0  0  0  0  0  0  0  0  0  0  0
   37.0290   26.0040   31.9690 H   0  0  0  0  0  0  0  0  0  0  0  0
   37.3560   27.2280   36.0030 H   0  0  0  0  0  0  0  0  0  0  0  0
   38.6530   23.3480   34.8230 H   0  0  0  0  0  0  0  0  0  0  0  0
   36.7380   31.7830   35.8850 F   0  0  0  0  0  0  0  0  0  0  0  0
   35.4020   31.5820   36.0400 C   0  0  0  0  0  0  0  0  0  0  0  0
   34.6890   30.6970   35.2520 C   0  0  0  0  0  0  0  0  0  0  0  0
   33.3350   30.5580   35.4810 C   0  0  0  0  0  0  0  0  0  0  0  0
   32.7830   29.8490   34.8460 H   0  0  0  0  0  0  0  0  0  0  0  0
   32.6300   31.2420   36.4480 C   0  0  0  0  0  0  0  0  0  0  0  0
   31.5750   31.1220   36.6130 H   0  0  0  0  0  0  0  0  0  0  0  0
   33.3800   32.1110   37.2080 C   0  0  0  0  0  3  0  0  0  0  0  0
   34.7510   32.3030   37.0320 C   0  0  0  0  0  3  0  0  0  0  0  0
  1 10  1  0  0  0  0
  1  6  1  0  0  0  0
  2  1  2  0  0  0  0
  3  2  1  0  0  0  0
  3  4  2  0  0  0  0
  4  5  1  0  0  0  0
  5  6  2  0  0  0  0
  5 20  1  0  0  0  0
  7  2  1  0  0  0  0
  8  3  1  0  0  0  0
  9 14  2  0  0  0  0
  9 10  1  0  0  0  0
 10 11  2  0  0  0  0
 11 12  1  0  0  0  0
 11 16  1  0  0  0  0
 13 17  1  0  0  0  0
 13 12  2  0  0  0  0
 14 13  1  0  0  0  0
 15  9  1  0  0  0  0
 18 19  1  0  0  0  0
 19 26  1  0  0  0  0
 20 21  1  0  0  0  0
 20 19  2  0  0  0  0
 21 23  2  0  0  0  0
 22 21  1  0  0  0  0
 23 24  1  0  0  0  0
 23 25  1  0  0  0  0
 26 25  2  0  0  0  0
M  END
>  <minimizedAffinity>
-5.3808322

$$$$

 OpenBabel03272502123D

 26 28  0  0  0  0  0  0  0  0999 V2000
   36.7030   27.7550   33.6160 C   0  0  0  0  0  0  0  0  0  0  0  0
   36.8030   28.2550   32.3260 C   0  0  0  0  0  0  0  0  0  0  0  0
   36.2950   29.5040   31.9410 C   0  0  0  0  0  0  0  0  0  0  0  0
   35.6780   30.2490   32.8860 N   0  0  0  0  0  0  0  0  0  0  0  0
   35.5800   29.7610   34.1490 C   0  0  0  0  0  0  0  0  0  0  0  0
   36.0780   28.5670   34.4750 N   0  0  0  0  0  0  0  0  0  0  0  0
   37.2980   27.6530   31.5710 H   0  0  0  0  0  0  0  0  0  0  0  0
   36.4070   29.8240   30.9320 H   0  0  0  0  0  0  0  0  0  0  0  0
   37.5900   26.1160   35.2980 C   0  0  0  0  0  0  0  0  0  0  0  0
   37.2270   26.4820   33.9870 C   0  0  0  0  0  0  0  0  0  0  0  0
   37.3930   25.5250   32.9740 C   0  0  0  0  0  0  0  0  0  0  0  0
   37.8950   24.3030   33.3220 N   0  0  0  0  0  0  0  0  0  0  0  0
   38.2330   23.9880   34.5950 C   0  0  0  0  0  0  0  0  0  0  0  0
   38.0790   24.8930   35.5750 N   0  0  0  0  0  0  0  0  0  0  0  0
   37.4170   26.9360   35.9880 H   0  0  0  0  0  0  0  0  0  0  0  0
   37.1370   25.7340   31.9440 H   0  0  0  0  0  0  0  0  0  0  0  0
   38.6260   23.0420   34.8880 H   0  0  0  0  0  0  0  0  0  0  0  0
   32.7910   29.5810   34.6220 F   0  0  0  0  0  0  0  0  0  0  0  0
   33.5470   30.4540   35.3410 C   0  0  0  0  0  0  0  0  0  0  0  0
   34.9110   30.5840   35.1520 C   0  0  0  0  0  0  0  0  0  0  0  0
   35.5960   31.4950   35.9280 C   0  0  0  0  0  0  0  0  0  0  0  0
   36.6810   31.5860   35.7650 H   0  0  0  0  0  0  0  0  0  0  0  0
   35.0200   32.2980   36.8890 C   0  0  0  0  0  0  0  0  0  0  0  0
   35.5680   33.0030   37.4850 H   0  0  0  0  0  0  0  0  0  0  0  0
   33.6610   32.1350   37.0420 C   0  0  0  0  0  3  0  0  0  0  0  0
   32.9030   31.2330   36.2940 C   0  0  0  0  0  3  0  0  0  0  0  0
  1 10  1  0  0  0  0
  1  6  1  0  0  0  0
  2  1  2  0  0  0  0
  3  2  1  0  0  0  0
  3  4  2  0  0  0  0
  4  5  1  0  0  0  0
  5  6  2  0  0  0  0
  5 20  1  0  0  0  0
  7  2  1  0  0  0  0
  8  3  1  0  0  0  0
  9 14  1  0  0  0  0
  9 15  1  0  0  0  0
 10  9  2  0  0  0  0
 11 12  2  0  0  0  0
 11 10  1  0  0  0  0
 12 13  1  0  0  0  0
 13 17  1  0  0  0  0
 13 14  2  0  0  0  0
 16 11  1  0  0  0  0
 18 19  1  0  0  0  0
 19 26  1  0  0  0  0
 20 19  2  0  0  0  0
 20 21  1  0  0  0  0
 21 23  2  0  0  0  0
 22 21  1  0  0  0  0
 23 25  1  0  0  0  0
 23 24  1  0  0  0  0
 26 25  2  0  0  0  0
M  END
>  <minimizedAffinity>
-5.3044219

$$$$

 OpenBabel03272502123D

 26 28  0  0  0  0  0  0  0  0999 V2000
   36.1280   28.5610   32.5660 C   0  0  0  0  0  0  0  0  0  0  0  0
   36.4890   29.4980   31.6080 C   0  0  0  0  0  0  0  0  0  0  0  0
   36.2500   30.8730   31.7450 C   0  0  0  0  0  0  0  0  0  0  0  0
   35.6350   31.2940   32.8740 N   0  0  0  0  0  0  0  0  0  0  0  0
   35.2810   30.3780   33.8120 C   0  0  0  0  0  0  0  0  0  0  0  0
   35.5270   29.0770   33.6430 N   0  0  0  0  0  0  0  0  0  0  0  0
   36.9820   29.1550   30.7050 H   0  0  0  0  0  0  0  0  0  0  0  0
   36.5550   31.5350   30.9700 H   0  0  0  0  0  0  0  0  0  0  0  0
   37.1570   26.3880   33.2870 C   0  0  0  0  0  0  0  0  0  0  0  0
   36.3800   27.1670   32.4070 C   0  0  0  0  0  0  0  0  0  0  0  0
   35.8160   26.5250   31.2940 C   0  0  0  0  0  0  0  0  0  0  0  0
   36.0540   25.1890   31.1360 N   0  0  0  0  0  0  0  0  0  0  0  0
   36.8060   24.4730   32.0050 C   0  0  0  0  0  0  0  0  0  0  0  0
   37.3530   25.0740   33.0740 N   0  0  0  0  0  0  0  0  0  0  0  0
   37.5370   26.9940   34.1040 H   0  0  0  0  0  0  0  0  0  0  0  0
   35.2090   27.0570   30.5750 H   0  0  0  0  0  0  0  0  0  0  0  0
   37.0050   23.4310   31.9000 H   0  0  0  0  0  0  0  0  0  0  0  0
   36.6450   31.9180   35.7610 F   0  0  0  0  0  0  0  0  0  0  0  0
   35.3330   31.6040   35.9390 C   0  0  0  0  0  0  0  0  0  0  0  0
   34.6190   30.8560   35.0220 C   0  0  0  0  0  0  0  0  0  0  0  0
   33.2920   30.5860   35.2860 C   0  0  0  0  0  0  0  0  0  0  0  0
   32.7380   29.9890   34.5450 H   0  0  0  0  0  0  0  0  0  0  0  0
   32.6140   31.0100   36.4090 C   0  0  0  0  0  0  0  0  0  0  0  0
   31.5800   30.7910   36.5990 H   0  0  0  0  0  0  0  0  0  0  0  0
   33.3640   31.7510   37.2940 C   0  0  0  0  0  3  0  0  0  0  0  0
   34.7100   32.0630   37.0930 C   0  0  0  0  0  3  0  0  0  0  0  0
  1  6  1  0  0  0  0
  2  3  1  0  0  0  0
  2  1  2  0  0  0  0
  3  4  2  0  0  0  0
  4  5  1  0  0  0  0
  5 20  1  0  0  0  0
  6  5  2  0  0  0  0
  7  2  1  0  0  0  0
  8  3  1  0  0  0  0
  9 15  1  0  0  0  0
 10  1  1  0  0  0  0
 10  9  2  0  0  0  0
 11 10  1  0  0  0  0
 12 11  2  0  0  0  0
 12 13  1  0  0  0  0
 13 14  2  0  0  0  0
 14  9  1  0  0  0  0
 16 11  1  0  0  0  0
 17 13  1  0  0  0  0
 18 19  1  0  0  0  0
 19 26  1  0  0  0  0
 20 21  1  0  0  0  0
 20 19  2  0  0  0  0
 21 23  2  0  0  0  0
 22 21  1  0  0  0  0
 23 24  1  0  0  0  0
 23 25  1  0  0  0  0
 26 25  2  0  0  0  0
M  END
>  <minimizedAffinity>
-5.25827217

$$$$

 OpenBabel03272502123D

 26 28  0  0  0  0  0  0  0  0999 V2000
   36.0960   23.4350   31.7260 C   0  0  0  0  0  0  0  0  0  0  0  0
   35.2470   24.3060   31.0590 C   0  0  0  0  0  0  0  0  0  0  0  0
   35.3650   25.7010   31.1240 C   0  0  0  0  0  0  0  0  0  0  0  0
   36.3650   26.2120   31.8800 N   0  0  0  0  0  0  0  0  0  0  0  0
   37.1960   25.3610   32.5330 C   0  0  0  0  0  0  0  0  0  0  0  0
   37.0490   24.0380   32.4450 N   0  0  0  0  0  0  0  0  0  0  0  0
   34.4470   23.8910   30.4540 H   0  0  0  0  0  0  0  0  0  0  0  0
   34.6780   26.3090   30.5850 H   0  0  0  0  0  0  0  0  0  0  0  0
   34.9300   21.2780   32.2620 C   0  0  0  0  0  0  0  0  0  0  0  0
   35.9580   22.0190   31.6470 C   0  0  0  0  0  0  0  0  0  0  0  0
   36.9150   21.3110   30.9020 C   0  0  0  0  0  0  0  0  0  0  0  0
   36.7880   19.9530   30.8220 N   0  0  0  0  0  0  0  0  0  0  0  0
   35.7840   19.2760   31.4290 C   0  0  0  0  0  0  0  0  0  0  0  0
   34.8620   19.9390   32.1440 N   0  0  0  0  0  0  0  0  0  0  0  0
   34.2560   21.9340   32.8060 H   0  0  0  0  0  0  0  0  0  0  0  0
   37.7320   21.8110   30.4020 H   0  0  0  0  0  0  0  0  0  0  0  0
   35.6670   18.2180   31.3790 H   0  0  0  0  0  0  0  0  0  0  0  0
   36.7270   26.3950   35.1310 F   0  0  0  0  0  0  0  0  0  0  0  0
   37.9810   26.4250   34.6040 C   0  0  0  0  0  0  0  0  0  0  0  0
   38.2670   25.9360   33.3430 C   0  0  0  0  0  0  0  0  0  0  0  0
   39.5690   26.0080   32.8910 C   0  0  0  0  0  0  0  0  0  0  0  0
   39.7790   25.6140   31.8850 H   0  0  0  0  0  0  0  0  0  0  0  0
   40.6200   26.5370   33.6080 C   0  0  0  0  0  0  0  0  0  0  0  0
   41.6270   26.5860   33.2410 H   0  0  0  0  0  0  0  0  0  0  0  0
   40.2880   27.0130   34.8570 C   0  0  0  0  0  3  0  0  0  0  0  0
   38.9940   26.9720   35.3800 C   0  0  0  0  0  3  0  0  0  0  0  0
  1  6  1  0  0  0  0
  2  3  1  0  0  0  0
  2  1  2  0  0  0  0
  3  4  2  0  0  0  0
  4  5  1  0  0  0  0
  5 20  1  0  0  0  0
  6  5  2  0  0  0  0
  7  2  1  0  0  0  0
  8  3  1  0  0  0  0
  9 15  1  0  0  0  0
 10  1  1  0  0  0  0
 10  9  2  0  0  0  0
 11 10  1  0  0  0  0
 12 11  2  0  0  0  0
 12 13  1  0  0  0  0
 13 14  2  0  0  0  0
 14  9  1  0  0  0  0
 16 11  1  0  0  0  0
 17 13  1  0  0  0  0
 19 18  1  0  0  0  0
 19 26  1  0  0  0  0
 20 19  2  0  0  0  0
 21 20  1  0  0  0  0
 21 23  2  0  0  0  0
 22 21  1  0  0  0  0
 23 25  1  0  0  0  0
 24 23  1  0  0  0  0
 25 26  2  0  0  0  0
M  END
>  <minimizedAffinity>
-5.23718214

$$$$

 OpenBabel03272502123D

 26 28  0  0  0  0  0  0  0  0999 V2000
   38.4560   24.5770   36.0340 C   0  0  0  0  0  0  0  0  0  0  0  0
   37.8050   24.3780   37.2430 C   0  0  0  0  0  0  0  0  0  0  0  0
   38.3220   23.5830   38.2750 C   0  0  0  0  0  0  0  0  0  0  0  0
   39.5180   22.9850   38.0690 N   0  0  0  0  0  0  0  0  0  0  0  0
   40.1560   23.1780   36.8870 C   0  0  0  0  0  0  0  0  0  0  0  0
   39.6290   23.9440   35.9290 N   0  0  0  0  0  0  0  0  0  0  0  0
   36.8470   24.8600   37.4030 H   0  0  0  0  0  0  0  0  0  0  0  0
   37.7680   23.4750   39.1780 H   0  0  0  0  0  0  0  0  0  0  0  0
   37.7920   24.9950   33.6490 C   0  0  0  0  0  0  0  0  0  0  0  0
   37.9130   25.3900   34.9960 C   0  0  0  0  0  0  0  0  0  0  0  0
   37.4680   26.6750   35.3410 C   0  0  0  0  0  0  0  0  0  0  0  0
   36.9460   27.4590   34.3510 N   0  0  0  0  0  0  0  0  0  0  0  0
   36.8460   27.0440   33.0660 C   0  0  0  0  0  0  0  0  0  0  0  0
   37.2680   25.8160   32.7210 N   0  0  0  0  0  0  0  0  0  0  0  0
   38.1690   23.9860   33.5090 H   0  0  0  0  0  0  0  0  0  0  0  0
   37.5290   27.0480   36.3540 H   0  0  0  0  0  0  0  0  0  0  0  0
   36.4430   27.6390   32.2790 H   0  0  0  0  0  0  0  0  0  0  0  0
   42.3870   24.5520   35.8060 F   0  0  0  0  0  0  0  0  0  0  0  0
   42.5000   23.2420   36.1560 C   0  0  0  0  0  0  0  0  0  0  0  0
   41.4450   22.5230   36.6870 C   0  0  0  0  0  0  0  0  0  0  0  0
   41.6520   21.1990   37.0130 C   0  0  0  0  0  0  0  0  0  0  0  0
   40.8020   20.6410   37.4350 H   0  0  0  0  0  0  0  0  0  0  0  0
   42.8440   20.5270   36.8480 C   0  0  0  0  0  0  0  0  0  0  0  0
   42.9890   19.4950   37.1070 H   0  0  0  0  0  0  0  0  0  0  0  0
   43.8660   21.2820   36.3160 C   0  0  0  0  0  3  0  0  0  0  0  0
   43.7290   22.6260   35.9640 C   0  0  0  0  0  3  0  0  0  0  0  0
  1  2  1  0  0  0  0
  2  7  1  0  0  0  0
  2  3  2  0  0  0  0
  3  8  1  0  0  0  0
  4  3  1  0  0  0  0
  5  4  2  0  0  0  0
  6  1  2  0  0  0  0
  6  5  1  0  0  0  0
  9 10  1  0  0  0  0
 10 11  2  0  0  0  0
 10  1  1  0  0  0  0
 11 16  1  0  0  0  0
 12 11  1  0  0  0  0
 13 12  2  0  0  0  0
 14 13  1  0  0  0  0
 14  9  2  0  0  0  0
 15  9  1  0  0  0  0
 17 13  1  0  0  0  0
 18 19  1  0  0  0  0
 19 20  1  0  0  0  0
 20  5  1  0  0  0  0
 20 21  2  0  0  0  0
 21 22  1  0  0  0  0
 23 21  1  0  0  0  0
 23 24  1  0  0  0  0
 25 23  2  0  0  0  0
 26 19  2  0  0  0  0
 26 25  1  0  0  0  0
M  END
>  <minimizedAffinity>
-5.1767807

$$$$

 OpenBabel03272502123D

 26 28  0  0  0  0  0  0  0  0999 V2000
   36.0200   27.9760   31.9890 C   0  0  0  0  0  0  0  0  0  0  0  0
   36.3380   28.8200   30.9340 C   0  0  0  0  0  0  0  0  0  0  0  0
   36.2180   30.2150   30.9990 C   0  0  0  0  0  0  0  0  0  0  0  0
   35.7690   30.7540   32.1560 N   0  0  0  0  0  0  0  0  0  0  0  0
   35.4580   29.9300   33.1890 C   0  0  0  0  0  0  0  0  0  0  0  0
   35.5860   28.6060   33.0860 N   0  0  0  0  0  0  0  0  0  0  0  0
   36.6970   28.3830   30.0090 H   0  0  0  0  0  0  0  0  0  0  0  0
   36.4800   30.8010   30.1500 H   0  0  0  0  0  0  0  0  0  0  0  0
   35.3860   25.7360   31.0510 C   0  0  0  0  0  0  0  0  0  0  0  0
   36.1490   26.5590   31.9020 C   0  0  0  0  0  0  0  0  0  0  0  0
   37.1030   25.9400   32.7240 C   0  0  0  0  0  0  0  0  0  0  0  0
   37.2310   24.5820   32.6460 N   0  0  0  0  0  0  0  0  0  0  0  0
   36.4790   23.8240   31.8130 C   0  0  0  0  0  0  0  0  0  0  0  0
   35.5620   24.4020   31.0210 N   0  0  0  0  0  0  0  0  0  0  0  0
   34.6860   26.3280   30.4690 H   0  0  0  0  0  0  0  0  0  0  0  0
   37.7250   26.5060   33.4030 H   0  0  0  0  0  0  0  0  0  0  0  0
   36.5630   22.7640   31.7370 H   0  0  0  0  0  0  0  0  0  0  0  0
   32.7460   29.7470   33.9930 F   0  0  0  0  0  0  0  0  0  0  0  0
   33.6410   30.4130   34.7700 C   0  0  0  0  0  0  0  0  0  0  0  0
   34.9750   30.5340   34.4280 C   0  0  0  0  0  0  0  0  0  0  0  0
   35.8110   31.2280   35.2780 C   0  0  0  0  0  0  0  0  0  0  0  0
   36.8700   31.3150   34.9900 H   0  0  0  0  0  0  0  0  0  0  0  0
   35.4140   31.8180   36.4580 C   0  0  0  0  0  0  0  0  0  0  0  0
   36.0780   32.3560   37.1090 H   0  0  0  0  0  0  0  0  0  0  0  0
   34.0780   31.6730   36.7590 C   0  0  0  0  0  3  0  0  0  0  0  0
   33.1750   30.9850   35.9470 C   0  0  0  0  0  3  0  0  0  0  0  0
  1  6  1  0  0  0  0
  2  3  1  0  0  0  0
  2  1  2  0  0  0  0
  3  4  2  0  0  0  0
  4  5  1  0  0  0  0
  5 20  1  0  0  0  0
  6  5  2  0  0  0  0
  7  2  1  0  0  0  0
  8  3  1  0  0  0  0
  9 10  1  0  0  0  0
 10  1  1  0  0  0  0
 10 11  2  0  0  0  0
 11 16  1  0  0  0  0
 12 11  1  0  0  0  0
 13 12  2  0  0  0  0
 14  9  2  0  0  0  0
 14 13  1  0  0  0  0
 15  9  1  0  0  0  0
 17 13  1  0  0  0  0
 18 19  1  0  0  0  0
 19 26  1  0  0  0  0
 20 19  2  0  0  0  0
 20 21  1  0  0  0  0
 21 23  2  0  0  0  0
 22 21  1  0  0  0  0
 23 25  1  0  0  0  0
 23 24  1  0  0  0  0
 26 25  2  0  0  0  0
M  END
>  <minimizedAffinity>
-5.10827255

$$$$

 OpenBabel03272502123D

 26 28  0  0  0  0  0  0  0  0999 V2000
   38.4490   25.6220   33.2750 C   0  0  0  0  0  0  0  0  0  0  0  0
   39.1430   26.8230   33.2960 C   0  0  0  0  0  0  0  0  0  0  0  0
   40.2880   27.0390   34.0750 C   0  0  0  0  0  0  0  0  0  0  0  0
   40.7300   26.0140   34.8390 N   0  0  0  0  0  0  0  0  0  0  0  0
   40.0530   24.8380   34.8190 C   0  0  0  0  0  0  0  0  0  0  0  0
   38.9650   24.6740   34.0640 N   0  0  0  0  0  0  0  0  0  0  0  0
   38.7840   27.6420   32.6810 H   0  0  0  0  0  0  0  0  0  0  0  0
   40.7700   27.9870   34.0420 H   0  0  0  0  0  0  0  0  0  0  0  0
   36.7800   24.1640   32.0950 C   0  0  0  0  0  0  0  0  0  0  0  0
   37.2850   25.4230   32.4760 C   0  0  0  0  0  0  0  0  0  0  0  0
   36.5930   26.5630   32.0380 C   0  0  0  0  0  0  0  0  0  0  0  0
   35.4770   26.3790   31.2720 N   0  0  0  0  0  0  0  0  0  0  0  0
   35.0220   25.1520   30.9260 C   0  0  0  0  0  0  0  0  0  0  0  0
   35.6740   24.0520   31.3370 N   0  0  0  0  0  0  0  0  0  0  0  0
   37.3990   23.3650   32.4920 H   0  0  0  0  0  0  0  0  0  0  0  0
   36.9200   27.5610   32.2910 H   0  0  0  0  0  0  0  0  0  0  0  0
   34.1540   24.9860   30.3290 H   0  0  0  0  0  0  0  0  0  0  0  0
   38.6420   23.9340   37.1060 F   0  0  0  0  0  0  0  0  0  0  0  0
   39.8180   23.3460   36.7570 C   0  0  0  0  0  0  0  0  0  0  0  0
   40.5480   23.7460   35.6530 C   0  0  0  0  0  0  0  0  0  0  0  0
   41.7310   23.0920   35.3750 C   0  0  0  0  0  0  0  0  0  0  0  0
   42.2990   23.4230   34.4930 H   0  0  0  0  0  0  0  0  0  0  0  0
   42.2480   22.0560   36.1230 C   0  0  0  0  0  0  0  0  0  0  0  0
   43.1700   21.5570   35.8940 H   0  0  0  0  0  0  0  0  0  0  0  0
   41.4880   21.6920   37.2130 C   0  0  0  0  0  3  0  0  0  0  0  0
   40.2830   22.3080   37.5540 C   0  0  0  0  0  3  0  0  0  0  0  0
  1  2  2  0  0  0  0
  1  6  1  0  0  0  0
  2  3  1  0  0  0  0
  3  4  2  0  0  0  0
  5  4  1  0  0  0  0
  5 20  1  0  0  0  0
  6  5  2  0  0  0  0
  7  2  1  0  0  0  0
  8  3  1  0  0  0  0
  9 10  1  0  0  0  0
  9 15  1  0  0  0  0
 10  1  1  0  0  0  0
 11 16  1  0  0  0  0
 11 10  2  0  0  0  0
 12 11  1  0  0  0  0
 13 12  2  0  0  0  0
 13 14  1  0  0  0  0
 14  9  2  0  0  0  0
 17 13  1  0  0  0  0
 19 18  1  0  0  0  0
 19 26  1  0  0  0  0
 20 19  2  0  0  0  0
 21 20  1  0  0  0  0
 21 23  2  0  0  0  0
 22 21  1  0  0  0  0
 23 25  1  0  0  0  0
 24 23  1  0  0  0  0
 25 26  2  0  0  0  0
M  END
>  <minimizedAffinity>
-5.06235027

$$$$

 OpenBabel03272502123D

 26 28  0  0  0  0  0  0  0  0999 V2000
   35.6060   29.8080   34.1500 C   0  0  0  0  0  0  0  0  0  0  0  0
   35.6730   30.1930   32.8190 C   0  0  0  0  0  0  0  0  0  0  0  0
   36.3480   29.4560   31.8350 C   0  0  0  0  0  0  0  0  0  0  0  0
   36.9590   28.3110   32.2170 N   0  0  0  0  0  0  0  0  0  0  0  0
   36.8950   27.9330   33.5190 C   0  0  0  0  0  0  0  0  0  0  0  0
   36.2420   28.6640   34.4250 N   0  0  0  0  0  0  0  0  0  0  0  0
   35.1810   31.1120   32.5180 H   0  0  0  0  0  0  0  0  0  0  0  0
   36.3580   29.8120   30.8330 H   0  0  0  0  0  0  0  0  0  0  0  0
   33.5220   30.5400   35.3430 C   0  0  0  0  0  0  0  0  0  0  0  0
   34.9150   30.5720   35.1350 C   0  0  0  0  0  0  0  0  0  0  0  0
   35.6770   31.4180   35.9560 C   0  0  0  0  0  0  0  0  0  0  0  0
   35.0210   32.1540   36.9020 N   0  0  0  0  0  0  0  0  0  0  0  0
   33.6780   32.0950   37.0720 C   0  0  0  0  0  0  0  0  0  0  0  0
   32.9370   31.2900   36.2940 N   0  0  0  0  0  0  0  0  0  0  0  0
   33.0460   29.8520   34.6500 H   0  0  0  0  0  0  0  0  0  0  0  0
   36.7500   31.4960   35.8560 H   0  0  0  0  0  0  0  0  0  0  0  0
   33.1470   32.6600   37.8030 H   0  0  0  0  0  0  0  0  0  0  0  0
   38.7080   27.8230   35.6950 F   0  0  0  0  0  0  0  0  0  0  0  0
   38.4380   26.6980   34.9790 C   0  0  0  0  0  0  0  0  0  0  0  0
   37.5620   26.6940   33.9080 C   0  0  0  0  0  0  0  0  0  0  0  0
   37.3480   25.5060   33.2400 C   0  0  0  0  0  0  0  0  0  0  0  0
   36.6490   25.5210   32.3900 H   0  0  0  0  0  0  0  0  0  0  0  0
   37.9480   24.3070   33.5610 C   0  0  0  0  0  0  0  0  0  0  0  0
   37.7710   23.3910   33.0300 H   0  0  0  0  0  0  0  0  0  0  0  0
   38.8120   24.3590   34.6320 C   0  0  0  0  0  3  0  0  0  0  0  0
   39.0760   25.5240   35.3540 C   0  0  0  0  0  3  0  0  0  0  0  0
  1  6  1  0  0  0  0
  1 10  1  0  0  0  0
  2  1  2  0  0  0  0
  3  4  2  0  0  0  0
  3  2  1  0  0  0  0
  4  5  1  0  0  0  0
  5 20  1  0  0  0  0
  5  6  2  0  0  0  0
  7  2  1  0  0  0  0
  8  3  1  0  0  0  0
  9 14  1  0  0  0  0
 10  9  2  0  0  0  0
 10 11  1  0  0  0  0
 11 12  2  0  0  0  0
 12 13  1  0  0  0  0
 13 17  1  0  0  0  0
 14 13  2  0  0  0  0
 15  9  1  0  0  0  0
 16 11  1  0  0  0  0
 19 26  1  0  0  0  0
 19 18  1  0  0  0  0
 20 19  2  0  0  0  0
 21 23  2  0  0  0  0
 21 20  1  0  0  0  0
 22 21  1  0  0  0  0
 23 25  1  0  0  0  0
 24 23  1  0  0  0  0
 25 26  2  0  0  0  0
M  END
>  <minimizedAffinity>
-5.02944994

$$$$

 OpenBabel03272502123D

 26 28  0  0  0  0  0  0  0  0999 V2000
   37.4780   24.6460   32.6540 C   0  0  0  0  0  0  0  0  0  0  0  0
   37.1330   23.4350   32.0720 C   0  0  0  0  0  0  0  0  0  0  0  0
   37.1740   22.2110   32.7560 C   0  0  0  0  0  0  0  0  0  0  0  0
   37.5710   22.2270   34.0490 N   0  0  0  0  0  0  0  0  0  0  0  0
   37.9100   23.4110   34.6190 C   0  0  0  0  0  0  0  0  0  0  0  0
   37.8570   24.5550   33.9330 N   0  0  0  0  0  0  0  0  0  0  0  0
   36.8150   23.4280   31.0350 H   0  0  0  0  0  0  0  0  0  0  0  0
   36.8950   21.3200   32.2460 H   0  0  0  0  0  0  0  0  0  0  0  0
   36.2960   26.3700   31.2640 C   0  0  0  0  0  0  0  0  0  0  0  0
   37.4300   25.8800   31.9410 C   0  0  0  0  0  0  0  0  0  0  0  0
   38.5950   26.6620   31.9120 C   0  0  0  0  0  0  0  0  0  0  0  0
   38.5560   27.8450   31.2300 N   0  0  0  0  0  0  0  0  0  0  0  0
   37.4450   28.2830   30.5910 C   0  0  0  0  0  0  0  0  0  0  0  0
   36.3230   27.5460   30.6100 N   0  0  0  0  0  0  0  0  0  0  0  0
   35.4630   25.6800   31.3590 H   0  0  0  0  0  0  0  0  0  0  0  0
   39.5040   26.3510   32.4090 H   0  0  0  0  0  0  0  0  0  0  0  0
   37.3930   29.2020   30.0530 H   0  0  0  0  0  0  0  0  0  0  0  0
   40.3120   22.1570   35.4500 F   0  0  0  0  0  0  0  0  0  0  0  0
   39.5180   22.7760   36.3650 C   0  0  0  0  0  0  0  0  0  0  0  0
   38.3350   23.4040   36.0160 C   0  0  0  0  0  0  0  0  0  0  0  0
   37.5940   24.0060   37.0110 C   0  0  0  0  0  0  0  0  0  0  0  0
   36.6560   24.5010   36.7160 H   0  0  0  0  0  0  0  0  0  0  0  0
   37.9450   24.0320   38.3440 C   0  0  0  0  0  0  0  0  0  0  0  0
   37.3560   24.5050   39.1060 H   0  0  0  0  0  0  0  0  0  0  0  0
   39.1280   23.3950   38.6450 C   0  0  0  0  0  3  0  0  0  0  0  0
   39.9290   22.7650   37.6910 C   0  0  0  0  0  3  0  0  0  0  0  0
  1  6  1  0  0  0  0
  2  1  2  0  0  0  0
  2  3  1  0  0  0  0
  3  4  2  0  0  0  0
  4  5  1  0  0  0  0
  5 20  1  0  0  0  0
  6  5  2  0  0  0  0
  7  2  1  0  0  0  0
  8  3  1  0  0  0  0
  9 15  1  0  0  0  0
  9 10  1  0  0  0  0
 10  1  1  0  0  0  0
 11 10  2  0  0  0  0
 11 16  1  0  0  0  0
 12 11  1  0  0  0  0
 13 14  1  0  0  0  0
 13 12  2  0  0  0  0
 14  9  2  0  0  0  0
 17 13  1  0  0  0  0
 18 19  1  0  0  0  0
 19 26  1  0  0  0  0
 20 19  2  0  0  0  0
 20 21  1  0  0  0  0
 21 23  2  0  0  0  0
 22 21  1  0  0  0  0
 23 25  1  0  0  0  0
 23 24  1  0  0  0  0
 26 25  2  0  0  0  0
M  END
>  <minimizedAffinity>
-5.02648067

$$$$
