
 OpenBabel03272510333D

 28 30  0  0  0  0  0  0  0  0999 V2000
   36.3000   30.6630   46.9830 C   0  0  0  0  0  0  0  0  0  0  0  0
   36.1710   30.7700   45.6080 C   0  0  0  0  0  0  0  0  0  0  0  0
   35.3000   29.9370   44.9240 C   0  0  0  0  0  0  0  0  0  0  0  0
   34.5670   29.0040   45.6470 C   0  0  0  0  0  0  0  0  0  0  0  0
   34.6860   28.8880   47.0150 C   0  0  0  0  0  0  0  0  0  0  0  0
   35.5580   29.7230   47.6900 C   0  0  0  0  0  0  0  0  0  0  0  0
   36.7450   31.4950   45.0770 H   0  0  0  0  0  0  0  0  0  0  0  0
   35.2100   30.0300   43.8610 H   0  0  0  0  0  0  0  0  0  0  0  0
   33.8740   28.3330   45.1500 H   0  0  0  0  0  0  0  0  0  0  0  0
   34.1330   28.1750   47.6100 H   0  0  0  0  0  0  0  0  0  0  0  0
   37.6450   32.9770   49.4480 C   0  0  0  0  0  0  0  0  0  0  0  0
   38.9100   33.3150   48.9510 C   0  0  0  0  0  0  0  0  0  0  0  0
   39.2910   32.7210   47.7360 C   0  0  0  0  0  0  0  0  0  0  0  0
   38.4320   31.8760   47.1320 N   0  0  0  0  0  0  0  0  0  0  0  0
   37.2290   31.5700   47.6290 C   0  0  0  0  0  0  0  0  0  0  0  0
   36.8430   32.1290   48.7950 N   0  0  0  0  0  0  0  0  0  0  0  0
   37.2680   33.3830   50.3740 H   0  0  0  0  0  0  0  0  0  0  0  0
   39.4820   33.9940   49.5320 H   0  0  0  0  0  0  0  0  0  0  0  0
   40.2680   32.9890   47.3590 H   0  0  0  0  0  0  0  0  0  0  0  0
   38.1040   29.2300   48.7160 F   0  0  0  0  0  0  0  0  0  0  0  0
   37.0200   29.3690   49.5330 C   0  0  0  0  0  0  0  0  0  0  0  0
   35.7010   29.6160   49.1410 C   0  0  0  0  0  0  0  0  0  0  0  0
   34.7340   29.7250   50.1390 C   0  0  0  0  0  0  0  0  0  0  0  0
   33.7630   29.9140   49.7380 H   0  0  0  0  0  0  0  0  0  0  0  0
   35.0930   29.5890   51.4420 C   0  0  0  0  0  0  0  0  0  0  0  0
   34.2710   29.6910   52.1360 H   0  0  0  0  0  0  0  0  0  0  0  0
   36.3900   29.3460   51.8440 C   0  0  0  0  0  3  0  0  0  0  0  0
   37.3660   29.2340   50.8610 C   0  0  0  0  0  3  0  0  0  0  0  0
  1 15  1  0  0  0  0
  1  6  1  0  0  0  0
  2  1  2  0  0  0  0
  3  2  1  0  0  0  0
  3  4  2  0  0  0  0
  4  5  1  0  0  0  0
  5 10  1  0  0  0  0
  5  6  2  0  0  0  0
  6 22  1  0  0  0  0
  7  2  1  0  0  0  0
  8  3  1  0  0  0  0
  9  4  1  0  0  0  0
 11 17  1  0  0  0  0
 12 11  1  0  0  0  0
 12 18  1  0  0  0  0
 13 12  2  0  0  0  0
 14 15  2  0  0  0  0
 14 13  1  0  0  0  0
 15 16  1  0  0  0  0
 16 11  2  0  0  0  0
 19 13  1  0  0  0  0
 20 21  1  0  0  0  0
 21 28  1  0  0  0  0
 22 21  2  0  0  0  0
 22 23  1  0  0  0  0
 23 25  2  0  0  0  0
 24 23  1  0  0  0  0
 25 27  1  0  0  0  0
 25 26  1  0  0  0  0
 28 27  2  0  0  0  0
M  END
>  <minimizedAffinity>
-4.25446081

>  <minimizedRMSD>
2.04495573

$$$$
