
 OpenBabel03272510333D

 28 30  0  0  0  0  0  0  0  0999 V2000
   35.9070   30.1660   46.8220 C   0  0  0  0  0  0  0  0  0  0  0  0
   35.2340   30.1930   45.6110 C   0  0  0  0  0  0  0  0  0  0  0  0
   34.0110   29.5540   45.4800 C   0  0  0  0  0  0  0  0  0  0  0  0
   33.4850   28.8940   46.5830 C   0  0  0  0  0  0  0  0  0  0  0  0
   34.1440   28.8600   47.7920 C   0  0  0  0  0  0  0  0  0  0  0  0
   35.3640   29.5010   47.9150 C   0  0  0  0  0  0  0  0  0  0  0  0
   35.6600   30.7080   44.7790 H   0  0  0  0  0  0  0  0  0  0  0  0
   33.5020   29.5830   44.5390 H   0  0  0  0  0  0  0  0  0  0  0  0
   32.5300   28.3820   46.5230 H   0  0  0  0  0  0  0  0  0  0  0  0
   33.7660   28.3570   48.6710 H   0  0  0  0  0  0  0  0  0  0  0  0
   38.4210   32.5880   47.8460 C   0  0  0  0  0  0  0  0  0  0  0  0
   39.5500   32.2580   47.0850 C   0  0  0  0  0  0  0  0  0  0  0  0
   39.4220   31.1720   46.2040 C   0  0  0  0  0  0  0  0  0  0  0  0
   38.2420   30.5230   46.1440 N   0  0  0  0  0  0  0  0  0  0  0  0
   37.1790   30.8590   46.8830 C   0  0  0  0  0  0  0  0  0  0  0  0
   37.2800   31.8990   47.7360 N   0  0  0  0  0  0  0  0  0  0  0  0
   38.4260   33.4060   48.5490 H   0  0  0  0  0  0  0  0  0  0  0  0
   40.4140   32.8550   47.2350 H   0  0  0  0  0  0  0  0  0  0  0  0
   40.2970   30.9240   45.6190 H   0  0  0  0  0  0  0  0  0  0  0  0
   33.8850   29.8710   50.2500 F   0  0  0  0  0  0  0  0  0  0  0  0
   35.2340   29.6720   50.2850 C   0  0  0  0  0  0  0  0  0  0  0  0
   36.0810   29.4750   49.1880 C   0  0  0  0  0  0  0  0  0  0  0  0
   37.4390   29.2900   49.4410 C   0  0  0  0  0  0  0  0  0  0  0  0
   37.9980   29.1490   48.5420 H   0  0  0  0  0  0  0  0  0  0  0  0
   37.8960   29.3030   50.7200 C   0  0  0  0  0  0  0  0  0  0  0  0
   38.9620   29.1500   50.8070 H   0  0  0  0  0  0  0  0  0  0  0  0
   37.0720   29.4950   51.8100 C   0  0  0  0  0  3  0  0  0  0  0  0
   35.7150   29.6830   51.5770 C   0  0  0  0  0  3  0  0  0  0  0  0
  1 15  1  0  0  0  0
  1  6  1  0  0  0  0
  2  1  2  0  0  0  0
  3  2  1  0  0  0  0
  3  4  2  0  0  0  0
  4  5  1  0  0  0  0
  5  6  2  0  0  0  0
  5 10  1  0  0  0  0
  6 22  1  0  0  0  0
  7  2  1  0  0  0  0
  8  3  1  0  0  0  0
  9  4  1  0  0  0  0
 11 17  1  0  0  0  0
 12 18  1  0  0  0  0
 12 11  2  0  0  0  0
 13 12  1  0  0  0  0
 14 13  2  0  0  0  0
 14 15  1  0  0  0  0
 15 16  2  0  0  0  0
 16 11  1  0  0  0  0
 19 13  1  0  0  0  0
 20 21  1  0  0  0  0
 21 28  1  0  0  0  0
 22 23  1  0  0  0  0
 22 21  2  0  0  0  0
 23 25  2  0  0  0  0
 24 23  1  0  0  0  0
 25 26  1  0  0  0  0
 25 27  1  0  0  0  0
 28 27  2  0  0  0  0
M  END
>  <minimizedAffinity>
-5.24606085

>  <minimizedRMSD>
2.03683853

$$$$
