
 OpenBabel03272510333D

 28 30  0  0  0  0  0  0  0  0999 V2000
   36.2390   30.6000   47.0180 C   0  0  0  0  0  0  0  0  0  0  0  0
   36.0860   30.6930   45.6440 C   0  0  0  0  0  0  0  0  0  0  0  0
   35.2060   29.8500   44.9830 C   0  0  0  0  0  0  0  0  0  0  0  0
   34.4910   28.9200   45.7280 C   0  0  0  0  0  0  0  0  0  0  0  0
   34.6350   28.8170   47.0940 C   0  0  0  0  0  0  0  0  0  0  0  0
   35.5150   29.6630   47.7470 C   0  0  0  0  0  0  0  0  0  0  0  0
   36.6470   31.4160   45.0960 H   0  0  0  0  0  0  0  0  0  0  0  0
   35.0970   29.9330   43.9210 H   0  0  0  0  0  0  0  0  0  0  0  0
   33.7920   28.2420   45.2490 H   0  0  0  0  0  0  0  0  0  0  0  0
   34.0960   28.1080   47.7060 H   0  0  0  0  0  0  0  0  0  0  0  0
   37.6180   32.9410   49.4380 C   0  0  0  0  0  0  0  0  0  0  0  0
   38.8720   33.2810   48.9150 C   0  0  0  0  0  0  0  0  0  0  0  0
   39.2340   32.6790   47.6980 C   0  0  0  0  0  0  0  0  0  0  0  0
   38.3680   31.8240   47.1170 N   0  0  0  0  0  0  0  0  0  0  0  0
   37.1750   31.5160   47.6390 C   0  0  0  0  0  0  0  0  0  0  0  0
   36.8080   32.0840   48.8070 N   0  0  0  0  0  0  0  0  0  0  0  0
   37.2550   33.3530   50.3660 H   0  0  0  0  0  0  0  0  0  0  0  0
   39.4510   33.9670   49.4790 H   0  0  0  0  0  0  0  0  0  0  0  0
   40.2020   32.9470   47.3010 H   0  0  0  0  0  0  0  0  0  0  0  0
   38.0830   29.2050   48.7330 F   0  0  0  0  0  0  0  0  0  0  0  0
   37.0120   29.3390   49.5670 C   0  0  0  0  0  0  0  0  0  0  0  0
   35.6830   29.5700   49.1950 C   0  0  0  0  0  0  0  0  0  0  0  0
   34.7330   29.6780   50.2090 C   0  0  0  0  0  0  0  0  0  0  0  0
   33.7540   29.8530   49.8230 H   0  0  0  0  0  0  0  0  0  0  0  0
   35.1150   29.5570   51.5070 C   0  0  0  0  0  0  0  0  0  0  0  0
   34.3040   29.6560   52.2140 H   0  0  0  0  0  0  0  0  0  0  0  0
   36.4220   29.3290   51.8890 C   0  0  0  0  0  3  0  0  0  0  0  0
   37.3820   29.2200   50.8900 C   0  0  0  0  0  3  0  0  0  0  0  0
  1 15  1  0  0  0  0
  1  6  1  0  0  0  0
  2  1  2  0  0  0  0
  3  2  1  0  0  0  0
  3  4  2  0  0  0  0
  4  5  1  0  0  0  0
  5 10  1  0  0  0  0
  5  6  2  0  0  0  0
  6 22  1  0  0  0  0
  7  2  1  0  0  0  0
  8  3  1  0  0  0  0
  9  4  1  0  0  0  0
 11 17  1  0  0  0  0
 12 11  1  0  0  0  0
 12 18  1  0  0  0  0
 13 12  2  0  0  0  0
 14 15  2  0  0  0  0
 14 13  1  0  0  0  0
 15 16  1  0  0  0  0
 16 11  2  0  0  0  0
 19 13  1  0  0  0  0
 20 21  1  0  0  0  0
 21 28  1  0  0  0  0
 22 21  2  0  0  0  0
 22 23  1  0  0  0  0
 23 25  2  0  0  0  0
 24 23  1  0  0  0  0
 25 27  1  0  0  0  0
 25 26  1  0  0  0  0
 28 27  2  0  0  0  0
M  END
>  <minimizedAffinity>
-4.27842855

>  <minimizedRMSD>
2.09759355

$$$$
