
 OpenBabel03272501333D

 27 29  0  0  1  0  0  0  0  0999 V2000
   38.5260   25.7290   35.0770 C   0  0  2  0  0  0  0  0  0  0  0  0
   38.5410   27.1210   35.8240 C   0  0  0  0  0  0  0  0  0  0  0  0
   37.4210   26.6470   34.9120 C   0  0  1  0  0  0  0  0  0  0  0  0
   39.5160   25.7050   34.5280 H   0  0  0  0  0  0  0  0  0  0  0  0
   38.3710   27.1270   36.8940 H   0  0  0  0  0  0  0  0  0  0  0  0
   39.2090   27.9000   35.4220 H   0  0  0  0  0  0  0  0  0  0  0  0
   36.4870   26.3700   35.4760 H   0  0  0  0  0  0  0  0  0  0  0  0
   35.4230   28.6720   34.7040 F   0  0  0  0  0  0  0  0  0  0  0  0
   36.2110   28.4640   33.6430 C   0  0  0  0  0  0  0  0  0  0  0  0
   37.1960   27.4740   33.7300 C   0  0  0  0  0  0  0  0  0  0  0  0
   38.0230   27.2530   32.6220 C   0  0  0  0  0  0  0  0  0  0  0  0
   38.7990   26.4800   32.6770 H   0  0  0  0  0  0  0  0  0  0  0  0
   37.8880   27.9830   31.4600 C   0  0  0  0  0  0  0  0  0  0  0  0
   38.5680   27.7530   30.6430 H   0  0  0  0  0  0  0  0  0  0  0  0
   36.9150   28.9710   31.3550 C   0  0  0  0  0  3  0  0  0  0  0  0
   36.1170   29.1650   32.4620 C   0  0  0  0  0  3  0  0  0  0  0  0
   38.4780   24.6430   36.1070 C   0  0  0  0  0  0  0  0  0  0  0  0
   37.4050   24.5000   36.7920 O   0  0  0  0  0  0  0  0  0  0  0  0
   40.8090   22.0840   37.5220 C   0  0  0  0  0  0  0  0  0  0  0  0
   39.6670   22.8530   37.3340 C   0  0  0  0  0  0  0  0  0  0  0  0
   39.6440   23.7980   36.3030 C   0  0  0  0  0  0  0  0  0  0  0  0
   40.7350   23.9100   35.5450 N   0  0  0  0  0  0  0  0  0  0  0  0
   41.8350   23.1470   35.7500 C   0  0  0  0  0  0  0  0  0  0  0  0
   41.8870   22.2370   36.7260 N   0  0  0  0  0  0  0  0  0  0  0  0
   40.7170   21.3880   38.3460 H   0  0  0  0  0  0  0  0  0  0  0  0
   38.7780   22.7710   37.9400 H   0  0  0  0  0  0  0  0  0  0  0  0
   42.7110   23.2590   35.1160 H   0  0  0  0  0  0  0  0  0  0  0  0
  1  4  1  6  0  0  0
  1  2  1  0  0  0  0
  1 17  1  0  0  0  0
  2  5  1  0  0  0  0
  3  1  1  0  0  0  0
  3  7  1  1  0  0  0
  3  2  1  0  0  0  0
  6  2  1  0  0  0  0
  9 10  1  0  0  0  0
  9  8  1  0  0  0  0
 10  3  1  0  0  0  0
 11 12  1  0  0  0  0
 11 10  2  0  0  0  0
 13 11  1  0  0  0  0
 14 13  1  0  0  0  0
 15 13  2  0  0  0  0
 15 16  1  0  0  0  0
 16  9  2  0  0  0  0
 17 21  1  0  0  0  0
 17 18  2  0  0  0  0
 19 25  1  0  0  0  0
 20 19  1  0  0  0  0
 20 26  1  0  0  0  0
 21 20  2  0  0  0  0
 22 23  2  0  0  0  0
 22 21  1  0  0  0  0
 23 24  1  0  0  0  0
 24 19  2  0  0  0  0
 27 23  1  0  0  0  0
M  END
>  <minimizedAffinity>
-5.09474945

$$$$

 OpenBabel03272501333D

 27 29  0  0  1  0  0  0  0  0999 V2000
   38.3930   25.6180   35.2360 C   0  0  2  0  0  0  0  0  0  0  0  0
   38.4350   26.9680   36.0540 C   0  0  0  0  0  0  0  0  0  0  0  0
   37.2750   26.5330   35.1730 C   0  0  1  0  0  0  0  0  0  0  0  0
   39.3560   25.6320   34.6400 H   0  0  0  0  0  0  0  0  0  0  0  0
   38.3160   26.9160   37.1310 H   0  0  0  0  0  0  0  0  0  0  0  0
   39.0770   27.7740   35.6640 H   0  0  0  0  0  0  0  0  0  0  0  0
   36.3720   26.2170   35.7660 H   0  0  0  0  0  0  0  0  0  0  0  0
   38.2750   26.1740   32.5250 F   0  0  0  0  0  0  0  0  0  0  0  0
   37.4870   27.2310   32.7550 C   0  0  0  0  0  0  0  0  0  0  0  0
   36.9880   27.4200   34.0490 C   0  0  0  0  0  0  0  0  0  0  0  0
   36.1640   28.5240   34.2950 C   0  0  0  0  0  0  0  0  0  0  0  0
   35.7660   28.6840   35.3040 H   0  0  0  0  0  0  0  0  0  0  0  0
   35.8360   29.4190   33.2980 C   0  0  0  0  0  0  0  0  0  0  0  0
   35.1910   30.2520   33.5660 H   0  0  0  0  0  0  0  0  0  0  0  0
   36.3220   29.2480   32.0060 C   0  0  0  0  0  3  0  0  0  0  0  0
   37.1310   28.1510   31.7970 C   0  0  0  0  0  3  0  0  0  0  0  0
   38.4020   24.4790   36.2070 C   0  0  0  0  0  0  0  0  0  0  0  0
   37.3380   24.2420   36.8800 O   0  0  0  0  0  0  0  0  0  0  0  0
   41.8220   23.0730   35.6460 C   0  0  0  0  0  0  0  0  0  0  0  0
   40.6930   23.8680   35.4960 C   0  0  0  0  0  0  0  0  0  0  0  0
   39.6120   23.6880   36.3650 C   0  0  0  0  0  0  0  0  0  0  0  0
   39.7260   22.7500   37.3050 N   0  0  0  0  0  0  0  0  0  0  0  0
   40.8390   21.9890   37.4300 C   0  0  0  0  0  0  0  0  0  0  0  0
   41.8880   22.1370   36.6160 N   0  0  0  0  0  0  0  0  0  0  0  0
   42.5940   23.2970   34.9220 H   0  0  0  0  0  0  0  0  0  0  0  0
   40.5890   24.6310   34.7410 H   0  0  0  0  0  0  0  0  0  0  0  0
   40.9060   21.2310   38.2070 H   0  0  0  0  0  0  0  0  0  0  0  0
  1  4  1  6  0  0  0
  1  2  1  0  0  0  0
  1 17  1  0  0  0  0
  2  5  1  0  0  0  0
  3  1  1  0  0  0  0
  3  7  1  1  0  0  0
  3  2  1  0  0  0  0
  6  2  1  0  0  0  0
  8  9  1  0  0  0  0
  9 10  1  0  0  0  0
 10 11  2  0  0  0  0
 10  3  1  0  0  0  0
 11 12  1  0  0  0  0
 13 14  1  0  0  0  0
 13 11  1  0  0  0  0
 15 13  2  0  0  0  0
 16 15  1  0  0  0  0
 16  9  2  0  0  0  0
 17 21  1  0  0  0  0
 17 18  2  0  0  0  0
 19 24  1  0  0  0  0
 20 19  2  0  0  0  0
 20 21  1  0  0  0  0
 21 22  2  0  0  0  0
 22 23  1  0  0  0  0
 23 27  1  0  0  0  0
 24 23  2  0  0  0  0
 25 19  1  0  0  0  0
 26 20  1  0  0  0  0
M  END
>  <minimizedAffinity>
-5.08764839

$$$$

 OpenBabel03272501333D

 27 29  0  0  1  0  0  0  0  0999 V2000
   37.4470   26.6370   34.8370 C   0  0  2  0  0  0  0  0  0  0  0  0
   38.9050   27.1060   35.2230 C   0  0  0  0  0  0  0  0  0  0  0  0
   38.4980   25.6570   35.0070 C   0  0  1  0  0  0  0  0  0  0  0  0
   36.7910   27.1160   35.6260 H   0  0  0  0  0  0  0  0  0  0  0  0
   39.5010   27.5960   34.4610 H   0  0  0  0  0  0  0  0  0  0  0  0
   39.0740   27.4210   36.2660 H   0  0  0  0  0  0  0  0  0  0  0  0
   38.9030   25.2290   34.0480 H   0  0  0  0  0  0  0  0  0  0  0  0
   40.2600   23.4190   35.1510 F   0  0  0  0  0  0  0  0  0  0  0  0
   39.5190   23.6970   36.2300 C   0  0  0  0  0  0  0  0  0  0  0  0
   38.6490   24.7930   36.1740 C   0  0  0  0  0  0  0  0  0  0  0  0
   37.8710   25.0890   37.2990 C   0  0  0  0  0  0  0  0  0  0  0  0
   37.1850   25.9440   37.2690 H   0  0  0  0  0  0  0  0  0  0  0  0
   37.9430   24.3300   38.4490 C   0  0  0  0  0  0  0  0  0  0  0  0
   37.3080   24.6230   39.2810 H   0  0  0  0  0  0  0  0  0  0  0  0
   38.8020   23.2380   38.5230 C   0  0  0  0  0  3  0  0  0  0  0  0
   39.5540   22.9740   37.3990 C   0  0  0  0  0  3  0  0  0  0  0  0
   37.1180   27.1870   33.4850 C   0  0  0  0  0  0  0  0  0  0  0  0
   37.6400   26.6310   32.4560 O   0  0  0  0  0  0  0  0  0  0  0  0
   35.0610   30.1780   34.3870 C   0  0  0  0  0  0  0  0  0  0  0  0
   35.9420   29.1100   34.5070 C   0  0  0  0  0  0  0  0  0  0  0  0
   36.2300   28.3330   33.3810 C   0  0  0  0  0  0  0  0  0  0  0  0
   35.6360   28.6660   32.2350 N   0  0  0  0  0  0  0  0  0  0  0  0
   34.7810   29.7130   32.1450 C   0  0  0  0  0  0  0  0  0  0  0  0
   34.4860   30.4730   33.2020 N   0  0  0  0  0  0  0  0  0  0  0  0
   34.9110   30.7070   35.3190 H   0  0  0  0  0  0  0  0  0  0  0  0
   36.4300   28.8320   35.4280 H   0  0  0  0  0  0  0  0  0  0  0  0
   34.3110   29.9630   31.1970 H   0  0  0  0  0  0  0  0  0  0  0  0
  1  3  1  0  0  0  0
  1  2  1  0  0  0  0
  1  4  1  1  0  0  0
  2  6  1  0  0  0  0
  3  7  1  6  0  0  0
  3  2  1  0  0  0  0
  3 10  1  0  0  0  0
  5  2  1  0  0  0  0
  8  9  1  0  0  0  0
  9 16  1  0  0  0  0
 10  9  2  0  0  0  0
 10 11  1  0  0  0  0
 11 13  2  0  0  0  0
 12 11  1  0  0  0  0
 13 15  1  0  0  0  0
 13 14  1  0  0  0  0
 16 15  2  0  0  0  0
 17  1  1  0  0  0  0
 18 17  2  0  0  0  0
 19 20  1  0  0  0  0
 19 25  1  0  0  0  0
 20 26  1  0  0  0  0
 21 17  1  0  0  0  0
 21 20  2  0  0  0  0
 22 21  1  0  0  0  0
 23 22  2  0  0  0  0
 23 24  1  0  0  0  0
 24 19  2  0  0  0  0
 27 23  1  0  0  0  0
M  END
>  <minimizedAffinity>
-5.0643096

$$$$

 OpenBabel03272501333D

 27 29  0  0  1  0  0  0  0  0999 V2000
   37.3940   26.2970   34.7380 C   0  0  2  0  0  0  0  0  0  0  0  0
   38.7850   26.9140   35.1600 C   0  0  0  0  0  0  0  0  0  0  0  0
   38.5170   25.4260   35.0060 C   0  0  1  0  0  0  0  0  0  0  0  0
   36.6610   26.7550   35.4710 H   0  0  0  0  0  0  0  0  0  0  0  0
   39.3720   27.4170   34.3990 H   0  0  0  0  0  0  0  0  0  0  0  0
   38.8760   27.2960   36.1910 H   0  0  0  0  0  0  0  0  0  0  0  0
   39.0040   24.9880   34.0910 H   0  0  0  0  0  0  0  0  0  0  0  0
   40.3670   23.2750   35.3040 F   0  0  0  0  0  0  0  0  0  0  0  0
   39.6000   23.5860   36.3550 C   0  0  0  0  0  0  0  0  0  0  0  0
   38.6880   24.6390   36.2240 C   0  0  0  0  0  0  0  0  0  0  0  0
   37.8820   24.9680   37.3210 C   0  0  0  0  0  0  0  0  0  0  0  0
   37.1630   25.7910   37.2320 H   0  0  0  0  0  0  0  0  0  0  0  0
   37.9700   24.2820   38.5150 C   0  0  0  0  0  0  0  0  0  0  0  0
   37.3110   24.5970   39.3210 H   0  0  0  0  0  0  0  0  0  0  0  0
   38.8710   23.2330   38.6630 C   0  0  0  0  0  3  0  0  0  0  0  0
   39.6490   22.9340   37.5650 C   0  0  0  0  0  3  0  0  0  0  0  0
   37.0830   26.7470   33.3450 C   0  0  0  0  0  0  0  0  0  0  0  0
   36.5630   27.9060   33.1800 O   0  0  0  0  0  0  0  0  0  0  0  0
   36.8330   23.9310   30.8960 C   0  0  0  0  0  0  0  0  0  0  0  0
   36.5160   24.7870   31.9440 C   0  0  0  0  0  0  0  0  0  0  0  0
   37.3680   25.8580   32.2310 C   0  0  0  0  0  0  0  0  0  0  0  0
   38.4530   26.0030   31.4700 N   0  0  0  0  0  0  0  0  0  0  0  0
   38.7380   25.1550   30.4540 C   0  0  0  0  0  0  0  0  0  0  0  0
   37.9450   24.1230   30.1560 N   0  0  0  0  0  0  0  0  0  0  0  0
   36.1070   23.1400   30.7650 H   0  0  0  0  0  0  0  0  0  0  0  0
   35.6410   24.6810   32.5660 H   0  0  0  0  0  0  0  0  0  0  0  0
   39.6300   25.2970   29.8490 H   0  0  0  0  0  0  0  0  0  0  0  0
  1  3  1  0  0  0  0
  1  2  1  0  0  0  0
  1  4  1  1  0  0  0
  2  6  1  0  0  0  0
  3  7  1  6  0  0  0
  3  2  1  0  0  0  0
  3 10  1  0  0  0  0
  5  2  1  0  0  0  0
  8  9  1  0  0  0  0
  9 16  1  0  0  0  0
 10  9  2  0  0  0  0
 10 11  1  0  0  0  0
 11 13  2  0  0  0  0
 12 11  1  0  0  0  0
 13 15  1  0  0  0  0
 13 14  1  0  0  0  0
 16 15  2  0  0  0  0
 17  1  1  0  0  0  0
 18 17  2  0  0  0  0
 19 20  1  0  0  0  0
 20 21  2  0  0  0  0
 20 26  1  0  0  0  0
 21 17  1  0  0  0  0
 22 21  1  0  0  0  0
 23 22  2  0  0  0  0
 24 23  1  0  0  0  0
 24 19  2  0  0  0  0
 25 19  1  0  0  0  0
 27 23  1  0  0  0  0
M  END
>  <minimizedAffinity>
-4.98591328

$$$$

 OpenBabel03272501333D

 27 29  0  0  1  0  0  0  0  0999 V2000
   38.0590   25.8980   34.1070 C   0  0  2  0  0  0  0  0  0  0  0  0
   39.4130   26.5050   34.6500 C   0  0  0  0  0  0  0  0  0  0  0  0
   39.0770   25.0220   34.6450 C   0  0  1  0  0  0  0  0  0  0  0  0
   37.2610   26.4810   34.6600 H   0  0  0  0  0  0  0  0  0  0  0  0
   40.1310   26.8760   33.9270 H   0  0  0  0  0  0  0  0  0  0  0  0
   39.3810   27.0160   35.6260 H   0  0  0  0  0  0  0  0  0  0  0  0
   39.6600   24.4460   33.8740 H   0  0  0  0  0  0  0  0  0  0  0  0
   40.8140   22.9360   35.5230 F   0  0  0  0  0  0  0  0  0  0  0  0
   39.8840   23.3740   36.3810 C   0  0  0  0  0  0  0  0  0  0  0  0
   39.0250   24.3980   35.9640 C   0  0  0  0  0  0  0  0  0  0  0  0
   38.0510   24.8600   36.8570 C   0  0  0  0  0  0  0  0  0  0  0  0
   37.3710   25.6610   36.5440 H   0  0  0  0  0  0  0  0  0  0  0  0
   37.9220   24.3320   38.1250 C   0  0  0  0  0  0  0  0  0  0  0  0
   37.1420   24.7430   38.7610 H   0  0  0  0  0  0  0  0  0  0  0  0
   38.7670   23.3150   38.5570 C   0  0  0  0  0  3  0  0  0  0  0  0
   39.7160   22.8830   37.6540 C   0  0  0  0  0  3  0  0  0  0  0  0
   37.9760   26.1710   32.6390 C   0  0  0  0  0  0  0  0  0  0  0  0
   38.5750   25.3740   31.8350 O   0  0  0  0  0  0  0  0  0  0  0  0
   35.7050   29.1430   32.5750 C   0  0  0  0  0  0  0  0  0  0  0  0
   36.4340   28.0620   33.0560 C   0  0  0  0  0  0  0  0  0  0  0  0
   37.2330   27.3300   32.1720 C   0  0  0  0  0  0  0  0  0  0  0  0
   37.2520   27.7160   30.8960 N   0  0  0  0  0  0  0  0  0  0  0  0
   36.5320   28.7740   30.4530 C   0  0  0  0  0  0  0  0  0  0  0  0
   35.7610   29.4920   31.2730 N   0  0  0  0  0  0  0  0  0  0  0  0
   35.1240   29.6340   33.3440 H   0  0  0  0  0  0  0  0  0  0  0  0
   36.4280   27.7410   34.0860 H   0  0  0  0  0  0  0  0  0  0  0  0
   36.5670   29.0670   29.4070 H   0  0  0  0  0  0  0  0  0  0  0  0
  1  3  1  0  0  0  0
  1  2  1  0  0  0  0
  1  4  1  1  0  0  0
  2  6  1  0  0  0  0
  3  7  1  6  0  0  0
  3  2  1  0  0  0  0
  3 10  1  0  0  0  0
  5  2  1  0  0  0  0
  8  9  1  0  0  0  0
  9 16  1  0  0  0  0
 10  9  2  0  0  0  0
 10 11  1  0  0  0  0
 11 13  2  0  0  0  0
 12 11  1  0  0  0  0
 13 15  1  0  0  0  0
 13 14  1  0  0  0  0
 16 15  2  0  0  0  0
 17  1  1  0  0  0  0
 18 17  2  0  0  0  0
 19 20  1  0  0  0  0
 19 25  1  0  0  0  0
 20 26  1  0  0  0  0
 21 17  1  0  0  0  0
 21 20  2  0  0  0  0
 22 21  1  0  0  0  0
 23 22  2  0  0  0  0
 23 24  1  0  0  0  0
 24 19  2  0  0  0  0
 27 23  1  0  0  0  0
M  END
>  <minimizedAffinity>
-4.87309361

$$$$

 OpenBabel03272501333D

 27 29  0  0  1  0  0  0  0  0999 V2000
   36.0220   29.3590   34.0480 C   0  0  2  0  0  0  0  0  0  0  0  0
   36.1890   28.9230   32.5390 C   0  0  0  0  0  0  0  0  0  0  0  0
   36.4440   28.0120   33.7300 C   0  0  1  0  0  0  0  0  0  0  0  0
   36.6510   30.2980   34.1290 H   0  0  0  0  0  0  0  0  0  0  0  0
   35.2910   28.7680   31.9510 H   0  0  0  0  0  0  0  0  0  0  0  0
   37.0770   29.2940   32.0020 H   0  0  0  0  0  0  0  0  0  0  0  0
   35.6480   27.2260   33.8560 H   0  0  0  0  0  0  0  0  0  0  0  0
   37.7940   27.5400   36.1980 F   0  0  0  0  0  0  0  0  0  0  0  0
   38.4620   27.2920   35.0660 C   0  0  0  0  0  0  0  0  0  0  0  0
   37.8130   27.5190   33.8470 C   0  0  0  0  0  0  0  0  0  0  0  0
   38.5080   27.2620   32.6590 C   0  0  0  0  0  0  0  0  0  0  0  0
   38.0110   27.4350   31.6970 H   0  0  0  0  0  0  0  0  0  0  0  0
   39.8060   26.7950   32.6670 C   0  0  0  0  0  0  0  0  0  0  0  0
   40.2790   26.6180   31.7040 H   0  0  0  0  0  0  0  0  0  0  0  0
   40.4670   26.5630   33.8680 C   0  0  0  0  0  3  0  0  0  0  0  0
   39.7550   26.8260   35.0190 C   0  0  0  0  0  3  0  0  0  0  0  0
   34.5810   29.6790   34.2890 C   0  0  0  0  0  0  0  0  0  0  0  0
   33.7010   29.1390   33.5300 O   0  0  0  0  0  0  0  0  0  0  0  0
   34.8160   32.3170   36.9300 C   0  0  0  0  0  0  0  0  0  0  0  0
   35.1720   31.4810   35.8790 C   0  0  0  0  0  0  0  0  0  0  0  0
   34.2250   30.5920   35.3620 C   0  0  0  0  0  0  0  0  0  0  0  0
   33.0110   30.5960   35.9140 N   0  0  0  0  0  0  0  0  0  0  0  0
   32.6890   31.4230   36.9380 C   0  0  0  0  0  0  0  0  0  0  0  0
   33.5720   32.2820   37.4520 N   0  0  0  0  0  0  0  0  0  0  0  0
   35.6250   32.9600   37.2500 H   0  0  0  0  0  0  0  0  0  0  0  0
   36.1500   31.4680   35.4240 H   0  0  0  0  0  0  0  0  0  0  0  0
   31.6910   31.4060   37.3680 H   0  0  0  0  0  0  0  0  0  0  0  0
  1  4  1  1  0  0  0
  1 17  1  0  0  0  0
  2  3  1  0  0  0  0
  2  1  1  0  0  0  0
  3 10  1  0  0  0  0
  3  7  1  1  0  0  0
  3  1  1  0  0  0  0
  5  2  1  0  0  0  0
  6  2  1  0  0  0  0
  9  8  1  0  0  0  0
 10  9  2  0  0  0  0
 11 13  2  0  0  0  0
 11 10  1  0  0  0  0
 12 11  1  0  0  0  0
 13 15  1  0  0  0  0
 14 13  1  0  0  0  0
 15 16  2  0  0  0  0
 16  9  1  0  0  0  0
 17 21  1  0  0  0  0
 18 17  2  0  0  0  0
 19 25  1  0  0  0  0
 19 24  1  0  0  0  0
 20 19  2  0  0  0  0
 21 20  1  0  0  0  0
 21 22  2  0  0  0  0
 22 23  1  0  0  0  0
 23 27  1  0  0  0  0
 23 24  2  0  0  0  0
 26 20  1  0  0  0  0
M  END
>  <minimizedAffinity>
-4.86455488

$$$$

 OpenBabel03272501333D

 27 29  0  0  1  0  0  0  0  0999 V2000
   37.2440   23.3710   31.4990 C   0  0  2  0  0  0  0  0  0  0  0  0
   35.7050   23.4310   31.1510 C   0  0  0  0  0  0  0  0  0  0  0  0
   36.2970   22.6130   32.2880 C   0  0  1  0  0  0  0  0  0  0  0  0
   37.7330   23.0910   30.5160 H   0  0  0  0  0  0  0  0  0  0  0  0
   35.1620   24.3380   31.3930 H   0  0  0  0  0  0  0  0  0  0  0  0
   35.3660   22.8710   30.2630 H   0  0  0  0  0  0  0  0  0  0  0  0
   36.0710   23.0470   33.3010 H   0  0  0  0  0  0  0  0  0  0  0  0
   35.3580   20.9470   34.4040 F   0  0  0  0  0  0  0  0  0  0  0  0
   35.6310   20.3670   33.2300 C   0  0  0  0  0  0  0  0  0  0  0  0
   36.0920   21.1710   32.1820 C   0  0  0  0  0  0  0  0  0  0  0  0
   36.3800   20.5690   30.9510 C   0  0  0  0  0  0  0  0  0  0  0  0
   36.7420   21.1870   30.1210 H   0  0  0  0  0  0  0  0  0  0  0  0
   36.2180   19.2130   30.7530 C   0  0  0  0  0  0  0  0  0  0  0  0
   36.4620   18.8190   29.7700 H   0  0  0  0  0  0  0  0  0  0  0  0
   35.7600   18.3980   31.7830 C   0  0  0  0  0  3  0  0  0  0  0  0
   35.4870   19.0220   32.9820 C   0  0  0  0  0  3  0  0  0  0  0  0
   37.6830   24.7360   31.9260 C   0  0  0  0  0  0  0  0  0  0  0  0
   37.9310   25.6080   31.0210 O   0  0  0  0  0  0  0  0  0  0  0  0
   37.4170   26.4420   35.2440 C   0  0  0  0  0  0  0  0  0  0  0  0
   37.2350   26.1690   33.8940 C   0  0  0  0  0  0  0  0  0  0  0  0
   37.8250   25.0270   33.3430 C   0  0  0  0  0  0  0  0  0  0  0  0
   38.5390   24.2490   34.1570 N   0  0  0  0  0  0  0  0  0  0  0  0
   38.7010   24.5390   35.4700 C   0  0  0  0  0  0  0  0  0  0  0  0
   38.1510   25.6210   36.0250 N   0  0  0  0  0  0  0  0  0  0  0  0
   36.9190   27.3490   35.5610 H   0  0  0  0  0  0  0  0  0  0  0  0
   36.6590   26.7900   33.2260 H   0  0  0  0  0  0  0  0  0  0  0  0
   39.2880   23.8860   36.1120 H   0  0  0  0  0  0  0  0  0  0  0  0
  1  4  1  6  0  0  0
  1 17  1  0  0  0  0
  1  3  1  0  0  0  0
  2  5  1  0  0  0  0
  2  1  1  0  0  0  0
  2  3  1  0  0  0  0
  3  7  1  1  0  0  0
  6  2  1  0  0  0  0
  9  8  1  0  0  0  0
 10  3  1  0  0  0  0
 10  9  2  0  0  0  0
 11 10  1  0  0  0  0
 12 11  1  0  0  0  0
 13 11  2  0  0  0  0
 13 15  1  0  0  0  0
 14 13  1  0  0  0  0
 15 16  2  0  0  0  0
 16  9  1  0  0  0  0
 17 21  1  0  0  0  0
 18 17  2  0  0  0  0
 19 25  1  0  0  0  0
 19 24  1  0  0  0  0
 20 19  2  0  0  0  0
 21 20  1  0  0  0  0
 21 22  2  0  0  0  0
 22 23  1  0  0  0  0
 23 24  2  0  0  0  0
 23 27  1  0  0  0  0
 26 20  1  0  0  0  0
M  END
>  <minimizedAffinity>
-4.73598528

$$$$

 OpenBabel03272501333D

 27 29  0  0  1  0  0  0  0  0999 V2000
   35.1120   30.1700   32.4360 C   0  0  2  0  0  0  0  0  0  0  0  0
   35.8660   31.5330   32.6980 C   0  0  0  0  0  0  0  0  0  0  0  0
   35.6750   30.4430   33.7410 C   0  0  1  0  0  0  0  0  0  0  0  0
   34.1110   30.4920   32.0150 H   0  0  0  0  0  0  0  0  0  0  0  0
   36.8490   31.6640   32.2590 H   0  0  0  0  0  0  0  0  0  0  0  0
   35.2470   32.4380   32.8100 H   0  0  0  0  0  0  0  0  0  0  0  0
   36.6270   29.8880   33.9700 H   0  0  0  0  0  0  0  0  0  0  0  0
   36.6800   32.0370   35.8820 F   0  0  0  0  0  0  0  0  0  0  0  0
   35.4100   31.6230   35.9570 C   0  0  0  0  0  0  0  0  0  0  0  0
   34.9020   30.8410   34.9140 C   0  0  0  0  0  0  0  0  0  0  0  0
   33.5740   30.4050   34.9880 C   0  0  0  0  0  0  0  0  0  0  0  0
   33.1640   29.7910   34.1770 H   0  0  0  0  0  0  0  0  0  0  0  0
   32.7650   30.7280   36.0570 C   0  0  0  0  0  0  0  0  0  0  0  0
   31.7440   30.3530   36.0430 H   0  0  0  0  0  0  0  0  0  0  0  0
   33.2510   31.5050   37.1030 C   0  0  0  0  0  3  0  0  0  0  0  0
   34.5630   31.9180   37.0000 C   0  0  0  0  0  3  0  0  0  0  0  0
   35.8810   29.3960   31.4120 C   0  0  0  0  0  0  0  0  0  0  0  0
   36.1130   29.9470   30.2790 O   0  0  0  0  0  0  0  0  0  0  0  0
   38.0150   26.5360   32.5310 C   0  0  0  0  0  0  0  0  0  0  0  0
   37.5980   27.8360   32.2740 C   0  0  0  0  0  0  0  0  0  0  0  0
   36.3290   28.0500   31.7270 C   0  0  0  0  0  0  0  0  0  0  0  0
   35.5760   26.9780   31.4790 N   0  0  0  0  0  0  0  0  0  0  0  0
   36.0070   25.7200   31.7390 C   0  0  0  0  0  0  0  0  0  0  0  0
   37.2130   25.4840   32.2610 N   0  0  0  0  0  0  0  0  0  0  0  0
   39.0110   26.4880   32.9510 H   0  0  0  0  0  0  0  0  0  0  0  0
   38.1970   28.7110   32.4710 H   0  0  0  0  0  0  0  0  0  0  0  0
   35.3710   24.8640   31.5280 H   0  0  0  0  0  0  0  0  0  0  0  0
  1  4  1  6  0  0  0
  1  2  1  0  0  0  0
  1  3  1  0  0  0  0
  2  6  1  0  0  0  0
  2  3  1  0  0  0  0
  3  7  1  1  0  0  0
  3 10  1  0  0  0  0
  5  2  1  0  0  0  0
  8  9  1  0  0  0  0
  9 16  1  0  0  0  0
 10 11  1  0  0  0  0
 10  9  2  0  0  0  0
 11 13  2  0  0  0  0
 12 11  1  0  0  0  0
 13 15  1  0  0  0  0
 14 13  1  0  0  0  0
 16 15  2  0  0  0  0
 17 21  1  0  0  0  0
 17  1  1  0  0  0  0
 18 17  2  0  0  0  0
 19 25  1  0  0  0  0
 20 26  1  0  0  0  0
 20 19  1  0  0  0  0
 21 20  2  0  0  0  0
 22 21  1  0  0  0  0
 22 23  2  0  0  0  0
 23 24  1  0  0  0  0
 24 19  2  0  0  0  0
 27 23  1  0  0  0  0
M  END
>  <minimizedAffinity>
-4.72741508

$$$$

 OpenBabel03272501333D

 27 29  0  0  1  0  0  0  0  0999 V2000
   38.0240   26.5740   35.4820 C   0  0  2  0  0  0  0  0  0  0  0  0
   39.5640   26.8890   35.3270 C   0  0  0  0  0  0  0  0  0  0  0  0
   38.9370   25.5260   35.0810 C   0  0  1  0  0  0  0  0  0  0  0  0
   37.7760   26.9380   36.5260 H   0  0  0  0  0  0  0  0  0  0  0  0
   39.8810   27.4760   34.4720 H   0  0  0  0  0  0  0  0  0  0  0  0
   40.1500   27.0030   36.2540 H   0  0  0  0  0  0  0  0  0  0  0  0
   38.8960   25.2560   33.9890 H   0  0  0  0  0  0  0  0  0  0  0  0
   37.4610   24.4280   37.2620 F   0  0  0  0  0  0  0  0  0  0  0  0
   38.6800   23.9320   37.0230 C   0  0  0  0  0  0  0  0  0  0  0  0
   39.4160   24.4600   35.9560 C   0  0  0  0  0  0  0  0  0  0  0  0
   40.6930   23.9450   35.7030 C   0  0  0  0  0  0  0  0  0  0  0  0
   41.2810   24.3490   34.8710 H   0  0  0  0  0  0  0  0  0  0  0  0
   41.2330   22.9370   36.4750 C   0  0  0  0  0  0  0  0  0  0  0  0
   42.2300   22.5890   36.2160 H   0  0  0  0  0  0  0  0  0  0  0  0
   40.5160   22.4000   37.5390 C   0  0  0  0  0  3  0  0  0  0  0  0
   39.2630   22.9290   37.7620 C   0  0  0  0  0  3  0  0  0  0  0  0
   37.2750   27.3740   34.4630 C   0  0  0  0  0  0  0  0  0  0  0  0
   36.6420   28.4170   34.8520 O   0  0  0  0  0  0  0  0  0  0  0  0
   37.9000   27.2790   30.7770 C   0  0  0  0  0  0  0  0  0  0  0  0
   37.9420   27.6960   32.1020 C   0  0  0  0  0  0  0  0  0  0  0  0
   37.2800   26.9420   33.0750 C   0  0  0  0  0  0  0  0  0  0  0  0
   36.6350   25.8460   32.6730 N   0  0  0  0  0  0  0  0  0  0  0  0
   36.6100   25.4620   31.3750 C   0  0  0  0  0  0  0  0  0  0  0  0
   37.2320   26.1610   30.4220 N   0  0  0  0  0  0  0  0  0  0  0  0
   38.4440   27.9360   30.1110 H   0  0  0  0  0  0  0  0  0  0  0  0
   38.4610   28.5790   32.4390 H   0  0  0  0  0  0  0  0  0  0  0  0
   36.0770   24.5630   31.0750 H   0  0  0  0  0  0  0  0  0  0  0  0
  1  4  1  1  0  0  0
  2  1  1  0  0  0  0
  2  6  1  0  0  0  0
  3  7  1  6  0  0  0
  3  2  1  0  0  0  0
  3  1  1  0  0  0  0
  3 10  1  0  0  0  0
  5  2  1  0  0  0  0
  9  8  1  0  0  0  0
  9 16  1  0  0  0  0
 10  9  2  0  0  0  0
 11 10  1  0  0  0  0
 11 13  2  0  0  0  0
 12 11  1  0  0  0  0
 13 15  1  0  0  0  0
 14 13  1  0  0  0  0
 15 16  2  0  0  0  0
 17 18  2  0  0  0  0
 17  1  1  0  0  0  0
 19 20  1  0  0  0  0
 20 26  1  0  0  0  0
 20 21  2  0  0  0  0
 21 17  1  0  0  0  0
 22 21  1  0  0  0  0
 23 22  2  0  0  0  0
 24 19  2  0  0  0  0
 24 23  1  0  0  0  0
 25 19  1  0  0  0  0
 27 23  1  0  0  0  0
M  END
>  <minimizedAffinity>
-4.7221961

$$$$
