
 OpenBabel03262523523D

 36 38  0  0  1  0  0  0  0  0999 V2000
   36.5780   26.9780   31.2820 N   0  0  0  0  0  0  0  0  0  0  0  0
   36.7420   27.9650   30.2840 C   0  0  0  0  0  0  0  0  0  0  0  0
   36.8400   29.3360   30.8590 C   0  0  0  0  0  0  0  0  0  0  0  0
   35.6350   29.5000   31.7920 C   0  0  0  0  0  0  0  0  0  0  0  0
   35.9850   28.6860   33.0020 C   0  0  0  0  0  0  0  0  0  0  0  0
   36.6780   27.4350   32.6360 C   0  0  2  0  0  0  0  0  0  0  0  0
   35.8140   27.9560   29.6530 H   0  0  0  0  0  0  0  0  0  0  0  0
   37.5510   27.7430   29.5420 H   0  0  0  0  0  0  0  0  0  0  0  0
   36.6300   30.0820   30.0450 H   0  0  0  0  0  0  0  0  0  0  0  0
   37.7350   29.5810   31.4230 H   0  0  0  0  0  0  0  0  0  0  0  0
   35.5920   30.5760   32.0790 H   0  0  0  0  0  0  0  0  0  0  0  0
   34.7010   29.1400   31.3480 H   0  0  0  0  0  0  0  0  0  0  0  0
   36.7110   29.3220   33.5880 H   0  0  0  0  0  0  0  0  0  0  0  0
   35.0880   28.6070   33.6190 H   0  0  0  0  0  0  0  0  0  0  0  0
   36.0680   26.6350   33.1870 H   0  0  0  0  0  0  0  0  0  0  0  0
   37.0180   27.1420   35.3710 F   0  0  0  0  0  0  0  0  0  0  0  0
   38.1720   27.0980   34.6310 C   0  0  0  0  0  0  0  0  0  0  0  0
   38.0280   27.2520   33.2420 C   0  0  0  0  0  0  0  0  0  0  0  0
   39.2410   27.1950   32.5900 C   0  0  0  0  0  0  0  0  0  0  0  0
   39.2290   27.2950   31.5260 H   0  0  0  0  0  0  0  0  0  0  0  0
   40.4400   27.0120   33.2100 C   0  0  0  0  0  0  0  0  0  0  0  0
   41.3490   26.9780   32.6200 H   0  0  0  0  0  0  0  0  0  0  0  0
   40.5070   26.8710   34.5570 C   0  0  0  0  0  3  0  0  0  0  0  0
   39.3550   26.9110   35.3140 C   0  0  0  0  0  3  0  0  0  0  0  0
   35.5460   26.0240   31.0480 C   0  0  0  0  0  0  0  0  0  0  0  0
   35.0650   26.1370   30.0570 H   0  0  0  0  0  0  0  0  0  0  0  0
   34.7360   26.0820   31.8060 H   0  0  0  0  0  0  0  0  0  0  0  0
   36.0860   24.6420   31.0940 C   0  0  0  0  0  0  0  0  0  0  0  0
   37.4190   24.4390   30.6980 C   0  0  0  0  0  0  0  0  0  0  0  0
   37.9390   23.1430   30.7360 C   0  0  0  0  0  0  0  0  0  0  0  0
   37.1260   22.1410   31.1560 N   0  0  0  0  0  0  0  0  0  0  0  0
   35.8610   22.3530   31.5290 C   0  0  0  0  0  0  0  0  0  0  0  0
   35.3420   23.5910   31.4990 N   0  0  0  0  0  0  0  0  0  0  0  0
   37.9920   25.3050   30.3770 H   0  0  0  0  0  0  0  0  0  0  0  0
   38.9660   22.9800   30.4320 H   0  0  0  0  0  0  0  0  0  0  0  0
   35.2560   21.5050   31.8570 H   0  0  0  0  0  0  0  0  0  0  0  0
  1  6  1  0  0  0  0
  2  3  1  0  0  0  0
  2  1  1  0  0  0  0
  3 10  1  0  0  0  0
  3  4  1  0  0  0  0
  4 11  1  0  0  0  0
  4  5  1  0  0  0  0
  5 13  1  0  0  0  0
  5 14  1  0  0  0  0
  6  5  1  0  0  0  0
  6 15  1  1  0  0  0
  6 18  1  0  0  0  0
  7  2  1  0  0  0  0
  8  2  1  0  0  0  0
  9  3  1  0  0  0  0
 12  4  1  0  0  0  0
 17 24  1  0  0  0  0
 17 16  1  0  0  0  0
 18 17  2  0  0  0  0
 19 21  2  0  0  0  0
 19 18  1  0  0  0  0
 20 19  1  0  0  0  0
 21 23  1  0  0  0  0
 22 21  1  0  0  0  0
 23 24  2  0  0  0  0
 25 28  1  0  0  0  0
 25  1  1  0  0  0  0
 25 27  1  0  0  0  0
 26 25  1  0  0  0  0
 28 33  1  0  0  0  0
 29 30  1  0  0  0  0
 29 28  2  0  0  0  0
 30 31  2  0  0  0  0
 31 32  1  0  0  0  0
 32 36  1  0  0  0  0
 33 32  2  0  0  0  0
 34 29  1  0  0  0  0
 35 30  1  0  0  0  0
M  END
>  <minimizedAffinity>
-5.38806581

$$$$

 OpenBabel03262523523D

 36 38  0  0  1  0  0  0  0  0999 V2000
   38.2630   23.1390   35.7880 N   0  0  0  0  0  0  0  0  0  0  0  0
   37.3840   23.5600   36.8110 C   0  0  0  0  0  0  0  0  0  0  0  0
   38.1140   24.0870   37.9970 C   0  0  0  0  0  0  0  0  0  0  0  0
   39.1470   23.0210   38.3790 C   0  0  0  0  0  0  0  0  0  0  0  0
   40.2190   23.1500   37.3370 C   0  0  0  0  0  0  0  0  0  0  0  0
   39.6520   23.4190   36.0020 C   0  0  2  0  0  0  0  0  0  0  0  0
   36.8280   22.6510   37.1640 H   0  0  0  0  0  0  0  0  0  0  0  0
   36.5620   24.2380   36.4660 H   0  0  0  0  0  0  0  0  0  0  0  0
   37.4150   24.0840   38.8790 H   0  0  0  0  0  0  0  0  0  0  0  0
   38.6350   25.0330   37.8870 H   0  0  0  0  0  0  0  0  0  0  0  0
   39.5660   23.3150   39.3690 H   0  0  0  0  0  0  0  0  0  0  0  0
   38.7340   22.0070   38.3760 H   0  0  0  0  0  0  0  0  0  0  0  0
   40.8230   24.0540   37.6430 H   0  0  0  0  0  0  0  0  0  0  0  0
   40.8870   22.2930   37.4420 H   0  0  0  0  0  0  0  0  0  0  0  0
   40.1450   22.6160   35.3490 H   0  0  0  0  0  0  0  0  0  0  0  0
   42.2250   23.6480   34.9970 F   0  0  0  0  0  0  0  0  0  0  0  0
   41.4350   24.7580   34.8390 C   0  0  0  0  0  0  0  0  0  0  0  0
   40.1290   24.6710   35.3460 C   0  0  0  0  0  0  0  0  0  0  0  0
   39.4190   25.8340   35.1390 C   0  0  0  0  0  0  0  0  0  0  0  0
   38.4080   25.8580   35.4860 H   0  0  0  0  0  0  0  0  0  0  0  0
   39.9160   26.9390   34.5190 C   0  0  0  0  0  0  0  0  0  0  0  0
   39.2880   27.8150   34.3970 H   0  0  0  0  0  0  0  0  0  0  0  0
   41.1900   26.9560   34.0530 C   0  0  0  0  0  3  0  0  0  0  0  0
   41.9940   25.8460   34.2030 C   0  0  0  0  0  3  0  0  0  0  0  0
   37.9930   21.8600   35.2230 C   0  0  0  0  0  0  0  0  0  0  0  0
   37.4030   21.2040   35.8920 H   0  0  0  0  0  0  0  0  0  0  0  0
   38.9200   21.3050   34.9660 H   0  0  0  0  0  0  0  0  0  0  0  0
   37.2050   21.9920   33.9710 C   0  0  0  0  0  0  0  0  0  0  0  0
   36.1790   21.0620   33.7340 C   0  0  0  0  0  0  0  0  0  0  0  0
   35.4300   21.1750   32.5600 C   0  0  0  0  0  0  0  0  0  0  0  0
   35.7330   22.1830   31.7040 N   0  0  0  0  0  0  0  0  0  0  0  0
   36.7130   23.0590   31.9460 C   0  0  0  0  0  0  0  0  0  0  0  0
   37.4440   22.9670   33.0690 N   0  0  0  0  0  0  0  0  0  0  0  0
   36.0110   20.2880   34.4780 H   0  0  0  0  0  0  0  0  0  0  0  0
   34.6380   20.4610   32.3710 H   0  0  0  0  0  0  0  0  0  0  0  0
   36.9090   23.8490   31.2190 H   0  0  0  0  0  0  0  0  0  0  0  0
  1  6  1  0  0  0  0
  1  2  1  0  0  0  0
  2  7  1  0  0  0  0
  2  3  1  0  0  0  0
  3  4  1  0  0  0  0
  3  9  1  0  0  0  0
  4 11  1  0  0  0  0
  5 14  1  0  0  0  0
  5 13  1  0  0  0  0
  5  4  1  0  0  0  0
  6 15  1  6  0  0  0
  6  5  1  0  0  0  0
  8  2  1  0  0  0  0
 10  3  1  0  0  0  0
 12  4  1  0  0  0  0
 17 16  1  0  0  0  0
 17 18  1  0  0  0  0
 18  6  1  0  0  0  0
 19 18  2  0  0  0  0
 19 20  1  0  0  0  0
 21 19  1  0  0  0  0
 22 21  1  0  0  0  0
 23 24  1  0  0  0  0
 23 21  2  0  0  0  0
 24 17  2  0  0  0  0
 25  1  1  0  0  0  0
 25 26  1  0  0  0  0
 27 25  1  0  0  0  0
 28 25  1  0  0  0  0
 29 28  1  0  0  0  0
 29 34  1  0  0  0  0
 30 29  2  0  0  0  0
 31 32  2  0  0  0  0
 31 30  1  0  0  0  0
 32 33  1  0  0  0  0
 33 28  2  0  0  0  0
 35 30  1  0  0  0  0
 36 32  1  0  0  0  0
M  END
>  <minimizedAffinity>
-5.14478302

$$$$

 OpenBabel03262523523D

 36 38  0  0  1  0  0  0  0  0999 V2000
   38.9150   25.1710   33.9670 N   0  0  0  0  0  0  0  0  0  0  0  0
   39.5250   26.4280   33.7540 C   0  0  0  0  0  0  0  0  0  0  0  0
   39.7570   27.1630   35.0280 C   0  0  0  0  0  0  0  0  0  0  0  0
   38.4180   27.1710   35.7730 C   0  0  0  0  0  0  0  0  0  0  0  0
   38.2760   25.7750   36.3030 C   0  0  0  0  0  0  0  0  0  0  0  0
   38.7640   24.7730   35.3350 C   0  0  2  0  0  0  0  0  0  0  0  0
   38.8030   27.0490   33.1600 H   0  0  0  0  0  0  0  0  0  0  0  0
   40.4300   26.3970   33.0950 H   0  0  0  0  0  0  0  0  0  0  0  0
   39.9170   28.2510   34.7900 H   0  0  0  0  0  0  0  0  0  0  0  0
   40.5130   26.7730   35.7030 H   0  0  0  0  0  0  0  0  0  0  0  0
   38.5270   27.8750   36.6300 H   0  0  0  0  0  0  0  0  0  0  0  0
   37.5710   27.4190   35.1240 H   0  0  0  0  0  0  0  0  0  0  0  0
   38.9470   25.7320   37.2100 H   0  0  0  0  0  0  0  0  0  0  0  0
   37.2560   25.6650   36.6770 H   0  0  0  0  0  0  0  0  0  0  0  0
   37.8840   24.0420   35.2590 H   0  0  0  0  0  0  0  0  0  0  0  0
   38.3320   22.9550   37.3820 F   0  0  0  0  0  0  0  0  0  0  0  0
   39.6030   22.9630   36.8670 C   0  0  0  0  0  0  0  0  0  0  0  0
   39.8510   23.8810   35.8330 C   0  0  0  0  0  0  0  0  0  0  0  0
   41.1530   23.8120   35.3860 C   0  0  0  0  0  0  0  0  0  0  0  0
   41.4310   24.4710   34.5920 H   0  0  0  0  0  0  0  0  0  0  0  0
   42.0930   22.9610   35.8810 C   0  0  0  0  0  0  0  0  0  0  0  0
   43.0960   22.9720   35.4700 H   0  0  0  0  0  0  0  0  0  0  0  0
   41.7850   22.0990   36.8830 C   0  0  0  0  0  3  0  0  0  0  0  0
   40.5110   22.0790   37.4090 C   0  0  0  0  0  3  0  0  0  0  0  0
   37.8000   24.8720   33.1320 C   0  0  0  0  0  0  0  0  0  0  0  0
   36.9370   24.4570   33.6900 H   0  0  0  0  0  0  0  0  0  0  0  0
   38.0510   24.1370   32.3370 H   0  0  0  0  0  0  0  0  0  0  0  0
   37.3070   26.0960   32.4530 C   0  0  0  0  0  0  0  0  0  0  0  0
   37.7060   26.3230   31.1250 C   0  0  0  0  0  0  0  0  0  0  0  0
   37.2490   27.4710   30.4740 C   0  0  0  0  0  0  0  0  0  0  0  0
   36.4380   28.3140   31.1620 N   0  0  0  0  0  0  0  0  0  0  0  0
   36.0680   28.0830   32.4250 C   0  0  0  0  0  0  0  0  0  0  0  0
   36.4970   26.9840   33.0680 N   0  0  0  0  0  0  0  0  0  0  0  0
   38.3580   25.5900   30.6570 H   0  0  0  0  0  0  0  0  0  0  0  0
   37.5530   27.6510   29.4510 H   0  0  0  0  0  0  0  0  0  0  0  0
   35.4130   28.7990   32.9250 H   0  0  0  0  0  0  0  0  0  0  0  0
  1  6  1  0  0  0  0
  2  1  1  0  0  0  0
  2  3  1  0  0  0  0
  3 10  1  0  0  0  0
  3  4  1  0  0  0  0
  4  5  1  0  0  0  0
  4 11  1  0  0  0  0
  5 14  1  0  0  0  0
  5 13  1  0  0  0  0
  6 15  1  6  0  0  0
  6 18  1  0  0  0  0
  6  5  1  0  0  0  0
  7  2  1  0  0  0  0
  8  2  1  0  0  0  0
  9  3  1  0  0  0  0
 12  4  1  0  0  0  0
 17 16  1  0  0  0  0
 17 24  1  0  0  0  0
 18 17  2  0  0  0  0
 19 18  1  0  0  0  0
 19 21  2  0  0  0  0
 20 19  1  0  0  0  0
 21 23  1  0  0  0  0
 22 21  1  0  0  0  0
 23 24  2  0  0  0  0
 25 26  1  0  0  0  0
 25  1  1  0  0  0  0
 27 25  1  0  0  0  0
 28 33  1  0  0  0  0
 28 25  1  0  0  0  0
 29 28  2  0  0  0  0
 30 29  1  0  0  0  0
 30 31  2  0  0  0  0
 31 32  1  0  0  0  0
 32 36  1  0  0  0  0
 32 33  2  0  0  0  0
 34 29  1  0  0  0  0
 35 30  1  0  0  0  0
M  END
>  <minimizedAffinity>
-5.11710548

$$$$

 OpenBabel03262523523D

 36 38  0  0  1  0  0  0  0  0999 V2000
   37.8920   25.5830   34.3410 N   0  0  0  0  0  0  0  0  0  0  0  0
   37.9600   26.1530   35.6330 C   0  0  0  0  0  0  0  0  0  0  0  0
   38.8880   27.3170   35.6850 C   0  0  0  0  0  0  0  0  0  0  0  0
   40.2120   26.8440   35.0760 C   0  0  0  0  0  0  0  0  0  0  0  0
   39.9460   26.7910   33.6000 C   0  0  0  0  0  0  0  0  0  0  0  0
   38.5880   26.2900   33.3080 C   0  0  2  0  0  0  0  0  0  0  0  0
   38.3960   25.3750   36.3150 H   0  0  0  0  0  0  0  0  0  0  0  0
   36.9640   26.3650   36.0990 H   0  0  0  0  0  0  0  0  0  0  0  0
   39.1610   27.5090   36.7590 H   0  0  0  0  0  0  0  0  0  0  0  0
   38.5860   28.2230   35.1680 H   0  0  0  0  0  0  0  0  0  0  0  0
   40.9650   27.6380   35.2800 H   0  0  0  0  0  0  0  0  0  0  0  0
   40.5210   25.8590   35.4420 H   0  0  0  0  0  0  0  0  0  0  0  0
   40.0000   27.8630   33.2500 H   0  0  0  0  0  0  0  0  0  0  0  0
   40.7880   26.2780   33.1310 H   0  0  0  0  0  0  0  0  0  0  0  0
   38.7840   25.4480   32.5550 H   0  0  0  0  0  0  0  0  0  0  0  0
   38.7480   26.4070   30.5440 F   0  0  0  0  0  0  0  0  0  0  0  0
   37.8220   27.2450   31.1110 C   0  0  0  0  0  0  0  0  0  0  0  0
   37.7260   27.2100   32.5120 C   0  0  0  0  0  0  0  0  0  0  0  0
   36.7710   28.0850   32.9830 C   0  0  0  0  0  0  0  0  0  0  0  0
   36.6220   28.1210   34.0410 H   0  0  0  0  0  0  0  0  0  0  0  0
   36.0080   28.8900   32.1930 C   0  0  0  0  0  0  0  0  0  0  0  0
   35.2770   29.5500   32.6480 H   0  0  0  0  0  0  0  0  0  0  0  0
   36.1540   28.8740   30.8450 C   0  0  0  0  0  3  0  0  0  0  0  0
   37.0800   28.0360   30.2610 C   0  0  0  0  0  3  0  0  0  0  0  0
   38.0120   24.1650   34.2800 C   0  0  0  0  0  0  0  0  0  0  0  0
   38.5430   23.8120   33.3740 H   0  0  0  0  0  0  0  0  0  0  0  0
   37.0260   23.6540   34.2940 H   0  0  0  0  0  0  0  0  0  0  0  0
   38.7840   23.6510   35.4400 C   0  0  0  0  0  0  0  0  0  0  0  0
   40.1350   23.3190   35.2410 C   0  0  0  0  0  0  0  0  0  0  0  0
   40.8730   22.8350   36.3240 C   0  0  0  0  0  0  0  0  0  0  0  0
   40.2430   22.7090   37.5190 N   0  0  0  0  0  0  0  0  0  0  0  0
   38.9570   23.0300   37.6910 C   0  0  0  0  0  0  0  0  0  0  0  0
   38.2310   23.4970   36.6620 N   0  0  0  0  0  0  0  0  0  0  0  0
   40.5510   23.4540   34.2460 H   0  0  0  0  0  0  0  0  0  0  0  0
   41.9140   22.5770   36.1770 H   0  0  0  0  0  0  0  0  0  0  0  0
   38.5070   22.9060   38.6770 H   0  0  0  0  0  0  0  0  0  0  0  0
  1  2  1  0  0  0  0
  2  3  1  0  0  0  0
  2  8  1  0  0  0  0
  2  7  1  0  0  0  0
  3  9  1  0  0  0  0
  4 11  1  0  0  0  0
  4 12  1  0  0  0  0
  4  3  1  0  0  0  0
  5  4  1  0  0  0  0
  6 15  1  6  0  0  0
  6  5  1  0  0  0  0
  6  1  1  0  0  0  0
 10  3  1  0  0  0  0
 13  5  1  0  0  0  0
 14  5  1  0  0  0  0
 16 17  1  0  0  0  0
 17 18  1  0  0  0  0
 18 19  2  0  0  0  0
 18  6  1  0  0  0  0
 19 20  1  0  0  0  0
 21 22  1  0  0  0  0
 21 19  1  0  0  0  0
 23 21  2  0  0  0  0
 24 23  1  0  0  0  0
 24 17  2  0  0  0  0
 25 27  1  0  0  0  0
 25  1  1  0  0  0  0
 25 28  1  0  0  0  0
 26 25  1  0  0  0  0
 28 33  1  0  0  0  0
 29 28  2  0  0  0  0
 29 30  1  0  0  0  0
 30 31  2  0  0  0  0
 31 32  1  0  0  0  0
 32 36  1  0  0  0  0
 33 32  2  0  0  0  0
 34 29  1  0  0  0  0
 35 30  1  0  0  0  0
M  END
>  <minimizedAffinity>
-5.11451817

$$$$

 OpenBabel03262523523D

 36 38  0  0  1  0  0  0  0  0999 V2000
   38.4370   23.0560   35.7440 N   0  0  0  0  0  0  0  0  0  0  0  0
   37.8450   24.3390   35.7480 C   0  0  0  0  0  0  0  0  0  0  0  0
   38.2340   25.1330   36.9470 C   0  0  0  0  0  0  0  0  0  0  0  0
   37.9520   24.2470   38.1640 C   0  0  0  0  0  0  0  0  0  0  0  0
   39.0600   23.2340   38.1540 C   0  0  0  0  0  0  0  0  0  0  0  0
   39.3920   22.8030   36.7820 C   0  0  2  0  0  0  0  0  0  0  0  0
   36.7340   24.1910   35.8180 H   0  0  0  0  0  0  0  0  0  0  0  0
   37.9630   24.9060   34.7900 H   0  0  0  0  0  0  0  0  0  0  0  0
   37.4980   25.9740   37.0740 H   0  0  0  0  0  0  0  0  0  0  0  0
   39.2640   25.4730   37.0110 H   0  0  0  0  0  0  0  0  0  0  0  0
   38.0580   24.8910   39.0670 H   0  0  0  0  0  0  0  0  0  0  0  0
   36.9790   23.7460   38.1100 H   0  0  0  0  0  0  0  0  0  0  0  0
   39.9590   23.7740   38.5720 H   0  0  0  0  0  0  0  0  0  0  0  0
   38.8070   22.4610   38.8820 H   0  0  0  0  0  0  0  0  0  0  0  0
   39.3450   21.6600   36.8550 H   0  0  0  0  0  0  0  0  0  0  0  0
   41.4500   21.2330   37.7710 F   0  0  0  0  0  0  0  0  0  0  0  0
   41.8320   22.2040   36.8810 C   0  0  0  0  0  0  0  0  0  0  0  0
   40.8090   23.0190   36.3700 C   0  0  0  0  0  0  0  0  0  0  0  0
   41.2940   23.9610   35.4890 C   0  0  0  0  0  0  0  0  0  0  0  0
   40.5840   24.6230   35.0420 H   0  0  0  0  0  0  0  0  0  0  0  0
   42.6060   24.0930   35.1490 C   0  0  0  0  0  0  0  0  0  0  0  0
   42.9020   24.8630   34.4450 H   0  0  0  0  0  0  0  0  0  0  0  0
   43.5440   23.2710   35.6820 C   0  0  0  0  0  3  0  0  0  0  0  0
   43.1740   22.2900   36.5760 C   0  0  0  0  0  3  0  0  0  0  0  0
   37.5610   21.9680   35.4620 C   0  0  0  0  0  0  0  0  0  0  0  0
   36.5110   22.1670   35.7560 H   0  0  0  0  0  0  0  0  0  0  0  0
   37.8670   21.0330   35.9780 H   0  0  0  0  0  0  0  0  0  0  0  0
   37.5360   21.6750   34.0070 C   0  0  0  0  0  0  0  0  0  0  0  0
   38.7590   21.6440   33.3170 C   0  0  0  0  0  0  0  0  0  0  0  0
   38.7500   21.3690   31.9480 C   0  0  0  0  0  0  0  0  0  0  0  0
   37.5530   21.1450   31.3500 N   0  0  0  0  0  0  0  0  0  0  0  0
   36.3980   21.1780   32.0220 C   0  0  0  0  0  0  0  0  0  0  0  0
   36.3860   21.4410   33.3390 N   0  0  0  0  0  0  0  0  0  0  0  0
   39.6680   21.8370   33.8820 H   0  0  0  0  0  0  0  0  0  0  0  0
   39.6900   21.3440   31.4100 H   0  0  0  0  0  0  0  0  0  0  0  0
   35.4660   20.9890   31.4850 H   0  0  0  0  0  0  0  0  0  0  0  0
  1  2  1  0  0  0  0
  1  6  1  0  0  0  0
  2  7  1  0  0  0  0
  2  3  1  0  0  0  0
  3 10  1  0  0  0  0
  3  9  1  0  0  0  0
  3  4  1  0  0  0  0
  4 11  1  0  0  0  0
  5  4  1  0  0  0  0
  5 13  1  0  0  0  0
  5 14  1  0  0  0  0
  6 15  1  1  0  0  0
  6  5  1  0  0  0  0
  8  2  1  0  0  0  0
 12  4  1  0  0  0  0
 17 16  1  0  0  0  0
 18  6  1  0  0  0  0
 18 17  2  0  0  0  0
 19 18  1  0  0  0  0
 20 19  1  0  0  0  0
 21 19  2  0  0  0  0
 21 23  1  0  0  0  0
 22 21  1  0  0  0  0
 23 24  2  0  0  0  0
 24 17  1  0  0  0  0
 25  1  1  0  0  0  0
 25 26  1  0  0  0  0
 25 27  1  0  0  0  0
 28 25  1  0  0  0  0
 29 34  1  0  0  0  0
 29 28  2  0  0  0  0
 30 29  1  0  0  0  0
 31 30  2  0  0  0  0
 31 32  1  0  0  0  0
 32 33  2  0  0  0  0
 33 28  1  0  0  0  0
 35 30  1  0  0  0  0
 36 32  1  0  0  0  0
M  END
>  <minimizedAffinity>
-4.99774027

$$$$

 OpenBabel03262523523D

 36 38  0  0  1  0  0  0  0  0999 V2000
   38.0160   24.6590   33.6520 N   0  0  0  0  0  0  0  0  0  0  0  0
   37.3250   25.8650   33.3970 C   0  0  0  0  0  0  0  0  0  0  0  0
   36.9390   26.0010   31.9650 C   0  0  0  0  0  0  0  0  0  0  0  0
   38.2140   25.7580   31.1490 C   0  0  0  0  0  0  0  0  0  0  0  0
   38.4260   24.2740   31.2210 C   0  0  0  0  0  0  0  0  0  0  0  0
   38.0950   23.7400   32.5560 C   0  0  2  0  0  0  0  0  0  0  0  0
   38.0370   26.7060   33.6110 H   0  0  0  0  0  0  0  0  0  0  0  0
   36.4770   26.0700   34.1000 H   0  0  0  0  0  0  0  0  0  0  0  0
   36.7110   27.0820   31.7560 H   0  0  0  0  0  0  0  0  0  0  0  0
   36.1680   25.3360   31.5870 H   0  0  0  0  0  0  0  0  0  0  0  0
   37.9840   26.0410   30.0960 H   0  0  0  0  0  0  0  0  0  0  0  0
   39.0840   26.2860   31.5520 H   0  0  0  0  0  0  0  0  0  0  0  0
   37.6950   23.8330   30.4820 H   0  0  0  0  0  0  0  0  0  0  0  0
   39.4210   24.0630   30.8220 H   0  0  0  0  0  0  0  0  0  0  0  0
   39.0340   23.1430   32.8330 H   0  0  0  0  0  0  0  0  0  0  0  0
   38.2940   21.5330   34.2210 F   0  0  0  0  0  0  0  0  0  0  0  0
   37.1700   21.5730   33.4350 C   0  0  0  0  0  0  0  0  0  0  0  0
   37.0480   22.6770   32.5770 C   0  0  0  0  0  0  0  0  0  0  0  0
   35.8900   22.6240   31.8310 C   0  0  0  0  0  0  0  0  0  0  0  0
   35.7080   23.4290   31.1530 H   0  0  0  0  0  0  0  0  0  0  0  0
   34.9690   21.6240   31.9110 C   0  0  0  0  0  0  0  0  0  0  0  0
   34.0820   21.6600   31.2880 H   0  0  0  0  0  0  0  0  0  0  0  0
   35.1500   20.5840   32.7630 C   0  0  0  0  0  3  0  0  0  0  0  0
   36.2740   20.5320   33.5600 C   0  0  0  0  0  3  0  0  0  0  0  0
   39.2100   24.7780   34.4190 C   0  0  0  0  0  0  0  0  0  0  0  0
   39.5440   25.8260   34.5460 H   0  0  0  0  0  0  0  0  0  0  0  0
   40.0610   24.2230   33.9670 H   0  0  0  0  0  0  0  0  0  0  0  0
   39.0150   24.2350   35.7870 C   0  0  0  0  0  0  0  0  0  0  0  0
   39.9940   23.3680   36.3010 C   0  0  0  0  0  0  0  0  0  0  0  0
   39.8230   22.8510   37.5870 C   0  0  0  0  0  0  0  0  0  0  0  0
   38.7120   23.2130   38.2780 N   0  0  0  0  0  0  0  0  0  0  0  0
   37.7900   24.0380   37.7730 C   0  0  0  0  0  0  0  0  0  0  0  0
   37.9380   24.5460   36.5380 N   0  0  0  0  0  0  0  0  0  0  0  0
   40.8500   23.1360   35.6720 H   0  0  0  0  0  0  0  0  0  0  0  0
   40.5740   22.1820   37.9890 H   0  0  0  0  0  0  0  0  0  0  0  0
   36.9180   24.2920   38.3780 H   0  0  0  0  0  0  0  0  0  0  0  0
  1 25  1  0  0  0  0
  2  7  1  0  0  0  0
  2  1  1  0  0  0  0
  2  8  1  0  0  0  0
  3  2  1  0  0  0  0
  4  5  1  0  0  0  0
  4 12  1  0  0  0  0
  4  3  1  0  0  0  0
  5  6  1  0  0  0  0
  6 18  1  0  0  0  0
  6 15  1  1  0  0  0
  6  1  1  0  0  0  0
  9  3  1  0  0  0  0
 10  3  1  0  0  0  0
 11  4  1  0  0  0  0
 13  5  1  0  0  0  0
 14  5  1  0  0  0  0
 17 24  1  0  0  0  0
 17 16  1  0  0  0  0
 18 17  2  0  0  0  0
 19 21  2  0  0  0  0
 19 18  1  0  0  0  0
 20 19  1  0  0  0  0
 21 23  1  0  0  0  0
 22 21  1  0  0  0  0
 23 24  2  0  0  0  0
 25 26  1  0  0  0  0
 25 28  1  0  0  0  0
 27 25  1  0  0  0  0
 28 29  2  0  0  0  0
 28 33  1  0  0  0  0
 29 30  1  0  0  0  0
 30 35  1  0  0  0  0
 30 31  2  0  0  0  0
 32 31  1  0  0  0  0
 32 36  1  0  0  0  0
 33 32  2  0  0  0  0
 34 29  1  0  0  0  0
M  END
>  <minimizedAffinity>
-4.98143816

$$$$

 OpenBabel03262523523D

 36 38  0  0  1  0  0  0  0  0999 V2000
   38.9040   24.6860   33.3510 N   0  0  0  0  0  0  0  0  0  0  0  0
   39.9850   24.9760   32.4880 C   0  0  0  0  0  0  0  0  0  0  0  0
   40.9420   25.9450   33.0920 C   0  0  0  0  0  0  0  0  0  0  0  0
   40.1070   27.1390   33.5670 C   0  0  0  0  0  0  0  0  0  0  0  0
   39.4210   26.6450   34.8070 C   0  0  0  0  0  0  0  0  0  0  0  0
   38.9900   25.2410   34.6700 C   0  0  2  0  0  0  0  0  0  0  0  0
   39.5580   25.4820   31.5820 H   0  0  0  0  0  0  0  0  0  0  0  0
   40.4890   24.0740   32.0580 H   0  0  0  0  0  0  0  0  0  0  0  0
   41.5680   26.3890   32.2700 H   0  0  0  0  0  0  0  0  0  0  0  0
   41.5420   25.6020   33.9290 H   0  0  0  0  0  0  0  0  0  0  0  0
   40.8230   27.9460   33.8450 H   0  0  0  0  0  0  0  0  0  0  0  0
   39.3670   27.4630   32.8270 H   0  0  0  0  0  0  0  0  0  0  0  0
   40.2070   26.6860   35.6170 H   0  0  0  0  0  0  0  0  0  0  0  0
   38.6660   27.3840   35.0840 H   0  0  0  0  0  0  0  0  0  0  0  0
   37.8830   25.2840   34.9650 H   0  0  0  0  0  0  0  0  0  0  0  0
   37.5280   24.5150   36.9100 F   0  0  0  0  0  0  0  0  0  0  0  0
   38.7720   23.9450   36.8140 C   0  0  0  0  0  0  0  0  0  0  0  0
   39.5360   24.3020   35.6910 C   0  0  0  0  0  0  0  0  0  0  0  0
   40.7660   23.6790   35.6880 C   0  0  0  0  0  0  0  0  0  0  0  0
   41.4150   23.8860   34.8640 H   0  0  0  0  0  0  0  0  0  0  0  0
   41.1960   22.8200   36.6520 C   0  0  0  0  0  0  0  0  0  0  0  0
   42.1800   22.3720   36.5710 H   0  0  0  0  0  0  0  0  0  0  0  0
   40.4050   22.5190   37.7120 C   0  0  0  0  0  3  0  0  0  0  0  0
   39.1520   23.0830   37.8210 C   0  0  0  0  0  3  0  0  0  0  0  0
   37.6080   24.7400   32.7640 C   0  0  0  0  0  0  0  0  0  0  0  0
   37.5880   25.2890   31.8020 H   0  0  0  0  0  0  0  0  0  0  0  0
   36.8620   25.2290   33.4270 H   0  0  0  0  0  0  0  0  0  0  0  0
   37.1030   23.3750   32.4740 C   0  0  0  0  0  0  0  0  0  0  0  0
   36.1200   23.2300   31.4800 C   0  0  0  0  0  0  0  0  0  0  0  0
   35.6360   21.9500   31.1970 C   0  0  0  0  0  0  0  0  0  0  0  0
   36.1420   20.9060   31.9010 N   0  0  0  0  0  0  0  0  0  0  0  0
   37.0770   21.0630   32.8440 C   0  0  0  0  0  0  0  0  0  0  0  0
   37.5550   22.2850   33.1300 N   0  0  0  0  0  0  0  0  0  0  0  0
   35.7760   24.1260   30.9700 H   0  0  0  0  0  0  0  0  0  0  0  0
   34.8790   21.8320   30.4320 H   0  0  0  0  0  0  0  0  0  0  0  0
   37.4450   20.1840   33.3760 H   0  0  0  0  0  0  0  0  0  0  0  0
  1  6  1  0  0  0  0
  2  3  1  0  0  0  0
  2  1  1  0  0  0  0
  3  4  1  0  0  0  0
  3 10  1  0  0  0  0
  4 11  1  0  0  0  0
  4  5  1  0  0  0  0
  5 14  1  0  0  0  0
  5 13  1  0  0  0  0
  6  5  1  0  0  0  0
  6 15  1  1  0  0  0
  6 18  1  0  0  0  0
  7  2  1  0  0  0  0
  8  2  1  0  0  0  0
  9  3  1  0  0  0  0
 12  4  1  0  0  0  0
 17 16  1  0  0  0  0
 17 24  1  0  0  0  0
 18 17  2  0  0  0  0
 19 18  1  0  0  0  0
 19 21  2  0  0  0  0
 20 19  1  0  0  0  0
 21 23  1  0  0  0  0
 22 21  1  0  0  0  0
 23 24  2  0  0  0  0
 25  1  1  0  0  0  0
 25 27  1  0  0  0  0
 26 25  1  0  0  0  0
 28 25  1  0  0  0  0
 28 33  1  0  0  0  0
 29 28  2  0  0  0  0
 30 29  1  0  0  0  0
 30 31  2  0  0  0  0
 31 32  1  0  0  0  0
 32 33  2  0  0  0  0
 32 36  1  0  0  0  0
 34 29  1  0  0  0  0
 35 30  1  0  0  0  0
M  END
>  <minimizedAffinity>
-4.97081757

$$$$

 OpenBabel03262523523D

 36 38  0  0  1  0  0  0  0  0999 V2000
   38.2670   25.4450   33.6920 N   0  0  0  0  0  0  0  0  0  0  0  0
   38.1230   25.6530   35.0830 C   0  0  0  0  0  0  0  0  0  0  0  0
   38.7900   26.9050   35.5370 C   0  0  0  0  0  0  0  0  0  0  0  0
   40.2240   26.8500   35.0000 C   0  0  0  0  0  0  0  0  0  0  0  0
   40.0860   27.1470   33.5350 C   0  0  0  0  0  0  0  0  0  0  0  0
   38.8840   26.5120   32.9610 C   0  0  2  0  0  0  0  0  0  0  0  0
   38.6530   24.8100   35.6000 H   0  0  0  0  0  0  0  0  0  0  0  0
   37.0720   25.5560   35.4580 H   0  0  0  0  0  0  0  0  0  0  0  0
   38.9380   26.8490   36.6500 H   0  0  0  0  0  0  0  0  0  0  0  0
   38.3520   27.8490   35.2260 H   0  0  0  0  0  0  0  0  0  0  0  0
   40.7850   27.6810   35.4870 H   0  0  0  0  0  0  0  0  0  0  0  0
   40.6970   25.8730   35.1470 H   0  0  0  0  0  0  0  0  0  0  0  0
   39.9500   28.2660   33.4700 H   0  0  0  0  0  0  0  0  0  0  0  0
   41.0480   26.9330   33.0630 H   0  0  0  0  0  0  0  0  0  0  0  0
   39.3010   25.9490   32.0540 H   0  0  0  0  0  0  0  0  0  0  0  0
   39.1620   27.2980   30.3180 F   0  0  0  0  0  0  0  0  0  0  0  0
   38.0770   27.8230   30.9720 C   0  0  0  0  0  0  0  0  0  0  0  0
   37.9160   27.4460   32.3150 C   0  0  0  0  0  0  0  0  0  0  0  0
   36.8010   28.0240   32.8820 C   0  0  0  0  0  0  0  0  0  0  0  0
   36.5940   27.7880   33.9030 H   0  0  0  0  0  0  0  0  0  0  0  0
   35.9510   28.8620   32.2260 C   0  0  0  0  0  0  0  0  0  0  0  0
   35.0940   29.2730   32.7480 H   0  0  0  0  0  0  0  0  0  0  0  0
   36.1660   29.1850   30.9260 C   0  0  0  0  0  3  0  0  0  0  0  0
   37.2530   28.6640   30.2560 C   0  0  0  0  0  3  0  0  0  0  0  0
   38.6750   24.1390   33.2990 C   0  0  0  0  0  0  0  0  0  0  0  0
   39.1530   23.5660   34.1170 H   0  0  0  0  0  0  0  0  0  0  0  0
   39.3990   24.1570   32.4550 H   0  0  0  0  0  0  0  0  0  0  0  0
   37.5100   23.3340   32.8540 C   0  0  0  0  0  0  0  0  0  0  0  0
   36.6670   23.8770   31.8690 C   0  0  0  0  0  0  0  0  0  0  0  0
   35.5660   23.1310   31.4420 C   0  0  0  0  0  0  0  0  0  0  0  0
   35.3660   21.9120   32.0040 N   0  0  0  0  0  0  0  0  0  0  0  0
   36.1780   21.4100   32.9390 C   0  0  0  0  0  0  0  0  0  0  0  0
   37.2410   22.1130   33.3630 N   0  0  0  0  0  0  0  0  0  0  0  0
   36.9090   24.8630   31.4790 H   0  0  0  0  0  0  0  0  0  0  0  0
   34.9140   23.5440   30.6840 H   0  0  0  0  0  0  0  0  0  0  0  0
   35.9630   20.4230   33.3530 H   0  0  0  0  0  0  0  0  0  0  0  0
  1  2  1  0  0  0  0
  2  8  1  0  0  0  0
  2  3  1  0  0  0  0
  2  7  1  0  0  0  0
  3  9  1  0  0  0  0
  4 12  1  0  0  0  0
  4 11  1  0  0  0  0
  4  3  1  0  0  0  0
  5  4  1  0  0  0  0
  6 15  1  6  0  0  0
  6  5  1  0  0  0  0
  6  1  1  0  0  0  0
 10  3  1  0  0  0  0
 13  5  1  0  0  0  0
 14  5  1  0  0  0  0
 16 17  1  0  0  0  0
 17 18  1  0  0  0  0
 18 19  2  0  0  0  0
 18  6  1  0  0  0  0
 19 20  1  0  0  0  0
 21 22  1  0  0  0  0
 21 19  1  0  0  0  0
 23 21  2  0  0  0  0
 24 23  1  0  0  0  0
 24 17  2  0  0  0  0
 25  1  1  0  0  0  0
 25 26  1  0  0  0  0
 27 25  1  0  0  0  0
 28 25  1  0  0  0  0
 28 33  1  0  0  0  0
 29 28  2  0  0  0  0
 30 29  1  0  0  0  0
 30 31  2  0  0  0  0
 31 32  1  0  0  0  0
 32 36  1  0  0  0  0
 32 33  2  0  0  0  0
 34 29  1  0  0  0  0
 35 30  1  0  0  0  0
M  END
>  <minimizedAffinity>
-4.94283295

$$$$

 OpenBabel03262523523D

 36 38  0  0  1  0  0  0  0  0999 V2000
   38.0200   25.6330   33.9070 N   0  0  0  0  0  0  0  0  0  0  0  0
   37.3740   24.8400   32.9320 C   0  0  0  0  0  0  0  0  0  0  0  0
   37.0510   25.6150   31.7010 C   0  0  0  0  0  0  0  0  0  0  0  0
   36.3060   26.8720   32.1640 C   0  0  0  0  0  0  0  0  0  0  0  0
   37.3770   27.7470   32.7470 C   0  0  0  0  0  0  0  0  0  0  0  0
   38.3730   26.9610   33.5000 C   0  0  2  0  0  0  0  0  0  0  0  0
   36.3900   24.5190   33.3660 H   0  0  0  0  0  0  0  0  0  0  0  0
   37.8820   23.8660   32.7150 H   0  0  0  0  0  0  0  0  0  0  0  0
   36.2640   25.0570   31.1220 H   0  0  0  0  0  0  0  0  0  0  0  0
   37.8800   25.9290   31.0740 H   0  0  0  0  0  0  0  0  0  0  0  0
   35.8960   27.3600   31.2500 H   0  0  0  0  0  0  0  0  0  0  0  0
   35.5380   26.6590   32.9140 H   0  0  0  0  0  0  0  0  0  0  0  0
   37.9010   28.2070   31.8590 H   0  0  0  0  0  0  0  0  0  0  0  0
   36.8830   28.5710   33.2660 H   0  0  0  0  0  0  0  0  0  0  0  0
   38.4130   27.5000   34.5110 H   0  0  0  0  0  0  0  0  0  0  0  0
   40.5000   27.0040   35.2760 F   0  0  0  0  0  0  0  0  0  0  0  0
   40.8420   27.1110   33.9520 C   0  0  0  0  0  0  0  0  0  0  0  0
   39.7820   27.0990   33.0310 C   0  0  0  0  0  0  0  0  0  0  0  0
   40.2280   27.2130   31.7320 C   0  0  0  0  0  0  0  0  0  0  0  0
   39.4900   27.2050   30.9600 H   0  0  0  0  0  0  0  0  0  0  0  0
   41.5380   27.3240   31.3750 C   0  0  0  0  0  0  0  0  0  0  0  0
   41.8020   27.4080   30.3270 H   0  0  0  0  0  0  0  0  0  0  0  0
   42.5130   27.3290   32.3180 C   0  0  0  0  0  3  0  0  0  0  0  0
   42.1840   27.2210   33.6520 C   0  0  0  0  0  3  0  0  0  0  0  0
   37.5050   25.5320   35.2310 C   0  0  0  0  0  0  0  0  0  0  0  0
   36.4660   25.1490   35.2670 H   0  0  0  0  0  0  0  0  0  0  0  0
   37.5060   26.5080   35.7620 H   0  0  0  0  0  0  0  0  0  0  0  0
   38.3210   24.5940   36.0430 C   0  0  0  0  0  0  0  0  0  0  0  0
   37.8870   24.2970   37.3470 C   0  0  0  0  0  0  0  0  0  0  0  0
   38.6450   23.4160   38.1210 C   0  0  0  0  0  0  0  0  0  0  0  0
   39.7680   22.8890   37.5730 N   0  0  0  0  0  0  0  0  0  0  0  0
   40.1660   23.1820   36.3310 C   0  0  0  0  0  0  0  0  0  0  0  0
   39.4510   24.0270   35.5710 N   0  0  0  0  0  0  0  0  0  0  0  0
   36.9730   24.7690   37.6990 H   0  0  0  0  0  0  0  0  0  0  0  0
   38.3150   23.1840   39.1270 H   0  0  0  0  0  0  0  0  0  0  0  0
   41.0800   22.7250   35.9460 H   0  0  0  0  0  0  0  0  0  0  0  0
  1 25  1  0  0  0  0
  2  7  1  0  0  0  0
  2  1  1  0  0  0  0
  3  4  1  0  0  0  0
  3  2  1  0  0  0  0
  4  5  1  0  0  0  0
  4 12  1  0  0  0  0
  5 14  1  0  0  0  0
  5  6  1  0  0  0  0
  6  1  1  0  0  0  0
  6 15  1  1  0  0  0
  8  2  1  0  0  0  0
  9  3  1  0  0  0  0
 10  3  1  0  0  0  0
 11  4  1  0  0  0  0
 13  5  1  0  0  0  0
 17 16  1  0  0  0  0
 18  6  1  0  0  0  0
 18 17  2  0  0  0  0
 19 18  1  0  0  0  0
 20 19  1  0  0  0  0
 21 19  2  0  0  0  0
 21 23  1  0  0  0  0
 22 21  1  0  0  0  0
 23 24  2  0  0  0  0
 24 17  1  0  0  0  0
 25 26  1  0  0  0  0
 25 27  1  0  0  0  0
 25 28  1  0  0  0  0
 28 29  1  0  0  0  0
 29 34  1  0  0  0  0
 29 30  2  0  0  0  0
 30 35  1  0  0  0  0
 31 30  1  0  0  0  0
 32 31  2  0  0  0  0
 33 28  2  0  0  0  0
 33 32  1  0  0  0  0
 36 32  1  0  0  0  0
M  END
>  <minimizedAffinity>
-4.93855858

$$$$
