
 OpenBabel03272503563D

 34 37  0  0  0  0  0  0  0  0999 V2000
   37.3700   30.0890   50.5660 C   0  0  0  0  0  0  0  0  0  0  0  0
   38.3040   30.7770   49.7960 C   0  0  0  0  0  0  0  0  0  0  0  0
   37.9930   30.9160   48.4700 C   0  0  0  0  0  0  0  0  0  0  0  0
   36.8510   30.3980   48.0180 N   0  0  0  0  0  0  0  0  0  0  0  0
   35.9510   29.7430   48.7240 C   0  0  0  0  0  0  0  0  0  0  0  0
   36.2780   29.6240   49.9990 N   0  0  0  0  0  0  0  0  0  0  0  0
   39.1810   31.1560   50.2230 H   0  0  0  0  0  0  0  0  0  0  0  0
   34.6670   29.1470   48.3830 C   0  0  0  0  0  0  0  0  0  0  0  0
   33.9170   28.4700   49.2880 N   0  0  0  0  0  0  0  0  0  0  0  0
   32.7300   27.9420   48.9690 C   0  0  0  0  0  0  0  0  0  0  0  0
   32.1740   28.0260   47.7560 N   0  0  0  0  0  0  0  0  0  0  0  0
   32.8730   28.6890   46.8050 C   0  0  0  0  0  0  0  0  0  0  0  0
   32.3120   28.7850   45.5460 C   0  0  0  0  0  0  0  0  0  0  0  0
   32.9750   29.4450   44.5450 C   0  0  0  0  0  0  0  0  0  0  0  0
   34.2040   29.9920   44.8660 C   0  0  0  0  0  0  0  0  0  0  0  0
   34.7170   29.8700   46.1340 C   0  0  0  0  0  0  0  0  0  0  0  0
   34.0830   29.2210   47.1500 C   0  0  0  0  0  0  0  0  0  0  0  0
   32.1980   27.4100   49.7790 H   0  0  0  0  0  0  0  0  0  0  0  0
   31.3470   28.3430   45.3290 H   0  0  0  0  0  0  0  0  0  0  0  0
   32.5210   29.5080   43.5690 H   0  0  0  0  0  0  0  0  0  0  0  0
   34.6940   30.5070   44.0390 H   0  0  0  0  0  0  0  0  0  0  0  0
   35.6810   30.3450   46.2180 H   0  0  0  0  0  0  0  0  0  0  0  0
   38.9360   33.6510   48.5600 F   0  0  0  0  0  0  0  0  0  0  0  0
   39.2830   32.8850   47.5100 C   0  0  0  0  0  0  0  0  0  0  0  0
   38.8230   31.5960   47.4930 C   0  0  0  0  0  0  0  0  0  0  0  0
   39.2480   30.9130   46.3650 C   0  0  0  0  0  0  0  0  0  0  0  0
   38.9640   29.8660   46.2000 H   0  0  0  0  0  0  0  0  0  0  0  0
   40.0360   31.4590   45.3780 C   0  0  0  0  0  0  0  0  0  0  0  0
   40.3340   30.8750   44.5230 H   0  0  0  0  0  0  0  0  0  0  0  0
   40.4580   32.7610   45.4660 C   0  0  0  0  0  0  0  0  0  0  0  0
   40.0690   33.4940   46.5650 C   0  0  0  0  0  0  0  0  0  0  0  0
   37.5660   29.8700   51.9890 N   0  0  0  0  0  0  0  0  0  0  0  0
   37.5990   30.8520   52.3930 H   0  0  0  0  0  0  0  0  0  0  0  0
   37.6340   28.8880   52.3370 H   0  0  0  0  0  0  0  0  0  0  0  0
  1 32  1  0  0  0  0
  2  7  1  0  0  0  0
  2  1  2  0  0  0  0
  3  2  1  0  0  0  0
  4  3  2  0  0  0  0
  4  5  1  0  0  0  0
  5  6  2  0  0  0  0
  6  1  1  0  0  0  0
  8  5  1  0  0  0  0
  8  9  1  0  0  0  0
 10  9  2  0  0  0  0
 10 18  1  0  0  0  0
 11 10  1  0  0  0  0
 12 17  1  0  0  0  0
 12 11  2  0  0  0  0
 13 12  1  0  0  0  0
 14 15  1  0  0  0  0
 14 13  2  0  0  0  0
 15 16  2  0  0  0  0
 16 22  1  0  0  0  0
 16 17  1  0  0  0  0
 17  8  2  0  0  0  0
 19 13  1  0  0  0  0
 20 14  1  0  0  0  0
 21 15  1  0  0  0  0
 24 23  1  0  0  0  0
 25 24  1  0  0  0  0
 25  3  1  0  0  0  0
 26 25  2  0  0  0  0
 27 26  1  0  0  0  0
 28 30  2  0  0  0  0
 28 26  1  0  0  0  0
 29 28  1  0  0  0  0
 30 31  1  0  0  0  0
 31 24  2  0  0  0  0
 32 34  1  0  0  0  0
 32 33  1  0  0  0  0
M  END
>  <minimizedAffinity>
-7.28250456

>  <minimizedRMSD>
1.30292487

$$$$
