
 OpenBabel03272509503D

 33 35  0  0  0  0  0  0  0  0999 V2000
   37.3300   30.1750   51.5150 C   0  0  0  0  0  0  0  0  0  0  0  0
   38.0730   30.8650   50.5190 C   0  0  0  0  0  0  0  0  0  0  0  0
   37.7100   30.6530   49.2030 C   0  0  0  0  0  0  0  0  0  0  0  0
   36.6640   29.7940   48.9750 N   0  0  0  0  0  0  0  0  0  0  0  0
   35.9880   29.1600   49.9310 C   0  0  0  0  0  0  0  0  0  0  0  0
   36.3320   29.3600   51.2170 N   0  0  0  0  0  0  0  0  0  0  0  0
   37.6140   30.3410   52.5500 H   0  0  0  0  0  0  0  0  0  0  0  0
   38.8800   31.5230   50.7660 H   0  0  0  0  0  0  0  0  0  0  0  0
   38.9420   33.2660   49.0060 F   0  0  0  0  0  0  0  0  0  0  0  0
   38.9170   32.4780   47.9390 C   0  0  0  0  0  0  0  0  0  0  0  0
   38.3350   31.2570   48.0530 C   0  0  0  0  0  0  0  0  0  0  0  0
   38.3700   30.5200   46.8700 C   0  0  0  0  0  0  0  0  0  0  0  0
   37.9410   29.5090   46.7880 H   0  0  0  0  0  0  0  0  0  0  0  0
   38.9380   30.9890   45.7070 C   0  0  0  0  0  0  0  0  0  0  0  0
   38.9480   30.3940   44.8090 H   0  0  0  0  0  0  0  0  0  0  0  0
   39.5130   32.2290   45.6460 C   0  0  0  0  0  3  0  0  0  0  0  0
   39.4960   32.9820   46.7940 C   0  0  0  0  0  3  0  0  0  0  0  0
   34.9950   28.3620   49.4430 O   0  0  0  0  0  0  0  0  0  0  0  0
   34.4470   28.6560   48.1640 C   0  0  0  0  0  0  0  0  0  0  0  0
   33.8420   29.5870   48.1710 H   0  0  0  0  0  0  0  0  0  0  0  0
   35.2870   28.8280   47.4590 H   0  0  0  0  0  0  0  0  0  0  0  0
   33.5650   27.5320   47.7090 C   0  0  0  0  0  0  0  0  0  0  0  0
   33.8860   27.2310   46.6970 H   0  0  0  0  0  0  0  0  0  0  0  0
   33.7070   26.6600   48.3920 H   0  0  0  0  0  0  0  0  0  0  0  0
   32.1270   27.9030   47.6980 C   0  0  0  0  0  0  0  0  0  0  0  0
   31.3540   27.5110   48.7860 C   0  0  0  0  0  0  0  0  0  0  0  0
   30.0180   27.8050   48.8720 C   0  0  0  0  0  0  0  0  0  0  0  0
   29.4410   28.4820   47.8890 N   0  0  0  0  0  0  0  0  0  0  0  0
   30.1980   28.8680   46.8200 C   0  0  0  0  0  0  0  0  0  0  0  0
   31.5180   28.5960   46.7030 N   0  0  0  0  0  0  0  0  0  0  0  0
   31.7710   26.9560   49.6180 H   0  0  0  0  0  0  0  0  0  0  0  0
   29.4110   27.5130   49.6960 H   0  0  0  0  0  0  0  0  0  0  0  0
   29.8330   29.4240   45.9640 H   0  0  0  0  0  0  0  0  0  0  0  0
  1  7  1  0  0  0  0
  2  8  1  0  0  0  0
  2  1  2  0  0  0  0
  3  2  1  0  0  0  0
  4  3  2  0  0  0  0
  4  5  1  0  0  0  0
  5  6  2  0  0  0  0
  6  1  1  0  0  0  0
 10 11  1  0  0  0  0
 10  9  1  0  0  0  0
 11  3  1  0  0  0  0
 12 11  2  0  0  0  0
 13 12  1  0  0  0  0
 14 12  1  0  0  0  0
 15 14  1  0  0  0  0
 16 14  2  0  0  0  0
 16 17  1  0  0  0  0
 17 10  2  0  0  0  0
 18  5  1  0  0  0  0
 19 20  1  0  0  0  0
 19 18  1  0  0  0  0
 21 19  1  0  0  0  0
 22 19  1  0  0  0  0
 22 24  1  0  0  0  0
 23 22  1  0  0  0  0
 25 22  1  0  0  0  0
 25 26  1  0  0  0  0
 26 27  2  0  0  0  0
 26 31  1  0  0  0  0
 27 32  1  0  0  0  0
 28 27  1  0  0  0  0
 29 28  2  0  0  0  0
 30 29  1  0  0  0  0
 30 25  2  0  0  0  0
 33 29  1  0  0  0  0
M  END
>  <minimizedAffinity>
-6.23190737

>  <minimizedRMSD>
0.944197536

$$$$
