
 OpenBabel03272509503D

 33 35  0  0  0  0  0  0  0  0999 V2000
   36.8290   29.6560   51.4690 C   0  0  0  0  0  0  0  0  0  0  0  0
   37.6750   30.6570   50.9200 C   0  0  0  0  0  0  0  0  0  0  0  0
   37.5960   30.8690   49.5560 C   0  0  0  0  0  0  0  0  0  0  0  0
   36.7070   30.0930   48.8550 N   0  0  0  0  0  0  0  0  0  0  0  0
   35.9280   29.1610   49.3990 C   0  0  0  0  0  0  0  0  0  0  0  0
   35.9960   28.9460   50.7270 N   0  0  0  0  0  0  0  0  0  0  0  0
   36.8890   29.4880   52.5400 H   0  0  0  0  0  0  0  0  0  0  0  0
   38.3480   31.2280   51.5250 H   0  0  0  0  0  0  0  0  0  0  0  0
   38.6930   30.6070   46.8880 F   0  0  0  0  0  0  0  0  0  0  0  0
   38.8890   31.7330   47.5640 C   0  0  0  0  0  0  0  0  0  0  0  0
   38.3660   31.8340   48.8120 C   0  0  0  0  0  0  0  0  0  0  0  0
   38.6360   33.0590   49.4210 C   0  0  0  0  0  0  0  0  0  0  0  0
   38.2860   33.3060   50.4360 H   0  0  0  0  0  0  0  0  0  0  0  0
   39.3610   34.0590   48.8140 C   0  0  0  0  0  0  0  0  0  0  0  0
   39.5520   34.9940   49.3130 H   0  0  0  0  0  0  0  0  0  0  0  0
   39.8660   33.9050   47.5520 C   0  0  0  0  0  3  0  0  0  0  0  0
   39.6180   32.7100   46.9220 C   0  0  0  0  0  3  0  0  0  0  0  0
   35.1350   28.5290   48.4880 O   0  0  0  0  0  0  0  0  0  0  0  0
   34.1760   29.2930   47.7680 C   0  0  0  0  0  0  0  0  0  0  0  0
   33.5010   29.8610   48.4420 H   0  0  0  0  0  0  0  0  0  0  0  0
   34.7200   30.0440   47.1560 H   0  0  0  0  0  0  0  0  0  0  0  0
   33.3320   28.3930   46.9150 C   0  0  0  0  0  0  0  0  0  0  0  0
   33.3530   28.7800   45.8820 H   0  0  0  0  0  0  0  0  0  0  0  0
   33.7800   27.3710   46.9130 H   0  0  0  0  0  0  0  0  0  0  0  0
   31.9300   28.3020   47.3960 C   0  0  0  0  0  0  0  0  0  0  0  0
   31.7100   27.6680   48.6160 C   0  0  0  0  0  0  0  0  0  0  0  0
   30.4540   27.5330   49.1470 C   0  0  0  0  0  0  0  0  0  0  0  0
   29.4150   28.0160   48.4820 N   0  0  0  0  0  0  0  0  0  0  0  0
   29.6280   28.6370   47.2840 C   0  0  0  0  0  0  0  0  0  0  0  0
   30.8540   28.7890   46.7310 N   0  0  0  0  0  0  0  0  0  0  0  0
   32.5210   27.2550   49.2040 H   0  0  0  0  0  0  0  0  0  0  0  0
   30.2670   27.0510   50.0780 H   0  0  0  0  0  0  0  0  0  0  0  0
   28.8560   29.0680   46.6580 H   0  0  0  0  0  0  0  0  0  0  0  0
  1  7  1  0  0  0  0
  2  1  1  0  0  0  0
  2  8  1  0  0  0  0
  3  2  2  0  0  0  0
  4  5  2  0  0  0  0
  4  3  1  0  0  0  0
  5  6  1  0  0  0  0
  6  1  2  0  0  0  0
  9 10  1  0  0  0  0
 10 11  1  0  0  0  0
 11 12  2  0  0  0  0
 11  3  1  0  0  0  0
 12 13  1  0  0  0  0
 14 15  1  0  0  0  0
 14 12  1  0  0  0  0
 16 14  2  0  0  0  0
 17 16  1  0  0  0  0
 17 10  2  0  0  0  0
 18  5  1  0  0  0  0
 19 20  1  0  0  0  0
 19 18  1  0  0  0  0
 21 19  1  0  0  0  0
 22 25  1  0  0  0  0
 22 19  1  0  0  0  0
 23 22  1  0  0  0  0
 24 22  1  0  0  0  0
 25 26  1  0  0  0  0
 26 27  2  0  0  0  0
 26 31  1  0  0  0  0
 27 32  1  0  0  0  0
 28 27  1  0  0  0  0
 29 28  2  0  0  0  0
 30 29  1  0  0  0  0
 30 25  2  0  0  0  0
 33 29  1  0  0  0  0
M  END
>  <minimizedAffinity>
-6.00678539

>  <minimizedRMSD>
1.73216951

$$$$
