
 OpenBabel03272510073D

 30 32  0  0  0  0  0  0  0  0999 V2000
   38.1140   32.4810   47.3730 C   0  0  0  0  0  0  0  0  0  0  0  0
   37.8370   31.8680   46.1220 C   0  0  0  0  0  0  0  0  0  0  0  0
   36.9790   30.7670   46.0960 C   0  0  0  0  0  0  0  0  0  0  0  0
   36.4490   30.3340   47.2760 N   0  0  0  0  0  0  0  0  0  0  0  0
   36.7300   30.9320   48.4440 C   0  0  0  0  0  0  0  0  0  0  0  0
   37.5540   32.0030   48.5210 N   0  0  0  0  0  0  0  0  0  0  0  0
   36.1280   30.4170   49.6500 N   0  0  0  0  0  0  0  0  0  0  0  0
   34.6750   30.3650   49.8260 C   0  0  0  0  0  0  0  0  0  0  0  0
   34.4750   29.5830   51.0770 C   0  0  0  0  0  0  0  0  0  0  0  0
   35.8210   28.9780   51.4060 C   0  0  0  0  0  0  0  0  0  0  0  0
   36.8270   29.9040   50.8010 C   0  0  0  0  0  0  0  0  0  0  0  0
   38.7710   33.3270   47.4090 H   0  0  0  0  0  0  0  0  0  0  0  0
   36.7530   30.2820   45.1590 H   0  0  0  0  0  0  0  0  0  0  0  0
   34.2950   31.4160   49.8750 H   0  0  0  0  0  0  0  0  0  0  0  0
   34.1840   29.9180   48.9360 H   0  0  0  0  0  0  0  0  0  0  0  0
   34.0880   30.2040   51.9110 H   0  0  0  0  0  0  0  0  0  0  0  0
   33.7000   28.8140   50.8650 H   0  0  0  0  0  0  0  0  0  0  0  0
   35.9480   27.9680   50.9460 H   0  0  0  0  0  0  0  0  0  0  0  0
   35.9020   28.9690   52.5120 H   0  0  0  0  0  0  0  0  0  0  0  0
   37.1070   30.7040   51.5030 H   0  0  0  0  0  0  0  0  0  0  0  0
   37.7450   29.3390   50.5250 H   0  0  0  0  0  0  0  0  0  0  0  0
   40.4570   32.9140   45.9640 F   0  0  0  0  0  0  0  0  0  0  0  0
   39.7090   32.8840   44.8340 C   0  0  0  0  0  0  0  0  0  0  0  0
   38.4350   32.3780   44.8930 C   0  0  0  0  0  0  0  0  0  0  0  0
   37.6270   32.3250   43.7640 C   0  0  0  0  0  0  0  0  0  0  0  0
   36.6160   31.9290   43.7830 H   0  0  0  0  0  0  0  0  0  0  0  0
   38.0840   32.7820   42.5300 C   0  0  0  0  0  0  0  0  0  0  0  0
   37.4770   32.7530   41.6280 H   0  0  0  0  0  0  0  0  0  0  0  0
   39.3720   33.2910   42.4780 C   0  0  0  0  0  3  0  0  0  0  0  0
   40.1750   33.3460   43.5990 C   0  0  0  0  0  3  0  0  0  0  0  0
  1 12  1  0  0  0  0
  1  6  1  0  0  0  0
  2  1  2  0  0  0  0
  3  2  1  0  0  0  0
  3  4  2  0  0  0  0
  4  5  1  0  0  0  0
  5  6  2  0  0  0  0
  5  7  1  0  0  0  0
  7  8  1  0  0  0  0
  7 11  1  0  0  0  0
  8 14  1  0  0  0  0
  8  9  1  0  0  0  0
  9 10  1  0  0  0  0
  9 16  1  0  0  0  0
 10 19  1  0  0  0  0
 11 10  1  0  0  0  0
 11 20  1  0  0  0  0
 13  3  1  0  0  0  0
 15  8  1  0  0  0  0
 17  9  1  0  0  0  0
 18 10  1  0  0  0  0
 21 11  1  0  0  0  0
 23 24  1  0  0  0  0
 23 22  1  0  0  0  0
 24  2  1  0  0  0  0
 25 26  1  0  0  0  0
 25 24  2  0  0  0  0
 27 25  1  0  0  0  0
 28 27  1  0  0  0  0
 29 27  2  0  0  0  0
 29 30  1  0  0  0  0
 30 23  2  0  0  0  0
M  END
>  <minimizedAffinity>
-4.80738211

>  <minimizedRMSD>
3.65543175

$$$$
