
 OpenBabel03272508413D

 42 45  0  0  1  0  0  0  0  0999 V2000
   31.6280   27.4950   48.6410 N   0  0  0  0  0  0  0  0  0  0  0  0
   32.7290   28.2940   49.1730 C   0  0  0  0  0  0  0  0  0  0  0  0
   33.7570   28.6400   48.1900 C   0  0  2  0  0  0  0  0  0  0  0  0
   34.1180   27.4950   47.3080 N   0  0  0  0  0  0  0  0  0  0  0  0
   32.8620   27.0080   46.7100 C   0  0  0  0  0  0  0  0  0  0  0  0
   32.1360   26.3960   47.8930 C   0  0  0  0  0  0  0  0  0  0  0  0
   33.1930   27.5190   49.8740 H   0  0  0  0  0  0  0  0  0  0  0  0
   32.3490   29.1710   49.6880 H   0  0  0  0  0  0  0  0  0  0  0  0
   33.4500   29.3610   47.4090 H   0  0  0  0  0  0  0  0  0  0  0  0
   34.5960   26.7550   47.8300 H   0  0  0  0  0  0  0  0  0  0  0  0
   33.0480   26.3090   45.8990 H   0  0  0  0  0  0  0  0  0  0  0  0
   32.2970   27.9160   46.3880 H   0  0  0  0  0  0  0  0  0  0  0  0
   32.8020   25.7180   48.4700 H   0  0  0  0  0  0  0  0  0  0  0  0
   31.2700   25.8050   47.5410 H   0  0  0  0  0  0  0  0  0  0  0  0
   35.5670   30.3100   46.5240 Cl  0  0  0  0  0  0  0  0  0  0  0  0
   35.8570   29.9300   48.2190 C   0  0  0  0  0  0  0  0  0  0  0  0
   34.9540   29.1230   48.8550 C   0  0  0  0  0  0  0  0  0  0  0  0
   35.0500   28.7370   50.2010 C   0  0  0  0  0  0  0  0  0  0  0  0
   36.1680   29.2360   50.8870 C   0  0  0  0  0  0  0  0  0  0  0  0
   37.0990   30.0590   50.2410 C   0  0  0  0  0  0  0  0  0  0  0  0
   36.9300   30.3910   48.9280 C   0  0  0  0  0  0  0  0  0  0  0  0
   34.5200   28.1600   50.9160 H   0  0  0  0  0  0  0  0  0  0  0  0
   36.4590   29.0820   51.9100 H   0  0  0  0  0  0  0  0  0  0  0  0
   37.9830   30.4810   50.6950 H   0  0  0  0  0  0  0  0  0  0  0  0
   37.5680   33.0920   49.5520 F   0  0  0  0  0  0  0  0  0  0  0  0
   38.1990   32.5620   48.4760 C   0  0  0  0  0  0  0  0  0  0  0  0
   37.8640   31.2470   48.2030 C   0  0  0  0  0  0  0  0  0  0  0  0
   38.4500   30.6100   47.1290 C   0  0  0  0  0  0  0  0  0  0  0  0
   38.2620   29.5740   46.8180 H   0  0  0  0  0  0  0  0  0  0  0  0
   39.3680   31.2550   46.3140 C   0  0  0  0  0  0  0  0  0  0  0  0
   39.8480   30.7900   45.4630 H   0  0  0  0  0  0  0  0  0  0  0  0
   39.7020   32.5830   46.5960 C   0  0  0  0  0  0  0  0  0  0  0  0
   39.1120   33.2140   47.6720 C   0  0  0  0  0  0  0  0  0  0  0  0
   30.2700   27.8120   48.8820 C   0  0  0  0  0  0  0  0  0  0  0  0
   29.4740   28.4390   47.9280 C   0  0  0  0  0  0  0  0  0  0  0  0
   28.1470   28.7130   48.2360 C   0  0  0  0  0  0  0  0  0  0  0  0
   27.6760   28.3480   49.4850 N   0  0  0  0  0  0  0  0  0  0  0  0
   28.4980   27.7370   50.3820 C   0  0  0  0  0  0  0  0  0  0  0  0
   29.7570   27.4740   50.0950 N   0  0  0  0  0  0  0  0  0  0  0  0
   29.9330   28.6830   46.9840 H   0  0  0  0  0  0  0  0  0  0  0  0
   27.5240   29.1920   47.5180 H   0  0  0  0  0  0  0  0  0  0  0  0
   28.0270   27.4960   51.3290 H   0  0  0  0  0  0  0  0  0  0  0  0
  1 34  1  0  0  0  0
  1  2  1  0  0  0  0
  2  8  1  0  0  0  0
  2  7  1  0  0  0  0
  3  9  1  6  0  0  0
  3 17  1  0  0  0  0
  3  2  1  0  0  0  0
  4 10  1  0  0  0  0
  4  3  1  0  0  0  0
  5  4  1  0  0  0  0
  5  6  1  0  0  0  0
  6 13  1  0  0  0  0
  6  1  1  0  0  0  0
 11  5  1  0  0  0  0
 12  5  1  0  0  0  0
 14  6  1  0  0  0  0
 15 16  1  0  0  0  0
 16 17  2  0  0  0  0
 16 21  1  0  0  0  0
 17 18  1  0  0  0  0
 18 19  2  0  0  0  0
 18 22  1  0  0  0  0
 19 23  1  0  0  0  0
 20 24  1  0  0  0  0
 20 19  1  0  0  0  0
 21 20  2  0  0  0  0
 26 25  1  0  0  0  0
 27 26  1  0  0  0  0
 27 21  1  0  0  0  0
 28 27  2  0  0  0  0
 29 28  1  0  0  0  0
 30 32  2  0  0  0  0
 30 28  1  0  0  0  0
 31 30  1  0  0  0  0
 32 33  1  0  0  0  0
 33 26  2  0  0  0  0
 34 39  1  0  0  0  0
 35 36  1  0  0  0  0
 35 34  2  0  0  0  0
 36 37  2  0  0  0  0
 37 38  1  0  0  0  0
 38 42  1  0  0  0  0
 39 38  2  0  0  0  0
 40 35  1  0  0  0  0
 41 36  1  0  0  0  0
M  END
>  <minimizedAffinity>
-7.64188957

>  <minimizedRMSD>
4.57912683

$$$$
