
 OpenBabel03272509083D

 40 43  0  0  0  0  0  0  0  0999 V2000
   33.1290   28.0300   47.8740 C   0  0  0  0  0  0  0  0  0  0  0  0
   32.4240   28.6770   47.3510 H   0  0  0  0  0  0  0  0  0  0  0  0
   32.5580   27.5440   48.7160 H   0  0  0  0  0  0  0  0  0  0  0  0
   33.5540   26.8940   47.0030 C   0  0  0  0  0  0  0  0  0  0  0  0
   33.7450   25.6100   47.4780 C   0  0  0  0  0  0  0  0  0  0  0  0
   34.1410   24.6040   46.6090 C   0  0  0  0  0  0  0  0  0  0  0  0
   34.3530   24.8530   45.2660 C   0  0  0  0  0  0  0  0  0  0  0  0
   34.1640   26.1160   44.8100 C   0  0  0  0  0  0  0  0  0  0  0  0
   33.7720   27.1240   45.6570 C   0  0  0  0  0  0  0  0  0  0  0  0
   33.5590   25.4900   48.5400 H   0  0  0  0  0  0  0  0  0  0  0  0
   34.2650   23.6230   47.0760 H   0  0  0  0  0  0  0  0  0  0  0  0
   34.6630   23.9870   44.6750 H   0  0  0  0  0  0  0  0  0  0  0  0
   34.3330   26.2950   43.7620 H   0  0  0  0  0  0  0  0  0  0  0  0
   31.3160   28.3910   44.9700 F   0  0  0  0  0  0  0  0  0  0  0  0
   32.4380   29.1010   44.7030 C   0  0  0  0  0  0  0  0  0  0  0  0
   33.5990   28.4430   45.0540 C   0  0  0  0  0  0  0  0  0  0  0  0
   34.8350   29.0620   44.8310 C   0  0  0  0  0  0  0  0  0  0  0  0
   35.8150   28.6350   45.0700 H   0  0  0  0  0  0  0  0  0  0  0  0
   34.9200   30.3150   44.2700 C   0  0  0  0  0  0  0  0  0  0  0  0
   35.8510   30.8310   44.0800 H   0  0  0  0  0  0  0  0  0  0  0  0
   33.7510   30.9540   43.9270 C   0  0  0  0  0  0  0  0  0  0  0  0
   32.5250   30.3580   44.1390 C   0  0  0  0  0  0  0  0  0  0  0  0
   34.9950   28.3640   49.4740 C   0  0  0  0  0  0  0  0  0  0  0  0
   34.2560   28.7500   48.4850 C   0  0  0  0  0  0  0  0  0  0  0  0
   37.3930   30.1720   51.5690 C   0  0  0  0  0  0  0  0  0  0  0  0
   38.0880   30.9380   50.6130 C   0  0  0  0  0  0  0  0  0  0  0  0
   37.7070   30.8060   49.2630 C   0  0  0  0  0  0  0  0  0  0  0  0
   36.6830   29.9460   48.9430 N   0  0  0  0  0  0  0  0  0  0  0  0
   36.0660   29.2470   49.9190 C   0  0  0  0  0  0  0  0  0  0  0  0
   36.4040   29.3490   51.2090 N   0  0  0  0  0  0  0  0  0  0  0  0
   37.6860   30.2730   52.6070 H   0  0  0  0  0  0  0  0  0  0  0  0
   38.8940   31.6170   50.8520 H   0  0  0  0  0  0  0  0  0  0  0  0
   38.3610   31.5530   48.1870 C   0  0  0  0  0  0  0  0  0  0  0  0
   38.5560   31.0200   46.9340 C   0  0  0  0  0  0  0  0  0  0  0  0
   39.2020   31.9930   46.1570 C   0  0  0  0  0  0  0  0  0  0  0  0
   39.3690   33.0670   46.9700 N   0  0  0  0  0  0  0  0  0  0  0  0
   38.8690   32.8050   48.1750 N   0  0  0  0  0  0  0  0  0  0  0  0
   38.2770   30.0260   46.5630 H   0  0  0  0  0  0  0  0  0  0  0  0
   39.5170   31.9330   45.1230 H   0  0  0  0  0  0  0  0  0  0  0  0
   39.8200   33.9900   46.7330 H   0  0  0  0  0  0  0  0  0  0  0  0
  1 24  1  0  0  0  0
  1  3  1  0  0  0  0
  2  1  1  0  0  0  0
  4  5  1  0  0  0  0
  4  1  1  0  0  0  0
  5 10  1  0  0  0  0
  6 11  1  0  0  0  0
  6  5  2  0  0  0  0
  7  6  1  0  0  0  0
  8  7  2  0  0  0  0
  8  9  1  0  0  0  0
  9  4  2  0  0  0  0
 12  7  1  0  0  0  0
 13  8  1  0  0  0  0
 15 14  1  0  0  0  0
 15 16  1  0  0  0  0
 16  9  1  0  0  0  0
 17 16  2  0  0  0  0
 17 18  1  0  0  0  0
 19 17  1  0  0  0  0
 20 19  1  0  0  0  0
 21 22  1  0  0  0  0
 21 19  2  0  0  0  0
 22 15  2  0  0  0  0
 23 29  1  0  0  0  0
 24 23  2  0  0  0  0
 25 31  1  0  0  0  0
 26 32  1  0  0  0  0
 26 25  2  0  0  0  0
 27 26  1  0  0  0  0
 28 27  2  0  0  0  0
 28 29  1  0  0  0  0
 29 30  2  0  0  0  0
 30 25  1  0  0  0  0
 33 27  1  0  0  0  0
 34 33  1  0  0  0  0
 35 34  2  0  0  0  0
 35 36  1  0  0  0  0
 36 37  1  0  0  0  0
 37 33  2  0  0  0  0
 38 34  1  0  0  0  0
 39 35  1  0  0  0  0
 40 36  1  0  0  0  0
M  END
>  <minimizedAffinity>
-6.43407583

>  <minimizedRMSD>
0.670117021

$$$$
