
 OpenBabel03272507093D

 27 29  0  0  0  0  0  0  0  0999 V2000
   35.8620   29.2030   49.7540 C   0  0  0  0  0  0  0  0  0  0  0  0
   34.7980   29.7790   50.3890 C   0  0  0  0  0  0  0  0  0  0  0  0
   33.6470   29.1630   49.8960 C   0  0  0  0  0  0  0  0  0  0  0  0
   34.0900   28.2330   48.9750 C   0  0  0  0  0  0  0  0  0  0  0  0
   35.3900   28.3050   48.9370 O   0  0  0  0  0  0  0  0  0  0  0  0
   34.7060   30.5660   51.1450 H   0  0  0  0  0  0  0  0  0  0  0  0
   32.5800   29.3030   50.1160 H   0  0  0  0  0  0  0  0  0  0  0  0
   31.4070   27.9810   49.4870 F   0  0  0  0  0  0  0  0  0  0  0  0
   31.9190   27.2250   48.4640 C   0  0  0  0  0  0  0  0  0  0  0  0
   33.2630   27.3300   48.1830 C   0  0  0  0  0  0  0  0  0  0  0  0
   33.7920   26.5780   47.1600 C   0  0  0  0  0  0  0  0  0  0  0  0
   34.8410   26.6410   46.9180 H   0  0  0  0  0  0  0  0  0  0  0  0
   33.0060   25.7310   46.4180 C   0  0  0  0  0  0  0  0  0  0  0  0
   33.3790   25.1210   45.6050 H   0  0  0  0  0  0  0  0  0  0  0  0
   31.6690   25.6760   46.7550 C   0  0  0  0  0  0  0  0  0  0  0  0
   31.0420   26.3910   47.7650 C   0  0  0  0  0  0  0  0  0  0  0  0
   37.2320   29.5940   50.0150 C   0  0  0  0  0  0  0  0  0  0  0  0
   37.8520   29.0400   50.9430 O   0  0  0  0  0  0  0  0  0  0  0  0
   37.8050   30.6220   49.1650 C   0  0  0  0  0  0  0  0  0  0  0  0
   38.1380   31.8280   49.7860 C   0  0  0  0  0  0  0  0  0  0  0  0
   38.6910   32.8420   49.0050 C   0  0  0  0  0  0  0  0  0  0  0  0
   38.8730   32.5900   47.6660 N   0  0  0  0  0  0  0  0  0  0  0  0
   38.5390   31.4150   47.1050 C   0  0  0  0  0  0  0  0  0  0  0  0
   38.0090   30.4440   47.8530 N   0  0  0  0  0  0  0  0  0  0  0  0
   37.9690   31.9630   50.8440 H   0  0  0  0  0  0  0  0  0  0  0  0
   38.9680   33.7980   49.4330 H   0  0  0  0  0  0  0  0  0  0  0  0
   38.7320   31.3430   46.0440 H   0  0  0  0  0  0  0  0  0  0  0  0
  1 17  1  0  0  0  0
  1  2  2  0  0  0  0
  2  6  1  0  0  0  0
  3  7  1  0  0  0  0
  3  2  1  0  0  0  0
  4  3  2  0  0  0  0
  5  4  1  0  0  0  0
  5  1  1  0  0  0  0
  9  8  1  0  0  0  0
 10  9  1  0  0  0  0
 10  4  1  0  0  0  0
 11 10  2  0  0  0  0
 12 11  1  0  0  0  0
 13 15  2  0  0  0  0
 13 11  1  0  0  0  0
 14 13  1  0  0  0  0
 15 16  1  0  0  0  0
 16  9  2  0  0  0  0
 17 18  2  0  0  0  0
 19 20  1  0  0  0  0
 19 17  1  0  0  0  0
 20 25  1  0  0  0  0
 21 26  1  0  0  0  0
 21 20  2  0  0  0  0
 22 21  1  0  0  0  0
 23 22  2  0  0  0  0
 23 24  1  0  0  0  0
 24 19  2  0  0  0  0
 27 23  1  0  0  0  0
M  END
>  <minimizedAffinity>
-5.72593737

>  <minimizedRMSD>
1.20468056

$$$$
