
 OpenBabel03272508413D

 42 45  0  0  1  0  0  0  0  0999 V2000
   35.3120   29.3870   33.8160 N   0  0  0  0  0  0  0  0  0  0  0  0
   35.8800   28.0690   34.0840 C   0  0  0  0  0  0  0  0  0  0  0  0
   37.0810   27.7580   33.3080 C   0  0  2  0  0  0  0  0  0  0  0  0
   36.9630   28.1630   31.8790 N   0  0  0  0  0  0  0  0  0  0  0  0
   36.6040   29.5930   31.8740 C   0  0  0  0  0  0  0  0  0  0  0  0
   35.1870   29.5920   32.4130 C   0  0  0  0  0  0  0  0  0  0  0  0
   35.0390   27.4200   33.6640 H   0  0  0  0  0  0  0  0  0  0  0  0
   36.0400   27.9330   35.1500 H   0  0  0  0  0  0  0  0  0  0  0  0
   37.9860   28.3360   33.5710 H   0  0  0  0  0  0  0  0  0  0  0  0
   36.2650   27.6000   31.3850 H   0  0  0  0  0  0  0  0  0  0  0  0
   36.6970   30.0260   30.8810 H   0  0  0  0  0  0  0  0  0  0  0  0
   37.2640   30.0830   32.6300 H   0  0  0  0  0  0  0  0  0  0  0  0
   34.5570   28.8360   31.8940 H   0  0  0  0  0  0  0  0  0  0  0  0
   34.7230   30.5850   32.2610 H   0  0  0  0  0  0  0  0  0  0  0  0
   38.5410   26.8610   35.7390 Cl  0  0  0  0  0  0  0  0  0  0  0  0
   38.0110   25.7820   34.4520 C   0  0  0  0  0  0  0  0  0  0  0  0
   37.3750   26.3370   33.3750 C   0  0  0  0  0  0  0  0  0  0  0  0
   36.8950   25.6060   32.2780 C   0  0  0  0  0  0  0  0  0  0  0  0
   37.1140   24.2210   32.3400 C   0  0  0  0  0  0  0  0  0  0  0  0
   37.7670   23.6460   33.4380 C   0  0  0  0  0  0  0  0  0  0  0  0
   38.2010   24.4290   34.4680 C   0  0  0  0  0  0  0  0  0  0  0  0
   36.3850   25.7650   31.3610 H   0  0  0  0  0  0  0  0  0  0  0  0
   36.8440   23.4600   31.6320 H   0  0  0  0  0  0  0  0  0  0  0  0
   37.9760   22.5940   33.5620 H   0  0  0  0  0  0  0  0  0  0  0  0
   37.0590   24.0120   37.0400 F   0  0  0  0  0  0  0  0  0  0  0  0
   38.3630   23.6700   36.9020 C   0  0  0  0  0  0  0  0  0  0  0  0
   38.8840   23.8870   35.6390 C   0  0  0  0  0  0  0  0  0  0  0  0
   40.2050   23.5720   35.3900 C   0  0  0  0  0  0  0  0  0  0  0  0
   40.7240   23.7000   34.4300 H   0  0  0  0  0  0  0  0  0  0  0  0
   41.0240   23.0430   36.3750 C   0  0  0  0  0  0  0  0  0  0  0  0
   42.0630   22.7840   36.2190 H   0  0  0  0  0  0  0  0  0  0  0  0
   40.4910   22.8270   37.6490 C   0  0  0  0  0  3  0  0  0  0  0  0
   39.1700   23.1440   37.8910 C   0  0  0  0  0  3  0  0  0  0  0  0
   34.9430   30.2840   34.8470 C   0  0  0  0  0  0  0  0  0  0  0  0
   35.8650   31.1270   35.4620 C   0  0  0  0  0  0  0  0  0  0  0  0
   35.4260   31.9830   36.4640 C   0  0  0  0  0  0  0  0  0  0  0  0
   34.0860   31.9590   36.8080 N   0  0  0  0  0  0  0  0  0  0  0  0
   33.2270   31.1130   36.1740 C   0  0  0  0  0  0  0  0  0  0  0  0
   33.6360   30.2990   35.2230 N   0  0  0  0  0  0  0  0  0  0  0  0
   36.8860   31.0720   35.1240 H   0  0  0  0  0  0  0  0  0  0  0  0
   36.1180   32.6350   36.9450 H   0  0  0  0  0  0  0  0  0  0  0  0
   32.2010   31.1760   36.5210 H   0  0  0  0  0  0  0  0  0  0  0  0
  1  2  1  0  0  0  0
  1 34  1  0  0  0  0
  2  8  1  0  0  0  0
  3 17  1  0  0  0  0
  3  9  1  1  0  0  0
  3  2  1  0  0  0  0
  4  3  1  0  0  0  0
  5  4  1  0  0  0  0
  5  6  1  0  0  0  0
  5 12  1  0  0  0  0
  6  1  1  0  0  0  0
  7  2  1  0  0  0  0
 10  4  1  0  0  0  0
 11  5  1  0  0  0  0
 13  6  1  0  0  0  0
 14  6  1  0  0  0  0
 16 21  1  0  0  0  0
 16 15  1  0  0  0  0
 17 16  2  0  0  0  0
 18 19  2  0  0  0  0
 18 17  1  0  0  0  0
 19 20  1  0  0  0  0
 20 24  1  0  0  0  0
 20 21  2  0  0  0  0
 21 27  1  0  0  0  0
 22 18  1  0  0  0  0
 23 19  1  0  0  0  0
 26 25  1  0  0  0  0
 26 33  1  0  0  0  0
 27 26  2  0  0  0  0
 28 27  1  0  0  0  0
 28 30  2  0  0  0  0
 29 28  1  0  0  0  0
 30 32  1  0  0  0  0
 31 30  1  0  0  0  0
 32 33  2  0  0  0  0
 34 39  2  0  0  0  0
 34 35  1  0  0  0  0
 35 36  2  0  0  0  0
 36 37  1  0  0  0  0
 36 41  1  0  0  0  0
 38 42  1  0  0  0  0
 38 37  2  0  0  0  0
 39 38  1  0  0  0  0
 40 35  1  0  0  0  0
M  END
>  <minimizedAffinity>
-6.42009306

$$$$

 OpenBabel03272508413D

 42 45  0  0  1  0  0  0  0  0999 V2000
   37.3690   24.6660   32.8300 N   0  0  0  0  0  0  0  0  0  0  0  0
   36.6830   25.8940   32.4390 C   0  0  0  0  0  0  0  0  0  0  0  0
   37.5720   27.0150   32.1360 C   0  0  2  0  0  0  0  0  0  0  0  0
   38.6860   27.1480   33.1170 N   0  0  0  0  0  0  0  0  0  0  0  0
   39.3670   25.8420   33.1630 C   0  0  0  0  0  0  0  0  0  0  0  0
   38.3430   24.9450   33.8310 C   0  0  0  0  0  0  0  0  0  0  0  0
   36.1710   26.1390   33.4310 H   0  0  0  0  0  0  0  0  0  0  0  0
   35.9860   25.6990   31.6290 H   0  0  0  0  0  0  0  0  0  0  0  0
   38.1750   26.9140   31.2130 H   0  0  0  0  0  0  0  0  0  0  0  0
   38.3400   27.4230   34.0420 H   0  0  0  0  0  0  0  0  0  0  0  0
   40.3130   25.9010   33.6950 H   0  0  0  0  0  0  0  0  0  0  0  0
   39.4800   25.5110   32.1020 H   0  0  0  0  0  0  0  0  0  0  0  0
   37.9320   25.4150   34.7510 H   0  0  0  0  0  0  0  0  0  0  0  0
   38.8100   23.9840   34.1180 H   0  0  0  0  0  0  0  0  0  0  0  0
   36.4160   27.9080   34.7260 Cl  0  0  0  0  0  0  0  0  0  0  0  0
   36.2680   28.8050   33.2180 C   0  0  0  0  0  0  0  0  0  0  0  0
   36.8250   28.2600   32.0940 C   0  0  0  0  0  0  0  0  0  0  0  0
   36.7900   28.8580   30.8250 C   0  0  0  0  0  0  0  0  0  0  0  0
   36.1220   30.0910   30.7640 C   0  0  0  0  0  0  0  0  0  0  0  0
   35.5460   30.6540   31.9110 C   0  0  0  0  0  0  0  0  0  0  0  0
   35.6280   30.0080   33.1100 C   0  0  0  0  0  0  0  0  0  0  0  0
   37.1260   28.6760   29.8350 H   0  0  0  0  0  0  0  0  0  0  0  0
   35.9620   30.7330   29.9180 H   0  0  0  0  0  0  0  0  0  0  0  0
   35.0160   31.5930   31.9480 H   0  0  0  0  0  0  0  0  0  0  0  0
   33.0210   29.4800   34.1160 F   0  0  0  0  0  0  0  0  0  0  0  0
   33.7920   30.3120   34.8590 C   0  0  0  0  0  0  0  0  0  0  0  0
   35.0520   30.5450   34.3380 C   0  0  0  0  0  0  0  0  0  0  0  0
   35.9190   31.3780   35.0170 C   0  0  0  0  0  0  0  0  0  0  0  0
   36.9390   31.6340   34.7010 H   0  0  0  0  0  0  0  0  0  0  0  0
   35.5580   31.9880   36.2080 C   0  0  0  0  0  0  0  0  0  0  0  0
   36.2080   32.6460   36.7690 H   0  0  0  0  0  0  0  0  0  0  0  0
   34.2820   31.7470   36.7280 C   0  0  0  0  0  3  0  0  0  0  0  0
   33.4210   30.9130   36.0440 C   0  0  0  0  0  3  0  0  0  0  0  0
   37.0570   23.4050   32.2700 C   0  0  0  0  0  0  0  0  0  0  0  0
   35.8390   23.1520   31.6440 C   0  0  0  0  0  0  0  0  0  0  0  0
   35.6070   21.8890   31.1130 C   0  0  0  0  0  0  0  0  0  0  0  0
   36.6020   20.9350   31.2320 N   0  0  0  0  0  0  0  0  0  0  0  0
   37.7750   21.2350   31.8540 C   0  0  0  0  0  0  0  0  0  0  0  0
   38.0020   22.4310   32.3600 N   0  0  0  0  0  0  0  0  0  0  0  0
   35.1280   23.9600   31.6020 H   0  0  0  0  0  0  0  0  0  0  0  0
   34.6810   21.6790   30.6310 H   0  0  0  0  0  0  0  0  0  0  0  0
   38.4840   20.4150   31.8920 H   0  0  0  0  0  0  0  0  0  0  0  0
  1  6  1  0  0  0  0
  2  1  1  0  0  0  0
  2  7  1  0  0  0  0
  3  9  1  6  0  0  0
  3  2  1  0  0  0  0
  3  4  1  0  0  0  0
  4  5  1  0  0  0  0
  4 10  1  0  0  0  0
  5 11  1  0  0  0  0
  5  6  1  0  0  0  0
  6 14  1  0  0  0  0
  6 13  1  0  0  0  0
  8  2  1  0  0  0  0
 12  5  1  0  0  0  0
 16 15  1  0  0  0  0
 17  3  1  0  0  0  0
 17 16  2  0  0  0  0
 18 17  1  0  0  0  0
 19 18  2  0  0  0  0
 19 20  1  0  0  0  0
 20 24  1  0  0  0  0
 20 21  2  0  0  0  0
 21 16  1  0  0  0  0
 21 27  1  0  0  0  0
 22 18  1  0  0  0  0
 23 19  1  0  0  0  0
 25 26  1  0  0  0  0
 26 33  1  0  0  0  0
 27 26  2  0  0  0  0
 27 28  1  0  0  0  0
 28 30  2  0  0  0  0
 29 28  1  0  0  0  0
 30 32  1  0  0  0  0
 30 31  1  0  0  0  0
 33 32  2  0  0  0  0
 34 39  1  0  0  0  0
 34  1  1  0  0  0  0
 35 34  2  0  0  0  0
 36 37  2  0  0  0  0
 36 35  1  0  0  0  0
 37 38  1  0  0  0  0
 38 42  1  0  0  0  0
 38 39  2  0  0  0  0
 40 35  1  0  0  0  0
 41 36  1  0  0  0  0
M  END
>  <minimizedAffinity>
-6.22188854

$$$$

 OpenBabel03272508413D

 42 45  0  0  1  0  0  0  0  0999 V2000
   35.2360   29.5240   33.8150 N   0  0  0  0  0  0  0  0  0  0  0  0
   35.8010   28.1960   34.0370 C   0  0  0  0  0  0  0  0  0  0  0  0
   36.9940   27.9040   33.2410 C   0  0  2  0  0  0  0  0  0  0  0  0
   36.8670   28.3550   31.8270 N   0  0  0  0  0  0  0  0  0  0  0  0
   36.5140   29.7860   31.8690 C   0  0  0  0  0  0  0  0  0  0  0  0
   35.1000   29.7720   32.4190 C   0  0  0  0  0  0  0  0  0  0  0  0
   34.9540   27.5630   33.6030 H   0  0  0  0  0  0  0  0  0  0  0  0
   35.9690   28.0260   35.0970 H   0  0  0  0  0  0  0  0  0  0  0  0
   37.9040   28.4710   33.5160 H   0  0  0  0  0  0  0  0  0  0  0  0
   36.1620   27.8100   31.3210 H   0  0  0  0  0  0  0  0  0  0  0  0
   36.6000   30.2490   30.8900 H   0  0  0  0  0  0  0  0  0  0  0  0
   37.1810   30.2490   32.6350 H   0  0  0  0  0  0  0  0  0  0  0  0
   34.4640   29.0360   31.8830 H   0  0  0  0  0  0  0  0  0  0  0  0
   34.6390   30.7710   32.3030 H   0  0  0  0  0  0  0  0  0  0  0  0
   38.5930   26.9500   35.5600 Cl  0  0  0  0  0  0  0  0  0  0  0  0
   37.9800   25.9010   34.2860 C   0  0  0  0  0  0  0  0  0  0  0  0
   37.2830   26.4810   33.2620 C   0  0  0  0  0  0  0  0  0  0  0  0
   36.7330   25.7750   32.1810 C   0  0  0  0  0  0  0  0  0  0  0  0
   36.9470   24.3880   32.2020 C   0  0  0  0  0  0  0  0  0  0  0  0
   37.6620   23.7870   33.2460 C   0  0  0  0  0  0  0  0  0  0  0  0
   38.1630   24.5470   34.2640 C   0  0  0  0  0  0  0  0  0  0  0  0
   36.1690   25.9550   31.3000 H   0  0  0  0  0  0  0  0  0  0  0  0
   36.6300   23.6430   31.4960 H   0  0  0  0  0  0  0  0  0  0  0  0
   37.8710   22.7320   33.3350 H   0  0  0  0  0  0  0  0  0  0  0  0
   40.9260   23.8720   34.2640 F   0  0  0  0  0  0  0  0  0  0  0  0
   40.2530   23.6380   35.4170 C   0  0  0  0  0  0  0  0  0  0  0  0
   38.9120   23.9780   35.3790 C   0  0  0  0  0  0  0  0  0  0  0  0
   38.1340   23.7810   36.5020 C   0  0  0  0  0  0  0  0  0  0  0  0
   37.0640   24.0120   36.5880 H   0  0  0  0  0  0  0  0  0  0  0  0
   38.6630   23.2490   37.6680 C   0  0  0  0  0  0  0  0  0  0  0  0
   38.0860   23.0800   38.5680 H   0  0  0  0  0  0  0  0  0  0  0  0
   40.0180   22.9090   37.6990 C   0  0  0  0  0  3  0  0  0  0  0  0
   40.7910   23.1090   36.5730 C   0  0  0  0  0  3  0  0  0  0  0  0
   34.8790   30.3890   34.8760 C   0  0  0  0  0  0  0  0  0  0  0  0
   35.8040   31.2260   35.4950 C   0  0  0  0  0  0  0  0  0  0  0  0
   35.3770   32.0500   36.5280 C   0  0  0  0  0  0  0  0  0  0  0  0
   34.0440   32.0020   36.8970 N   0  0  0  0  0  0  0  0  0  0  0  0
   33.1810   31.1640   36.2580 C   0  0  0  0  0  0  0  0  0  0  0  0
   33.5800   30.3790   35.2780 N   0  0  0  0  0  0  0  0  0  0  0  0
   36.8190   31.1910   35.1350 H   0  0  0  0  0  0  0  0  0  0  0  0
   36.0710   32.6970   37.0110 H   0  0  0  0  0  0  0  0  0  0  0  0
   32.1620   31.2060   36.6270 H   0  0  0  0  0  0  0  0  0  0  0  0
  1  2  1  0  0  0  0
  1 34  1  0  0  0  0
  2  8  1  0  0  0  0
  3 17  1  0  0  0  0
  3  9  1  1  0  0  0
  3  2  1  0  0  0  0
  4  5  1  0  0  0  0
  4  3  1  0  0  0  0
  5  6  1  0  0  0  0
  5 12  1  0  0  0  0
  6  1  1  0  0  0  0
  7  2  1  0  0  0  0
 10  4  1  0  0  0  0
 11  5  1  0  0  0  0
 13  6  1  0  0  0  0
 14  6  1  0  0  0  0
 16 15  1  0  0  0  0
 17 16  2  0  0  0  0
 18 19  2  0  0  0  0
 18 17  1  0  0  0  0
 19 20  1  0  0  0  0
 20 24  1  0  0  0  0
 20 21  2  0  0  0  0
 21 16  1  0  0  0  0
 21 27  1  0  0  0  0
 22 18  1  0  0  0  0
 23 19  1  0  0  0  0
 25 26  1  0  0  0  0
 26 33  1  0  0  0  0
 27 26  2  0  0  0  0
 27 28  1  0  0  0  0
 28 29  1  0  0  0  0
 28 30  2  0  0  0  0
 30 32  1  0  0  0  0
 30 31  1  0  0  0  0
 33 32  2  0  0  0  0
 34 39  2  0  0  0  0
 34 35  1  0  0  0  0
 35 36  2  0  0  0  0
 36 37  1  0  0  0  0
 36 41  1  0  0  0  0
 38 42  1  0  0  0  0
 38 37  2  0  0  0  0
 39 38  1  0  0  0  0
 40 35  1  0  0  0  0
M  END
>  <minimizedAffinity>
-6.19569921

$$$$

 OpenBabel03272508413D

 42 45  0  0  1  0  0  0  0  0999 V2000
   37.3590   27.5850   30.8900 N   0  0  0  0  0  0  0  0  0  0  0  0
   36.9420   28.7530   31.6600 C   0  0  0  0  0  0  0  0  0  0  0  0
   36.4290   29.8600   30.8520 C   0  0  2  0  0  0  0  0  0  0  0  0
   37.2480   30.1130   29.6340 N   0  0  0  0  0  0  0  0  0  0  0  0
   37.3320   28.8330   28.9080 C   0  0  0  0  0  0  0  0  0  0  0  0
   38.2020   27.9820   29.8130 C   0  0  0  0  0  0  0  0  0  0  0  0
   37.9620   29.0820   32.0570 H   0  0  0  0  0  0  0  0  0  0  0  0
   36.2460   28.4650   32.4430 H   0  0  0  0  0  0  0  0  0  0  0  0
   35.4520   29.6830   30.3620 H   0  0  0  0  0  0  0  0  0  0  0  0
   38.1790   30.4680   29.8750 H   0  0  0  0  0  0  0  0  0  0  0  0
   37.7360   28.9650   27.9070 H   0  0  0  0  0  0  0  0  0  0  0  0
   36.3010   28.4040   28.9120 H   0  0  0  0  0  0  0  0  0  0  0  0
   39.1170   28.5290   30.1260 H   0  0  0  0  0  0  0  0  0  0  0  0
   38.5170   27.0640   29.2810 H   0  0  0  0  0  0  0  0  0  0  0  0
   34.7780   29.7040   33.3220 Cl  0  0  0  0  0  0  0  0  0  0  0  0
   35.6690   31.1380   32.8190 C   0  0  0  0  0  0  0  0  0  0  0  0
   36.3630   31.0770   31.6420 C   0  0  0  0  0  0  0  0  0  0  0  0
   37.1190   32.1360   31.1150 C   0  0  0  0  0  0  0  0  0  0  0  0
   37.1220   33.3090   31.8850 C   0  0  0  0  0  0  0  0  0  0  0  0
   36.4100   33.3800   33.0900 C   0  0  0  0  0  0  0  0  0  0  0  0
   35.7010   32.3020   33.5340 C   0  0  0  0  0  0  0  0  0  0  0  0
   37.7310   32.3530   30.2760 H   0  0  0  0  0  0  0  0  0  0  0  0
   37.6180   34.2430   31.6950 H   0  0  0  0  0  0  0  0  0  0  0  0
   36.3590   34.2420   33.7370 H   0  0  0  0  0  0  0  0  0  0  0  0
   36.6130   31.3790   36.0650 F   0  0  0  0  0  0  0  0  0  0  0  0
   35.3520   31.8760   36.0290 C   0  0  0  0  0  0  0  0  0  0  0  0
   34.9440   32.3140   34.7820 C   0  0  0  0  0  0  0  0  0  0  0  0
   33.6760   32.8400   34.6330 C   0  0  0  0  0  0  0  0  0  0  0  0
   33.2450   33.2180   33.6960 H   0  0  0  0  0  0  0  0  0  0  0  0
   32.8000   32.9390   35.7030 C   0  0  0  0  0  0  0  0  0  0  0  0
   31.8000   33.3440   35.6270 H   0  0  0  0  0  0  0  0  0  0  0  0
   33.2200   32.4940   36.9600 C   0  0  0  0  0  3  0  0  0  0  0  0
   34.4890   31.9700   37.1020 C   0  0  0  0  0  3  0  0  0  0  0  0
   36.9610   26.2680   31.2240 C   0  0  0  0  0  0  0  0  0  0  0  0
   35.6670   25.8050   31.0030 C   0  0  0  0  0  0  0  0  0  0  0  0
   35.3530   24.4990   31.3530 C   0  0  0  0  0  0  0  0  0  0  0  0
   36.3460   23.7120   31.9100 N   0  0  0  0  0  0  0  0  0  0  0  0
   37.5960   24.2160   32.1050 C   0  0  0  0  0  0  0  0  0  0  0  0
   37.9010   25.4540   31.7750 N   0  0  0  0  0  0  0  0  0  0  0  0
   34.9640   26.4940   30.5630 H   0  0  0  0  0  0  0  0  0  0  0  0
   34.3680   24.1280   31.1910 H   0  0  0  0  0  0  0  0  0  0  0  0
   38.2960   23.5150   32.5480 H   0  0  0  0  0  0  0  0  0  0  0  0
  1 34  1  0  0  0  0
  1  2  1  0  0  0  0
  2  7  1  0  0  0  0
  2  8  1  0  0  0  0
  3  9  1  6  0  0  0
  3 17  1  0  0  0  0
  3  2  1  0  0  0  0
  4 10  1  0  0  0  0
  4  3  1  0  0  0  0
  5 12  1  0  0  0  0
  5  4  1  0  0  0  0
  5  6  1  0  0  0  0
  6 13  1  0  0  0  0
  6  1  1  0  0  0  0
 11  5  1  0  0  0  0
 14  6  1  0  0  0  0
 16 15  1  0  0  0  0
 16 21  1  0  0  0  0
 17 16  2  0  0  0  0
 18 17  1  0  0  0  0
 18 19  2  0  0  0  0
 19 20  1  0  0  0  0
 20 21  2  0  0  0  0
 20 24  1  0  0  0  0
 21 27  1  0  0  0  0
 22 18  1  0  0  0  0
 23 19  1  0  0  0  0
 26 25  1  0  0  0  0
 26 33  1  0  0  0  0
 27 26  2  0  0  0  0
 28 27  1  0  0  0  0
 28 30  2  0  0  0  0
 29 28  1  0  0  0  0
 30 32  1  0  0  0  0
 31 30  1  0  0  0  0
 32 33  2  0  0  0  0
 34 39  1  0  0  0  0
 35 34  2  0  0  0  0
 35 36  1  0  0  0  0
 36 37  2  0  0  0  0
 37 38  1  0  0  0  0
 38 42  1  0  0  0  0
 39 38  2  0  0  0  0
 40 35  1  0  0  0  0
 41 36  1  0  0  0  0
M  END
>  <minimizedAffinity>
-5.89139128

$$$$

 OpenBabel03272508413D

 42 45  0  0  1  0  0  0  0  0999 V2000
   35.9770   28.8150   32.2690 N   0  0  0  0  0  0  0  0  0  0  0  0
   36.2840   27.5240   32.8780 C   0  0  0  0  0  0  0  0  0  0  0  0
   37.5990   26.9850   32.5280 C   0  0  2  0  0  0  0  0  0  0  0  0
   37.9180   27.1410   31.0810 N   0  0  0  0  0  0  0  0  0  0  0  0
   37.7560   28.5720   30.7640 C   0  0  0  0  0  0  0  0  0  0  0  0
   36.2570   28.7780   30.8730 C   0  0  0  0  0  0  0  0  0  0  0  0
   35.5110   26.8790   32.3370 H   0  0  0  0  0  0  0  0  0  0  0  0
   36.1350   27.5650   33.9530 H   0  0  0  0  0  0  0  0  0  0  0  0
   38.4660   27.5270   32.9500 H   0  0  0  0  0  0  0  0  0  0  0  0
   37.3120   26.5570   30.4980 H   0  0  0  0  0  0  0  0  0  0  0  0
   38.1630   28.8140   29.7860 H   0  0  0  0  0  0  0  0  0  0  0  0
   38.2460   29.1330   31.5960 H   0  0  0  0  0  0  0  0  0  0  0  0
   35.6990   27.9960   30.3150 H   0  0  0  0  0  0  0  0  0  0  0  0
   35.9790   29.7620   30.4520 H   0  0  0  0  0  0  0  0  0  0  0  0
   39.0540   26.3840   35.0510 Cl  0  0  0  0  0  0  0  0  0  0  0  0
   38.2940   25.1630   34.0350 C   0  0  0  0  0  0  0  0  0  0  0  0
   37.6830   25.5800   32.8840 C   0  0  0  0  0  0  0  0  0  0  0  0
   37.0360   24.7250   31.9790 C   0  0  0  0  0  0  0  0  0  0  0  0
   37.0510   23.3650   32.3250 C   0  0  0  0  0  0  0  0  0  0  0  0
   37.6780   22.9300   33.5000 C   0  0  0  0  0  0  0  0  0  0  0  0
   38.2840   23.8280   34.3310 C   0  0  0  0  0  0  0  0  0  0  0  0
   36.5010   24.7720   31.0640 H   0  0  0  0  0  0  0  0  0  0  0  0
   36.6310   22.5280   31.8000 H   0  0  0  0  0  0  0  0  0  0  0  0
   37.7360   21.9060   33.8360 H   0  0  0  0  0  0  0  0  0  0  0  0
   37.2010   24.0150   36.9540 F   0  0  0  0  0  0  0  0  0  0  0  0
   38.4550   23.5110   36.8590 C   0  0  0  0  0  0  0  0  0  0  0  0
   38.9490   23.4360   35.5690 C   0  0  0  0  0  0  0  0  0  0  0  0
   40.2180   22.9360   35.3600 C   0  0  0  0  0  0  0  0  0  0  0  0
   40.7120   22.8290   34.3840 H   0  0  0  0  0  0  0  0  0  0  0  0
   41.0130   22.5070   36.4120 C   0  0  0  0  0  0  0  0  0  0  0  0
   42.0110   22.1100   36.2890 H   0  0  0  0  0  0  0  0  0  0  0  0
   40.5070   22.5860   37.7130 C   0  0  0  0  0  3  0  0  0  0  0  0
   39.2370   23.0870   37.9150 C   0  0  0  0  0  3  0  0  0  0  0  0
   35.4630   29.9050   33.0090 C   0  0  0  0  0  0  0  0  0  0  0  0
   35.6460   30.0210   34.3850 C   0  0  0  0  0  0  0  0  0  0  0  0
   35.1150   31.1230   35.0420 C   0  0  0  0  0  0  0  0  0  0  0  0
   34.4240   32.0620   34.2950 N   0  0  0  0  0  0  0  0  0  0  0  0
   34.2730   31.8990   32.9520 C   0  0  0  0  0  0  0  0  0  0  0  0
   34.7750   30.8560   32.3220 N   0  0  0  0  0  0  0  0  0  0  0  0
   36.1990   29.2380   34.8760 H   0  0  0  0  0  0  0  0  0  0  0  0
   35.2460   31.2270   36.0940 H   0  0  0  0  0  0  0  0  0  0  0  0
   33.7150   32.6920   32.4660 H   0  0  0  0  0  0  0  0  0  0  0  0
  1  2  1  0  0  0  0
  1 34  1  0  0  0  0
  2  8  1  0  0  0  0
  3  2  1  0  0  0  0
  3 17  1  0  0  0  0
  3  9  1  1  0  0  0
  4  3  1  0  0  0  0
  5  6  1  0  0  0  0
  5  4  1  0  0  0  0
  5 12  1  0  0  0  0
  6  1  1  0  0  0  0
  7  2  1  0  0  0  0
 10  4  1  0  0  0  0
 11  5  1  0  0  0  0
 13  6  1  0  0  0  0
 14  6  1  0  0  0  0
 16 21  1  0  0  0  0
 16 15  1  0  0  0  0
 17 16  2  0  0  0  0
 18 19  2  0  0  0  0
 18 17  1  0  0  0  0
 19 20  1  0  0  0  0
 20 24  1  0  0  0  0
 20 21  2  0  0  0  0
 21 27  1  0  0  0  0
 22 18  1  0  0  0  0
 23 19  1  0  0  0  0
 26 25  1  0  0  0  0
 26 33  1  0  0  0  0
 27 26  2  0  0  0  0
 28 27  1  0  0  0  0
 28 30  2  0  0  0  0
 29 28  1  0  0  0  0
 30 32  1  0  0  0  0
 31 30  1  0  0  0  0
 32 33  2  0  0  0  0
 34 35  1  0  0  0  0
 35 40  1  0  0  0  0
 35 36  2  0  0  0  0
 36 41  1  0  0  0  0
 37 36  1  0  0  0  0
 38 37  2  0  0  0  0
 39 38  1  0  0  0  0
 39 34  2  0  0  0  0
 42 38  1  0  0  0  0
M  END
>  <minimizedAffinity>
-5.8502779

$$$$

 OpenBabel03272508413D

 42 45  0  0  1  0  0  0  0  0999 V2000
   37.4430   26.0880   32.6840 N   0  0  0  0  0  0  0  0  0  0  0  0
   37.1680   27.4930   32.9710 C   0  0  0  0  0  0  0  0  0  0  0  0
   35.9760   28.0250   32.3090 C   0  0  2  0  0  0  0  0  0  0  0  0
   35.8660   27.5930   30.8880 N   0  0  0  0  0  0  0  0  0  0  0  0
   35.9410   26.1210   30.8860 C   0  0  0  0  0  0  0  0  0  0  0  0
   37.3810   25.8520   31.2810 C   0  0  0  0  0  0  0  0  0  0  0  0
   38.0700   27.9640   32.4510 H   0  0  0  0  0  0  0  0  0  0  0  0
   37.1480   27.6660   34.0430 H   0  0  0  0  0  0  0  0  0  0  0  0
   35.0090   27.6350   32.6780 H   0  0  0  0  0  0  0  0  0  0  0  0
   36.6050   28.0060   30.3110 H   0  0  0  0  0  0  0  0  0  0  0  0
   35.6660   25.7060   29.9200 H   0  0  0  0  0  0  0  0  0  0  0  0
   35.2820   25.7740   31.7180 H   0  0  0  0  0  0  0  0  0  0  0  0
   38.0870   26.4670   30.6820 H   0  0  0  0  0  0  0  0  0  0  0  0
   37.6270   24.7870   31.1120 H   0  0  0  0  0  0  0  0  0  0  0  0
   34.7020   29.2110   34.7210 Cl  0  0  0  0  0  0  0  0  0  0  0  0
   35.4460   30.1540   33.4330 C   0  0  0  0  0  0  0  0  0  0  0  0
   35.9690   29.4770   32.3660 C   0  0  0  0  0  0  0  0  0  0  0  0
   36.5930   30.0900   31.2690 C   0  0  0  0  0  0  0  0  0  0  0  0
   36.6520   31.4910   31.3220 C   0  0  0  0  0  0  0  0  0  0  0  0
   36.1160   32.1920   32.4100 C   0  0  0  0  0  0  0  0  0  0  0  0
   35.5270   31.5180   33.4410 C   0  0  0  0  0  0  0  0  0  0  0  0
   37.0700   29.8270   30.3580 H   0  0  0  0  0  0  0  0  0  0  0  0
   37.0730   32.1790   30.6130 H   0  0  0  0  0  0  0  0  0  0  0  0
   36.1190   33.2650   32.5260 H   0  0  0  0  0  0  0  0  0  0  0  0
   36.6660   31.6460   36.0440 F   0  0  0  0  0  0  0  0  0  0  0  0
   35.4780   32.2770   35.8790 C   0  0  0  0  0  0  0  0  0  0  0  0
   34.9550   32.1930   34.6010 C   0  0  0  0  0  0  0  0  0  0  0  0
   33.7470   32.8020   34.3250 C   0  0  0  0  0  0  0  0  0  0  0  0
   33.2380   32.8020   33.3520 H   0  0  0  0  0  0  0  0  0  0  0  0
   33.0440   33.4960   35.2970 C   0  0  0  0  0  0  0  0  0  0  0  0
   32.0960   33.9870   35.1200 H   0  0  0  0  0  0  0  0  0  0  0  0
   33.5790   33.5770   36.5860 C   0  0  0  0  0  3  0  0  0  0  0  0
   34.7870   32.9660   36.8560 C   0  0  0  0  0  3  0  0  0  0  0  0
   37.7360   25.1450   33.6980 C   0  0  0  0  0  0  0  0  0  0  0  0
   37.8980   25.5150   35.0300 C   0  0  0  0  0  0  0  0  0  0  0  0
   38.1810   24.5310   35.9690 C   0  0  0  0  0  0  0  0  0  0  0  0
   38.2900   23.2210   35.5350 N   0  0  0  0  0  0  0  0  0  0  0  0
   38.1230   22.9150   34.2190 C   0  0  0  0  0  0  0  0  0  0  0  0
   37.8540   23.8430   33.3230 N   0  0  0  0  0  0  0  0  0  0  0  0
   37.7940   26.5600   35.2690 H   0  0  0  0  0  0  0  0  0  0  0  0
   38.3080   24.7960   36.9930 H   0  0  0  0  0  0  0  0  0  0  0  0
   38.2300   21.8610   33.9880 H   0  0  0  0  0  0  0  0  0  0  0  0
  1  2  1  0  0  0  0
  1 34  1  0  0  0  0
  2  8  1  0  0  0  0
  3 17  1  0  0  0  0
  3  9  1  1  0  0  0
  3  2  1  0  0  0  0
  4  3  1  0  0  0  0
  5  4  1  0  0  0  0
  5  6  1  0  0  0  0
  5 12  1  0  0  0  0
  6  1  1  0  0  0  0
  7  2  1  0  0  0  0
 10  4  1  0  0  0  0
 11  5  1  0  0  0  0
 13  6  1  0  0  0  0
 14  6  1  0  0  0  0
 16 21  1  0  0  0  0
 16 15  1  0  0  0  0
 17 16  2  0  0  0  0
 18 19  2  0  0  0  0
 18 17  1  0  0  0  0
 19 20  1  0  0  0  0
 20 24  1  0  0  0  0
 20 21  2  0  0  0  0
 21 27  1  0  0  0  0
 22 18  1  0  0  0  0
 23 19  1  0  0  0  0
 26 25  1  0  0  0  0
 26 33  1  0  0  0  0
 27 26  2  0  0  0  0
 28 27  1  0  0  0  0
 28 30  2  0  0  0  0
 29 28  1  0  0  0  0
 30 32  1  0  0  0  0
 31 30  1  0  0  0  0
 32 33  2  0  0  0  0
 34 35  1  0  0  0  0
 35 40  1  0  0  0  0
 35 36  2  0  0  0  0
 36 41  1  0  0  0  0
 37 36  1  0  0  0  0
 38 37  2  0  0  0  0
 39 34  2  0  0  0  0
 39 38  1  0  0  0  0
 42 38  1  0  0  0  0
M  END
>  <minimizedAffinity>
-5.80629206

$$$$

 OpenBabel03272508413D

 42 45  0  0  1  0  0  0  0  0999 V2000
   36.0890   28.4890   31.6110 N   0  0  0  0  0  0  0  0  0  0  0  0
   36.2850   27.2400   32.3410 C   0  0  0  0  0  0  0  0  0  0  0  0
   37.6610   26.7410   32.3320 C   0  0  2  0  0  0  0  0  0  0  0  0
   38.3020   26.8470   30.9910 N   0  0  0  0  0  0  0  0  0  0  0  0
   38.1750   28.2550   30.5720 C   0  0  0  0  0  0  0  0  0  0  0  0
   36.6870   28.4040   30.3220 C   0  0  0  0  0  0  0  0  0  0  0  0
   35.6780   26.5410   31.6700 H   0  0  0  0  0  0  0  0  0  0  0  0
   35.8900   27.3210   33.3490 H   0  0  0  0  0  0  0  0  0  0  0  0
   38.3900   27.3360   32.9130 H   0  0  0  0  0  0  0  0  0  0  0  0
   37.8660   26.2140   30.3140 H   0  0  0  0  0  0  0  0  0  0  0  0
   38.7910   28.4720   29.7020 H   0  0  0  0  0  0  0  0  0  0  0  0
   38.4410   28.8720   31.4640 H   0  0  0  0  0  0  0  0  0  0  0  0
   36.2970   27.5760   29.6910 H   0  0  0  0  0  0  0  0  0  0  0  0
   36.4840   29.3570   29.7980 H   0  0  0  0  0  0  0  0  0  0  0  0
   39.1130   26.2430   34.8780 Cl  0  0  0  0  0  0  0  0  0  0  0  0
   38.3080   24.9890   33.9400 C   0  0  0  0  0  0  0  0  0  0  0  0
   37.7030   25.3570   32.7700 C   0  0  0  0  0  0  0  0  0  0  0  0
   37.0210   24.4730   31.9200 C   0  0  0  0  0  0  0  0  0  0  0  0
   36.9960   23.1350   32.3460 C   0  0  0  0  0  0  0  0  0  0  0  0
   37.6160   22.7500   33.5410 C   0  0  0  0  0  0  0  0  0  0  0  0
   38.2570   23.6750   34.3140 C   0  0  0  0  0  0  0  0  0  0  0  0
   36.4820   24.4830   31.0070 H   0  0  0  0  0  0  0  0  0  0  0  0
   36.5440   22.2830   31.8740 H   0  0  0  0  0  0  0  0  0  0  0  0
   37.6440   21.7460   33.9370 H   0  0  0  0  0  0  0  0  0  0  0  0
   37.1860   24.0230   36.9260 F   0  0  0  0  0  0  0  0  0  0  0  0
   38.4300   23.4880   36.8550 C   0  0  0  0  0  0  0  0  0  0  0  0
   38.9170   23.3350   35.5700 C   0  0  0  0  0  0  0  0  0  0  0  0
   40.1750   22.7980   35.3850 C   0  0  0  0  0  0  0  0  0  0  0  0
   40.6630   22.6300   34.4150 H   0  0  0  0  0  0  0  0  0  0  0  0
   40.9650   22.4100   36.4560 C   0  0  0  0  0  0  0  0  0  0  0  0
   41.9540   21.9860   36.3520 H   0  0  0  0  0  0  0  0  0  0  0  0
   40.4650   22.5680   37.7520 C   0  0  0  0  0  3  0  0  0  0  0  0
   39.2060   23.1050   37.9300 C   0  0  0  0  0  3  0  0  0  0  0  0
   35.3840   29.5890   32.1560 C   0  0  0  0  0  0  0  0  0  0  0  0
   35.6190   30.8980   31.7460 C   0  0  0  0  0  0  0  0  0  0  0  0
   34.8840   31.9250   32.3240 C   0  0  0  0  0  0  0  0  0  0  0  0
   33.9460   31.5970   33.2880 N   0  0  0  0  0  0  0  0  0  0  0  0
   33.7570   30.2990   33.6530 C   0  0  0  0  0  0  0  0  0  0  0  0
   34.4510   29.3210   33.1080 N   0  0  0  0  0  0  0  0  0  0  0  0
   36.3700   31.0510   30.9880 H   0  0  0  0  0  0  0  0  0  0  0  0
   35.0510   32.9320   32.0210 H   0  0  0  0  0  0  0  0  0  0  0  0
   32.9990   30.1560   34.4160 H   0  0  0  0  0  0  0  0  0  0  0  0
  1 34  1  0  0  0  0
  1  2  1  0  0  0  0
  2  8  1  0  0  0  0
  3  2  1  0  0  0  0
  3 17  1  0  0  0  0
  3  9  1  1  0  0  0
  4  3  1  0  0  0  0
  5  4  1  0  0  0  0
  5 12  1  0  0  0  0
  6  5  1  0  0  0  0
  6  1  1  0  0  0  0
  7  2  1  0  0  0  0
 10  4  1  0  0  0  0
 11  5  1  0  0  0  0
 13  6  1  0  0  0  0
 14  6  1  0  0  0  0
 16 21  1  0  0  0  0
 16 15  1  0  0  0  0
 17 16  2  0  0  0  0
 18 19  2  0  0  0  0
 18 17  1  0  0  0  0
 19 20  1  0  0  0  0
 20 24  1  0  0  0  0
 20 21  2  0  0  0  0
 21 27  1  0  0  0  0
 22 18  1  0  0  0  0
 23 19  1  0  0  0  0
 26 25  1  0  0  0  0
 26 33  1  0  0  0  0
 27 26  2  0  0  0  0
 28 27  1  0  0  0  0
 28 30  2  0  0  0  0
 29 28  1  0  0  0  0
 30 32  1  0  0  0  0
 31 30  1  0  0  0  0
 32 33  2  0  0  0  0
 34 39  1  0  0  0  0
 35 34  2  0  0  0  0
 35 36  1  0  0  0  0
 36 37  2  0  0  0  0
 37 38  1  0  0  0  0
 38 42  1  0  0  0  0
 39 38  2  0  0  0  0
 40 35  1  0  0  0  0
 41 36  1  0  0  0  0
M  END
>  <minimizedAffinity>
-5.72965717

$$$$

 OpenBabel03272508413D

 42 45  0  0  1  0  0  0  0  0999 V2000
   39.6480   26.0620   31.9260 N   0  0  0  0  0  0  0  0  0  0  0  0
   38.8140   27.2220   32.2260 C   0  0  0  0  0  0  0  0  0  0  0  0
   37.3790   27.0020   32.0400 C   0  0  2  0  0  0  0  0  0  0  0  0
   37.0690   26.2540   30.7900 N   0  0  0  0  0  0  0  0  0  0  0  0
   37.8630   25.0120   30.8320 C   0  0  0  0  0  0  0  0  0  0  0  0
   39.2860   25.5100   30.6650 C   0  0  0  0  0  0  0  0  0  0  0  0
   39.1530   27.9130   31.3810 H   0  0  0  0  0  0  0  0  0  0  0  0
   39.0400   27.6080   33.2160 H   0  0  0  0  0  0  0  0  0  0  0  0
   36.9010   26.3180   32.7660 H   0  0  0  0  0  0  0  0  0  0  0  0
   37.2870   26.8080   29.9560 H   0  0  0  0  0  0  0  0  0  0  0  0
   37.5500   24.3090   30.0640 H   0  0  0  0  0  0  0  0  0  0  0  0
   37.7550   24.6080   31.8680 H   0  0  0  0  0  0  0  0  0  0  0  0
   39.3690   26.2190   29.8140 H   0  0  0  0  0  0  0  0  0  0  0  0
   39.9640   24.6580   30.4680 H   0  0  0  0  0  0  0  0  0  0  0  0
   36.3500   27.9320   34.6710 Cl  0  0  0  0  0  0  0  0  0  0  0  0
   36.1710   28.8310   33.1680 C   0  0  0  0  0  0  0  0  0  0  0  0
   36.6680   28.2680   32.0240 C   0  0  0  0  0  0  0  0  0  0  0  0
   36.6030   28.8660   30.7560 C   0  0  0  0  0  0  0  0  0  0  0  0
   35.9710   30.1180   30.7170 C   0  0  0  0  0  0  0  0  0  0  0  0
   35.4560   30.7000   31.8840 C   0  0  0  0  0  0  0  0  0  0  0  0
   35.5640   30.0530   33.0810 C   0  0  0  0  0  0  0  0  0  0  0  0
   36.8960   28.6720   29.7550 H   0  0  0  0  0  0  0  0  0  0  0  0
   35.7990   30.7650   29.8770 H   0  0  0  0  0  0  0  0  0  0  0  0
   34.9570   31.6550   31.9390 H   0  0  0  0  0  0  0  0  0  0  0  0
   33.0060   29.5540   34.2180 F   0  0  0  0  0  0  0  0  0  0  0  0
   33.8160   30.3900   34.9120 C   0  0  0  0  0  0  0  0  0  0  0  0
   35.0510   30.6090   34.3280 C   0  0  0  0  0  0  0  0  0  0  0  0
   35.9550   31.4440   34.9540 C   0  0  0  0  0  0  0  0  0  0  0  0
   36.9600   31.6900   34.5860 H   0  0  0  0  0  0  0  0  0  0  0  0
   35.6560   32.0710   36.1540 C   0  0  0  0  0  0  0  0  0  0  0  0
   36.3360   32.7310   36.6740 H   0  0  0  0  0  0  0  0  0  0  0  0
   34.4050   31.8440   36.7380 C   0  0  0  0  0  3  0  0  0  0  0  0
   33.5070   31.0080   36.1070 C   0  0  0  0  0  3  0  0  0  0  0  0
   40.6660   25.6080   32.7980 C   0  0  0  0  0  0  0  0  0  0  0  0
   40.9660   26.2590   33.9920 C   0  0  0  0  0  0  0  0  0  0  0  0
   41.9760   25.7500   34.7980 C   0  0  0  0  0  0  0  0  0  0  0  0
   42.6430   24.6130   34.3750 N   0  0  0  0  0  0  0  0  0  0  0  0
   42.3090   24.0160   33.1980 C   0  0  0  0  0  0  0  0  0  0  0  0
   41.3520   24.4930   32.4290 N   0  0  0  0  0  0  0  0  0  0  0  0
   40.3900   27.1370   34.2340 H   0  0  0  0  0  0  0  0  0  0  0  0
   42.2180   26.2360   35.7140 H   0  0  0  0  0  0  0  0  0  0  0  0
   42.8950   23.1330   32.9630 H   0  0  0  0  0  0  0  0  0  0  0  0
  1  2  1  0  0  0  0
  1 34  1  0  0  0  0
  2  8  1  0  0  0  0
  3  2  1  0  0  0  0
  3  9  1  1  0  0  0
  4  5  1  0  0  0  0
  4  3  1  0  0  0  0
  5 12  1  0  0  0  0
  6  5  1  0  0  0  0
  6  1  1  0  0  0  0
  7  2  1  0  0  0  0
 10  4  1  0  0  0  0
 11  5  1  0  0  0  0
 13  6  1  0  0  0  0
 14  6  1  0  0  0  0
 16 15  1  0  0  0  0
 17  3  1  0  0  0  0
 17 16  2  0  0  0  0
 18 17  1  0  0  0  0
 19 18  2  0  0  0  0
 19 20  1  0  0  0  0
 20 24  1  0  0  0  0
 20 21  2  0  0  0  0
 21 16  1  0  0  0  0
 21 27  1  0  0  0  0
 22 18  1  0  0  0  0
 23 19  1  0  0  0  0
 25 26  1  0  0  0  0
 26 33  1  0  0  0  0
 27 26  2  0  0  0  0
 27 28  1  0  0  0  0
 28 30  2  0  0  0  0
 29 28  1  0  0  0  0
 30 31  1  0  0  0  0
 30 32  1  0  0  0  0
 33 32  2  0  0  0  0
 34 35  1  0  0  0  0
 35 40  1  0  0  0  0
 35 36  2  0  0  0  0
 36 41  1  0  0  0  0
 37 36  1  0  0  0  0
 38 37  2  0  0  0  0
 39 34  2  0  0  0  0
 39 38  1  0  0  0  0
 42 38  1  0  0  0  0
M  END
>  <minimizedAffinity>
-5.71785593

$$$$

 OpenBabel03272508413D

 42 45  0  0  1  0  0  0  0  0999 V2000
   34.3470   30.7260   35.0340 N   0  0  0  0  0  0  0  0  0  0  0  0
   35.4950   30.2930   34.2410 C   0  0  0  0  0  0  0  0  0  0  0  0
   35.1630   29.8480   32.8870 C   0  0  2  0  0  0  0  0  0  0  0  0
   33.9500   28.9830   32.8470 N   0  0  0  0  0  0  0  0  0  0  0  0
   32.8700   29.7380   33.5080 C   0  0  0  0  0  0  0  0  0  0  0  0
   33.3060   29.7580   34.9600 C   0  0  0  0  0  0  0  0  0  0  0  0
   35.7820   29.3590   34.8330 H   0  0  0  0  0  0  0  0  0  0  0  0
   36.2660   31.0580   34.2390 H   0  0  0  0  0  0  0  0  0  0  0  0
   34.8260   30.6390   32.1910 H   0  0  0  0  0  0  0  0  0  0  0  0
   34.1150   28.0830   33.3090 H   0  0  0  0  0  0  0  0  0  0  0  0
   31.9000   29.2750   33.3470 H   0  0  0  0  0  0  0  0  0  0  0  0
   32.9310   30.7810   33.1120 H   0  0  0  0  0  0  0  0  0  0  0  0
   33.5990   28.7440   35.3090 H   0  0  0  0  0  0  0  0  0  0  0  0
   32.4760   30.1130   35.6000 H   0  0  0  0  0  0  0  0  0  0  0  0
   36.5270   27.9100   34.6850 Cl  0  0  0  0  0  0  0  0  0  0  0  0
   36.9750   28.1820   33.0040 C   0  0  0  0  0  0  0  0  0  0  0  0
   36.2790   29.1270   32.3020 C   0  0  0  0  0  0  0  0  0  0  0  0
   36.5200   29.4500   30.9580 C   0  0  0  0  0  0  0  0  0  0  0  0
   37.5580   28.7290   30.3460 C   0  0  0  0  0  0  0  0  0  0  0  0
   38.2780   27.7620   31.0600 C   0  0  0  0  0  0  0  0  0  0  0  0
   37.9770   27.5050   32.3660 C   0  0  0  0  0  0  0  0  0  0  0  0
   36.1510   30.0980   30.2030 H   0  0  0  0  0  0  0  0  0  0  0  0
   37.9280   28.7960   29.3400 H   0  0  0  0  0  0  0  0  0  0  0  0
   39.0880   27.1670   30.6660 H   0  0  0  0  0  0  0  0  0  0  0  0
   37.2330   24.7800   32.7030 F   0  0  0  0  0  0  0  0  0  0  0  0
   38.3590   25.1770   33.3450 C   0  0  0  0  0  0  0  0  0  0  0  0
   38.6890   26.5070   33.1590 C   0  0  0  0  0  0  0  0  0  0  0  0
   39.8180   27.0140   33.7690 C   0  0  0  0  0  0  0  0  0  0  0  0
   40.1770   28.0500   33.6920 H   0  0  0  0  0  0  0  0  0  0  0  0
   40.6310   26.2230   34.5660 C   0  0  0  0  0  0  0  0  0  0  0  0
   41.5240   26.5830   35.0600 H   0  0  0  0  0  0  0  0  0  0  0  0
   40.2910   24.8790   34.7490 C   0  0  0  0  0  3  0  0  0  0  0  0
   39.1610   24.3790   34.1360 C   0  0  0  0  0  3  0  0  0  0  0  0
   34.3370   31.9400   35.7610 C   0  0  0  0  0  0  0  0  0  0  0  0
   33.4910   32.1470   36.8480 C   0  0  0  0  0  0  0  0  0  0  0  0
   33.5420   33.3640   37.5150 C   0  0  0  0  0  0  0  0  0  0  0  0
   34.4360   34.3210   37.0670 N   0  0  0  0  0  0  0  0  0  0  0  0
   35.2410   34.0670   35.9990 C   0  0  0  0  0  0  0  0  0  0  0  0
   35.1970   32.9140   35.3610 N   0  0  0  0  0  0  0  0  0  0  0  0
   32.8310   31.3400   37.1200 H   0  0  0  0  0  0  0  0  0  0  0  0
   32.9020   33.5390   38.3480 H   0  0  0  0  0  0  0  0  0  0  0  0
   35.9020   34.8840   35.7330 H   0  0  0  0  0  0  0  0  0  0  0  0
  1 34  1  0  0  0  0
  2  7  1  0  0  0  0
  2  1  1  0  0  0  0
  3  9  1  6  0  0  0
  3  2  1  0  0  0  0
  4  3  1  0  0  0  0
  4 10  1  0  0  0  0
  4  5  1  0  0  0  0
  5  6  1  0  0  0  0
  6  1  1  0  0  0  0
  6 13  1  0  0  0  0
  6 14  1  0  0  0  0
  8  2  1  0  0  0  0
 11  5  1  0  0  0  0
 12  5  1  0  0  0  0
 16 15  1  0  0  0  0
 17  3  1  0  0  0  0
 17 16  2  0  0  0  0
 18 17  1  0  0  0  0
 19 18  2  0  0  0  0
 19 20  1  0  0  0  0
 20 21  2  0  0  0  0
 21 16  1  0  0  0  0
 21 27  1  0  0  0  0
 22 18  1  0  0  0  0
 23 19  1  0  0  0  0
 24 20  1  0  0  0  0
 25 26  1  0  0  0  0
 26 33  1  0  0  0  0
 27 26  2  0  0  0  0
 27 28  1  0  0  0  0
 28 30  2  0  0  0  0
 29 28  1  0  0  0  0
 30 32  1  0  0  0  0
 30 31  1  0  0  0  0
 33 32  2  0  0  0  0
 34 35  1  0  0  0  0
 35 40  1  0  0  0  0
 35 36  2  0  0  0  0
 36 41  1  0  0  0  0
 37 36  1  0  0  0  0
 38 37  2  0  0  0  0
 39 34  2  0  0  0  0
 39 38  1  0  0  0  0
 42 38  1  0  0  0  0
M  END
>  <minimizedAffinity>
-5.71094894

$$$$
