
 OpenBabel03272508553D

 38 41  0  0  1  0  0  0  0  0999 V2000
   36.9920   26.9010   32.9790 C   0  0  0  0  0  0  0  0  0  0  0  0
   37.0350   26.3540   34.1040 O   0  0  0  0  0  0  0  0  0  0  0  0
   37.3890   26.1730   31.7920 N   0  0  0  0  0  0  0  0  0  0  0  0
   37.5530   26.6180   30.8850 H   0  0  0  0  0  0  0  0  0  0  0  0
   36.5410   28.2960   32.8130 C   0  0  0  0  0  0  0  0  0  0  0  0
   36.7620   28.9210   31.6170 C   0  0  0  0  0  0  0  0  0  0  0  0
   36.3260   30.2280   31.4910 C   0  0  0  0  0  0  0  0  0  0  0  0
   35.7040   30.8170   32.5590 C   0  0  0  0  0  0  0  0  0  0  0  0
   35.4790   30.1910   33.7670 C   0  0  0  0  0  0  0  0  0  0  0  0
   35.9270   28.9350   33.8110 N   0  0  0  0  0  0  0  0  0  0  0  0
   37.2640   28.4110   30.7890 H   0  0  0  0  0  0  0  0  0  0  0  0
   36.4700   30.7840   30.5690 H   0  0  0  0  0  0  0  0  0  0  0  0
   35.3770   31.8230   32.4400 H   0  0  0  0  0  0  0  0  0  0  0  0
   36.6700   31.8930   35.7810 F   0  0  0  0  0  0  0  0  0  0  0  0
   35.3790   31.5280   35.9130 C   0  0  0  0  0  0  0  0  0  0  0  0
   34.8370   30.7200   34.9450 C   0  0  0  0  0  0  0  0  0  0  0  0
   33.5150   30.4040   35.1710 C   0  0  0  0  0  0  0  0  0  0  0  0
   32.9520   29.7720   34.4870 H   0  0  0  0  0  0  0  0  0  0  0  0
   32.8130   30.8590   36.2650 C   0  0  0  0  0  0  0  0  0  0  0  0
   31.7820   30.5920   36.4090 H   0  0  0  0  0  0  0  0  0  0  0  0
   33.4080   31.6680   37.2070 C   0  0  0  0  0  3  0  0  0  0  0  0
   34.7300   32.0130   37.0260 C   0  0  0  0  0  3  0  0  0  0  0  0
   36.5980   23.8580   31.2980 C   0  0  2  0  0  0  0  0  0  0  0  0
   37.8650   24.0410   30.5710 C   0  0  0  0  0  0  0  0  0  0  0  0
   37.5560   24.7330   31.9240 C   0  0  1  0  0  0  0  0  0  0  0  0
   35.7180   24.2890   30.7420 H   0  0  0  0  0  0  0  0  0  0  0  0
   37.9350   24.6660   29.6740 H   0  0  0  0  0  0  0  0  0  0  0  0
   38.6030   23.2250   30.6540 H   0  0  0  0  0  0  0  0  0  0  0  0
   38.1540   24.3700   32.7870 H   0  0  0  0  0  0  0  0  0  0  0  0
   36.5050   21.0720   33.7160 C   0  0  0  0  0  0  0  0  0  0  0  0
   35.5260   20.2000   33.1380 C   0  0  0  0  0  0  0  0  0  0  0  0
   34.9220   20.6110   31.8950 C   0  0  0  0  0  0  0  0  0  0  0  0
   35.3000   21.7870   31.3340 N   0  0  0  0  0  0  0  0  0  0  0  0
   36.2370   22.5690   31.9390 C   0  0  0  0  0  0  0  0  0  0  0  0
   36.8560   22.2390   33.1270 N   0  0  0  0  0  0  0  0  0  0  0  0
   36.9120   20.6980   34.6450 H   0  0  0  0  0  0  0  0  0  0  0  0
   35.2610   19.2880   33.6130 H   0  0  0  0  0  0  0  0  0  0  0  0
   34.1870   19.9530   31.4620 H   0  0  0  0  0  0  0  0  0  0  0  0
  1  2  2  0  0  0  0
  3 25  1  0  0  0  0
  3  1  1  0  0  0  0
  4  3  1  0  0  0  0
  5  1  1  0  0  0  0
  5 10  1  0  0  0  0
  6  5  2  0  0  0  0
  7  6  1  0  0  0  0
  7  8  2  0  0  0  0
  8  9  1  0  0  0  0
  9 10  2  0  0  0  0
  9 16  1  0  0  0  0
 11  6  1  0  0  0  0
 12  7  1  0  0  0  0
 13  8  1  0  0  0  0
 14 15  1  0  0  0  0
 15 22  1  0  0  0  0
 16 17  1  0  0  0  0
 16 15  2  0  0  0  0
 17 19  2  0  0  0  0
 18 17  1  0  0  0  0
 19 20  1  0  0  0  0
 19 21  1  0  0  0  0
 22 21  2  0  0  0  0
 23 26  1  6  0  0  0
 23 25  1  0  0  0  0
 23 34  1  0  0  0  0
 24 28  1  0  0  0  0
 24 23  1  0  0  0  0
 24 25  1  0  0  0  0
 25 29  1  1  0  0  0
 27 24  1  0  0  0  0
 30 36  1  0  0  0  0
 31 37  1  0  0  0  0
 31 30  1  0  0  0  0
 32 31  2  0  0  0  0
 33 32  1  0  0  0  0
 33 34  2  0  0  0  0
 34 35  1  0  0  0  0
 35 30  2  0  0  0  0
 38 32  1  0  0  0  0
M  END
>  <minimizedAffinity>
-6.33345509

$$$$

 OpenBabel03272508553D

 38 41  0  0  1  0  0  0  0  0999 V2000
   37.8020   27.1420   33.8090 C   0  0  0  0  0  0  0  0  0  0  0  0
   38.4980   27.3030   34.8360 O   0  0  0  0  0  0  0  0  0  0  0  0
   37.9590   25.9560   32.9930 N   0  0  0  0  0  0  0  0  0  0  0  0
   37.5610   25.8600   32.0550 H   0  0  0  0  0  0  0  0  0  0  0  0
   36.8020   28.1420   33.3850 C   0  0  0  0  0  0  0  0  0  0  0  0
   36.5350   28.2810   32.0520 C   0  0  0  0  0  0  0  0  0  0  0  0
   35.5910   29.2260   31.6860 C   0  0  0  0  0  0  0  0  0  0  0  0
   34.9850   29.9610   32.6700 C   0  0  0  0  0  0  0  0  0  0  0  0
   35.2530   29.8240   34.0150 C   0  0  0  0  0  0  0  0  0  0  0  0
   36.1710   28.8950   34.2890 N   0  0  0  0  0  0  0  0  0  0  0  0
   37.0440   27.6710   31.2990 H   0  0  0  0  0  0  0  0  0  0  0  0
   35.3310   29.3880   30.6440 H   0  0  0  0  0  0  0  0  0  0  0  0
   34.2640   30.6810   32.3660 H   0  0  0  0  0  0  0  0  0  0  0  0
   36.6020   31.6690   35.7890 F   0  0  0  0  0  0  0  0  0  0  0  0
   35.2900   31.4240   35.9760 C   0  0  0  0  0  0  0  0  0  0  0  0
   34.6720   30.5450   35.1210 C   0  0  0  0  0  0  0  0  0  0  0  0
   33.3340   30.3620   35.3960 C   0  0  0  0  0  0  0  0  0  0  0  0
   32.7130   29.6930   34.8010 H   0  0  0  0  0  0  0  0  0  0  0  0
   32.6870   31.0030   36.4280 C   0  0  0  0  0  0  0  0  0  0  0  0
   31.6420   30.8360   36.6130 H   0  0  0  0  0  0  0  0  0  0  0  0
   33.3570   31.8760   37.2560 C   0  0  0  0  0  3  0  0  0  0  0  0
   34.6980   32.0930   37.0230 C   0  0  0  0  0  3  0  0  0  0  0  0
   38.1080   24.0080   34.5450 C   0  0  2  0  0  0  0  0  0  0  0  0
   38.1590   23.4690   33.1760 C   0  0  0  0  0  0  0  0  0  0  0  0
   38.7280   24.8600   33.5620 C   0  0  1  0  0  0  0  0  0  0  0  0
   37.0540   24.2130   34.8860 H   0  0  0  0  0  0  0  0  0  0  0  0
   37.2740   23.4320   32.5330 H   0  0  0  0  0  0  0  0  0  0  0  0
   38.9410   22.7170   32.9730 H   0  0  0  0  0  0  0  0  0  0  0  0
   39.8350   24.9430   33.5240 H   0  0  0  0  0  0  0  0  0  0  0  0
   40.8050   22.2340   36.3330 C   0  0  0  0  0  0  0  0  0  0  0  0
   40.4320   22.4140   37.7040 C   0  0  0  0  0  0  0  0  0  0  0  0
   39.2230   23.1550   37.9710 C   0  0  0  0  0  0  0  0  0  0  0  0
   38.5030   23.6420   36.9300 N   0  0  0  0  0  0  0  0  0  0  0  0
   38.9170   23.4340   35.6490 C   0  0  0  0  0  0  0  0  0  0  0  0
   40.0610   22.7350   35.3200 N   0  0  0  0  0  0  0  0  0  0  0  0
   41.7190   21.6700   36.2130 H   0  0  0  0  0  0  0  0  0  0  0  0
   41.0260   22.0140   38.4880 H   0  0  0  0  0  0  0  0  0  0  0  0
   38.9450   23.2890   39.0030 H   0  0  0  0  0  0  0  0  0  0  0  0
  1  2  2  0  0  0  0
  3 25  1  0  0  0  0
  3  1  1  0  0  0  0
  4  3  1  0  0  0  0
  5  1  1  0  0  0  0
  5 10  1  0  0  0  0
  6  5  2  0  0  0  0
  7  6  1  0  0  0  0
  7  8  2  0  0  0  0
  8  9  1  0  0  0  0
  9 10  2  0  0  0  0
  9 16  1  0  0  0  0
 11  6  1  0  0  0  0
 12  7  1  0  0  0  0
 13  8  1  0  0  0  0
 14 15  1  0  0  0  0
 15 22  1  0  0  0  0
 16 17  1  0  0  0  0
 16 15  2  0  0  0  0
 17 19  2  0  0  0  0
 18 17  1  0  0  0  0
 19 20  1  0  0  0  0
 19 21  1  0  0  0  0
 22 21  2  0  0  0  0
 23 26  1  1  0  0  0
 23 34  1  0  0  0  0
 24 25  1  0  0  0  0
 24 23  1  0  0  0  0
 25 29  1  1  0  0  0
 25 23  1  0  0  0  0
 27 24  1  0  0  0  0
 28 24  1  0  0  0  0
 30 31  1  0  0  0  0
 31 32  2  0  0  0  0
 31 37  1  0  0  0  0
 32 38  1  0  0  0  0
 33 32  1  0  0  0  0
 34 33  2  0  0  0  0
 35 34  1  0  0  0  0
 35 30  2  0  0  0  0
 36 30  1  0  0  0  0
M  END
>  <minimizedAffinity>
-6.12190819

$$$$

 OpenBabel03272508553D

 38 41  0  0  1  0  0  0  0  0999 V2000
   37.0540   26.2050   33.5750 C   0  0  0  0  0  0  0  0  0  0  0  0
   37.0260   25.2560   32.7600 O   0  0  0  0  0  0  0  0  0  0  0  0
   37.4360   25.9790   34.9530 N   0  0  0  0  0  0  0  0  0  0  0  0
   37.2980   26.6670   35.6970 H   0  0  0  0  0  0  0  0  0  0  0  0
   36.7040   27.5820   33.1750 C   0  0  0  0  0  0  0  0  0  0  0  0
   37.0230   28.0010   31.9130 C   0  0  0  0  0  0  0  0  0  0  0  0
   36.6800   29.2970   31.5670 C   0  0  0  0  0  0  0  0  0  0  0  0
   36.0480   30.0780   32.4970 C   0  0  0  0  0  0  0  0  0  0  0  0
   35.7250   29.6590   33.7700 C   0  0  0  0  0  0  0  0  0  0  0  0
   36.0870   28.4010   34.0290 N   0  0  0  0  0  0  0  0  0  0  0  0
   37.5290   27.3420   31.2010 H   0  0  0  0  0  0  0  0  0  0  0  0
   36.9030   29.6940   30.5810 H   0  0  0  0  0  0  0  0  0  0  0  0
   35.7940   31.0700   32.2100 H   0  0  0  0  0  0  0  0  0  0  0  0
   32.9260   29.5280   34.4950 F   0  0  0  0  0  0  0  0  0  0  0  0
   33.7410   30.3550   35.1790 C   0  0  0  0  0  0  0  0  0  0  0  0
   35.0640   30.4000   34.8160 C   0  0  0  0  0  0  0  0  0  0  0  0
   35.8110   31.2750   35.5750 C   0  0  0  0  0  0  0  0  0  0  0  0
   36.8780   31.4160   35.4020 H   0  0  0  0  0  0  0  0  0  0  0  0
   35.2750   32.0280   36.5950 C   0  0  0  0  0  0  0  0  0  0  0  0
   35.8890   32.7010   37.1650 H   0  0  0  0  0  0  0  0  0  0  0  0
   33.9390   31.9440   36.9160 C   0  0  0  0  0  3  0  0  0  0  0  0
   33.1480   31.0820   36.1870 C   0  0  0  0  0  3  0  0  0  0  0  0
   38.9380   24.6040   36.3960 C   0  0  2  0  0  0  0  0  0  0  0  0
   37.5660   24.1230   36.6270 C   0  0  0  0  0  0  0  0  0  0  0  0
   38.0470   24.6960   35.2670 C   0  0  1  0  0  0  0  0  0  0  0  0
   39.1790   25.5220   37.0020 H   0  0  0  0  0  0  0  0  0  0  0  0
   36.8370   24.7020   37.2030 H   0  0  0  0  0  0  0  0  0  0  0  0
   37.4190   23.0290   36.6150 H   0  0  0  0  0  0  0  0  0  0  0  0
   38.1220   23.9540   34.4440 H   0  0  0  0  0  0  0  0  0  0  0  0
   42.1640   23.1010   35.4190 C   0  0  0  0  0  0  0  0  0  0  0  0
   42.2670   21.9900   36.3180 C   0  0  0  0  0  0  0  0  0  0  0  0
   41.1850   21.7880   37.2500 C   0  0  0  0  0  0  0  0  0  0  0  0
   40.1330   22.6430   37.2370 N   0  0  0  0  0  0  0  0  0  0  0  0
   40.1000   23.6800   36.3540 C   0  0  0  0  0  0  0  0  0  0  0  0
   41.0980   23.9340   35.4350 N   0  0  0  0  0  0  0  0  0  0  0  0
   43.0110   23.1870   34.7520 H   0  0  0  0  0  0  0  0  0  0  0  0
   43.1100   21.3450   36.2930 H   0  0  0  0  0  0  0  0  0  0  0  0
   41.2650   20.9520   37.9250 H   0  0  0  0  0  0  0  0  0  0  0  0
  1  3  1  0  0  0  0
  2  1  2  0  0  0  0
  3 25  1  0  0  0  0
  3  4  1  0  0  0  0
  5  1  1  0  0  0  0
  5 10  1  0  0  0  0
  6  5  2  0  0  0  0
  7  6  1  0  0  0  0
  7  8  2  0  0  0  0
  8  9  1  0  0  0  0
  9 10  2  0  0  0  0
  9 16  1  0  0  0  0
 11  6  1  0  0  0  0
 12  7  1  0  0  0  0
 13  8  1  0  0  0  0
 14 15  1  0  0  0  0
 15 22  1  0  0  0  0
 16 15  2  0  0  0  0
 16 17  1  0  0  0  0
 17 19  2  0  0  0  0
 18 17  1  0  0  0  0
 19 21  1  0  0  0  0
 19 20  1  0  0  0  0
 22 21  2  0  0  0  0
 23 24  1  0  0  0  0
 23 26  1  1  0  0  0
 24 27  1  0  0  0  0
 25 29  1  6  0  0  0
 25 23  1  0  0  0  0
 25 24  1  0  0  0  0
 28 24  1  0  0  0  0
 30 35  2  0  0  0  0
 30 31  1  0  0  0  0
 31 32  2  0  0  0  0
 32 38  1  0  0  0  0
 33 32  1  0  0  0  0
 34 23  1  0  0  0  0
 34 33  2  0  0  0  0
 35 34  1  0  0  0  0
 36 30  1  0  0  0  0
 37 31  1  0  0  0  0
M  END
>  <minimizedAffinity>
-6.07598829

$$$$

 OpenBabel03272508553D

 38 41  0  0  1  0  0  0  0  0999 V2000
   37.8070   25.0140   35.1180 C   0  0  0  0  0  0  0  0  0  0  0  0
   37.1590   26.0720   35.2840 O   0  0  0  0  0  0  0  0  0  0  0  0
   37.9580   24.4440   33.7950 N   0  0  0  0  0  0  0  0  0  0  0  0
   38.3090   23.4990   33.6250 H   0  0  0  0  0  0  0  0  0  0  0  0
   38.4400   24.3080   36.2490 C   0  0  0  0  0  0  0  0  0  0  0  0
   37.7750   24.2470   37.4410 C   0  0  0  0  0  0  0  0  0  0  0  0
   38.3930   23.5770   38.4830 C   0  0  0  0  0  0  0  0  0  0  0  0
   39.6230   23.0160   38.2620 C   0  0  0  0  0  0  0  0  0  0  0  0
   40.2970   23.0750   37.0610 C   0  0  0  0  0  0  0  0  0  0  0  0
   39.6390   23.7370   36.1080 N   0  0  0  0  0  0  0  0  0  0  0  0
   36.7920   24.7100   37.5730 H   0  0  0  0  0  0  0  0  0  0  0  0
   37.9210   23.4910   39.4570 H   0  0  0  0  0  0  0  0  0  0  0  0
   40.0800   22.5060   39.0760 H   0  0  0  0  0  0  0  0  0  0  0  0
   42.5570   24.4840   35.9280 F   0  0  0  0  0  0  0  0  0  0  0  0
   42.6730   23.1680   36.1930 C   0  0  0  0  0  0  0  0  0  0  0  0
   41.5870   22.5220   36.7290 C   0  0  0  0  0  0  0  0  0  0  0  0
   41.8070   21.1810   36.9610 C   0  0  0  0  0  0  0  0  0  0  0  0
   41.0360   20.5390   37.3860 H   0  0  0  0  0  0  0  0  0  0  0  0
   43.0020   20.5580   36.6800 C   0  0  0  0  0  0  0  0  0  0  0  0
   43.1370   19.5100   36.8740 H   0  0  0  0  0  0  0  0  0  0  0  0
   44.0590   21.2560   36.1410 C   0  0  0  0  0  3  0  0  0  0  0  0
   43.8900   22.6010   35.8900 C   0  0  0  0  0  3  0  0  0  0  0  0
   38.4410   26.3800   32.2960 C   0  0  2  0  0  0  0  0  0  0  0  0
   38.5720   25.1630   31.4780 C   0  0  0  0  0  0  0  0  0  0  0  0
   37.5830   25.2840   32.6670 C   0  0  1  0  0  0  0  0  0  0  0  0
   39.3710   26.5970   32.8940 H   0  0  0  0  0  0  0  0  0  0  0  0
   39.4240   24.4820   31.5810 H   0  0  0  0  0  0  0  0  0  0  0  0
   38.0760   25.1770   30.4920 H   0  0  0  0  0  0  0  0  0  0  0  0
   36.5090   25.3050   32.3860 H   0  0  0  0  0  0  0  0  0  0  0  0
   37.7750   29.2300   30.0480 C   0  0  0  0  0  0  0  0  0  0  0  0
   36.7370   29.9300   30.7440 C   0  0  0  0  0  0  0  0  0  0  0  0
   36.2960   29.3840   32.0040 C   0  0  0  0  0  0  0  0  0  0  0  0
   36.8740   28.2480   32.4700 N   0  0  0  0  0  0  0  0  0  0  0  0
   37.8580   27.6330   31.7560 C   0  0  0  0  0  0  0  0  0  0  0  0
   38.3280   28.0990   30.5450 N   0  0  0  0  0  0  0  0  0  0  0  0
   38.0510   29.6980   29.1140 H   0  0  0  0  0  0  0  0  0  0  0  0
   36.3120   30.8160   30.3410 H   0  0  0  0  0  0  0  0  0  0  0  0
   35.5150   29.9120   32.5250 H   0  0  0  0  0  0  0  0  0  0  0  0
  1  2  2  0  0  0  0
  1  5  1  0  0  0  0
  3  1  1  0  0  0  0
  4  3  1  0  0  0  0
  5  6  1  0  0  0  0
  6 11  1  0  0  0  0
  6  7  2  0  0  0  0
  7 12  1  0  0  0  0
  8  7  1  0  0  0  0
  8 13  1  0  0  0  0
  9  8  2  0  0  0  0
 10  5  2  0  0  0  0
 10  9  1  0  0  0  0
 14 15  1  0  0  0  0
 15 16  1  0  0  0  0
 16 17  2  0  0  0  0
 16  9  1  0  0  0  0
 17 18  1  0  0  0  0
 19 20  1  0  0  0  0
 19 17  1  0  0  0  0
 21 19  2  0  0  0  0
 22 21  1  0  0  0  0
 22 15  2  0  0  0  0
 23 25  1  0  0  0  0
 23 26  1  1  0  0  0
 24 27  1  0  0  0  0
 24 23  1  0  0  0  0
 24 25  1  0  0  0  0
 25 29  1  6  0  0  0
 25  3  1  0  0  0  0
 28 24  1  0  0  0  0
 30 35  2  0  0  0  0
 30 31  1  0  0  0  0
 31 32  2  0  0  0  0
 32 33  1  0  0  0  0
 32 38  1  0  0  0  0
 34 23  1  0  0  0  0
 34 33  2  0  0  0  0
 35 34  1  0  0  0  0
 36 30  1  0  0  0  0
 37 31  1  0  0  0  0
M  END
>  <minimizedAffinity>
-5.79014206

$$$$

 OpenBabel03272508553D

 38 41  0  0  1  0  0  0  0  0999 V2000
   37.1530   27.0220   33.1820 C   0  0  0  0  0  0  0  0  0  0  0  0
   37.6490   26.3440   32.2540 O   0  0  0  0  0  0  0  0  0  0  0  0
   37.1320   26.5100   34.5360 N   0  0  0  0  0  0  0  0  0  0  0  0
   36.5800   26.9290   35.2890 H   0  0  0  0  0  0  0  0  0  0  0  0
   36.5730   28.3580   32.9420 C   0  0  0  0  0  0  0  0  0  0  0  0
   36.6760   28.9050   31.6930 C   0  0  0  0  0  0  0  0  0  0  0  0
   36.1220   30.1580   31.4980 C   0  0  0  0  0  0  0  0  0  0  0  0
   35.5070   30.7740   32.5560 C   0  0  0  0  0  0  0  0  0  0  0  0
   35.4020   30.2260   33.8170 C   0  0  0  0  0  0  0  0  0  0  0  0
   35.9590   29.0180   33.9260 N   0  0  0  0  0  0  0  0  0  0  0  0
   37.1770   28.3760   30.8760 H   0  0  0  0  0  0  0  0  0  0  0  0
   36.1680   30.6500   30.5310 H   0  0  0  0  0  0  0  0  0  0  0  0
   35.0880   31.7360   32.3840 H   0  0  0  0  0  0  0  0  0  0  0  0
   36.6720   31.8350   35.8590 F   0  0  0  0  0  0  0  0  0  0  0  0
   35.3580   31.5550   35.9700 C   0  0  0  0  0  0  0  0  0  0  0  0
   34.7790   30.7900   34.9890 C   0  0  0  0  0  0  0  0  0  0  0  0
   33.4360   30.5590   35.1950 C   0  0  0  0  0  0  0  0  0  0  0  0
   32.8420   29.9690   34.4980 H   0  0  0  0  0  0  0  0  0  0  0  0
   32.7490   31.0530   36.2810 C   0  0  0  0  0  0  0  0  0  0  0  0
   31.7010   30.8530   36.4100 H   0  0  0  0  0  0  0  0  0  0  0  0
   33.3820   31.8160   37.2370 C   0  0  0  0  0  3  0  0  0  0  0  0
   34.7260   32.0750   37.0770 C   0  0  0  0  0  3  0  0  0  0  0  0
   39.2510   25.5160   35.4000 C   0  0  2  0  0  0  0  0  0  0  0  0
   38.1820   25.1160   36.3300 C   0  0  0  0  0  0  0  0  0  0  0  0
   37.9480   25.3370   34.8120 C   0  0  1  0  0  0  0  0  0  0  0  0
   39.6390   26.5520   35.6120 H   0  0  0  0  0  0  0  0  0  0  0  0
   37.7270   25.8240   37.0320 H   0  0  0  0  0  0  0  0  0  0  0  0
   38.1600   24.0540   36.6270 H   0  0  0  0  0  0  0  0  0  0  0  0
   37.7270   24.4170   34.2300 H   0  0  0  0  0  0  0  0  0  0  0  0
   42.5770   24.3210   34.3380 C   0  0  0  0  0  0  0  0  0  0  0  0
   42.4290   22.8980   34.4170 C   0  0  0  0  0  0  0  0  0  0  0  0
   41.1480   22.3860   34.8380 C   0  0  0  0  0  0  0  0  0  0  0  0
   40.1530   23.2590   35.1360 N   0  0  0  0  0  0  0  0  0  0  0  0
   40.3630   24.6010   35.0390 C   0  0  0  0  0  0  0  0  0  0  0  0
   41.5610   25.1610   34.6440 N   0  0  0  0  0  0  0  0  0  0  0  0
   43.5620   24.6280   34.0160 H   0  0  0  0  0  0  0  0  0  0  0  0
   43.2360   22.2520   34.1740 H   0  0  0  0  0  0  0  0  0  0  0  0
   41.0390   21.3160   34.8970 H   0  0  0  0  0  0  0  0  0  0  0  0
  1  3  1  0  0  0  0
  2  1  2  0  0  0  0
  3 25  1  0  0  0  0
  3  4  1  0  0  0  0
  5  1  1  0  0  0  0
  5 10  1  0  0  0  0
  6  5  2  0  0  0  0
  7  6  1  0  0  0  0
  7  8  2  0  0  0  0
  8  9  1  0  0  0  0
  9 10  2  0  0  0  0
  9 16  1  0  0  0  0
 11  6  1  0  0  0  0
 12  7  1  0  0  0  0
 13  8  1  0  0  0  0
 14 15  1  0  0  0  0
 15 22  1  0  0  0  0
 16 17  1  0  0  0  0
 16 15  2  0  0  0  0
 17 19  2  0  0  0  0
 18 17  1  0  0  0  0
 19 20  1  0  0  0  0
 19 21  1  0  0  0  0
 22 21  2  0  0  0  0
 23 26  1  1  0  0  0
 23 24  1  0  0  0  0
 24 28  1  0  0  0  0
 24 27  1  0  0  0  0
 25 29  1  6  0  0  0
 25 23  1  0  0  0  0
 25 24  1  0  0  0  0
 30 31  2  0  0  0  0
 30 35  1  0  0  0  0
 31 32  1  0  0  0  0
 32 38  1  0  0  0  0
 32 33  2  0  0  0  0
 34 33  1  0  0  0  0
 34 23  1  0  0  0  0
 35 34  2  0  0  0  0
 36 30  1  0  0  0  0
 37 31  1  0  0  0  0
M  END
>  <minimizedAffinity>
-5.77896547

$$$$

 OpenBabel03272508553D

 38 41  0  0  1  0  0  0  0  0999 V2000
   38.2940   25.9670   34.5050 C   0  0  0  0  0  0  0  0  0  0  0  0
   39.2500   26.7430   34.7250 O   0  0  0  0  0  0  0  0  0  0  0  0
   37.1050   26.4390   33.8260 N   0  0  0  0  0  0  0  0  0  0  0  0
   36.2300   25.9110   33.7880 H   0  0  0  0  0  0  0  0  0  0  0  0
   38.3310   24.5520   34.9240 C   0  0  0  0  0  0  0  0  0  0  0  0
   38.9900   24.2250   36.0760 C   0  0  0  0  0  0  0  0  0  0  0  0
   39.0070   22.8900   36.4430 C   0  0  0  0  0  0  0  0  0  0  0  0
   38.3690   21.9820   35.6400 C   0  0  0  0  0  0  0  0  0  0  0  0
   37.7050   22.3090   34.4770 C   0  0  0  0  0  0  0  0  0  0  0  0
   37.7320   23.6110   34.1910 N   0  0  0  0  0  0  0  0  0  0  0  0
   39.4860   24.9840   36.6880 H   0  0  0  0  0  0  0  0  0  0  0  0
   39.5110   22.5610   37.3470 H   0  0  0  0  0  0  0  0  0  0  0  0
   38.3950   20.9620   35.9410 H   0  0  0  0  0  0  0  0  0  0  0  0
   35.3580   20.7150   35.0510 F   0  0  0  0  0  0  0  0  0  0  0  0
   35.8950   20.6670   33.8160 C   0  0  0  0  0  0  0  0  0  0  0  0
   37.0080   21.4320   33.5680 C   0  0  0  0  0  0  0  0  0  0  0  0
   37.4790   21.3130   32.2780 C   0  0  0  0  0  0  0  0  0  0  0  0
   38.3560   21.8610   31.9360 H   0  0  0  0  0  0  0  0  0  0  0  0
   36.8850   20.5040   31.3360 C   0  0  0  0  0  0  0  0  0  0  0  0
   37.2810   20.4360   30.3390 H   0  0  0  0  0  0  0  0  0  0  0  0
   35.7690   19.7570   31.6400 C   0  0  0  0  0  3  0  0  0  0  0  0
   35.2590   19.8410   32.9180 C   0  0  0  0  0  3  0  0  0  0  0  0
   36.2370   28.0630   32.1420 C   0  0  2  0  0  0  0  0  0  0  0  0
   35.9600   28.6350   33.4700 C   0  0  0  0  0  0  0  0  0  0  0  0
   37.1890   27.7370   33.1720 C   0  0  1  0  0  0  0  0  0  0  0  0
   35.4610   27.3080   31.8300 H   0  0  0  0  0  0  0  0  0  0  0  0
   35.1740   28.2380   34.1210 H   0  0  0  0  0  0  0  0  0  0  0  0
   36.2180   29.6990   33.6100 H   0  0  0  0  0  0  0  0  0  0  0  0
   38.1700   28.2560   33.2010 H   0  0  0  0  0  0  0  0  0  0  0  0
   36.9170   31.0380   30.0660 C   0  0  0  0  0  0  0  0  0  0  0  0
   37.4470   30.4580   28.8680 C   0  0  0  0  0  0  0  0  0  0  0  0
   37.5450   29.0210   28.8130 C   0  0  0  0  0  0  0  0  0  0  0  0
   37.1390   28.2890   29.8810 N   0  0  0  0  0  0  0  0  0  0  0  0
   36.6450   28.9060   30.9900 C   0  0  0  0  0  0  0  0  0  0  0  0
   36.5220   30.2750   31.1120 N   0  0  0  0  0  0  0  0  0  0  0  0
   36.8740   32.1170   30.0330 H   0  0  0  0  0  0  0  0  0  0  0  0
   37.7530   31.0700   28.0560 H   0  0  0  0  0  0  0  0  0  0  0  0
   37.9430   28.5870   27.9100 H   0  0  0  0  0  0  0  0  0  0  0  0
  1  2  2  0  0  0  0
  1  5  1  0  0  0  0
  3  1  1  0  0  0  0
  4  3  1  0  0  0  0
  5  6  1  0  0  0  0
  6  7  2  0  0  0  0
  6 11  1  0  0  0  0
  7 12  1  0  0  0  0
  8 13  1  0  0  0  0
  8  7  1  0  0  0  0
  9  8  2  0  0  0  0
 10  9  1  0  0  0  0
 10  5  2  0  0  0  0
 15 14  1  0  0  0  0
 16 15  1  0  0  0  0
 16  9  1  0  0  0  0
 17 16  2  0  0  0  0
 18 17  1  0  0  0  0
 19 21  2  0  0  0  0
 19 17  1  0  0  0  0
 20 19  1  0  0  0  0
 21 22  1  0  0  0  0
 22 15  2  0  0  0  0
 23 26  1  6  0  0  0
 23 25  1  0  0  0  0
 23 24  1  0  0  0  0
 24 28  1  0  0  0  0
 24 27  1  0  0  0  0
 25 29  1  6  0  0  0
 25 24  1  0  0  0  0
 25  3  1  0  0  0  0
 30 35  1  0  0  0  0
 31 30  2  0  0  0  0
 32 31  1  0  0  0  0
 32 33  2  0  0  0  0
 33 34  1  0  0  0  0
 34 35  2  0  0  0  0
 34 23  1  0  0  0  0
 36 30  1  0  0  0  0
 37 31  1  0  0  0  0
 38 32  1  0  0  0  0
M  END
>  <minimizedAffinity>
-5.7640748

$$$$

 OpenBabel03272508553D

 38 41  0  0  1  0  0  0  0  0999 V2000
   35.8610   25.9440   31.2710 C   0  0  0  0  0  0  0  0  0  0  0  0
   34.6590   25.8990   30.9250 O   0  0  0  0  0  0  0  0  0  0  0  0
   36.4090   27.1420   31.8720 N   0  0  0  0  0  0  0  0  0  0  0  0
   37.4110   27.3020   31.9990 H   0  0  0  0  0  0  0  0  0  0  0  0
   36.7650   24.7920   31.0850 C   0  0  0  0  0  0  0  0  0  0  0  0
   37.9970   25.0050   30.5330 C   0  0  0  0  0  0  0  0  0  0  0  0
   38.8220   23.9050   30.3730 C   0  0  0  0  0  0  0  0  0  0  0  0
   38.3630   22.6780   30.7720 C   0  0  0  0  0  0  0  0  0  0  0  0
   37.1210   22.4590   31.3290 C   0  0  0  0  0  0  0  0  0  0  0  0
   36.3850   23.5650   31.4510 N   0  0  0  0  0  0  0  0  0  0  0  0
   38.3230   26.0040   30.2280 H   0  0  0  0  0  0  0  0  0  0  0  0
   39.8140   24.0030   29.9410 H   0  0  0  0  0  0  0  0  0  0  0  0
   39.0140   21.8470   30.6400 H   0  0  0  0  0  0  0  0  0  0  0  0
   36.7650   20.0450   29.7740 F   0  0  0  0  0  0  0  0  0  0  0  0
   36.3690   20.0580   31.0620 C   0  0  0  0  0  0  0  0  0  0  0  0
   36.5480   21.2140   31.7790 C   0  0  0  0  0  0  0  0  0  0  0  0
   36.1110   21.1250   33.0830 C   0  0  0  0  0  0  0  0  0  0  0  0
   36.1890   21.9650   33.7720 H   0  0  0  0  0  0  0  0  0  0  0  0
   35.5500   19.9830   33.6080 C   0  0  0  0  0  0  0  0  0  0  0  0
   35.2200   19.9490   34.6300 H   0  0  0  0  0  0  0  0  0  0  0  0
   35.3940   18.8490   32.8420 C   0  0  0  0  0  3  0  0  0  0  0  0
   35.8160   18.8870   31.5300 C   0  0  0  0  0  3  0  0  0  0  0  0
   35.9480   29.3110   33.0160 C   0  0  2  0  0  0  0  0  0  0  0  0
   35.6630   29.5140   31.5860 C   0  0  0  0  0  0  0  0  0  0  0  0
   35.4600   28.1560   32.3080 C   0  0  1  0  0  0  0  0  0  0  0  0
   37.0460   29.4070   33.2530 H   0  0  0  0  0  0  0  0  0  0  0  0
   36.4610   29.5880   30.8390 H   0  0  0  0  0  0  0  0  0  0  0  0
   34.7170   30.0260   31.3400 H   0  0  0  0  0  0  0  0  0  0  0  0
   34.4020   27.8410   32.4300 H   0  0  0  0  0  0  0  0  0  0  0  0
   34.9550   31.4590   35.8480 C   0  0  0  0  0  0  0  0  0  0  0  0
   33.5730   31.1220   36.0160 C   0  0  0  0  0  0  0  0  0  0  0  0
   33.0180   30.1320   35.1260 C   0  0  0  0  0  0  0  0  0  0  0  0
   33.8160   29.5690   34.1840 N   0  0  0  0  0  0  0  0  0  0  0  0
   35.1230   29.9370   34.0800 C   0  0  0  0  0  0  0  0  0  0  0  0
   35.7210   30.8770   34.8960 N   0  0  0  0  0  0  0  0  0  0  0  0
   35.2980   32.2070   36.5500 H   0  0  0  0  0  0  0  0  0  0  0  0
   32.9860   31.5880   36.7680 H   0  0  0  0  0  0  0  0  0  0  0  0
   31.9790   29.8800   35.2540 H   0  0  0  0  0  0  0  0  0  0  0  0
  1  3  1  0  0  0  0
  2  1  2  0  0  0  0
  3  4  1  0  0  0  0
  3 25  1  0  0  0  0
  5  1  1  0  0  0  0
  5 10  1  0  0  0  0
  6  5  2  0  0  0  0
  7  6  1  0  0  0  0
  7  8  2  0  0  0  0
  8  9  1  0  0  0  0
  9 10  2  0  0  0  0
  9 16  1  0  0  0  0
 11  6  1  0  0  0  0
 12  7  1  0  0  0  0
 13  8  1  0  0  0  0
 14 15  1  0  0  0  0
 15 22  2  0  0  0  0
 15 16  1  0  0  0  0
 16 17  2  0  0  0  0
 17 19  1  0  0  0  0
 17 18  1  0  0  0  0
 19 20  1  0  0  0  0
 21 19  2  0  0  0  0
 22 21  1  0  0  0  0
 23 26  1  1  0  0  0
 23 34  1  0  0  0  0
 24 25  1  0  0  0  0
 24 23  1  0  0  0  0
 25 29  1  1  0  0  0
 25 23  1  0  0  0  0
 27 24  1  0  0  0  0
 28 24  1  0  0  0  0
 30 31  1  0  0  0  0
 30 36  1  0  0  0  0
 31 37  1  0  0  0  0
 32 38  1  0  0  0  0
 32 31  2  0  0  0  0
 33 32  1  0  0  0  0
 34 33  2  0  0  0  0
 34 35  1  0  0  0  0
 35 30  2  0  0  0  0
M  END
>  <minimizedAffinity>
-5.7106595

$$$$

 OpenBabel03272508553D

 38 41  0  0  1  0  0  0  0  0999 V2000
   37.0840   26.9160   32.6670 C   0  0  0  0  0  0  0  0  0  0  0  0
   37.2360   27.3870   31.5180 O   0  0  0  0  0  0  0  0  0  0  0  0
   36.5760   27.7460   33.7400 N   0  0  0  0  0  0  0  0  0  0  0  0
   36.6090   27.4750   34.7260 H   0  0  0  0  0  0  0  0  0  0  0  0
   37.4100   25.5110   32.9780 C   0  0  0  0  0  0  0  0  0  0  0  0
   37.3360   24.5810   31.9790 C   0  0  0  0  0  0  0  0  0  0  0  0
   37.6500   23.2720   32.3010 C   0  0  0  0  0  0  0  0  0  0  0  0
   38.0130   22.9840   33.5900 C   0  0  0  0  0  0  0  0  0  0  0  0
   38.0890   23.9190   34.6010 C   0  0  0  0  0  0  0  0  0  0  0  0
   37.7730   25.1560   34.2130 N   0  0  0  0  0  0  0  0  0  0  0  0
   37.0400   24.8560   30.9620 H   0  0  0  0  0  0  0  0  0  0  0  0
   37.6110   22.4840   31.5560 H   0  0  0  0  0  0  0  0  0  0  0  0
   38.2500   21.9720   33.8160 H   0  0  0  0  0  0  0  0  0  0  0  0
   40.4370   22.5460   35.5910 F   0  0  0  0  0  0  0  0  0  0  0  0
   39.5650   23.0720   36.4740 C   0  0  0  0  0  0  0  0  0  0  0  0
   38.4590   23.7180   35.9800 C   0  0  0  0  0  0  0  0  0  0  0  0
   37.6320   24.2180   36.9620 C   0  0  0  0  0  0  0  0  0  0  0  0
   36.7160   24.7560   36.7210 H   0  0  0  0  0  0  0  0  0  0  0  0
   37.8960   24.0790   38.3060 C   0  0  0  0  0  0  0  0  0  0  0  0
   37.2270   24.4820   39.0450 H   0  0  0  0  0  0  0  0  0  0  0  0
   39.0220   23.4200   38.7470 C   0  0  0  0  0  3  0  0  0  0  0  0
   39.8820   22.9010   37.8030 C   0  0  0  0  0  3  0  0  0  0  0  0
   34.6320   29.3100   33.7380 C   0  0  2  0  0  0  0  0  0  0  0  0
   35.6650   29.9130   34.5960 C   0  0  0  0  0  0  0  0  0  0  0  0
   35.9950   29.0270   33.3670 C   0  0  1  0  0  0  0  0  0  0  0  0
   34.0210   28.5350   34.2810 H   0  0  0  0  0  0  0  0  0  0  0  0
   35.8940   29.5210   35.5930 H   0  0  0  0  0  0  0  0  0  0  0  0
   35.8760   30.9840   34.4340 H   0  0  0  0  0  0  0  0  0  0  0  0
   36.4560   29.5620   32.5100 H   0  0  0  0  0  0  0  0  0  0  0  0
   31.6370   30.8880   32.2700 C   0  0  0  0  0  0  0  0  0  0  0  0
   32.1960   31.6840   31.2190 C   0  0  0  0  0  0  0  0  0  0  0  0
   33.6270   31.6410   31.0420 C   0  0  0  0  0  0  0  0  0  0  0  0
   34.3710   30.8610   31.8660 N   0  0  0  0  0  0  0  0  0  0  0  0
   33.7730   30.1290   32.8460 C   0  0  0  0  0  0  0  0  0  0  0  0
   32.4110   30.1210   33.0720 N   0  0  0  0  0  0  0  0  0  0  0  0
   30.5610   30.9720   32.3400 H   0  0  0  0  0  0  0  0  0  0  0  0
   31.5750   32.2810   30.5970 H   0  0  0  0  0  0  0  0  0  0  0  0
   34.0450   32.2410   30.2510 H   0  0  0  0  0  0  0  0  0  0  0  0
  1  5  1  0  0  0  0
  1  3  1  0  0  0  0
  2  1  2  0  0  0  0
  3  4  1  0  0  0  0
  5 10  1  0  0  0  0
  6  7  1  0  0  0  0
  6  5  2  0  0  0  0
  7  8  2  0  0  0  0
  8 13  1  0  0  0  0
  8  9  1  0  0  0  0
  9 16  1  0  0  0  0
 10  9  2  0  0  0  0
 11  6  1  0  0  0  0
 12  7  1  0  0  0  0
 14 15  1  0  0  0  0
 15 22  1  0  0  0  0
 16 15  2  0  0  0  0
 16 17  1  0  0  0  0
 17 19  2  0  0  0  0
 18 17  1  0  0  0  0
 19 21  1  0  0  0  0
 19 20  1  0  0  0  0
 22 21  2  0  0  0  0
 23 26  1  1  0  0  0
 23 24  1  0  0  0  0
 24 27  1  0  0  0  0
 25 29  1  6  0  0  0
 25 23  1  0  0  0  0
 25  3  1  0  0  0  0
 25 24  1  0  0  0  0
 28 24  1  0  0  0  0
 30 36  1  0  0  0  0
 30 35  1  0  0  0  0
 31 30  2  0  0  0  0
 32 31  1  0  0  0  0
 32 33  2  0  0  0  0
 33 34  1  0  0  0  0
 34 35  2  0  0  0  0
 34 23  1  0  0  0  0
 37 31  1  0  0  0  0
 38 32  1  0  0  0  0
M  END
>  <minimizedAffinity>
-5.64289713

$$$$

 OpenBabel03272508553D

 38 41  0  0  1  0  0  0  0  0999 V2000
   37.0630   27.0320   33.2160 C   0  0  0  0  0  0  0  0  0  0  0  0
   37.5150   26.3520   32.2680 O   0  0  0  0  0  0  0  0  0  0  0  0
   37.0640   26.5060   34.5650 N   0  0  0  0  0  0  0  0  0  0  0  0
   36.5440   26.9310   35.3370 H   0  0  0  0  0  0  0  0  0  0  0  0
   36.5130   28.3860   33.0050 C   0  0  0  0  0  0  0  0  0  0  0  0
   36.6910   28.9860   31.7900 C   0  0  0  0  0  0  0  0  0  0  0  0
   36.1630   30.2540   31.6220 C   0  0  0  0  0  0  0  0  0  0  0  0
   35.4990   30.8310   32.6720 C   0  0  0  0  0  0  0  0  0  0  0  0
   35.3180   30.2300   33.8990 C   0  0  0  0  0  0  0  0  0  0  0  0
   35.8540   29.0110   33.9830 N   0  0  0  0  0  0  0  0  0  0  0  0
   37.2290   28.4870   30.9780 H   0  0  0  0  0  0  0  0  0  0  0  0
   36.2680   30.7890   30.6820 H   0  0  0  0  0  0  0  0  0  0  0  0
   35.1020   31.8070   32.5210 H   0  0  0  0  0  0  0  0  0  0  0  0
   32.5730   29.7420   34.6740 F   0  0  0  0  0  0  0  0  0  0  0  0
   33.3400   30.5340   35.4480 C   0  0  0  0  0  0  0  0  0  0  0  0
   34.6390   30.7500   35.0600 C   0  0  0  0  0  0  0  0  0  0  0  0
   35.3380   31.5730   35.9170 C   0  0  0  0  0  0  0  0  0  0  0  0
   36.3800   31.8330   35.7380 H   0  0  0  0  0  0  0  0  0  0  0  0
   34.7800   32.1200   37.0500 C   0  0  0  0  0  0  0  0  0  0  0  0
   35.3560   32.7570   37.6960 H   0  0  0  0  0  0  0  0  0  0  0  0
   33.4710   31.8690   37.3930 C   0  0  0  0  0  3  0  0  0  0  0  0
   32.7280   31.0520   36.5670 C   0  0  0  0  0  3  0  0  0  0  0  0
   39.1920   25.4480   35.3260 C   0  0  2  0  0  0  0  0  0  0  0  0
   38.1590   25.0880   36.3120 C   0  0  0  0  0  0  0  0  0  0  0  0
   37.8550   25.3090   34.8070 C   0  0  1  0  0  0  0  0  0  0  0  0
   39.6230   26.4720   35.5110 H   0  0  0  0  0  0  0  0  0  0  0  0
   37.7640   25.8130   37.0310 H   0  0  0  0  0  0  0  0  0  0  0  0
   38.1180   24.0280   36.6170 H   0  0  0  0  0  0  0  0  0  0  0  0
   37.5750   24.3940   34.2430 H   0  0  0  0  0  0  0  0  0  0  0  0
   42.5300   23.9730   34.7760 C   0  0  0  0  0  0  0  0  0  0  0  0
   42.2100   22.7060   34.1910 C   0  0  0  0  0  0  0  0  0  0  0  0
   40.8150   22.3980   33.9930 C   0  0  0  0  0  0  0  0  0  0  0  0
   39.8790   23.3080   34.3630 N   0  0  0  0  0  0  0  0  0  0  0  0
   40.2540   24.4960   34.9150 C   0  0  0  0  0  0  0  0  0  0  0  0
   41.5680   24.8560   35.1330 N   0  0  0  0  0  0  0  0  0  0  0  0
   43.5930   24.1310   34.8920 H   0  0  0  0  0  0  0  0  0  0  0  0
   42.9750   22.0230   33.9160 H   0  0  0  0  0  0  0  0  0  0  0  0
   40.5770   21.4440   33.5530 H   0  0  0  0  0  0  0  0  0  0  0  0
  1  3  1  0  0  0  0
  2  1  2  0  0  0  0
  3 25  1  0  0  0  0
  3  4  1  0  0  0  0
  5  1  1  0  0  0  0
  5 10  1  0  0  0  0
  6  5  2  0  0  0  0
  7  6  1  0  0  0  0
  7  8  2  0  0  0  0
  8  9  1  0  0  0  0
  9 10  2  0  0  0  0
  9 16  1  0  0  0  0
 11  6  1  0  0  0  0
 12  7  1  0  0  0  0
 13  8  1  0  0  0  0
 14 15  1  0  0  0  0
 15 22  1  0  0  0  0
 16 15  2  0  0  0  0
 16 17  1  0  0  0  0
 17 19  2  0  0  0  0
 18 17  1  0  0  0  0
 19 21  1  0  0  0  0
 19 20  1  0  0  0  0
 22 21  2  0  0  0  0
 23 26  1  1  0  0  0
 23 24  1  0  0  0  0
 24 28  1  0  0  0  0
 24 27  1  0  0  0  0
 25 29  1  6  0  0  0
 25 23  1  0  0  0  0
 25 24  1  0  0  0  0
 30 36  1  0  0  0  0
 30 35  1  0  0  0  0
 31 30  2  0  0  0  0
 32 31  1  0  0  0  0
 32 33  2  0  0  0  0
 33 34  1  0  0  0  0
 34 35  2  0  0  0  0
 34 23  1  0  0  0  0
 37 31  1  0  0  0  0
 38 32  1  0  0  0  0
M  END
>  <minimizedAffinity>
-5.59690619

$$$$
