
 OpenBabel03272509513D

 33 35  0  0  0  0  0  0  0  0999 V2000
   36.2910   29.4790   31.8900 C   0  0  0  0  0  0  0  0  0  0  0  0
   35.6380   30.3550   32.7980 C   0  0  0  0  0  0  0  0  0  0  0  0
   35.4950   29.9180   34.1020 C   0  0  0  0  0  0  0  0  0  0  0  0
   35.9980   28.6770   34.4020 N   0  0  0  0  0  0  0  0  0  0  0  0
   36.6050   27.8780   33.5270 C   0  0  0  0  0  0  0  0  0  0  0  0
   36.7500   28.2940   32.2540 N   0  0  0  0  0  0  0  0  0  0  0  0
   36.4040   29.8210   30.8660 H   0  0  0  0  0  0  0  0  0  0  0  0
   35.2680   31.3140   32.4980 H   0  0  0  0  0  0  0  0  0  0  0  0
   36.7140   31.7950   35.9400 F   0  0  0  0  0  0  0  0  0  0  0  0
   35.4170   31.5380   36.0400 C   0  0  0  0  0  0  0  0  0  0  0  0
   34.8650   30.6550   35.1690 C   0  0  0  0  0  0  0  0  0  0  0  0
   33.4980   30.4670   35.3720 C   0  0  0  0  0  0  0  0  0  0  0  0
   32.8970   29.7830   34.7510 H   0  0  0  0  0  0  0  0  0  0  0  0
   32.7860   31.1130   36.3560 C   0  0  0  0  0  0  0  0  0  0  0  0
   31.7310   30.9450   36.4860 H   0  0  0  0  0  0  0  0  0  0  0  0
   33.3920   31.9950   37.2090 C   0  0  0  0  0  3  0  0  0  0  0  0
   34.7380   32.2040   37.0380 C   0  0  0  0  0  3  0  0  0  0  0  0
   37.0110   26.6980   34.0750 O   0  0  0  0  0  0  0  0  0  0  0  0
   38.1040   26.7050   34.9840 C   0  0  0  0  0  0  0  0  0  0  0  0
   38.7600   27.5900   34.8450 H   0  0  0  0  0  0  0  0  0  0  0  0
   37.6960   26.7710   36.0150 H   0  0  0  0  0  0  0  0  0  0  0  0
   38.9400   25.4730   34.7990 C   0  0  0  0  0  0  0  0  0  0  0  0
   38.5340   24.9080   33.9420 H   0  0  0  0  0  0  0  0  0  0  0  0
   39.9850   25.7780   34.5510 H   0  0  0  0  0  0  0  0  0  0  0  0
   38.9650   24.6150   36.0110 C   0  0  0  0  0  0  0  0  0  0  0  0
   38.0320   24.8840   37.0080 C   0  0  0  0  0  0  0  0  0  0  0  0
   37.9730   24.1500   38.1640 C   0  0  0  0  0  0  0  0  0  0  0  0
   38.8280   23.1540   38.3420 N   0  0  0  0  0  0  0  0  0  0  0  0
   39.7450   22.8880   37.3650 C   0  0  0  0  0  0  0  0  0  0  0  0
   39.8310   23.5910   36.2120 N   0  0  0  0  0  0  0  0  0  0  0  0
   37.3080   25.6850   36.9180 H   0  0  0  0  0  0  0  0  0  0  0  0
   37.2660   24.3420   38.9370 H   0  0  0  0  0  0  0  0  0  0  0  0
   40.4890   22.1010   37.4030 H   0  0  0  0  0  0  0  0  0  0  0  0
  1  6  2  0  0  0  0
  1  2  1  0  0  0  0
  2  3  2  0  0  0  0
  3  4  1  0  0  0  0
  3 11  1  0  0  0  0
  5 18  1  0  0  0  0
  5  4  2  0  0  0  0
  6  5  1  0  0  0  0
  7  1  1  0  0  0  0
  8  2  1  0  0  0  0
  9 10  1  0  0  0  0
 10 17  1  0  0  0  0
 11 12  1  0  0  0  0
 11 10  2  0  0  0  0
 12 14  2  0  0  0  0
 13 12  1  0  0  0  0
 14 15  1  0  0  0  0
 14 16  1  0  0  0  0
 17 16  2  0  0  0  0
 18 19  1  0  0  0  0
 19 21  1  0  0  0  0
 20 19  1  0  0  0  0
 22 19  1  0  0  0  0
 22 25  1  0  0  0  0
 23 22  1  0  0  0  0
 24 22  1  0  0  0  0
 25 30  2  0  0  0  0
 25 26  1  0  0  0  0
 26 27  2  0  0  0  0
 27 28  1  0  0  0  0
 27 32  1  0  0  0  0
 29 33  1  0  0  0  0
 29 28  2  0  0  0  0
 30 29  1  0  0  0  0
 31 26  1  0  0  0  0
M  END
>  <minimizedAffinity>
-5.75932169

$$$$

 OpenBabel03272509513D

 33 35  0  0  0  0  0  0  0  0999 V2000
   37.3590   27.6170   34.7960 C   0  0  0  0  0  0  0  0  0  0  0  0
   38.0500   26.7880   35.7200 C   0  0  0  0  0  0  0  0  0  0  0  0
   38.2460   25.4690   35.3570 C   0  0  0  0  0  0  0  0  0  0  0  0
   37.7560   25.0780   34.1370 N   0  0  0  0  0  0  0  0  0  0  0  0
   37.1100   25.8790   33.2930 C   0  0  0  0  0  0  0  0  0  0  0  0
   36.9140   27.1670   33.6350 N   0  0  0  0  0  0  0  0  0  0  0  0
   37.2040   28.6540   35.0790 H   0  0  0  0  0  0  0  0  0  0  0  0
   38.4080   27.1570   36.6590 H   0  0  0  0  0  0  0  0  0  0  0  0
   37.4260   24.3490   37.8990 F   0  0  0  0  0  0  0  0  0  0  0  0
   38.5570   23.9350   37.3420 C   0  0  0  0  0  0  0  0  0  0  0  0
   38.9230   24.4730   36.1510 C   0  0  0  0  0  0  0  0  0  0  0  0
   40.1250   23.9600   35.6650 C   0  0  0  0  0  0  0  0  0  0  0  0
   40.5650   24.2890   34.7100 H   0  0  0  0  0  0  0  0  0  0  0  0
   40.8620   23.0070   36.3300 C   0  0  0  0  0  0  0  0  0  0  0  0
   41.7870   22.6320   35.9270 H   0  0  0  0  0  0  0  0  0  0  0  0
   40.4470   22.4980   37.5300 C   0  0  0  0  0  3  0  0  0  0  0  0
   39.2660   22.9800   38.0380 C   0  0  0  0  0  3  0  0  0  0  0  0
   36.7240   25.2480   32.1470 O   0  0  0  0  0  0  0  0  0  0  0  0
   36.9220   23.8440   32.0400 C   0  0  0  0  0  0  0  0  0  0  0  0
   37.7320   23.5880   31.3260 H   0  0  0  0  0  0  0  0  0  0  0  0
   37.2400   23.4630   33.0330 H   0  0  0  0  0  0  0  0  0  0  0  0
   35.6610   23.1790   31.5710 C   0  0  0  0  0  0  0  0  0  0  0  0
   34.8560   23.4280   32.2830 H   0  0  0  0  0  0  0  0  0  0  0  0
   35.3830   23.5910   30.5720 H   0  0  0  0  0  0  0  0  0  0  0  0
   35.8040   21.7050   31.4590 C   0  0  0  0  0  0  0  0  0  0  0  0
   34.8600   20.9170   32.1100 C   0  0  0  0  0  0  0  0  0  0  0  0
   34.9020   19.5470   32.0670 C   0  0  0  0  0  0  0  0  0  0  0  0
   35.8720   18.9520   31.3880 N   0  0  0  0  0  0  0  0  0  0  0  0
   36.8000   19.7230   30.7480 C   0  0  0  0  0  0  0  0  0  0  0  0
   36.7880   21.0760   30.7690 N   0  0  0  0  0  0  0  0  0  0  0  0
   34.0450   21.3470   32.6800 H   0  0  0  0  0  0  0  0  0  0  0  0
   34.1890   18.9290   32.5590 H   0  0  0  0  0  0  0  0  0  0  0  0
   37.6320   19.3450   30.1650 H   0  0  0  0  0  0  0  0  0  0  0  0
  1  7  1  0  0  0  0
  1  2  1  0  0  0  0
  2  8  1  0  0  0  0
  3  2  2  0  0  0  0
  3 11  1  0  0  0  0
  4  3  1  0  0  0  0
  5  6  1  0  0  0  0
  5  4  2  0  0  0  0
  6  1  2  0  0  0  0
 10  9  1  0  0  0  0
 10 17  1  0  0  0  0
 11 10  2  0  0  0  0
 12 11  1  0  0  0  0
 12 14  2  0  0  0  0
 13 12  1  0  0  0  0
 14 16  1  0  0  0  0
 15 14  1  0  0  0  0
 16 17  2  0  0  0  0
 18  5  1  0  0  0  0
 19 18  1  0  0  0  0
 19 21  1  0  0  0  0
 20 19  1  0  0  0  0
 22 19  1  0  0  0  0
 22 23  1  0  0  0  0
 24 22  1  0  0  0  0
 25 22  1  0  0  0  0
 25 26  1  0  0  0  0
 26 31  1  0  0  0  0
 27 26  2  0  0  0  0
 27 32  1  0  0  0  0
 28 27  1  0  0  0  0
 29 30  1  0  0  0  0
 29 28  2  0  0  0  0
 30 25  2  0  0  0  0
 33 29  1  0  0  0  0
M  END
>  <minimizedAffinity>
-5.67740536

$$$$

 OpenBabel03272509513D

 33 35  0  0  0  0  0  0  0  0999 V2000
   43.5410   26.5220   33.9620 C   0  0  0  0  0  0  0  0  0  0  0  0
   42.2460   27.0730   33.7680 C   0  0  0  0  0  0  0  0  0  0  0  0
   41.1900   26.4340   34.3900 C   0  0  0  0  0  0  0  0  0  0  0  0
   41.4880   25.3240   35.1400 N   0  0  0  0  0  0  0  0  0  0  0  0
   42.7130   24.8310   35.3030 C   0  0  0  0  0  0  0  0  0  0  0  0
   43.7500   25.4460   34.7020 N   0  0  0  0  0  0  0  0  0  0  0  0
   44.3720   27.0230   33.4740 H   0  0  0  0  0  0  0  0  0  0  0  0
   42.0820   27.9440   33.1680 H   0  0  0  0  0  0  0  0  0  0  0  0
   39.5410   26.7530   32.0300 F   0  0  0  0  0  0  0  0  0  0  0  0
   39.0170   26.9900   33.2250 C   0  0  0  0  0  0  0  0  0  0  0  0
   39.8070   26.8350   34.3180 C   0  0  0  0  0  0  0  0  0  0  0  0
   39.1460   27.1120   35.5150 C   0  0  0  0  0  0  0  0  0  0  0  0
   39.6430   27.0350   36.4950 H   0  0  0  0  0  0  0  0  0  0  0  0
   37.8290   27.5020   35.5760 C   0  0  0  0  0  0  0  0  0  0  0  0
   37.3490   27.7090   36.5170 H   0  0  0  0  0  0  0  0  0  0  0  0
   37.0760   27.6440   34.4410 C   0  0  0  0  0  3  0  0  0  0  0  0
   37.6950   27.3790   33.2450 C   0  0  0  0  0  3  0  0  0  0  0  0
   42.7410   23.7210   36.0930 O   0  0  0  0  0  0  0  0  0  0  0  0
   42.0000   22.5760   35.6920 C   0  0  0  0  0  0  0  0  0  0  0  0
   41.2660   22.8090   34.8930 H   0  0  0  0  0  0  0  0  0  0  0  0
   42.7100   21.8360   35.2660 H   0  0  0  0  0  0  0  0  0  0  0  0
   41.2500   22.0090   36.8620 C   0  0  0  0  0  0  0  0  0  0  0  0
   41.0840   20.9340   36.6760 H   0  0  0  0  0  0  0  0  0  0  0  0
   41.8780   22.1120   37.7790 H   0  0  0  0  0  0  0  0  0  0  0  0
   39.9520   22.6940   37.0910 C   0  0  0  0  0  0  0  0  0  0  0  0
   39.1700   22.9780   35.9760 C   0  0  0  0  0  0  0  0  0  0  0  0
   37.9550   23.6060   36.0810 C   0  0  0  0  0  0  0  0  0  0  0  0
   37.5110   23.9560   37.2790 N   0  0  0  0  0  0  0  0  0  0  0  0
   38.2770   23.6780   38.3750 C   0  0  0  0  0  0  0  0  0  0  0  0
   39.4780   23.0590   38.3080 N   0  0  0  0  0  0  0  0  0  0  0  0
   39.4810   22.7150   34.9720 H   0  0  0  0  0  0  0  0  0  0  0  0
   37.3450   23.8310   35.2390 H   0  0  0  0  0  0  0  0  0  0  0  0
   38.0130   23.9170   39.3990 H   0  0  0  0  0  0  0  0  0  0  0  0
  1  6  1  0  0  0  0
  2  1  2  0  0  0  0
  2  3  1  0  0  0  0
  3  4  2  0  0  0  0
  4  5  1  0  0  0  0
  5 18  1  0  0  0  0
  6  5  2  0  0  0  0
  7  1  1  0  0  0  0
  8  2  1  0  0  0  0
  9 10  1  0  0  0  0
 10 17  2  0  0  0  0
 10 11  1  0  0  0  0
 11  3  1  0  0  0  0
 11 12  2  0  0  0  0
 12 14  1  0  0  0  0
 12 13  1  0  0  0  0
 14 15  1  0  0  0  0
 16 14  2  0  0  0  0
 17 16  1  0  0  0  0
 19 18  1  0  0  0  0
 19 22  1  0  0  0  0
 20 19  1  0  0  0  0
 21 19  1  0  0  0  0
 22 25  1  0  0  0  0
 22 24  1  0  0  0  0
 23 22  1  0  0  0  0
 25 30  1  0  0  0  0
 26 27  1  0  0  0  0
 26 25  2  0  0  0  0
 27 28  2  0  0  0  0
 28 29  1  0  0  0  0
 29 33  1  0  0  0  0
 30 29  2  0  0  0  0
 31 26  1  0  0  0  0
 32 27  1  0  0  0  0
M  END
>  <minimizedAffinity>
-5.42846012

$$$$

 OpenBabel03272509513D

 33 35  0  0  0  0  0  0  0  0999 V2000
   36.3200   29.6270   31.8190 C   0  0  0  0  0  0  0  0  0  0  0  0
   35.6460   30.4620   32.7520 C   0  0  0  0  0  0  0  0  0  0  0  0
   35.5130   29.9840   34.0420 C   0  0  0  0  0  0  0  0  0  0  0  0
   36.0430   28.7470   34.3060 N   0  0  0  0  0  0  0  0  0  0  0  0
   36.6680   27.9870   33.4100 C   0  0  0  0  0  0  0  0  0  0  0  0
   36.8050   28.4420   32.1500 N   0  0  0  0  0  0  0  0  0  0  0  0
   36.4260   30.0010   30.8050 H   0  0  0  0  0  0  0  0  0  0  0  0
   35.2560   31.4200   32.4790 H   0  0  0  0  0  0  0  0  0  0  0  0
   36.6910   31.8290   35.9390 F   0  0  0  0  0  0  0  0  0  0  0  0
   35.3990   31.5430   36.0270 C   0  0  0  0  0  0  0  0  0  0  0  0
   34.8670   30.6760   35.1290 C   0  0  0  0  0  0  0  0  0  0  0  0
   33.5030   30.4550   35.3220 C   0  0  0  0  0  0  0  0  0  0  0  0
   32.9170   29.7790   34.6800 H   0  0  0  0  0  0  0  0  0  0  0  0
   32.7770   31.0570   36.3240 C   0  0  0  0  0  0  0  0  0  0  0  0
   31.7240   30.8640   36.4460 H   0  0  0  0  0  0  0  0  0  0  0  0
   33.3630   31.9240   37.2050 C   0  0  0  0  0  3  0  0  0  0  0  0
   34.7040   32.1650   37.0430 C   0  0  0  0  0  3  0  0  0  0  0  0
   37.1010   26.8010   33.9240 O   0  0  0  0  0  0  0  0  0  0  0  0
   37.4160   26.7290   35.3090 C   0  0  0  0  0  0  0  0  0  0  0  0
   36.7070   27.3140   35.9310 H   0  0  0  0  0  0  0  0  0  0  0  0
   37.3220   25.6700   35.6300 H   0  0  0  0  0  0  0  0  0  0  0  0
   38.7980   27.2590   35.5530 C   0  0  0  0  0  0  0  0  0  0  0  0
   38.8690   28.2590   35.0920 H   0  0  0  0  0  0  0  0  0  0  0  0
   38.9540   27.3710   36.6530 H   0  0  0  0  0  0  0  0  0  0  0  0
   39.8540   26.3680   35.0070 C   0  0  0  0  0  0  0  0  0  0  0  0
   40.8630   26.9570   34.2510 C   0  0  0  0  0  0  0  0  0  0  0  0
   41.8830   26.2230   33.7040 C   0  0  0  0  0  0  0  0  0  0  0  0
   41.9110   24.9120   33.8970 N   0  0  0  0  0  0  0  0  0  0  0  0
   40.9220   24.3320   34.6370 C   0  0  0  0  0  0  0  0  0  0  0  0
   39.9010   25.0260   35.1930 N   0  0  0  0  0  0  0  0  0  0  0  0
   40.8920   28.0230   34.0610 H   0  0  0  0  0  0  0  0  0  0  0  0
   42.6630   26.6560   33.1230 H   0  0  0  0  0  0  0  0  0  0  0  0
   40.8460   23.2740   34.8590 H   0  0  0  0  0  0  0  0  0  0  0  0
  1  6  2  0  0  0  0
  1  2  1  0  0  0  0
  2  3  2  0  0  0  0
  3  4  1  0  0  0  0
  3 11  1  0  0  0  0
  5 18  1  0  0  0  0
  5  4  2  0  0  0  0
  6  5  1  0  0  0  0
  7  1  1  0  0  0  0
  8  2  1  0  0  0  0
  9 10  1  0  0  0  0
 10 17  1  0  0  0  0
 11 12  1  0  0  0  0
 11 10  2  0  0  0  0
 12 14  2  0  0  0  0
 13 12  1  0  0  0  0
 14 15  1  0  0  0  0
 14 16  1  0  0  0  0
 17 16  2  0  0  0  0
 18 19  1  0  0  0  0
 19 22  1  0  0  0  0
 19 21  1  0  0  0  0
 19 20  1  0  0  0  0
 22 24  1  0  0  0  0
 23 22  1  0  0  0  0
 25 30  1  0  0  0  0
 25 22  1  0  0  0  0
 26 25  2  0  0  0  0
 27 28  2  0  0  0  0
 27 26  1  0  0  0  0
 28 29  1  0  0  0  0
 29 33  1  0  0  0  0
 29 30  2  0  0  0  0
 31 26  1  0  0  0  0
 32 27  1  0  0  0  0
M  END
>  <minimizedAffinity>
-5.41765404

$$$$

 OpenBabel03272509513D

 33 35  0  0  0  0  0  0  0  0999 V2000
   37.0550   27.4360   34.4580 C   0  0  0  0  0  0  0  0  0  0  0  0
   37.7490   26.6790   35.4410 C   0  0  0  0  0  0  0  0  0  0  0  0
   38.1230   25.3940   35.0970 C   0  0  0  0  0  0  0  0  0  0  0  0
   37.7910   24.9640   33.8370 N   0  0  0  0  0  0  0  0  0  0  0  0
   37.1380   25.6970   32.9380 C   0  0  0  0  0  0  0  0  0  0  0  0
   36.7700   26.9510   33.2610 N   0  0  0  0  0  0  0  0  0  0  0  0
   36.7610   28.4460   34.7260 H   0  0  0  0  0  0  0  0  0  0  0  0
   37.9780   27.0770   36.4080 H   0  0  0  0  0  0  0  0  0  0  0  0
   40.6320   24.0450   34.5730 F   0  0  0  0  0  0  0  0  0  0  0  0
   40.0060   23.8290   35.7230 C   0  0  0  0  0  0  0  0  0  0  0  0
   38.8320   24.4710   35.9480 C   0  0  0  0  0  0  0  0  0  0  0  0
   38.2690   24.1660   37.1880 C   0  0  0  0  0  0  0  0  0  0  0  0
   37.3170   24.6020   37.5280 H   0  0  0  0  0  0  0  0  0  0  0  0
   38.8500   23.3010   38.0860 C   0  0  0  0  0  0  0  0  0  0  0  0
   38.3890   23.0870   39.0360 H   0  0  0  0  0  0  0  0  0  0  0  0
   40.0370   22.6790   37.8090 C   0  0  0  0  0  3  0  0  0  0  0  0
   40.6190   22.9570   36.5970 C   0  0  0  0  0  3  0  0  0  0  0  0
   36.9290   25.0390   31.7630 O   0  0  0  0  0  0  0  0  0  0  0  0
   35.9750   23.9850   31.7290 C   0  0  0  0  0  0  0  0  0  0  0  0
   35.7040   23.6310   32.7450 H   0  0  0  0  0  0  0  0  0  0  0  0
   35.0430   24.3770   31.2690 H   0  0  0  0  0  0  0  0  0  0  0  0
   36.5210   22.8180   30.9610 C   0  0  0  0  0  0  0  0  0  0  0  0
   36.1190   22.8640   29.9340 H   0  0  0  0  0  0  0  0  0  0  0  0
   37.6320   22.9090   30.9040 H   0  0  0  0  0  0  0  0  0  0  0  0
   36.1780   21.5140   31.5850 C   0  0  0  0  0  0  0  0  0  0  0  0
   35.8680   21.5140   32.9410 C   0  0  0  0  0  0  0  0  0  0  0  0
   35.5370   20.3640   33.6100 C   0  0  0  0  0  0  0  0  0  0  0  0
   35.5140   19.2150   32.9490 N   0  0  0  0  0  0  0  0  0  0  0  0
   35.8200   19.2130   31.6180 C   0  0  0  0  0  0  0  0  0  0  0  0
   36.1480   20.3290   30.9260 N   0  0  0  0  0  0  0  0  0  0  0  0
   35.8690   22.4220   33.5330 H   0  0  0  0  0  0  0  0  0  0  0  0
   35.2970   20.3450   34.6470 H   0  0  0  0  0  0  0  0  0  0  0  0
   35.8310   18.3370   30.9810 H   0  0  0  0  0  0  0  0  0  0  0  0
  1  7  1  0  0  0  0
  1  2  1  0  0  0  0
  2  8  1  0  0  0  0
  3  2  2  0  0  0  0
  3 11  1  0  0  0  0
  4  3  1  0  0  0  0
  5  6  1  0  0  0  0
  5  4  2  0  0  0  0
  6  1  2  0  0  0  0
  9 10  1  0  0  0  0
 10 11  2  0  0  0  0
 10 17  1  0  0  0  0
 11 12  1  0  0  0  0
 12 13  1  0  0  0  0
 12 14  2  0  0  0  0
 14 15  1  0  0  0  0
 16 14  1  0  0  0  0
 17 16  2  0  0  0  0
 18  5  1  0  0  0  0
 19 18  1  0  0  0  0
 19 20  1  0  0  0  0
 21 19  1  0  0  0  0
 22 25  1  0  0  0  0
 22 19  1  0  0  0  0
 23 22  1  0  0  0  0
 24 22  1  0  0  0  0
 25 26  1  0  0  0  0
 26 31  1  0  0  0  0
 26 27  2  0  0  0  0
 27 32  1  0  0  0  0
 28 27  1  0  0  0  0
 29 28  2  0  0  0  0
 30 25  2  0  0  0  0
 30 29  1  0  0  0  0
 33 29  1  0  0  0  0
M  END
>  <minimizedAffinity>
-5.40388203

$$$$

 OpenBabel03272509513D

 33 35  0  0  0  0  0  0  0  0999 V2000
   35.3140   26.0190   31.0980 C   0  0  0  0  0  0  0  0  0  0  0  0
   35.1390   24.6140   30.9780 C   0  0  0  0  0  0  0  0  0  0  0  0
   36.0840   23.8080   31.5840 C   0  0  0  0  0  0  0  0  0  0  0  0
   37.1070   24.4380   32.2470 N   0  0  0  0  0  0  0  0  0  0  0  0
   37.2450   25.7580   32.3410 C   0  0  0  0  0  0  0  0  0  0  0  0
   36.3290   26.5530   31.7550 N   0  0  0  0  0  0  0  0  0  0  0  0
   34.5720   26.6530   30.6230 H   0  0  0  0  0  0  0  0  0  0  0  0
   34.3150   24.1860   30.4450 H   0  0  0  0  0  0  0  0  0  0  0  0
   37.9680   22.0250   30.2960 F   0  0  0  0  0  0  0  0  0  0  0  0
   36.9560   21.5130   30.9830 C   0  0  0  0  0  0  0  0  0  0  0  0
   36.0840   22.3660   31.5790 C   0  0  0  0  0  0  0  0  0  0  0  0
   35.0650   21.7130   32.2710 C   0  0  0  0  0  0  0  0  0  0  0  0
   34.2740   22.2570   32.8120 H   0  0  0  0  0  0  0  0  0  0  0  0
   34.9590   20.3430   32.3400 C   0  0  0  0  0  0  0  0  0  0  0  0
   34.1580   19.8700   32.8830 H   0  0  0  0  0  0  0  0  0  0  0  0
   35.8660   19.5270   31.7200 C   0  0  0  0  0  3  0  0  0  0  0  0
   36.8830   20.1370   31.0290 C   0  0  0  0  0  3  0  0  0  0  0  0
   38.3470   26.1310   33.0520 O   0  0  0  0  0  0  0  0  0  0  0  0
   38.1910   27.0550   34.1210 C   0  0  0  0  0  0  0  0  0  0  0  0
   38.3490   28.1040   33.7960 H   0  0  0  0  0  0  0  0  0  0  0  0
   37.1430   26.9890   34.4850 H   0  0  0  0  0  0  0  0  0  0  0  0
   39.1730   26.7530   35.2130 C   0  0  0  0  0  0  0  0  0  0  0  0
   40.1880   26.9510   34.8280 H   0  0  0  0  0  0  0  0  0  0  0  0
   38.9860   27.4430   36.0710 H   0  0  0  0  0  0  0  0  0  0  0  0
   39.0760   25.3510   35.6950 C   0  0  0  0  0  0  0  0  0  0  0  0
   37.9330   24.9940   36.4040 C   0  0  0  0  0  0  0  0  0  0  0  0
   37.7460   23.7260   36.8900 C   0  0  0  0  0  0  0  0  0  0  0  0
   38.6820   22.8100   36.6840 N   0  0  0  0  0  0  0  0  0  0  0  0
   39.8050   23.1590   35.9900 C   0  0  0  0  0  0  0  0  0  0  0  0
   40.0210   24.4000   35.4950 N   0  0  0  0  0  0  0  0  0  0  0  0
   37.1340   25.6990   36.6020 H   0  0  0  0  0  0  0  0  0  0  0  0
   36.8790   23.4350   37.4340 H   0  0  0  0  0  0  0  0  0  0  0  0
   40.6310   22.4950   35.7620 H   0  0  0  0  0  0  0  0  0  0  0  0
  1  6  1  0  0  0  0
  2  1  2  0  0  0  0
  2  3  1  0  0  0  0
  3  4  2  0  0  0  0
  4  5  1  0  0  0  0
  5 18  1  0  0  0  0
  6  5  2  0  0  0  0
  7  1  1  0  0  0  0
  8  2  1  0  0  0  0
  9 10  1  0  0  0  0
 10 17  2  0  0  0  0
 10 11  1  0  0  0  0
 11  3  1  0  0  0  0
 11 12  2  0  0  0  0
 12 14  1  0  0  0  0
 12 13  1  0  0  0  0
 14 15  1  0  0  0  0
 16 14  2  0  0  0  0
 17 16  1  0  0  0  0
 18 19  1  0  0  0  0
 19 21  1  0  0  0  0
 19 22  1  0  0  0  0
 20 19  1  0  0  0  0
 22 25  1  0  0  0  0
 22 24  1  0  0  0  0
 23 22  1  0  0  0  0
 25 26  1  0  0  0  0
 26 31  1  0  0  0  0
 26 27  2  0  0  0  0
 27 32  1  0  0  0  0
 28 27  1  0  0  0  0
 29 28  2  0  0  0  0
 30 25  2  0  0  0  0
 30 29  1  0  0  0  0
 33 29  1  0  0  0  0
M  END
>  <minimizedAffinity>
-5.37320948

$$$$

 OpenBabel03272509513D

 33 35  0  0  0  0  0  0  0  0999 V2000
   36.2560   29.9250   31.6960 C   0  0  0  0  0  0  0  0  0  0  0  0
   35.5230   30.6630   32.6640 C   0  0  0  0  0  0  0  0  0  0  0  0
   35.4100   30.1100   33.9250 C   0  0  0  0  0  0  0  0  0  0  0  0
   36.0180   28.8960   34.1300 N   0  0  0  0  0  0  0  0  0  0  0  0
   36.6980   28.2280   33.2020 C   0  0  0  0  0  0  0  0  0  0  0  0
   36.8150   28.7580   31.9700 N   0  0  0  0  0  0  0  0  0  0  0  0
   36.3460   30.3580   30.7050 H   0  0  0  0  0  0  0  0  0  0  0  0
   35.0730   31.6080   32.4380 H   0  0  0  0  0  0  0  0  0  0  0  0
   32.6780   29.6490   34.7680 F   0  0  0  0  0  0  0  0  0  0  0  0
   33.4340   30.4980   35.4520 C   0  0  0  0  0  0  0  0  0  0  0  0
   34.7110   30.6990   35.0400 C   0  0  0  0  0  0  0  0  0  0  0  0
   35.4060   31.6100   35.8360 C   0  0  0  0  0  0  0  0  0  0  0  0
   36.4540   31.8860   35.6400 H   0  0  0  0  0  0  0  0  0  0  0  0
   34.8490   32.2370   36.9260 C   0  0  0  0  0  0  0  0  0  0  0  0
   35.4140   32.9350   37.5200 H   0  0  0  0  0  0  0  0  0  0  0  0
   33.5540   31.9980   37.2990 C   0  0  0  0  0  3  0  0  0  0  0  0
   32.8410   31.1060   36.5370 C   0  0  0  0  0  3  0  0  0  0  0  0
   37.2020   27.0460   33.6570 O   0  0  0  0  0  0  0  0  0  0  0  0
   37.0370   26.7150   35.0300 C   0  0  0  0  0  0  0  0  0  0  0  0
   36.4830   27.4980   35.5870 H   0  0  0  0  0  0  0  0  0  0  0  0
   36.4270   25.7880   35.0910 H   0  0  0  0  0  0  0  0  0  0  0  0
   38.3750   26.5380   35.6840 C   0  0  0  0  0  0  0  0  0  0  0  0
   39.1230   27.0950   35.0940 H   0  0  0  0  0  0  0  0  0  0  0  0
   38.3400   26.9810   36.7090 H   0  0  0  0  0  0  0  0  0  0  0  0
   38.7720   25.1110   35.7930 C   0  0  0  0  0  0  0  0  0  0  0  0
   38.2960   24.3930   36.8870 C   0  0  0  0  0  0  0  0  0  0  0  0
   38.6030   23.0710   37.0780 C   0  0  0  0  0  0  0  0  0  0  0  0
   39.3790   22.4540   36.1980 N   0  0  0  0  0  0  0  0  0  0  0  0
   39.8480   23.1560   35.1250 C   0  0  0  0  0  0  0  0  0  0  0  0
   39.5640   24.4610   34.9040 N   0  0  0  0  0  0  0  0  0  0  0  0
   37.6580   24.8440   37.6370 H   0  0  0  0  0  0  0  0  0  0  0  0
   38.2480   22.5080   37.9080 H   0  0  0  0  0  0  0  0  0  0  0  0
   40.4860   22.7550   34.3460 H   0  0  0  0  0  0  0  0  0  0  0  0
  1  6  2  0  0  0  0
  1  2  1  0  0  0  0
  2  3  2  0  0  0  0
  3  4  1  0  0  0  0
  3 11  1  0  0  0  0
  5 18  1  0  0  0  0
  5  4  2  0  0  0  0
  6  5  1  0  0  0  0
  7  1  1  0  0  0  0
  8  2  1  0  0  0  0
  9 10  1  0  0  0  0
 10 17  1  0  0  0  0
 11 10  2  0  0  0  0
 11 12  1  0  0  0  0
 12 14  2  0  0  0  0
 13 12  1  0  0  0  0
 14 16  1  0  0  0  0
 14 15  1  0  0  0  0
 17 16  2  0  0  0  0
 18 19  1  0  0  0  0
 19 21  1  0  0  0  0
 19 20  1  0  0  0  0
 19 22  1  0  0  0  0
 22 25  1  0  0  0  0
 22 24  1  0  0  0  0
 23 22  1  0  0  0  0
 25 26  1  0  0  0  0
 26 27  2  0  0  0  0
 26 31  1  0  0  0  0
 27 32  1  0  0  0  0
 28 27  1  0  0  0  0
 29 28  2  0  0  0  0
 30 29  1  0  0  0  0
 30 25  2  0  0  0  0
 33 29  1  0  0  0  0
M  END
>  <minimizedAffinity>
-5.29822206

$$$$

 OpenBabel03272509513D

 33 35  0  0  0  0  0  0  0  0999 V2000
   35.4530   24.7330   31.1420 C   0  0  0  0  0  0  0  0  0  0  0  0
   35.1790   23.3390   31.1320 C   0  0  0  0  0  0  0  0  0  0  0  0
   36.0850   22.5160   31.7750 C   0  0  0  0  0  0  0  0  0  0  0  0
   37.1670   23.1190   32.3640 N   0  0  0  0  0  0  0  0  0  0  0  0
   37.3970   24.4300   32.3540 C   0  0  0  0  0  0  0  0  0  0  0  0
   36.5210   25.2420   31.7320 N   0  0  0  0  0  0  0  0  0  0  0  0
   34.7420   25.3810   30.6380 H   0  0  0  0  0  0  0  0  0  0  0  0
   34.3130   22.9320   30.6530 H   0  0  0  0  0  0  0  0  0  0  0  0
   35.2580   20.9400   34.0600 F   0  0  0  0  0  0  0  0  0  0  0  0
   35.6030   20.3240   32.9370 C   0  0  0  0  0  0  0  0  0  0  0  0
   35.9870   21.0810   31.8780 C   0  0  0  0  0  0  0  0  0  0  0  0
   36.3240   20.3230   30.7560 C   0  0  0  0  0  0  0  0  0  0  0  0
   36.6560   20.7810   29.8120 H   0  0  0  0  0  0  0  0  0  0  0  0
   36.2700   18.9490   30.7310 C   0  0  0  0  0  0  0  0  0  0  0  0
   36.5370   18.3930   29.8480 H   0  0  0  0  0  0  0  0  0  0  0  0
   35.8750   18.2330   31.8290 C   0  0  0  0  0  3  0  0  0  0  0  0
   35.5360   18.9470   32.9510 C   0  0  0  0  0  3  0  0  0  0  0  0
   38.5420   24.7760   33.0090 O   0  0  0  0  0  0  0  0  0  0  0  0
   38.6640   26.0960   33.5230 C   0  0  0  0  0  0  0  0  0  0  0  0
   39.0710   26.8040   32.7710 H   0  0  0  0  0  0  0  0  0  0  0  0
   37.6470   26.4610   33.7850 H   0  0  0  0  0  0  0  0  0  0  0  0
   39.5760   26.1060   34.7130 C   0  0  0  0  0  0  0  0  0  0  0  0
   40.6040   25.9100   34.3600 H   0  0  0  0  0  0  0  0  0  0  0  0
   39.5550   27.1210   35.1780 H   0  0  0  0  0  0  0  0  0  0  0  0
   39.1880   25.1020   35.7360 C   0  0  0  0  0  0  0  0  0  0  0  0
   39.9820   23.9650   35.8540 C   0  0  0  0  0  0  0  0  0  0  0  0
   39.7090   22.9800   36.7680 C   0  0  0  0  0  0  0  0  0  0  0  0
   38.6570   23.1100   37.5630 N   0  0  0  0  0  0  0  0  0  0  0  0
   37.8760   24.2240   37.4490 C   0  0  0  0  0  0  0  0  0  0  0  0
   38.1160   25.2160   36.5590 N   0  0  0  0  0  0  0  0  0  0  0  0
   40.8550   23.8050   35.2320 H   0  0  0  0  0  0  0  0  0  0  0  0
   40.3050   22.1040   36.8720 H   0  0  0  0  0  0  0  0  0  0  0  0
   36.9960   24.4340   38.0450 H   0  0  0  0  0  0  0  0  0  0  0  0
  1  6  1  0  0  0  0
  2  1  2  0  0  0  0
  2  3  1  0  0  0  0
  3 11  1  0  0  0  0
  3  4  2  0  0  0  0
  5  4  1  0  0  0  0
  5 18  1  0  0  0  0
  6  5  2  0  0  0  0
  7  1  1  0  0  0  0
  8  2  1  0  0  0  0
 10 17  1  0  0  0  0
 10  9  1  0  0  0  0
 11 10  2  0  0  0  0
 12 11  1  0  0  0  0
 13 12  1  0  0  0  0
 14 12  2  0  0  0  0
 14 16  1  0  0  0  0
 15 14  1  0  0  0  0
 16 17  2  0  0  0  0
 18 19  1  0  0  0  0
 19 21  1  0  0  0  0
 19 22  1  0  0  0  0
 20 19  1  0  0  0  0
 22 24  1  0  0  0  0
 22 25  1  0  0  0  0
 23 22  1  0  0  0  0
 25 26  2  0  0  0  0
 25 30  1  0  0  0  0
 26 27  1  0  0  0  0
 27 32  1  0  0  0  0
 27 28  2  0  0  0  0
 29 28  1  0  0  0  0
 29 33  1  0  0  0  0
 30 29  2  0  0  0  0
 31 26  1  0  0  0  0
M  END
>  <minimizedAffinity>
-5.18388462

$$$$

 OpenBabel03272509513D

 33 35  0  0  0  0  0  0  0  0999 V2000
   38.2990   23.5960   38.3690 C   0  0  0  0  0  0  0  0  0  0  0  0
   39.5950   23.0180   38.2980 C   0  0  0  0  0  0  0  0  0  0  0  0
   40.2150   23.0120   37.0630 C   0  0  0  0  0  0  0  0  0  0  0  0
   39.5230   23.5670   36.0150 N   0  0  0  0  0  0  0  0  0  0  0  0
   38.3080   24.1010   36.1130 C   0  0  0  0  0  0  0  0  0  0  0  0
   37.6940   24.1120   37.3120 N   0  0  0  0  0  0  0  0  0  0  0  0
   37.8110   23.6020   39.3380 H   0  0  0  0  0  0  0  0  0  0  0  0
   40.0800   22.6010   39.1560 H   0  0  0  0  0  0  0  0  0  0  0  0
   42.5180   24.3910   35.9750 F   0  0  0  0  0  0  0  0  0  0  0  0
   42.6150   23.1030   36.2750 C   0  0  0  0  0  0  0  0  0  0  0  0
   41.5240   22.4760   36.7840 C   0  0  0  0  0  0  0  0  0  0  0  0
   41.7470   21.1270   37.0610 C   0  0  0  0  0  0  0  0  0  0  0  0
   40.9660   20.4720   37.4780 H   0  0  0  0  0  0  0  0  0  0  0  0
   42.9520   20.5020   36.8390 C   0  0  0  0  0  0  0  0  0  0  0  0
   43.0910   19.4580   37.0640 H   0  0  0  0  0  0  0  0  0  0  0  0
   44.0220   21.1810   36.3230 C   0  0  0  0  0  3  0  0  0  0  0  0
   43.8370   22.5120   36.0390 C   0  0  0  0  0  3  0  0  0  0  0  0
   37.8390   24.5820   34.9270 O   0  0  0  0  0  0  0  0  0  0  0  0
   38.6020   25.5650   34.2380 C   0  0  0  0  0  0  0  0  0  0  0  0
   38.1600   26.5790   34.3290 H   0  0  0  0  0  0  0  0  0  0  0  0
   39.6080   25.6130   34.7070 H   0  0  0  0  0  0  0  0  0  0  0  0
   38.6890   25.2240   32.7800 C   0  0  0  0  0  0  0  0  0  0  0  0
   39.3990   25.9220   32.3050 H   0  0  0  0  0  0  0  0  0  0  0  0
   39.0940   24.1890   32.6730 H   0  0  0  0  0  0  0  0  0  0  0  0
   37.3710   25.2950   32.0990 C   0  0  0  0  0  0  0  0  0  0  0  0
   36.7550   24.0930   31.7650 C   0  0  0  0  0  0  0  0  0  0  0  0
   35.5370   24.0510   31.1350 C   0  0  0  0  0  0  0  0  0  0  0  0
   34.9280   25.1880   30.8310 N   0  0  0  0  0  0  0  0  0  0  0  0
   35.5310   26.3690   31.1570 C   0  0  0  0  0  0  0  0  0  0  0  0
   36.7310   26.4470   31.7790 N   0  0  0  0  0  0  0  0  0  0  0  0
   37.2050   23.1340   31.9890 H   0  0  0  0  0  0  0  0  0  0  0  0
   35.0520   23.1410   30.8730 H   0  0  0  0  0  0  0  0  0  0  0  0
   35.1250   27.3540   30.9580 H   0  0  0  0  0  0  0  0  0  0  0  0
  1  7  1  0  0  0  0
  2  1  1  0  0  0  0
  2  8  1  0  0  0  0
  3  2  2  0  0  0  0
  4  5  2  0  0  0  0
  4  3  1  0  0  0  0
  5  6  1  0  0  0  0
  6  1  2  0  0  0  0
  9 10  1  0  0  0  0
 10 11  1  0  0  0  0
 11 12  2  0  0  0  0
 11  3  1  0  0  0  0
 12 13  1  0  0  0  0
 14 12  1  0  0  0  0
 14 15  1  0  0  0  0
 16 14  2  0  0  0  0
 17 10  2  0  0  0  0
 17 16  1  0  0  0  0
 18  5  1  0  0  0  0
 19 20  1  0  0  0  0
 19 21  1  0  0  0  0
 19 18  1  0  0  0  0
 22 19  1  0  0  0  0
 23 22  1  0  0  0  0
 24 22  1  0  0  0  0
 25 22  1  0  0  0  0
 26 31  1  0  0  0  0
 26 25  2  0  0  0  0
 27 26  1  0  0  0  0
 28 27  2  0  0  0  0
 28 29  1  0  0  0  0
 29 30  2  0  0  0  0
 30 25  1  0  0  0  0
 32 27  1  0  0  0  0
 33 29  1  0  0  0  0
M  END
>  <minimizedAffinity>
-5.08392048

$$$$
