
 OpenBabel03262521503D

 32 34  0  0  1  0  0  0  0  0999 V2000
   43.0670   24.5420   33.3460 C   0  0  0  0  0  0  0  0  0  0  0  0
   42.9520   25.9420   33.4550 C   0  0  0  0  0  0  0  0  0  0  0  0
   41.9580   26.4360   34.3050 C   0  0  0  0  0  0  0  0  0  0  0  0
   41.1980   25.5170   34.9450 N   0  0  0  0  0  0  0  0  0  0  0  0
   41.3180   24.1950   34.8320 C   0  0  0  0  0  0  0  0  0  0  0  0
   42.2670   23.7140   34.0200 N   0  0  0  0  0  0  0  0  0  0  0  0
   40.4660   23.3580   35.5460 N   0  0  0  0  0  0  0  0  0  0  0  0
   40.8970   22.0150   35.9730 C   0  0  0  0  0  0  0  0  0  0  0  0
   40.7230   21.8470   37.4240 C   0  0  0  0  0  0  0  0  0  0  0  0
   39.8850   22.7760   38.0730 N   0  0  0  0  0  0  0  0  0  0  0  0
   38.8930   23.4560   37.3580 C   0  0  0  0  0  0  0  0  0  0  0  0
   39.1270   23.7040   35.9070 C   0  0  1  0  0  0  0  0  0  0  0  0
   43.8360   24.1630   32.6870 H   0  0  0  0  0  0  0  0  0  0  0  0
   43.5710   26.6530   32.9320 H   0  0  0  0  0  0  0  0  0  0  0  0
   41.7650   27.4840   34.4770 H   0  0  0  0  0  0  0  0  0  0  0  0
   40.3100   21.3090   35.3480 H   0  0  0  0  0  0  0  0  0  0  0  0
   41.9520   21.8960   35.6650 H   0  0  0  0  0  0  0  0  0  0  0  0
   40.3620   20.8160   37.6310 H   0  0  0  0  0  0  0  0  0  0  0  0
   41.7350   21.9030   37.9210 H   0  0  0  0  0  0  0  0  0  0  0  0
   39.5220   22.4310   38.9640 H   0  0  0  0  0  0  0  0  0  0  0  0
   37.9110   22.9660   37.5110 H   0  0  0  0  0  0  0  0  0  0  0  0
   38.7550   24.4710   37.8360 H   0  0  0  0  0  0  0  0  0  0  0  0
   38.5110   22.8900   35.3610 H   0  0  0  0  0  0  0  0  0  0  0  0
   37.9950   23.9890   33.3640 F   0  0  0  0  0  0  0  0  0  0  0  0
   37.9780   25.1060   34.1610 C   0  0  0  0  0  0  0  0  0  0  0  0
   38.5680   24.9530   35.4210 C   0  0  0  0  0  0  0  0  0  0  0  0
   38.4900   26.1530   36.1390 C   0  0  0  0  0  0  0  0  0  0  0  0
   38.9000   26.1740   37.1550 H   0  0  0  0  0  0  0  0  0  0  0  0
   37.9260   27.3300   35.7040 C   0  0  0  0  0  0  0  0  0  0  0  0
   37.9170   28.2030   36.3380 H   0  0  0  0  0  0  0  0  0  0  0  0
   37.3820   27.3410   34.4460 C   0  0  0  0  0  3  0  0  0  0  0  0
   37.3880   26.2310   33.6290 C   0  0  0  0  0  3  0  0  0  0  0  0
  1  2  2  0  0  0  0
  1  6  1  0  0  0  0
  2  3  1  0  0  0  0
  3 15  1  0  0  0  0
  3  4  2  0  0  0  0
  5  4  1  0  0  0  0
  5  7  1  0  0  0  0
  6  5  2  0  0  0  0
  7 12  1  0  0  0  0
  7  8  1  0  0  0  0
  8  9  1  0  0  0  0
  9 18  1  0  0  0  0
  9 19  1  0  0  0  0
  9 10  1  0  0  0  0
 10 20  1  0  0  0  0
 11 21  1  0  0  0  0
 11 22  1  0  0  0  0
 11 10  1  0  0  0  0
 12 23  1  6  0  0  0
 12 11  1  0  0  0  0
 13  1  1  0  0  0  0
 14  2  1  0  0  0  0
 16  8  1  0  0  0  0
 17  8  1  0  0  0  0
 24 25  1  0  0  0  0
 25 26  1  0  0  0  0
 26 12  1  0  0  0  0
 26 27  2  0  0  0  0
 27 28  1  0  0  0  0
 29 27  1  0  0  0  0
 29 30  1  0  0  0  0
 31 29  2  0  0  0  0
 32 25  2  0  0  0  0
 32 31  1  0  0  0  0
M  END
>  <minimizedAffinity>
-5.130126

$$$$

 OpenBabel03262521503D

 32 34  0  0  1  0  0  0  0  0999 V2000
   39.3670   22.4490   36.0420 C   0  0  0  0  0  0  0  0  0  0  0  0
   38.2600   22.3820   35.1730 C   0  0  0  0  0  0  0  0  0  0  0  0
   38.1490   23.3830   34.2050 C   0  0  0  0  0  0  0  0  0  0  0  0
   39.1200   24.3250   34.1940 N   0  0  0  0  0  0  0  0  0  0  0  0
   40.1620   24.3760   35.0230 C   0  0  0  0  0  0  0  0  0  0  0  0
   40.2760   23.4210   35.9530 N   0  0  0  0  0  0  0  0  0  0  0  0
   41.0910   25.4060   34.9060 N   0  0  0  0  0  0  0  0  0  0  0  0
   42.4980   25.2110   35.2950 C   0  0  0  0  0  0  0  0  0  0  0  0
   43.4000   25.5590   34.1850 C   0  0  0  0  0  0  0  0  0  0  0  0
   42.8490   26.3260   33.1400 N   0  0  0  0  0  0  0  0  0  0  0  0
   41.7290   27.1340   33.3660 C   0  0  0  0  0  0  0  0  0  0  0  0
   40.7730   26.7160   34.4300 C   0  0  1  0  0  0  0  0  0  0  0  0
   39.4500   21.6730   36.7910 H   0  0  0  0  0  0  0  0  0  0  0  0
   37.4990   21.6190   35.2040 H   0  0  0  0  0  0  0  0  0  0  0  0
   37.3510   23.4480   33.4800 H   0  0  0  0  0  0  0  0  0  0  0  0
   42.6330   25.8200   36.2140 H   0  0  0  0  0  0  0  0  0  0  0  0
   42.6100   24.1560   35.6040 H   0  0  0  0  0  0  0  0  0  0  0  0
   44.2950   26.0790   34.5930 H   0  0  0  0  0  0  0  0  0  0  0  0
   43.8000   24.6080   33.7300 H   0  0  0  0  0  0  0  0  0  0  0  0
   43.5560   26.8260   32.5960 H   0  0  0  0  0  0  0  0  0  0  0  0
   42.0440   28.1850   33.5240 H   0  0  0  0  0  0  0  0  0  0  0  0
   41.1360   27.1820   32.4050 H   0  0  0  0  0  0  0  0  0  0  0  0
   41.0350   27.3760   35.3450 H   0  0  0  0  0  0  0  0  0  0  0  0
   38.8980   27.3120   36.4200 F   0  0  0  0  0  0  0  0  0  0  0  0
   38.4440   27.3660   35.1270 C   0  0  0  0  0  0  0  0  0  0  0  0
   39.3880   27.0430   34.1440 C   0  0  0  0  0  0  0  0  0  0  0  0
   38.8100   27.1340   32.8710 C   0  0  0  0  0  0  0  0  0  0  0  0
   39.4420   26.9240   32.0020 H   0  0  0  0  0  0  0  0  0  0  0  0
   37.5100   27.4840   32.5880 C   0  0  0  0  0  0  0  0  0  0  0  0
   37.1620   27.5230   31.5680 H   0  0  0  0  0  0  0  0  0  0  0  0
   36.6900   27.7750   33.6470 C   0  0  0  0  0  3  0  0  0  0  0  0
   37.1260   27.7280   34.9530 C   0  0  0  0  0  3  0  0  0  0  0  0
  1 13  1  0  0  0  0
  2 14  1  0  0  0  0
  2  1  2  0  0  0  0
  3  2  1  0  0  0  0
  4  3  2  0  0  0  0
  4  5  1  0  0  0  0
  5  6  2  0  0  0  0
  6  1  1  0  0  0  0
  7  5  1  0  0  0  0
  7  8  1  0  0  0  0
  8 17  1  0  0  0  0
  8 16  1  0  0  0  0
  9 18  1  0  0  0  0
  9  8  1  0  0  0  0
 10 11  1  0  0  0  0
 10  9  1  0  0  0  0
 11 21  1  0  0  0  0
 11 12  1  0  0  0  0
 12  7  1  0  0  0  0
 12 23  1  1  0  0  0
 15  3  1  0  0  0  0
 19  9  1  0  0  0  0
 20 10  1  0  0  0  0
 22 11  1  0  0  0  0
 25 24  1  0  0  0  0
 26 12  1  0  0  0  0
 26 25  2  0  0  0  0
 27 26  1  0  0  0  0
 28 27  1  0  0  0  0
 29 27  2  0  0  0  0
 29 31  1  0  0  0  0
 30 29  1  0  0  0  0
 31 32  2  0  0  0  0
 32 25  1  0  0  0  0
M  END
>  <minimizedAffinity>
-5.11550331

$$$$

 OpenBabel03262521503D

 32 34  0  0  1  0  0  0  0  0999 V2000
   39.4530   26.4000   34.9400 C   0  0  0  0  0  0  0  0  0  0  0  0
   38.7210   27.3380   35.6950 C   0  0  0  0  0  0  0  0  0  0  0  0
   37.4740   27.7230   35.1960 C   0  0  0  0  0  0  0  0  0  0  0  0
   37.0860   27.1540   34.0310 N   0  0  0  0  0  0  0  0  0  0  0  0
   37.7890   26.2680   33.3280 C   0  0  0  0  0  0  0  0  0  0  0  0
   38.9850   25.8940   33.7980 N   0  0  0  0  0  0  0  0  0  0  0  0
   37.2750   25.7620   32.1370 N   0  0  0  0  0  0  0  0  0  0  0  0
   37.6310   24.4130   31.6660 C   0  0  0  0  0  0  0  0  0  0  0  0
   36.4230   23.6100   31.4150 C   0  0  0  0  0  0  0  0  0  0  0  0
   35.2080   24.3140   31.3050 N   0  0  0  0  0  0  0  0  0  0  0  0
   35.2000   25.6630   30.9320 C   0  0  0  0  0  0  0  0  0  0  0  0
   36.3920   26.4870   31.2780 C   0  0  1  0  0  0  0  0  0  0  0  0
   40.4180   26.1050   35.3280 H   0  0  0  0  0  0  0  0  0  0  0  0
   39.0550   27.7770   36.6210 H   0  0  0  0  0  0  0  0  0  0  0  0
   36.8150   28.4320   35.6750 H   0  0  0  0  0  0  0  0  0  0  0  0
   38.2750   24.5770   30.7750 H   0  0  0  0  0  0  0  0  0  0  0  0
   38.2790   23.9560   32.4350 H   0  0  0  0  0  0  0  0  0  0  0  0
   36.5780   22.9940   30.5020 H   0  0  0  0  0  0  0  0  0  0  0  0
   36.3040   22.8620   32.2510 H   0  0  0  0  0  0  0  0  0  0  0  0
   34.4880   23.7920   30.8020 H   0  0  0  0  0  0  0  0  0  0  0  0
   34.9690   25.7570   29.8520 H   0  0  0  0  0  0  0  0  0  0  0  0
   34.3150   26.1570   31.4320 H   0  0  0  0  0  0  0  0  0  0  0  0
   37.0070   26.5520   30.2980 H   0  0  0  0  0  0  0  0  0  0  0  0
   38.0090   28.6320   30.4900 F   0  0  0  0  0  0  0  0  0  0  0  0
   36.8720   28.9570   31.1860 C   0  0  0  0  0  0  0  0  0  0  0  0
   36.0860   27.8710   31.5920 C   0  0  0  0  0  0  0  0  0  0  0  0
   34.9580   28.3260   32.2890 C   0  0  0  0  0  0  0  0  0  0  0  0
   34.2430   27.5810   32.6520 H   0  0  0  0  0  0  0  0  0  0  0  0
   34.6370   29.6370   32.5550 C   0  0  0  0  0  0  0  0  0  0  0  0
   33.7410   29.8820   33.1030 H   0  0  0  0  0  0  0  0  0  0  0  0
   35.4960   30.6020   32.0990 C   0  0  0  0  0  3  0  0  0  0  0  0
   36.6440   30.2980   31.3980 C   0  0  0  0  0  3  0  0  0  0  0  0
  1 13  1  0  0  0  0
  1  2  1  0  0  0  0
  2 14  1  0  0  0  0
  3 15  1  0  0  0  0
  3  2  2  0  0  0  0
  4  3  1  0  0  0  0
  5  6  1  0  0  0  0
  5  4  2  0  0  0  0
  6  1  2  0  0  0  0
  7  5  1  0  0  0  0
  8  7  1  0  0  0  0
  8 17  1  0  0  0  0
  9  8  1  0  0  0  0
  9 19  1  0  0  0  0
 10  9  1  0  0  0  0
 11 12  1  0  0  0  0
 11 10  1  0  0  0  0
 11 22  1  0  0  0  0
 12 23  1  6  0  0  0
 12 26  1  0  0  0  0
 12  7  1  0  0  0  0
 16  8  1  0  0  0  0
 18  9  1  0  0  0  0
 20 10  1  0  0  0  0
 21 11  1  0  0  0  0
 24 25  1  0  0  0  0
 25 32  2  0  0  0  0
 25 26  1  0  0  0  0
 26 27  2  0  0  0  0
 27 29  1  0  0  0  0
 27 28  1  0  0  0  0
 29 30  1  0  0  0  0
 31 29  2  0  0  0  0
 32 31  1  0  0  0  0
M  END
>  <minimizedAffinity>
-4.94049883

$$$$

 OpenBabel03262521503D

 32 34  0  0  1  0  0  0  0  0999 V2000
   38.7670   25.8170   35.8580 C   0  0  0  0  0  0  0  0  0  0  0  0
   38.1650   27.0910   35.8450 C   0  0  0  0  0  0  0  0  0  0  0  0
   37.3590   27.4040   34.7470 C   0  0  0  0  0  0  0  0  0  0  0  0
   37.2320   26.4470   33.7980 N   0  0  0  0  0  0  0  0  0  0  0  0
   37.8070   25.2460   33.8240 C   0  0  0  0  0  0  0  0  0  0  0  0
   38.5810   24.9390   34.8710 N   0  0  0  0  0  0  0  0  0  0  0  0
   37.5970   24.3540   32.7760 N   0  0  0  0  0  0  0  0  0  0  0  0
   37.6380   22.8980   32.9950 C   0  0  0  0  0  0  0  0  0  0  0  0
   36.3980   22.2630   32.5200 C   0  0  0  0  0  0  0  0  0  0  0  0
   35.5900   23.0240   31.6520 N   0  0  0  0  0  0  0  0  0  0  0  0
   36.1450   24.0540   30.8860 C   0  0  0  0  0  0  0  0  0  0  0  0
   37.3450   24.7540   31.4260 C   0  0  1  0  0  0  0  0  0  0  0  0
   39.3910   25.5790   36.7080 H   0  0  0  0  0  0  0  0  0  0  0  0
   38.2840   27.8350   36.6160 H   0  0  0  0  0  0  0  0  0  0  0  0
   36.8410   28.3420   34.6150 H   0  0  0  0  0  0  0  0  0  0  0  0
   38.5630   22.5540   32.4870 H   0  0  0  0  0  0  0  0  0  0  0  0
   37.8000   22.7330   34.0760 H   0  0  0  0  0  0  0  0  0  0  0  0
   36.6480   21.2930   32.0360 H   0  0  0  0  0  0  0  0  0  0  0  0
   35.7660   21.9860   33.4120 H   0  0  0  0  0  0  0  0  0  0  0  0
   34.9580   22.4500   31.0890 H   0  0  0  0  0  0  0  0  0  0  0  0
   36.3400   23.6990   29.8550 H   0  0  0  0  0  0  0  0  0  0  0  0
   35.3520   24.8470   30.7430 H   0  0  0  0  0  0  0  0  0  0  0  0
   38.2440   24.2860   30.8650 H   0  0  0  0  0  0  0  0  0  0  0  0
   35.1060   26.4310   31.3960 F   0  0  0  0  0  0  0  0  0  0  0  0
   36.3060   27.0210   31.0900 C   0  0  0  0  0  0  0  0  0  0  0  0
   37.4130   26.1640   31.0870 C   0  0  0  0  0  0  0  0  0  0  0  0
   38.5740   26.8770   30.7630 C   0  0  0  0  0  0  0  0  0  0  0  0
   39.5240   26.3310   30.7400 H   0  0  0  0  0  0  0  0  0  0  0  0
   38.6560   28.2210   30.4810 C   0  0  0  0  0  0  0  0  0  0  0  0
   39.6040   28.6750   30.2410 H   0  0  0  0  0  0  0  0  0  0  0  0
   37.4920   28.9450   30.5180 C   0  0  0  0  0  3  0  0  0  0  0  0
   36.2760   28.3720   30.8240 C   0  0  0  0  0  3  0  0  0  0  0  0
  1 13  1  0  0  0  0
  2  1  1  0  0  0  0
  2 14  1  0  0  0  0
  3  2  2  0  0  0  0
  4  5  2  0  0  0  0
  4  3  1  0  0  0  0
  5  6  1  0  0  0  0
  6  1  2  0  0  0  0
  7  8  1  0  0  0  0
  7  5  1  0  0  0  0
  8 17  1  0  0  0  0
  9  8  1  0  0  0  0
  9 19  1  0  0  0  0
 10  9  1  0  0  0  0
 11 12  1  0  0  0  0
 11 10  1  0  0  0  0
 12 23  1  6  0  0  0
 12  7  1  0  0  0  0
 15  3  1  0  0  0  0
 16  8  1  0  0  0  0
 18  9  1  0  0  0  0
 20 10  1  0  0  0  0
 21 11  1  0  0  0  0
 22 11  1  0  0  0  0
 25 24  1  0  0  0  0
 26 25  1  0  0  0  0
 26 12  1  0  0  0  0
 27 26  2  0  0  0  0
 28 27  1  0  0  0  0
 29 31  2  0  0  0  0
 29 27  1  0  0  0  0
 30 29  1  0  0  0  0
 31 32  1  0  0  0  0
 32 25  2  0  0  0  0
M  END
>  <minimizedAffinity>
-4.87964058

$$$$

 OpenBabel03262521503D

 32 34  0  0  1  0  0  0  0  0999 V2000
   39.7120   27.1280   33.3420 C   0  0  0  0  0  0  0  0  0  0  0  0
   40.7650   26.9920   34.2680 C   0  0  0  0  0  0  0  0  0  0  0  0
   40.8870   25.7610   34.9190 C   0  0  0  0  0  0  0  0  0  0  0  0
   39.9780   24.8130   34.5940 N   0  0  0  0  0  0  0  0  0  0  0  0
   38.9870   24.9560   33.7160 C   0  0  0  0  0  0  0  0  0  0  0  0
   38.8630   26.1310   33.0880 N   0  0  0  0  0  0  0  0  0  0  0  0
   38.1150   23.8970   33.4770 N   0  0  0  0  0  0  0  0  0  0  0  0
   37.4560   23.7330   32.1690 C   0  0  0  0  0  0  0  0  0  0  0  0
   37.7130   22.3930   31.6190 C   0  0  0  0  0  0  0  0  0  0  0  0
   38.1880   21.4200   32.5200 N   0  0  0  0  0  0  0  0  0  0  0  0
   37.9360   21.5380   33.8920 C   0  0  0  0  0  0  0  0  0  0  0  0
   37.7730   22.9100   34.4520 C   0  0  1  0  0  0  0  0  0  0  0  0
   39.6210   28.0820   32.8410 H   0  0  0  0  0  0  0  0  0  0  0  0
   41.4770   27.7660   34.5090 H   0  0  0  0  0  0  0  0  0  0  0  0
   41.6480   25.5280   35.6490 H   0  0  0  0  0  0  0  0  0  0  0  0
   36.3850   23.9650   32.3530 H   0  0  0  0  0  0  0  0  0  0  0  0
   37.8350   24.5320   31.5070 H   0  0  0  0  0  0  0  0  0  0  0  0
   36.7900   22.0190   31.1240 H   0  0  0  0  0  0  0  0  0  0  0  0
   38.4710   22.4800   30.7880 H   0  0  0  0  0  0  0  0  0  0  0  0
   38.0210   20.4630   32.2000 H   0  0  0  0  0  0  0  0  0  0  0  0
   37.0750   20.9030   34.1760 H   0  0  0  0  0  0  0  0  0  0  0  0
   38.8020   21.0690   34.4460 H   0  0  0  0  0  0  0  0  0  0  0  0
   36.6290   23.0580   34.5560 H   0  0  0  0  0  0  0  0  0  0  0  0
   40.1650   21.7610   35.3410 F   0  0  0  0  0  0  0  0  0  0  0  0
   39.4770   22.5110   36.2620 C   0  0  0  0  0  0  0  0  0  0  0  0
   38.2710   23.0590   35.8080 C   0  0  0  0  0  0  0  0  0  0  0  0
   37.6630   23.7990   36.8310 C   0  0  0  0  0  0  0  0  0  0  0  0
   36.7150   24.3020   36.6090 H   0  0  0  0  0  0  0  0  0  0  0  0
   38.1470   23.9820   38.1050 C   0  0  0  0  0  0  0  0  0  0  0  0
   37.5980   24.5730   38.8220 H   0  0  0  0  0  0  0  0  0  0  0  0
   39.3420   23.3870   38.4180 C   0  0  0  0  0  3  0  0  0  0  0  0
   40.0500   22.6310   37.5080 C   0  0  0  0  0  3  0  0  0  0  0  0
  1  2  1  0  0  0  0
  2 14  1  0  0  0  0
  2  3  2  0  0  0  0
  3 15  1  0  0  0  0
  4  3  1  0  0  0  0
  5  4  2  0  0  0  0
  6  1  2  0  0  0  0
  6  5  1  0  0  0  0
  7  5  1  0  0  0  0
  7 12  1  0  0  0  0
  8 16  1  0  0  0  0
  8  7  1  0  0  0  0
  9  8  1  0  0  0  0
  9 10  1  0  0  0  0
 10 11  1  0  0  0  0
 11 21  1  0  0  0  0
 11 22  1  0  0  0  0
 11 12  1  0  0  0  0
 12 23  1  1  0  0  0
 12 26  1  0  0  0  0
 13  1  1  0  0  0  0
 17  8  1  0  0  0  0
 18  9  1  0  0  0  0
 19  9  1  0  0  0  0
 20 10  1  0  0  0  0
 24 25  1  0  0  0  0
 25 32  1  0  0  0  0
 26 25  2  0  0  0  0
 26 27  1  0  0  0  0
 27 29  2  0  0  0  0
 28 27  1  0  0  0  0
 29 31  1  0  0  0  0
 29 30  1  0  0  0  0
 32 31  2  0  0  0  0
M  END
>  <minimizedAffinity>
-4.87188339

$$$$

 OpenBabel03262521503D

 32 34  0  0  1  0  0  0  0  0999 V2000
   39.5260   27.1410   33.3620 C   0  0  0  0  0  0  0  0  0  0  0  0
   40.7720   26.9100   33.9790 C   0  0  0  0  0  0  0  0  0  0  0  0
   41.0420   25.6060   34.4020 C   0  0  0  0  0  0  0  0  0  0  0  0
   40.0760   24.6850   34.1770 N   0  0  0  0  0  0  0  0  0  0  0  0
   38.9020   24.9180   33.5910 C   0  0  0  0  0  0  0  0  0  0  0  0
   38.6360   26.1640   33.1830 N   0  0  0  0  0  0  0  0  0  0  0  0
   37.9930   23.8770   33.4240 N   0  0  0  0  0  0  0  0  0  0  0  0
   37.0360   23.8750   32.3040 C   0  0  0  0  0  0  0  0  0  0  0  0
   37.1450   22.6310   31.5250 C   0  0  0  0  0  0  0  0  0  0  0  0
   37.8190   21.5570   32.1400 N   0  0  0  0  0  0  0  0  0  0  0  0
   37.9080   21.4800   33.5350 C   0  0  0  0  0  0  0  0  0  0  0  0
   37.8930   22.7560   34.3050 C   0  0  1  0  0  0  0  0  0  0  0  0
   39.3210   28.1520   33.0360 H   0  0  0  0  0  0  0  0  0  0  0  0
   41.5240   27.6640   34.1470 H   0  0  0  0  0  0  0  0  0  0  0  0
   41.9550   25.2960   34.8870 H   0  0  0  0  0  0  0  0  0  0  0  0
   36.0420   24.0480   32.7700 H   0  0  0  0  0  0  0  0  0  0  0  0
   37.2470   24.7680   31.6890 H   0  0  0  0  0  0  0  0  0  0  0  0
   36.1270   22.3020   31.2200 H   0  0  0  0  0  0  0  0  0  0  0  0
   37.6790   22.8530   30.5570 H   0  0  0  0  0  0  0  0  0  0  0  0
   37.5740   20.6500   31.7390 H   0  0  0  0  0  0  0  0  0  0  0  0
   37.1380   20.7860   33.9260 H   0  0  0  0  0  0  0  0  0  0  0  0
   38.8800   20.9640   33.7930 H   0  0  0  0  0  0  0  0  0  0  0  0
   36.8090   22.8550   34.7000 H   0  0  0  0  0  0  0  0  0  0  0  0
   37.1720   24.0730   36.6660 F   0  0  0  0  0  0  0  0  0  0  0  0
   38.3470   23.3670   36.7030 C   0  0  0  0  0  0  0  0  0  0  0  0
   38.7060   22.7320   35.5080 C   0  0  0  0  0  0  0  0  0  0  0  0
   39.9170   22.0470   35.6690 C   0  0  0  0  0  0  0  0  0  0  0  0
   40.3100   21.4880   34.8130 H   0  0  0  0  0  0  0  0  0  0  0  0
   40.6730   21.9840   36.8160 C   0  0  0  0  0  0  0  0  0  0  0  0
   41.5960   21.4260   36.8350 H   0  0  0  0  0  0  0  0  0  0  0  0
   40.2050   22.6530   37.9170 C   0  0  0  0  0  3  0  0  0  0  0  0
   39.0270   23.3680   37.9010 C   0  0  0  0  0  3  0  0  0  0  0  0
  1  2  1  0  0  0  0
  2 14  1  0  0  0  0
  2  3  2  0  0  0  0
  3 15  1  0  0  0  0
  4  3  1  0  0  0  0
  5  4  2  0  0  0  0
  6  1  2  0  0  0  0
  6  5  1  0  0  0  0
  7  5  1  0  0  0  0
  7 12  1  0  0  0  0
  8 16  1  0  0  0  0
  8  7  1  0  0  0  0
  9 10  1  0  0  0  0
  9  8  1  0  0  0  0
 10 11  1  0  0  0  0
 11 22  1  0  0  0  0
 11 21  1  0  0  0  0
 11 12  1  0  0  0  0
 12 23  1  1  0  0  0
 12 26  1  0  0  0  0
 13  1  1  0  0  0  0
 17  8  1  0  0  0  0
 18  9  1  0  0  0  0
 19  9  1  0  0  0  0
 20 10  1  0  0  0  0
 24 25  1  0  0  0  0
 25 32  1  0  0  0  0
 26 27  1  0  0  0  0
 26 25  2  0  0  0  0
 27 29  2  0  0  0  0
 28 27  1  0  0  0  0
 29 30  1  0  0  0  0
 29 31  1  0  0  0  0
 32 31  2  0  0  0  0
M  END
>  <minimizedAffinity>
-4.79798317

$$$$

 OpenBabel03262521503D

 32 34  0  0  1  0  0  0  0  0999 V2000
   37.7950   22.1750   31.6660 C   0  0  0  0  0  0  0  0  0  0  0  0
   37.5230   21.1930   32.6400 C   0  0  0  0  0  0  0  0  0  0  0  0
   37.4850   21.6110   33.9730 C   0  0  0  0  0  0  0  0  0  0  0  0
   37.7120   22.9250   34.2010 N   0  0  0  0  0  0  0  0  0  0  0  0
   37.9670   23.8420   33.2700 C   0  0  0  0  0  0  0  0  0  0  0  0
   38.0060   23.4510   31.9910 N   0  0  0  0  0  0  0  0  0  0  0  0
   38.1880   25.1660   33.6430 N   0  0  0  0  0  0  0  0  0  0  0  0
   37.8520   26.2780   32.7370 C   0  0  0  0  0  0  0  0  0  0  0  0
   36.9600   27.2420   33.4020 C   0  0  0  0  0  0  0  0  0  0  0  0
   36.8780   27.1630   34.8060 N   0  0  0  0  0  0  0  0  0  0  0  0
   37.9230   26.6030   35.5490 C   0  0  0  0  0  0  0  0  0  0  0  0
   38.7590   25.5570   34.8930 C   0  0  1  0  0  0  0  0  0  0  0  0
   37.8250   21.8480   30.6360 H   0  0  0  0  0  0  0  0  0  0  0  0
   37.3460   20.1500   32.4290 H   0  0  0  0  0  0  0  0  0  0  0  0
   37.2870   20.9610   34.8130 H   0  0  0  0  0  0  0  0  0  0  0  0
   38.8300   26.6940   32.4130 H   0  0  0  0  0  0  0  0  0  0  0  0
   37.3890   25.8400   31.8350 H   0  0  0  0  0  0  0  0  0  0  0  0
   37.2530   28.2730   33.1060 H   0  0  0  0  0  0  0  0  0  0  0  0
   35.9160   27.1110   32.9950 H   0  0  0  0  0  0  0  0  0  0  0  0
   36.5480   28.0300   35.2360 H   0  0  0  0  0  0  0  0  0  0  0  0
   38.5660   27.4040   35.9640 H   0  0  0  0  0  0  0  0  0  0  0  0
   37.4760   26.1230   36.4690 H   0  0  0  0  0  0  0  0  0  0  0  0
   39.7210   26.1090   34.5580 H   0  0  0  0  0  0  0  0  0  0  0  0
   41.1910   24.2200   34.5390 F   0  0  0  0  0  0  0  0  0  0  0  0
   40.4650   23.8680   35.6480 C   0  0  0  0  0  0  0  0  0  0  0  0
   39.2400   24.5290   35.7990 C   0  0  0  0  0  0  0  0  0  0  0  0
   38.5940   24.0890   36.9610 C   0  0  0  0  0  0  0  0  0  0  0  0
   37.6270   24.5370   37.2140 H   0  0  0  0  0  0  0  0  0  0  0  0
   39.0610   23.1460   37.8470 C   0  0  0  0  0  0  0  0  0  0  0  0
   38.4820   22.8760   38.7170 H   0  0  0  0  0  0  0  0  0  0  0  0
   40.2770   22.5750   37.5790 C   0  0  0  0  0  3  0  0  0  0  0  0
   41.0230   22.9150   36.4700 C   0  0  0  0  0  3  0  0  0  0  0  0
  1  6  2  0  0  0  0
  1  2  1  0  0  0  0
  2  3  2  0  0  0  0
  3  4  1  0  0  0  0
  3 15  1  0  0  0  0
  5  7  1  0  0  0  0
  5  4  2  0  0  0  0
  6  5  1  0  0  0  0
  7 12  1  0  0  0  0
  8  9  1  0  0  0  0
  8  7  1  0  0  0  0
  9 10  1  0  0  0  0
 10 20  1  0  0  0  0
 10 11  1  0  0  0  0
 11 21  1  0  0  0  0
 11 22  1  0  0  0  0
 12 23  1  6  0  0  0
 12 11  1  0  0  0  0
 12 26  1  0  0  0  0
 13  1  1  0  0  0  0
 14  2  1  0  0  0  0
 16  8  1  0  0  0  0
 17  8  1  0  0  0  0
 18  9  1  0  0  0  0
 19  9  1  0  0  0  0
 24 25  1  0  0  0  0
 25 26  2  0  0  0  0
 25 32  1  0  0  0  0
 26 27  1  0  0  0  0
 27 28  1  0  0  0  0
 27 29  2  0  0  0  0
 29 30  1  0  0  0  0
 31 29  1  0  0  0  0
 32 31  2  0  0  0  0
M  END
>  <minimizedAffinity>
-4.7947917

$$$$

 OpenBabel03262521503D

 32 34  0  0  1  0  0  0  0  0999 V2000
   35.7800   20.9650   35.8690 C   0  0  0  0  0  0  0  0  0  0  0  0
   35.6730   20.6930   34.4900 C   0  0  0  0  0  0  0  0  0  0  0  0
   36.6460   21.2470   33.6530 C   0  0  0  0  0  0  0  0  0  0  0  0
   37.6030   21.9940   34.2510 N   0  0  0  0  0  0  0  0  0  0  0  0
   37.6920   22.2430   35.5560 C   0  0  0  0  0  0  0  0  0  0  0  0
   36.7650   21.7170   36.3640 N   0  0  0  0  0  0  0  0  0  0  0  0
   38.7290   23.0350   36.0410 N   0  0  0  0  0  0  0  0  0  0  0  0
   39.2580   22.8470   37.4030 C   0  0  0  0  0  0  0  0  0  0  0  0
   40.7140   22.6330   37.3730 C   0  0  0  0  0  0  0  0  0  0  0  0
   41.3820   22.9920   36.1860 N   0  0  0  0  0  0  0  0  0  0  0  0
   40.8320   23.9460   35.3220 C   0  0  0  0  0  0  0  0  0  0  0  0
   39.3480   24.0850   35.2930 C   0  0  1  0  0  0  0  0  0  0  0  0
   35.0260   20.5360   36.5130 H   0  0  0  0  0  0  0  0  0  0  0  0
   34.8980   20.0930   34.0410 H   0  0  0  0  0  0  0  0  0  0  0  0
   36.6790   21.1150   32.5820 H   0  0  0  0  0  0  0  0  0  0  0  0
   38.9300   23.7450   37.9690 H   0  0  0  0  0  0  0  0  0  0  0  0
   38.7230   21.9890   37.8480 H   0  0  0  0  0  0  0  0  0  0  0  0
   41.1780   23.1650   38.2330 H   0  0  0  0  0  0  0  0  0  0  0  0
   40.9250   21.5410   37.5610 H   0  0  0  0  0  0  0  0  0  0  0  0
   42.3810   23.1580   36.3240 H   0  0  0  0  0  0  0  0  0  0  0  0
   41.3060   24.9330   35.4950 H   0  0  0  0  0  0  0  0  0  0  0  0
   41.1480   23.6850   34.2690 H   0  0  0  0  0  0  0  0  0  0  0  0
   39.1210   25.0130   35.9470 H   0  0  0  0  0  0  0  0  0  0  0  0
   37.1690   25.8050   34.9430 F   0  0  0  0  0  0  0  0  0  0  0  0
   37.7360   25.3080   33.7970 C   0  0  0  0  0  0  0  0  0  0  0  0
   38.8100   24.4310   33.9900 C   0  0  0  0  0  0  0  0  0  0  0  0
   39.3020   23.9920   32.7540 C   0  0  0  0  0  0  0  0  0  0  0  0
   40.1600   23.3100   32.7540 H   0  0  0  0  0  0  0  0  0  0  0  0
   38.8260   24.3460   31.5130 C   0  0  0  0  0  0  0  0  0  0  0  0
   39.2790   23.9490   30.6180 H   0  0  0  0  0  0  0  0  0  0  0  0
   37.7670   25.2140   31.4680 C   0  0  0  0  0  3  0  0  0  0  0  0
   37.1840   25.7270   32.6070 C   0  0  0  0  0  3  0  0  0  0  0  0
  1  6  1  0  0  0  0
  1 13  1  0  0  0  0
  2  1  2  0  0  0  0
  3  4  2  0  0  0  0
  3  2  1  0  0  0  0
  4  5  1  0  0  0  0
  5  7  1  0  0  0  0
  5  6  2  0  0  0  0
  7  8  1  0  0  0  0
  8 17  1  0  0  0  0
  8 16  1  0  0  0  0
  9  8  1  0  0  0  0
  9 19  1  0  0  0  0
  9 18  1  0  0  0  0
 10 20  1  0  0  0  0
 10  9  1  0  0  0  0
 11 21  1  0  0  0  0
 11 10  1  0  0  0  0
 12 11  1  0  0  0  0
 12 23  1  1  0  0  0
 12  7  1  0  0  0  0
 14  2  1  0  0  0  0
 15  3  1  0  0  0  0
 22 11  1  0  0  0  0
 25 26  1  0  0  0  0
 25 24  1  0  0  0  0
 26 12  1  0  0  0  0
 27 26  2  0  0  0  0
 28 27  1  0  0  0  0
 29 27  1  0  0  0  0
 30 29  1  0  0  0  0
 31 29  2  0  0  0  0
 31 32  1  0  0  0  0
 32 25  2  0  0  0  0
M  END
>  <minimizedAffinity>
-4.79429054

$$$$

 OpenBabel03262521503D

 32 34  0  0  1  0  0  0  0  0999 V2000
   36.6690   28.3240   30.1070 C   0  0  0  0  0  0  0  0  0  0  0  0
   38.0360   28.6670   30.1070 C   0  0  0  0  0  0  0  0  0  0  0  0
   38.9150   27.7840   30.7400 C   0  0  0  0  0  0  0  0  0  0  0  0
   38.3660   26.6780   31.2940 N   0  0  0  0  0  0  0  0  0  0  0  0
   37.0710   26.3660   31.2870 C   0  0  0  0  0  0  0  0  0  0  0  0
   36.2230   27.2070   30.6830 N   0  0  0  0  0  0  0  0  0  0  0  0
   36.6360   25.1950   31.9010 N   0  0  0  0  0  0  0  0  0  0  0  0
   35.4370   24.4850   31.4250 C   0  0  0  0  0  0  0  0  0  0  0  0
   35.7480   23.0790   31.1210 C   0  0  0  0  0  0  0  0  0  0  0  0
   36.9490   22.5680   31.6500 N   0  0  0  0  0  0  0  0  0  0  0  0
   37.5290   23.1480   32.7850 C   0  0  0  0  0  0  0  0  0  0  0  0
   37.2830   24.5980   33.0280 C   0  0  1  0  0  0  0  0  0  0  0  0
   35.9920   29.0100   29.6170 H   0  0  0  0  0  0  0  0  0  0  0  0
   38.4470   29.5560   29.6570 H   0  0  0  0  0  0  0  0  0  0  0  0
   39.9830   27.9280   30.8100 H   0  0  0  0  0  0  0  0  0  0  0  0
   34.6760   24.6330   32.2200 H   0  0  0  0  0  0  0  0  0  0  0  0
   35.0650   25.0280   30.5370 H   0  0  0  0  0  0  0  0  0  0  0  0
   34.8990   22.4390   31.4480 H   0  0  0  0  0  0  0  0  0  0  0  0
   35.7920   22.9500   30.0010 H   0  0  0  0  0  0  0  0  0  0  0  0
   36.9540   21.5480   31.7180 H   0  0  0  0  0  0  0  0  0  0  0  0
   37.2690   22.5590   33.6870 H   0  0  0  0  0  0  0  0  0  0  0  0
   38.6490   23.0230   32.7050 H   0  0  0  0  0  0  0  0  0  0  0  0
   36.4490   24.6310   33.8300 H   0  0  0  0  0  0  0  0  0  0  0  0
   36.9560   26.6980   34.8480 F   0  0  0  0  0  0  0  0  0  0  0  0
   38.2490   26.3290   34.5780 C   0  0  0  0  0  0  0  0  0  0  0  0
   38.3970   25.2920   33.6480 C   0  0  0  0  0  0  0  0  0  0  0  0
   39.7550   25.0050   33.4560 C   0  0  0  0  0  0  0  0  0  0  0  0
   40.0170   24.1990   32.7640 H   0  0  0  0  0  0  0  0  0  0  0  0
   40.8150   25.6290   34.0710 C   0  0  0  0  0  0  0  0  0  0  0  0
   41.8290   25.3320   33.8520 H   0  0  0  0  0  0  0  0  0  0  0  0
   40.5290   26.6310   34.9610 C   0  0  0  0  0  3  0  0  0  0  0  0
   39.2370   27.0170   35.2470 C   0  0  0  0  0  3  0  0  0  0  0  0
  1  6  1  0  0  0  0
  2  1  2  0  0  0  0
  2  3  1  0  0  0  0
  3 15  1  0  0  0  0
  3  4  2  0  0  0  0
  5  4  1  0  0  0  0
  5  7  1  0  0  0  0
  6  5  2  0  0  0  0
  7 12  1  0  0  0  0
  8  7  1  0  0  0  0
  8 16  1  0  0  0  0
  9  8  1  0  0  0  0
  9 18  1  0  0  0  0
  9 10  1  0  0  0  0
 10 20  1  0  0  0  0
 10 11  1  0  0  0  0
 11 12  1  0  0  0  0
 11 21  1  0  0  0  0
 12 26  1  0  0  0  0
 12 23  1  1  0  0  0
 13  1  1  0  0  0  0
 14  2  1  0  0  0  0
 17  8  1  0  0  0  0
 19  9  1  0  0  0  0
 22 11  1  0  0  0  0
 25 24  1  0  0  0  0
 25 32  1  0  0  0  0
 26 25  2  0  0  0  0
 27 26  1  0  0  0  0
 27 29  2  0  0  0  0
 28 27  1  0  0  0  0
 29 31  1  0  0  0  0
 30 29  1  0  0  0  0
 31 32  2  0  0  0  0
M  END
>  <minimizedAffinity>
-4.74899292

$$$$
