
 OpenBabel03272510063D

 30 32  0  0  0  0  0  0  0  0999 V2000
   38.0780   31.7830   47.2940 C   0  0  0  0  0  0  0  0  0  0  0  0
   37.6980   31.1850   46.0630 C   0  0  0  0  0  0  0  0  0  0  0  0
   36.6350   30.2810   46.0620 C   0  0  0  0  0  0  0  0  0  0  0  0
   36.0130   30.0150   47.2460 N   0  0  0  0  0  0  0  0  0  0  0  0
   36.3940   30.5940   48.3950 C   0  0  0  0  0  0  0  0  0  0  0  0
   37.4170   31.4770   48.4480 N   0  0  0  0  0  0  0  0  0  0  0  0
   35.6840   30.2630   49.6070 N   0  0  0  0  0  0  0  0  0  0  0  0
   34.2480   30.5140   49.7540 C   0  0  0  0  0  0  0  0  0  0  0  0
   33.8770   29.8430   51.0290 C   0  0  0  0  0  0  0  0  0  0  0  0
   35.0680   28.9930   51.4110 C   0  0  0  0  0  0  0  0  0  0  0  0
   36.2490   29.6680   50.7920 C   0  0  0  0  0  0  0  0  0  0  0  0
   38.8930   32.4790   47.3110 H   0  0  0  0  0  0  0  0  0  0  0  0
   36.3280   29.8120   45.1390 H   0  0  0  0  0  0  0  0  0  0  0  0
   34.0890   31.6220   49.7530 H   0  0  0  0  0  0  0  0  0  0  0  0
   33.6890   30.1380   48.8710 H   0  0  0  0  0  0  0  0  0  0  0  0
   33.6130   30.5640   51.8300 H   0  0  0  0  0  0  0  0  0  0  0  0
   32.9650   29.2380   50.8310 H   0  0  0  0  0  0  0  0  0  0  0  0
   34.9930   27.9590   50.9940 H   0  0  0  0  0  0  0  0  0  0  0  0
   35.1300   29.0140   52.5180 H   0  0  0  0  0  0  0  0  0  0  0  0
   36.6770   30.4250   51.4690 H   0  0  0  0  0  0  0  0  0  0  0  0
   37.0370   28.9180   50.5580 H   0  0  0  0  0  0  0  0  0  0  0  0
   37.1970   29.9260   43.5840 F   0  0  0  0  0  0  0  0  0  0  0  0
   38.1490   30.8890   43.6320 C   0  0  0  0  0  0  0  0  0  0  0  0
   38.4050   31.5110   44.8280 C   0  0  0  0  0  0  0  0  0  0  0  0
   39.3700   32.5050   44.9310 C   0  0  0  0  0  0  0  0  0  0  0  0
   39.5930   33.0140   45.8670 H   0  0  0  0  0  0  0  0  0  0  0  0
   40.1120   32.9070   43.8240 C   0  0  0  0  0  0  0  0  0  0  0  0
   40.8740   33.6810   43.8720 H   0  0  0  0  0  0  0  0  0  0  0  0
   39.8470   32.2750   42.6200 C   0  0  0  0  0  3  0  0  0  0  0  0
   38.8900   31.2870   42.5140 C   0  0  0  0  0  3  0  0  0  0  0  0
  1 12  1  0  0  0  0
  1  6  1  0  0  0  0
  2  1  2  0  0  0  0
  3  2  1  0  0  0  0
  3  4  2  0  0  0  0
  4  5  1  0  0  0  0
  5  6  2  0  0  0  0
  5  7  1  0  0  0  0
  7  8  1  0  0  0  0
  7 11  1  0  0  0  0
  8  9  1  0  0  0  0
  9 10  1  0  0  0  0
  9 16  1  0  0  0  0
 10 19  1  0  0  0  0
 11 10  1  0  0  0  0
 11 20  1  0  0  0  0
 13  3  1  0  0  0  0
 14  8  1  0  0  0  0
 15  8  1  0  0  0  0
 17  9  1  0  0  0  0
 18 10  1  0  0  0  0
 21 11  1  0  0  0  0
 22 23  1  0  0  0  0
 23 24  1  0  0  0  0
 24 25  2  0  0  0  0
 24  2  1  0  0  0  0
 25 26  1  0  0  0  0
 27 28  1  0  0  0  0
 27 25  1  0  0  0  0
 29 27  2  0  0  0  0
 30 29  1  0  0  0  0
 30 23  2  0  0  0  0
M  END
>  <minimizedAffinity>
-3.98869109

>  <minimizedRMSD>
3.97249842

$$$$
