
 OpenBabel03272510073D

 30 32  0  0  0  0  0  0  0  0999 V2000
   36.5640   31.0820   49.0920 C   0  0  0  0  0  0  0  0  0  0  0  0
   37.2070   31.4500   47.8800 C   0  0  0  0  0  0  0  0  0  0  0  0
   36.7700   30.8660   46.6900 C   0  0  0  0  0  0  0  0  0  0  0  0
   35.7450   29.9680   46.7510 N   0  0  0  0  0  0  0  0  0  0  0  0
   35.1560   29.6390   47.9100 C   0  0  0  0  0  0  0  0  0  0  0  0
   35.5430   30.1770   49.0900 N   0  0  0  0  0  0  0  0  0  0  0  0
   34.0750   28.6820   47.8930 N   0  0  0  0  0  0  0  0  0  0  0  0
   32.8450   28.9230   47.1350 C   0  0  0  0  0  0  0  0  0  0  0  0
   32.1050   27.6330   47.2000 C   0  0  0  0  0  0  0  0  0  0  0  0
   33.0830   26.6220   47.7540 C   0  0  0  0  0  0  0  0  0  0  0  0
   34.0440   27.4160   48.5800 C   0  0  0  0  0  0  0  0  0  0  0  0
   36.8890   31.5220   50.0140 H   0  0  0  0  0  0  0  0  0  0  0  0
   37.2430   31.1280   45.7560 H   0  0  0  0  0  0  0  0  0  0  0  0
   32.3100   29.7840   47.6090 H   0  0  0  0  0  0  0  0  0  0  0  0
   33.0750   29.2540   46.1010 H   0  0  0  0  0  0  0  0  0  0  0  0
   31.1860   27.6990   47.8190 H   0  0  0  0  0  0  0  0  0  0  0  0
   31.7760   27.3890   46.1660 H   0  0  0  0  0  0  0  0  0  0  0  0
   33.6550   26.1070   46.9440 H   0  0  0  0  0  0  0  0  0  0  0  0
   32.4950   25.9260   48.3860 H   0  0  0  0  0  0  0  0  0  0  0  0
   33.6900   27.5190   49.6180 H   0  0  0  0  0  0  0  0  0  0  0  0
   35.0370   26.9150   48.5940 H   0  0  0  0  0  0  0  0  0  0  0  0
   39.0270   31.7710   45.7430 F   0  0  0  0  0  0  0  0  0  0  0  0
   39.1750   32.5600   46.8350 C   0  0  0  0  0  0  0  0  0  0  0  0
   38.3000   32.4170   47.8810 C   0  0  0  0  0  0  0  0  0  0  0  0
   38.4080   33.2020   49.0230 C   0  0  0  0  0  0  0  0  0  0  0  0
   37.7280   33.1090   49.8670 H   0  0  0  0  0  0  0  0  0  0  0  0
   39.4090   34.1610   49.1460 C   0  0  0  0  0  0  0  0  0  0  0  0
   39.5200   34.7900   50.0250 H   0  0  0  0  0  0  0  0  0  0  0  0
   40.2880   34.2990   48.0850 C   0  0  0  0  0  3  0  0  0  0  0  0
   40.1840   33.5220   46.9490 C   0  0  0  0  0  3  0  0  0  0  0  0
  1 12  1  0  0  0  0
  2 24  1  0  0  0  0
  2  1  2  0  0  0  0
  3  4  2  0  0  0  0
  3  2  1  0  0  0  0
  4  5  1  0  0  0  0
  5  6  2  0  0  0  0
  6  1  1  0  0  0  0
  7  5  1  0  0  0  0
  7 11  1  0  0  0  0
  8  9  1  0  0  0  0
  8 14  1  0  0  0  0
  8  7  1  0  0  0  0
  9 10  1  0  0  0  0
  9 16  1  0  0  0  0
 10 19  1  0  0  0  0
 10 11  1  0  0  0  0
 11 21  1  0  0  0  0
 11 20  1  0  0  0  0
 13  3  1  0  0  0  0
 15  8  1  0  0  0  0
 17  9  1  0  0  0  0
 18 10  1  0  0  0  0
 22 23  1  0  0  0  0
 23 30  2  0  0  0  0
 23 24  1  0  0  0  0
 24 25  2  0  0  0  0
 25 27  1  0  0  0  0
 25 26  1  0  0  0  0
 27 28  1  0  0  0  0
 29 27  2  0  0  0  0
 30 29  1  0  0  0  0
M  END
>  <minimizedAffinity>
-5.32066298

>  <minimizedRMSD>
2.61212754

$$$$
