
 OpenBabel03272503573D

 34 37  0  0  0  0  0  0  0  0999 V2000
   36.0810   30.0740   31.5240 C   0  0  0  0  0  0  0  0  0  0  0  0
   35.4380   30.7860   32.5340 C   0  0  0  0  0  0  0  0  0  0  0  0
   35.4100   30.1790   33.7610 C   0  0  0  0  0  0  0  0  0  0  0  0
   35.9830   28.9840   33.9030 N   0  0  0  0  0  0  0  0  0  0  0  0
   36.5970   28.2910   32.9650 C   0  0  0  0  0  0  0  0  0  0  0  0
   36.6080   28.9000   31.7930 N   0  0  0  0  0  0  0  0  0  0  0  0
   35.0100   31.7220   32.3450 H   0  0  0  0  0  0  0  0  0  0  0  0
   37.2790   27.0040   32.9710 C   0  0  0  0  0  0  0  0  0  0  0  0
   38.4580   26.8100   33.6120 N   0  0  0  0  0  0  0  0  0  0  0  0
   39.0670   25.6180   33.6270 C   0  0  0  0  0  0  0  0  0  0  0  0
   38.5860   24.5230   33.0280 N   0  0  0  0  0  0  0  0  0  0  0  0
   37.4100   24.6500   32.3700 C   0  0  0  0  0  0  0  0  0  0  0  0
   36.9000   23.5280   31.7460 C   0  0  0  0  0  0  0  0  0  0  0  0
   35.7130   23.5980   31.0660 C   0  0  0  0  0  0  0  0  0  0  0  0
   35.0770   24.8270   31.0430 C   0  0  0  0  0  0  0  0  0  0  0  0
   35.6280   25.9120   31.6810 C   0  0  0  0  0  0  0  0  0  0  0  0
   36.8040   25.8750   32.3650 C   0  0  0  0  0  0  0  0  0  0  0  0
   40.0240   25.5660   34.1770 H   0  0  0  0  0  0  0  0  0  0  0  0
   37.4240   22.5810   31.7830 H   0  0  0  0  0  0  0  0  0  0  0  0
   35.3310   22.7110   30.5850 H   0  0  0  0  0  0  0  0  0  0  0  0
   34.1380   24.8340   30.4900 H   0  0  0  0  0  0  0  0  0  0  0  0
   35.0140   26.7910   31.5650 H   0  0  0  0  0  0  0  0  0  0  0  0
   36.6500   31.8780   35.7500 F   0  0  0  0  0  0  0  0  0  0  0  0
   35.3550   31.5480   35.9030 C   0  0  0  0  0  0  0  0  0  0  0  0
   34.7940   30.7440   34.9480 C   0  0  0  0  0  0  0  0  0  0  0  0
   33.4610   30.4790   35.2160 C   0  0  0  0  0  0  0  0  0  0  0  0
   32.8660   29.8460   34.5440 H   0  0  0  0  0  0  0  0  0  0  0  0
   32.7780   30.9610   36.3080 C   0  0  0  0  0  0  0  0  0  0  0  0
   31.7400   30.7190   36.4620 H   0  0  0  0  0  0  0  0  0  0  0  0
   33.4100   31.7630   37.2240 C   0  0  0  0  0  3  0  0  0  0  0  0
   34.7370   32.0640   37.0140 C   0  0  0  0  0  3  0  0  0  0  0  0
   36.1920   30.5980   30.1720 N   0  0  0  0  0  0  0  0  0  0  0  0
   36.7530   31.4900   30.2920 H   0  0  0  0  0  0  0  0  0  0  0  0
   35.7460   30.0620   29.3940 H   0  0  0  0  0  0  0  0  0  0  0  0
  1  6  2  0  0  0  0
  1  2  1  0  0  0  0
  2  3  2  0  0  0  0
  3  4  1  0  0  0  0
  3 25  1  0  0  0  0
  5  8  1  0  0  0  0
  5  4  2  0  0  0  0
  6  5  1  0  0  0  0
  7  2  1  0  0  0  0
  8  9  1  0  0  0  0
  9 10  2  0  0  0  0
 10 18  1  0  0  0  0
 11 10  1  0  0  0  0
 12 11  2  0  0  0  0
 13 19  1  0  0  0  0
 13 12  1  0  0  0  0
 14 13  2  0  0  0  0
 15 14  1  0  0  0  0
 15 16  2  0  0  0  0
 16 17  1  0  0  0  0
 17 12  1  0  0  0  0
 17  8  2  0  0  0  0
 20 14  1  0  0  0  0
 21 15  1  0  0  0  0
 22 16  1  0  0  0  0
 23 24  1  0  0  0  0
 24 31  1  0  0  0  0
 25 26  1  0  0  0  0
 25 24  2  0  0  0  0
 26 28  2  0  0  0  0
 27 26  1  0  0  0  0
 28 29  1  0  0  0  0
 28 30  1  0  0  0  0
 31 30  2  0  0  0  0
 32 33  1  0  0  0  0
 32  1  1  0  0  0  0
 34 32  1  0  0  0  0
M  END
>  <minimizedAffinity>
-6.58014679

$$$$

 OpenBabel03272503573D

 34 37  0  0  0  0  0  0  0  0999 V2000
   36.2350   29.5620   30.4460 C   0  0  0  0  0  0  0  0  0  0  0  0
   36.5650   28.2080   30.4490 C   0  0  0  0  0  0  0  0  0  0  0  0
   35.9610   27.4530   31.4180 C   0  0  0  0  0  0  0  0  0  0  0  0
   35.1230   28.0460   32.2680 N   0  0  0  0  0  0  0  0  0  0  0  0
   34.7950   29.3230   32.2870 C   0  0  0  0  0  0  0  0  0  0  0  0
   35.3930   30.0260   31.3420 N   0  0  0  0  0  0  0  0  0  0  0  0
   37.2330   27.8140   29.7460 H   0  0  0  0  0  0  0  0  0  0  0  0
   33.8940   30.1010   33.1250 C   0  0  0  0  0  0  0  0  0  0  0  0
   32.5780   30.2490   32.8350 N   0  0  0  0  0  0  0  0  0  0  0  0
   31.7540   30.9510   33.6220 C   0  0  0  0  0  0  0  0  0  0  0  0
   32.1350   31.5630   34.7490 N   0  0  0  0  0  0  0  0  0  0  0  0
   33.4400   31.4540   35.0960 C   0  0  0  0  0  0  0  0  0  0  0  0
   33.8490   32.0800   36.2570 C   0  0  0  0  0  0  0  0  0  0  0  0
   35.1570   32.0040   36.6560 C   0  0  0  0  0  0  0  0  0  0  0  0
   36.0160   31.2810   35.8470 C   0  0  0  0  0  0  0  0  0  0  0  0
   35.5570   30.6770   34.7030 C   0  0  0  0  0  0  0  0  0  0  0  0
   34.2640   30.7340   34.2790 C   0  0  0  0  0  0  0  0  0  0  0  0
   30.7000   31.0110   33.2970 H   0  0  0  0  0  0  0  0  0  0  0  0
   33.1490   32.6400   36.8670 H   0  0  0  0  0  0  0  0  0  0  0  0
   35.4570   32.5000   37.5660 H   0  0  0  0  0  0  0  0  0  0  0  0
   37.0450   31.2480   36.2050 H   0  0  0  0  0  0  0  0  0  0  0  0
   36.3490   30.1600   34.1850 H   0  0  0  0  0  0  0  0  0  0  0  0
   34.4360   25.2950   30.2350 F   0  0  0  0  0  0  0  0  0  0  0  0
   35.4580   24.9880   31.0540 C   0  0  0  0  0  0  0  0  0  0  0  0
   36.1620   26.0270   31.5990 C   0  0  0  0  0  0  0  0  0  0  0  0
   37.1850   25.5820   32.4200 C   0  0  0  0  0  0  0  0  0  0  0  0
   37.8440   26.2930   32.9350 H   0  0  0  0  0  0  0  0  0  0  0  0
   37.4650   24.2570   32.6610 C   0  0  0  0  0  0  0  0  0  0  0  0
   38.2770   23.9740   33.3110 H   0  0  0  0  0  0  0  0  0  0  0  0
   36.7130   23.2690   32.0780 C   0  0  0  0  0  3  0  0  0  0  0  0
   35.6800   23.6480   31.2500 C   0  0  0  0  0  3  0  0  0  0  0  0
   36.7980   30.4820   29.4710 N   0  0  0  0  0  0  0  0  0  0  0  0
   36.4550   30.1050   28.5400 H   0  0  0  0  0  0  0  0  0  0  0  0
   37.3820   31.2760   29.8160 H   0  0  0  0  0  0  0  0  0  0  0  0
  1  2  2  0  0  0  0
  1  6  1  0  0  0  0
  2  3  1  0  0  0  0
  3 25  1  0  0  0  0
  3  4  2  0  0  0  0
  4  5  1  0  0  0  0
  5  8  1  0  0  0  0
  6  5  2  0  0  0  0
  7  2  1  0  0  0  0
  8 17  1  0  0  0  0
  9  8  2  0  0  0  0
  9 10  1  0  0  0  0
 10 11  2  0  0  0  0
 11 12  1  0  0  0  0
 12 13  1  0  0  0  0
 13 14  2  0  0  0  0
 13 19  1  0  0  0  0
 14 20  1  0  0  0  0
 15 21  1  0  0  0  0
 15 14  1  0  0  0  0
 16 15  2  0  0  0  0
 17 16  1  0  0  0  0
 17 12  2  0  0  0  0
 18 10  1  0  0  0  0
 22 16  1  0  0  0  0
 23 24  1  0  0  0  0
 24 31  2  0  0  0  0
 24 25  1  0  0  0  0
 25 26  2  0  0  0  0
 26 28  1  0  0  0  0
 26 27  1  0  0  0  0
 28 29  1  0  0  0  0
 30 28  2  0  0  0  0
 31 30  1  0  0  0  0
 32 34  1  0  0  0  0
 32  1  1  0  0  0  0
 33 32  1  0  0  0  0
M  END
>  <minimizedAffinity>
-6.55178738

$$$$

 OpenBabel03272503573D

 34 37  0  0  0  0  0  0  0  0999 V2000
   36.0160   30.0120   31.5100 C   0  0  0  0  0  0  0  0  0  0  0  0
   35.4410   30.7520   32.5410 C   0  0  0  0  0  0  0  0  0  0  0  0
   35.3140   30.1020   33.7390 C   0  0  0  0  0  0  0  0  0  0  0  0
   35.7360   28.8410   33.8350 N   0  0  0  0  0  0  0  0  0  0  0  0
   36.2820   28.1190   32.8770 C   0  0  0  0  0  0  0  0  0  0  0  0
   36.3920   28.7720   31.7340 N   0  0  0  0  0  0  0  0  0  0  0  0
   35.1330   31.7410   32.3880 H   0  0  0  0  0  0  0  0  0  0  0  0
   36.8040   26.7600   32.8360 C   0  0  0  0  0  0  0  0  0  0  0  0
   36.2330   25.7850   32.0860 N   0  0  0  0  0  0  0  0  0  0  0  0
   36.7320   24.5440   32.0410 C   0  0  0  0  0  0  0  0  0  0  0  0
   37.8180   24.1480   32.7140 N   0  0  0  0  0  0  0  0  0  0  0  0
   38.4360   25.0750   33.4840 C   0  0  0  0  0  0  0  0  0  0  0  0
   39.5590   24.6820   34.1840 C   0  0  0  0  0  0  0  0  0  0  0  0
   40.2240   25.5790   34.9780 C   0  0  0  0  0  0  0  0  0  0  0  0
   39.7150   26.8630   35.0320 C   0  0  0  0  0  0  0  0  0  0  0  0
   38.5940   27.2030   34.3140 C   0  0  0  0  0  0  0  0  0  0  0  0
   37.9110   26.3360   33.5160 C   0  0  0  0  0  0  0  0  0  0  0  0
   36.1930   23.8240   31.4000 H   0  0  0  0  0  0  0  0  0  0  0  0
   39.9310   23.6660   34.1200 H   0  0  0  0  0  0  0  0  0  0  0  0
   41.0990   25.2520   35.5180 H   0  0  0  0  0  0  0  0  0  0  0  0
   40.2760   27.5400   35.6760 H   0  0  0  0  0  0  0  0  0  0  0  0
   38.3240   28.2350   34.4680 H   0  0  0  0  0  0  0  0  0  0  0  0
   36.6330   31.8260   35.6540 F   0  0  0  0  0  0  0  0  0  0  0  0
   35.3440   31.5020   35.8600 C   0  0  0  0  0  0  0  0  0  0  0  0
   34.7450   30.6850   34.9400 C   0  0  0  0  0  0  0  0  0  0  0  0
   33.4230   30.4270   35.2630 C   0  0  0  0  0  0  0  0  0  0  0  0
   32.8020   29.7860   34.6240 H   0  0  0  0  0  0  0  0  0  0  0  0
   32.7840   30.9270   36.3730 C   0  0  0  0  0  0  0  0  0  0  0  0
   31.7520   30.6890   36.5700 H   0  0  0  0  0  0  0  0  0  0  0  0
   33.4520   31.7410   37.2530 C   0  0  0  0  0  3  0  0  0  0  0  0
   34.7700   32.0360   36.9870 C   0  0  0  0  0  3  0  0  0  0  0  0
   36.2170   30.5760   30.1860 N   0  0  0  0  0  0  0  0  0  0  0  0
   36.8790   31.3880   30.3550 H   0  0  0  0  0  0  0  0  0  0  0  0
   35.7270   30.1320   29.3770 H   0  0  0  0  0  0  0  0  0  0  0  0
  1  6  2  0  0  0  0
  1  2  1  0  0  0  0
  2  3  2  0  0  0  0
  3  4  1  0  0  0  0
  3 25  1  0  0  0  0
  5  4  2  0  0  0  0
  6  5  1  0  0  0  0
  7  2  1  0  0  0  0
  8  5  1  0  0  0  0
  8 17  1  0  0  0  0
  9  8  2  0  0  0  0
 10  9  1  0  0  0  0
 10 11  2  0  0  0  0
 11 12  1  0  0  0  0
 12 17  2  0  0  0  0
 12 13  1  0  0  0  0
 13 14  2  0  0  0  0
 14 15  1  0  0  0  0
 14 20  1  0  0  0  0
 15 21  1  0  0  0  0
 16 22  1  0  0  0  0
 16 15  2  0  0  0  0
 17 16  1  0  0  0  0
 18 10  1  0  0  0  0
 19 13  1  0  0  0  0
 23 24  1  0  0  0  0
 24 31  1  0  0  0  0
 25 26  1  0  0  0  0
 25 24  2  0  0  0  0
 26 28  2  0  0  0  0
 27 26  1  0  0  0  0
 28 29  1  0  0  0  0
 28 30  1  0  0  0  0
 31 30  2  0  0  0  0
 32 33  1  0  0  0  0
 32  1  1  0  0  0  0
 34 32  1  0  0  0  0
M  END
>  <minimizedAffinity>
-6.53610039

$$$$

 OpenBabel03272503573D

 34 37  0  0  0  0  0  0  0  0999 V2000
   36.3240   27.5110   31.8340 C   0  0  0  0  0  0  0  0  0  0  0  0
   35.6480   28.5690   32.4360 C   0  0  0  0  0  0  0  0  0  0  0  0
   35.8780   28.7340   33.7760 C   0  0  0  0  0  0  0  0  0  0  0  0
   36.7090   27.8960   34.3950 N   0  0  0  0  0  0  0  0  0  0  0  0
   37.3610   26.8880   33.8490 C   0  0  0  0  0  0  0  0  0  0  0  0
   37.1190   26.7540   32.5570 N   0  0  0  0  0  0  0  0  0  0  0  0
   35.0090   29.1860   31.8830 H   0  0  0  0  0  0  0  0  0  0  0  0
   38.3040   25.9140   34.3800 C   0  0  0  0  0  0  0  0  0  0  0  0
   37.9020   24.7650   34.9780 N   0  0  0  0  0  0  0  0  0  0  0  0
   38.7770   23.8680   35.4460 C   0  0  0  0  0  0  0  0  0  0  0  0
   40.1060   24.0090   35.3740 N   0  0  0  0  0  0  0  0  0  0  0  0
   40.5730   25.1370   34.7890 C   0  0  0  0  0  0  0  0  0  0  0  0
   41.9420   25.2970   34.7070 C   0  0  0  0  0  0  0  0  0  0  0  0
   42.4710   26.4190   34.1250 C   0  0  0  0  0  0  0  0  0  0  0  0
   41.5730   27.3520   33.6400 C   0  0  0  0  0  0  0  0  0  0  0  0
   40.2200   27.1440   33.7460 C   0  0  0  0  0  0  0  0  0  0  0  0
   39.6630   26.0400   34.3180 C   0  0  0  0  0  0  0  0  0  0  0  0
   38.3470   22.9640   35.9150 H   0  0  0  0  0  0  0  0  0  0  0  0
   42.6180   24.5450   35.0990 H   0  0  0  0  0  0  0  0  0  0  0  0
   43.5430   26.5260   34.0710 H   0  0  0  0  0  0  0  0  0  0  0  0
   42.0400   28.2270   33.1860 H   0  0  0  0  0  0  0  0  0  0  0  0
   39.6600   27.9640   33.3250 H   0  0  0  0  0  0  0  0  0  0  0  0
   33.0580   29.2260   34.2070 F   0  0  0  0  0  0  0  0  0  0  0  0
   33.9520   30.0250   34.8180 C   0  0  0  0  0  0  0  0  0  0  0  0
   35.2780   29.7700   34.5960 C   0  0  0  0  0  0  0  0  0  0  0  0
   36.0940   30.6570   35.2780 C   0  0  0  0  0  0  0  0  0  0  0  0
   37.1870   30.5880   35.2060 H   0  0  0  0  0  0  0  0  0  0  0  0
   35.6330   31.6740   36.0830 C   0  0  0  0  0  0  0  0  0  0  0  0
   36.3200   32.3330   36.5880 H   0  0  0  0  0  0  0  0  0  0  0  0
   34.2860   31.8680   36.2560 C   0  0  0  0  0  3  0  0  0  0  0  0
   33.4220   31.0180   35.6030 C   0  0  0  0  0  3  0  0  0  0  0  0
   36.1790   27.2210   30.4170 N   0  0  0  0  0  0  0  0  0  0  0  0
   36.5420   28.0970   29.9400 H   0  0  0  0  0  0  0  0  0  0  0  0
   35.7840   26.2950   30.1370 H   0  0  0  0  0  0  0  0  0  0  0  0
  1  2  2  0  0  0  0
  1  6  1  0  0  0  0
  2  3  1  0  0  0  0
  3  4  2  0  0  0  0
  3 25  1  0  0  0  0
  5  8  1  0  0  0  0
  5  4  1  0  0  0  0
  6  5  2  0  0  0  0
  7  2  1  0  0  0  0
  8  9  1  0  0  0  0
  9 10  2  0  0  0  0
 10 18  1  0  0  0  0
 11 10  1  0  0  0  0
 12 11  2  0  0  0  0
 13 12  1  0  0  0  0
 13 19  1  0  0  0  0
 14 13  2  0  0  0  0
 15 16  2  0  0  0  0
 15 14  1  0  0  0  0
 16 17  1  0  0  0  0
 17  8  2  0  0  0  0
 17 12  1  0  0  0  0
 20 14  1  0  0  0  0
 21 15  1  0  0  0  0
 22 16  1  0  0  0  0
 23 24  1  0  0  0  0
 24 31  1  0  0  0  0
 25 24  2  0  0  0  0
 25 26  1  0  0  0  0
 26 28  2  0  0  0  0
 27 26  1  0  0  0  0
 28 30  1  0  0  0  0
 28 29  1  0  0  0  0
 31 30  2  0  0  0  0
 32  1  1  0  0  0  0
 33 32  1  0  0  0  0
 34 32  1  0  0  0  0
M  END
>  <minimizedAffinity>
-6.51540041

$$$$

 OpenBabel03272503573D

 34 37  0  0  0  0  0  0  0  0999 V2000
   36.3440   23.3030   31.8990 C   0  0  0  0  0  0  0  0  0  0  0  0
   36.0100   24.6230   31.6060 C   0  0  0  0  0  0  0  0  0  0  0  0
   36.7480   25.5790   32.2530 C   0  0  0  0  0  0  0  0  0  0  0  0
   37.7070   25.1920   33.0940 N   0  0  0  0  0  0  0  0  0  0  0  0
   38.0410   23.9520   33.3890 C   0  0  0  0  0  0  0  0  0  0  0  0
   37.3130   23.0530   32.7510 N   0  0  0  0  0  0  0  0  0  0  0  0
   35.2420   24.8490   30.9320 H   0  0  0  0  0  0  0  0  0  0  0  0
   39.0620   23.3810   34.2570 C   0  0  0  0  0  0  0  0  0  0  0  0
   40.1970   22.8200   33.7720 N   0  0  0  0  0  0  0  0  0  0  0  0
   41.1380   22.3150   34.5790 C   0  0  0  0  0  0  0  0  0  0  0  0
   41.0570   22.3130   35.9140 N   0  0  0  0  0  0  0  0  0  0  0  0
   39.9460   22.8590   36.4620 C   0  0  0  0  0  0  0  0  0  0  0  0
   39.8470   22.8650   37.8400 C   0  0  0  0  0  0  0  0  0  0  0  0
   38.7460   23.4040   38.4490 C   0  0  0  0  0  0  0  0  0  0  0  0
   37.7680   23.9270   37.6230 C   0  0  0  0  0  0  0  0  0  0  0  0
   37.9150   23.8970   36.2570 C   0  0  0  0  0  0  0  0  0  0  0  0
   38.9980   23.3690   35.6210 C   0  0  0  0  0  0  0  0  0  0  0  0
   42.0250   21.8810   34.0830 H   0  0  0  0  0  0  0  0  0  0  0  0
   40.6330   22.4450   38.4590 H   0  0  0  0  0  0  0  0  0  0  0  0
   38.6870   23.3990   39.5270 H   0  0  0  0  0  0  0  0  0  0  0  0
   36.9110   24.3450   38.1520 H   0  0  0  0  0  0  0  0  0  0  0  0
   37.0670   24.3370   35.7590 H   0  0  0  0  0  0  0  0  0  0  0  0
   36.3000   27.5400   34.3340 F   0  0  0  0  0  0  0  0  0  0  0  0
   36.3560   27.9580   33.0570 C   0  0  0  0  0  0  0  0  0  0  0  0
   36.5680   27.0100   32.0930 C   0  0  0  0  0  0  0  0  0  0  0  0
   36.6060   27.5650   30.8240 C   0  0  0  0  0  0  0  0  0  0  0  0
   36.7680   26.9360   29.9390 H   0  0  0  0  0  0  0  0  0  0  0  0
   36.4480   28.9060   30.5590 C   0  0  0  0  0  0  0  0  0  0  0  0
   36.4880   29.2760   29.5480 H   0  0  0  0  0  0  0  0  0  0  0  0
   36.2380   29.7970   31.5800 C   0  0  0  0  0  3  0  0  0  0  0  0
   36.1900   29.3070   32.8660 C   0  0  0  0  0  3  0  0  0  0  0  0
   35.6480   22.1860   31.2830 N   0  0  0  0  0  0  0  0  0  0  0  0
   35.8450   22.3050   30.2470 H   0  0  0  0  0  0  0  0  0  0  0  0
   35.1260   21.5240   31.9000 H   0  0  0  0  0  0  0  0  0  0  0  0
  1  6  1  0  0  0  0
  2  1  2  0  0  0  0
  2  3  1  0  0  0  0
  3  4  2  0  0  0  0
  4  5  1  0  0  0  0
  5  8  1  0  0  0  0
  6  5  2  0  0  0  0
  7  2  1  0  0  0  0
  8 17  1  0  0  0  0
  9  8  2  0  0  0  0
  9 10  1  0  0  0  0
 10 11  2  0  0  0  0
 11 12  1  0  0  0  0
 12 13  1  0  0  0  0
 13 14  2  0  0  0  0
 13 19  1  0  0  0  0
 14 20  1  0  0  0  0
 15 21  1  0  0  0  0
 15 14  1  0  0  0  0
 16 15  2  0  0  0  0
 17 16  1  0  0  0  0
 17 12  2  0  0  0  0
 18 10  1  0  0  0  0
 22 16  1  0  0  0  0
 24 23  1  0  0  0  0
 25  3  1  0  0  0  0
 25 24  2  0  0  0  0
 26 25  1  0  0  0  0
 27 26  1  0  0  0  0
 28 26  2  0  0  0  0
 28 30  1  0  0  0  0
 29 28  1  0  0  0  0
 30 31  2  0  0  0  0
 31 24  1  0  0  0  0
 32  1  1  0  0  0  0
 32 34  1  0  0  0  0
 33 32  1  0  0  0  0
M  END
>  <minimizedAffinity>
-6.35923481

$$$$

 OpenBabel03272503573D

 34 37  0  0  0  0  0  0  0  0999 V2000
   36.1930   29.1150   31.4060 C   0  0  0  0  0  0  0  0  0  0  0  0
   37.1700   28.1930   31.7760 C   0  0  0  0  0  0  0  0  0  0  0  0
   37.1110   27.7550   33.0720 C   0  0  0  0  0  0  0  0  0  0  0  0
   36.1510   28.2260   33.8680 N   0  0  0  0  0  0  0  0  0  0  0  0
   35.2170   29.0970   33.5430 C   0  0  0  0  0  0  0  0  0  0  0  0
   35.2990   29.5020   32.2890 N   0  0  0  0  0  0  0  0  0  0  0  0
   37.8930   27.8700   31.0920 H   0  0  0  0  0  0  0  0  0  0  0  0
   34.1070   29.6810   34.2840 C   0  0  0  0  0  0  0  0  0  0  0  0
   32.8290   29.2530   34.1350 N   0  0  0  0  0  0  0  0  0  0  0  0
   31.8190   29.7840   34.8340 C   0  0  0  0  0  0  0  0  0  0  0  0
   31.9640   30.7660   35.7300 N   0  0  0  0  0  0  0  0  0  0  0  0
   33.2170   31.2400   35.9250 C   0  0  0  0  0  0  0  0  0  0  0  0
   33.3820   32.2550   36.8480 C   0  0  0  0  0  0  0  0  0  0  0  0
   34.6280   32.7720   37.0860 C   0  0  0  0  0  0  0  0  0  0  0  0
   35.6770   32.2300   36.3670 C   0  0  0  0  0  0  0  0  0  0  0  0
   35.4590   31.2210   35.4610 C   0  0  0  0  0  0  0  0  0  0  0  0
   34.2340   30.6850   35.2020 C   0  0  0  0  0  0  0  0  0  0  0  0
   30.8160   29.3640   34.6390 H   0  0  0  0  0  0  0  0  0  0  0  0
   32.5370   32.6570   37.3940 H   0  0  0  0  0  0  0  0  0  0  0  0
   34.7360   33.5650   37.8100 H   0  0  0  0  0  0  0  0  0  0  0  0
   36.6480   32.6730   36.5900 H   0  0  0  0  0  0  0  0  0  0  0  0
   36.3750   30.9140   34.9830 H   0  0  0  0  0  0  0  0  0  0  0  0
   36.9670   24.8670   32.9420 F   0  0  0  0  0  0  0  0  0  0  0  0
   37.9840   25.4300   33.6170 C   0  0  0  0  0  0  0  0  0  0  0  0
   38.0280   26.7980   33.6630 C   0  0  0  0  0  0  0  0  0  0  0  0
   39.1180   27.2540   34.3840 C   0  0  0  0  0  0  0  0  0  0  0  0
   39.2970   28.3290   34.5160 H   0  0  0  0  0  0  0  0  0  0  0  0
   40.0490   26.4370   34.9850 C   0  0  0  0  0  0  0  0  0  0  0  0
   40.8770   26.8540   35.5340 H   0  0  0  0  0  0  0  0  0  0  0  0
   39.9370   25.0730   34.8950 C   0  0  0  0  0  3  0  0  0  0  0  0
   38.8730   24.5570   34.1900 C   0  0  0  0  0  3  0  0  0  0  0  0
   36.1310   29.6620   30.0610 N   0  0  0  0  0  0  0  0  0  0  0  0
   35.9650   28.8110   29.4490 H   0  0  0  0  0  0  0  0  0  0  0  0
   36.2490   30.6930   29.9380 H   0  0  0  0  0  0  0  0  0  0  0  0
  1  2  2  0  0  0  0
  1  6  1  0  0  0  0
  2  3  1  0  0  0  0
  3 25  1  0  0  0  0
  3  4  2  0  0  0  0
  5  4  1  0  0  0  0
  5  8  1  0  0  0  0
  6  5  2  0  0  0  0
  7  2  1  0  0  0  0
  8 17  1  0  0  0  0
  9  8  2  0  0  0  0
  9 10  1  0  0  0  0
 10 11  2  0  0  0  0
 11 12  1  0  0  0  0
 12 13  1  0  0  0  0
 13 14  2  0  0  0  0
 13 19  1  0  0  0  0
 14 20  1  0  0  0  0
 15 21  1  0  0  0  0
 15 14  1  0  0  0  0
 16 15  2  0  0  0  0
 17 16  1  0  0  0  0
 17 12  2  0  0  0  0
 18 10  1  0  0  0  0
 22 16  1  0  0  0  0
 23 24  1  0  0  0  0
 24 25  2  0  0  0  0
 24 31  1  0  0  0  0
 25 26  1  0  0  0  0
 26 27  1  0  0  0  0
 26 28  2  0  0  0  0
 28 29  1  0  0  0  0
 30 28  1  0  0  0  0
 31 30  2  0  0  0  0
 32  1  1  0  0  0  0
 33 32  1  0  0  0  0
 34 32  1  0  0  0  0
M  END
>  <minimizedAffinity>
-6.26254511

$$$$

 OpenBabel03272503573D

 34 37  0  0  0  0  0  0  0  0999 V2000
   38.1230   22.8950   37.0840 C   0  0  0  0  0  0  0  0  0  0  0  0
   37.2780   22.2970   36.1530 C   0  0  0  0  0  0  0  0  0  0  0  0
   37.7320   22.2870   34.8610 C   0  0  0  0  0  0  0  0  0  0  0  0
   38.9160   22.8340   34.5900 N   0  0  0  0  0  0  0  0  0  0  0  0
   39.7340   23.4060   35.4510 C   0  0  0  0  0  0  0  0  0  0  0  0
   39.2700   23.4010   36.6880 N   0  0  0  0  0  0  0  0  0  0  0  0
   36.3600   21.8870   36.4430 H   0  0  0  0  0  0  0  0  0  0  0  0
   41.0470   24.0190   35.3120 C   0  0  0  0  0  0  0  0  0  0  0  0
   42.1680   23.4630   35.8360 N   0  0  0  0  0  0  0  0  0  0  0  0
   43.3730   24.0250   35.6860 C   0  0  0  0  0  0  0  0  0  0  0  0
   43.5900   25.1650   35.0210 N   0  0  0  0  0  0  0  0  0  0  0  0
   42.5110   25.7720   34.4740 C   0  0  0  0  0  0  0  0  0  0  0  0
   42.7200   26.9500   33.7840 C   0  0  0  0  0  0  0  0  0  0  0  0
   41.6640   27.6080   33.2090 C   0  0  0  0  0  0  0  0  0  0  0  0
   40.4140   27.0350   33.3600 C   0  0  0  0  0  0  0  0  0  0  0  0
   40.2620   25.8600   34.0560 C   0  0  0  0  0  0  0  0  0  0  0  0
   41.2900   25.1830   34.6380 C   0  0  0  0  0  0  0  0  0  0  0  0
   44.2220   23.4920   36.1510 H   0  0  0  0  0  0  0  0  0  0  0  0
   43.7130   27.3730   33.6850 H   0  0  0  0  0  0  0  0  0  0  0  0
   41.8470   28.5270   32.6750 H   0  0  0  0  0  0  0  0  0  0  0  0
   39.6060   27.5930   32.8870 H   0  0  0  0  0  0  0  0  0  0  0  0
   39.2300   25.5510   34.0870 H   0  0  0  0  0  0  0  0  0  0  0  0
   35.5520   20.3840   34.9490 F   0  0  0  0  0  0  0  0  0  0  0  0
   35.9810   20.8160   33.7500 C   0  0  0  0  0  0  0  0  0  0  0  0
   37.0120   21.7160   33.7370 C   0  0  0  0  0  0  0  0  0  0  0  0
   37.3600   22.0830   32.4480 C   0  0  0  0  0  0  0  0  0  0  0  0
   38.1720   22.7990   32.2650 H   0  0  0  0  0  0  0  0  0  0  0  0
   36.7460   21.6060   31.3130 C   0  0  0  0  0  0  0  0  0  0  0  0
   37.0620   21.9310   30.3360 H   0  0  0  0  0  0  0  0  0  0  0  0
   35.7170   20.7040   31.4060 C   0  0  0  0  0  3  0  0  0  0  0  0
   35.3240   20.2990   32.6620 C   0  0  0  0  0  3  0  0  0  0  0  0
   37.7730   22.9730   38.4930 N   0  0  0  0  0  0  0  0  0  0  0  0
   37.6970   21.9570   38.7920 H   0  0  0  0  0  0  0  0  0  0  0  0
   37.6680   23.9170   38.9280 H   0  0  0  0  0  0  0  0  0  0  0  0
  1 32  1  0  0  0  0
  2  7  1  0  0  0  0
  2  1  2  0  0  0  0
  3  2  1  0  0  0  0
  4  3  2  0  0  0  0
  4  5  1  0  0  0  0
  5  6  2  0  0  0  0
  6  1  1  0  0  0  0
  8  5  1  0  0  0  0
  8  9  1  0  0  0  0
 10  9  2  0  0  0  0
 10 18  1  0  0  0  0
 11 10  1  0  0  0  0
 12 17  1  0  0  0  0
 12 11  2  0  0  0  0
 13 12  1  0  0  0  0
 14 15  1  0  0  0  0
 14 13  2  0  0  0  0
 15 16  2  0  0  0  0
 16 22  1  0  0  0  0
 16 17  1  0  0  0  0
 17  8  2  0  0  0  0
 19 13  1  0  0  0  0
 20 14  1  0  0  0  0
 21 15  1  0  0  0  0
 24 23  1  0  0  0  0
 25 24  1  0  0  0  0
 25  3  1  0  0  0  0
 26 25  2  0  0  0  0
 27 26  1  0  0  0  0
 28 30  2  0  0  0  0
 28 26  1  0  0  0  0
 29 28  1  0  0  0  0
 30 31  1  0  0  0  0
 31 24  2  0  0  0  0
 32 33  1  0  0  0  0
 32 34  1  0  0  0  0
M  END
>  <minimizedAffinity>
-6.2404108

$$$$

 OpenBabel03272503573D

 34 37  0  0  0  0  0  0  0  0999 V2000
   36.2780   27.3750   31.7400 C   0  0  0  0  0  0  0  0  0  0  0  0
   35.5620   28.3720   32.3990 C   0  0  0  0  0  0  0  0  0  0  0  0
   35.9740   28.6530   33.6740 C   0  0  0  0  0  0  0  0  0  0  0  0
   37.0010   27.9730   34.1840 N   0  0  0  0  0  0  0  0  0  0  0  0
   37.6930   27.0260   33.5840 C   0  0  0  0  0  0  0  0  0  0  0  0
   37.2740   26.7770   32.3560 N   0  0  0  0  0  0  0  0  0  0  0  0
   34.7650   28.8630   31.9310 H   0  0  0  0  0  0  0  0  0  0  0  0
   38.8340   26.2210   33.9960 C   0  0  0  0  0  0  0  0  0  0  0  0
   40.0390   26.3000   33.3790 N   0  0  0  0  0  0  0  0  0  0  0  0
   41.0870   25.5690   33.7780 C   0  0  0  0  0  0  0  0  0  0  0  0
   41.0540   24.7080   34.8010 N   0  0  0  0  0  0  0  0  0  0  0  0
   39.8780   24.5810   35.4590 C   0  0  0  0  0  0  0  0  0  0  0  0
   39.8270   23.6960   36.5170 C   0  0  0  0  0  0  0  0  0  0  0  0
   38.6630   23.5270   37.2190 C   0  0  0  0  0  0  0  0  0  0  0  0
   37.5750   24.2770   36.8130 C   0  0  0  0  0  0  0  0  0  0  0  0
   37.6780   25.1450   35.7540 C   0  0  0  0  0  0  0  0  0  0  0  0
   38.8200   25.3360   35.0360 C   0  0  0  0  0  0  0  0  0  0  0  0
   42.0240   25.7080   33.2090 H   0  0  0  0  0  0  0  0  0  0  0  0
   40.7000   23.1220   36.8090 H   0  0  0  0  0  0  0  0  0  0  0  0
   38.6440   22.8300   38.0430 H   0  0  0  0  0  0  0  0  0  0  0  0
   36.6720   24.1100   37.4010 H   0  0  0  0  0  0  0  0  0  0  0  0
   36.7440   25.6480   35.5620 H   0  0  0  0  0  0  0  0  0  0  0  0
   33.1530   29.0920   34.1560 F   0  0  0  0  0  0  0  0  0  0  0  0
   34.0440   29.8830   34.7820 C   0  0  0  0  0  0  0  0  0  0  0  0
   35.3710   29.6530   34.5360 C   0  0  0  0  0  0  0  0  0  0  0  0
   36.1830   30.5290   35.2370 C   0  0  0  0  0  0  0  0  0  0  0  0
   37.2760   30.4770   35.1480 H   0  0  0  0  0  0  0  0  0  0  0  0
   35.7190   31.5130   36.0800 C   0  0  0  0  0  0  0  0  0  0  0  0
   36.4030   32.1640   36.5980 H   0  0  0  0  0  0  0  0  0  0  0  0
   34.3720   31.6820   36.2760 C   0  0  0  0  0  3  0  0  0  0  0  0
   33.5110   30.8410   35.6060 C   0  0  0  0  0  3  0  0  0  0  0  0
   35.9550   26.9760   30.3800 N   0  0  0  0  0  0  0  0  0  0  0  0
   36.1130   27.8590   29.8130 H   0  0  0  0  0  0  0  0  0  0  0  0
   35.6550   25.9900   30.2100 H   0  0  0  0  0  0  0  0  0  0  0  0
  1  6  2  0  0  0  0
  1  2  1  0  0  0  0
  2  3  2  0  0  0  0
  3  4  1  0  0  0  0
  3 25  1  0  0  0  0
  5  8  1  0  0  0  0
  5  4  2  0  0  0  0
  6  5  1  0  0  0  0
  7  2  1  0  0  0  0
  8 17  1  0  0  0  0
  9 10  1  0  0  0  0
  9  8  2  0  0  0  0
 10 11  2  0  0  0  0
 11 12  1  0  0  0  0
 12 13  1  0  0  0  0
 13 19  1  0  0  0  0
 13 14  2  0  0  0  0
 14 20  1  0  0  0  0
 15 14  1  0  0  0  0
 15 21  1  0  0  0  0
 16 15  2  0  0  0  0
 17 12  2  0  0  0  0
 17 16  1  0  0  0  0
 18 10  1  0  0  0  0
 22 16  1  0  0  0  0
 23 24  1  0  0  0  0
 24 31  1  0  0  0  0
 25 24  2  0  0  0  0
 25 26  1  0  0  0  0
 26 28  2  0  0  0  0
 27 26  1  0  0  0  0
 28 30  1  0  0  0  0
 28 29  1  0  0  0  0
 31 30  2  0  0  0  0
 32  1  1  0  0  0  0
 33 32  1  0  0  0  0
 34 32  1  0  0  0  0
M  END
>  <minimizedAffinity>
-6.21588564

$$$$

 OpenBabel03272503573D

 34 37  0  0  0  0  0  0  0  0999 V2000
   36.0810   29.7960   31.0270 C   0  0  0  0  0  0  0  0  0  0  0  0
   36.3200   28.4380   30.8330 C   0  0  0  0  0  0  0  0  0  0  0  0
   36.1530   27.6430   31.9360 C   0  0  0  0  0  0  0  0  0  0  0  0
   35.7840   28.2060   33.0860 N   0  0  0  0  0  0  0  0  0  0  0  0
   35.5530   29.4860   33.2960 C   0  0  0  0  0  0  0  0  0  0  0  0
   35.7220   30.2280   32.2160 N   0  0  0  0  0  0  0  0  0  0  0  0
   36.6080   28.0690   29.8970 H   0  0  0  0  0  0  0  0  0  0  0  0
   35.1300   30.2360   34.4700 C   0  0  0  0  0  0  0  0  0  0  0  0
   35.9780   31.0300   35.1690 N   0  0  0  0  0  0  0  0  0  0  0  0
   35.5740   31.7300   36.2360 C   0  0  0  0  0  0  0  0  0  0  0  0
   34.3230   31.7190   36.7100 N   0  0  0  0  0  0  0  0  0  0  0  0
   33.4260   30.9440   36.0570 C   0  0  0  0  0  0  0  0  0  0  0  0
   32.1300   30.9220   36.5340 C   0  0  0  0  0  0  0  0  0  0  0  0
   31.1800   30.1560   35.9120 C   0  0  0  0  0  0  0  0  0  0  0  0
   31.5890   29.4280   34.8090 C   0  0  0  0  0  0  0  0  0  0  0  0
   32.8910   29.4860   34.3750 C   0  0  0  0  0  0  0  0  0  0  0  0
   33.8580   30.2370   34.9700 C   0  0  0  0  0  0  0  0  0  0  0  0
   36.3430   32.3470   36.7360 H   0  0  0  0  0  0  0  0  0  0  0  0
   31.8440   31.5040   37.4020 H   0  0  0  0  0  0  0  0  0  0  0  0
   30.1740   30.1510   36.3000 H   0  0  0  0  0  0  0  0  0  0  0  0
   30.8000   28.8340   34.3480 H   0  0  0  0  0  0  0  0  0  0  0  0
   33.0470   28.8600   33.5110 H   0  0  0  0  0  0  0  0  0  0  0  0
   34.6460   25.6420   30.4850 F   0  0  0  0  0  0  0  0  0  0  0  0
   35.6530   25.2380   31.2810 C   0  0  0  0  0  0  0  0  0  0  0  0
   36.3490   26.2050   31.9550 C   0  0  0  0  0  0  0  0  0  0  0  0
   37.3570   25.6650   32.7360 C   0  0  0  0  0  0  0  0  0  0  0  0
   38.0080   26.3090   33.3410 H   0  0  0  0  0  0  0  0  0  0  0  0
   37.6310   24.3190   32.8280 C   0  0  0  0  0  0  0  0  0  0  0  0
   38.4300   23.9600   33.4540 H   0  0  0  0  0  0  0  0  0  0  0  0
   36.8880   23.4090   32.1210 C   0  0  0  0  0  3  0  0  0  0  0  0
   35.8700   23.8840   31.3240 C   0  0  0  0  0  3  0  0  0  0  0  0
   36.2150   30.7570   29.9450 N   0  0  0  0  0  0  0  0  0  0  0  0
   35.4920   30.4410   29.2350 H   0  0  0  0  0  0  0  0  0  0  0  0
   36.9250   31.5170   30.0400 H   0  0  0  0  0  0  0  0  0  0  0  0
  1  6  1  0  0  0  0
  2  1  2  0  0  0  0
  2  3  1  0  0  0  0
  3 25  1  0  0  0  0
  3  4  2  0  0  0  0
  4  5  1  0  0  0  0
  5  8  1  0  0  0  0
  6  5  2  0  0  0  0
  7  2  1  0  0  0  0
  8 17  2  0  0  0  0
  8  9  1  0  0  0  0
  9 10  2  0  0  0  0
 10 11  1  0  0  0  0
 10 18  1  0  0  0  0
 12 13  1  0  0  0  0
 12 11  2  0  0  0  0
 13 19  1  0  0  0  0
 14 20  1  0  0  0  0
 14 13  2  0  0  0  0
 15 14  1  0  0  0  0
 16 15  2  0  0  0  0
 16 17  1  0  0  0  0
 17 12  1  0  0  0  0
 21 15  1  0  0  0  0
 22 16  1  0  0  0  0
 23 24  1  0  0  0  0
 24 31  2  0  0  0  0
 24 25  1  0  0  0  0
 25 26  2  0  0  0  0
 26 28  1  0  0  0  0
 26 27  1  0  0  0  0
 28 29  1  0  0  0  0
 30 28  2  0  0  0  0
 31 30  1  0  0  0  0
 32 34  1  0  0  0  0
 32  1  1  0  0  0  0
 33 32  1  0  0  0  0
M  END
>  <minimizedAffinity>
-6.17978859

$$$$
