
 OpenBabel03272508133D

 34 36  0  0  0  0  0  0  0  0999 V2000
   38.2750   23.0030   33.3100 Cl  0  0  0  0  0  0  0  0  0  0  0  0
   37.1730   24.1020   32.4620 C   0  0  0  0  0  0  0  0  0  0  0  0
   37.2270   25.4890   32.5590 C   0  0  0  0  0  0  0  0  0  0  0  0
   36.3000   26.2160   31.8370 C   0  0  0  0  0  0  0  0  0  0  0  0
   35.3560   25.5980   31.0520 C   0  0  0  0  0  0  0  0  0  0  0  0
   35.2880   24.2400   30.9450 C   0  0  0  0  0  0  0  0  0  0  0  0
   36.2000   23.4880   31.6530 C   0  0  0  0  0  0  0  0  0  0  0  0
   36.4180   27.2970   31.9730 H   0  0  0  0  0  0  0  0  0  0  0  0
   34.6710   26.2480   30.5230 H   0  0  0  0  0  0  0  0  0  0  0  0
   34.5580   23.7400   30.3370 H   0  0  0  0  0  0  0  0  0  0  0  0
   37.9540   21.7930   30.1850 F   0  0  0  0  0  0  0  0  0  0  0  0
   36.9550   21.1810   30.8400 C   0  0  0  0  0  0  0  0  0  0  0  0
   36.1260   22.0320   31.5380 C   0  0  0  0  0  0  0  0  0  0  0  0
   35.0480   21.5150   32.2610 C   0  0  0  0  0  0  0  0  0  0  0  0
   34.3300   22.0850   32.8490 H   0  0  0  0  0  0  0  0  0  0  0  0
   34.7990   20.1510   32.2860 C   0  0  0  0  0  0  0  0  0  0  0  0
   33.9630   19.7130   32.8400 H   0  0  0  0  0  0  0  0  0  0  0  0
   35.6380   19.2860   31.5750 C   0  0  0  0  0  3  0  0  0  0  0  0
   36.7100   19.8240   30.8610 C   0  0  0  0  0  3  0  0  0  0  0  0
   38.2200   25.9170   33.3760 O   0  0  0  0  0  0  0  0  0  0  0  0
   39.4240   27.1950   35.2680 O   0  0  0  0  0  0  0  0  0  0  0  0
   38.1120   26.6250   34.9060 P   0  0  1  0  0  0  0  0  0  0  0  0
   36.9610   27.8870   34.7290 O   0  0  0  0  0  0  0  0  0  0  0  0
   37.3340   28.6140   34.1830 H   0  0  0  0  0  0  0  0  0  0  0  0
   37.5050   25.4770   36.0040 O   0  0  0  0  0  0  0  0  0  0  0  0
   38.8430   23.3180   38.6860 C   0  0  0  0  0  0  0  0  0  0  0  0
   37.9790   24.2480   38.1030 C   0  0  0  0  0  0  0  0  0  0  0  0
   38.1970   24.6080   36.7770 C   0  0  0  0  0  0  0  0  0  0  0  0
   39.2470   24.0300   36.1150 N   0  0  0  0  0  0  0  0  0  0  0  0
   40.0580   23.1320   36.7220 C   0  0  0  0  0  0  0  0  0  0  0  0
   39.8540   22.7820   37.9990 N   0  0  0  0  0  0  0  0  0  0  0  0
   38.5880   23.0990   39.7360 H   0  0  0  0  0  0  0  0  0  0  0  0
   37.1370   24.7430   38.5550 H   0  0  0  0  0  0  0  0  0  0  0  0
   40.8930   22.6670   36.2120 H   0  0  0  0  0  0  0  0  0  0  0  0
  2  3  1  0  0  0  0
  2  1  1  0  0  0  0
  3 20  1  0  0  0  0
  4  8  1  0  0  0  0
  4  3  2  0  0  0  0
  5  4  1  0  0  0  0
  6  5  2  0  0  0  0
  6  7  1  0  0  0  0
  7  2  2  0  0  0  0
  9  5  1  0  0  0  0
 10  6  1  0  0  0  0
 11 12  1  0  0  0  0
 12 19  2  0  0  0  0
 12 13  1  0  0  0  0
 13  7  1  0  0  0  0
 13 14  2  0  0  0  0
 14 16  1  0  0  0  0
 14 15  1  0  0  0  0
 16 17  1  0  0  0  0
 18 16  2  0  0  0  0
 19 18  1  0  0  0  0
 20 22  1  0  0  0  0
 22 21  2  1  0  0  0
 22 25  1  0  0  0  0
 23 22  1  0  0  0  0
 24 23  1  0  0  0  0
 25 28  1  0  0  0  0
 26 32  1  0  0  0  0
 27 33  1  0  0  0  0
 27 26  1  0  0  0  0
 28 27  2  0  0  0  0
 29 30  2  0  0  0  0
 29 28  1  0  0  0  0
 30 31  1  0  0  0  0
 31 26  2  0  0  0  0
 34 30  1  0  0  0  0
M  END
>  <minimizedAffinity>
-6.43870878

$$$$

 OpenBabel03272508133D

 34 36  0  0  0  0  0  0  0  0999 V2000
   34.2840   29.3760   34.1570 Cl  0  0  0  0  0  0  0  0  0  0  0  0
   35.2520   30.4040   33.0860 C   0  0  0  0  0  0  0  0  0  0  0  0
   35.7720   29.9870   31.8640 C   0  0  0  0  0  0  0  0  0  0  0  0
   36.5090   30.9030   31.1380 C   0  0  0  0  0  0  0  0  0  0  0  0
   36.7260   32.1790   31.6010 C   0  0  0  0  0  0  0  0  0  0  0  0
   36.2250   32.6050   32.7960 C   0  0  0  0  0  0  0  0  0  0  0  0
   35.4850   31.7130   33.5430 C   0  0  0  0  0  0  0  0  0  0  0  0
   36.8760   30.4890   30.1930 H   0  0  0  0  0  0  0  0  0  0  0  0
   37.3150   32.8270   30.9650 H   0  0  0  0  0  0  0  0  0  0  0  0
   36.3850   33.5970   33.1740 H   0  0  0  0  0  0  0  0  0  0  0  0
   36.5610   31.2070   36.1290 F   0  0  0  0  0  0  0  0  0  0  0  0
   35.4430   31.9470   36.0920 C   0  0  0  0  0  0  0  0  0  0  0  0
   34.9500   32.1710   34.8240 C   0  0  0  0  0  0  0  0  0  0  0  0
   33.7880   32.9280   34.6530 C   0  0  0  0  0  0  0  0  0  0  0  0
   33.3080   33.1720   33.7070 H   0  0  0  0  0  0  0  0  0  0  0  0
   33.1210   33.4600   35.7470 C   0  0  0  0  0  0  0  0  0  0  0  0
   32.2080   34.0570   35.6490 H   0  0  0  0  0  0  0  0  0  0  0  0
   33.6190   33.2310   37.0340 C   0  0  0  0  0  3  0  0  0  0  0  0
   34.7810   32.4730   37.1810 C   0  0  0  0  0  3  0  0  0  0  0  0
   35.4550   28.7010   31.5740 O   0  0  0  0  0  0  0  0  0  0  0  0
   35.7440   26.1730   31.1400 O   0  0  0  0  0  0  0  0  0  0  0  0
   36.4480   27.4630   30.9990 P   0  0  1  0  0  0  0  0  0  0  0  0
   36.6800   27.8170   29.3350 O   0  0  0  0  0  0  0  0  0  0  0  0
   35.8450   27.6710   28.8360 H   0  0  0  0  0  0  0  0  0  0  0  0
   37.9500   27.5450   31.7930 O   0  0  0  0  0  0  0  0  0  0  0  0
   37.8610   27.2740   35.4760 C   0  0  0  0  0  0  0  0  0  0  0  0
   37.3430   27.4770   34.1940 C   0  0  0  0  0  0  0  0  0  0  0  0
   38.2110   27.3900   33.1110 C   0  0  0  0  0  0  0  0  0  0  0  0
   39.5280   27.1090   33.3610 N   0  0  0  0  0  0  0  0  0  0  0  0
   39.9850   26.9200   34.6210 C   0  0  0  0  0  0  0  0  0  0  0  0
   39.1540   27.0020   35.6680 N   0  0  0  0  0  0  0  0  0  0  0  0
   37.0960   27.3640   36.2640 H   0  0  0  0  0  0  0  0  0  0  0  0
   36.3260   27.7000   33.9190 H   0  0  0  0  0  0  0  0  0  0  0  0
   41.0230   26.6970   34.8340 H   0  0  0  0  0  0  0  0  0  0  0  0
  2  7  1  0  0  0  0
  2  1  1  0  0  0  0
  3  2  2  0  0  0  0
  4  5  2  0  0  0  0
  4  3  1  0  0  0  0
  5  6  1  0  0  0  0
  6 10  1  0  0  0  0
  6  7  2  0  0  0  0
  7 13  1  0  0  0  0
  8  4  1  0  0  0  0
  9  5  1  0  0  0  0
 12 11  1  0  0  0  0
 12 19  1  0  0  0  0
 13 12  2  0  0  0  0
 14 13  1  0  0  0  0
 14 16  2  0  0  0  0
 15 14  1  0  0  0  0
 16 18  1  0  0  0  0
 17 16  1  0  0  0  0
 18 19  2  0  0  0  0
 20  3  1  0  0  0  0
 22 21  2  1  0  0  0
 22 20  1  0  0  0  0
 22 25  1  0  0  0  0
 23 22  1  0  0  0  0
 24 23  1  0  0  0  0
 25 28  1  0  0  0  0
 26 31  1  0  0  0  0
 26 32  1  0  0  0  0
 27 26  2  0  0  0  0
 28 29  2  0  0  0  0
 28 27  1  0  0  0  0
 29 30  1  0  0  0  0
 30 34  1  0  0  0  0
 30 31  2  0  0  0  0
 33 27  1  0  0  0  0
M  END
>  <minimizedAffinity>
-5.88681412

$$$$

 OpenBabel03272508133D

 34 36  0  0  0  0  0  0  0  0999 V2000
   38.5130   21.9190   33.6250 Cl  0  0  0  0  0  0  0  0  0  0  0  0
   37.4450   23.0660   32.7980 C   0  0  0  0  0  0  0  0  0  0  0  0
   37.6300   24.4450   32.8010 C   0  0  0  0  0  0  0  0  0  0  0  0
   36.7130   25.2140   32.1090 C   0  0  0  0  0  0  0  0  0  0  0  0
   35.6540   24.6430   31.4440 C   0  0  0  0  0  0  0  0  0  0  0  0
   35.4560   23.2940   31.4320 C   0  0  0  0  0  0  0  0  0  0  0  0
   36.3550   22.5010   32.1130 C   0  0  0  0  0  0  0  0  0  0  0  0
   36.9380   26.2840   32.1650 H   0  0  0  0  0  0  0  0  0  0  0  0
   34.9870   25.3230   30.9310 H   0  0  0  0  0  0  0  0  0  0  0  0
   34.6350   22.8300   30.9190 H   0  0  0  0  0  0  0  0  0  0  0  0
   35.3090   20.9040   34.2240 F   0  0  0  0  0  0  0  0  0  0  0  0
   35.6370   20.2500   33.0990 C   0  0  0  0  0  0  0  0  0  0  0  0
   36.1420   21.0550   32.0990 C   0  0  0  0  0  0  0  0  0  0  0  0
   36.5220   20.4920   30.8780 C   0  0  0  0  0  0  0  0  0  0  0  0
   36.9280   21.0230   30.0200 H   0  0  0  0  0  0  0  0  0  0  0  0
   36.3980   19.1280   30.6570 C   0  0  0  0  0  0  0  0  0  0  0  0
   36.6860   18.6540   29.7130 H   0  0  0  0  0  0  0  0  0  0  0  0
   35.8890   18.3100   31.6710 C   0  0  0  0  0  3  0  0  0  0  0  0
   35.5150   18.8940   32.8830 C   0  0  0  0  0  3  0  0  0  0  0  0
   38.7250   24.8240   33.5060 O   0  0  0  0  0  0  0  0  0  0  0  0
   39.7920   26.6060   35.0370 O   0  0  0  0  0  0  0  0  0  0  0  0
   38.8160   25.4990   35.0510 P   0  0  1  0  0  0  0  0  0  0  0  0
   37.2440   26.1180   35.3570 O   0  0  0  0  0  0  0  0  0  0  0  0
   37.0700   26.9030   34.7900 H   0  0  0  0  0  0  0  0  0  0  0  0
   39.1500   24.2670   36.1740 O   0  0  0  0  0  0  0  0  0  0  0  0
   42.4220   22.5990   35.7830 C   0  0  0  0  0  0  0  0  0  0  0  0
   41.4150   23.5250   35.4990 C   0  0  0  0  0  0  0  0  0  0  0  0
   40.2500   23.4850   36.2580 C   0  0  0  0  0  0  0  0  0  0  0  0
   40.1550   22.5390   37.2440 N   0  0  0  0  0  0  0  0  0  0  0  0
   41.1570   21.6620   37.4830 C   0  0  0  0  0  0  0  0  0  0  0  0
   42.2820   21.6950   36.7560 N   0  0  0  0  0  0  0  0  0  0  0  0
   43.3020   22.7120   35.1290 H   0  0  0  0  0  0  0  0  0  0  0  0
   41.4170   24.2930   34.7450 H   0  0  0  0  0  0  0  0  0  0  0  0
   41.0970   20.9090   38.2590 H   0  0  0  0  0  0  0  0  0  0  0  0
  2  3  1  0  0  0  0
  2  1  1  0  0  0  0
  3 20  1  0  0  0  0
  4  8  1  0  0  0  0
  4  3  2  0  0  0  0
  5  4  1  0  0  0  0
  6  5  2  0  0  0  0
  6  7  1  0  0  0  0
  7  2  2  0  0  0  0
  9  5  1  0  0  0  0
 10  6  1  0  0  0  0
 12 11  1  0  0  0  0
 13  7  1  0  0  0  0
 13 12  2  0  0  0  0
 14 13  1  0  0  0  0
 15 14  1  0  0  0  0
 16 14  2  0  0  0  0
 16 18  1  0  0  0  0
 17 16  1  0  0  0  0
 18 19  2  0  0  0  0
 19 12  1  0  0  0  0
 20 22  1  0  0  0  0
 22 21  2  1  0  0  0
 22 23  1  0  0  0  0
 22 25  1  0  0  0  0
 24 23  1  0  0  0  0
 25 28  1  0  0  0  0
 26 31  1  0  0  0  0
 27 26  2  0  0  0  0
 27 28  1  0  0  0  0
 28 29  2  0  0  0  0
 29 30  1  0  0  0  0
 30 34  1  0  0  0  0
 31 30  2  0  0  0  0
 32 26  1  0  0  0  0
 33 27  1  0  0  0  0
M  END
>  <minimizedAffinity>
-5.84780264

$$$$

 OpenBabel03272508133D

 34 36  0  0  0  0  0  0  0  0999 V2000
   36.5270   27.9530   34.9180 Cl  0  0  0  0  0  0  0  0  0  0  0  0
   36.3350   28.6320   33.2930 C   0  0  0  0  0  0  0  0  0  0  0  0
   36.8950   28.0790   32.1450 C   0  0  0  0  0  0  0  0  0  0  0  0
   36.6570   28.7220   30.9460 C   0  0  0  0  0  0  0  0  0  0  0  0
   35.8990   29.8670   30.8820 C   0  0  0  0  0  0  0  0  0  0  0  0
   35.3440   30.4230   31.9960 C   0  0  0  0  0  0  0  0  0  0  0  0
   35.5630   29.8040   33.2080 C   0  0  0  0  0  0  0  0  0  0  0  0
   37.1340   28.2170   30.0990 H   0  0  0  0  0  0  0  0  0  0  0  0
   35.7660   30.3010   29.9000 H   0  0  0  0  0  0  0  0  0  0  0  0
   34.7490   31.3170   31.9670 H   0  0  0  0  0  0  0  0  0  0  0  0
   32.9300   29.3820   34.2050 F   0  0  0  0  0  0  0  0  0  0  0  0
   33.7000   30.2210   34.9150 C   0  0  0  0  0  0  0  0  0  0  0  0
   34.9680   30.4020   34.4020 C   0  0  0  0  0  0  0  0  0  0  0  0
   35.8660   31.2530   35.0520 C   0  0  0  0  0  0  0  0  0  0  0  0
   36.8860   31.4720   34.7440 H   0  0  0  0  0  0  0  0  0  0  0  0
   35.4980   31.9220   36.2100 C   0  0  0  0  0  0  0  0  0  0  0  0
   36.1760   32.5960   36.7430 H   0  0  0  0  0  0  0  0  0  0  0  0
   34.2120   31.7400   36.7300 C   0  0  0  0  0  3  0  0  0  0  0  0
   33.3320   30.8850   36.0650 C   0  0  0  0  0  3  0  0  0  0  0  0
   37.6070   26.9540   32.4020 O   0  0  0  0  0  0  0  0  0  0  0  0
   35.8710   25.1060   31.9200 O   0  0  0  0  0  0  0  0  0  0  0  0
   37.3230   25.3720   31.8850 P   0  0  1  0  0  0  0  0  0  0  0  0
   37.8800   25.3290   30.2610 O   0  0  0  0  0  0  0  0  0  0  0  0
   37.2830   25.8540   29.6820 H   0  0  0  0  0  0  0  0  0  0  0  0
   38.2660   24.3080   32.8180 O   0  0  0  0  0  0  0  0  0  0  0  0
   38.1490   24.3830   36.5090 C   0  0  0  0  0  0  0  0  0  0  0  0
   38.2950   24.9070   35.2220 C   0  0  0  0  0  0  0  0  0  0  0  0
   38.1680   24.0410   34.1410 C   0  0  0  0  0  0  0  0  0  0  0  0
   37.9070   22.7220   34.3970 N   0  0  0  0  0  0  0  0  0  0  0  0
   37.7730   22.2590   35.6630 C   0  0  0  0  0  0  0  0  0  0  0  0
   37.8950   23.0880   36.7090 N   0  0  0  0  0  0  0  0  0  0  0  0
   38.2670   25.1460   37.2960 H   0  0  0  0  0  0  0  0  0  0  0  0
   38.4990   25.9260   34.9420 H   0  0  0  0  0  0  0  0  0  0  0  0
   37.5670   21.2190   35.8820 H   0  0  0  0  0  0  0  0  0  0  0  0
  2  1  1  0  0  0  0
  3 20  1  0  0  0  0
  3  2  2  0  0  0  0
  4  3  1  0  0  0  0
  5  4  2  0  0  0  0
  5  6  1  0  0  0  0
  6  7  2  0  0  0  0
  7  2  1  0  0  0  0
  7 13  1  0  0  0  0
  8  4  1  0  0  0  0
  9  5  1  0  0  0  0
 10  6  1  0  0  0  0
 11 12  1  0  0  0  0
 12 19  1  0  0  0  0
 13 12  2  0  0  0  0
 13 14  1  0  0  0  0
 14 16  2  0  0  0  0
 15 14  1  0  0  0  0
 16 18  1  0  0  0  0
 16 17  1  0  0  0  0
 19 18  2  0  0  0  0
 22 21  2  1  0  0  0
 22 20  1  0  0  0  0
 22 25  1  0  0  0  0
 23 22  1  0  0  0  0
 24 23  1  0  0  0  0
 25 28  1  0  0  0  0
 26 31  1  0  0  0  0
 26 32  1  0  0  0  0
 27 26  2  0  0  0  0
 28 29  2  0  0  0  0
 28 27  1  0  0  0  0
 29 30  1  0  0  0  0
 30 34  1  0  0  0  0
 30 31  2  0  0  0  0
 33 27  1  0  0  0  0
M  END
>  <minimizedAffinity>
-5.81284904

$$$$

 OpenBabel03272508133D

 34 36  0  0  0  0  0  0  0  0999 V2000
   38.2690   22.0000   33.6730 Cl  0  0  0  0  0  0  0  0  0  0  0  0
   37.2170   23.0300   32.6870 C   0  0  0  0  0  0  0  0  0  0  0  0
   37.3440   24.4130   32.5930 C   0  0  0  0  0  0  0  0  0  0  0  0
   36.4480   25.0820   31.7820 C   0  0  0  0  0  0  0  0  0  0  0  0
   35.4650   24.4140   31.0920 C   0  0  0  0  0  0  0  0  0  0  0  0
   35.3250   23.0600   31.1720 C   0  0  0  0  0  0  0  0  0  0  0  0
   36.2050   22.3640   31.9740 C   0  0  0  0  0  0  0  0  0  0  0  0
   36.6230   26.1640   31.7680 H   0  0  0  0  0  0  0  0  0  0  0  0
   34.8080   25.0210   30.4820 H   0  0  0  0  0  0  0  0  0  0  0  0
   34.5630   22.5200   30.6420 H   0  0  0  0  0  0  0  0  0  0  0  0
   35.1710   20.8750   34.1690 F   0  0  0  0  0  0  0  0  0  0  0  0
   35.5570   20.1590   33.1020 C   0  0  0  0  0  0  0  0  0  0  0  0
   36.0530   20.9120   32.0590 C   0  0  0  0  0  0  0  0  0  0  0  0
   36.4900   20.2810   30.8910 C   0  0  0  0  0  0  0  0  0  0  0  0
   36.8960   20.7680   30.0070 H   0  0  0  0  0  0  0  0  0  0  0  0
   36.4300   18.9010   30.7660 C   0  0  0  0  0  0  0  0  0  0  0  0
   36.7640   18.3750   29.8660 H   0  0  0  0  0  0  0  0  0  0  0  0
   35.9290   18.1360   31.8240 C   0  0  0  0  0  3  0  0  0  0  0  0
   35.4980   18.7870   32.9810 C   0  0  0  0  0  3  0  0  0  0  0  0
   38.3670   24.8940   33.3400 O   0  0  0  0  0  0  0  0  0  0  0  0
   38.8960   25.8330   35.6850 O   0  0  0  0  0  0  0  0  0  0  0  0
   38.4020   26.2430   34.3560 P   0  0  1  0  0  0  0  0  0  0  0  0
   39.5260   27.3180   33.6280 O   0  0  0  0  0  0  0  0  0  0  0  0
   40.4400   26.9640   33.7100 H   0  0  0  0  0  0  0  0  0  0  0  0
   36.8660   26.9730   34.3590 O   0  0  0  0  0  0  0  0  0  0  0  0
   35.4920   30.2990   33.5260 C   0  0  0  0  0  0  0  0  0  0  0  0
   35.7510   29.1850   34.3290 C   0  0  0  0  0  0  0  0  0  0  0  0
   36.4910   28.1400   33.7870 C   0  0  0  0  0  0  0  0  0  0  0  0
   36.9270   28.2600   32.4940 N   0  0  0  0  0  0  0  0  0  0  0  0
   36.6520   29.3600   31.7540 C   0  0  0  0  0  0  0  0  0  0  0  0
   35.9390   30.3700   32.2700 N   0  0  0  0  0  0  0  0  0  0  0  0
   34.9000   31.0700   34.0450 H   0  0  0  0  0  0  0  0  0  0  0  0
   35.4440   29.0180   35.3470 H   0  0  0  0  0  0  0  0  0  0  0  0
   36.9890   29.4700   30.7300 H   0  0  0  0  0  0  0  0  0  0  0  0
  2  1  1  0  0  0  0
  3  2  1  0  0  0  0
  3 20  1  0  0  0  0
  4  3  2  0  0  0  0
  5  6  2  0  0  0  0
  5  4  1  0  0  0  0
  6  7  1  0  0  0  0
  7 13  1  0  0  0  0
  7  2  2  0  0  0  0
  8  4  1  0  0  0  0
  9  5  1  0  0  0  0
 10  6  1  0  0  0  0
 12 11  1  0  0  0  0
 13 12  2  0  0  0  0
 14 13  1  0  0  0  0
 15 14  1  0  0  0  0
 16 14  2  0  0  0  0
 16 18  1  0  0  0  0
 17 16  1  0  0  0  0
 18 19  2  0  0  0  0
 19 12  1  0  0  0  0
 20 22  1  0  0  0  0
 22 25  1  0  0  0  0
 22 21  2  1  0  0  0
 23 24  1  0  0  0  0
 23 22  1  0  0  0  0
 26 32  1  0  0  0  0
 26 27  1  0  0  0  0
 27 33  1  0  0  0  0
 28 27  2  0  0  0  0
 28 25  1  0  0  0  0
 29 28  1  0  0  0  0
 30 31  1  0  0  0  0
 30 29  2  0  0  0  0
 31 26  2  0  0  0  0
 34 30  1  0  0  0  0
M  END
>  <minimizedAffinity>
-5.69554853

$$$$

 OpenBabel03272508133D

 34 36  0  0  0  0  0  0  0  0999 V2000
   36.8160   25.1560   32.3960 Cl  0  0  0  0  0  0  0  0  0  0  0  0
   37.4470   25.8310   33.9080 C   0  0  0  0  0  0  0  0  0  0  0  0
   37.8980   25.0630   34.9770 C   0  0  0  0  0  0  0  0  0  0  0  0
   38.3640   25.7330   36.0920 C   0  0  0  0  0  0  0  0  0  0  0  0
   38.3810   27.1060   36.1500 C   0  0  0  0  0  0  0  0  0  0  0  0
   37.9420   27.8750   35.1130 C   0  0  0  0  0  0  0  0  0  0  0  0
   37.4720   27.2350   33.9860 C   0  0  0  0  0  0  0  0  0  0  0  0
   38.6980   25.0510   36.8810 H   0  0  0  0  0  0  0  0  0  0  0  0
   38.7620   27.5440   37.0640 H   0  0  0  0  0  0  0  0  0  0  0  0
   37.9470   28.9490   35.1400 H   0  0  0  0  0  0  0  0  0  0  0  0
   38.7930   27.6850   31.5050 F   0  0  0  0  0  0  0  0  0  0  0  0
   37.6110   28.2990   31.6610 C   0  0  0  0  0  0  0  0  0  0  0  0
   37.0010   28.0600   32.8750 C   0  0  0  0  0  0  0  0  0  0  0  0
   35.7630   28.6440   33.1580 C   0  0  0  0  0  0  0  0  0  0  0  0
   35.1880   28.5270   34.0740 H   0  0  0  0  0  0  0  0  0  0  0  0
   35.1380   29.4660   32.2320 C   0  0  0  0  0  0  0  0  0  0  0  0
   34.1700   29.9400   32.4220 H   0  0  0  0  0  0  0  0  0  0  0  0
   35.7570   29.7110   31.0020 C   0  0  0  0  0  3  0  0  0  0  0  0
   36.9930   29.1170   30.7390 C   0  0  0  0  0  3  0  0  0  0  0  0
   37.8070   23.7320   34.7380 O   0  0  0  0  0  0  0  0  0  0  0  0
   40.3390   23.2330   34.7640 O   0  0  0  0  0  0  0  0  0  0  0  0
   39.0240   22.5620   34.7450 P   0  0  1  0  0  0  0  0  0  0  0  0
   38.7970   21.6930   36.2090 O   0  0  0  0  0  0  0  0  0  0  0  0
   39.0360   22.2560   36.9800 H   0  0  0  0  0  0  0  0  0  0  0  0
   38.7820   21.5040   33.4350 O   0  0  0  0  0  0  0  0  0  0  0  0
   36.0490   20.7530   31.0660 C   0  0  0  0  0  0  0  0  0  0  0  0
   37.3430   21.1070   31.4580 C   0  0  0  0  0  0  0  0  0  0  0  0
   37.6210   21.1870   32.8180 C   0  0  0  0  0  0  0  0  0  0  0  0
   36.6090   20.9140   33.7000 N   0  0  0  0  0  0  0  0  0  0  0  0
   35.3700   20.5750   33.2740 C   0  0  0  0  0  0  0  0  0  0  0  0
   35.0960   20.4970   31.9650 N   0  0  0  0  0  0  0  0  0  0  0  0
   35.9310   20.7180   29.9710 H   0  0  0  0  0  0  0  0  0  0  0  0
   38.1860   21.3340   30.8280 H   0  0  0  0  0  0  0  0  0  0  0  0
   34.5600   20.3560   33.9590 H   0  0  0  0  0  0  0  0  0  0  0  0
  1  2  1  0  0  0  0
  2  7  2  0  0  0  0
  2  3  1  0  0  0  0
  3  4  2  0  0  0  0
  4  5  1  0  0  0  0
  4  8  1  0  0  0  0
  5  9  1  0  0  0  0
  6 10  1  0  0  0  0
  6  5  2  0  0  0  0
  7  6  1  0  0  0  0
 11 12  1  0  0  0  0
 12 13  1  0  0  0  0
 13 14  2  0  0  0  0
 13  7  1  0  0  0  0
 14 15  1  0  0  0  0
 16 17  1  0  0  0  0
 16 14  1  0  0  0  0
 18 16  2  0  0  0  0
 19 18  1  0  0  0  0
 19 12  2  0  0  0  0
 20 22  1  0  0  0  0
 20  3  1  0  0  0  0
 22 21  2  6  0  0  0
 22 23  1  0  0  0  0
 23 24  1  0  0  0  0
 25 22  1  0  0  0  0
 26 27  2  0  0  0  0
 26 31  1  0  0  0  0
 27 28  1  0  0  0  0
 28 25  1  0  0  0  0
 28 29  2  0  0  0  0
 30 29  1  0  0  0  0
 30 34  1  0  0  0  0
 31 30  2  0  0  0  0
 32 26  1  0  0  0  0
 33 27  1  0  0  0  0
M  END
>  <minimizedAffinity>
-5.65168762

$$$$

 OpenBabel03272508133D

 34 36  0  0  0  0  0  0  0  0999 V2000
   37.8060   22.8820   34.3890 Cl  0  0  0  0  0  0  0  0  0  0  0  0
   38.4980   24.5070   34.2350 C   0  0  0  0  0  0  0  0  0  0  0  0
   37.9140   25.5360   33.5030 C   0  0  0  0  0  0  0  0  0  0  0  0
   38.5720   26.7510   33.4750 C   0  0  0  0  0  0  0  0  0  0  0  0
   39.7580   26.9420   34.1430 C   0  0  0  0  0  0  0  0  0  0  0  0
   40.3440   25.9440   34.8640 C   0  0  0  0  0  0  0  0  0  0  0  0
   39.7120   24.7200   34.9110 C   0  0  0  0  0  0  0  0  0  0  0  0
   38.0410   27.5010   32.8780 H   0  0  0  0  0  0  0  0  0  0  0  0
   40.2010   27.9260   34.0640 H   0  0  0  0  0  0  0  0  0  0  0  0
   41.2710   26.0740   35.3920 H   0  0  0  0  0  0  0  0  0  0  0  0
   38.9470   23.7920   37.4910 F   0  0  0  0  0  0  0  0  0  0  0  0
   39.9990   23.1760   36.9320 C   0  0  0  0  0  0  0  0  0  0  0  0
   40.3420   23.6520   35.6840 C   0  0  0  0  0  0  0  0  0  0  0  0
   41.4220   23.0900   34.9980 C   0  0  0  0  0  0  0  0  0  0  0  0
   41.7830   23.3790   34.0130 H   0  0  0  0  0  0  0  0  0  0  0  0
   42.1580   22.0560   35.5580 C   0  0  0  0  0  0  0  0  0  0  0  0
   43.0100   21.5940   35.0490 H   0  0  0  0  0  0  0  0  0  0  0  0
   41.8130   21.5740   36.8250 C   0  0  0  0  0  3  0  0  0  0  0  0
   40.7300   22.1490   37.4920 C   0  0  0  0  0  3  0  0  0  0  0  0
   36.7500   25.1650   32.9160 O   0  0  0  0  0  0  0  0  0  0  0  0
   35.6420   26.2650   30.8610 O   0  0  0  0  0  0  0  0  0  0  0  0
   36.3740   25.0510   31.2730 P   0  0  1  0  0  0  0  0  0  0  0  0
   37.8920   24.9910   30.4730 O   0  0  0  0  0  0  0  0  0  0  0  0
   38.3420   25.8640   30.5300 H   0  0  0  0  0  0  0  0  0  0  0  0
   35.5480   23.5910   30.9960 O   0  0  0  0  0  0  0  0  0  0  0  0
   35.6520   20.2620   32.5940 C   0  0  0  0  0  0  0  0  0  0  0  0
   35.1080   21.5060   32.2600 C   0  0  0  0  0  0  0  0  0  0  0  0
   35.8560   22.3540   31.4490 C   0  0  0  0  0  0  0  0  0  0  0  0
   37.0840   21.9240   31.0230 N   0  0  0  0  0  0  0  0  0  0  0  0
   37.5690   20.7090   31.3730 C   0  0  0  0  0  0  0  0  0  0  0  0
   36.8550   19.8880   32.1530 N   0  0  0  0  0  0  0  0  0  0  0  0
   34.9850   19.6660   33.2380 H   0  0  0  0  0  0  0  0  0  0  0  0
   34.1560   21.9120   32.5540 H   0  0  0  0  0  0  0  0  0  0  0  0
   38.5380   20.3550   31.0440 H   0  0  0  0  0  0  0  0  0  0  0  0
  2  1  1  0  0  0  0
  2  7  1  0  0  0  0
  3  2  2  0  0  0  0
  4  3  1  0  0  0  0
  4  5  2  0  0  0  0
  5  6  1  0  0  0  0
  6  7  2  0  0  0  0
  6 10  1  0  0  0  0
  7 13  1  0  0  0  0
  8  4  1  0  0  0  0
  9  5  1  0  0  0  0
 12 11  1  0  0  0  0
 12 19  1  0  0  0  0
 13 12  2  0  0  0  0
 14 16  2  0  0  0  0
 14 13  1  0  0  0  0
 15 14  1  0  0  0  0
 16 18  1  0  0  0  0
 17 16  1  0  0  0  0
 18 19  2  0  0  0  0
 20  3  1  0  0  0  0
 22 21  2  6  0  0  0
 22 20  1  0  0  0  0
 23 24  1  0  0  0  0
 23 22  1  0  0  0  0
 25 22  1  0  0  0  0
 25 28  1  0  0  0  0
 26 32  1  0  0  0  0
 27 33  1  0  0  0  0
 27 26  1  0  0  0  0
 28 27  2  0  0  0  0
 29 30  2  0  0  0  0
 29 28  1  0  0  0  0
 30 31  1  0  0  0  0
 31 26  2  0  0  0  0
 34 30  1  0  0  0  0
M  END
>  <minimizedAffinity>
-5.64362717

$$$$

 OpenBabel03272508133D

 34 36  0  0  0  0  0  0  0  0999 V2000
   38.1800   23.0490   33.7370 Cl  0  0  0  0  0  0  0  0  0  0  0  0
   38.1370   24.7380   34.2720 C   0  0  0  0  0  0  0  0  0  0  0  0
   37.3420   25.7200   33.6900 C   0  0  0  0  0  0  0  0  0  0  0  0
   37.4160   26.9950   34.2180 C   0  0  0  0  0  0  0  0  0  0  0  0
   38.2430   27.2890   35.2760 C   0  0  0  0  0  0  0  0  0  0  0  0
   39.0290   26.3390   35.8580 C   0  0  0  0  0  0  0  0  0  0  0  0
   38.9770   25.0570   35.3530 C   0  0  0  0  0  0  0  0  0  0  0  0
   36.7570   27.7010   33.7000 H   0  0  0  0  0  0  0  0  0  0  0  0
   38.2350   28.3140   35.6220 H   0  0  0  0  0  0  0  0  0  0  0  0
   39.6820   26.5490   36.6840 H   0  0  0  0  0  0  0  0  0  0  0  0
   38.2470   23.2730   37.4480 F   0  0  0  0  0  0  0  0  0  0  0  0
   39.5020   23.1590   36.9900 C   0  0  0  0  0  0  0  0  0  0  0  0
   39.8210   24.0390   35.9780 C   0  0  0  0  0  0  0  0  0  0  0  0
   41.1010   24.0190   35.4160 C   0  0  0  0  0  0  0  0  0  0  0  0
   41.4660   24.6600   34.6160 H   0  0  0  0  0  0  0  0  0  0  0  0
   42.0590   23.1230   35.8660 C   0  0  0  0  0  0  0  0  0  0  0  0
   43.0710   23.0810   35.4500 H   0  0  0  0  0  0  0  0  0  0  0  0
   41.7370   22.2320   36.8960 C   0  0  0  0  0  3  0  0  0  0  0  0
   40.4530   22.2680   37.4410 C   0  0  0  0  0  3  0  0  0  0  0  0
   36.5950   25.2470   32.6630 O   0  0  0  0  0  0  0  0  0  0  0  0
   37.3430   24.0690   30.4920 O   0  0  0  0  0  0  0  0  0  0  0  0
   36.8680   25.3700   31.0010 P   0  0  1  0  0  0  0  0  0  0  0  0
   35.3310   25.7290   30.3250 O   0  0  0  0  0  0  0  0  0  0  0  0
   34.7390   24.9460   30.3870 H   0  0  0  0  0  0  0  0  0  0  0  0
   37.9160   26.6770   30.7090 O   0  0  0  0  0  0  0  0  0  0  0  0
   37.7030   30.0590   29.2380 C   0  0  0  0  0  0  0  0  0  0  0  0
   38.2290   28.7790   29.4360 C   0  0  0  0  0  0  0  0  0  0  0  0
   37.5980   27.9420   30.3500 C   0  0  0  0  0  0  0  0  0  0  0  0
   36.4950   28.4180   31.0070 N   0  0  0  0  0  0  0  0  0  0  0  0
   36.0210   29.6660   30.7820 C   0  0  0  0  0  0  0  0  0  0  0  0
   36.6240   30.4780   29.9030 N   0  0  0  0  0  0  0  0  0  0  0  0
   38.2720   30.6430   28.4960 H   0  0  0  0  0  0  0  0  0  0  0  0
   39.0870   28.3370   28.9600 H   0  0  0  0  0  0  0  0  0  0  0  0
   35.1490   30.0570   31.2930 H   0  0  0  0  0  0  0  0  0  0  0  0
  1  2  1  0  0  0  0
  2  7  1  0  0  0  0
  3  4  1  0  0  0  0
  3  2  2  0  0  0  0
  4  5  2  0  0  0  0
  5  9  1  0  0  0  0
  5  6  1  0  0  0  0
  6 10  1  0  0  0  0
  7  6  2  0  0  0  0
  7 13  1  0  0  0  0
  8  4  1  0  0  0  0
 12 19  1  0  0  0  0
 12 11  1  0  0  0  0
 13 12  2  0  0  0  0
 14 16  2  0  0  0  0
 14 13  1  0  0  0  0
 15 14  1  0  0  0  0
 16 18  1  0  0  0  0
 17 16  1  0  0  0  0
 18 19  2  0  0  0  0
 20  3  1  0  0  0  0
 22 21  2  6  0  0  0
 22 20  1  0  0  0  0
 23 24  1  0  0  0  0
 23 22  1  0  0  0  0
 25 22  1  0  0  0  0
 26 27  2  0  0  0  0
 26 31  1  0  0  0  0
 27 28  1  0  0  0  0
 28 25  1  0  0  0  0
 28 29  2  0  0  0  0
 30 29  1  0  0  0  0
 30 34  1  0  0  0  0
 31 30  2  0  0  0  0
 32 26  1  0  0  0  0
 33 27  1  0  0  0  0
M  END
>  <minimizedAffinity>
-5.62451172

$$$$

 OpenBabel03272508133D

 34 36  0  0  0  0  0  0  0  0999 V2000
   38.2490   27.0690   35.8740 Cl  0  0  0  0  0  0  0  0  0  0  0  0
   37.6890   26.2470   34.4070 C   0  0  0  0  0  0  0  0  0  0  0  0
   36.9580   26.8660   33.3970 C   0  0  0  0  0  0  0  0  0  0  0  0
   36.5920   26.0950   32.3110 C   0  0  0  0  0  0  0  0  0  0  0  0
   36.9320   24.7650   32.2260 C   0  0  0  0  0  0  0  0  0  0  0  0
   37.6470   24.1430   33.2060 C   0  0  0  0  0  0  0  0  0  0  0  0
   38.0270   24.8870   34.3030 C   0  0  0  0  0  0  0  0  0  0  0  0
   36.0220   26.6630   31.5680 H   0  0  0  0  0  0  0  0  0  0  0  0
   36.6010   24.2410   31.3390 H   0  0  0  0  0  0  0  0  0  0  0  0
   37.9210   23.1050   33.1580 H   0  0  0  0  0  0  0  0  0  0  0  0
   40.8250   24.3600   34.3130 F   0  0  0  0  0  0  0  0  0  0  0  0
   40.1450   23.9470   35.3930 C   0  0  0  0  0  0  0  0  0  0  0  0
   38.7930   24.2180   35.3530 C   0  0  0  0  0  0  0  0  0  0  0  0
   37.9750   23.8370   36.4210 C   0  0  0  0  0  0  0  0  0  0  0  0
   36.9020   23.9970   36.5020 H   0  0  0  0  0  0  0  0  0  0  0  0
   38.5070   23.1860   37.5240 C   0  0  0  0  0  0  0  0  0  0  0  0
   37.8960   22.8740   38.3770 H   0  0  0  0  0  0  0  0  0  0  0  0
   39.8780   22.9090   37.5650 C   0  0  0  0  0  3  0  0  0  0  0  0
   40.6760   23.3000   36.4890 C   0  0  0  0  0  3  0  0  0  0  0  0
   36.7190   28.1750   33.6540 O   0  0  0  0  0  0  0  0  0  0  0  0
   36.5400   29.3640   31.3690 O   0  0  0  0  0  0  0  0  0  0  0  0
   35.9130   29.3170   32.7050 P   0  0  1  0  0  0  0  0  0  0  0  0
   34.3060   28.7260   32.5700 O   0  0  0  0  0  0  0  0  0  0  0  0
   34.2850   27.9230   32.0030 H   0  0  0  0  0  0  0  0  0  0  0  0
   35.8850   30.8020   33.5330 O   0  0  0  0  0  0  0  0  0  0  0  0
   34.9120   31.9770   36.8970 C   0  0  0  0  0  0  0  0  0  0  0  0
   35.7570   31.7950   35.7990 C   0  0  0  0  0  0  0  0  0  0  0  0
   35.2660   31.1010   34.6980 C   0  0  0  0  0  0  0  0  0  0  0  0
   33.9800   30.6330   34.7510 N   0  0  0  0  0  0  0  0  0  0  0  0
   33.1980   30.8330   35.8370 C   0  0  0  0  0  0  0  0  0  0  0  0
   33.6650   31.5010   36.9010 N   0  0  0  0  0  0  0  0  0  0  0  0
   35.3920   32.5370   37.7160 H   0  0  0  0  0  0  0  0  0  0  0  0
   36.7730   32.1320   35.6840 H   0  0  0  0  0  0  0  0  0  0  0  0
   32.1790   30.4690   35.8940 H   0  0  0  0  0  0  0  0  0  0  0  0
  2  1  1  0  0  0  0
  3 20  1  0  0  0  0
  3  2  2  0  0  0  0
  4  3  1  0  0  0  0
  5  4  2  0  0  0  0
  5  6  1  0  0  0  0
  6  7  2  0  0  0  0
  7  2  1  0  0  0  0
  7 13  1  0  0  0  0
  8  4  1  0  0  0  0
  9  5  1  0  0  0  0
 10  6  1  0  0  0  0
 11 12  1  0  0  0  0
 12 19  1  0  0  0  0
 13 12  2  0  0  0  0
 13 14  1  0  0  0  0
 14 15  1  0  0  0  0
 14 16  2  0  0  0  0
 16 18  1  0  0  0  0
 16 17  1  0  0  0  0
 19 18  2  0  0  0  0
 22 21  2  6  0  0  0
 22 25  1  0  0  0  0
 22 20  1  0  0  0  0
 23 22  1  0  0  0  0
 24 23  1  0  0  0  0
 25 28  1  0  0  0  0
 26 31  1  0  0  0  0
 26 32  1  0  0  0  0
 27 26  2  0  0  0  0
 28 29  2  0  0  0  0
 28 27  1  0  0  0  0
 29 30  1  0  0  0  0
 30 34  1  0  0  0  0
 30 31  2  0  0  0  0
 33 27  1  0  0  0  0
M  END
>  <minimizedAffinity>
-5.59101629

$$$$
