
 OpenBabel03272504533D

 25 27  0  0  0  0  0  0  0  0999 V2000
   36.9420   31.3170   49.3040 C   0  0  0  0  0  0  0  0  0  0  0  0
   37.1840   32.5160   49.9990 C   0  0  0  0  0  0  0  0  0  0  0  0
   38.1000   33.3900   49.4180 C   0  0  0  0  0  0  0  0  0  0  0  0
   38.7010   33.0480   48.2360 N   0  0  0  0  0  0  0  0  0  0  0  0
   38.4370   31.8770   47.5980 C   0  0  0  0  0  0  0  0  0  0  0  0
   37.5460   31.0020   48.1420 N   0  0  0  0  0  0  0  0  0  0  0  0
   36.6730   32.7190   50.9260 H   0  0  0  0  0  0  0  0  0  0  0  0
   38.3250   34.3280   49.9090 H   0  0  0  0  0  0  0  0  0  0  0  0
   40.3560   33.6470   46.4890 F   0  0  0  0  0  0  0  0  0  0  0  0
   40.0450   32.4910   45.8520 C   0  0  0  0  0  0  0  0  0  0  0  0
   39.1210   31.5920   46.3420 C   0  0  0  0  0  0  0  0  0  0  0  0
   38.7940   30.4120   45.7090 C   0  0  0  0  0  0  0  0  0  0  0  0
   38.0680   29.6990   46.0890 H   0  0  0  0  0  0  0  0  0  0  0  0
   39.4290   30.1170   44.5150 C   0  0  0  0  0  0  0  0  0  0  0  0
   39.1970   29.1960   43.9870 H   0  0  0  0  0  0  0  0  0  0  0  0
   40.3550   31.0130   44.0190 C   0  0  0  0  0  0  0  0  0  0  0  0
   40.6940   32.2090   44.6510 C   0  0  0  0  0  0  0  0  0  0  0  0
   35.9330   30.3770   49.9050 C   0  0  0  0  0  0  0  0  0  0  0  0
   35.9930   28.9390   49.6570 C   0  0  0  0  0  0  0  0  0  0  0  0
   36.5200   29.4650   50.9670 C   0  0  0  0  0  0  0  0  0  0  0  0
   35.0070   30.8680   50.3010 H   0  0  0  0  0  0  0  0  0  0  0  0
   35.0520   28.3430   49.6620 H   0  0  0  0  0  0  0  0  0  0  0  0
   36.8060   28.5800   48.9710 H   0  0  0  0  0  0  0  0  0  0  0  0
   37.5880   29.5260   51.1820 H   0  0  0  0  0  0  0  0  0  0  0  0
   35.9140   29.1780   51.8490 H   0  0  0  0  0  0  0  0  0  0  0  0
  1 18  1  0  0  0  0
  1  2  1  0  0  0  0
  2  7  1  0  0  0  0
  3  8  1  0  0  0  0
  3  2  2  0  0  0  0
  4  3  1  0  0  0  0
  5  6  1  0  0  0  0
  5  4  2  0  0  0  0
  6  1  2  0  0  0  0
 10 11  1  0  0  0  0
 10  9  1  0  0  0  0
 11  5  1  0  0  0  0
 12 13  1  0  0  0  0
 12 11  2  0  0  0  0
 14 12  1  0  0  0  0
 15 14  1  0  0  0  0
 16 14  2  0  0  0  0
 16 17  1  0  0  0  0
 17 10  2  0  0  0  0
 18 21  1  0  0  0  0
 18 20  1  0  0  0  0
 19 22  1  0  0  0  0
 19 18  1  0  0  0  0
 19 20  1  0  0  0  0
 20 24  1  0  0  0  0
 20 25  1  0  0  0  0
 23 19  1  0  0  0  0
M  END
>  <minimizedAffinity>
-6.27351332

>  <minimizedRMSD>
0.936370015

$$$$
