
 OpenBabel03272507063D

 31 34  0  0  0  0  0  0  0  0999 V2000
   36.2500   29.6510   31.9440 C   0  0  0  0  0  0  0  0  0  0  0  0
   35.5470   30.4400   32.8770 C   0  0  0  0  0  0  0  0  0  0  0  0
   35.4100   29.9220   34.1740 C   0  0  0  0  0  0  0  0  0  0  0  0
   35.9590   28.7180   34.4270 N   0  0  0  0  0  0  0  0  0  0  0  0
   36.6220   27.9860   33.5290 C   0  0  0  0  0  0  0  0  0  0  0  0
   36.7800   28.4420   32.2690 N   0  0  0  0  0  0  0  0  0  0  0  0
   36.3960   29.9890   30.9200 H   0  0  0  0  0  0  0  0  0  0  0  0
   35.1400   31.3860   32.5990 H   0  0  0  0  0  0  0  0  0  0  0  0
   37.4580   25.7530   32.9230 C   0  0  0  0  0  0  0  0  0  0  0  0
   37.1720   26.7010   33.9130 C   0  0  0  0  0  0  0  0  0  0  0  0
   37.4110   26.4150   35.2390 C   0  0  0  0  0  0  0  0  0  0  0  0
   37.9350   25.1950   35.6180 C   0  0  0  0  0  0  0  0  0  0  0  0
   38.2600   24.6670   36.8160 N   0  0  0  0  0  0  0  0  0  0  0  0
   38.7290   23.4300   36.5330 C   0  0  0  0  0  0  0  0  0  0  0  0
   38.6960   23.2020   35.2090 N   0  0  0  0  0  0  0  0  0  0  0  0
   38.2000   24.2980   34.6090 C   0  0  0  0  0  0  0  0  0  0  0  0
   37.9860   24.5200   33.2830 C   0  0  0  0  0  0  0  0  0  0  0  0
   37.2620   26.0050   31.8980 H   0  0  0  0  0  0  0  0  0  0  0  0
   37.2050   27.1190   36.0470 H   0  0  0  0  0  0  0  0  0  0  0  0
   38.1710   25.1110   37.7630 H   0  0  0  0  0  0  0  0  0  0  0  0
   39.0910   22.6890   37.2320 H   0  0  0  0  0  0  0  0  0  0  0  0
   38.2090   23.7830   32.5080 H   0  0  0  0  0  0  0  0  0  0  0  0
   36.7130   31.7680   35.8950 F   0  0  0  0  0  0  0  0  0  0  0  0
   35.4050   31.5310   36.0000 C   0  0  0  0  0  0  0  0  0  0  0  0
   34.7070   30.6510   35.2020 C   0  0  0  0  0  0  0  0  0  0  0  0
   33.3760   30.5560   35.4750 C   0  0  0  0  0  0  0  0  0  0  0  0
   32.7650   29.8850   34.8870 H   0  0  0  0  0  0  0  0  0  0  0  0
   32.6940   31.2440   36.4510 C   0  0  0  0  0  0  0  0  0  0  0  0
   31.6320   31.1200   36.6130 H   0  0  0  0  0  0  0  0  0  0  0  0
   33.4130   32.1200   37.2390 C   0  0  0  0  0  3  0  0  0  0  0  0
   34.7740   32.2620   37.0100 C   0  0  0  0  0  3  0  0  0  0  0  0
  1  6  2  0  0  0  0
  1  2  1  0  0  0  0
  2  3  2  0  0  0  0
  3  4  1  0  0  0  0
  3 25  1  0  0  0  0
  5 10  1  0  0  0  0
  5  4  2  0  0  0  0
  6  5  1  0  0  0  0
  7  1  1  0  0  0  0
  8  2  1  0  0  0  0
  9 17  2  0  0  0  0
  9 10  1  0  0  0  0
 10 11  2  0  0  0  0
 11 12  1  0  0  0  0
 11 19  1  0  0  0  0
 12 13  1  0  0  0  0
 13 20  1  0  0  0  0
 14 13  1  0  0  0  0
 14 21  1  0  0  0  0
 15 14  2  0  0  0  0
 16 15  1  0  0  0  0
 16 12  2  0  0  0  0
 17 16  1  0  0  0  0
 18  9  1  0  0  0  0
 22 17  1  0  0  0  0
 23 24  1  0  0  0  0
 24 31  1  0  0  0  0
 25 26  1  0  0  0  0
 25 24  2  0  0  0  0
 26 28  2  0  0  0  0
 27 26  1  0  0  0  0
 28 29  1  0  0  0  0
 28 30  1  0  0  0  0
 31 30  2  0  0  0  0
M  END
>  <minimizedAffinity>
-6.30900288

$$$$

 OpenBabel03272507063D

 31 34  0  0  0  0  0  0  0  0999 V2000
   36.5270   28.7690   31.7880 C   0  0  0  0  0  0  0  0  0  0  0  0
   35.9180   29.7360   32.6140 C   0  0  0  0  0  0  0  0  0  0  0  0
   35.8320   29.4410   33.9830 C   0  0  0  0  0  0  0  0  0  0  0  0
   36.3360   28.2630   34.4020 N   0  0  0  0  0  0  0  0  0  0  0  0
   36.9090   27.3610   33.6030 C   0  0  0  0  0  0  0  0  0  0  0  0
   37.0150   27.5990   32.2790 N   0  0  0  0  0  0  0  0  0  0  0  0
   36.6290   28.9290   30.7170 H   0  0  0  0  0  0  0  0  0  0  0  0
   35.5420   30.6470   32.2050 H   0  0  0  0  0  0  0  0  0  0  0  0
   37.7810   25.0790   33.3050 C   0  0  0  0  0  0  0  0  0  0  0  0
   37.4180   26.1240   34.1640 C   0  0  0  0  0  0  0  0  0  0  0  0
   37.5440   25.9790   35.5270 C   0  0  0  0  0  0  0  0  0  0  0  0
   38.0280   24.8070   36.0740 C   0  0  0  0  0  0  0  0  0  0  0  0
   38.2470   24.4070   37.3440 N   0  0  0  0  0  0  0  0  0  0  0  0
   38.7320   23.1490   37.2310 C   0  0  0  0  0  0  0  0  0  0  0  0
   38.8080   22.7840   35.9400 N   0  0  0  0  0  0  0  0  0  0  0  0
   38.3710   23.8100   35.1900 C   0  0  0  0  0  0  0  0  0  0  0  0
   38.2690   23.8920   33.8350 C   0  0  0  0  0  0  0  0  0  0  0  0
   37.6720   25.2220   32.2470 H   0  0  0  0  0  0  0  0  0  0  0  0
   37.2750   26.7630   36.2380 H   0  0  0  0  0  0  0  0  0  0  0  0
   38.0820   24.9470   38.2290 H   0  0  0  0  0  0  0  0  0  0  0  0
   39.0300   22.4860   38.0320 H   0  0  0  0  0  0  0  0  0  0  0  0
   38.5520   23.0790   33.1630 H   0  0  0  0  0  0  0  0  0  0  0  0
   33.0330   29.5010   34.4630 F   0  0  0  0  0  0  0  0  0  0  0  0
   33.8600   30.3360   35.0940 C   0  0  0  0  0  0  0  0  0  0  0  0
   35.2260   30.3640   34.9120 C   0  0  0  0  0  0  0  0  0  0  0  0
   35.8880   31.2950   35.6530 C   0  0  0  0  0  0  0  0  0  0  0  0
   36.9620   31.3730   35.5620 H   0  0  0  0  0  0  0  0  0  0  0  0
   35.3230   32.1810   36.5410 C   0  0  0  0  0  0  0  0  0  0  0  0
   35.9110   32.8960   37.1000 H   0  0  0  0  0  0  0  0  0  0  0  0
   33.9530   32.1350   36.7080 C   0  0  0  0  0  3  0  0  0  0  0  0
   33.2230   31.2080   35.9800 C   0  0  0  0  0  3  0  0  0  0  0  0
  1  6  2  0  0  0  0
  1  2  1  0  0  0  0
  2  3  2  0  0  0  0
  3  4  1  0  0  0  0
  3 25  1  0  0  0  0
  5 10  1  0  0  0  0
  5  4  2  0  0  0  0
  6  5  1  0  0  0  0
  7  1  1  0  0  0  0
  8  2  1  0  0  0  0
  9 17  2  0  0  0  0
  9 10  1  0  0  0  0
 10 11  2  0  0  0  0
 11 12  1  0  0  0  0
 11 19  1  0  0  0  0
 12 13  1  0  0  0  0
 13 20  1  0  0  0  0
 14 13  1  0  0  0  0
 14 21  1  0  0  0  0
 15 14  2  0  0  0  0
 16 15  1  0  0  0  0
 16 12  2  0  0  0  0
 17 16  1  0  0  0  0
 18  9  1  0  0  0  0
 22 17  1  0  0  0  0
 23 24  1  0  0  0  0
 24 31  1  0  0  0  0
 25 24  2  0  0  0  0
 25 26  1  0  0  0  0
 26 28  2  0  0  0  0
 27 26  1  0  0  0  0
 28 30  1  0  0  0  0
 28 29  1  0  0  0  0
 31 30  2  0  0  0  0
M  END
>  <minimizedAffinity>
-6.18995476

$$$$

 OpenBabel03272507063D

 31 34  0  0  0  0  0  0  0  0999 V2000
   36.2590   29.3710   31.9950 C   0  0  0  0  0  0  0  0  0  0  0  0
   35.5330   30.2140   32.8610 C   0  0  0  0  0  0  0  0  0  0  0  0
   35.4420   29.8190   34.2050 C   0  0  0  0  0  0  0  0  0  0  0  0
   36.0510   28.6720   34.5630 N   0  0  0  0  0  0  0  0  0  0  0  0
   36.7340   27.8880   33.7270 C   0  0  0  0  0  0  0  0  0  0  0  0
   36.8500   28.2240   32.4250 N   0  0  0  0  0  0  0  0  0  0  0  0
   36.3720   29.6130   30.9410 H   0  0  0  0  0  0  0  0  0  0  0  0
   35.0780   31.1080   32.5010 H   0  0  0  0  0  0  0  0  0  0  0  0
   37.8570   26.6430   35.5280 C   0  0  0  0  0  0  0  0  0  0  0  0
   37.3510   26.6730   34.2230 C   0  0  0  0  0  0  0  0  0  0  0  0
   37.4370   25.5580   33.4180 C   0  0  0  0  0  0  0  0  0  0  0  0
   38.0220   24.3950   33.8780 C   0  0  0  0  0  0  0  0  0  0  0  0
   38.2330   23.1880   33.3140 N   0  0  0  0  0  0  0  0  0  0  0  0
   38.8530   22.4620   34.2730 C   0  0  0  0  0  0  0  0  0  0  0  0
   39.0190   23.1940   35.3880 N   0  0  0  0  0  0  0  0  0  0  0  0
   38.5040   24.4150   35.1660 C   0  0  0  0  0  0  0  0  0  0  0  0
   38.4500   25.4830   36.0090 C   0  0  0  0  0  0  0  0  0  0  0  0
   37.7760   27.5270   36.1310 H   0  0  0  0  0  0  0  0  0  0  0  0
   37.0580   25.5310   32.3950 H   0  0  0  0  0  0  0  0  0  0  0  0
   37.9760   22.8730   32.3460 H   0  0  0  0  0  0  0  0  0  0  0  0
   39.1890   21.4360   34.2060 H   0  0  0  0  0  0  0  0  0  0  0  0
   38.8440   25.4630   37.0280 H   0  0  0  0  0  0  0  0  0  0  0  0
   36.7480   31.5830   36.0070 F   0  0  0  0  0  0  0  0  0  0  0  0
   35.4220   31.4470   36.0140 C   0  0  0  0  0  0  0  0  0  0  0  0
   34.7210   30.6130   35.1710 C   0  0  0  0  0  0  0  0  0  0  0  0
   33.3700   30.6220   35.3420 C   0  0  0  0  0  0  0  0  0  0  0  0
   32.7550   29.9920   34.7150 H   0  0  0  0  0  0  0  0  0  0  0  0
   32.6700   31.3730   36.2590 C   0  0  0  0  0  0  0  0  0  0  0  0
   31.5930   31.3320   36.3410 H   0  0  0  0  0  0  0  0  0  0  0  0
   33.3930   32.2020   37.0930 C   0  0  0  0  0  3  0  0  0  0  0  0
   34.7740   32.2360   36.9680 C   0  0  0  0  0  3  0  0  0  0  0  0
  1  6  2  0  0  0  0
  1  2  1  0  0  0  0
  2  3  2  0  0  0  0
  3  4  1  0  0  0  0
  3 25  1  0  0  0  0
  5 10  1  0  0  0  0
  5  4  2  0  0  0  0
  6  5  1  0  0  0  0
  7  1  1  0  0  0  0
  8  2  1  0  0  0  0
  9 17  1  0  0  0  0
  9 18  1  0  0  0  0
 10  9  2  0  0  0  0
 11 12  2  0  0  0  0
 11 10  1  0  0  0  0
 12 16  1  0  0  0  0
 13 12  1  0  0  0  0
 13 14  1  0  0  0  0
 14 15  2  0  0  0  0
 16 15  1  0  0  0  0
 16 17  2  0  0  0  0
 17 22  1  0  0  0  0
 19 11  1  0  0  0  0
 20 13  1  0  0  0  0
 21 14  1  0  0  0  0
 23 24  1  0  0  0  0
 24 31  1  0  0  0  0
 25 26  1  0  0  0  0
 25 24  2  0  0  0  0
 26 28  2  0  0  0  0
 27 26  1  0  0  0  0
 28 29  1  0  0  0  0
 28 30  1  0  0  0  0
 31 30  2  0  0  0  0
M  END
>  <minimizedAffinity>
-6.14338493

$$$$

 OpenBabel03272507063D

 31 34  0  0  0  0  0  0  0  0999 V2000
   35.5570   28.0070   31.9250 C   0  0  0  0  0  0  0  0  0  0  0  0
   35.0150   29.0100   32.7540 C   0  0  0  0  0  0  0  0  0  0  0  0
   35.5910   29.1650   34.0250 C   0  0  0  0  0  0  0  0  0  0  0  0
   36.6120   28.3500   34.3530 N   0  0  0  0  0  0  0  0  0  0  0  0
   37.1110   27.4060   33.5520 C   0  0  0  0  0  0  0  0  0  0  0  0
   36.5910   27.2180   32.3210 N   0  0  0  0  0  0  0  0  0  0  0  0
   35.1620   27.8300   30.9270 H   0  0  0  0  0  0  0  0  0  0  0  0
   34.2030   29.6170   32.4220 H   0  0  0  0  0  0  0  0  0  0  0  0
   37.9720   25.2580   34.3870 C   0  0  0  0  0  0  0  0  0  0  0  0
   38.2140   26.5840   34.0100 C   0  0  0  0  0  0  0  0  0  0  0  0
   39.4890   27.1030   34.0730 C   0  0  0  0  0  0  0  0  0  0  0  0
   40.5480   26.3310   34.5060 C   0  0  0  0  0  0  0  0  0  0  0  0
   41.8640   26.5820   34.6620 N   0  0  0  0  0  0  0  0  0  0  0  0
   42.3860   25.4210   35.1220 C   0  0  0  0  0  0  0  0  0  0  0  0
   41.4270   24.4880   35.2470 N   0  0  0  0  0  0  0  0  0  0  0  0
   40.2600   25.0350   34.8650 C   0  0  0  0  0  0  0  0  0  0  0  0
   39.0240   24.4650   34.8260 C   0  0  0  0  0  0  0  0  0  0  0  0
   36.9690   24.8810   34.3280 H   0  0  0  0  0  0  0  0  0  0  0  0
   39.7290   28.1300   33.7900 H   0  0  0  0  0  0  0  0  0  0  0  0
   42.3790   27.4770   34.4690 H   0  0  0  0  0  0  0  0  0  0  0  0
   43.4180   25.2180   35.3710 H   0  0  0  0  0  0  0  0  0  0  0  0
   38.8320   23.4300   35.1200 H   0  0  0  0  0  0  0  0  0  0  0  0
   32.8810   29.2730   34.8710 F   0  0  0  0  0  0  0  0  0  0  0  0
   33.7790   30.1540   35.3160 C   0  0  0  0  0  0  0  0  0  0  0  0
   35.1070   30.1630   34.9490 C   0  0  0  0  0  0  0  0  0  0  0  0
   35.8550   31.1490   35.5170 C   0  0  0  0  0  0  0  0  0  0  0  0
   36.9070   31.2170   35.2760 H   0  0  0  0  0  0  0  0  0  0  0  0
   35.4080   32.1050   36.3990 C   0  0  0  0  0  0  0  0  0  0  0  0
   36.0590   32.8620   36.8130 H   0  0  0  0  0  0  0  0  0  0  0  0
   34.0730   32.0770   36.7520 C   0  0  0  0  0  3  0  0  0  0  0  0
   33.2590   31.0960   36.2060 C   0  0  0  0  0  3  0  0  0  0  0  0
  1  6  2  0  0  0  0
  1  2  1  0  0  0  0
  2  3  2  0  0  0  0
  3  4  1  0  0  0  0
  3 25  1  0  0  0  0
  5 10  1  0  0  0  0
  5  4  2  0  0  0  0
  6  5  1  0  0  0  0
  7  1  1  0  0  0  0
  8  2  1  0  0  0  0
  9 17  1  0  0  0  0
 10 11  1  0  0  0  0
 10  9  2  0  0  0  0
 11 12  2  0  0  0  0
 12 13  1  0  0  0  0
 12 16  1  0  0  0  0
 13 14  1  0  0  0  0
 14 15  2  0  0  0  0
 14 21  1  0  0  0  0
 16 15  1  0  0  0  0
 17 16  2  0  0  0  0
 17 22  1  0  0  0  0
 18  9  1  0  0  0  0
 19 11  1  0  0  0  0
 20 13  1  0  0  0  0
 23 24  1  0  0  0  0
 24 31  1  0  0  0  0
 25 24  2  0  0  0  0
 25 26  1  0  0  0  0
 26 28  2  0  0  0  0
 27 26  1  0  0  0  0
 28 30  1  0  0  0  0
 28 29  1  0  0  0  0
 31 30  2  0  0  0  0
M  END
>  <minimizedAffinity>
-5.92893219

$$$$

 OpenBabel03272507063D

 31 34  0  0  0  0  0  0  0  0999 V2000
   36.0960   30.0810   30.7900 C   0  0  0  0  0  0  0  0  0  0  0  0
   35.7070   30.7660   31.9590 C   0  0  0  0  0  0  0  0  0  0  0  0
   35.4710   29.9880   33.1030 C   0  0  0  0  0  0  0  0  0  0  0  0
   35.6340   28.6550   32.9980 N   0  0  0  0  0  0  0  0  0  0  0  0
   36.0040   28.0260   31.8810 C   0  0  0  0  0  0  0  0  0  0  0  0
   36.2430   28.7300   30.7550 N   0  0  0  0  0  0  0  0  0  0  0  0
   36.2970   30.6180   29.8650 H   0  0  0  0  0  0  0  0  0  0  0  0
   35.5990   31.8270   31.9630 H   0  0  0  0  0  0  0  0  0  0  0  0
   35.2930   25.8060   31.0920 C   0  0  0  0  0  0  0  0  0  0  0  0
   36.1500   26.5830   31.8820 C   0  0  0  0  0  0  0  0  0  0  0  0
   37.1210   25.9830   32.6520 C   0  0  0  0  0  0  0  0  0  0  0  0
   37.2700   24.6110   32.6620 C   0  0  0  0  0  0  0  0  0  0  0  0
   38.1180   23.7830   33.3080 N   0  0  0  0  0  0  0  0  0  0  0  0
   37.7640   22.5410   32.9040 C   0  0  0  0  0  0  0  0  0  0  0  0
   36.7360   22.5990   32.0400 N   0  0  0  0  0  0  0  0  0  0  0  0
   36.4060   23.8910   31.8700 C   0  0  0  0  0  0  0  0  0  0  0  0
   35.4260   24.4240   31.0880 C   0  0  0  0  0  0  0  0  0  0  0  0
   34.5460   26.3020   30.5030 H   0  0  0  0  0  0  0  0  0  0  0  0
   37.8120   26.5440   33.2830 H   0  0  0  0  0  0  0  0  0  0  0  0
   38.8850   24.0380   33.9780 H   0  0  0  0  0  0  0  0  0  0  0  0
   38.2100   21.6020   33.2010 H   0  0  0  0  0  0  0  0  0  0  0  0
   34.7570   23.8200   30.4720 H   0  0  0  0  0  0  0  0  0  0  0  0
   32.8540   29.6880   34.1660 F   0  0  0  0  0  0  0  0  0  0  0  0
   33.7800   30.4040   34.8050 C   0  0  0  0  0  0  0  0  0  0  0  0
   35.0680   30.5930   34.3500 C   0  0  0  0  0  0  0  0  0  0  0  0
   35.8560   31.3600   35.1530 C   0  0  0  0  0  0  0  0  0  0  0  0
   36.8790   31.5500   34.8600 H   0  0  0  0  0  0  0  0  0  0  0  0
   35.4840   31.9420   36.3430 C   0  0  0  0  0  0  0  0  0  0  0  0
   36.1640   32.5410   36.9330 H   0  0  0  0  0  0  0  0  0  0  0  0
   34.1900   31.7400   36.7790 C   0  0  0  0  0  3  0  0  0  0  0  0
   33.3380   30.9670   36.0040 C   0  0  0  0  0  3  0  0  0  0  0  0
  1  2  1  0  0  0  0
  2  8  1  0  0  0  0
  2  3  2  0  0  0  0
  3 25  1  0  0  0  0
  4  3  1  0  0  0  0
  5 10  1  0  0  0  0
  5  4  2  0  0  0  0
  6  1  2  0  0  0  0
  6  5  1  0  0  0  0
  7  1  1  0  0  0  0
  9 10  1  0  0  0  0
 10 11  2  0  0  0  0
 11 12  1  0  0  0  0
 11 19  1  0  0  0  0
 12 13  1  0  0  0  0
 13 20  1  0  0  0  0
 14 21  1  0  0  0  0
 14 13  1  0  0  0  0
 15 14  2  0  0  0  0
 16 15  1  0  0  0  0
 16 12  2  0  0  0  0
 17  9  2  0  0  0  0
 17 16  1  0  0  0  0
 18  9  1  0  0  0  0
 22 17  1  0  0  0  0
 23 24  1  0  0  0  0
 24 31  1  0  0  0  0
 25 24  2  0  0  0  0
 25 26  1  0  0  0  0
 26 28  2  0  0  0  0
 27 26  1  0  0  0  0
 28 30  1  0  0  0  0
 28 29  1  0  0  0  0
 31 30  2  0  0  0  0
M  END
>  <minimizedAffinity>
-5.86783743

$$$$

 OpenBabel03272507063D

 31 34  0  0  0  0  0  0  0  0999 V2000
   37.8340   24.4370   32.2340 C   0  0  0  0  0  0  0  0  0  0  0  0
   38.1890   23.8830   33.4810 C   0  0  0  0  0  0  0  0  0  0  0  0
   38.0130   24.6960   34.6110 C   0  0  0  0  0  0  0  0  0  0  0  0
   37.5220   25.9360   34.4200 N   0  0  0  0  0  0  0  0  0  0  0  0
   37.1920   26.4420   33.2300 C   0  0  0  0  0  0  0  0  0  0  0  0
   37.3420   25.6990   32.1130 N   0  0  0  0  0  0  0  0  0  0  0  0
   37.9420   23.8660   31.3140 H   0  0  0  0  0  0  0  0  0  0  0  0
   38.5730   22.8910   33.5500 H   0  0  0  0  0  0  0  0  0  0  0  0
   36.6290   28.4310   31.8960 C   0  0  0  0  0  0  0  0  0  0  0  0
   36.6700   27.7920   33.1410 C   0  0  0  0  0  0  0  0  0  0  0  0
   36.2200   28.4390   34.2710 C   0  0  0  0  0  0  0  0  0  0  0  0
   35.7210   29.7240   34.2000 C   0  0  0  0  0  0  0  0  0  0  0  0
   35.2260   30.5690   35.1280 N   0  0  0  0  0  0  0  0  0  0  0  0
   34.8990   31.6870   34.4380 C   0  0  0  0  0  0  0  0  0  0  0  0
   35.1810   31.5370   33.1320 N   0  0  0  0  0  0  0  0  0  0  0  0
   35.7000   30.3100   32.9560 C   0  0  0  0  0  0  0  0  0  0  0  0
   36.1300   29.7240   31.8040 C   0  0  0  0  0  0  0  0  0  0  0  0
   36.9870   27.9020   31.0340 H   0  0  0  0  0  0  0  0  0  0  0  0
   36.2310   27.9830   35.2630 H   0  0  0  0  0  0  0  0  0  0  0  0
   35.1150   30.4050   36.1590 H   0  0  0  0  0  0  0  0  0  0  0  0
   34.4690   32.5980   34.8300 H   0  0  0  0  0  0  0  0  0  0  0  0
   36.0990   30.2210   30.8320 H   0  0  0  0  0  0  0  0  0  0  0  0
   40.3440   23.1600   35.1360 F   0  0  0  0  0  0  0  0  0  0  0  0
   39.4950   23.4820   36.1130 C   0  0  0  0  0  0  0  0  0  0  0  0
   38.3470   24.2230   35.9330 C   0  0  0  0  0  0  0  0  0  0  0  0
   37.6180   24.4400   37.0630 C   0  0  0  0  0  0  0  0  0  0  0  0
   36.7040   25.0150   36.9970 H   0  0  0  0  0  0  0  0  0  0  0  0
   37.9240   23.9950   38.3280 C   0  0  0  0  0  0  0  0  0  0  0  0
   37.2980   24.2050   39.1840 H   0  0  0  0  0  0  0  0  0  0  0  0
   39.0790   23.2540   38.4850 C   0  0  0  0  0  3  0  0  0  0  0  0
   39.8650   22.9990   37.3710 C   0  0  0  0  0  3  0  0  0  0  0  0
  1  2  1  0  0  0  0
  2  8  1  0  0  0  0
  2  3  2  0  0  0  0
  3 25  1  0  0  0  0
  4  3  1  0  0  0  0
  5  4  2  0  0  0  0
  6  1  2  0  0  0  0
  6  5  1  0  0  0  0
  7  1  1  0  0  0  0
  9 10  1  0  0  0  0
 10  5  1  0  0  0  0
 10 11  2  0  0  0  0
 11 19  1  0  0  0  0
 12 11  1  0  0  0  0
 12 13  1  0  0  0  0
 13 20  1  0  0  0  0
 14 21  1  0  0  0  0
 14 13  1  0  0  0  0
 15 14  2  0  0  0  0
 16 15  1  0  0  0  0
 16 12  2  0  0  0  0
 17  9  2  0  0  0  0
 17 16  1  0  0  0  0
 18  9  1  0  0  0  0
 22 17  1  0  0  0  0
 23 24  1  0  0  0  0
 24 31  1  0  0  0  0
 25 24  2  0  0  0  0
 25 26  1  0  0  0  0
 26 28  2  0  0  0  0
 27 26  1  0  0  0  0
 28 30  1  0  0  0  0
 28 29  1  0  0  0  0
 31 30  2  0  0  0  0
M  END
>  <minimizedAffinity>
-5.86601448

$$$$

 OpenBabel03272507063D

 31 34  0  0  0  0  0  0  0  0999 V2000
   36.6370   29.6020   30.3340 C   0  0  0  0  0  0  0  0  0  0  0  0
   36.8250   28.2110   30.2050 C   0  0  0  0  0  0  0  0  0  0  0  0
   36.3630   27.4070   31.2580 C   0  0  0  0  0  0  0  0  0  0  0  0
   35.7780   28.0210   32.3040 N   0  0  0  0  0  0  0  0  0  0  0  0
   35.6100   29.3400   32.4070 C   0  0  0  0  0  0  0  0  0  0  0  0
   36.0370   30.1560   31.4210 N   0  0  0  0  0  0  0  0  0  0  0  0
   36.9690   30.2880   29.5580 H   0  0  0  0  0  0  0  0  0  0  0  0
   37.2980   27.8000   29.3430 H   0  0  0  0  0  0  0  0  0  0  0  0
   33.6280   29.5710   33.8480 C   0  0  0  0  0  0  0  0  0  0  0  0
   34.9650   29.8940   33.5820 C   0  0  0  0  0  0  0  0  0  0  0  0
   35.6600   30.7290   34.4280 C   0  0  0  0  0  0  0  0  0  0  0  0
   35.0580   31.2620   35.5500 C   0  0  0  0  0  0  0  0  0  0  0  0
   35.4970   32.0870   36.5240 N   0  0  0  0  0  0  0  0  0  0  0  0
   34.4350   32.2450   37.3480 C   0  0  0  0  0  0  0  0  0  0  0  0
   33.3790   31.5440   36.9000 N   0  0  0  0  0  0  0  0  0  0  0  0
   33.7450   30.9160   35.7690 C   0  0  0  0  0  0  0  0  0  0  0  0
   33.0040   30.0980   34.9720 C   0  0  0  0  0  0  0  0  0  0  0  0
   33.1120   28.9180   33.1710 H   0  0  0  0  0  0  0  0  0  0  0  0
   36.7020   31.0100   34.2650 H   0  0  0  0  0  0  0  0  0  0  0  0
   36.4500   32.5160   36.6270 H   0  0  0  0  0  0  0  0  0  0  0  0
   34.3870   32.8390   38.2510 H   0  0  0  0  0  0  0  0  0  0  0  0
   31.9620   29.8440   35.1770 H   0  0  0  0  0  0  0  0  0  0  0  0
   34.1330   25.6530   31.1030 F   0  0  0  0  0  0  0  0  0  0  0  0
   35.3800   25.1820   31.1470 C   0  0  0  0  0  0  0  0  0  0  0  0
   36.5080   25.9710   31.2220 C   0  0  0  0  0  0  0  0  0  0  0  0
   37.6860   25.2900   31.2580 C   0  0  0  0  0  0  0  0  0  0  0  0
   38.6130   25.8440   31.3170 H   0  0  0  0  0  0  0  0  0  0  0  0
   37.8390   23.9230   31.2250 C   0  0  0  0  0  0  0  0  0  0  0  0
   38.8090   23.4470   31.2560 H   0  0  0  0  0  0  0  0  0  0  0  0
   36.6960   23.1530   31.1490 C   0  0  0  0  0  3  0  0  0  0  0  0
   35.4630   23.7880   31.1100 C   0  0  0  0  0  3  0  0  0  0  0  0
  1  6  1  0  0  0  0
  2  1  2  0  0  0  0
  2  3  1  0  0  0  0
  3  4  2  0  0  0  0
  4  5  1  0  0  0  0
  5 10  1  0  0  0  0
  6  5  2  0  0  0  0
  7  1  1  0  0  0  0
  8  2  1  0  0  0  0
  9 17  1  0  0  0  0
 10  9  2  0  0  0  0
 10 11  1  0  0  0  0
 11 12  2  0  0  0  0
 12 16  1  0  0  0  0
 12 13  1  0  0  0  0
 13 20  1  0  0  0  0
 13 14  1  0  0  0  0
 14 21  1  0  0  0  0
 15 14  2  0  0  0  0
 16 15  1  0  0  0  0
 17 22  1  0  0  0  0
 17 16  2  0  0  0  0
 18  9  1  0  0  0  0
 19 11  1  0  0  0  0
 23 24  1  0  0  0  0
 24 25  1  0  0  0  0
 25  3  1  0  0  0  0
 25 26  2  0  0  0  0
 26 27  1  0  0  0  0
 28 29  1  0  0  0  0
 28 26  1  0  0  0  0
 30 28  2  0  0  0  0
 31 24  2  0  0  0  0
 31 30  1  0  0  0  0
M  END
>  <minimizedAffinity>
-5.85329676

$$$$

 OpenBabel03272507063D

 31 34  0  0  0  0  0  0  0  0999 V2000
   36.1700   30.9800   31.5690 C   0  0  0  0  0  0  0  0  0  0  0  0
   35.5300   31.5350   32.6960 C   0  0  0  0  0  0  0  0  0  0  0  0
   35.2070   30.6570   33.7410 C   0  0  0  0  0  0  0  0  0  0  0  0
   35.5310   29.3580   33.5890 N   0  0  0  0  0  0  0  0  0  0  0  0
   36.1370   28.8520   32.5130 C   0  0  0  0  0  0  0  0  0  0  0  0
   36.4680   29.6570   31.4820 N   0  0  0  0  0  0  0  0  0  0  0  0
   36.4500   31.6010   30.7200 H   0  0  0  0  0  0  0  0  0  0  0  0
   35.3060   32.5770   32.7420 H   0  0  0  0  0  0  0  0  0  0  0  0
   37.4380   26.9130   33.2880 C   0  0  0  0  0  0  0  0  0  0  0  0
   36.4390   27.4350   32.4570 C   0  0  0  0  0  0  0  0  0  0  0  0
   35.7510   26.6110   31.5950 C   0  0  0  0  0  0  0  0  0  0  0  0
   36.0280   25.2600   31.5320 C   0  0  0  0  0  0  0  0  0  0  0  0
   35.5180   24.2500   30.7970 N   0  0  0  0  0  0  0  0  0  0  0  0
   36.2060   23.1540   31.1900 C   0  0  0  0  0  0  0  0  0  0  0  0
   37.1090   23.4740   32.1330 N   0  0  0  0  0  0  0  0  0  0  0  0
   37.0170   24.7940   32.3670 C   0  0  0  0  0  0  0  0  0  0  0  0
   37.7330   25.5570   33.2390 C   0  0  0  0  0  0  0  0  0  0  0  0
   37.9580   27.5790   33.9490 H   0  0  0  0  0  0  0  0  0  0  0  0
   34.9640   26.9690   30.9290 H   0  0  0  0  0  0  0  0  0  0  0  0
   34.7550   24.2970   30.0770 H   0  0  0  0  0  0  0  0  0  0  0  0
   36.0890   22.1410   30.8300 H   0  0  0  0  0  0  0  0  0  0  0  0
   38.5120   25.1520   33.8880 H   0  0  0  0  0  0  0  0  0  0  0  0
   36.6480   31.6390   35.9840 F   0  0  0  0  0  0  0  0  0  0  0  0
   35.3150   31.5890   35.9880 C   0  0  0  0  0  0  0  0  0  0  0  0
   34.5510   31.1250   34.9380 C   0  0  0  0  0  0  0  0  0  0  0  0
   33.2060   31.1580   35.1460 C   0  0  0  0  0  0  0  0  0  0  0  0
   32.5440   30.8100   34.3650 H   0  0  0  0  0  0  0  0  0  0  0  0
   32.5670   31.6010   36.2810 C   0  0  0  0  0  0  0  0  0  0  0  0
   31.4910   31.5990   36.3790 H   0  0  0  0  0  0  0  0  0  0  0  0
   33.3520   32.0610   37.3200 C   0  0  0  0  0  3  0  0  0  0  0  0
   34.7310   32.0530   37.1690 C   0  0  0  0  0  3  0  0  0  0  0  0
  1  2  1  0  0  0  0
  2  8  1  0  0  0  0
  2  3  2  0  0  0  0
  3 25  1  0  0  0  0
  4  3  1  0  0  0  0
  5  4  2  0  0  0  0
  6  1  2  0  0  0  0
  6  5  1  0  0  0  0
  7  1  1  0  0  0  0
  9 18  1  0  0  0  0
 10  5  1  0  0  0  0
 10  9  2  0  0  0  0
 11 10  1  0  0  0  0
 12 11  2  0  0  0  0
 12 16  1  0  0  0  0
 13 14  1  0  0  0  0
 13 12  1  0  0  0  0
 14 15  2  0  0  0  0
 15 16  1  0  0  0  0
 16 17  2  0  0  0  0
 17  9  1  0  0  0  0
 17 22  1  0  0  0  0
 19 11  1  0  0  0  0
 20 13  1  0  0  0  0
 21 14  1  0  0  0  0
 23 24  1  0  0  0  0
 24 31  1  0  0  0  0
 25 26  1  0  0  0  0
 25 24  2  0  0  0  0
 26 28  2  0  0  0  0
 27 26  1  0  0  0  0
 28 29  1  0  0  0  0
 28 30  1  0  0  0  0
 31 30  2  0  0  0  0
M  END
>  <minimizedAffinity>
-5.81326866

$$$$

 OpenBabel03272507063D

 31 34  0  0  0  0  0  0  0  0999 V2000
   38.1270   27.4890   31.5680 C   0  0  0  0  0  0  0  0  0  0  0  0
   37.0710   28.3840   31.8340 C   0  0  0  0  0  0  0  0  0  0  0  0
   36.4440   28.2750   33.0850 C   0  0  0  0  0  0  0  0  0  0  0  0
   36.8960   27.3290   33.9310 N   0  0  0  0  0  0  0  0  0  0  0  0
   37.8990   26.4910   33.6600 C   0  0  0  0  0  0  0  0  0  0  0  0
   38.5330   26.5560   32.4710 N   0  0  0  0  0  0  0  0  0  0  0  0
   38.6600   27.5150   30.6200 H   0  0  0  0  0  0  0  0  0  0  0  0
   36.7710   29.1070   31.1100 H   0  0  0  0  0  0  0  0  0  0  0  0
   39.1570   24.4660   34.2700 C   0  0  0  0  0  0  0  0  0  0  0  0
   38.3030   25.5100   34.6480 C   0  0  0  0  0  0  0  0  0  0  0  0
   37.8530   25.6040   35.9460 C   0  0  0  0  0  0  0  0  0  0  0  0
   38.2310   24.6770   36.8970 C   0  0  0  0  0  0  0  0  0  0  0  0
   37.9450   24.5350   38.2070 N   0  0  0  0  0  0  0  0  0  0  0  0
   38.6190   23.4270   38.5920 C   0  0  0  0  0  0  0  0  0  0  0  0
   39.2980   22.9030   37.5570 N   0  0  0  0  0  0  0  0  0  0  0  0
   39.0700   23.6710   36.4770 C   0  0  0  0  0  0  0  0  0  0  0  0
   39.5490   23.5230   35.2110 C   0  0  0  0  0  0  0  0  0  0  0  0
   39.4910   24.4190   33.2510 H   0  0  0  0  0  0  0  0  0  0  0  0
   37.1880   26.3980   36.2900 H   0  0  0  0  0  0  0  0  0  0  0  0
   37.3350   25.1460   38.8050 H   0  0  0  0  0  0  0  0  0  0  0  0
   38.6440   22.9820   39.5770 H   0  0  0  0  0  0  0  0  0  0  0  0
   40.2150   22.7100   34.9130 H   0  0  0  0  0  0  0  0  0  0  0  0
   36.4940   29.8710   35.4340 F   0  0  0  0  0  0  0  0  0  0  0  0
   35.4470   29.8900   34.6090 C   0  0  0  0  0  0  0  0  0  0  0  0
   35.3520   29.1440   33.4540 C   0  0  0  0  0  0  0  0  0  0  0  0
   34.1960   29.3090   32.7530 C   0  0  0  0  0  0  0  0  0  0  0  0
   34.0540   28.7560   31.8350 H   0  0  0  0  0  0  0  0  0  0  0  0
   33.1490   30.1330   33.0930 C   0  0  0  0  0  0  0  0  0  0  0  0
   32.2570   30.2170   32.4880 H   0  0  0  0  0  0  0  0  0  0  0  0
   33.2650   30.8710   34.2550 C   0  0  0  0  0  3  0  0  0  0  0  0
   34.4190   30.7460   35.0130 C   0  0  0  0  0  3  0  0  0  0  0  0
  1  2  2  0  0  0  0
  1  6  1  0  0  0  0
  2  3  1  0  0  0  0
  3 25  1  0  0  0  0
  3  4  2  0  0  0  0
  5  4  1  0  0  0  0
  5 10  1  0  0  0  0
  6  5  2  0  0  0  0
  7  1  1  0  0  0  0
  8  2  1  0  0  0  0
  9 10  2  0  0  0  0
  9 17  1  0  0  0  0
 10 11  1  0  0  0  0
 11 19  1  0  0  0  0
 11 12  2  0  0  0  0
 12 13  1  0  0  0  0
 13 14  1  0  0  0  0
 13 20  1  0  0  0  0
 14 21  1  0  0  0  0
 15 14  2  0  0  0  0
 16 12  1  0  0  0  0
 16 15  1  0  0  0  0
 17 16  2  0  0  0  0
 18  9  1  0  0  0  0
 22 17  1  0  0  0  0
 24 31  1  0  0  0  0
 24 23  1  0  0  0  0
 25 24  2  0  0  0  0
 26 28  2  0  0  0  0
 26 25  1  0  0  0  0
 27 26  1  0  0  0  0
 28 30  1  0  0  0  0
 29 28  1  0  0  0  0
 30 31  2  0  0  0  0
M  END
>  <minimizedAffinity>
-5.77082443

$$$$
