
 OpenBabel03272509043D

 33 35  0  0  0  0  0  0  0  0999 V2000
   37.3540   30.1820   51.5520 C   0  0  0  0  0  0  0  0  0  0  0  0
   38.0930   30.8630   50.5650 C   0  0  0  0  0  0  0  0  0  0  0  0
   37.7190   30.6880   49.2220 C   0  0  0  0  0  0  0  0  0  0  0  0
   36.6550   29.8630   48.9760 N   0  0  0  0  0  0  0  0  0  0  0  0
   35.9800   29.2330   49.9580 C   0  0  0  0  0  0  0  0  0  0  0  0
   36.3360   29.4000   51.2370 N   0  0  0  0  0  0  0  0  0  0  0  0
   37.7000   30.3630   52.5710 H   0  0  0  0  0  0  0  0  0  0  0  0
   38.9080   31.4930   50.7970 H   0  0  0  0  0  0  0  0  0  0  0  0
   38.9290   33.3210   49.0660 F   0  0  0  0  0  0  0  0  0  0  0  0
   38.9240   32.5340   47.9710 C   0  0  0  0  0  0  0  0  0  0  0  0
   38.3480   31.2970   48.0660 C   0  0  0  0  0  0  0  0  0  0  0  0
   38.3900   30.5690   46.8980 C   0  0  0  0  0  0  0  0  0  0  0  0
   37.9790   29.5650   46.7940 H   0  0  0  0  0  0  0  0  0  0  0  0
   38.9660   31.0580   45.7420 C   0  0  0  0  0  0  0  0  0  0  0  0
   38.9960   30.4850   44.8350 H   0  0  0  0  0  0  0  0  0  0  0  0
   39.5340   32.3130   45.6960 C   0  0  0  0  0  3  0  0  0  0  0  0
   39.5100   33.0700   46.8470 C   0  0  0  0  0  3  0  0  0  0  0  0
   34.8870   28.4070   49.5210 C   0  0  0  0  0  3  0  0  0  0  0  0
   34.2980   28.6630   48.3950 C   0  0  0  0  0  3  0  0  0  0  0  0
   33.1730   27.9560   47.7660 C   0  0  0  0  0  0  0  0  0  0  0  0
   32.5780   28.6240   47.1100 H   0  0  0  0  0  0  0  0  0  0  0  0
   32.5330   27.5760   48.5780 H   0  0  0  0  0  0  0  0  0  0  0  0
   33.6230   26.8110   46.9110 C   0  0  0  0  0  0  0  0  0  0  0  0
   33.8230   25.5120   47.3510 C   0  0  0  0  0  0  0  0  0  0  0  0
   34.2380   24.5350   46.4790 C   0  0  0  0  0  0  0  0  0  0  0  0
   34.4690   24.8320   45.1220 C   0  0  0  0  0  0  0  0  0  0  0  0
   34.2720   26.1180   44.6770 C   0  0  0  0  0  0  0  0  0  0  0  0
   33.8560   27.0870   45.5660 C   0  0  0  0  0  0  0  0  0  0  0  0
   33.6290   25.3500   48.4030 H   0  0  0  0  0  0  0  0  0  0  0  0
   34.3840   23.5330   46.8620 H   0  0  0  0  0  0  0  0  0  0  0  0
   34.7980   24.0380   44.4500 H   0  0  0  0  0  0  0  0  0  0  0  0
   34.4570   26.3190   43.6300 H   0  0  0  0  0  0  0  0  0  0  0  0
   33.7120   28.0890   45.1800 H   0  0  0  0  0  0  0  0  0  0  0  0
  1  7  1  0  0  0  0
  2  8  1  0  0  0  0
  2  1  2  0  0  0  0
  3  2  1  0  0  0  0
  4  3  2  0  0  0  0
  4  5  1  0  0  0  0
  5  6  2  0  0  0  0
  6  1  1  0  0  0  0
 10 11  1  0  0  0  0
 10  9  1  0  0  0  0
 11  3  1  0  0  0  0
 12 11  2  0  0  0  0
 13 12  1  0  0  0  0
 14 12  1  0  0  0  0
 15 14  1  0  0  0  0
 16 14  2  0  0  0  0
 16 17  1  0  0  0  0
 17 10  2  0  0  0  0
 18  5  1  0  0  0  0
 19 18  2  0  0  0  0
 20 19  1  0  0  0  0
 20 22  1  0  0  0  0
 21 20  1  0  0  0  0
 23 24  1  0  0  0  0
 23 20  1  0  0  0  0
 24 29  1  0  0  0  0
 25 30  1  0  0  0  0
 25 24  2  0  0  0  0
 26 25  1  0  0  0  0
 27 26  2  0  0  0  0
 27 28  1  0  0  0  0
 28 23  2  0  0  0  0
 31 26  1  0  0  0  0
 32 27  1  0  0  0  0
 33 28  1  0  0  0  0
M  END
>  <minimizedAffinity>
-6.61051893

>  <minimizedRMSD>
0.984622717

$$$$
