
 OpenBabel03272509213D

 46 50  0  0  0  0  0  0  0  0999 V2000
   38.0040   31.2420   47.6980 C   0  0  0  0  0  0  0  0  0  0  0  0
   37.1130   31.2930   48.7530 C   0  0  0  0  0  0  0  0  0  0  0  0
   37.2850   32.4040   49.5880 C   0  0  0  0  0  0  0  0  0  0  0  0
   38.2750   33.3630   49.3550 C   0  0  0  0  0  0  0  0  0  0  0  0
   39.1320   33.2140   48.2490 C   0  0  0  0  0  0  0  0  0  0  0  0
   38.9840   32.1290   47.4110 C   0  0  0  0  0  0  0  0  0  0  0  0
   36.6040   32.4830   50.4320 H   0  0  0  0  0  0  0  0  0  0  0  0
   38.3480   34.1920   50.0410 H   0  0  0  0  0  0  0  0  0  0  0  0
   39.8810   33.9860   48.1170 H   0  0  0  0  0  0  0  0  0  0  0  0
   34.9220   30.3370   48.2430 C   0  0  0  0  0  0  0  0  0  0  0  0
   36.1010   30.3160   48.9920 C   0  0  0  0  0  0  0  0  0  0  0  0
   36.2430   29.3150   49.9640 C   0  0  0  0  0  0  0  0  0  0  0  0
   35.2370   28.4260   50.1280 N   0  0  0  0  0  0  0  0  0  0  0  0
   34.1000   28.4840   49.3730 C   0  0  0  0  0  0  0  0  0  0  0  0
   33.9610   29.4310   48.4510 N   0  0  0  0  0  0  0  0  0  0  0  0
   34.8150   31.1120   47.4940 H   0  0  0  0  0  0  0  0  0  0  0  0
   33.3670   27.7090   49.6040 H   0  0  0  0  0  0  0  0  0  0  0  0
   37.4760   29.2460   50.7860 C   0  0  0  0  0  0  0  0  0  0  0  0
   38.3500   29.4210   50.1020 H   0  0  0  0  0  0  0  0  0  0  0  0
   37.4500   29.9180   51.6490 H   0  0  0  0  0  0  0  0  0  0  0  0
   37.5750   28.1670   51.0770 H   0  0  0  0  0  0  0  0  0  0  0  0
   37.9240   30.1720   46.7990 O   0  0  0  0  0  0  0  0  0  0  0  0
   38.5690   29.4030   46.8770 H   0  0  0  0  0  0  0  0  0  0  0  0
   39.8580   32.0560   46.3550 O   0  0  0  0  0  0  0  0  0  0  0  0
   40.0860   30.9540   44.1230 C   0  0  0  0  0  0  0  0  0  0  0  0
   39.5500   31.8330   45.0370 C   0  0  0  0  0  0  0  0  0  0  0  0
   38.5090   32.6720   44.6210 C   0  0  0  0  0  0  0  0  0  0  0  0
   38.0320   32.6120   43.3030 C   0  0  0  0  0  0  0  0  0  0  0  0
   37.0700   33.2690   42.6140 N   0  0  0  0  0  0  0  0  0  0  0  0
   37.0240   32.8140   41.3540 C   0  0  0  0  0  0  0  0  0  0  0  0
   37.9710   31.8570   41.2480 N   0  0  0  0  0  0  0  0  0  0  0  0
   38.5980   31.7210   42.4330 C   0  0  0  0  0  0  0  0  0  0  0  0
   39.6210   30.8910   42.8340 C   0  0  0  0  0  0  0  0  0  0  0  0
   40.8830   30.3510   44.5470 H   0  0  0  0  0  0  0  0  0  0  0  0
   37.9900   33.4140   45.2270 H   0  0  0  0  0  0  0  0  0  0  0  0
   36.4590   34.0270   43.0390 H   0  0  0  0  0  0  0  0  0  0  0  0
   36.3500   33.1640   40.5900 H   0  0  0  0  0  0  0  0  0  0  0  0
   39.1620   28.0830   42.8050 F   0  0  0  0  0  0  0  0  0  0  0  0
   40.0370   28.5660   41.8990 C   0  0  0  0  0  0  0  0  0  0  0  0
   40.2470   29.9290   41.9280 C   0  0  0  0  0  0  0  0  0  0  0  0
   41.1270   30.5600   41.0440 C   0  0  0  0  0  0  0  0  0  0  0  0
   41.3400   31.6100   41.0070 H   0  0  0  0  0  0  0  0  0  0  0  0
   41.8090   29.7890   40.1090 C   0  0  0  0  0  0  0  0  0  0  0  0
   42.5060   30.2130   39.3950 H   0  0  0  0  0  0  0  0  0  0  0  0
   41.5720   28.4300   40.1110 C   0  0  0  0  0  3  0  0  0  0  0  0
   40.7090   27.7830   40.9730 C   0  0  0  0  0  3  0  0  0  0  0  0
  1  2  1  0  0  0  0
  2 11  1  0  0  0  0
  2  3  2  0  0  0  0
  3  7  1  0  0  0  0
  4  3  1  0  0  0  0
  4  8  1  0  0  0  0
  5  4  2  0  0  0  0
  6  1  2  0  0  0  0
  6  5  1  0  0  0  0
  9  5  1  0  0  0  0
 10 15  2  0  0  0  0
 10 11  1  0  0  0  0
 11 12  2  0  0  0  0
 12 13  1  0  0  0  0
 12 18  1  0  0  0  0
 14 17  1  0  0  0  0
 14 13  2  0  0  0  0
 15 14  1  0  0  0  0
 16 10  1  0  0  0  0
 18 21  1  0  0  0  0
 18 20  1  0  0  0  0
 19 18  1  0  0  0  0
 22 23  1  0  0  0  0
 22  1  1  0  0  0  0
 24  6  1  0  0  0  0
 25 34  1  0  0  0  0
 25 26  1  0  0  0  0
 26 24  1  0  0  0  0
 27 26  2  0  0  0  0
 27 35  1  0  0  0  0
 28 27  1  0  0  0  0
 29 36  1  0  0  0  0
 29 28  1  0  0  0  0
 30 29  1  0  0  0  0
 31 30  2  0  0  0  0
 31 32  1  0  0  0  0
 32 33  1  0  0  0  0
 32 28  2  0  0  0  0
 33 25  2  0  0  0  0
 37 30  1  0  0  0  0
 39 40  1  0  0  0  0
 39 38  1  0  0  0  0
 40 33  1  0  0  0  0
 41 40  2  0  0  0  0
 42 41  1  0  0  0  0
 43 45  2  0  0  0  0
 43 41  1  0  0  0  0
 44 43  1  0  0  0  0
 45 46  1  0  0  0  0
 46 39  2  0  0  0  0
M  END
>  <minimizedAffinity>
-7.60769749

>  <minimizedRMSD>
0.607955635

$$$$
