
 OpenBabel03262520073D

 18 19  0  0  0  0  0  0  0  0999 V2000
   38.0130   33.1060   49.4760 C   0  0  0  0  0  0  0  0  0  0  0  0
   39.0130   33.1600   48.4820 C   0  0  0  0  0  0  0  0  0  0  0  0
   38.9700   32.1860   47.4860 C   0  0  0  0  0  0  0  0  0  0  0  0
   37.9890   31.2440   47.5130 N   0  0  0  0  0  0  0  0  0  0  0  0
   37.0440   31.2210   48.4810 C   0  0  0  0  0  0  0  0  0  0  0  0
   37.0650   32.1550   49.4570 N   0  0  0  0  0  0  0  0  0  0  0  0
   37.9300   33.8080   50.3130 H   0  0  0  0  0  0  0  0  0  0  0  0
   39.7390   33.9570   48.5670 H   0  0  0  0  0  0  0  0  0  0  0  0
   39.7210   32.2250   46.7370 H   0  0  0  0  0  0  0  0  0  0  0  0
   37.0840   29.1030   50.3780 F   0  0  0  0  0  0  0  0  0  0  0  0
   36.0660   29.2110   49.4870 C   0  0  0  0  0  0  0  0  0  0  0  0
   35.9820   30.2210   48.5310 C   0  0  0  0  0  0  0  0  0  0  0  0
   34.9040   30.2370   47.6730 C   0  0  0  0  0  0  0  0  0  0  0  0
   34.8860   31.0420   46.9510 H   0  0  0  0  0  0  0  0  0  0  0  0
   33.8960   29.2940   47.7140 C   0  0  0  0  0  0  0  0  0  0  0  0
   33.0720   29.3630   47.0090 H   0  0  0  0  0  0  0  0  0  0  0  0
   33.9950   28.2870   48.6800 C   0  0  0  0  0  0  0  0  0  0  0  0
   35.0660   28.2440   49.5560 C   0  0  0  0  0  0  0  0  0  0  0  0
  1  7  1  0  0  0  0
  2  8  1  0  0  0  0
  2  1  2  0  0  0  0
  3  4  2  0  0  0  0
  3  2  1  0  0  0  0
  4  5  1  0  0  0  0
  5 12  1  0  0  0  0
  5  6  2  0  0  0  0
  6  1  1  0  0  0  0
  9  3  1  0  0  0  0
 11 18  1  0  0  0  0
 11 10  1  0  0  0  0
 12 11  2  0  0  0  0
 13 15  2  0  0  0  0
 13 12  1  0  0  0  0
 14 13  1  0  0  0  0
 15 17  1  0  0  0  0
 16 15  1  0  0  0  0
 17 18  2  0  0  0  0
M  END
>  <minimizedAffinity>
-5.17723465

>  <minimizedRMSD>
3.13814116

$$$$
