
 OpenBabel03272509213D

 46 50  0  0  0  0  0  0  0  0999 V2000
   38.0030   31.2310   47.6880 C   0  0  0  0  0  0  0  0  0  0  0  0
   37.1140   31.2880   48.7440 C   0  0  0  0  0  0  0  0  0  0  0  0
   37.2920   32.4010   49.5760 C   0  0  0  0  0  0  0  0  0  0  0  0
   38.2850   33.3560   49.3390 C   0  0  0  0  0  0  0  0  0  0  0  0
   39.1390   33.2020   48.2320 C   0  0  0  0  0  0  0  0  0  0  0  0
   38.9850   32.1150   47.3960 C   0  0  0  0  0  0  0  0  0  0  0  0
   36.6130   32.4840   50.4220 H   0  0  0  0  0  0  0  0  0  0  0  0
   38.3610   34.1860   50.0220 H   0  0  0  0  0  0  0  0  0  0  0  0
   39.8900   33.9710   48.0950 H   0  0  0  0  0  0  0  0  0  0  0  0
   34.9200   30.3360   48.2410 C   0  0  0  0  0  0  0  0  0  0  0  0
   36.1010   30.3140   48.9880 C   0  0  0  0  0  0  0  0  0  0  0  0
   36.2410   29.3160   49.9630 C   0  0  0  0  0  0  0  0  0  0  0  0
   35.2330   28.4310   50.1310 N   0  0  0  0  0  0  0  0  0  0  0  0
   34.0940   28.4900   49.3780 C   0  0  0  0  0  0  0  0  0  0  0  0
   33.9570   29.4340   48.4530 N   0  0  0  0  0  0  0  0  0  0  0  0
   34.8150   31.1090   47.4890 H   0  0  0  0  0  0  0  0  0  0  0  0
   33.3600   27.7180   49.6130 H   0  0  0  0  0  0  0  0  0  0  0  0
   37.4750   29.2470   50.7840 C   0  0  0  0  0  0  0  0  0  0  0  0
   38.3480   29.4170   50.0980 H   0  0  0  0  0  0  0  0  0  0  0  0
   37.4520   29.9220   51.6440 H   0  0  0  0  0  0  0  0  0  0  0  0
   37.5710   28.1690   51.0780 H   0  0  0  0  0  0  0  0  0  0  0  0
   37.9180   30.1600   46.7920 O   0  0  0  0  0  0  0  0  0  0  0  0
   38.5610   29.3890   46.8700 H   0  0  0  0  0  0  0  0  0  0  0  0
   39.8570   32.0370   46.3390 O   0  0  0  0  0  0  0  0  0  0  0  0
   40.0700   30.9320   44.1060 C   0  0  0  0  0  0  0  0  0  0  0  0
   39.5440   31.8170   45.0210 C   0  0  0  0  0  0  0  0  0  0  0  0
   38.5120   32.6670   44.6070 C   0  0  0  0  0  0  0  0  0  0  0  0
   38.0320   32.6120   43.2890 C   0  0  0  0  0  0  0  0  0  0  0  0
   37.0760   33.2780   42.6020 N   0  0  0  0  0  0  0  0  0  0  0  0
   37.0230   32.8240   41.3420 C   0  0  0  0  0  0  0  0  0  0  0  0
   37.9610   31.8570   41.2340 N   0  0  0  0  0  0  0  0  0  0  0  0
   38.5880   31.7140   42.4190 C   0  0  0  0  0  0  0  0  0  0  0  0
   39.6040   30.8740   42.8180 C   0  0  0  0  0  0  0  0  0  0  0  0
   40.8620   30.3210   44.5290 H   0  0  0  0  0  0  0  0  0  0  0  0
   38.0010   33.4140   45.2140 H   0  0  0  0  0  0  0  0  0  0  0  0
   36.4730   34.0430   43.0280 H   0  0  0  0  0  0  0  0  0  0  0  0
   36.3520   33.1800   40.5780 H   0  0  0  0  0  0  0  0  0  0  0  0
   39.0370   28.0870   42.7190 F   0  0  0  0  0  0  0  0  0  0  0  0
   39.9570   28.5530   41.8480 C   0  0  0  0  0  0  0  0  0  0  0  0
   40.2180   29.9060   41.9110 C   0  0  0  0  0  0  0  0  0  0  0  0
   41.1470   30.5190   41.0660 C   0  0  0  0  0  0  0  0  0  0  0  0
   41.4020   31.5600   41.0570 H   0  0  0  0  0  0  0  0  0  0  0  0
   41.8270   29.7400   40.1350 C   0  0  0  0  0  0  0  0  0  0  0  0
   42.5600   30.1490   39.4500 H   0  0  0  0  0  0  0  0  0  0  0  0
   41.5380   28.3910   40.1040 C   0  0  0  0  0  3  0  0  0  0  0  0
   40.6250   27.7630   40.9260 C   0  0  0  0  0  3  0  0  0  0  0  0
  1  2  1  0  0  0  0
  2 11  1  0  0  0  0
  2  3  2  0  0  0  0
  3  7  1  0  0  0  0
  4  3  1  0  0  0  0
  4  8  1  0  0  0  0
  5  4  2  0  0  0  0
  6  1  2  0  0  0  0
  6  5  1  0  0  0  0
  9  5  1  0  0  0  0
 10 15  2  0  0  0  0
 10 11  1  0  0  0  0
 11 12  2  0  0  0  0
 12 13  1  0  0  0  0
 12 18  1  0  0  0  0
 14 17  1  0  0  0  0
 14 13  2  0  0  0  0
 15 14  1  0  0  0  0
 16 10  1  0  0  0  0
 18 21  1  0  0  0  0
 18 20  1  0  0  0  0
 19 18  1  0  0  0  0
 22 23  1  0  0  0  0
 22  1  1  0  0  0  0
 24  6  1  0  0  0  0
 25 34  1  0  0  0  0
 25 26  1  0  0  0  0
 26 24  1  0  0  0  0
 27 26  2  0  0  0  0
 27 35  1  0  0  0  0
 28 27  1  0  0  0  0
 29 36  1  0  0  0  0
 29 28  1  0  0  0  0
 30 29  1  0  0  0  0
 31 30  2  0  0  0  0
 31 32  1  0  0  0  0
 32 33  1  0  0  0  0
 32 28  2  0  0  0  0
 33 25  2  0  0  0  0
 37 30  1  0  0  0  0
 39 40  1  0  0  0  0
 39 38  1  0  0  0  0
 40 33  1  0  0  0  0
 41 40  2  0  0  0  0
 42 41  1  0  0  0  0
 43 41  1  0  0  0  0
 44 43  1  0  0  0  0
 45 43  2  0  0  0  0
 45 46  1  0  0  0  0
 46 39  2  0  0  0  0
M  END
>  <minimizedAffinity>
-7.56316519

>  <minimizedRMSD>
0.636515796

$$$$
