
 OpenBabel03272509043D

 33 35  0  0  0  0  0  0  0  0999 V2000
   37.5120   30.3010   51.3270 C   0  0  0  0  0  0  0  0  0  0  0  0
   38.0660   30.9700   50.2170 C   0  0  0  0  0  0  0  0  0  0  0  0
   37.5150   30.7140   48.9490 C   0  0  0  0  0  0  0  0  0  0  0  0
   36.4730   29.8280   48.8920 N   0  0  0  0  0  0  0  0  0  0  0  0
   35.9790   29.2140   49.9860 C   0  0  0  0  0  0  0  0  0  0  0  0
   36.5030   29.4570   51.1920 N   0  0  0  0  0  0  0  0  0  0  0  0
   37.9880   30.5470   52.2770 H   0  0  0  0  0  0  0  0  0  0  0  0
   38.8700   31.6480   50.3040 H   0  0  0  0  0  0  0  0  0  0  0  0
   36.2950   30.3450   46.3420 F   0  0  0  0  0  0  0  0  0  0  0  0
   37.3800   31.1360   46.4540 C   0  0  0  0  0  0  0  0  0  0  0  0
   37.9400   31.2970   47.6920 C   0  0  0  0  0  0  0  0  0  0  0  0
   39.0420   32.1220   47.7040 C   0  0  0  0  0  0  0  0  0  0  0  0
   39.6110   32.3610   48.6030 H   0  0  0  0  0  0  0  0  0  0  0  0
   39.5270   32.7250   46.5610 C   0  0  0  0  0  0  0  0  0  0  0  0
   40.3870   33.3680   46.5770 H   0  0  0  0  0  0  0  0  0  0  0  0
   38.9280   32.5330   45.3340 C   0  0  0  0  0  3  0  0  0  0  0  0
   37.8200   31.7120   45.2850 C   0  0  0  0  0  3  0  0  0  0  0  0
   34.8810   28.3170   49.7440 C   0  0  0  0  0  3  0  0  0  0  0  0
   34.3640   28.2390   48.5580 C   0  0  0  0  0  3  0  0  0  0  0  0
   33.2490   27.3990   48.0950 C   0  0  0  0  0  0  0  0  0  0  0  0
   32.4350   28.0030   47.6450 H   0  0  0  0  0  0  0  0  0  0  0  0
   32.8630   26.8610   48.9760 H   0  0  0  0  0  0  0  0  0  0  0  0
   33.6720   26.4090   47.0540 C   0  0  0  0  0  0  0  0  0  0  0  0
   33.9150   25.0640   47.2780 C   0  0  0  0  0  0  0  0  0  0  0  0
   34.2990   24.2420   46.2470 C   0  0  0  0  0  0  0  0  0  0  0  0
   34.4560   24.7480   44.9420 C   0  0  0  0  0  0  0  0  0  0  0  0
   34.2160   26.0820   44.7110 C   0  0  0  0  0  0  0  0  0  0  0  0
   33.8310   26.8940   45.7570 C   0  0  0  0  0  0  0  0  0  0  0  0
   33.7770   24.7370   48.3010 H   0  0  0  0  0  0  0  0  0  0  0  0
   34.4800   23.1960   46.4630 H   0  0  0  0  0  0  0  0  0  0  0  0
   34.7610   24.0740   44.1410 H   0  0  0  0  0  0  0  0  0  0  0  0
   34.3430   26.4460   43.6990 H   0  0  0  0  0  0  0  0  0  0  0  0
   33.6520   27.9390   45.5380 H   0  0  0  0  0  0  0  0  0  0  0  0
  1  7  1  0  0  0  0
  2  8  1  0  0  0  0
  2  1  2  0  0  0  0
  3  2  1  0  0  0  0
  4  3  2  0  0  0  0
  4  5  1  0  0  0  0
  5  6  2  0  0  0  0
  6  1  1  0  0  0  0
  9 10  1  0  0  0  0
 10 11  1  0  0  0  0
 11 12  2  0  0  0  0
 11  3  1  0  0  0  0
 12 13  1  0  0  0  0
 14 15  1  0  0  0  0
 14 12  1  0  0  0  0
 16 14  2  0  0  0  0
 17 16  1  0  0  0  0
 17 10  2  0  0  0  0
 18  5  1  0  0  0  0
 19 18  2  0  0  0  0
 20 19  1  0  0  0  0
 20 22  1  0  0  0  0
 21 20  1  0  0  0  0
 23 24  1  0  0  0  0
 23 20  1  0  0  0  0
 24 29  1  0  0  0  0
 25 30  1  0  0  0  0
 25 24  2  0  0  0  0
 26 25  1  0  0  0  0
 27 26  2  0  0  0  0
 27 28  1  0  0  0  0
 28 23  2  0  0  0  0
 31 26  1  0  0  0  0
 32 27  1  0  0  0  0
 33 28  1  0  0  0  0
M  END
>  <minimizedAffinity>
-6.41124916

>  <minimizedRMSD>
0.694659173

$$$$
