
 OpenBabel03272509213D

 46 50  0  0  0  0  0  0  0  0999 V2000
   38.0040   31.2420   47.6980 C   0  0  0  0  0  0  0  0  0  0  0  0
   37.1120   31.2930   48.7530 C   0  0  0  0  0  0  0  0  0  0  0  0
   37.2850   32.4040   49.5880 C   0  0  0  0  0  0  0  0  0  0  0  0
   38.2750   33.3630   49.3560 C   0  0  0  0  0  0  0  0  0  0  0  0
   39.1320   33.2150   48.2500 C   0  0  0  0  0  0  0  0  0  0  0  0
   38.9830   32.1300   47.4110 C   0  0  0  0  0  0  0  0  0  0  0  0
   36.6030   32.4840   50.4330 H   0  0  0  0  0  0  0  0  0  0  0  0
   38.3480   34.1920   50.0420 H   0  0  0  0  0  0  0  0  0  0  0  0
   39.8800   33.9870   48.1170 H   0  0  0  0  0  0  0  0  0  0  0  0
   34.9210   30.3370   48.2440 C   0  0  0  0  0  0  0  0  0  0  0  0
   36.1010   30.3160   48.9920 C   0  0  0  0  0  0  0  0  0  0  0  0
   36.2430   29.3150   49.9640 C   0  0  0  0  0  0  0  0  0  0  0  0
   35.2380   28.4260   50.1280 N   0  0  0  0  0  0  0  0  0  0  0  0
   34.1000   28.4840   49.3730 C   0  0  0  0  0  0  0  0  0  0  0  0
   33.9610   29.4310   48.4510 N   0  0  0  0  0  0  0  0  0  0  0  0
   34.8150   31.1120   47.4940 H   0  0  0  0  0  0  0  0  0  0  0  0
   33.3670   27.7090   49.6050 H   0  0  0  0  0  0  0  0  0  0  0  0
   37.4760   29.2460   50.7870 C   0  0  0  0  0  0  0  0  0  0  0  0
   38.3500   29.4210   50.1020 H   0  0  0  0  0  0  0  0  0  0  0  0
   37.4500   29.9180   51.6490 H   0  0  0  0  0  0  0  0  0  0  0  0
   37.5750   28.1670   51.0770 H   0  0  0  0  0  0  0  0  0  0  0  0
   37.9240   30.1730   46.7990 O   0  0  0  0  0  0  0  0  0  0  0  0
   38.5690   29.4040   46.8770 H   0  0  0  0  0  0  0  0  0  0  0  0
   39.8570   32.0570   46.3550 O   0  0  0  0  0  0  0  0  0  0  0  0
   40.0850   30.9540   44.1230 C   0  0  0  0  0  0  0  0  0  0  0  0
   39.5490   31.8330   45.0370 C   0  0  0  0  0  0  0  0  0  0  0  0
   38.5090   32.6720   44.6220 C   0  0  0  0  0  0  0  0  0  0  0  0
   38.0310   32.6120   43.3030 C   0  0  0  0  0  0  0  0  0  0  0  0
   37.0680   33.2680   42.6150 N   0  0  0  0  0  0  0  0  0  0  0  0
   37.0220   32.8130   41.3540 C   0  0  0  0  0  0  0  0  0  0  0  0
   37.9700   31.8560   41.2490 N   0  0  0  0  0  0  0  0  0  0  0  0
   38.5970   31.7200   42.4340 C   0  0  0  0  0  0  0  0  0  0  0  0
   39.6210   30.8910   42.8350 C   0  0  0  0  0  0  0  0  0  0  0  0
   40.8830   30.3520   44.5480 H   0  0  0  0  0  0  0  0  0  0  0  0
   37.9890   33.4140   45.2270 H   0  0  0  0  0  0  0  0  0  0  0  0
   36.4570   34.0260   43.0400 H   0  0  0  0  0  0  0  0  0  0  0  0
   36.3480   33.1620   40.5900 H   0  0  0  0  0  0  0  0  0  0  0  0
   39.1610   28.0820   42.8060 F   0  0  0  0  0  0  0  0  0  0  0  0
   40.0370   28.5650   41.9000 C   0  0  0  0  0  0  0  0  0  0  0  0
   40.2460   29.9290   41.9280 C   0  0  0  0  0  0  0  0  0  0  0  0
   41.1260   30.5600   41.0450 C   0  0  0  0  0  0  0  0  0  0  0  0
   41.3390   31.6090   41.0090 H   0  0  0  0  0  0  0  0  0  0  0  0
   41.8090   29.7900   40.1100 C   0  0  0  0  0  0  0  0  0  0  0  0
   42.5060   30.2120   39.3950 H   0  0  0  0  0  0  0  0  0  0  0  0
   41.5730   28.4300   40.1120 C   0  0  0  0  0  3  0  0  0  0  0  0
   40.7090   27.7840   40.9740 C   0  0  0  0  0  3  0  0  0  0  0  0
  1  2  1  0  0  0  0
  2 11  1  0  0  0  0
  2  3  2  0  0  0  0
  3  7  1  0  0  0  0
  4  3  1  0  0  0  0
  4  8  1  0  0  0  0
  5  4  2  0  0  0  0
  6  1  2  0  0  0  0
  6  5  1  0  0  0  0
  9  5  1  0  0  0  0
 10 15  2  0  0  0  0
 10 11  1  0  0  0  0
 11 12  2  0  0  0  0
 12 13  1  0  0  0  0
 12 18  1  0  0  0  0
 14 17  1  0  0  0  0
 14 13  2  0  0  0  0
 15 14  1  0  0  0  0
 16 10  1  0  0  0  0
 18 21  1  0  0  0  0
 18 20  1  0  0  0  0
 19 18  1  0  0  0  0
 22 23  1  0  0  0  0
 22  1  1  0  0  0  0
 24  6  1  0  0  0  0
 25 34  1  0  0  0  0
 25 26  1  0  0  0  0
 26 24  1  0  0  0  0
 27 26  2  0  0  0  0
 27 35  1  0  0  0  0
 28 27  1  0  0  0  0
 29 36  1  0  0  0  0
 29 28  1  0  0  0  0
 30 29  1  0  0  0  0
 31 30  2  0  0  0  0
 31 32  1  0  0  0  0
 32 33  1  0  0  0  0
 32 28  2  0  0  0  0
 33 25  2  0  0  0  0
 37 30  1  0  0  0  0
 39 40  1  0  0  0  0
 39 38  1  0  0  0  0
 40 33  1  0  0  0  0
 41 40  2  0  0  0  0
 42 41  1  0  0  0  0
 43 45  2  0  0  0  0
 43 41  1  0  0  0  0
 44 43  1  0  0  0  0
 45 46  1  0  0  0  0
 46 39  2  0  0  0  0
M  END
>  <minimizedAffinity>
-7.61373806

>  <minimizedRMSD>
0.641898453

$$$$
