
 OpenBabel03272504483D

 27 29  0  0  0  0  0  0  0  0999 V2000
   36.2520   29.4610   49.0270 C   0  0  0  0  0  0  0  0  0  0  0  0
   36.2940   30.4580   48.0530 C   0  0  0  0  0  0  0  0  0  0  0  0
   35.3370   30.4140   47.0470 C   0  0  0  0  0  0  0  0  0  0  0  0
   34.4080   29.4080   47.0550 N   0  0  0  0  0  0  0  0  0  0  0  0
   34.4040   28.4630   48.0180 C   0  0  0  0  0  0  0  0  0  0  0  0
   35.3280   28.5000   48.9960 N   0  0  0  0  0  0  0  0  0  0  0  0
   36.9750   29.4540   49.8290 H   0  0  0  0  0  0  0  0  0  0  0  0
   35.3760   31.1780   46.3060 H   0  0  0  0  0  0  0  0  0  0  0  0
   33.4020   27.4120   47.9940 C   0  0  0  0  0  0  0  0  0  0  0  0
   33.7050   26.1820   47.4720 C   0  0  0  0  0  0  0  0  0  0  0  0
   32.7810   25.1560   47.4300 C   0  0  0  0  0  0  0  0  0  0  0  0
   31.5380   25.4490   47.9430 C   0  0  0  0  0  0  0  0  0  0  0  0
   31.1900   26.6800   48.4790 C   0  0  0  0  0  0  0  0  0  0  0  0
   32.1670   27.6300   48.4780 N   0  0  0  0  0  0  0  0  0  0  0  0
   34.7240   26.0410   47.0840 H   0  0  0  0  0  0  0  0  0  0  0  0
   33.0430   24.1950   47.0140 H   0  0  0  0  0  0  0  0  0  0  0  0
   30.8130   24.6330   47.9070 H   0  0  0  0  0  0  0  0  0  0  0  0
   30.2010   26.8650   48.8730 H   0  0  0  0  0  0  0  0  0  0  0  0
   36.2920   32.0450   50.2740 F   0  0  0  0  0  0  0  0  0  0  0  0
   37.2660   32.2250   49.3450 C   0  0  0  0  0  0  0  0  0  0  0  0
   37.3400   31.4580   48.1790 C   0  0  0  0  0  0  0  0  0  0  0  0
   38.3470   31.6760   47.2620 C   0  0  0  0  0  0  0  0  0  0  0  0
   38.3430   31.0360   46.3710 H   0  0  0  0  0  0  0  0  0  0  0  0
   39.3010   32.6540   47.4700 C   0  0  0  0  0  0  0  0  0  0  0  0
   40.0900   32.8080   46.7280 H   0  0  0  0  0  0  0  0  0  0  0  0
   39.2390   33.4300   48.6300 C   0  0  0  0  0  0  0  0  0  0  0  0
   38.2210   33.2110   49.5610 C   0  0  0  0  0  0  0  0  0  0  0  0
  1  7  1  0  0  0  0
  2 21  1  0  0  0  0
  2  1  2  0  0  0  0
  3  4  2  0  0  0  0
  3  2  1  0  0  0  0
  4  5  1  0  0  0  0
  5  6  2  0  0  0  0
  6  1  1  0  0  0  0
  8  3  1  0  0  0  0
  9  5  1  0  0  0  0
  9 14  1  0  0  0  0
 10  9  2  0  0  0  0
 11 10  1  0  0  0  0
 11 12  2  0  0  0  0
 12 13  1  0  0  0  0
 13 18  1  0  0  0  0
 14 13  2  0  0  0  0
 15 10  1  0  0  0  0
 16 11  1  0  0  0  0
 17 12  1  0  0  0  0
 20 27  1  0  0  0  0
 20 19  1  0  0  0  0
 21 20  2  0  0  0  0
 22 24  2  0  0  0  0
 22 21  1  0  0  0  0
 23 22  1  0  0  0  0
 24 26  1  0  0  0  0
 25 24  1  0  0  0  0
 26 27  2  0  0  0  0
M  END
>  <minimizedAffinity>
-5.89620876

>  <minimizedRMSD>
4.01623297

$$$$
