
 OpenBabel03272505013D

 28 30  0  0  0  0  0  0  0  0999 V2000
   38.3200   23.0380   33.2330 Cl  0  0  0  0  0  0  0  0  0  0  0  0
   37.1510   24.0170   32.3730 C   0  0  0  0  0  0  0  0  0  0  0  0
   36.1370   23.4000   31.7150 C   0  0  0  0  0  0  0  0  0  0  0  0
   35.2370   24.2390   31.0460 C   0  0  0  0  0  0  0  0  0  0  0  0
   35.4160   25.6200   31.0860 C   0  0  0  0  0  0  0  0  0  0  0  0
   36.4540   26.2030   31.7610 C   0  0  0  0  0  0  0  0  0  0  0  0
   37.3370   25.3770   32.4170 C   0  0  0  0  0  0  0  0  0  0  0  0
   34.3920   23.8470   30.4910 H   0  0  0  0  0  0  0  0  0  0  0  0
   34.7250   26.2880   30.5710 H   0  0  0  0  0  0  0  0  0  0  0  0
   36.5870   27.2840   31.7860 H   0  0  0  0  0  0  0  0  0  0  0  0
   36.6400   21.1510   30.7580 C   0  0  0  0  0  0  0  0  0  0  0  0
   35.9390   21.9550   31.6670 C   0  0  0  0  0  0  0  0  0  0  0  0
   35.0460   21.3280   32.5250 C   0  0  0  0  0  0  0  0  0  0  0  0
   34.8930   19.9790   32.4450 N   0  0  0  0  0  0  0  0  0  0  0  0
   35.5770   19.2390   31.5660 C   0  0  0  0  0  0  0  0  0  0  0  0
   36.4620   19.8200   30.7080 N   0  0  0  0  0  0  0  0  0  0  0  0
   37.3310   21.6430   30.0950 H   0  0  0  0  0  0  0  0  0  0  0  0
   34.5130   21.9750   33.2220 H   0  0  0  0  0  0  0  0  0  0  0  0
   35.3840   18.1730   31.5820 H   0  0  0  0  0  0  0  0  0  0  0  0
   36.8600   26.1110   35.0020 F   0  0  0  0  0  0  0  0  0  0  0  0
   38.0950   26.3020   34.4540 C   0  0  0  0  0  0  0  0  0  0  0  0
   38.4580   25.9680   33.1500 C   0  0  0  0  0  0  0  0  0  0  0  0
   39.7310   26.2020   32.6980 C   0  0  0  0  0  0  0  0  0  0  0  0
   39.8810   25.9000   31.6720 H   0  0  0  0  0  0  0  0  0  0  0  0
   40.6770   26.7700   33.5200 C   0  0  0  0  0  0  0  0  0  0  0  0
   41.6680   26.9350   33.1160 H   0  0  0  0  0  0  0  0  0  0  0  0
   40.3010   27.0920   34.8020 C   0  0  0  0  0  3  0  0  0  0  0  0
   39.0290   26.8750   35.3030 C   0  0  0  0  0  3  0  0  0  0  0  0
  2  7  1  0  0  0  0
  2  1  1  0  0  0  0
  3  2  2  0  0  0  0
  4  5  2  0  0  0  0
  4  3  1  0  0  0  0
  5  6  1  0  0  0  0
  6 10  1  0  0  0  0
  6  7  2  0  0  0  0
  7 22  1  0  0  0  0
  8  4  1  0  0  0  0
  9  5  1  0  0  0  0
 11 12  1  0  0  0  0
 12  3  1  0  0  0  0
 12 13  2  0  0  0  0
 13 18  1  0  0  0  0
 14 13  1  0  0  0  0
 15 19  1  0  0  0  0
 15 14  2  0  0  0  0
 16 11  2  0  0  0  0
 16 15  1  0  0  0  0
 17 11  1  0  0  0  0
 21 20  1  0  0  0  0
 21 28  1  0  0  0  0
 22 21  2  0  0  0  0
 23 22  1  0  0  0  0
 23 25  2  0  0  0  0
 24 23  1  0  0  0  0
 25 27  1  0  0  0  0
 26 25  1  0  0  0  0
 27 28  2  0  0  0  0
M  END
>  <minimizedAffinity>
-5.37528515

$$$$

 OpenBabel03272505013D

 28 30  0  0  0  0  0  0  0  0999 V2000
   36.4710   28.1470   34.8250 Cl  0  0  0  0  0  0  0  0  0  0  0  0
   36.1850   28.9070   33.2750 C   0  0  0  0  0  0  0  0  0  0  0  0
   36.6000   28.2740   32.1480 C   0  0  0  0  0  0  0  0  0  0  0  0
   36.3420   28.9350   30.9400 C   0  0  0  0  0  0  0  0  0  0  0  0
   35.6950   30.1680   30.9500 C   0  0  0  0  0  0  0  0  0  0  0  0
   35.2920   30.7730   32.1090 C   0  0  0  0  0  0  0  0  0  0  0  0
   35.5460   30.1220   33.2940 C   0  0  0  0  0  0  0  0  0  0  0  0
   36.6330   28.5160   29.9840 H   0  0  0  0  0  0  0  0  0  0  0  0
   35.4860   30.6970   30.0190 H   0  0  0  0  0  0  0  0  0  0  0  0
   34.7860   31.7380   32.1080 H   0  0  0  0  0  0  0  0  0  0  0  0
   36.5620   25.7800   32.0810 C   0  0  0  0  0  0  0  0  0  0  0  0
   37.2800   26.9830   32.1260 C   0  0  0  0  0  0  0  0  0  0  0  0
   38.6660   26.9050   32.1500 C   0  0  0  0  0  0  0  0  0  0  0  0
   39.2560   25.6800   32.1290 N   0  0  0  0  0  0  0  0  0  0  0  0
   38.5440   24.5500   32.0860 C   0  0  0  0  0  0  0  0  0  0  0  0
   37.1810   24.5880   32.0610 N   0  0  0  0  0  0  0  0  0  0  0  0
   35.4880   25.8470   32.0630 H   0  0  0  0  0  0  0  0  0  0  0  0
   39.2010   27.8540   32.1860 H   0  0  0  0  0  0  0  0  0  0  0  0
   39.1080   23.6260   32.0720 H   0  0  0  0  0  0  0  0  0  0  0  0
   33.0150   29.5700   34.1510 F   0  0  0  0  0  0  0  0  0  0  0  0
   33.8220   30.3880   34.8860 C   0  0  0  0  0  0  0  0  0  0  0  0
   35.1290   30.7420   34.5530 C   0  0  0  0  0  0  0  0  0  0  0  0
   35.8560   31.5730   35.3660 C   0  0  0  0  0  0  0  0  0  0  0  0
   36.8500   31.7680   34.9940 H   0  0  0  0  0  0  0  0  0  0  0  0
   35.3130   32.0750   36.5260 C   0  0  0  0  0  0  0  0  0  0  0  0
   35.9270   32.7280   37.1340 H   0  0  0  0  0  0  0  0  0  0  0  0
   34.0240   31.7150   36.8380 C   0  0  0  0  0  3  0  0  0  0  0  0
   33.2510   30.8800   36.0500 C   0  0  0  0  0  3  0  0  0  0  0  0
  2  7  1  0  0  0  0
  2  1  1  0  0  0  0
  3  2  2  0  0  0  0
  4  5  2  0  0  0  0
  4  3  1  0  0  0  0
  5  6  1  0  0  0  0
  6  7  2  0  0  0  0
  7 22  1  0  0  0  0
  8  4  1  0  0  0  0
  9  5  1  0  0  0  0
 10  6  1  0  0  0  0
 11 12  1  0  0  0  0
 12  3  1  0  0  0  0
 12 13  2  0  0  0  0
 13 18  1  0  0  0  0
 14 13  1  0  0  0  0
 15 14  2  0  0  0  0
 16 11  2  0  0  0  0
 16 15  1  0  0  0  0
 17 11  1  0  0  0  0
 19 15  1  0  0  0  0
 20 21  1  0  0  0  0
 21 28  1  0  0  0  0
 22 21  2  0  0  0  0
 22 23  1  0  0  0  0
 23 25  2  0  0  0  0
 24 23  1  0  0  0  0
 25 27  1  0  0  0  0
 25 26  1  0  0  0  0
 28 27  2  0  0  0  0
M  END
>  <minimizedAffinity>
-5.25903082

$$$$

 OpenBabel03272505013D

 28 30  0  0  0  0  0  0  0  0999 V2000
   38.1420   23.2000   34.0460 Cl  0  0  0  0  0  0  0  0  0  0  0  0
   39.0040   24.7220   33.9920 C   0  0  0  0  0  0  0  0  0  0  0  0
   38.5390   25.7100   33.1850 C   0  0  0  0  0  0  0  0  0  0  0  0
   39.2740   26.9030   33.1870 C   0  0  0  0  0  0  0  0  0  0  0  0
   40.4080   27.0170   33.9880 C   0  0  0  0  0  0  0  0  0  0  0  0
   40.8430   25.9950   34.7880 C   0  0  0  0  0  0  0  0  0  0  0  0
   40.1200   24.8250   34.7840 C   0  0  0  0  0  0  0  0  0  0  0  0
   38.9870   27.7530   32.5790 H   0  0  0  0  0  0  0  0  0  0  0  0
   40.9910   27.9370   34.0020 H   0  0  0  0  0  0  0  0  0  0  0  0
   41.7320   26.0930   35.4110 H   0  0  0  0  0  0  0  0  0  0  0  0
   36.4240   26.6470   32.2480 C   0  0  0  0  0  0  0  0  0  0  0  0
   37.3520   25.6020   32.3420 C   0  0  0  0  0  0  0  0  0  0  0  0
   37.1040   24.4520   31.6040 C   0  0  0  0  0  0  0  0  0  0  0  0
   35.9850   24.3950   30.8320 N   0  0  0  0  0  0  0  0  0  0  0  0
   35.1190   25.4100   30.7640 C   0  0  0  0  0  0  0  0  0  0  0  0
   35.3300   26.5540   31.4750 N   0  0  0  0  0  0  0  0  0  0  0  0
   36.6230   27.5350   32.8230 H   0  0  0  0  0  0  0  0  0  0  0  0
   37.8400   23.6540   31.6950 H   0  0  0  0  0  0  0  0  0  0  0  0
   34.2590   25.2660   30.1200 H   0  0  0  0  0  0  0  0  0  0  0  0
   38.7480   24.4380   37.1110 F   0  0  0  0  0  0  0  0  0  0  0  0
   39.7860   23.6150   36.7850 C   0  0  0  0  0  0  0  0  0  0  0  0
   40.5590   23.7120   35.6280 C   0  0  0  0  0  0  0  0  0  0  0  0
   41.5820   22.8300   35.3960 C   0  0  0  0  0  0  0  0  0  0  0  0
   42.1010   23.0150   34.4670 H   0  0  0  0  0  0  0  0  0  0  0  0
   41.8680   21.8310   36.2970 C   0  0  0  0  0  0  0  0  0  0  0  0
   42.6860   21.1590   36.0680 H   0  0  0  0  0  0  0  0  0  0  0  0
   41.0960   21.7500   37.4310 C   0  0  0  0  0  3  0  0  0  0  0  0
   40.0540   22.6170   37.7090 C   0  0  0  0  0  3  0  0  0  0  0  0
  2  1  1  0  0  0  0
  2  7  1  0  0  0  0
  3  4  1  0  0  0  0
  3  2  2  0  0  0  0
  4  5  2  0  0  0  0
  5  9  1  0  0  0  0
  5  6  1  0  0  0  0
  6 10  1  0  0  0  0
  7  6  2  0  0  0  0
  7 22  1  0  0  0  0
  8  4  1  0  0  0  0
 11 12  1  0  0  0  0
 11 17  1  0  0  0  0
 12  3  1  0  0  0  0
 13 18  1  0  0  0  0
 13 12  2  0  0  0  0
 14 13  1  0  0  0  0
 15 14  2  0  0  0  0
 15 16  1  0  0  0  0
 16 11  2  0  0  0  0
 19 15  1  0  0  0  0
 21 20  1  0  0  0  0
 21 28  1  0  0  0  0
 22 21  2  0  0  0  0
 23 22  1  0  0  0  0
 23 25  2  0  0  0  0
 24 23  1  0  0  0  0
 25 27  1  0  0  0  0
 26 25  1  0  0  0  0
 27 28  2  0  0  0  0
M  END
>  <minimizedAffinity>
-5.20763874

$$$$

 OpenBabel03272505013D

 28 30  0  0  0  0  0  0  0  0999 V2000
   37.2500   25.5600   33.0860 Cl  0  0  0  0  0  0  0  0  0  0  0  0
   38.8760   26.1430   33.3700 C   0  0  0  0  0  0  0  0  0  0  0  0
   39.3970   27.0690   32.5260 C   0  0  0  0  0  0  0  0  0  0  0  0
   40.7010   27.4940   32.8070 C   0  0  0  0  0  0  0  0  0  0  0  0
   41.3810   26.9650   33.9030 C   0  0  0  0  0  0  0  0  0  0  0  0
   40.8190   26.0320   34.7310 C   0  0  0  0  0  0  0  0  0  0  0  0
   39.5380   25.6160   34.4510 C   0  0  0  0  0  0  0  0  0  0  0  0
   41.2090   28.2300   32.1950 H   0  0  0  0  0  0  0  0  0  0  0  0
   42.3970   27.2850   34.1370 H   0  0  0  0  0  0  0  0  0  0  0  0
   41.3570   25.6230   35.5850 H   0  0  0  0  0  0  0  0  0  0  0  0
   39.1630   27.4390   30.0680 C   0  0  0  0  0  0  0  0  0  0  0  0
   38.6940   27.6290   31.3750 C   0  0  0  0  0  0  0  0  0  0  0  0
   37.5340   28.3730   31.5410 C   0  0  0  0  0  0  0  0  0  0  0  0
   36.9130   28.8760   30.4400 N   0  0  0  0  0  0  0  0  0  0  0  0
   37.3850   28.6770   29.2070 C   0  0  0  0  0  0  0  0  0  0  0  0
   38.5220   27.9520   29.0060 N   0  0  0  0  0  0  0  0  0  0  0  0
   40.0640   26.8620   29.9470 H   0  0  0  0  0  0  0  0  0  0  0  0
   37.1910   28.5070   32.5660 H   0  0  0  0  0  0  0  0  0  0  0  0
   36.8170   29.1200   28.3970 H   0  0  0  0  0  0  0  0  0  0  0  0
   38.2710   26.5530   36.6800 F   0  0  0  0  0  0  0  0  0  0  0  0
   38.2940   25.2140   36.4200 C   0  0  0  0  0  0  0  0  0  0  0  0
   38.9060   24.6180   35.3170 C   0  0  0  0  0  0  0  0  0  0  0  0
   38.8690   23.2580   35.1480 C   0  0  0  0  0  0  0  0  0  0  0  0
   39.3810   22.9260   34.2580 H   0  0  0  0  0  0  0  0  0  0  0  0
   38.2290   22.4530   36.0610 C   0  0  0  0  0  0  0  0  0  0  0  0
   38.2280   21.3840   35.8840 H   0  0  0  0  0  0  0  0  0  0  0  0
   37.6310   23.0570   37.1410 C   0  0  0  0  0  3  0  0  0  0  0  0
   37.6420   24.4250   37.3540 C   0  0  0  0  0  3  0  0  0  0  0  0
  1  2  1  0  0  0  0
  2  7  1  0  0  0  0
  3  4  1  0  0  0  0
  3  2  2  0  0  0  0
  4  5  2  0  0  0  0
  5  9  1  0  0  0  0
  5  6  1  0  0  0  0
  6 10  1  0  0  0  0
  7  6  2  0  0  0  0
  7 22  1  0  0  0  0
  8  4  1  0  0  0  0
 11 12  1  0  0  0  0
 12 13  2  0  0  0  0
 12  3  1  0  0  0  0
 13 18  1  0  0  0  0
 14 13  1  0  0  0  0
 15 14  2  0  0  0  0
 16 15  1  0  0  0  0
 16 11  2  0  0  0  0
 17 11  1  0  0  0  0
 19 15  1  0  0  0  0
 21 20  1  0  0  0  0
 21 28  1  0  0  0  0
 22 21  2  0  0  0  0
 23 22  1  0  0  0  0
 23 25  2  0  0  0  0
 24 23  1  0  0  0  0
 25 27  1  0  0  0  0
 26 25  1  0  0  0  0
 27 28  2  0  0  0  0
M  END
>  <minimizedAffinity>
-5.07294083

$$$$

 OpenBabel03272505013D

 28 30  0  0  0  0  0  0  0  0999 V2000
   38.1850   22.4860   33.6230 Cl  0  0  0  0  0  0  0  0  0  0  0  0
   37.1460   23.5210   32.6690 C   0  0  0  0  0  0  0  0  0  0  0  0
   37.3540   24.8620   32.6950 C   0  0  0  0  0  0  0  0  0  0  0  0
   36.4890   25.6360   31.9110 C   0  0  0  0  0  0  0  0  0  0  0  0
   35.4880   25.0150   31.1660 C   0  0  0  0  0  0  0  0  0  0  0  0
   35.3110   23.6580   31.1670 C   0  0  0  0  0  0  0  0  0  0  0  0
   36.1630   22.9010   31.9380 C   0  0  0  0  0  0  0  0  0  0  0  0
   36.5700   26.7150   31.8620 H   0  0  0  0  0  0  0  0  0  0  0  0
   34.8060   25.6010   30.5500 H   0  0  0  0  0  0  0  0  0  0  0  0
   34.5260   23.1810   30.5820 H   0  0  0  0  0  0  0  0  0  0  0  0
   39.6920   25.6950   32.9600 C   0  0  0  0  0  0  0  0  0  0  0  0
   38.3990   25.5230   33.4720 C   0  0  0  0  0  0  0  0  0  0  0  0
   38.1430   26.0030   34.7490 C   0  0  0  0  0  0  0  0  0  0  0  0
   39.1470   26.6110   35.4360 N   0  0  0  0  0  0  0  0  0  0  0  0
   40.3700   26.7600   34.9200 C   0  0  0  0  0  0  0  0  0  0  0  0
   40.6590   26.3010   33.6700 N   0  0  0  0  0  0  0  0  0  0  0  0
   39.8840   25.3200   31.9700 H   0  0  0  0  0  0  0  0  0  0  0  0
   37.1310   25.8570   35.1240 H   0  0  0  0  0  0  0  0  0  0  0  0
   41.1000   27.2580   35.5480 H   0  0  0  0  0  0  0  0  0  0  0  0
   37.6680   21.4720   30.1670 F   0  0  0  0  0  0  0  0  0  0  0  0
   36.8180   20.8270   31.0160 C   0  0  0  0  0  0  0  0  0  0  0  0
   36.0010   21.4460   31.9620 C   0  0  0  0  0  0  0  0  0  0  0  0
   35.1810   20.7020   32.7710 C   0  0  0  0  0  0  0  0  0  0  0  0
   34.6020   21.3020   33.4570 H   0  0  0  0  0  0  0  0  0  0  0  0
   35.1460   19.3310   32.6670 C   0  0  0  0  0  0  0  0  0  0  0  0
   34.4810   18.7880   33.3280 H   0  0  0  0  0  0  0  0  0  0  0  0
   35.9570   18.7380   31.7290 C   0  0  0  0  0  3  0  0  0  0  0  0
   36.8010   19.4460   30.8920 C   0  0  0  0  0  3  0  0  0  0  0  0
  2  3  1  0  0  0  0
  2  1  1  0  0  0  0
  3 12  1  0  0  0  0
  4  3  2  0  0  0  0
  5  6  2  0  0  0  0
  5  4  1  0  0  0  0
  6  7  1  0  0  0  0
  7 22  1  0  0  0  0
  7  2  2  0  0  0  0
  8  4  1  0  0  0  0
  9  5  1  0  0  0  0
 10  6  1  0  0  0  0
 11 12  2  0  0  0  0
 11 16  1  0  0  0  0
 12 13  1  0  0  0  0
 13 18  1  0  0  0  0
 13 14  2  0  0  0  0
 15 14  1  0  0  0  0
 15 19  1  0  0  0  0
 16 15  2  0  0  0  0
 17 11  1  0  0  0  0
 20 21  1  0  0  0  0
 21 22  1  0  0  0  0
 22 23  2  0  0  0  0
 23 24  1  0  0  0  0
 25 23  1  0  0  0  0
 25 26  1  0  0  0  0
 27 25  2  0  0  0  0
 28 21  2  0  0  0  0
 28 27  1  0  0  0  0
M  END
>  <minimizedAffinity>
-5.05597019

$$$$

 OpenBabel03272505013D

 28 30  0  0  0  0  0  0  0  0999 V2000
   39.1260   24.1100   35.0040 Cl  0  0  0  0  0  0  0  0  0  0  0  0
   40.5830   25.0370   34.7190 C   0  0  0  0  0  0  0  0  0  0  0  0
   41.7850   24.4740   35.0030 C   0  0  0  0  0  0  0  0  0  0  0  0
   42.9110   25.2680   34.7530 C   0  0  0  0  0  0  0  0  0  0  0  0
   42.7530   26.5540   34.2420 C   0  0  0  0  0  0  0  0  0  0  0  0
   41.5220   27.0850   33.9690 C   0  0  0  0  0  0  0  0  0  0  0  0
   40.4170   26.3030   34.2160 C   0  0  0  0  0  0  0  0  0  0  0  0
   43.9170   24.9120   34.9460 H   0  0  0  0  0  0  0  0  0  0  0  0
   43.6180   27.1860   34.0420 H   0  0  0  0  0  0  0  0  0  0  0  0
   41.4060   28.0920   33.5700 H   0  0  0  0  0  0  0  0  0  0  0  0
   41.6250   22.8170   36.8630 C   0  0  0  0  0  0  0  0  0  0  0  0
   41.9620   23.1280   35.5390 C   0  0  0  0  0  0  0  0  0  0  0  0
   42.4750   22.1080   34.7490 C   0  0  0  0  0  0  0  0  0  0  0  0
   42.6230   20.8680   35.2910 N   0  0  0  0  0  0  0  0  0  0  0  0
   42.2920   20.6040   36.5570 C   0  0  0  0  0  0  0  0  0  0  0  0
   41.7860   21.5810   37.3630 N   0  0  0  0  0  0  0  0  0  0  0  0
   41.2290   23.6130   37.4700 H   0  0  0  0  0  0  0  0  0  0  0  0
   42.7300   22.3740   33.7240 H   0  0  0  0  0  0  0  0  0  0  0  0
   42.4490   19.5860   36.8930 H   0  0  0  0  0  0  0  0  0  0  0  0
   39.0480   27.3540   36.3300 F   0  0  0  0  0  0  0  0  0  0  0  0
   38.4860   27.3480   35.0880 C   0  0  0  0  0  0  0  0  0  0  0  0
   39.0840   26.8420   33.9340 C   0  0  0  0  0  0  0  0  0  0  0  0
   38.4300   26.8860   32.7300 C   0  0  0  0  0  0  0  0  0  0  0  0
   39.0020   26.4610   31.9190 H   0  0  0  0  0  0  0  0  0  0  0  0
   37.1700   27.4300   32.6340 C   0  0  0  0  0  0  0  0  0  0  0  0
   36.6950   27.4420   31.6610 H   0  0  0  0  0  0  0  0  0  0  0  0
   36.5960   27.9250   33.7810 C   0  0  0  0  0  3  0  0  0  0  0  0
   37.2170   27.9020   35.0170 C   0  0  0  0  0  3  0  0  0  0  0  0
  2  3  1  0  0  0  0
  2  1  1  0  0  0  0
  3 12  1  0  0  0  0
  4  8  1  0  0  0  0
  4  3  2  0  0  0  0
  5  4  1  0  0  0  0
  6  7  1  0  0  0  0
  6  5  2  0  0  0  0
  7  2  2  0  0  0  0
  9  5  1  0  0  0  0
 10  6  1  0  0  0  0
 11 16  1  0  0  0  0
 11 17  1  0  0  0  0
 12 11  2  0  0  0  0
 13 14  2  0  0  0  0
 13 12  1  0  0  0  0
 14 15  1  0  0  0  0
 15 19  1  0  0  0  0
 15 16  2  0  0  0  0
 18 13  1  0  0  0  0
 21 20  1  0  0  0  0
 22  7  1  0  0  0  0
 22 21  2  0  0  0  0
 23 22  1  0  0  0  0
 24 23  1  0  0  0  0
 25 23  2  0  0  0  0
 25 27  1  0  0  0  0
 26 25  1  0  0  0  0
 27 28  2  0  0  0  0
 28 21  1  0  0  0  0
M  END
>  <minimizedAffinity>
-4.99346066

$$$$

 OpenBabel03272505013D

 28 30  0  0  0  0  0  0  0  0999 V2000
   35.3900   24.6000   30.9140 Cl  0  0  0  0  0  0  0  0  0  0  0  0
   36.7290   24.6500   32.0400 C   0  0  0  0  0  0  0  0  0  0  0  0
   37.2830   25.8500   32.3480 C   0  0  0  0  0  0  0  0  0  0  0  0
   38.3500   25.8220   33.2540 C   0  0  0  0  0  0  0  0  0  0  0  0
   38.7800   24.6050   33.7800 C   0  0  0  0  0  0  0  0  0  0  0  0
   38.1940   23.4150   33.4440 C   0  0  0  0  0  0  0  0  0  0  0  0
   37.1450   23.4460   32.5530 C   0  0  0  0  0  0  0  0  0  0  0  0
   38.8620   26.7250   33.5650 H   0  0  0  0  0  0  0  0  0  0  0  0
   39.6090   24.5640   34.4860 H   0  0  0  0  0  0  0  0  0  0  0  0
   38.5360   22.4690   33.8590 H   0  0  0  0  0  0  0  0  0  0  0  0
   35.9680   27.9650   32.5130 C   0  0  0  0  0  0  0  0  0  0  0  0
   36.8410   27.1300   31.8020 C   0  0  0  0  0  0  0  0  0  0  0  0
   37.2720   27.5610   30.5560 C   0  0  0  0  0  0  0  0  0  0  0  0
   36.8340   28.7620   30.0870 N   0  0  0  0  0  0  0  0  0  0  0  0
   36.0020   29.5360   30.7900 C   0  0  0  0  0  0  0  0  0  0  0  0
   35.5570   29.1440   32.0170 N   0  0  0  0  0  0  0  0  0  0  0  0
   35.6370   27.6240   33.4790 H   0  0  0  0  0  0  0  0  0  0  0  0
   37.9490   26.8940   30.0230 H   0  0  0  0  0  0  0  0  0  0  0  0
   35.7120   30.4720   30.3290 H   0  0  0  0  0  0  0  0  0  0  0  0
   38.2370   22.0910   30.4510 F   0  0  0  0  0  0  0  0  0  0  0  0
   37.1400   21.5920   31.0900 C   0  0  0  0  0  0  0  0  0  0  0  0
   36.4960   22.1910   32.1720 C   0  0  0  0  0  0  0  0  0  0  0  0
   35.3970   21.6020   32.7440 C   0  0  0  0  0  0  0  0  0  0  0  0
   34.9940   22.1680   33.5710 H   0  0  0  0  0  0  0  0  0  0  0  0
   34.9070   20.4110   32.2630 C   0  0  0  0  0  0  0  0  0  0  0  0
   34.0360   19.9860   32.7480 H   0  0  0  0  0  0  0  0  0  0  0  0
   35.5540   19.8350   31.1960 C   0  0  0  0  0  3  0  0  0  0  0  0
   36.6660   20.3910   30.5860 C   0  0  0  0  0  3  0  0  0  0  0  0
  1  2  1  0  0  0  0
  2  3  2  0  0  0  0
  2  7  1  0  0  0  0
  3  4  1  0  0  0  0
  4  8  1  0  0  0  0
  4  5  2  0  0  0  0
  5  9  1  0  0  0  0
  6  5  1  0  0  0  0
  6 10  1  0  0  0  0
  7  6  2  0  0  0  0
 11 17  1  0  0  0  0
 12  3  1  0  0  0  0
 12 11  2  0  0  0  0
 13 12  1  0  0  0  0
 14 13  2  0  0  0  0
 14 15  1  0  0  0  0
 15 16  2  0  0  0  0
 16 11  1  0  0  0  0
 18 13  1  0  0  0  0
 19 15  1  0  0  0  0
 20 21  1  0  0  0  0
 21 22  1  0  0  0  0
 22  7  1  0  0  0  0
 22 23  2  0  0  0  0
 23 24  1  0  0  0  0
 25 23  1  0  0  0  0
 25 26  1  0  0  0  0
 27 25  2  0  0  0  0
 28 21  2  0  0  0  0
 28 27  1  0  0  0  0
M  END
>  <minimizedAffinity>
-4.91063929

$$$$

 OpenBabel03272505013D

 28 30  0  0  0  0  0  0  0  0999 V2000
   38.0800   27.2040   33.5310 Cl  0  0  0  0  0  0  0  0  0  0  0  0
   37.1830   25.9890   32.6470 C   0  0  0  0  0  0  0  0  0  0  0  0
   37.4750   24.6790   32.8540 C   0  0  0  0  0  0  0  0  0  0  0  0
   36.7230   23.7570   32.1160 C   0  0  0  0  0  0  0  0  0  0  0  0
   35.7440   24.2090   31.2340 C   0  0  0  0  0  0  0  0  0  0  0  0
   35.4800   25.5400   31.0540 C   0  0  0  0  0  0  0  0  0  0  0  0
   36.2210   26.4440   31.7800 C   0  0  0  0  0  0  0  0  0  0  0  0
   36.8770   22.6880   32.2080 H   0  0  0  0  0  0  0  0  0  0  0  0
   35.1490   23.5050   30.6520 H   0  0  0  0  0  0  0  0  0  0  0  0
   34.7140   25.8850   30.3610 H   0  0  0  0  0  0  0  0  0  0  0  0
   38.2100   23.9490   35.1250 C   0  0  0  0  0  0  0  0  0  0  0  0
   38.4980   24.1950   33.7760 C   0  0  0  0  0  0  0  0  0  0  0  0
   39.7960   23.9610   33.3420 C   0  0  0  0  0  0  0  0  0  0  0  0
   40.7170   23.5100   34.2360 N   0  0  0  0  0  0  0  0  0  0  0  0
   40.4100   23.2850   35.5170 C   0  0  0  0  0  0  0  0  0  0  0  0
   39.1460   23.5030   35.9780 N   0  0  0  0  0  0  0  0  0  0  0  0
   37.2020   24.1330   35.4540 H   0  0  0  0  0  0  0  0  0  0  0  0
   39.9950   24.1600   32.2890 H   0  0  0  0  0  0  0  0  0  0  0  0
   41.2150   22.9270   36.1480 H   0  0  0  0  0  0  0  0  0  0  0  0
   37.5750   27.7020   29.7720 F   0  0  0  0  0  0  0  0  0  0  0  0
   36.7110   28.4060   30.5580 C   0  0  0  0  0  0  0  0  0  0  0  0
   35.9650   27.8750   31.6110 C   0  0  0  0  0  0  0  0  0  0  0  0
   35.1210   28.6730   32.3400 C   0  0  0  0  0  0  0  0  0  0  0  0
   34.6050   28.1400   33.1250 H   0  0  0  0  0  0  0  0  0  0  0  0
   34.9930   30.0110   32.0510 C   0  0  0  0  0  0  0  0  0  0  0  0
   34.3150   30.6000   32.6570 H   0  0  0  0  0  0  0  0  0  0  0  0
   35.7360   30.5170   31.0110 C   0  0  0  0  0  3  0  0  0  0  0  0
   36.5990   29.7520   30.2460 C   0  0  0  0  0  3  0  0  0  0  0  0
  2  3  1  0  0  0  0
  2  1  1  0  0  0  0
  3 12  1  0  0  0  0
  4  8  1  0  0  0  0
  4  3  2  0  0  0  0
  5  4  1  0  0  0  0
  6  5  2  0  0  0  0
  6  7  1  0  0  0  0
  7  2  2  0  0  0  0
  9  5  1  0  0  0  0
 10  6  1  0  0  0  0
 11 17  1  0  0  0  0
 11 16  1  0  0  0  0
 12 11  2  0  0  0  0
 13 12  1  0  0  0  0
 13 14  2  0  0  0  0
 14 15  1  0  0  0  0
 15 16  2  0  0  0  0
 15 19  1  0  0  0  0
 18 13  1  0  0  0  0
 20 21  1  0  0  0  0
 21 22  1  0  0  0  0
 22  7  1  0  0  0  0
 22 23  2  0  0  0  0
 23 24  1  0  0  0  0
 25 23  1  0  0  0  0
 25 26  1  0  0  0  0
 27 25  2  0  0  0  0
 28 21  2  0  0  0  0
 28 27  1  0  0  0  0
M  END
>  <minimizedAffinity>
-4.85807943

$$$$

 OpenBabel03272505013D

 28 30  0  0  0  0  0  0  0  0999 V2000
   39.1280   25.4340   34.2570 Cl  0  0  0  0  0  0  0  0  0  0  0  0
   38.1490   24.1230   33.6380 C   0  0  0  0  0  0  0  0  0  0  0  0
   37.3950   24.3350   32.5300 C   0  0  0  0  0  0  0  0  0  0  0  0
   36.6340   23.2460   32.0860 C   0  0  0  0  0  0  0  0  0  0  0  0
   36.6840   22.0380   32.7770 C   0  0  0  0  0  0  0  0  0  0  0  0
   37.4580   21.8650   33.8920 C   0  0  0  0  0  0  0  0  0  0  0  0
   38.2040   22.9360   34.3260 C   0  0  0  0  0  0  0  0  0  0  0  0
   35.9980   23.3100   31.2100 H   0  0  0  0  0  0  0  0  0  0  0  0
   36.0980   21.1800   32.4450 H   0  0  0  0  0  0  0  0  0  0  0  0
   37.4910   20.9170   34.4270 H   0  0  0  0  0  0  0  0  0  0  0  0
   38.3410   25.9660   30.8950 C   0  0  0  0  0  0  0  0  0  0  0  0
   37.3350   25.5960   31.7980 C   0  0  0  0  0  0  0  0  0  0  0  0
   36.2750   26.4740   31.9750 C   0  0  0  0  0  0  0  0  0  0  0  0
   36.2610   27.6390   31.2720 N   0  0  0  0  0  0  0  0  0  0  0  0
   37.2360   27.9620   30.4170 C   0  0  0  0  0  0  0  0  0  0  0  0
   38.2930   27.1250   30.2180 N   0  0  0  0  0  0  0  0  0  0  0  0
   39.1610   25.2800   30.7630 H   0  0  0  0  0  0  0  0  0  0  0  0
   35.5060   26.1650   32.6820 H   0  0  0  0  0  0  0  0  0  0  0  0
   37.1320   28.9120   29.9060 H   0  0  0  0  0  0  0  0  0  0  0  0
   37.0810   23.6330   36.7140 F   0  0  0  0  0  0  0  0  0  0  0  0
   38.3640   23.1710   36.6720 C   0  0  0  0  0  0  0  0  0  0  0  0
   39.0440   22.7850   35.5160 C   0  0  0  0  0  0  0  0  0  0  0  0
   40.3360   22.3320   35.5850 C   0  0  0  0  0  0  0  0  0  0  0  0
   40.7450   22.0670   34.6220 H   0  0  0  0  0  0  0  0  0  0  0  0
   40.9900   22.2490   36.7920 C   0  0  0  0  0  0  0  0  0  0  0  0
   42.0100   21.8860   36.7940 H   0  0  0  0  0  0  0  0  0  0  0  0
   40.3050   22.6340   37.9200 C   0  0  0  0  0  3  0  0  0  0  0  0
   39.0000   23.0970   37.9010 C   0  0  0  0  0  3  0  0  0  0  0  0
  2  1  1  0  0  0  0
  2  7  1  0  0  0  0
  3  2  2  0  0  0  0
  4  3  1  0  0  0  0
  4  5  2  0  0  0  0
  5  6  1  0  0  0  0
  6  7  2  0  0  0  0
  6 10  1  0  0  0  0
  7 22  1  0  0  0  0
  8  4  1  0  0  0  0
  9  5  1  0  0  0  0
 11 12  1  0  0  0  0
 12 13  2  0  0  0  0
 12  3  1  0  0  0  0
 13 18  1  0  0  0  0
 14 13  1  0  0  0  0
 15 14  2  0  0  0  0
 16 15  1  0  0  0  0
 16 11  2  0  0  0  0
 17 11  1  0  0  0  0
 19 15  1  0  0  0  0
 21 20  1  0  0  0  0
 21 28  1  0  0  0  0
 22 23  1  0  0  0  0
 22 21  2  0  0  0  0
 23 25  2  0  0  0  0
 24 23  1  0  0  0  0
 25 26  1  0  0  0  0
 25 27  1  0  0  0  0
 28 27  2  0  0  0  0
M  END
>  <minimizedAffinity>
-4.85784101

$$$$
