
 OpenBabel03272504493D

 27 29  0  0  0  0  0  0  0  0999 V2000
   37.1200   26.2480   33.4300 C   0  0  0  0  0  0  0  0  0  0  0  0
   37.0440   27.5820   33.8280 C   0  0  0  0  0  0  0  0  0  0  0  0
   37.5320   27.9060   35.0880 C   0  0  0  0  0  0  0  0  0  0  0  0
   38.0590   26.9150   35.8730 N   0  0  0  0  0  0  0  0  0  0  0  0
   38.1120   25.6360   35.4480 C   0  0  0  0  0  0  0  0  0  0  0  0
   37.6420   25.3150   34.2280 N   0  0  0  0  0  0  0  0  0  0  0  0
   36.7540   25.9490   32.4590 H   0  0  0  0  0  0  0  0  0  0  0  0
   37.4700   28.9270   35.3850 H   0  0  0  0  0  0  0  0  0  0  0  0
   38.6790   24.6130   36.3070 C   0  0  0  0  0  0  0  0  0  0  0  0
   38.1250   24.3590   37.5350 C   0  0  0  0  0  0  0  0  0  0  0  0
   38.6340   23.3950   38.3830 C   0  0  0  0  0  0  0  0  0  0  0  0
   39.7320   22.7080   37.9180 C   0  0  0  0  0  0  0  0  0  0  0  0
   40.3230   22.9330   36.6840 C   0  0  0  0  0  0  0  0  0  0  0  0
   39.7520   23.9030   35.9160 N   0  0  0  0  0  0  0  0  0  0  0  0
   37.2500   24.9590   37.8220 H   0  0  0  0  0  0  0  0  0  0  0  0
   38.1810   23.2130   39.3460 H   0  0  0  0  0  0  0  0  0  0  0  0
   40.1280   21.9470   38.5950 H   0  0  0  0  0  0  0  0  0  0  0  0
   41.1850   22.3680   36.3590 H   0  0  0  0  0  0  0  0  0  0  0  0
   34.7790   28.9110   34.5730 F   0  0  0  0  0  0  0  0  0  0  0  0
   35.3030   29.1560   33.3450 C   0  0  0  0  0  0  0  0  0  0  0  0
   36.4580   28.5190   32.8840 C   0  0  0  0  0  0  0  0  0  0  0  0
   36.9560   28.7970   31.6280 C   0  0  0  0  0  0  0  0  0  0  0  0
   37.8660   28.2600   31.3330 H   0  0  0  0  0  0  0  0  0  0  0  0
   36.3280   29.7060   30.7980 C   0  0  0  0  0  0  0  0  0  0  0  0
   36.7420   29.9110   29.8060 H   0  0  0  0  0  0  0  0  0  0  0  0
   35.1720   30.3510   31.2450 C   0  0  0  0  0  3  0  0  0  0  0  0
   34.6660   30.0710   32.5170 C   0  0  0  0  0  3  0  0  0  0  0  0
  1  2  2  0  0  0  0
  1  6  1  0  0  0  0
  2  3  1  0  0  0  0
  3  8  1  0  0  0  0
  3  4  2  0  0  0  0
  5  4  1  0  0  0  0
  5  9  1  0  0  0  0
  6  5  2  0  0  0  0
  7  1  1  0  0  0  0
  9 10  1  0  0  0  0
 10 15  1  0  0  0  0
 10 11  2  0  0  0  0
 11 16  1  0  0  0  0
 12 11  1  0  0  0  0
 12 17  1  0  0  0  0
 13 12  2  0  0  0  0
 14  9  2  0  0  0  0
 14 13  1  0  0  0  0
 18 13  1  0  0  0  0
 20 19  1  0  0  0  0
 21 20  1  0  0  0  0
 21  2  1  0  0  0  0
 22 21  2  0  0  0  0
 23 22  1  0  0  0  0
 24 26  2  0  0  0  0
 24 22  1  0  0  0  0
 25 24  1  0  0  0  0
 26 27  1  0  0  0  0
 27 20  2  0  0  0  0
M  END
>  <minimizedAffinity>
-5.51049757

$$$$

 OpenBabel03272504493D

 27 29  0  0  0  0  0  0  0  0999 V2000
   37.3250   27.6920   34.8610 C   0  0  0  0  0  0  0  0  0  0  0  0
   36.9160   27.3410   33.5750 C   0  0  0  0  0  0  0  0  0  0  0  0
   37.1100   26.0240   33.1760 C   0  0  0  0  0  0  0  0  0  0  0  0
   37.6850   25.1410   34.0510 N   0  0  0  0  0  0  0  0  0  0  0  0
   38.0660   25.5240   35.2870 C   0  0  0  0  0  0  0  0  0  0  0  0
   37.8810   26.7980   35.6800 N   0  0  0  0  0  0  0  0  0  0  0  0
   37.1950   28.7030   35.2160 H   0  0  0  0  0  0  0  0  0  0  0  0
   36.7950   25.7630   32.1930 H   0  0  0  0  0  0  0  0  0  0  0  0
   38.6710   24.5590   36.1870 C   0  0  0  0  0  0  0  0  0  0  0  0
   38.1300   24.3360   37.4250 C   0  0  0  0  0  0  0  0  0  0  0  0
   38.6760   23.4280   38.3120 C   0  0  0  0  0  0  0  0  0  0  0  0
   39.7960   22.7620   37.8710 C   0  0  0  0  0  0  0  0  0  0  0  0
   40.3760   22.9570   36.6270 C   0  0  0  0  0  0  0  0  0  0  0  0
   39.7680   23.8730   35.8220 N   0  0  0  0  0  0  0  0  0  0  0  0
   37.2340   24.9160   37.6900 H   0  0  0  0  0  0  0  0  0  0  0  0
   38.2310   23.2690   39.2820 H   0  0  0  0  0  0  0  0  0  0  0  0
   40.2220   22.0450   38.5770 H   0  0  0  0  0  0  0  0  0  0  0  0
   41.2570   22.4100   36.3220 H   0  0  0  0  0  0  0  0  0  0  0  0
   38.2720   28.1750   31.3570 F   0  0  0  0  0  0  0  0  0  0  0  0
   37.0800   28.7550   31.6490 C   0  0  0  0  0  0  0  0  0  0  0  0
   36.3220   28.3900   32.7640 C   0  0  0  0  0  0  0  0  0  0  0  0
   35.1150   29.0060   33.0220 C   0  0  0  0  0  0  0  0  0  0  0  0
   34.5750   28.6680   33.9140 H   0  0  0  0  0  0  0  0  0  0  0  0
   34.6300   29.9970   32.1900 C   0  0  0  0  0  0  0  0  0  0  0  0
   33.6700   30.4720   32.4160 H   0  0  0  0  0  0  0  0  0  0  0  0
   35.3770   30.3740   31.0710 C   0  0  0  0  0  3  0  0  0  0  0  0
   36.5980   29.7500   30.8070 C   0  0  0  0  0  3  0  0  0  0  0  0
  1  7  1  0  0  0  0
  1  6  1  0  0  0  0
  2  1  2  0  0  0  0
  3  2  1  0  0  0  0
  3  4  2  0  0  0  0
  4  5  1  0  0  0  0
  5  6  2  0  0  0  0
  5  9  1  0  0  0  0
  8  3  1  0  0  0  0
  9 10  1  0  0  0  0
 10 15  1  0  0  0  0
 10 11  2  0  0  0  0
 11 16  1  0  0  0  0
 12 11  1  0  0  0  0
 12 17  1  0  0  0  0
 13 12  2  0  0  0  0
 14  9  2  0  0  0  0
 14 13  1  0  0  0  0
 18 13  1  0  0  0  0
 19 20  1  0  0  0  0
 20 21  1  0  0  0  0
 21 22  2  0  0  0  0
 21  2  1  0  0  0  0
 22 23  1  0  0  0  0
 24 25  1  0  0  0  0
 24 22  1  0  0  0  0
 26 24  2  0  0  0  0
 27 26  1  0  0  0  0
 27 20  2  0  0  0  0
M  END
>  <minimizedAffinity>
-5.49399281

$$$$

 OpenBabel03272504493D

 27 29  0  0  0  0  0  0  0  0999 V2000
   38.3790   26.6540   35.8680 C   0  0  0  0  0  0  0  0  0  0  0  0
   38.4530   25.3800   35.3050 C   0  0  0  0  0  0  0  0  0  0  0  0
   37.7790   25.1660   34.1090 C   0  0  0  0  0  0  0  0  0  0  0  0
   37.0810   26.1990   33.5430 N   0  0  0  0  0  0  0  0  0  0  0  0
   37.0360   27.4170   34.1230 C   0  0  0  0  0  0  0  0  0  0  0  0
   37.6870   27.6320   35.2800 N   0  0  0  0  0  0  0  0  0  0  0  0
   38.8870   26.8690   36.7950 H   0  0  0  0  0  0  0  0  0  0  0  0
   37.8390   24.1900   33.6860 H   0  0  0  0  0  0  0  0  0  0  0  0
   36.2860   28.4880   33.4920 C   0  0  0  0  0  0  0  0  0  0  0  0
   35.5600   29.3640   34.2560 C   0  0  0  0  0  0  0  0  0  0  0  0
   34.8330   30.3960   33.6950 C   0  0  0  0  0  0  0  0  0  0  0  0
   34.8840   30.4880   32.3230 C   0  0  0  0  0  0  0  0  0  0  0  0
   35.6060   29.6240   31.5140 C   0  0  0  0  0  0  0  0  0  0  0  0
   36.2910   28.6370   32.1560 N   0  0  0  0  0  0  0  0  0  0  0  0
   35.5780   29.2120   35.3440 H   0  0  0  0  0  0  0  0  0  0  0  0
   34.2680   31.0740   34.3170 H   0  0  0  0  0  0  0  0  0  0  0  0
   34.3070   31.3080   31.8880 H   0  0  0  0  0  0  0  0  0  0  0  0
   35.6180   29.7340   30.4390 H   0  0  0  0  0  0  0  0  0  0  0  0
   37.3810   24.2980   37.5700 F   0  0  0  0  0  0  0  0  0  0  0  0
   38.6110   23.8850   37.1700 C   0  0  0  0  0  0  0  0  0  0  0  0
   39.2330   24.3870   36.0240 C   0  0  0  0  0  0  0  0  0  0  0  0
   40.4840   23.9390   35.6540 C   0  0  0  0  0  0  0  0  0  0  0  0
   40.9100   24.3770   34.7430 H   0  0  0  0  0  0  0  0  0  0  0  0
   41.1510   22.9890   36.4040 C   0  0  0  0  0  0  0  0  0  0  0  0
   42.1420   22.6490   36.0900 H   0  0  0  0  0  0  0  0  0  0  0  0
   40.5410   22.4770   37.5530 C   0  0  0  0  0  3  0  0  0  0  0  0
   39.2740   22.9290   37.9290 C   0  0  0  0  0  3  0  0  0  0  0  0
  1  7  1  0  0  0  0
  2  1  1  0  0  0  0
  2 21  1  0  0  0  0
  3  2  2  0  0  0  0
  4  3  1  0  0  0  0
  4  5  2  0  0  0  0
  5  6  1  0  0  0  0
  6  1  2  0  0  0  0
  8  3  1  0  0  0  0
  9  5  1  0  0  0  0
  9 10  1  0  0  0  0
 10 15  1  0  0  0  0
 11 10  2  0  0  0  0
 11 16  1  0  0  0  0
 12 11  1  0  0  0  0
 13 14  1  0  0  0  0
 13 12  2  0  0  0  0
 14  9  2  0  0  0  0
 17 12  1  0  0  0  0
 18 13  1  0  0  0  0
 20 19  1  0  0  0  0
 20 27  1  0  0  0  0
 21 20  2  0  0  0  0
 22 21  1  0  0  0  0
 22 24  2  0  0  0  0
 23 22  1  0  0  0  0
 24 26  1  0  0  0  0
 25 24  1  0  0  0  0
 26 27  2  0  0  0  0
M  END
>  <minimizedAffinity>
-5.38664532

$$$$

 OpenBabel03272504493D

 27 29  0  0  0  0  0  0  0  0999 V2000
   37.8610   25.2050   34.2680 C   0  0  0  0  0  0  0  0  0  0  0  0
   38.5370   25.5190   35.4470 C   0  0  0  0  0  0  0  0  0  0  0  0
   38.4490   26.8250   35.9100 C   0  0  0  0  0  0  0  0  0  0  0  0
   37.7130   27.7360   35.1990 N   0  0  0  0  0  0  0  0  0  0  0  0
   37.0750   27.3900   34.0620 C   0  0  0  0  0  0  0  0  0  0  0  0
   37.1550   26.1250   33.6080 N   0  0  0  0  0  0  0  0  0  0  0  0
   37.8990   24.2030   33.8690 H   0  0  0  0  0  0  0  0  0  0  0  0
   38.9680   27.0570   36.8110 H   0  0  0  0  0  0  0  0  0  0  0  0
   36.3030   28.3830   33.3370 C   0  0  0  0  0  0  0  0  0  0  0  0
   36.6140   28.6820   32.0360 C   0  0  0  0  0  0  0  0  0  0  0  0
   35.9060   29.6210   31.3110 C   0  0  0  0  0  0  0  0  0  0  0  0
   34.8710   30.2350   31.9770 C   0  0  0  0  0  0  0  0  0  0  0  0
   34.5230   29.9620   33.2920 C   0  0  0  0  0  0  0  0  0  0  0  0
   35.2790   29.0220   33.9260 N   0  0  0  0  0  0  0  0  0  0  0  0
   37.4590   28.1410   31.5870 H   0  0  0  0  0  0  0  0  0  0  0  0
   36.1700   29.8410   30.2880 H   0  0  0  0  0  0  0  0  0  0  0  0
   34.3150   30.9760   31.3970 H   0  0  0  0  0  0  0  0  0  0  0  0
   33.7000   30.4690   33.7760 H   0  0  0  0  0  0  0  0  0  0  0  0
   37.4800   24.4000   37.7010 F   0  0  0  0  0  0  0  0  0  0  0  0
   38.6640   23.9280   37.2330 C   0  0  0  0  0  0  0  0  0  0  0  0
   39.2750   24.4440   36.0870 C   0  0  0  0  0  0  0  0  0  0  0  0
   40.4790   23.9340   35.6470 C   0  0  0  0  0  0  0  0  0  0  0  0
   40.9000   24.3870   34.7410 H   0  0  0  0  0  0  0  0  0  0  0  0
   41.1080   22.9070   36.3250 C   0  0  0  0  0  0  0  0  0  0  0  0
   42.0630   22.5200   35.9560 H   0  0  0  0  0  0  0  0  0  0  0  0
   40.5090   22.3810   37.4730 C   0  0  0  0  0  3  0  0  0  0  0  0
   39.2900   22.8950   37.9200 C   0  0  0  0  0  3  0  0  0  0  0  0
  1  2  1  0  0  0  0
  2  3  2  0  0  0  0
  2 21  1  0  0  0  0
  3  8  1  0  0  0  0
  4  3  1  0  0  0  0
  5  4  2  0  0  0  0
  6  5  1  0  0  0  0
  6  1  2  0  0  0  0
  7  1  1  0  0  0  0
  9 14  1  0  0  0  0
  9  5  1  0  0  0  0
 10  9  2  0  0  0  0
 11 12  2  0  0  0  0
 11 10  1  0  0  0  0
 12 13  1  0  0  0  0
 13 18  1  0  0  0  0
 13 14  2  0  0  0  0
 15 10  1  0  0  0  0
 16 11  1  0  0  0  0
 17 12  1  0  0  0  0
 20 19  1  0  0  0  0
 20 27  1  0  0  0  0
 21 20  2  0  0  0  0
 22 21  1  0  0  0  0
 22 24  2  0  0  0  0
 23 22  1  0  0  0  0
 24 26  1  0  0  0  0
 25 24  1  0  0  0  0
 26 27  2  0  0  0  0
M  END
>  <minimizedAffinity>
-5.31751966

$$$$

 OpenBabel03272504493D

 27 29  0  0  0  0  0  0  0  0999 V2000
   37.1260   26.1820   33.4120 C   0  0  0  0  0  0  0  0  0  0  0  0
   37.0090   27.5010   33.8510 C   0  0  0  0  0  0  0  0  0  0  0  0
   37.5200   27.8090   35.1050 C   0  0  0  0  0  0  0  0  0  0  0  0
   38.1080   26.8180   35.8460 N   0  0  0  0  0  0  0  0  0  0  0  0
   38.2010   25.5540   35.3830 C   0  0  0  0  0  0  0  0  0  0  0  0
   37.7090   25.2490   34.1680 N   0  0  0  0  0  0  0  0  0  0  0  0
   36.7450   25.8950   32.4440 H   0  0  0  0  0  0  0  0  0  0  0  0
   37.4270   28.8170   35.4340 H   0  0  0  0  0  0  0  0  0  0  0  0
   38.8320   24.5320   36.1970 C   0  0  0  0  0  0  0  0  0  0  0  0
   39.9530   23.8850   35.7450 C   0  0  0  0  0  0  0  0  0  0  0  0
   40.5830   22.9060   36.4880 C   0  0  0  0  0  0  0  0  0  0  0  0
   40.0150   22.6210   37.7080 C   0  0  0  0  0  0  0  0  0  0  0  0
   38.8820   23.2510   38.2020 C   0  0  0  0  0  0  0  0  0  0  0  0
   38.3290   24.2030   37.3990 N   0  0  0  0  0  0  0  0  0  0  0  0
   40.3350   24.1790   34.7570 H   0  0  0  0  0  0  0  0  0  0  0  0
   41.4650   22.4100   36.1110 H   0  0  0  0  0  0  0  0  0  0  0  0
   40.5200   21.8460   38.2900 H   0  0  0  0  0  0  0  0  0  0  0  0
   38.4700   22.9950   39.1680 H   0  0  0  0  0  0  0  0  0  0  0  0
   38.2880   28.1470   31.5280 F   0  0  0  0  0  0  0  0  0  0  0  0
   37.0810   28.7130   31.7860 C   0  0  0  0  0  0  0  0  0  0  0  0
   36.3600   28.4380   32.9500 C   0  0  0  0  0  0  0  0  0  0  0  0
   35.1370   29.0360   33.1720 C   0  0  0  0  0  0  0  0  0  0  0  0
   34.6270   28.7730   34.1070 H   0  0  0  0  0  0  0  0  0  0  0  0
   34.5980   29.9180   32.2550 C   0  0  0  0  0  0  0  0  0  0  0  0
   33.6260   30.3790   32.4530 H   0  0  0  0  0  0  0  0  0  0  0  0
   35.3080   30.2030   31.0850 C   0  0  0  0  0  3  0  0  0  0  0  0
   36.5460   29.5980   30.8580 C   0  0  0  0  0  3  0  0  0  0  0  0
  1  2  2  0  0  0  0
  1  6  1  0  0  0  0
  2  3  1  0  0  0  0
  3  8  1  0  0  0  0
  3  4  2  0  0  0  0
  5  4  1  0  0  0  0
  5  9  1  0  0  0  0
  6  5  2  0  0  0  0
  7  1  1  0  0  0  0
  9 14  1  0  0  0  0
 10  9  2  0  0  0  0
 10 11  1  0  0  0  0
 11 12  2  0  0  0  0
 12 13  1  0  0  0  0
 12 17  1  0  0  0  0
 13 18  1  0  0  0  0
 14 13  2  0  0  0  0
 15 10  1  0  0  0  0
 16 11  1  0  0  0  0
 19 20  1  0  0  0  0
 20 21  1  0  0  0  0
 21 22  2  0  0  0  0
 21  2  1  0  0  0  0
 22 23  1  0  0  0  0
 24 25  1  0  0  0  0
 24 22  1  0  0  0  0
 26 24  2  0  0  0  0
 27 26  1  0  0  0  0
 27 20  2  0  0  0  0
M  END
>  <minimizedAffinity>
-5.28113747

$$$$

 OpenBabel03272504493D

 27 29  0  0  0  0  0  0  0  0999 V2000
   37.7480   25.2600   34.2030 C   0  0  0  0  0  0  0  0  0  0  0  0
   38.2720   25.6280   35.4420 C   0  0  0  0  0  0  0  0  0  0  0  0
   38.1640   26.9610   35.8160 C   0  0  0  0  0  0  0  0  0  0  0  0
   37.5570   27.8450   34.9640 N   0  0  0  0  0  0  0  0  0  0  0  0
   37.0630   27.4460   33.7730 C   0  0  0  0  0  0  0  0  0  0  0  0
   37.1630   26.1550   33.4050 N   0  0  0  0  0  0  0  0  0  0  0  0
   37.8080   24.2360   33.8700 H   0  0  0  0  0  0  0  0  0  0  0  0
   38.5670   27.2350   36.7630 H   0  0  0  0  0  0  0  0  0  0  0  0
   36.4240   28.4110   32.8970 C   0  0  0  0  0  0  0  0  0  0  0  0
   36.9240   28.6410   31.6430 C   0  0  0  0  0  0  0  0  0  0  0  0
   36.3470   29.5520   30.7790 C   0  0  0  0  0  0  0  0  0  0  0  0
   35.2390   30.2120   31.2580 C   0  0  0  0  0  0  0  0  0  0  0  0
   34.7010   30.0100   32.5210 C   0  0  0  0  0  0  0  0  0  0  0  0
   35.3380   29.0930   33.3020 N   0  0  0  0  0  0  0  0  0  0  0  0
   37.8130   28.0660   31.3460 H   0  0  0  0  0  0  0  0  0  0  0  0
   36.7590   29.7160   29.7950 H   0  0  0  0  0  0  0  0  0  0  0  0
   34.7880   30.9300   30.5690 H   0  0  0  0  0  0  0  0  0  0  0  0
   33.8280   30.5520   32.8560 H   0  0  0  0  0  0  0  0  0  0  0  0
   40.6320   24.5720   34.5650 F   0  0  0  0  0  0  0  0  0  0  0  0
   40.0920   24.0940   35.7150 C   0  0  0  0  0  0  0  0  0  0  0  0
   38.8870   24.5760   36.2340 C   0  0  0  0  0  0  0  0  0  0  0  0
   38.3740   24.0610   37.4060 C   0  0  0  0  0  0  0  0  0  0  0  0
   37.4260   24.4880   37.7540 H   0  0  0  0  0  0  0  0  0  0  0  0
   39.0340   23.0580   38.0920 C   0  0  0  0  0  0  0  0  0  0  0  0
   38.6070   22.6650   39.0200 H   0  0  0  0  0  0  0  0  0  0  0  0
   40.2390   22.5650   37.5850 C   0  0  0  0  0  3  0  0  0  0  0  0
   40.7610   23.0860   36.3990 C   0  0  0  0  0  3  0  0  0  0  0  0
  1  2  1  0  0  0  0
  2  3  2  0  0  0  0
  2 21  1  0  0  0  0
  3  8  1  0  0  0  0
  4  3  1  0  0  0  0
  5  4  2  0  0  0  0
  6  5  1  0  0  0  0
  6  1  2  0  0  0  0
  7  1  1  0  0  0  0
  9 14  1  0  0  0  0
  9  5  1  0  0  0  0
 10  9  2  0  0  0  0
 11 12  2  0  0  0  0
 11 10  1  0  0  0  0
 12 13  1  0  0  0  0
 13 18  1  0  0  0  0
 13 14  2  0  0  0  0
 15 10  1  0  0  0  0
 16 11  1  0  0  0  0
 17 12  1  0  0  0  0
 19 20  1  0  0  0  0
 20 21  2  0  0  0  0
 20 27  1  0  0  0  0
 21 22  1  0  0  0  0
 22 23  1  0  0  0  0
 22 24  2  0  0  0  0
 24 25  1  0  0  0  0
 26 24  1  0  0  0  0
 27 26  2  0  0  0  0
M  END
>  <minimizedAffinity>
-5.24270868

$$$$

 OpenBabel03272504493D

 27 29  0  0  0  0  0  0  0  0999 V2000
   35.1730   24.2890   30.9250 C   0  0  0  0  0  0  0  0  0  0  0  0
   36.1040   23.6190   31.7170 C   0  0  0  0  0  0  0  0  0  0  0  0
   37.0220   24.3890   32.4200 C   0  0  0  0  0  0  0  0  0  0  0  0
   36.9730   25.7530   32.3070 N   0  0  0  0  0  0  0  0  0  0  0  0
   36.0540   26.3610   31.5290 C   0  0  0  0  0  0  0  0  0  0  0  0
   35.1610   25.6210   30.8450 N   0  0  0  0  0  0  0  0  0  0  0  0
   34.4390   23.7340   30.3610 H   0  0  0  0  0  0  0  0  0  0  0  0
   37.7310   23.8710   33.0220 H   0  0  0  0  0  0  0  0  0  0  0  0
   36.0320   27.8100   31.4350 C   0  0  0  0  0  0  0  0  0  0  0  0
   36.7130   28.4460   30.4310 C   0  0  0  0  0  0  0  0  0  0  0  0
   36.7190   29.8220   30.3070 C   0  0  0  0  0  0  0  0  0  0  0  0
   35.9970   30.5110   31.2550 C   0  0  0  0  0  0  0  0  0  0  0  0
   35.2940   29.9060   32.2860 C   0  0  0  0  0  0  0  0  0  0  0  0
   35.3480   28.5450   32.3280 N   0  0  0  0  0  0  0  0  0  0  0  0
   37.2620   27.8120   29.7200 H   0  0  0  0  0  0  0  0  0  0  0  0
   37.2630   30.3010   29.5080 H   0  0  0  0  0  0  0  0  0  0  0  0
   36.0060   31.5990   31.1500 H   0  0  0  0  0  0  0  0  0  0  0  0
   34.7400   30.4880   33.0090 H   0  0  0  0  0  0  0  0  0  0  0  0
   37.9650   22.2210   30.2910 F   0  0  0  0  0  0  0  0  0  0  0  0
   37.0200   21.5320   30.9810 C   0  0  0  0  0  0  0  0  0  0  0  0
   36.0300   22.1680   31.7350 C   0  0  0  0  0  0  0  0  0  0  0  0
   35.0890   21.4290   32.4200 C   0  0  0  0  0  0  0  0  0  0  0  0
   34.3440   21.9960   32.9910 H   0  0  0  0  0  0  0  0  0  0  0  0
   35.0990   20.0480   32.3770 C   0  0  0  0  0  0  0  0  0  0  0  0
   34.3420   19.4830   32.9290 H   0  0  0  0  0  0  0  0  0  0  0  0
   36.0820   19.3970   31.6270 C   0  0  0  0  0  3  0  0  0  0  0  0
   37.0370   20.1430   30.9330 C   0  0  0  0  0  3  0  0  0  0  0  0
  1  2  1  0  0  0  0
  2 21  1  0  0  0  0
  2  3  2  0  0  0  0
  3  8  1  0  0  0  0
  4  3  1  0  0  0  0
  5  4  2  0  0  0  0
  6  1  2  0  0  0  0
  6  5  1  0  0  0  0
  7  1  1  0  0  0  0
  9  5  1  0  0  0  0
  9 14  1  0  0  0  0
 10  9  2  0  0  0  0
 11 10  1  0  0  0  0
 11 12  2  0  0  0  0
 12 13  1  0  0  0  0
 13 14  2  0  0  0  0
 13 18  1  0  0  0  0
 15 10  1  0  0  0  0
 16 11  1  0  0  0  0
 17 12  1  0  0  0  0
 19 20  1  0  0  0  0
 20 21  1  0  0  0  0
 21 22  2  0  0  0  0
 22 23  1  0  0  0  0
 24 22  1  0  0  0  0
 24 25  1  0  0  0  0
 26 24  2  0  0  0  0
 27 20  2  0  0  0  0
 27 26  1  0  0  0  0
M  END
>  <minimizedAffinity>
-5.20246029

$$$$

 OpenBabel03272504493D

 27 29  0  0  0  0  0  0  0  0999 V2000
   35.4730   23.0880   31.1410 C   0  0  0  0  0  0  0  0  0  0  0  0
   36.3780   22.3330   31.8860 C   0  0  0  0  0  0  0  0  0  0  0  0
   37.3160   23.0210   32.6460 C   0  0  0  0  0  0  0  0  0  0  0  0
   37.3120   24.3900   32.6300 N   0  0  0  0  0  0  0  0  0  0  0  0
   36.4170   25.0810   31.8940 C   0  0  0  0  0  0  0  0  0  0  0  0
   35.5050   24.4220   31.1560 N   0  0  0  0  0  0  0  0  0  0  0  0
   34.7250   22.5980   30.5350 H   0  0  0  0  0  0  0  0  0  0  0  0
   38.0050   22.4370   33.2120 H   0  0  0  0  0  0  0  0  0  0  0  0
   36.4420   26.5330   31.9040 C   0  0  0  0  0  0  0  0  0  0  0  0
   36.5710   27.2120   33.0870 C   0  0  0  0  0  0  0  0  0  0  0  0
   36.5980   28.5920   33.1400 C   0  0  0  0  0  0  0  0  0  0  0  0
   36.4880   29.2400   31.9310 C   0  0  0  0  0  0  0  0  0  0  0  0
   36.3570   28.5910   30.7120 C   0  0  0  0  0  0  0  0  0  0  0  0
   36.3390   27.2290   30.7590 N   0  0  0  0  0  0  0  0  0  0  0  0
   36.6520   26.6100   34.0030 H   0  0  0  0  0  0  0  0  0  0  0  0
   36.7000   29.1060   34.0840 H   0  0  0  0  0  0  0  0  0  0  0  0
   36.5110   30.3310   31.9810 H   0  0  0  0  0  0  0  0  0  0  0  0
   36.2740   29.1410   29.7860 H   0  0  0  0  0  0  0  0  0  0  0  0
   35.1860   21.0180   33.9600 F   0  0  0  0  0  0  0  0  0  0  0  0
   35.6350   20.2950   32.9010 C   0  0  0  0  0  0  0  0  0  0  0  0
   36.2570   20.8880   31.8000 C   0  0  0  0  0  0  0  0  0  0  0  0
   36.6980   20.1140   30.7460 C   0  0  0  0  0  0  0  0  0  0  0  0
   37.1770   20.6470   29.9150 H   0  0  0  0  0  0  0  0  0  0  0  0
   36.5380   18.7420   30.7540 C   0  0  0  0  0  0  0  0  0  0  0  0
   36.8960   18.1500   29.9060 H   0  0  0  0  0  0  0  0  0  0  0  0
   35.9180   18.1350   31.8490 C   0  0  0  0  0  3  0  0  0  0  0  0
   35.4700   18.9160   32.9170 C   0  0  0  0  0  3  0  0  0  0  0  0
  1  6  2  0  0  0  0
  1  2  1  0  0  0  0
  2  3  2  0  0  0  0
  3  8  1  0  0  0  0
  4  3  1  0  0  0  0
  5  9  1  0  0  0  0
  5  4  2  0  0  0  0
  6  5  1  0  0  0  0
  7  1  1  0  0  0  0
  9 10  1  0  0  0  0
 10 11  2  0  0  0  0
 10 15  1  0  0  0  0
 11 16  1  0  0  0  0
 12 17  1  0  0  0  0
 12 11  1  0  0  0  0
 13 14  1  0  0  0  0
 13 12  2  0  0  0  0
 14  9  2  0  0  0  0
 18 13  1  0  0  0  0
 20 27  1  0  0  0  0
 20 19  1  0  0  0  0
 21  2  1  0  0  0  0
 21 20  2  0  0  0  0
 22 24  2  0  0  0  0
 22 21  1  0  0  0  0
 23 22  1  0  0  0  0
 24 26  1  0  0  0  0
 25 24  1  0  0  0  0
 26 27  2  0  0  0  0
M  END
>  <minimizedAffinity>
-5.19964361

$$$$

 OpenBabel03272504493D

 27 29  0  0  0  0  0  0  0  0999 V2000
   36.4470   28.2500   34.6120 C   0  0  0  0  0  0  0  0  0  0  0  0
   35.6130   29.2260   34.0670 C   0  0  0  0  0  0  0  0  0  0  0  0
   35.2860   29.1140   32.7220 C   0  0  0  0  0  0  0  0  0  0  0  0
   35.7890   28.0650   31.9990 N   0  0  0  0  0  0  0  0  0  0  0  0
   36.5940   27.1430   32.5660 C   0  0  0  0  0  0  0  0  0  0  0  0
   36.9140   27.2440   33.8690 N   0  0  0  0  0  0  0  0  0  0  0  0
   36.7290   28.2940   35.6530 H   0  0  0  0  0  0  0  0  0  0  0  0
   34.6490   29.8630   32.3130 H   0  0  0  0  0  0  0  0  0  0  0  0
   37.1070   26.0440   31.7680 C   0  0  0  0  0  0  0  0  0  0  0  0
   36.3790   24.8910   31.6320 C   0  0  0  0  0  0  0  0  0  0  0  0
   36.8320   23.8230   30.8820 C   0  0  0  0  0  0  0  0  0  0  0  0
   38.0590   23.9900   30.2820 C   0  0  0  0  0  0  0  0  0  0  0  0
   38.8270   25.1390   30.3940 C   0  0  0  0  0  0  0  0  0  0  0  0
   38.2990   26.1390   31.1540 N   0  0  0  0  0  0  0  0  0  0  0  0
   35.4100   24.8490   32.1490 H   0  0  0  0  0  0  0  0  0  0  0  0
   36.2410   22.9250   30.7900 H   0  0  0  0  0  0  0  0  0  0  0  0
   38.4100   23.1410   29.6900 H   0  0  0  0  0  0  0  0  0  0  0  0
   39.7860   25.2270   29.9040 H   0  0  0  0  0  0  0  0  0  0  0  0
   32.9620   29.3090   34.7110 F   0  0  0  0  0  0  0  0  0  0  0  0
   33.7900   30.2460   35.2400 C   0  0  0  0  0  0  0  0  0  0  0  0
   35.1590   30.2770   34.9620 C   0  0  0  0  0  0  0  0  0  0  0  0
   35.9640   31.2470   35.5210 C   0  0  0  0  0  0  0  0  0  0  0  0
   37.0290   31.2100   35.2590 H   0  0  0  0  0  0  0  0  0  0  0  0
   35.4400   32.2090   36.3640 C   0  0  0  0  0  0  0  0  0  0  0  0
   36.0990   32.9690   36.7950 H   0  0  0  0  0  0  0  0  0  0  0  0
   34.0720   32.1910   36.6500 C   0  0  0  0  0  3  0  0  0  0  0  0
   33.2550   31.2090   36.0860 C   0  0  0  0  0  3  0  0  0  0  0  0
  1  7  1  0  0  0  0
  2  1  1  0  0  0  0
  2 21  1  0  0  0  0
  3  2  2  0  0  0  0
  4  5  2  0  0  0  0
  4  3  1  0  0  0  0
  5  6  1  0  0  0  0
  6  1  2  0  0  0  0
  8  3  1  0  0  0  0
  9  5  1  0  0  0  0
 10  9  1  0  0  0  0
 10 15  1  0  0  0  0
 11 10  2  0  0  0  0
 12 13  2  0  0  0  0
 12 11  1  0  0  0  0
 13 14  1  0  0  0  0
 14  9  2  0  0  0  0
 16 11  1  0  0  0  0
 17 12  1  0  0  0  0
 18 13  1  0  0  0  0
 19 20  1  0  0  0  0
 20 27  1  0  0  0  0
 21 20  2  0  0  0  0
 21 22  1  0  0  0  0
 22 24  2  0  0  0  0
 23 22  1  0  0  0  0
 24 26  1  0  0  0  0
 24 25  1  0  0  0  0
 27 26  2  0  0  0  0
M  END
>  <minimizedAffinity>
-5.16244793

$$$$
