
 OpenBabel03272509213D

 46 50  0  0  0  0  0  0  0  0999 V2000
   38.0910   31.3980   47.9880 C   0  0  0  0  0  0  0  0  0  0  0  0
   37.2410   31.5970   49.0600 C   0  0  0  0  0  0  0  0  0  0  0  0
   37.4480   32.8090   49.7300 C   0  0  0  0  0  0  0  0  0  0  0  0
   38.4310   33.7200   49.3340 C   0  0  0  0  0  0  0  0  0  0  0  0
   39.2440   33.4180   48.2260 C   0  0  0  0  0  0  0  0  0  0  0  0
   39.0610   32.2310   47.5470 C   0  0  0  0  0  0  0  0  0  0  0  0
   36.8000   33.0060   50.5810 H   0  0  0  0  0  0  0  0  0  0  0  0
   38.5320   34.6330   49.8980 H   0  0  0  0  0  0  0  0  0  0  0  0
   39.9890   34.1600   47.9620 H   0  0  0  0  0  0  0  0  0  0  0  0
   35.1090   30.4670   48.6670 C   0  0  0  0  0  0  0  0  0  0  0  0
   36.2370   30.6680   49.4660 C   0  0  0  0  0  0  0  0  0  0  0  0
   36.3370   29.9330   50.6560 C   0  0  0  0  0  0  0  0  0  0  0  0
   35.3420   29.0720   50.9690 N   0  0  0  0  0  0  0  0  0  0  0  0
   34.2550   28.9080   50.1570 C   0  0  0  0  0  0  0  0  0  0  0  0
   34.1570   29.6020   49.0280 N   0  0  0  0  0  0  0  0  0  0  0  0
   35.0360   31.0380   47.7480 H   0  0  0  0  0  0  0  0  0  0  0  0
   33.5260   28.1840   50.5240 H   0  0  0  0  0  0  0  0  0  0  0  0
   37.5140   30.1070   51.5420 C   0  0  0  0  0  0  0  0  0  0  0  0
   38.4270   30.1460   50.8880 H   0  0  0  0  0  0  0  0  0  0  0  0
   37.4170   30.9630   52.2150 H   0  0  0  0  0  0  0  0  0  0  0  0
   37.6170   29.1320   52.0880 H   0  0  0  0  0  0  0  0  0  0  0  0
   37.9740   30.2180   47.2450 O   0  0  0  0  0  0  0  0  0  0  0  0
   38.6200   29.4620   47.4010 H   0  0  0  0  0  0  0  0  0  0  0  0
   39.8940   32.0100   46.4790 O   0  0  0  0  0  0  0  0  0  0  0  0
   40.0750   30.9520   44.2210 C   0  0  0  0  0  0  0  0  0  0  0  0
   39.5290   31.7790   45.1770 C   0  0  0  0  0  0  0  0  0  0  0  0
   38.4070   32.5430   44.8320 C   0  0  0  0  0  0  0  0  0  0  0  0
   37.8610   32.4620   43.5420 C   0  0  0  0  0  0  0  0  0  0  0  0
   36.8160   33.0520   42.9180 N   0  0  0  0  0  0  0  0  0  0  0  0
   36.7320   32.6090   41.6550 C   0  0  0  0  0  0  0  0  0  0  0  0
   37.7410   31.7260   41.4830 N   0  0  0  0  0  0  0  0  0  0  0  0
   38.4420   31.6240   42.6290 C   0  0  0  0  0  0  0  0  0  0  0  0
   39.5450   30.8690   42.9600 C   0  0  0  0  0  0  0  0  0  0  0  0
   40.9380   30.4060   44.5920 H   0  0  0  0  0  0  0  0  0  0  0  0
   37.8700   33.2380   45.4770 H   0  0  0  0  0  0  0  0  0  0  0  0
   36.1760   33.7580   43.3870 H   0  0  0  0  0  0  0  0  0  0  0  0
   35.9920   32.9150   40.9350 H   0  0  0  0  0  0  0  0  0  0  0  0
   39.2930   28.0340   42.9130 F   0  0  0  0  0  0  0  0  0  0  0  0
   40.0770   28.5910   41.9670 C   0  0  0  0  0  0  0  0  0  0  0  0
   40.1870   29.9660   42.0050 C   0  0  0  0  0  0  0  0  0  0  0  0
   40.9660   30.6710   41.0830 C   0  0  0  0  0  0  0  0  0  0  0  0
   41.0990   31.7330   41.0510 H   0  0  0  0  0  0  0  0  0  0  0  0
   41.6500   29.9630   40.1000 C   0  0  0  0  0  0  0  0  0  0  0  0
   42.2720   30.4450   39.3550 H   0  0  0  0  0  0  0  0  0  0  0  0
   41.5150   28.5900   40.0950 C   0  0  0  0  0  3  0  0  0  0  0  0
   40.7520   27.8720   40.9940 C   0  0  0  0  0  3  0  0  0  0  0  0
  1  2  1  0  0  0  0
  2 11  1  0  0  0  0
  2  3  2  0  0  0  0
  3  7  1  0  0  0  0
  4  3  1  0  0  0  0
  4  8  1  0  0  0  0
  5  4  2  0  0  0  0
  6  1  2  0  0  0  0
  6  5  1  0  0  0  0
  9  5  1  0  0  0  0
 10 15  2  0  0  0  0
 10 11  1  0  0  0  0
 11 12  2  0  0  0  0
 12 13  1  0  0  0  0
 12 18  1  0  0  0  0
 14 17  1  0  0  0  0
 14 13  2  0  0  0  0
 15 14  1  0  0  0  0
 16 10  1  0  0  0  0
 18 21  1  0  0  0  0
 18 20  1  0  0  0  0
 19 18  1  0  0  0  0
 22 23  1  0  0  0  0
 22  1  1  0  0  0  0
 24  6  1  0  0  0  0
 25 34  1  0  0  0  0
 25 26  1  0  0  0  0
 26 24  1  0  0  0  0
 27 26  2  0  0  0  0
 27 35  1  0  0  0  0
 28 27  1  0  0  0  0
 29 36  1  0  0  0  0
 29 28  1  0  0  0  0
 30 29  1  0  0  0  0
 31 30  2  0  0  0  0
 31 32  1  0  0  0  0
 32 33  1  0  0  0  0
 32 28  2  0  0  0  0
 33 25  2  0  0  0  0
 37 30  1  0  0  0  0
 39 40  1  0  0  0  0
 39 38  1  0  0  0  0
 40 33  1  0  0  0  0
 41 40  2  0  0  0  0
 42 41  1  0  0  0  0
 43 41  1  0  0  0  0
 44 43  1  0  0  0  0
 45 43  2  0  0  0  0
 45 46  1  0  0  0  0
 46 39  2  0  0  0  0
M  END
>  <minimizedAffinity>
-7.79775095

>  <minimizedRMSD>
1.12876225

$$$$
