
 OpenBabel03262523543D

 34 36  0  0  1  0  0  0  0  0999 V2000
   37.3560   30.0940   46.7810 C   0  0  1  0  0  0  0  0  0  0  0  0
   36.6910   30.6290   45.5890 C   0  0  0  0  0  0  0  0  0  0  0  0
   37.3840   30.0760   44.3660 C   0  0  0  0  0  0  0  0  0  0  0  0
   38.8520   30.1110   44.5340 C   0  0  0  0  0  0  0  0  0  0  0  0
   39.4130   30.9020   45.6550 C   0  0  0  0  0  0  0  0  0  0  0  0
   38.6920   30.7130   46.9660 C   0  0  1  0  0  0  0  0  0  0  0  0
   37.5340   28.9920   46.5760 H   0  0  0  0  0  0  0  0  0  0  0  0
   35.6360   30.1980   45.5760 H   0  0  0  0  0  0  0  0  0  0  0  0
   36.6680   31.7100   45.4310 H   0  0  0  0  0  0  0  0  0  0  0  0
   36.9770   29.0530   44.1740 H   0  0  0  0  0  0  0  0  0  0  0  0
   37.0610   30.6670   43.4760 H   0  0  0  0  0  0  0  0  0  0  0  0
   39.3960   30.4110   43.6080 H   0  0  0  0  0  0  0  0  0  0  0  0
   39.1850   29.0420   44.6960 H   0  0  0  0  0  0  0  0  0  0  0  0
   40.4870   30.6730   45.7280 H   0  0  0  0  0  0  0  0  0  0  0  0
   39.2510   31.9910   45.3930 H   0  0  0  0  0  0  0  0  0  0  0  0
   39.3190   29.8990   47.4760 H   0  0  0  0  0  0  0  0  0  0  0  0
   36.4160   29.4070   50.3050 C   0  0  0  0  0  0  0  0  0  0  0  0
   37.1370   29.3710   49.0840 C   0  0  0  0  0  0  0  0  0  0  0  0
   36.6150   30.1300   48.0380 C   0  0  0  0  0  0  0  0  0  0  0  0
   35.4600   30.8630   48.2080 N   0  0  0  0  0  0  0  0  0  0  0  0
   34.8100   30.8630   49.3890 C   0  0  0  0  0  0  0  0  0  0  0  0
   35.2810   30.1400   50.4370 N   0  0  0  0  0  0  0  0  0  0  0  0
   36.6930   28.8760   51.2010 H   0  0  0  0  0  0  0  0  0  0  0  0
   37.9730   28.7390   49.1460 H   0  0  0  0  0  0  0  0  0  0  0  0
   33.9230   31.4800   49.3720 H   0  0  0  0  0  0  0  0  0  0  0  0
   39.7360   33.2710   46.1510 F   0  0  0  0  0  0  0  0  0  0  0  0
   39.3840   33.1030   47.4710 C   0  0  0  0  0  0  0  0  0  0  0  0
   38.8590   31.8540   47.8520 C   0  0  0  0  0  0  0  0  0  0  0  0
   38.5490   31.8890   49.1930 C   0  0  0  0  0  0  0  0  0  0  0  0
   38.1310   31.0330   49.6920 H   0  0  0  0  0  0  0  0  0  0  0  0
   38.7100   32.9490   50.0590 C   0  0  0  0  0  0  0  0  0  0  0  0
   38.4550   32.9350   51.1020 H   0  0  0  0  0  0  0  0  0  0  0  0
   39.2360   34.1270   49.5770 C   0  0  0  0  0  0  0  0  0  0  0  0
   39.5800   34.2100   48.2650 C   0  0  0  0  0  0  0  0  0  0  0  0
  1  7  1  6  0  0  0
  1  6  1  0  0  0  0
  1 19  1  0  0  0  0
  2  1  1  0  0  0  0
  3  4  1  0  0  0  0
  3  2  1  0  0  0  0
  4 13  1  0  0  0  0
  4  5  1  0  0  0  0
  5 14  1  0  0  0  0
  5  6  1  0  0  0  0
  6 16  1  1  0  0  0
  6 28  1  0  0  0  0
  8  2  1  0  0  0  0
  9  2  1  0  0  0  0
 10  3  1  0  0  0  0
 11  3  1  0  0  0  0
 12  4  1  0  0  0  0
 15  5  1  0  0  0  0
 17 22  1  0  0  0  0
 17 23  1  0  0  0  0
 18 24  1  0  0  0  0
 18 17  2  0  0  0  0
 19 20  2  0  0  0  0
 19 18  1  0  0  0  0
 20 21  1  0  0  0  0
 21 22  2  0  0  0  0
 25 21  1  0  0  0  0
 26 27  1  0  0  0  0
 27 28  2  0  0  0  0
 27 34  1  0  0  0  0
 28 29  1  0  0  0  0
 29 30  1  0  0  0  0
 29 31  2  0  0  0  0
 31 32  1  0  0  0  0
 33 31  1  0  0  0  0
 34 33  2  0  0  0  0
M  END
>  <minimizedAffinity>
-5.13548374

>  <minimizedRMSD>
2.16330814

$$$$
