
 OpenBabel03272509233D

 46 50  0  0  0  0  0  0  0  0999 V2000
   36.2000   28.7060   33.4560 C   0  0  0  0  0  0  0  0  0  0  0  0
   35.1350   29.5740   33.3090 C   0  0  0  0  0  0  0  0  0  0  0  0
   34.9590   30.0410   32.0010 C   0  0  0  0  0  0  0  0  0  0  0  0
   35.7980   29.6500   30.9530 C   0  0  0  0  0  0  0  0  0  0  0  0
   36.8560   28.7600   31.2120 C   0  0  0  0  0  0  0  0  0  0  0  0
   37.0510   28.2840   32.4920 C   0  0  0  0  0  0  0  0  0  0  0  0
   34.1310   30.7280   31.8400 H   0  0  0  0  0  0  0  0  0  0  0  0
   35.6020   30.0510   29.9710 H   0  0  0  0  0  0  0  0  0  0  0  0
   37.4740   28.4900   30.3640 H   0  0  0  0  0  0  0  0  0  0  0  0
   33.0510   29.3320   34.5630 C   0  0  0  0  0  0  0  0  0  0  0  0
   34.2780   29.9740   34.3770 C   0  0  0  0  0  0  0  0  0  0  0  0
   34.6210   31.0030   35.2660 C   0  0  0  0  0  0  0  0  0  0  0  0
   33.7520   31.3210   36.2530 N   0  0  0  0  0  0  0  0  0  0  0  0
   32.5610   30.6660   36.3970 C   0  0  0  0  0  0  0  0  0  0  0  0
   32.2320   29.6900   35.5580 N   0  0  0  0  0  0  0  0  0  0  0  0
   32.7890   28.5370   33.8740 H   0  0  0  0  0  0  0  0  0  0  0  0
   31.9540   31.0190   37.2320 H   0  0  0  0  0  0  0  0  0  0  0  0
   35.9120   31.7170   35.1140 C   0  0  0  0  0  0  0  0  0  0  0  0
   36.7010   30.9480   34.8940 H   0  0  0  0  0  0  0  0  0  0  0  0
   35.8670   32.5250   34.3780 H   0  0  0  0  0  0  0  0  0  0  0  0
   36.1700   32.0790   36.1440 H   0  0  0  0  0  0  0  0  0  0  0  0
   36.4700   28.1770   34.7230 O   0  0  0  0  0  0  0  0  0  0  0  0
   37.2110   28.5680   35.2810 H   0  0  0  0  0  0  0  0  0  0  0  0
   38.1030   27.4200   32.6630 O   0  0  0  0  0  0  0  0  0  0  0  0
   38.3940   25.6430   34.3980 C   0  0  0  0  0  0  0  0  0  0  0  0
   38.0550   26.1420   33.1600 C   0  0  0  0  0  0  0  0  0  0  0  0
   37.5710   25.2520   32.1940 C   0  0  0  0  0  0  0  0  0  0  0  0
   37.4380   23.8860   32.4890 C   0  0  0  0  0  0  0  0  0  0  0  0
   37.0150   22.8050   31.7950 N   0  0  0  0  0  0  0  0  0  0  0  0
   37.0920   21.7120   32.5670 C   0  0  0  0  0  0  0  0  0  0  0  0
   37.5710   22.1110   33.7650 N   0  0  0  0  0  0  0  0  0  0  0  0
   37.7880   23.4410   33.7340 C   0  0  0  0  0  0  0  0  0  0  0  0
   38.2650   24.3100   34.6910 C   0  0  0  0  0  0  0  0  0  0  0  0
   38.7560   26.4150   35.0700 H   0  0  0  0  0  0  0  0  0  0  0  0
   37.2650   25.4980   31.1770 H   0  0  0  0  0  0  0  0  0  0  0  0
   36.6780   22.8500   30.7880 H   0  0  0  0  0  0  0  0  0  0  0  0
   36.8180   20.7150   32.2640 H   0  0  0  0  0  0  0  0  0  0  0  0
   40.6220   22.8610   35.3590 F   0  0  0  0  0  0  0  0  0  0  0  0
   39.7840   23.1620   36.3720 C   0  0  0  0  0  0  0  0  0  0  0  0
   38.6480   23.8640   36.0290 C   0  0  0  0  0  0  0  0  0  0  0  0
   37.6960   24.2400   36.9820 C   0  0  0  0  0  0  0  0  0  0  0  0
   36.7930   24.7840   36.7920 H   0  0  0  0  0  0  0  0  0  0  0  0
   37.9040   23.8940   38.3130 C   0  0  0  0  0  0  0  0  0  0  0  0
   37.2080   24.1520   39.1020 H   0  0  0  0  0  0  0  0  0  0  0  0
   39.0530   23.1920   38.6160 C   0  0  0  0  0  3  0  0  0  0  0  0
   40.0060   22.8100   37.6940 C   0  0  0  0  0  3  0  0  0  0  0  0
  1 22  1  0  0  0  0
  2  1  1  0  0  0  0
  2 11  1  0  0  0  0
  3  2  2  0  0  0  0
  4  5  2  0  0  0  0
  4  3  1  0  0  0  0
  5  6  1  0  0  0  0
  6 24  1  0  0  0  0
  6  1  2  0  0  0  0
  7  3  1  0  0  0  0
  8  4  1  0  0  0  0
  9  5  1  0  0  0  0
 10 15  1  0  0  0  0
 11 10  2  0  0  0  0
 11 12  1  0  0  0  0
 12 13  2  0  0  0  0
 13 14  1  0  0  0  0
 14 17  1  0  0  0  0
 15 14  2  0  0  0  0
 16 10  1  0  0  0  0
 18 12  1  0  0  0  0
 18 21  1  0  0  0  0
 19 18  1  0  0  0  0
 20 18  1  0  0  0  0
 22 23  1  0  0  0  0
 24 26  1  0  0  0  0
 25 33  1  0  0  0  0
 25 34  1  0  0  0  0
 26 25  2  0  0  0  0
 27 28  2  0  0  0  0
 27 26  1  0  0  0  0
 28 32  1  0  0  0  0
 29 28  1  0  0  0  0
 29 30  1  0  0  0  0
 30 31  2  0  0  0  0
 32 31  1  0  0  0  0
 32 33  2  0  0  0  0
 33 40  1  0  0  0  0
 35 27  1  0  0  0  0
 36 29  1  0  0  0  0
 37 30  1  0  0  0  0
 38 39  1  0  0  0  0
 39 46  1  0  0  0  0
 40 39  2  0  0  0  0
 40 41  1  0  0  0  0
 41 43  2  0  0  0  0
 42 41  1  0  0  0  0
 43 45  1  0  0  0  0
 43 44  1  0  0  0  0
 46 45  2  0  0  0  0
M  END
>  <minimizedAffinity>
-7.05484009

$$$$

 OpenBabel03272509233D

 46 50  0  0  0  0  0  0  0  0999 V2000
   39.2550   24.8470   34.6600 C   0  0  0  0  0  0  0  0  0  0  0  0
   40.5450   24.5960   35.0850 C   0  0  0  0  0  0  0  0  0  0  0  0
   41.4180   25.6790   34.9210 C   0  0  0  0  0  0  0  0  0  0  0  0
   40.9990   26.8960   34.3750 C   0  0  0  0  0  0  0  0  0  0  0  0
   39.6590   27.0460   33.9730 C   0  0  0  0  0  0  0  0  0  0  0  0
   38.7790   25.9950   34.1240 C   0  0  0  0  0  0  0  0  0  0  0  0
   42.4450   25.5240   35.2420 H   0  0  0  0  0  0  0  0  0  0  0  0
   41.7270   27.6850   34.2790 H   0  0  0  0  0  0  0  0  0  0  0  0
   39.3880   28.0090   33.5570 H   0  0  0  0  0  0  0  0  0  0  0  0
   40.7000   23.0600   36.9800 C   0  0  0  0  0  0  0  0  0  0  0  0
   40.9750   23.3550   35.6420 C   0  0  0  0  0  0  0  0  0  0  0  0
   41.6740   22.4000   34.8910 C   0  0  0  0  0  0  0  0  0  0  0  0
   42.0460   21.2480   35.4950 N   0  0  0  0  0  0  0  0  0  0  0  0
   41.7560   21.0010   36.8070 C   0  0  0  0  0  0  0  0  0  0  0  0
   41.0930   21.9030   37.5230 N   0  0  0  0  0  0  0  0  0  0  0  0
   40.1590   23.8010   37.5570 H   0  0  0  0  0  0  0  0  0  0  0  0
   42.1110   20.0360   37.1710 H   0  0  0  0  0  0  0  0  0  0  0  0
   41.9930   22.6620   33.4660 C   0  0  0  0  0  0  0  0  0  0  0  0
   41.0800   23.1150   32.9930 H   0  0  0  0  0  0  0  0  0  0  0  0
   42.9000   23.2590   33.3350 H   0  0  0  0  0  0  0  0  0  0  0  0
   42.0660   21.6490   32.9900 H   0  0  0  0  0  0  0  0  0  0  0  0
   38.2970   23.8340   34.7760 O   0  0  0  0  0  0  0  0  0  0  0  0
   38.0450   23.2880   33.9680 H   0  0  0  0  0  0  0  0  0  0  0  0
   37.4900   26.2200   33.7090 O   0  0  0  0  0  0  0  0  0  0  0  0
   36.2190   28.2730   34.3550 C   0  0  0  0  0  0  0  0  0  0  0  0
   36.8880   27.4340   33.4930 C   0  0  0  0  0  0  0  0  0  0  0  0
   37.0160   27.8200   32.1540 C   0  0  0  0  0  0  0  0  0  0  0  0
   36.4710   29.0350   31.7090 C   0  0  0  0  0  0  0  0  0  0  0  0
   36.4270   29.6730   30.5170 N   0  0  0  0  0  0  0  0  0  0  0  0
   35.7680   30.8330   30.6470 C   0  0  0  0  0  0  0  0  0  0  0  0
   35.3930   30.9270   31.9410 N   0  0  0  0  0  0  0  0  0  0  0  0
   35.8160   29.8340   32.6060 C   0  0  0  0  0  0  0  0  0  0  0  0
   35.6860   29.4620   33.9260 C   0  0  0  0  0  0  0  0  0  0  0  0
   36.1780   27.8800   35.3660 H   0  0  0  0  0  0  0  0  0  0  0  0
   37.5140   27.2640   31.3600 H   0  0  0  0  0  0  0  0  0  0  0  0
   36.8590   29.2830   29.6280 H   0  0  0  0  0  0  0  0  0  0  0  0
   35.5860   31.5380   29.8530 H   0  0  0  0  0  0  0  0  0  0  0  0
   32.9000   29.3860   34.5050 F   0  0  0  0  0  0  0  0  0  0  0  0
   33.6430   30.2710   35.2010 C   0  0  0  0  0  0  0  0  0  0  0  0
   34.9900   30.2940   34.9070 C   0  0  0  0  0  0  0  0  0  0  0  0
   35.8740   31.1620   35.5550 C   0  0  0  0  0  0  0  0  0  0  0  0
   36.9280   31.2360   35.3800 H   0  0  0  0  0  0  0  0  0  0  0  0
   35.3770   32.0280   36.5230 C   0  0  0  0  0  0  0  0  0  0  0  0
   36.0040   32.7270   37.0630 H   0  0  0  0  0  0  0  0  0  0  0  0
   34.0240   31.9750   36.7890 C   0  0  0  0  0  3  0  0  0  0  0  0
   33.1330   31.1280   36.1630 C   0  0  0  0  0  3  0  0  0  0  0  0
  1 22  1  0  0  0  0
  1  2  1  0  0  0  0
  2 11  1  0  0  0  0
  3  2  2  0  0  0  0
  3  7  1  0  0  0  0
  4  3  1  0  0  0  0
  5  6  1  0  0  0  0
  5  4  2  0  0  0  0
  6  1  2  0  0  0  0
  8  4  1  0  0  0  0
  9  5  1  0  0  0  0
 10 15  1  0  0  0  0
 10 16  1  0  0  0  0
 11 10  2  0  0  0  0
 12 13  2  0  0  0  0
 12 11  1  0  0  0  0
 13 14  1  0  0  0  0
 14 17  1  0  0  0  0
 14 15  2  0  0  0  0
 18 12  1  0  0  0  0
 19 18  1  0  0  0  0
 20 18  1  0  0  0  0
 21 18  1  0  0  0  0
 23 22  1  0  0  0  0
 24  6  1  0  0  0  0
 25 34  1  0  0  0  0
 26 24  1  0  0  0  0
 26 25  2  0  0  0  0
 27 26  1  0  0  0  0
 28 27  2  0  0  0  0
 28 32  1  0  0  0  0
 29 30  1  0  0  0  0
 29 28  1  0  0  0  0
 30 31  2  0  0  0  0
 31 32  1  0  0  0  0
 32 33  2  0  0  0  0
 33 25  1  0  0  0  0
 33 40  1  0  0  0  0
 35 27  1  0  0  0  0
 36 29  1  0  0  0  0
 37 30  1  0  0  0  0
 38 39  1  0  0  0  0
 39 46  1  0  0  0  0
 40 39  2  0  0  0  0
 40 41  1  0  0  0  0
 41 43  2  0  0  0  0
 42 41  1  0  0  0  0
 43 45  1  0  0  0  0
 43 44  1  0  0  0  0
 46 45  2  0  0  0  0
M  END
>  <minimizedAffinity>
-6.94607735

$$$$

 OpenBabel03272509233D

 46 50  0  0  0  0  0  0  0  0999 V2000
   38.0070   25.9950   34.0660 C   0  0  0  0  0  0  0  0  0  0  0  0
   38.0160   24.6390   34.3300 C   0  0  0  0  0  0  0  0  0  0  0  0
   37.4160   23.8620   33.3310 C   0  0  0  0  0  0  0  0  0  0  0  0
   36.8650   24.4290   32.1780 C   0  0  0  0  0  0  0  0  0  0  0  0
   36.9090   25.8250   32.0080 C   0  0  0  0  0  0  0  0  0  0  0  0
   37.4940   26.6130   32.9770 C   0  0  0  0  0  0  0  0  0  0  0  0
   37.4010   22.7870   33.4990 H   0  0  0  0  0  0  0  0  0  0  0  0
   36.4200   23.7680   31.4520 H   0  0  0  0  0  0  0  0  0  0  0  0
   36.4670   26.2110   31.0970 H   0  0  0  0  0  0  0  0  0  0  0  0
   37.7940   23.9100   36.6530 C   0  0  0  0  0  0  0  0  0  0  0  0
   38.5780   24.0580   35.5060 C   0  0  0  0  0  0  0  0  0  0  0  0
   39.9090   23.6190   35.5600 C   0  0  0  0  0  0  0  0  0  0  0  0
   40.3650   23.0780   36.7130 N   0  0  0  0  0  0  0  0  0  0  0  0
   39.5620   22.9540   37.8120 C   0  0  0  0  0  0  0  0  0  0  0  0
   38.3010   23.3680   37.7650 N   0  0  0  0  0  0  0  0  0  0  0  0
   36.7670   24.2500   36.6070 H   0  0  0  0  0  0  0  0  0  0  0  0
   40.0520   22.5020   38.6760 H   0  0  0  0  0  0  0  0  0  0  0  0
   40.7850   23.7510   34.3700 C   0  0  0  0  0  0  0  0  0  0  0  0
   40.1830   23.4480   33.4710 H   0  0  0  0  0  0  0  0  0  0  0  0
   41.2370   24.7430   34.2830 H   0  0  0  0  0  0  0  0  0  0  0  0
   41.5450   22.9330   34.4720 H   0  0  0  0  0  0  0  0  0  0  0  0
   38.5790   26.8670   34.9990 O   0  0  0  0  0  0  0  0  0  0  0  0
   37.9890   27.3790   35.6340 H   0  0  0  0  0  0  0  0  0  0  0  0
   37.4970   27.9650   32.7380 O   0  0  0  0  0  0  0  0  0  0  0  0
   35.6740   29.1620   33.9590 C   0  0  0  0  0  0  0  0  0  0  0  0
   36.4420   28.8320   32.8650 C   0  0  0  0  0  0  0  0  0  0  0  0
   36.1540   29.4470   31.6410 C   0  0  0  0  0  0  0  0  0  0  0  0
   35.1060   30.3750   31.5410 C   0  0  0  0  0  0  0  0  0  0  0  0
   34.5930   31.1180   30.5330 N   0  0  0  0  0  0  0  0  0  0  0  0
   33.5720   31.8570   30.9890 C   0  0  0  0  0  0  0  0  0  0  0  0
   33.4410   31.5750   32.3040 N   0  0  0  0  0  0  0  0  0  0  0  0
   34.3730   30.6690   32.6580 C   0  0  0  0  0  0  0  0  0  0  0  0
   34.6500   30.0690   33.8660 C   0  0  0  0  0  0  0  0  0  0  0  0
   35.9800   28.6300   34.8550 H   0  0  0  0  0  0  0  0  0  0  0  0
   36.6710   29.2870   30.6950 H   0  0  0  0  0  0  0  0  0  0  0  0
   34.9670   31.0950   29.5390 H   0  0  0  0  0  0  0  0  0  0  0  0
   32.9830   32.5390   30.3980 H   0  0  0  0  0  0  0  0  0  0  0  0
   32.2410   28.7830   34.6720 F   0  0  0  0  0  0  0  0  0  0  0  0
   32.7160   29.7500   35.4830 C   0  0  0  0  0  0  0  0  0  0  0  0
   33.8830   30.3620   35.0770 C   0  0  0  0  0  0  0  0  0  0  0  0
   34.4840   31.3790   35.8250 C   0  0  0  0  0  0  0  0  0  0  0  0
   35.3860   31.8990   35.5740 H   0  0  0  0  0  0  0  0  0  0  0  0
   33.8840   31.7840   37.0120 C   0  0  0  0  0  0  0  0  0  0  0  0
   34.2940   32.5660   37.6400 H   0  0  0  0  0  0  0  0  0  0  0  0
   32.7170   31.1480   37.3840 C   0  0  0  0  0  3  0  0  0  0  0  0
   32.1060   30.1420   36.6640 C   0  0  0  0  0  3  0  0  0  0  0  0
  1  2  1  0  0  0  0
  1 22  1  0  0  0  0
  2 11  1  0  0  0  0
  3  7  1  0  0  0  0
  3  2  2  0  0  0  0
  4  3  1  0  0  0  0
  5  4  2  0  0  0  0
  5  6  1  0  0  0  0
  6  1  2  0  0  0  0
  8  4  1  0  0  0  0
  9  5  1  0  0  0  0
 10 15  1  0  0  0  0
 11 12  1  0  0  0  0
 11 10  2  0  0  0  0
 12 13  2  0  0  0  0
 13 14  1  0  0  0  0
 14 17  1  0  0  0  0
 15 14  2  0  0  0  0
 16 10  1  0  0  0  0
 18 21  1  0  0  0  0
 18 12  1  0  0  0  0
 19 18  1  0  0  0  0
 20 18  1  0  0  0  0
 22 23  1  0  0  0  0
 24 26  1  0  0  0  0
 24  6  1  0  0  0  0
 25 34  1  0  0  0  0
 26 25  2  0  0  0  0
 27 26  1  0  0  0  0
 28 27  2  0  0  0  0
 28 32  1  0  0  0  0
 29 30  1  0  0  0  0
 29 28  1  0  0  0  0
 30 31  2  0  0  0  0
 31 32  1  0  0  0  0
 32 33  2  0  0  0  0
 33 25  1  0  0  0  0
 33 40  1  0  0  0  0
 35 27  1  0  0  0  0
 36 29  1  0  0  0  0
 37 30  1  0  0  0  0
 38 39  1  0  0  0  0
 39 46  1  0  0  0  0
 40 39  2  0  0  0  0
 40 41  1  0  0  0  0
 41 43  2  0  0  0  0
 42 41  1  0  0  0  0
 43 45  1  0  0  0  0
 43 44  1  0  0  0  0
 46 45  2  0  0  0  0
M  END
>  <minimizedAffinity>
-6.85623932

$$$$

 OpenBabel03272509233D

 46 50  0  0  0  0  0  0  0  0999 V2000
   37.2900   24.6650   32.1620 C   0  0  0  0  0  0  0  0  0  0  0  0
   36.8120   23.5610   31.4820 C   0  0  0  0  0  0  0  0  0  0  0  0
   35.5720   23.7670   30.8650 C   0  0  0  0  0  0  0  0  0  0  0  0
   34.8970   24.9880   30.9410 C   0  0  0  0  0  0  0  0  0  0  0  0
   35.4740   26.0510   31.6600 C   0  0  0  0  0  0  0  0  0  0  0  0
   36.6950   25.8750   32.2780 C   0  0  0  0  0  0  0  0  0  0  0  0
   35.1590   22.9220   30.3190 H   0  0  0  0  0  0  0  0  0  0  0  0
   33.9460   25.0730   30.4400 H   0  0  0  0  0  0  0  0  0  0  0  0
   34.9080   26.9750   31.6860 H   0  0  0  0  0  0  0  0  0  0  0  0
   38.4900   22.1240   30.4360 C   0  0  0  0  0  0  0  0  0  0  0  0
   37.5000   22.3130   31.4030 C   0  0  0  0  0  0  0  0  0  0  0  0
   37.2210   21.2490   32.2730 C   0  0  0  0  0  0  0  0  0  0  0  0
   37.9180   20.0990   32.1320 N   0  0  0  0  0  0  0  0  0  0  0  0
   38.8780   19.9570   31.1690 C   0  0  0  0  0  0  0  0  0  0  0  0
   39.1460   20.9630   30.3440 N   0  0  0  0  0  0  0  0  0  0  0  0
   38.7020   22.9480   29.7650 H   0  0  0  0  0  0  0  0  0  0  0  0
   39.3660   18.9810   31.1630 H   0  0  0  0  0  0  0  0  0  0  0  0
   36.1790   21.3970   33.3190 C   0  0  0  0  0  0  0  0  0  0  0  0
   36.3050   22.4140   33.7810 H   0  0  0  0  0  0  0  0  0  0  0  0
   35.1700   21.2040   32.9450 H   0  0  0  0  0  0  0  0  0  0  0  0
   36.4830   20.6920   34.1370 H   0  0  0  0  0  0  0  0  0  0  0  0
   38.5220   24.5730   32.8180 O   0  0  0  0  0  0  0  0  0  0  0  0
   38.5490   24.4300   33.8150 H   0  0  0  0  0  0  0  0  0  0  0  0
   37.1900   26.9590   32.9590 O   0  0  0  0  0  0  0  0  0  0  0  0
   36.0050   28.8510   34.0830 C   0  0  0  0  0  0  0  0  0  0  0  0
   36.6370   28.2110   33.0400 C   0  0  0  0  0  0  0  0  0  0  0  0
   36.7740   28.8940   31.8260 C   0  0  0  0  0  0  0  0  0  0  0  0
   36.2760   30.1990   31.6850 C   0  0  0  0  0  0  0  0  0  0  0  0
   36.2520   31.0980   30.6740 N   0  0  0  0  0  0  0  0  0  0  0  0
   35.6410   32.2200   31.0800 C   0  0  0  0  0  0  0  0  0  0  0  0
   35.2750   32.0240   32.3650 N   0  0  0  0  0  0  0  0  0  0  0  0
   35.6570   30.7910   32.7520 C   0  0  0  0  0  0  0  0  0  0  0  0
   35.5180   30.1260   33.9500 C   0  0  0  0  0  0  0  0  0  0  0  0
   35.9520   28.2350   34.9760 H   0  0  0  0  0  0  0  0  0  0  0  0
   37.2470   28.5200   30.9190 H   0  0  0  0  0  0  0  0  0  0  0  0
   36.6650   30.9110   29.7130 H   0  0  0  0  0  0  0  0  0  0  0  0
   35.4830   33.0970   30.4750 H   0  0  0  0  0  0  0  0  0  0  0  0
   36.7160   31.9290   35.7980 F   0  0  0  0  0  0  0  0  0  0  0  0
   35.4230   31.6070   36.0120 C   0  0  0  0  0  0  0  0  0  0  0  0
   34.8600   30.7320   35.1070 C   0  0  0  0  0  0  0  0  0  0  0  0
   33.5300   30.3150   35.2110 C   0  0  0  0  0  0  0  0  0  0  0  0
   33.0250   29.6410   34.5490 H   0  0  0  0  0  0  0  0  0  0  0  0
   32.7540   30.7980   36.2600 C   0  0  0  0  0  0  0  0  0  0  0  0
   31.7170   30.5170   36.4010 H   0  0  0  0  0  0  0  0  0  0  0  0
   33.3540   31.6710   37.1440 C   0  0  0  0  0  3  0  0  0  0  0  0
   34.6640   32.0970   37.0620 C   0  0  0  0  0  3  0  0  0  0  0  0
  1  6  1  0  0  0  0
  1 22  1  0  0  0  0
  2  1  2  0  0  0  0
  3  4  2  0  0  0  0
  3  2  1  0  0  0  0
  4  5  1  0  0  0  0
  5  9  1  0  0  0  0
  5  6  2  0  0  0  0
  6 24  1  0  0  0  0
  7  3  1  0  0  0  0
  8  4  1  0  0  0  0
 10 11  1  0  0  0  0
 11  2  1  0  0  0  0
 11 12  2  0  0  0  0
 12 18  1  0  0  0  0
 13 12  1  0  0  0  0
 14 13  2  0  0  0  0
 15 10  2  0  0  0  0
 15 14  1  0  0  0  0
 16 10  1  0  0  0  0
 17 14  1  0  0  0  0
 18 19  1  0  0  0  0
 18 21  1  0  0  0  0
 20 18  1  0  0  0  0
 22 23  1  0  0  0  0
 24 26  1  0  0  0  0
 25 34  1  0  0  0  0
 26 25  2  0  0  0  0
 27 26  1  0  0  0  0
 28 27  2  0  0  0  0
 28 32  1  0  0  0  0
 29 30  1  0  0  0  0
 29 28  1  0  0  0  0
 30 31  2  0  0  0  0
 31 32  1  0  0  0  0
 32 33  2  0  0  0  0
 33 25  1  0  0  0  0
 33 40  1  0  0  0  0
 35 27  1  0  0  0  0
 36 29  1  0  0  0  0
 37 30  1  0  0  0  0
 38 39  1  0  0  0  0
 39 46  1  0  0  0  0
 40 41  1  0  0  0  0
 40 39  2  0  0  0  0
 41 43  2  0  0  0  0
 42 41  1  0  0  0  0
 43 44  1  0  0  0  0
 43 45  1  0  0  0  0
 46 45  2  0  0  0  0
M  END
>  <minimizedAffinity>
-6.79936457

$$$$

 OpenBabel03272509233D

 46 50  0  0  0  0  0  0  0  0999 V2000
   38.1630   26.2060   34.1450 C   0  0  0  0  0  0  0  0  0  0  0  0
   39.1330   25.7010   34.9900 C   0  0  0  0  0  0  0  0  0  0  0  0
   40.4320   26.1210   34.6770 C   0  0  0  0  0  0  0  0  0  0  0  0
   40.7000   26.9750   33.6040 C   0  0  0  0  0  0  0  0  0  0  0  0
   39.6360   27.4310   32.8040 C   0  0  0  0  0  0  0  0  0  0  0  0
   38.3470   27.0330   33.0910 C   0  0  0  0  0  0  0  0  0  0  0  0
   41.2280   25.7460   35.3180 H   0  0  0  0  0  0  0  0  0  0  0  0
   41.7250   27.2560   33.4240 H   0  0  0  0  0  0  0  0  0  0  0  0
   39.9000   28.0910   31.9860 H   0  0  0  0  0  0  0  0  0  0  0  0
   38.2840   25.3370   37.2530 C   0  0  0  0  0  0  0  0  0  0  0  0
   38.8620   24.8300   36.0870 C   0  0  0  0  0  0  0  0  0  0  0  0
   39.1560   23.4590   36.0430 C   0  0  0  0  0  0  0  0  0  0  0  0
   38.8680   22.7020   37.1260 N   0  0  0  0  0  0  0  0  0  0  0  0
   38.3020   23.2410   38.2470 C   0  0  0  0  0  0  0  0  0  0  0  0
   38.0210   24.5390   38.2920 N   0  0  0  0  0  0  0  0  0  0  0  0
   38.0580   26.3970   37.2830 H   0  0  0  0  0  0  0  0  0  0  0  0
   38.1200   22.5220   39.0480 H   0  0  0  0  0  0  0  0  0  0  0  0
   39.7710   22.8680   34.8290 C   0  0  0  0  0  0  0  0  0  0  0  0
   39.2470   23.3070   33.9370 H   0  0  0  0  0  0  0  0  0  0  0  0
   40.8580   22.9840   34.8030 H   0  0  0  0  0  0  0  0  0  0  0  0
   39.4470   21.7950   34.8290 H   0  0  0  0  0  0  0  0  0  0  0  0
   36.8270   25.8500   34.3640 O   0  0  0  0  0  0  0  0  0  0  0  0
   36.4000   25.1360   33.7980 H   0  0  0  0  0  0  0  0  0  0  0  0
   37.3650   27.5210   32.2650 O   0  0  0  0  0  0  0  0  0  0  0  0
   36.0380   29.1610   33.6060 C   0  0  0  0  0  0  0  0  0  0  0  0
   36.5980   28.6420   32.4600 C   0  0  0  0  0  0  0  0  0  0  0  0
   36.3920   29.3200   31.2530 C   0  0  0  0  0  0  0  0  0  0  0  0
   35.6310   30.4990   31.2210 C   0  0  0  0  0  0  0  0  0  0  0  0
   35.2610   31.3600   30.2460 N   0  0  0  0  0  0  0  0  0  0  0  0
   34.5190   32.3460   30.7690 C   0  0  0  0  0  0  0  0  0  0  0  0
   34.4210   32.1020   32.0940 N   0  0  0  0  0  0  0  0  0  0  0  0
   35.0970   30.9740   32.3880 C   0  0  0  0  0  0  0  0  0  0  0  0
   35.2950   30.3130   33.5800 C   0  0  0  0  0  0  0  0  0  0  0  0
   36.2590   28.5600   34.4830 H   0  0  0  0  0  0  0  0  0  0  0  0
   36.7690   29.0320   30.2720 H   0  0  0  0  0  0  0  0  0  0  0  0
   35.5350   31.2430   29.2260 H   0  0  0  0  0  0  0  0  0  0  0  0
   34.0930   33.1660   30.2150 H   0  0  0  0  0  0  0  0  0  0  0  0
   36.6150   31.9980   35.4560 F   0  0  0  0  0  0  0  0  0  0  0  0
   35.3600   31.6120   35.7620 C   0  0  0  0  0  0  0  0  0  0  0  0
   34.7360   30.7960   34.8420 C   0  0  0  0  0  0  0  0  0  0  0  0
   33.4340   30.3250   35.0350 C   0  0  0  0  0  0  0  0  0  0  0  0
   32.8870   29.6900   34.3670 H   0  0  0  0  0  0  0  0  0  0  0  0
   32.7510   30.6900   36.1900 C   0  0  0  0  0  0  0  0  0  0  0  0
   31.7410   30.3600   36.4030 H   0  0  0  0  0  0  0  0  0  0  0  0
   33.4080   31.5060   37.0860 C   0  0  0  0  0  3  0  0  0  0  0  0
   34.6920   31.9850   36.9180 C   0  0  0  0  0  3  0  0  0  0  0  0
  1 22  1  0  0  0  0
  1  2  1  0  0  0  0
  2 11  1  0  0  0  0
  3  2  2  0  0  0  0
  3  7  1  0  0  0  0
  4  3  1  0  0  0  0
  5  6  1  0  0  0  0
  5  4  2  0  0  0  0
  6  1  2  0  0  0  0
  8  4  1  0  0  0  0
  9  5  1  0  0  0  0
 10 16  1  0  0  0  0
 10 15  1  0  0  0  0
 11 10  2  0  0  0  0
 12 11  1  0  0  0  0
 12 13  2  0  0  0  0
 13 14  1  0  0  0  0
 14 15  2  0  0  0  0
 14 17  1  0  0  0  0
 18 12  1  0  0  0  0
 19 18  1  0  0  0  0
 20 18  1  0  0  0  0
 21 18  1  0  0  0  0
 23 22  1  0  0  0  0
 24 26  1  0  0  0  0
 24  6  1  0  0  0  0
 25 34  1  0  0  0  0
 26 25  2  0  0  0  0
 27 26  1  0  0  0  0
 28 27  2  0  0  0  0
 28 32  1  0  0  0  0
 29 30  1  0  0  0  0
 29 28  1  0  0  0  0
 30 31  2  0  0  0  0
 31 32  1  0  0  0  0
 32 33  2  0  0  0  0
 33 25  1  0  0  0  0
 33 40  1  0  0  0  0
 35 27  1  0  0  0  0
 36 29  1  0  0  0  0
 37 30  1  0  0  0  0
 38 39  1  0  0  0  0
 39 46  1  0  0  0  0
 40 41  1  0  0  0  0
 40 39  2  0  0  0  0
 41 43  2  0  0  0  0
 42 41  1  0  0  0  0
 43 44  1  0  0  0  0
 43 45  1  0  0  0  0
 46 45  2  0  0  0  0
M  END
>  <minimizedAffinity>
-6.75841141

$$$$

 OpenBabel03272509233D

 46 50  0  0  0  0  0  0  0  0999 V2000
   38.1800   26.1600   31.1210 C   0  0  0  0  0  0  0  0  0  0  0  0
   39.4030   25.8540   30.5550 C   0  0  0  0  0  0  0  0  0  0  0  0
   40.5000   26.2020   31.3530 C   0  0  0  0  0  0  0  0  0  0  0  0
   40.3480   26.8020   32.6060 C   0  0  0  0  0  0  0  0  0  0  0  0
   39.0540   27.0720   33.0890 C   0  0  0  0  0  0  0  0  0  0  0  0
   37.9560   26.7390   32.3230 C   0  0  0  0  0  0  0  0  0  0  0  0
   41.4830   25.9780   30.9460 H   0  0  0  0  0  0  0  0  0  0  0  0
   41.2390   27.0410   33.1650 H   0  0  0  0  0  0  0  0  0  0  0  0
   38.9940   27.5370   34.0660 H   0  0  0  0  0  0  0  0  0  0  0  0
   39.8540   26.0250   28.1590 C   0  0  0  0  0  0  0  0  0  0  0  0
   39.5600   25.2400   29.2770 C   0  0  0  0  0  0  0  0  0  0  0  0
   39.4310   23.8560   29.0910 C   0  0  0  0  0  0  0  0  0  0  0  0
   39.5960   23.3540   27.8460 N   0  0  0  0  0  0  0  0  0  0  0  0
   39.8830   24.1600   26.7800 C   0  0  0  0  0  0  0  0  0  0  0  0
   40.0060   25.4710   26.9520 N   0  0  0  0  0  0  0  0  0  0  0  0
   39.9530   27.0940   28.3070 H   0  0  0  0  0  0  0  0  0  0  0  0
   39.9910   23.6290   25.8330 H   0  0  0  0  0  0  0  0  0  0  0  0
   39.1200   22.9760   30.2440 C   0  0  0  0  0  0  0  0  0  0  0  0
   39.7480   23.3190   31.1100 H   0  0  0  0  0  0  0  0  0  0  0  0
   38.0500   22.9290   30.4670 H   0  0  0  0  0  0  0  0  0  0  0  0
   39.5540   21.9780   29.9760 H   0  0  0  0  0  0  0  0  0  0  0  0
   37.0130   25.8570   30.4100 O   0  0  0  0  0  0  0  0  0  0  0  0
   36.5290   26.5840   29.9100 H   0  0  0  0  0  0  0  0  0  0  0  0
   36.7290   27.0330   32.8640 O   0  0  0  0  0  0  0  0  0  0  0  0
   35.6630   28.9480   34.0660 C   0  0  0  0  0  0  0  0  0  0  0  0
   36.1440   28.2700   32.9690 C   0  0  0  0  0  0  0  0  0  0  0  0
   36.0560   28.8850   31.7150 C   0  0  0  0  0  0  0  0  0  0  0  0
   35.4890   30.1630   31.5880 C   0  0  0  0  0  0  0  0  0  0  0  0
   35.2650   31.0010   30.5500 N   0  0  0  0  0  0  0  0  0  0  0  0
   34.6810   32.1240   30.9900 C   0  0  0  0  0  0  0  0  0  0  0  0
   34.5350   31.9910   32.3270 N   0  0  0  0  0  0  0  0  0  0  0  0
   35.0250   30.7950   32.7100 C   0  0  0  0  0  0  0  0  0  0  0  0
   35.1080   30.1970   33.9470 C   0  0  0  0  0  0  0  0  0  0  0  0
   35.7800   28.3830   34.9860 H   0  0  0  0  0  0  0  0  0  0  0  0
   36.3920   28.4750   30.7630 H   0  0  0  0  0  0  0  0  0  0  0  0
   35.5260   30.7710   29.5450 H   0  0  0  0  0  0  0  0  0  0  0  0
   34.3920   32.9590   30.3750 H   0  0  0  0  0  0  0  0  0  0  0  0
   36.6120   31.9250   35.6360 F   0  0  0  0  0  0  0  0  0  0  0  0
   35.3340   31.6870   35.9930 C   0  0  0  0  0  0  0  0  0  0  0  0
   34.6200   30.8470   35.1630 C   0  0  0  0  0  0  0  0  0  0  0  0
   33.2860   30.5170   35.4150 C   0  0  0  0  0  0  0  0  0  0  0  0
   32.6700   29.8750   34.8190 H   0  0  0  0  0  0  0  0  0  0  0  0
   32.6620   31.0520   36.5370 C   0  0  0  0  0  0  0  0  0  0  0  0
   31.6310   30.8380   36.7940 H   0  0  0  0  0  0  0  0  0  0  0  0
   33.4080   31.8870   37.3430 C   0  0  0  0  0  3  0  0  0  0  0  0
   34.7260   32.2280   37.1140 C   0  0  0  0  0  3  0  0  0  0  0  0
  1  6  1  0  0  0  0
  2  1  2  0  0  0  0
  2  3  1  0  0  0  0
  3  4  2  0  0  0  0
  4  5  1  0  0  0  0
  4  8  1  0  0  0  0
  5  9  1  0  0  0  0
  6 24  1  0  0  0  0
  6  5  2  0  0  0  0
  7  3  1  0  0  0  0
 10 16  1  0  0  0  0
 10 11  1  0  0  0  0
 11  2  1  0  0  0  0
 12 11  2  0  0  0  0
 12 18  1  0  0  0  0
 13 12  1  0  0  0  0
 14 15  1  0  0  0  0
 14 13  2  0  0  0  0
 15 10  2  0  0  0  0
 17 14  1  0  0  0  0
 18 20  1  0  0  0  0
 18 19  1  0  0  0  0
 21 18  1  0  0  0  0
 22  1  1  0  0  0  0
 23 22  1  0  0  0  0
 24 26  1  0  0  0  0
 25 34  1  0  0  0  0
 26 25  2  0  0  0  0
 27 26  1  0  0  0  0
 28 27  2  0  0  0  0
 28 32  1  0  0  0  0
 29 30  1  0  0  0  0
 29 28  1  0  0  0  0
 30 31  2  0  0  0  0
 31 32  1  0  0  0  0
 32 33  2  0  0  0  0
 33 25  1  0  0  0  0
 33 40  1  0  0  0  0
 35 27  1  0  0  0  0
 36 29  1  0  0  0  0
 37 30  1  0  0  0  0
 38 39  1  0  0  0  0
 39 46  1  0  0  0  0
 40 41  1  0  0  0  0
 40 39  2  0  0  0  0
 41 43  2  0  0  0  0
 42 41  1  0  0  0  0
 43 44  1  0  0  0  0
 43 45  1  0  0  0  0
 46 45  2  0  0  0  0
M  END
>  <minimizedAffinity>
-6.65272236

$$$$

 OpenBabel03272509233D

 46 50  0  0  0  0  0  0  0  0999 V2000
   35.9040   29.0960   33.6570 C   0  0  0  0  0  0  0  0  0  0  0  0
   34.8140   29.9460   33.6850 C   0  0  0  0  0  0  0  0  0  0  0  0
   34.4710   30.4690   32.4320 C   0  0  0  0  0  0  0  0  0  0  0  0
   35.1790   30.1450   31.2710 C   0  0  0  0  0  0  0  0  0  0  0  0
   36.2750   29.2670   31.3550 C   0  0  0  0  0  0  0  0  0  0  0  0
   36.6350   28.7380   32.5770 C   0  0  0  0  0  0  0  0  0  0  0  0
   33.6180   31.1440   32.4080 H   0  0  0  0  0  0  0  0  0  0  0  0
   34.8560   30.5860   30.3410 H   0  0  0  0  0  0  0  0  0  0  0  0
   36.7880   29.0500   30.4250 H   0  0  0  0  0  0  0  0  0  0  0  0
   32.9150   29.5900   35.1810 C   0  0  0  0  0  0  0  0  0  0  0  0
   34.0900   30.2780   34.8680 C   0  0  0  0  0  0  0  0  0  0  0  0
   34.5160   31.2830   35.7480 C   0  0  0  0  0  0  0  0  0  0  0  0
   33.7720   31.5360   36.8490 N   0  0  0  0  0  0  0  0  0  0  0  0
   32.6280   30.8380   37.1160 C   0  0  0  0  0  0  0  0  0  0  0  0
   32.2210   29.8850   36.2850 N   0  0  0  0  0  0  0  0  0  0  0  0
   32.5890   28.8140   34.4990 H   0  0  0  0  0  0  0  0  0  0  0  0
   32.1220   31.1400   38.0350 H   0  0  0  0  0  0  0  0  0  0  0  0
   35.7570   32.0450   35.4640 C   0  0  0  0  0  0  0  0  0  0  0  0
   36.5320   31.3100   35.1150 H   0  0  0  0  0  0  0  0  0  0  0  0
   35.5970   32.8780   34.7740 H   0  0  0  0  0  0  0  0  0  0  0  0
   36.1340   32.3750   36.4670 H   0  0  0  0  0  0  0  0  0  0  0  0
   36.3370   28.5160   34.8550 O   0  0  0  0  0  0  0  0  0  0  0  0
   37.1350   28.8960   35.3360 H   0  0  0  0  0  0  0  0  0  0  0  0
   37.7140   27.8900   32.5750 O   0  0  0  0  0  0  0  0  0  0  0  0
   37.2080   25.4450   32.4440 C   0  0  0  0  0  0  0  0  0  0  0  0
   37.7780   26.6300   32.0360 C   0  0  0  0  0  0  0  0  0  0  0  0
   38.5710   26.6240   30.8820 C   0  0  0  0  0  0  0  0  0  0  0  0
   38.7740   25.4330   30.1660 C   0  0  0  0  0  0  0  0  0  0  0  0
   39.4640   25.1080   29.0490 N   0  0  0  0  0  0  0  0  0  0  0  0
   39.3210   23.7990   28.7930 C   0  0  0  0  0  0  0  0  0  0  0  0
   38.5280   23.2950   29.7640 N   0  0  0  0  0  0  0  0  0  0  0  0
   38.1840   24.2830   30.6130 C   0  0  0  0  0  0  0  0  0  0  0  0
   37.4030   24.2810   31.7470 C   0  0  0  0  0  0  0  0  0  0  0  0
   36.6150   25.5610   33.3460 H   0  0  0  0  0  0  0  0  0  0  0  0
   39.0850   27.4770   30.4400 H   0  0  0  0  0  0  0  0  0  0  0  0
   40.0260   25.8090   28.4820 H   0  0  0  0  0  0  0  0  0  0  0  0
   39.7640   23.2750   27.9630 H   0  0  0  0  0  0  0  0  0  0  0  0
   35.0950   23.0320   30.6440 F   0  0  0  0  0  0  0  0  0  0  0  0
   35.6440   22.4480   31.7290 C   0  0  0  0  0  0  0  0  0  0  0  0
   36.7610   23.0670   32.2500 C   0  0  0  0  0  0  0  0  0  0  0  0
   37.4280   22.5660   33.3720 C   0  0  0  0  0  0  0  0  0  0  0  0
   38.2980   22.9910   33.8310 H   0  0  0  0  0  0  0  0  0  0  0  0
   36.9480   21.4110   33.9790 C   0  0  0  0  0  0  0  0  0  0  0  0
   37.4150   20.9690   34.8520 H   0  0  0  0  0  0  0  0  0  0  0  0
   35.8290   20.8210   33.4290 C   0  0  0  0  0  3  0  0  0  0  0  0
   35.1540   21.2960   32.3230 C   0  0  0  0  0  3  0  0  0  0  0  0
  1  2  1  0  0  0  0
  1 22  1  0  0  0  0
  2 11  1  0  0  0  0
  3  2  2  0  0  0  0
  4  5  2  0  0  0  0
  4  3  1  0  0  0  0
  5  6  1  0  0  0  0
  6  1  2  0  0  0  0
  7  3  1  0  0  0  0
  8  4  1  0  0  0  0
  9  5  1  0  0  0  0
 10 15  1  0  0  0  0
 11 10  2  0  0  0  0
 11 12  1  0  0  0  0
 12 13  2  0  0  0  0
 13 14  1  0  0  0  0
 14 17  1  0  0  0  0
 15 14  2  0  0  0  0
 16 10  1  0  0  0  0
 18 12  1  0  0  0  0
 18 21  1  0  0  0  0
 19 18  1  0  0  0  0
 20 18  1  0  0  0  0
 22 23  1  0  0  0  0
 24  6  1  0  0  0  0
 25 34  1  0  0  0  0
 26 25  1  0  0  0  0
 26 24  1  0  0  0  0
 27 26  2  0  0  0  0
 28 32  2  0  0  0  0
 28 27  1  0  0  0  0
 29 28  1  0  0  0  0
 30 29  1  0  0  0  0
 30 31  2  0  0  0  0
 31 32  1  0  0  0  0
 32 33  1  0  0  0  0
 33 40  1  0  0  0  0
 33 25  2  0  0  0  0
 35 27  1  0  0  0  0
 36 29  1  0  0  0  0
 37 30  1  0  0  0  0
 38 39  1  0  0  0  0
 39 40  2  0  0  0  0
 39 46  1  0  0  0  0
 40 41  1  0  0  0  0
 41 42  1  0  0  0  0
 41 43  2  0  0  0  0
 43 44  1  0  0  0  0
 45 43  1  0  0  0  0
 46 45  2  0  0  0  0
M  END
>  <minimizedAffinity>
-6.63479376

$$$$

 OpenBabel03272509233D

 46 50  0  0  0  0  0  0  0  0999 V2000
   39.1240   24.9310   34.4950 C   0  0  0  0  0  0  0  0  0  0  0  0
   40.3910   24.6550   34.9720 C   0  0  0  0  0  0  0  0  0  0  0  0
   41.2560   25.7560   34.9540 C   0  0  0  0  0  0  0  0  0  0  0  0
   40.8510   27.0130   34.4930 C   0  0  0  0  0  0  0  0  0  0  0  0
   39.5350   27.1850   34.0280 C   0  0  0  0  0  0  0  0  0  0  0  0
   38.6620   26.1160   34.0350 C   0  0  0  0  0  0  0  0  0  0  0  0
   42.2650   25.5840   35.3210 H   0  0  0  0  0  0  0  0  0  0  0  0
   41.5720   27.8140   34.5100 H   0  0  0  0  0  0  0  0  0  0  0  0
   39.2740   28.1790   33.6830 H   0  0  0  0  0  0  0  0  0  0  0  0
   41.6710   22.5940   34.6710 C   0  0  0  0  0  0  0  0  0  0  0  0
   40.8060   23.3740   35.4430 C   0  0  0  0  0  0  0  0  0  0  0  0
   40.3750   22.8540   36.6720 C   0  0  0  0  0  0  0  0  0  0  0  0
   40.8150   21.6310   37.0460 N   0  0  0  0  0  0  0  0  0  0  0  0
   41.6620   20.9020   36.2590 C   0  0  0  0  0  0  0  0  0  0  0  0
   42.0730   21.3910   35.0930 N   0  0  0  0  0  0  0  0  0  0  0  0
   42.0020   23.0000   33.7220 H   0  0  0  0  0  0  0  0  0  0  0  0
   41.9410   19.9340   36.6760 H   0  0  0  0  0  0  0  0  0  0  0  0
   39.4560   23.6400   37.5310 C   0  0  0  0  0  0  0  0  0  0  0  0
   39.8140   24.7050   37.5250 H   0  0  0  0  0  0  0  0  0  0  0  0
   38.4060   23.5260   37.2470 H   0  0  0  0  0  0  0  0  0  0  0  0
   39.6640   23.2930   38.5770 H   0  0  0  0  0  0  0  0  0  0  0  0
   38.1760   23.9020   34.4650 O   0  0  0  0  0  0  0  0  0  0  0  0
   37.9780   23.4270   33.6000 H   0  0  0  0  0  0  0  0  0  0  0  0
   37.3960   26.3650   33.5660 O   0  0  0  0  0  0  0  0  0  0  0  0
   36.1270   28.3670   34.3590 C   0  0  0  0  0  0  0  0  0  0  0  0
   36.7850   27.5860   33.4360 C   0  0  0  0  0  0  0  0  0  0  0  0
   36.8880   28.0550   32.1210 C   0  0  0  0  0  0  0  0  0  0  0  0
   36.3290   29.2920   31.7620 C   0  0  0  0  0  0  0  0  0  0  0  0
   36.2610   30.0020   30.6120 N   0  0  0  0  0  0  0  0  0  0  0  0
   35.5990   31.1480   30.8250 C   0  0  0  0  0  0  0  0  0  0  0  0
   35.2460   31.1600   32.1290 N   0  0  0  0  0  0  0  0  0  0  0  0
   35.6860   30.0300   32.7180 C   0  0  0  0  0  0  0  0  0  0  0  0
   35.5810   29.5760   34.0130 C   0  0  0  0  0  0  0  0  0  0  0  0
   36.1060   27.9120   35.3450 H   0  0  0  0  0  0  0  0  0  0  0  0
   37.3750   27.5520   31.2860 H   0  0  0  0  0  0  0  0  0  0  0  0
   36.6800   29.6700   29.6930 H   0  0  0  0  0  0  0  0  0  0  0  0
   35.4000   31.8990   30.0790 H   0  0  0  0  0  0  0  0  0  0  0  0
   36.7810   31.5140   35.7190 F   0  0  0  0  0  0  0  0  0  0  0  0
   35.4630   31.2840   35.8910 C   0  0  0  0  0  0  0  0  0  0  0  0
   34.8990   30.3420   35.0560 C   0  0  0  0  0  0  0  0  0  0  0  0
   33.5430   30.0090   35.1260 C   0  0  0  0  0  0  0  0  0  0  0  0
   33.0360   29.2910   34.5140 H   0  0  0  0  0  0  0  0  0  0  0  0
   32.7420   30.6470   36.0680 C   0  0  0  0  0  0  0  0  0  0  0  0
   31.6850   30.4370   36.1780 H   0  0  0  0  0  0  0  0  0  0  0  0
   33.3430   31.5820   36.8850 C   0  0  0  0  0  3  0  0  0  0  0  0
   34.6780   31.9280   36.8340 C   0  0  0  0  0  3  0  0  0  0  0  0
  1  2  1  0  0  0  0
  2 11  1  0  0  0  0
  3  2  2  0  0  0  0
  3  7  1  0  0  0  0
  4  8  1  0  0  0  0
  4  3  1  0  0  0  0
  5  6  1  0  0  0  0
  5  4  2  0  0  0  0
  6  1  2  0  0  0  0
  9  5  1  0  0  0  0
 10 15  2  0  0  0  0
 10 11  1  0  0  0  0
 11 12  2  0  0  0  0
 12 13  1  0  0  0  0
 12 18  1  0  0  0  0
 14 17  1  0  0  0  0
 14 13  2  0  0  0  0
 15 14  1  0  0  0  0
 16 10  1  0  0  0  0
 18 21  1  0  0  0  0
 19 18  1  0  0  0  0
 20 18  1  0  0  0  0
 22  1  1  0  0  0  0
 23 22  1  0  0  0  0
 24  6  1  0  0  0  0
 25 34  1  0  0  0  0
 26 24  1  0  0  0  0
 26 25  2  0  0  0  0
 27 26  1  0  0  0  0
 28 27  2  0  0  0  0
 28 32  1  0  0  0  0
 29 30  1  0  0  0  0
 29 28  1  0  0  0  0
 30 31  2  0  0  0  0
 31 32  1  0  0  0  0
 32 33  2  0  0  0  0
 33 25  1  0  0  0  0
 33 40  1  0  0  0  0
 35 27  1  0  0  0  0
 36 29  1  0  0  0  0
 37 30  1  0  0  0  0
 38 39  1  0  0  0  0
 39 46  1  0  0  0  0
 40 41  1  0  0  0  0
 40 39  2  0  0  0  0
 41 43  2  0  0  0  0
 42 41  1  0  0  0  0
 43 44  1  0  0  0  0
 43 45  1  0  0  0  0
 46 45  2  0  0  0  0
M  END
>  <minimizedAffinity>
-6.63037539

$$$$

 OpenBabel03272509233D

 46 50  0  0  0  0  0  0  0  0999 V2000
   39.4130   27.1330   32.6420 C   0  0  0  0  0  0  0  0  0  0  0  0
   40.7300   26.9550   33.0230 C   0  0  0  0  0  0  0  0  0  0  0  0
   40.9000   26.7580   34.3990 C   0  0  0  0  0  0  0  0  0  0  0  0
   39.8210   26.7460   35.2880 C   0  0  0  0  0  0  0  0  0  0  0  0
   38.5180   26.9380   34.7930 C   0  0  0  0  0  0  0  0  0  0  0  0
   38.3220   27.1340   33.4420 C   0  0  0  0  0  0  0  0  0  0  0  0
   41.9210   26.6130   34.7430 H   0  0  0  0  0  0  0  0  0  0  0  0
   40.0290   26.5880   36.3340 H   0  0  0  0  0  0  0  0  0  0  0  0
   37.7190   26.9190   35.5250 H   0  0  0  0  0  0  0  0  0  0  0  0
   42.5120   28.1600   31.8630 C   0  0  0  0  0  0  0  0  0  0  0  0
   41.8320   26.9660   32.1180 C   0  0  0  0  0  0  0  0  0  0  0  0
   42.2720   25.8080   31.4600 C   0  0  0  0  0  0  0  0  0  0  0  0
   43.3250   25.9040   30.6180 N   0  0  0  0  0  0  0  0  0  0  0  0
   43.9610   27.0940   30.3980 C   0  0  0  0  0  0  0  0  0  0  0  0
   43.5480   28.1940   31.0180 N   0  0  0  0  0  0  0  0  0  0  0  0
   42.1690   29.0530   32.3730 H   0  0  0  0  0  0  0  0  0  0  0  0
   44.7950   27.0350   29.6960 H   0  0  0  0  0  0  0  0  0  0  0  0
   41.5860   24.5140   31.6950 C   0  0  0  0  0  0  0  0  0  0  0  0
   41.3870   24.4310   32.7980 H   0  0  0  0  0  0  0  0  0  0  0  0
   40.6940   24.3870   31.0750 H   0  0  0  0  0  0  0  0  0  0  0  0
   42.3660   23.7300   31.5030 H   0  0  0  0  0  0  0  0  0  0  0  0
   39.1260   27.3400   31.2880 O   0  0  0  0  0  0  0  0  0  0  0  0
   38.9450   28.2710   30.9510 H   0  0  0  0  0  0  0  0  0  0  0  0
   37.0230   27.3140   33.0380 O   0  0  0  0  0  0  0  0  0  0  0  0
   35.7600   29.1330   34.1970 C   0  0  0  0  0  0  0  0  0  0  0  0
   36.2840   28.4670   33.1120 C   0  0  0  0  0  0  0  0  0  0  0  0
   36.0650   28.9990   31.8360 C   0  0  0  0  0  0  0  0  0  0  0  0
   35.3270   30.1830   31.6770 C   0  0  0  0  0  0  0  0  0  0  0  0
   34.9540   30.9290   30.6120 N   0  0  0  0  0  0  0  0  0  0  0  0
   34.2430   31.9880   31.0270 C   0  0  0  0  0  0  0  0  0  0  0  0
   34.1700   31.9070   32.3730 N   0  0  0  0  0  0  0  0  0  0  0  0
   34.8290   30.8070   32.7880 C   0  0  0  0  0  0  0  0  0  0  0  0
   35.0400   30.2900   34.0470 C   0  0  0  0  0  0  0  0  0  0  0  0
   35.9880   28.6370   35.1360 H   0  0  0  0  0  0  0  0  0  0  0  0
   36.4140   28.5870   30.8900 H   0  0  0  0  0  0  0  0  0  0  0  0
   35.2020   30.6840   29.6080 H   0  0  0  0  0  0  0  0  0  0  0  0
   33.8220   32.7450   30.3870 H   0  0  0  0  0  0  0  0  0  0  0  0
   36.4430   32.1410   35.6920 F   0  0  0  0  0  0  0  0  0  0  0  0
   35.1830   31.8320   36.0610 C   0  0  0  0  0  0  0  0  0  0  0  0
   34.5190   30.9330   35.2520 C   0  0  0  0  0  0  0  0  0  0  0  0
   33.2080   30.5280   35.5190 C   0  0  0  0  0  0  0  0  0  0  0  0
   32.6300   29.8370   34.9390 H   0  0  0  0  0  0  0  0  0  0  0  0
   32.5580   31.0460   36.6340 C   0  0  0  0  0  0  0  0  0  0  0  0
   31.5430   30.7740   36.9000 H   0  0  0  0  0  0  0  0  0  0  0  0
   33.2550   31.9410   37.4180 C   0  0  0  0  0  3  0  0  0  0  0  0
   34.5490   32.3570   37.1750 C   0  0  0  0  0  3  0  0  0  0  0  0
  1  2  2  0  0  0  0
  1  6  1  0  0  0  0
  2  3  1  0  0  0  0
  3  7  1  0  0  0  0
  3  4  2  0  0  0  0
  4  8  1  0  0  0  0
  5  4  1  0  0  0  0
  5  9  1  0  0  0  0
  6  5  2  0  0  0  0
 10 11  1  0  0  0  0
 10 16  1  0  0  0  0
 11  2  1  0  0  0  0
 12 18  1  0  0  0  0
 12 11  2  0  0  0  0
 13 12  1  0  0  0  0
 14 13  2  0  0  0  0
 14 15  1  0  0  0  0
 15 10  2  0  0  0  0
 17 14  1  0  0  0  0
 18 19  1  0  0  0  0
 20 18  1  0  0  0  0
 21 18  1  0  0  0  0
 22  1  1  0  0  0  0
 23 22  1  0  0  0  0
 24 26  1  0  0  0  0
 24  6  1  0  0  0  0
 25 34  1  0  0  0  0
 26 25  2  0  0  0  0
 27 26  1  0  0  0  0
 28 27  2  0  0  0  0
 28 32  1  0  0  0  0
 29 30  1  0  0  0  0
 29 28  1  0  0  0  0
 30 31  2  0  0  0  0
 31 32  1  0  0  0  0
 32 33  2  0  0  0  0
 33 25  1  0  0  0  0
 33 40  1  0  0  0  0
 35 27  1  0  0  0  0
 36 29  1  0  0  0  0
 37 30  1  0  0  0  0
 38 39  1  0  0  0  0
 39 46  1  0  0  0  0
 40 41  1  0  0  0  0
 40 39  2  0  0  0  0
 41 43  2  0  0  0  0
 42 41  1  0  0  0  0
 43 44  1  0  0  0  0
 43 45  1  0  0  0  0
 46 45  2  0  0  0  0
M  END
>  <minimizedAffinity>
-6.59695148

$$$$
