
 OpenBabel03272509213D

 46 50  0  0  0  0  0  0  0  0999 V2000
   38.1040   31.4010   47.9130 C   0  0  0  0  0  0  0  0  0  0  0  0
   37.2740   31.5940   49.0020 C   0  0  0  0  0  0  0  0  0  0  0  0
   37.5090   32.7920   49.6880 C   0  0  0  0  0  0  0  0  0  0  0  0
   38.4980   33.6970   49.2890 C   0  0  0  0  0  0  0  0  0  0  0  0
   39.2880   33.4020   48.1640 C   0  0  0  0  0  0  0  0  0  0  0  0
   39.0780   32.2290   47.4690 C   0  0  0  0  0  0  0  0  0  0  0  0
   36.8780   32.9840   50.5530 H   0  0  0  0  0  0  0  0  0  0  0  0
   38.6210   34.5990   49.8670 H   0  0  0  0  0  0  0  0  0  0  0  0
   40.0390   34.1370   47.8990 H   0  0  0  0  0  0  0  0  0  0  0  0
   35.1390   30.4720   48.6080 C   0  0  0  0  0  0  0  0  0  0  0  0
   36.2650   30.6730   49.4100 C   0  0  0  0  0  0  0  0  0  0  0  0
   36.3570   29.9440   50.6050 C   0  0  0  0  0  0  0  0  0  0  0  0
   35.3560   29.0900   50.9200 N   0  0  0  0  0  0  0  0  0  0  0  0
   34.2720   28.9260   50.1050 C   0  0  0  0  0  0  0  0  0  0  0  0
   34.1810   29.6130   48.9710 N   0  0  0  0  0  0  0  0  0  0  0  0
   35.0720   31.0360   47.6850 H   0  0  0  0  0  0  0  0  0  0  0  0
   33.5380   28.2070   50.4740 H   0  0  0  0  0  0  0  0  0  0  0  0
   37.5310   30.1190   51.4950 C   0  0  0  0  0  0  0  0  0  0  0  0
   38.4470   30.1500   50.8440 H   0  0  0  0  0  0  0  0  0  0  0  0
   37.4350   30.9800   52.1620 H   0  0  0  0  0  0  0  0  0  0  0  0
   37.6280   29.1480   52.0470 H   0  0  0  0  0  0  0  0  0  0  0  0
   37.9580   30.2350   47.1530 O   0  0  0  0  0  0  0  0  0  0  0  0
   38.5960   29.4680   47.2860 H   0  0  0  0  0  0  0  0  0  0  0  0
   39.8890   32.0140   46.3830 O   0  0  0  0  0  0  0  0  0  0  0  0
   39.9130   30.7570   44.2220 C   0  0  0  0  0  0  0  0  0  0  0  0
   39.4980   31.7350   45.0980 C   0  0  0  0  0  0  0  0  0  0  0  0
   38.5140   32.6350   44.6730 C   0  0  0  0  0  0  0  0  0  0  0  0
   37.9680   32.5340   43.3830 C   0  0  0  0  0  0  0  0  0  0  0  0
   37.0320   33.2270   42.6950 N   0  0  0  0  0  0  0  0  0  0  0  0
   36.8850   32.7000   41.4720 C   0  0  0  0  0  0  0  0  0  0  0  0
   37.7430   31.6580   41.3890 N   0  0  0  0  0  0  0  0  0  0  0  0
   38.4130   31.5430   42.5520 C   0  0  0  0  0  0  0  0  0  0  0  0
   39.3820   30.6540   42.9620 C   0  0  0  0  0  0  0  0  0  0  0  0
   40.6760   30.1150   44.6510 H   0  0  0  0  0  0  0  0  0  0  0  0
   38.0890   33.4560   45.2500 H   0  0  0  0  0  0  0  0  0  0  0  0
   36.5090   34.0610   43.0950 H   0  0  0  0  0  0  0  0  0  0  0  0
   36.2060   33.0570   40.7160 H   0  0  0  0  0  0  0  0  0  0  0  0
   41.1230   30.9830   40.7350 F   0  0  0  0  0  0  0  0  0  0  0  0
   40.7210   29.7250   41.0130 C   0  0  0  0  0  0  0  0  0  0  0  0
   39.8780   29.5860   42.0960 C   0  0  0  0  0  0  0  0  0  0  0  0
   39.3880   28.3390   42.4950 C   0  0  0  0  0  0  0  0  0  0  0  0
   38.7320   28.1530   43.3220 H   0  0  0  0  0  0  0  0  0  0  0  0
   39.7630   27.2070   41.7770 C   0  0  0  0  0  0  0  0  0  0  0  0
   39.4190   26.2110   42.0310 H   0  0  0  0  0  0  0  0  0  0  0  0
   40.6070   27.3880   40.7010 C   0  0  0  0  0  3  0  0  0  0  0  0
   41.1040   28.6080   40.2880 C   0  0  0  0  0  3  0  0  0  0  0  0
  1  2  1  0  0  0  0
  2 11  1  0  0  0  0
  2  3  2  0  0  0  0
  3  7  1  0  0  0  0
  4  3  1  0  0  0  0
  4  8  1  0  0  0  0
  5  4  2  0  0  0  0
  6  1  2  0  0  0  0
  6  5  1  0  0  0  0
  9  5  1  0  0  0  0
 10 15  2  0  0  0  0
 10 11  1  0  0  0  0
 11 12  2  0  0  0  0
 12 13  1  0  0  0  0
 12 18  1  0  0  0  0
 14 17  1  0  0  0  0
 14 13  2  0  0  0  0
 15 14  1  0  0  0  0
 16 10  1  0  0  0  0
 18 21  1  0  0  0  0
 18 20  1  0  0  0  0
 19 18  1  0  0  0  0
 22 23  1  0  0  0  0
 22  1  1  0  0  0  0
 24  6  1  0  0  0  0
 25 34  1  0  0  0  0
 25 26  1  0  0  0  0
 26 24  1  0  0  0  0
 27 26  2  0  0  0  0
 27 35  1  0  0  0  0
 28 27  1  0  0  0  0
 29 36  1  0  0  0  0
 29 28  1  0  0  0  0
 30 29  1  0  0  0  0
 31 30  2  0  0  0  0
 31 32  1  0  0  0  0
 32 33  1  0  0  0  0
 32 28  2  0  0  0  0
 33 25  2  0  0  0  0
 37 30  1  0  0  0  0
 38 39  1  0  0  0  0
 39 40  1  0  0  0  0
 40 41  2  0  0  0  0
 40 33  1  0  0  0  0
 41 42  1  0  0  0  0
 43 44  1  0  0  0  0
 43 41  1  0  0  0  0
 45 43  2  0  0  0  0
 46 45  1  0  0  0  0
 46 39  2  0  0  0  0
M  END
>  <minimizedAffinity>
-7.7202487

>  <minimizedRMSD>
1.27788067

$$$$
