
 OpenBabel03272508373D

 44 47  0  0  1  0  0  0  0  0999 V2000
   40.4510   31.8000   44.5150 C   0  0  0  0  0  0  0  0  0  0  0  0
   40.2920   30.7220   44.8210 H   0  0  0  0  0  0  0  0  0  0  0  0
   41.5680   31.8840   44.5090 H   0  0  0  0  0  0  0  0  0  0  0  0
   40.0280   31.8930   43.1770 N   0  0  0  0  0  0  0  0  0  0  0  0
   39.3570   33.0750   42.8140 C   0  0  0  0  0  0  0  0  0  0  0  0
   37.9610   32.9160   42.3480 C   0  0  0  0  0  0  0  0  0  0  0  0
   37.7590   31.7780   41.5630 O   0  0  0  0  0  0  0  0  0  0  0  0
   38.1890   30.6570   42.1920 C   0  0  0  0  0  0  0  0  0  0  0  0
   39.6510   30.7310   42.5110 C   0  0  1  0  0  0  0  0  0  0  0  0
   39.4820   33.9760   43.4240 H   0  0  0  0  0  0  0  0  0  0  0  0
   39.9600   33.3900   41.9270 H   0  0  0  0  0  0  0  0  0  0  0  0
   37.1370   33.2630   42.9490 H   0  0  0  0  0  0  0  0  0  0  0  0
   37.8460   33.7060   41.5060 H   0  0  0  0  0  0  0  0  0  0  0  0
   37.5410   30.2190   42.9520 H   0  0  0  0  0  0  0  0  0  0  0  0
   38.1310   29.8670   41.3990 H   0  0  0  0  0  0  0  0  0  0  0  0
   39.7420   29.9080   43.3360 H   0  0  0  0  0  0  0  0  0  0  0  0
   40.8180   28.0570   42.3720 F   0  0  0  0  0  0  0  0  0  0  0  0
   41.0360   28.9390   41.3760 C   0  0  0  0  0  0  0  0  0  0  0  0
   40.5100   30.1890   41.4510 C   0  0  0  0  0  0  0  0  0  0  0  0
   40.8860   30.9360   40.3250 C   0  0  0  0  0  0  0  0  0  0  0  0
   40.5410   31.9760   40.2320 H   0  0  0  0  0  0  0  0  0  0  0  0
   41.6670   30.5260   39.2670 C   0  0  0  0  0  0  0  0  0  0  0  0
   41.9020   31.1790   38.4410 H   0  0  0  0  0  0  0  0  0  0  0  0
   42.1410   29.2360   39.3040 C   0  0  0  0  0  3  0  0  0  0  0  0
   41.8250   28.4300   40.3690 C   0  0  0  0  0  3  0  0  0  0  0  0
   39.8310   32.6390   45.5200 C   0  0  0  0  0  0  0  0  0  0  0  0
   40.6450   32.8740   46.2880 H   0  0  0  0  0  0  0  0  0  0  0  0
   39.3960   33.6020   45.3410 H   0  0  0  0  0  0  0  0  0  0  0  0
   37.7170   30.9780   47.8970 C   0  0  0  0  0  0  0  0  0  0  0  0
   36.9850   30.7980   46.7380 C   0  0  0  0  0  0  0  0  0  0  0  0
   37.6970   31.4020   45.7060 C   0  0  0  0  0  0  0  0  0  0  0  0
   38.7980   31.9080   46.2560 N   0  0  0  0  0  0  0  0  0  0  0  0
   38.8060   31.6520   47.5720 N   0  0  0  0  0  0  0  0  0  0  0  0
   36.0140   30.2700   46.6650 H   0  0  0  0  0  0  0  0  0  0  0  0
   37.2840   31.3550   44.7690 H   0  0  0  0  0  0  0  0  0  0  0  0
   37.4390   30.1650   51.5550 C   0  0  0  0  0  0  0  0  0  0  0  0
   37.9490   30.6900   50.3760 C   0  0  0  0  0  0  0  0  0  0  0  0
   37.2840   30.4810   49.1780 C   0  0  0  0  0  0  0  0  0  0  0  0
   36.1400   29.7450   49.2690 N   0  0  0  0  0  0  0  0  0  0  0  0
   35.6530   29.2390   50.4180 C   0  0  0  0  0  0  0  0  0  0  0  0
   36.3090   29.4540   51.5530 N   0  0  0  0  0  0  0  0  0  0  0  0
   38.0450   30.3960   52.4240 H   0  0  0  0  0  0  0  0  0  0  0  0
   38.8570   31.2730   50.3070 H   0  0  0  0  0  0  0  0  0  0  0  0
   34.7320   28.6670   50.3790 H   0  0  0  0  0  0  0  0  0  0  0  0
  1  2  1  0  0  0  0
  1 26  1  0  0  0  0
  3  1  1  0  0  0  0
  4  1  1  0  0  0  0
  5  4  1  0  0  0  0
  5 10  1  0  0  0  0
  6  5  1  0  0  0  0
  6 12  1  0  0  0  0
  7  8  1  0  0  0  0
  7  6  1  0  0  0  0
  8  9  1  0  0  0  0
  8 14  1  0  0  0  0
  9  4  1  0  0  0  0
  9 16  1  1  0  0  0
 11  5  1  0  0  0  0
 13  6  1  0  0  0  0
 15  8  1  0  0  0  0
 18 19  1  0  0  0  0
 18 17  1  0  0  0  0
 19  9  1  0  0  0  0
 20 19  2  0  0  0  0
 21 20  1  0  0  0  0
 22 24  2  0  0  0  0
 22 20  1  0  0  0  0
 23 22  1  0  0  0  0
 24 25  1  0  0  0  0
 25 18  2  0  0  0  0
 26 32  1  0  0  0  0
 26 27  1  0  0  0  0
 28 26  1  0  0  0  0
 29 38  1  0  0  0  0
 30 29  1  0  0  0  0
 31 32  1  0  0  0  0
 31 30  2  0  0  0  0
 32 33  1  0  0  0  0
 33 29  2  0  0  0  0
 34 30  1  0  0  0  0
 35 31  1  0  0  0  0
 36 42  1  0  0  0  0
 37 36  2  0  0  0  0
 38 39  2  0  0  0  0
 38 37  1  0  0  0  0
 39 40  1  0  0  0  0
 40 41  2  0  0  0  0
 41 36  1  0  0  0  0
 43 37  1  0  0  0  0
 44 40  1  0  0  0  0
M  END
>  <minimizedAffinity>
-5.93025923

>  <minimizedRMSD>
0.892808139

$$$$
