
 OpenBabel03272508373D

 44 47  0  0  1  0  0  0  0  0999 V2000
   40.3660   31.9410   44.4990 C   0  0  0  0  0  0  0  0  0  0  0  0
   40.2700   30.8560   44.8050 H   0  0  0  0  0  0  0  0  0  0  0  0
   41.4770   32.0830   44.4690 H   0  0  0  0  0  0  0  0  0  0  0  0
   39.9090   32.0140   43.1700 N   0  0  0  0  0  0  0  0  0  0  0  0
   39.1790   33.1650   42.8230 C   0  0  0  0  0  0  0  0  0  0  0  0
   37.7810   32.9450   42.3890 C   0  0  0  0  0  0  0  0  0  0  0  0
   37.6120   31.7990   41.6080 O   0  0  0  0  0  0  0  0  0  0  0  0
   38.1040   30.6980   42.2270 C   0  0  0  0  0  0  0  0  0  0  0  0
   39.5690   30.8370   42.5130 C   0  0  1  0  0  0  0  0  0  0  0  0
   39.2780   34.0720   43.4300 H   0  0  0  0  0  0  0  0  0  0  0  0
   39.7470   33.5070   41.9230 H   0  0  0  0  0  0  0  0  0  0  0  0
   36.9560   33.2560   43.0090 H   0  0  0  0  0  0  0  0  0  0  0  0
   37.6130   33.7290   41.5510 H   0  0  0  0  0  0  0  0  0  0  0  0
   37.4930   30.2320   43.0010 H   0  0  0  0  0  0  0  0  0  0  0  0
   38.0640   29.9060   41.4350 H   0  0  0  0  0  0  0  0  0  0  0  0
   39.7140   30.0190   43.3350 H   0  0  0  0  0  0  0  0  0  0  0  0
   39.9720   32.0200   39.8730 F   0  0  0  0  0  0  0  0  0  0  0  0
   40.6300   30.8940   40.2130 C   0  0  0  0  0  0  0  0  0  0  0  0
   40.4260   30.3320   41.4340 C   0  0  0  0  0  0  0  0  0  0  0  0
   41.1900   29.1620   41.5560 C   0  0  0  0  0  0  0  0  0  0  0  0
   41.1380   28.5830   42.4920 H   0  0  0  0  0  0  0  0  0  0  0  0
   42.0380   28.6090   40.6230 C   0  0  0  0  0  0  0  0  0  0  0  0
   42.5850   27.7000   40.8130 H   0  0  0  0  0  0  0  0  0  0  0  0
   42.1620   29.2710   39.4220 C   0  0  0  0  0  3  0  0  0  0  0  0
   41.4510   30.4270   39.2120 C   0  0  0  0  0  3  0  0  0  0  0  0
   39.7260   32.7450   45.5190 C   0  0  0  0  0  0  0  0  0  0  0  0
   40.5390   33.0010   46.2820 H   0  0  0  0  0  0  0  0  0  0  0  0
   39.2540   33.6930   45.3570 H   0  0  0  0  0  0  0  0  0  0  0  0
   37.6850   31.0010   47.9020 C   0  0  0  0  0  0  0  0  0  0  0  0
   36.9740   30.7680   46.7400 C   0  0  0  0  0  0  0  0  0  0  0  0
   37.6610   31.3970   45.7060 C   0  0  0  0  0  0  0  0  0  0  0  0
   38.7280   31.9690   46.2570 N   0  0  0  0  0  0  0  0  0  0  0  0
   38.7400   31.7290   47.5760 N   0  0  0  0  0  0  0  0  0  0  0  0
   36.0330   30.1870   46.6660 H   0  0  0  0  0  0  0  0  0  0  0  0
   37.2580   31.3170   44.7660 H   0  0  0  0  0  0  0  0  0  0  0  0
   37.4560   30.1700   51.5590 C   0  0  0  0  0  0  0  0  0  0  0  0
   37.9500   30.7020   50.3760 C   0  0  0  0  0  0  0  0  0  0  0  0
   37.2710   30.4960   49.1850 C   0  0  0  0  0  0  0  0  0  0  0  0
   36.1290   29.7580   49.2870 N   0  0  0  0  0  0  0  0  0  0  0  0
   35.6580   29.2440   50.4400 C   0  0  0  0  0  0  0  0  0  0  0  0
   36.3280   29.4560   51.5680 N   0  0  0  0  0  0  0  0  0  0  0  0
   38.0720   30.3980   52.4210 H   0  0  0  0  0  0  0  0  0  0  0  0
   38.8550   31.2880   50.2990 H   0  0  0  0  0  0  0  0  0  0  0  0
   34.7380   28.6700   50.4100 H   0  0  0  0  0  0  0  0  0  0  0  0
  1  2  1  0  0  0  0
  1 26  1  0  0  0  0
  3  1  1  0  0  0  0
  4  1  1  0  0  0  0
  5  4  1  0  0  0  0
  5 10  1  0  0  0  0
  6  5  1  0  0  0  0
  6 12  1  0  0  0  0
  7  8  1  0  0  0  0
  7  6  1  0  0  0  0
  8  9  1  0  0  0  0
  8 14  1  0  0  0  0
  9  4  1  0  0  0  0
  9 16  1  1  0  0  0
 11  5  1  0  0  0  0
 13  6  1  0  0  0  0
 15  8  1  0  0  0  0
 17 18  1  0  0  0  0
 18 19  1  0  0  0  0
 19 20  2  0  0  0  0
 19  9  1  0  0  0  0
 20 21  1  0  0  0  0
 22 23  1  0  0  0  0
 22 20  1  0  0  0  0
 24 22  2  0  0  0  0
 25 24  1  0  0  0  0
 25 18  2  0  0  0  0
 26 32  1  0  0  0  0
 26 27  1  0  0  0  0
 28 26  1  0  0  0  0
 29 38  1  0  0  0  0
 30 29  1  0  0  0  0
 31 32  1  0  0  0  0
 31 30  2  0  0  0  0
 32 33  1  0  0  0  0
 33 29  2  0  0  0  0
 34 30  1  0  0  0  0
 35 31  1  0  0  0  0
 36 41  1  0  0  0  0
 36 42  1  0  0  0  0
 37 36  2  0  0  0  0
 38 39  2  0  0  0  0
 38 37  1  0  0  0  0
 39 40  1  0  0  0  0
 40 41  2  0  0  0  0
 43 37  1  0  0  0  0
 44 40  1  0  0  0  0
M  END
>  <minimizedAffinity>
-5.75540018

>  <minimizedRMSD>
0.942500234

$$$$
