
 OpenBabel03272507453D

 33 35  0  0  0  0  0  0  0  0999 V2000
   37.9580   26.8640   32.7750 N   0  0  0  0  0  0  0  0  0  0  0  0
   37.6960   25.4700   32.6110 C   0  0  0  0  0  0  0  0  0  0  0  0
   38.0750   24.5590   33.6860 C   0  0  0  0  0  0  0  0  0  0  0  0
   39.1620   24.9780   34.6150 C   0  0  0  0  0  0  0  0  0  0  0  0
   39.3780   26.4460   34.6880 C   0  0  0  0  0  0  0  0  0  0  0  0
   39.3140   27.0230   33.2550 C   0  0  0  0  0  0  0  0  0  0  0  0
   38.2070   25.1650   31.6550 H   0  0  0  0  0  0  0  0  0  0  0  0
   36.6010   25.3720   32.3770 H   0  0  0  0  0  0  0  0  0  0  0  0
   38.3790   23.5750   33.2450 H   0  0  0  0  0  0  0  0  0  0  0  0
   37.1820   24.3010   34.3080 H   0  0  0  0  0  0  0  0  0  0  0  0
   40.1460   24.5380   34.2650 H   0  0  0  0  0  0  0  0  0  0  0  0
   40.4250   26.6860   35.0220 H   0  0  0  0  0  0  0  0  0  0  0  0
   38.6710   26.9860   35.3130 H   0  0  0  0  0  0  0  0  0  0  0  0
   39.6280   28.0900   33.2690 H   0  0  0  0  0  0  0  0  0  0  0  0
   40.0650   26.4890   32.6350 H   0  0  0  0  0  0  0  0  0  0  0  0
   37.0430   27.9180   32.5110 C   0  0  0  0  0  0  0  0  0  0  0  0
   36.1870   28.4990   33.4710 C   0  0  0  0  0  0  0  0  0  0  0  0
   35.3490   29.5210   33.0590 C   0  0  0  0  0  0  0  0  0  0  0  0
   35.3860   29.9220   31.7500 N   0  0  0  0  0  0  0  0  0  0  0  0
   36.2190   29.3370   30.8770 C   0  0  0  0  0  0  0  0  0  0  0  0
   37.0340   28.3530   31.2480 N   0  0  0  0  0  0  0  0  0  0  0  0
   36.2710   28.0820   34.4480 H   0  0  0  0  0  0  0  0  0  0  0  0
   34.7070   29.9430   33.8240 H   0  0  0  0  0  0  0  0  0  0  0  0
   36.2000   29.6980   29.8620 H   0  0  0  0  0  0  0  0  0  0  0  0
   40.7690   22.9650   35.5910 F   0  0  0  0  0  0  0  0  0  0  0  0
   39.8100   23.4200   36.4660 C   0  0  0  0  0  0  0  0  0  0  0  0
   38.9840   24.4450   35.9870 C   0  0  0  0  0  0  0  0  0  0  0  0
   38.0490   24.8530   36.9120 C   0  0  0  0  0  0  0  0  0  0  0  0
   37.3720   25.6340   36.6280 H   0  0  0  0  0  0  0  0  0  0  0  0
   37.9490   24.2990   38.1710 C   0  0  0  0  0  0  0  0  0  0  0  0
   37.1910   24.6600   38.8600 H   0  0  0  0  0  0  0  0  0  0  0  0
   38.7960   23.2930   38.5710 C   0  0  0  0  0  3  0  0  0  0  0  0
   39.7610   22.8300   37.7020 C   0  0  0  0  0  3  0  0  0  0  0  0
  1  6  1  0  0  0  0
  2  1  1  0  0  0  0
  2  3  1  0  0  0  0
  3 10  1  0  0  0  0
  3  4  1  0  0  0  0
  4  5  1  0  0  0  0
  4 27  1  0  0  0  0
  5 12  1  0  0  0  0
  5 13  1  0  0  0  0
  6 14  1  0  0  0  0
  6  5  1  0  0  0  0
  7  2  1  0  0  0  0
  8  2  1  0  0  0  0
  9  3  1  0  0  0  0
 11  4  1  0  0  0  0
 15  6  1  0  0  0  0
 16  1  1  0  0  0  0
 16 17  1  0  0  0  0
 17 22  1  0  0  0  0
 18 17  2  0  0  0  0
 18 23  1  0  0  0  0
 19 18  1  0  0  0  0
 20 21  1  0  0  0  0
 20 19  2  0  0  0  0
 21 16  2  0  0  0  0
 24 20  1  0  0  0  0
 25 26  1  0  0  0  0
 26 33  1  0  0  0  0
 27 26  2  0  0  0  0
 27 28  1  0  0  0  0
 28 30  2  0  0  0  0
 29 28  1  0  0  0  0
 30 32  1  0  0  0  0
 30 31  1  0  0  0  0
 33 32  2  0  0  0  0
M  END
>  <minimizedAffinity>
-5.39599991

$$$$

 OpenBabel03272507453D

 33 35  0  0  0  0  0  0  0  0999 V2000
   39.1430   24.8130   34.6940 N   0  0  0  0  0  0  0  0  0  0  0  0
   39.9400   25.9330   34.3080 C   0  0  0  0  0  0  0  0  0  0  0  0
   39.3060   27.0180   33.5660 C   0  0  0  0  0  0  0  0  0  0  0  0
   38.0790   26.7090   32.7790 C   0  0  0  0  0  0  0  0  0  0  0  0
   37.3390   25.5050   33.2370 C   0  0  0  0  0  0  0  0  0  0  0  0
   38.3630   24.3900   33.5500 C   0  0  0  0  0  0  0  0  0  0  0  0
   40.8000   25.5160   33.7150 H   0  0  0  0  0  0  0  0  0  0  0  0
   40.4210   26.3250   35.2460 H   0  0  0  0  0  0  0  0  0  0  0  0
   40.0500   27.4620   32.8560 H   0  0  0  0  0  0  0  0  0  0  0  0
   39.0620   27.8660   34.2520 H   0  0  0  0  0  0  0  0  0  0  0  0
   38.3640   26.5040   31.7020 H   0  0  0  0  0  0  0  0  0  0  0  0
   36.7200   25.0680   32.4070 H   0  0  0  0  0  0  0  0  0  0  0  0
   36.7090   25.6550   34.1120 H   0  0  0  0  0  0  0  0  0  0  0  0
   37.8260   23.4350   33.7430 H   0  0  0  0  0  0  0  0  0  0  0  0
   38.9760   24.2210   32.6390 H   0  0  0  0  0  0  0  0  0  0  0  0
   39.1180   24.2130   35.9820 C   0  0  0  0  0  0  0  0  0  0  0  0
   40.0490   23.2570   36.4410 C   0  0  0  0  0  0  0  0  0  0  0  0
   39.8920   22.7640   37.7250 C   0  0  0  0  0  0  0  0  0  0  0  0
   38.8510   23.2210   38.4880 N   0  0  0  0  0  0  0  0  0  0  0  0
   37.9940   24.1320   38.0030 C   0  0  0  0  0  0  0  0  0  0  0  0
   38.1230   24.6210   36.7730 N   0  0  0  0  0  0  0  0  0  0  0  0
   40.8040   23.0000   35.7350 H   0  0  0  0  0  0  0  0  0  0  0  0
   40.6260   22.0320   38.0430 H   0  0  0  0  0  0  0  0  0  0  0  0
   37.1960   24.4500   38.6540 H   0  0  0  0  0  0  0  0  0  0  0  0
   36.7180   27.5990   35.0030 F   0  0  0  0  0  0  0  0  0  0  0  0
   36.4560   28.2920   33.8450 C   0  0  0  0  0  0  0  0  0  0  0  0
   37.1410   27.8550   32.7030 C   0  0  0  0  0  0  0  0  0  0  0  0
   36.8330   28.5920   31.5820 C   0  0  0  0  0  0  0  0  0  0  0  0
   37.3110   28.3240   30.6610 H   0  0  0  0  0  0  0  0  0  0  0  0
   35.9430   29.6450   31.5980 C   0  0  0  0  0  0  0  0  0  0  0  0
   35.7370   30.1920   30.6820 H   0  0  0  0  0  0  0  0  0  0  0  0
   35.3070   30.0170   32.7590 C   0  0  0  0  0  3  0  0  0  0  0  0
   35.5630   29.3280   33.9260 C   0  0  0  0  0  3  0  0  0  0  0  0
  1 16  1  0  0  0  0
  2  1  1  0  0  0  0
  2  8  1  0  0  0  0
  3 10  1  0  0  0  0
  3  2  1  0  0  0  0
  4  5  1  0  0  0  0
  4  3  1  0  0  0  0
  5  6  1  0  0  0  0
  5 13  1  0  0  0  0
  6 14  1  0  0  0  0
  6  1  1  0  0  0  0
  7  2  1  0  0  0  0
  9  3  1  0  0  0  0
 11  4  1  0  0  0  0
 12  5  1  0  0  0  0
 15  6  1  0  0  0  0
 16 17  2  0  0  0  0
 16 21  1  0  0  0  0
 17 18  1  0  0  0  0
 18 23  1  0  0  0  0
 18 19  2  0  0  0  0
 20 19  1  0  0  0  0
 20 24  1  0  0  0  0
 21 20  2  0  0  0  0
 22 17  1  0  0  0  0
 26 33  1  0  0  0  0
 26 25  1  0  0  0  0
 27  4  1  0  0  0  0
 27 26  2  0  0  0  0
 28 30  2  0  0  0  0
 28 27  1  0  0  0  0
 29 28  1  0  0  0  0
 30 32  1  0  0  0  0
 31 30  1  0  0  0  0
 32 33  2  0  0  0  0
M  END
>  <minimizedAffinity>
-5.35775805

$$$$

 OpenBabel03272507453D

 33 35  0  0  0  0  0  0  0  0999 V2000
   39.0820   24.8490   34.8150 N   0  0  0  0  0  0  0  0  0  0  0  0
   39.9440   25.9160   34.4160 C   0  0  0  0  0  0  0  0  0  0  0  0
   39.3970   26.9750   33.5730 C   0  0  0  0  0  0  0  0  0  0  0  0
   38.2090   26.6630   32.7310 C   0  0  0  0  0  0  0  0  0  0  0  0
   37.3980   25.5150   33.2110 C   0  0  0  0  0  0  0  0  0  0  0  0
   38.3570   24.3860   33.6500 C   0  0  0  0  0  0  0  0  0  0  0  0
   40.8220   25.4350   33.9020 H   0  0  0  0  0  0  0  0  0  0  0  0
   40.3820   26.3470   35.3580 H   0  0  0  0  0  0  0  0  0  0  0  0
   40.1990   27.3500   32.8870 H   0  0  0  0  0  0  0  0  0  0  0  0
   39.1450   27.8720   34.1930 H   0  0  0  0  0  0  0  0  0  0  0  0
   38.5510   26.3840   31.6870 H   0  0  0  0  0  0  0  0  0  0  0  0
   36.8130   25.0510   32.3700 H   0  0  0  0  0  0  0  0  0  0  0  0
   36.7220   25.7380   34.0340 H   0  0  0  0  0  0  0  0  0  0  0  0
   37.7740   23.4630   33.8650 H   0  0  0  0  0  0  0  0  0  0  0  0
   39.0170   24.1410   32.7910 H   0  0  0  0  0  0  0  0  0  0  0  0
   38.9570   24.3300   36.1310 C   0  0  0  0  0  0  0  0  0  0  0  0
   38.0000   24.7560   37.0760 C   0  0  0  0  0  0  0  0  0  0  0  0
   38.0040   24.1520   38.3210 C   0  0  0  0  0  0  0  0  0  0  0  0
   38.9270   23.1750   38.5820 N   0  0  0  0  0  0  0  0  0  0  0  0
   39.8160   22.8060   37.6470 C   0  0  0  0  0  0  0  0  0  0  0  0
   39.8330   23.3710   36.4430 N   0  0  0  0  0  0  0  0  0  0  0  0
   37.3480   25.5240   36.7290 H   0  0  0  0  0  0  0  0  0  0  0  0
   37.2540   24.5060   39.0200 H   0  0  0  0  0  0  0  0  0  0  0  0
   40.5160   22.0310   37.9140 H   0  0  0  0  0  0  0  0  0  0  0  0
   38.2600   28.1180   30.3920 F   0  0  0  0  0  0  0  0  0  0  0  0
   37.3620   28.5630   31.3350 C   0  0  0  0  0  0  0  0  0  0  0  0
   37.3220   27.8330   32.5310 C   0  0  0  0  0  0  0  0  0  0  0  0
   36.4030   28.3320   33.4280 C   0  0  0  0  0  0  0  0  0  0  0  0
   36.3070   27.8350   34.3720 H   0  0  0  0  0  0  0  0  0  0  0  0
   35.6160   29.4320   33.1610 C   0  0  0  0  0  0  0  0  0  0  0  0
   34.9090   29.7820   33.9070 H   0  0  0  0  0  0  0  0  0  0  0  0
   35.7130   30.0990   31.9630 C   0  0  0  0  0  3  0  0  0  0  0  0
   36.6090   29.6610   31.0110 C   0  0  0  0  0  3  0  0  0  0  0  0
  1 16  1  0  0  0  0
  2  1  1  0  0  0  0
  2  8  1  0  0  0  0
  3 10  1  0  0  0  0
  3  2  1  0  0  0  0
  4  5  1  0  0  0  0
  4  3  1  0  0  0  0
  5  6  1  0  0  0  0
  5 13  1  0  0  0  0
  6 14  1  0  0  0  0
  6  1  1  0  0  0  0
  7  2  1  0  0  0  0
  9  3  1  0  0  0  0
 11  4  1  0  0  0  0
 12  5  1  0  0  0  0
 15  6  1  0  0  0  0
 16 21  2  0  0  0  0
 16 17  1  0  0  0  0
 17 18  2  0  0  0  0
 18 19  1  0  0  0  0
 18 23  1  0  0  0  0
 20 24  1  0  0  0  0
 20 19  2  0  0  0  0
 21 20  1  0  0  0  0
 22 17  1  0  0  0  0
 25 26  1  0  0  0  0
 26 27  1  0  0  0  0
 27  4  1  0  0  0  0
 27 28  2  0  0  0  0
 28 29  1  0  0  0  0
 30 28  1  0  0  0  0
 30 31  1  0  0  0  0
 32 30  2  0  0  0  0
 33 26  2  0  0  0  0
 33 32  1  0  0  0  0
M  END
>  <minimizedAffinity>
-5.29236221

$$$$

 OpenBabel03272507453D

 33 35  0  0  0  0  0  0  0  0999 V2000
   36.7060   27.3950   32.7500 N   0  0  0  0  0  0  0  0  0  0  0  0
   37.2540   27.6000   34.0530 C   0  0  0  0  0  0  0  0  0  0  0  0
   36.6800   28.6450   34.8950 C   0  0  0  0  0  0  0  0  0  0  0  0
   35.9770   29.7770   34.2310 C   0  0  0  0  0  0  0  0  0  0  0  0
   35.4750   29.4750   32.8660 C   0  0  0  0  0  0  0  0  0  0  0  0
   36.5640   28.6840   32.1060 C   0  0  0  0  0  0  0  0  0  0  0  0
   38.3530   27.7890   33.9050 H   0  0  0  0  0  0  0  0  0  0  0  0
   37.2180   26.6050   34.5770 H   0  0  0  0  0  0  0  0  0  0  0  0
   37.4880   29.0870   35.5330 H   0  0  0  0  0  0  0  0  0  0  0  0
   35.9740   28.1990   35.6390 H   0  0  0  0  0  0  0  0  0  0  0  0
   36.6930   30.6460   34.1100 H   0  0  0  0  0  0  0  0  0  0  0  0
   35.3590   30.4140   32.2580 H   0  0  0  0  0  0  0  0  0  0  0  0
   34.5450   28.9110   32.8290 H   0  0  0  0  0  0  0  0  0  0  0  0
   36.2750   28.5850   31.0360 H   0  0  0  0  0  0  0  0  0  0  0  0
   37.4970   29.2860   32.1180 H   0  0  0  0  0  0  0  0  0  0  0  0
   36.3580   26.1410   32.1810 C   0  0  0  0  0  0  0  0  0  0  0  0
   37.0110   24.9230   32.4630 C   0  0  0  0  0  0  0  0  0  0  0  0
   36.5550   23.7810   31.8270 C   0  0  0  0  0  0  0  0  0  0  0  0
   35.5000   23.8800   30.9610 N   0  0  0  0  0  0  0  0  0  0  0  0
   34.9130   25.0640   30.7280 C   0  0  0  0  0  0  0  0  0  0  0  0
   35.3330   26.1760   31.3260 N   0  0  0  0  0  0  0  0  0  0  0  0
   37.8150   25.0020   33.1580 H   0  0  0  0  0  0  0  0  0  0  0  0
   37.0810   22.8630   32.0700 H   0  0  0  0  0  0  0  0  0  0  0  0
   34.0880   25.0760   30.0350 H   0  0  0  0  0  0  0  0  0  0  0  0
   36.4120   31.7220   36.1320 F   0  0  0  0  0  0  0  0  0  0  0  0
   35.1060   31.3090   36.0100 C   0  0  0  0  0  0  0  0  0  0  0  0
   34.8650   30.3220   35.0470 C   0  0  0  0  0  0  0  0  0  0  0  0
   33.5390   29.9570   34.9770 C   0  0  0  0  0  0  0  0  0  0  0  0
   33.2650   29.2030   34.2660 H   0  0  0  0  0  0  0  0  0  0  0  0
   32.5650   30.5140   35.7790 C   0  0  0  0  0  0  0  0  0  0  0  0
   31.5340   30.1870   35.6810 H   0  0  0  0  0  0  0  0  0  0  0  0
   32.8780   31.4800   36.7050 C   0  0  0  0  0  3  0  0  0  0  0  0
   34.1850   31.9010   36.8350 C   0  0  0  0  0  3  0  0  0  0  0  0
  1  2  1  0  0  0  0
  2  8  1  0  0  0  0
  2  3  1  0  0  0  0
  3  9  1  0  0  0  0
  3 10  1  0  0  0  0
  4  3  1  0  0  0  0
  4 27  1  0  0  0  0
  5  4  1  0  0  0  0
  6 15  1  0  0  0  0
  6  1  1  0  0  0  0
  6  5  1  0  0  0  0
  7  2  1  0  0  0  0
 11  4  1  0  0  0  0
 12  5  1  0  0  0  0
 13  5  1  0  0  0  0
 14  6  1  0  0  0  0
 16 17  1  0  0  0  0
 16  1  1  0  0  0  0
 17 22  1  0  0  0  0
 18 23  1  0  0  0  0
 18 17  2  0  0  0  0
 19 18  1  0  0  0  0
 20 19  2  0  0  0  0
 20 21  1  0  0  0  0
 21 16  2  0  0  0  0
 24 20  1  0  0  0  0
 26 25  1  0  0  0  0
 26 33  1  0  0  0  0
 27 26  2  0  0  0  0
 28 27  1  0  0  0  0
 28 30  2  0  0  0  0
 29 28  1  0  0  0  0
 30 32  1  0  0  0  0
 31 30  1  0  0  0  0
 32 33  2  0  0  0  0
M  END
>  <minimizedAffinity>
-5.19266605

$$$$

 OpenBabel03272507453D

 33 35  0  0  0  0  0  0  0  0999 V2000
   37.5990   25.1320   32.4010 N   0  0  0  0  0  0  0  0  0  0  0  0
   36.2800   24.9850   31.8720 C   0  0  0  0  0  0  0  0  0  0  0  0
   35.7920   23.6410   31.5810 C   0  0  0  0  0  0  0  0  0  0  0  0
   36.7920   22.5700   31.3130 C   0  0  0  0  0  0  0  0  0  0  0  0
   38.1420   22.8330   31.8750 C   0  0  0  0  0  0  0  0  0  0  0  0
   38.5010   24.3140   31.6160 C   0  0  0  0  0  0  0  0  0  0  0  0
   36.2440   25.6140   30.9400 H   0  0  0  0  0  0  0  0  0  0  0  0
   35.5870   25.5130   32.5830 H   0  0  0  0  0  0  0  0  0  0  0  0
   35.1070   23.6820   30.6950 H   0  0  0  0  0  0  0  0  0  0  0  0
   35.1280   23.2830   32.4070 H   0  0  0  0  0  0  0  0  0  0  0  0
   36.9390   22.4640   30.1950 H   0  0  0  0  0  0  0  0  0  0  0  0
   38.9340   22.2680   31.3110 H   0  0  0  0  0  0  0  0  0  0  0  0
   38.2470   22.6300   32.9380 H   0  0  0  0  0  0  0  0  0  0  0  0
   39.5650   24.4930   31.8870 H   0  0  0  0  0  0  0  0  0  0  0  0
   38.4240   24.5010   30.5240 H   0  0  0  0  0  0  0  0  0  0  0  0
   37.9650   25.9420   33.5080 C   0  0  0  0  0  0  0  0  0  0  0  0
   37.0970   26.8330   34.1730 C   0  0  0  0  0  0  0  0  0  0  0  0
   37.6030   27.5570   35.2400 C   0  0  0  0  0  0  0  0  0  0  0  0
   38.9120   27.3780   35.6010 N   0  0  0  0  0  0  0  0  0  0  0  0
   39.6950   26.5170   34.9350 C   0  0  0  0  0  0  0  0  0  0  0  0
   39.2330   25.8110   33.9070 N   0  0  0  0  0  0  0  0  0  0  0  0
   36.1080   26.8640   33.7790 H   0  0  0  0  0  0  0  0  0  0  0  0
   36.9070   28.2310   35.7260 H   0  0  0  0  0  0  0  0  0  0  0  0
   40.7160   26.4220   35.2680 H   0  0  0  0  0  0  0  0  0  0  0  0
   37.2020   20.3280   29.7660 F   0  0  0  0  0  0  0  0  0  0  0  0
   36.5510   20.1030   30.9560 C   0  0  0  0  0  0  0  0  0  0  0  0
   36.3350   21.2320   31.7570 C   0  0  0  0  0  0  0  0  0  0  0  0
   35.6790   20.9350   32.9310 C   0  0  0  0  0  0  0  0  0  0  0  0
   35.4700   21.7410   33.6050 H   0  0  0  0  0  0  0  0  0  0  0  0
   35.2840   19.6570   33.2660 C   0  0  0  0  0  0  0  0  0  0  0  0
   34.7700   19.4800   34.2060 H   0  0  0  0  0  0  0  0  0  0  0  0
   35.5310   18.5960   32.4270 C   0  0  0  0  0  3  0  0  0  0  0  0
   36.1840   18.8110   31.2320 C   0  0  0  0  0  3  0  0  0  0  0  0
  1 16  1  0  0  0  0
  2  1  1  0  0  0  0
  2  8  1  0  0  0  0
  3  2  1  0  0  0  0
  3 10  1  0  0  0  0
  4  3  1  0  0  0  0
  4 27  1  0  0  0  0
  4  5  1  0  0  0  0
  5 13  1  0  0  0  0
  6  5  1  0  0  0  0
  6 14  1  0  0  0  0
  6  1  1  0  0  0  0
  7  2  1  0  0  0  0
  9  3  1  0  0  0  0
 11  4  1  0  0  0  0
 12  5  1  0  0  0  0
 15  6  1  0  0  0  0
 16 21  2  0  0  0  0
 16 17  1  0  0  0  0
 17 18  2  0  0  0  0
 18 19  1  0  0  0  0
 18 23  1  0  0  0  0
 20 24  1  0  0  0  0
 20 19  2  0  0  0  0
 21 20  1  0  0  0  0
 22 17  1  0  0  0  0
 25 26  1  0  0  0  0
 26 33  2  0  0  0  0
 26 27  1  0  0  0  0
 27 28  2  0  0  0  0
 28 30  1  0  0  0  0
 28 29  1  0  0  0  0
 30 31  1  0  0  0  0
 32 30  2  0  0  0  0
 33 32  1  0  0  0  0
M  END
>  <minimizedAffinity>
-5.11784363

$$$$

 OpenBabel03272507453D

 33 35  0  0  0  0  0  0  0  0999 V2000
   37.9380   26.8770   33.0060 N   0  0  0  0  0  0  0  0  0  0  0  0
   37.9630   27.4170   34.3290 C   0  0  0  0  0  0  0  0  0  0  0  0
   38.2580   26.5200   35.4420 C   0  0  0  0  0  0  0  0  0  0  0  0
   37.9820   25.0670   35.2690 C   0  0  0  0  0  0  0  0  0  0  0  0
   37.9420   24.6110   33.8560 C   0  0  0  0  0  0  0  0  0  0  0  0
   37.1610   25.6550   33.0250 C   0  0  0  0  0  0  0  0  0  0  0  0
   36.9610   27.9050   34.4870 H   0  0  0  0  0  0  0  0  0  0  0  0
   38.6860   28.2780   34.3110 H   0  0  0  0  0  0  0  0  0  0  0  0
   37.6910   26.8590   36.3470 H   0  0  0  0  0  0  0  0  0  0  0  0
   39.3280   26.6260   35.7500 H   0  0  0  0  0  0  0  0  0  0  0  0
   36.9630   24.8240   35.7000 H   0  0  0  0  0  0  0  0  0  0  0  0
   37.3270   23.6760   33.7480 H   0  0  0  0  0  0  0  0  0  0  0  0
   38.9140   24.4550   33.3930 H   0  0  0  0  0  0  0  0  0  0  0  0
   36.9840   25.2590   32.0010 H   0  0  0  0  0  0  0  0  0  0  0  0
   36.1580   25.7800   33.4860 H   0  0  0  0  0  0  0  0  0  0  0  0
   38.5680   27.4420   31.8650 C   0  0  0  0  0  0  0  0  0  0  0  0
   37.9110   28.2160   30.8860 C   0  0  0  0  0  0  0  0  0  0  0  0
   38.6630   28.6990   29.8290 C   0  0  0  0  0  0  0  0  0  0  0  0
   40.0000   28.4070   29.7780 N   0  0  0  0  0  0  0  0  0  0  0  0
   40.5760   27.6650   30.7360 C   0  0  0  0  0  0  0  0  0  0  0  0
   39.8750   27.1900   31.7620 N   0  0  0  0  0  0  0  0  0  0  0  0
   36.8700   28.3600   31.0610 H   0  0  0  0  0  0  0  0  0  0  0  0
   38.1240   29.2910   29.0970 H   0  0  0  0  0  0  0  0  0  0  0  0
   41.6310   27.4710   30.6390 H   0  0  0  0  0  0  0  0  0  0  0  0
   37.3880   24.1930   37.8130 F   0  0  0  0  0  0  0  0  0  0  0  0
   38.6030   23.7750   37.3230 C   0  0  0  0  0  0  0  0  0  0  0  0
   38.9210   24.2080   36.0290 C   0  0  0  0  0  0  0  0  0  0  0  0
   40.1490   23.7540   35.6010 C   0  0  0  0  0  0  0  0  0  0  0  0
   40.4740   24.0400   34.6210 H   0  0  0  0  0  0  0  0  0  0  0  0
   40.9650   22.9570   36.3770 C   0  0  0  0  0  0  0  0  0  0  0  0
   41.9240   22.6280   35.9880 H   0  0  0  0  0  0  0  0  0  0  0  0
   40.5840   22.5720   37.6410 C   0  0  0  0  0  3  0  0  0  0  0  0
   39.3680   22.9850   38.1410 C   0  0  0  0  0  3  0  0  0  0  0  0
  1  6  1  0  0  0  0
  1  2  1  0  0  0  0
  2  7  1  0  0  0  0
  2  3  1  0  0  0  0
  3 10  1  0  0  0  0
  3  9  1  0  0  0  0
  4  3  1  0  0  0  0
  4 11  1  0  0  0  0
  4 27  1  0  0  0  0
  5  4  1  0  0  0  0
  6 15  1  0  0  0  0
  6  5  1  0  0  0  0
  8  2  1  0  0  0  0
 12  5  1  0  0  0  0
 13  5  1  0  0  0  0
 14  6  1  0  0  0  0
 16  1  1  0  0  0  0
 17 22  1  0  0  0  0
 17 16  2  0  0  0  0
 18 17  1  0  0  0  0
 19 18  2  0  0  0  0
 19 20  1  0  0  0  0
 20 21  2  0  0  0  0
 21 16  1  0  0  0  0
 23 18  1  0  0  0  0
 24 20  1  0  0  0  0
 26 25  1  0  0  0  0
 26 33  1  0  0  0  0
 27 26  2  0  0  0  0
 28 27  1  0  0  0  0
 28 30  2  0  0  0  0
 29 28  1  0  0  0  0
 30 32  1  0  0  0  0
 31 30  1  0  0  0  0
 32 33  2  0  0  0  0
M  END
>  <minimizedAffinity>
-4.91071844

$$$$

 OpenBabel03272507453D

 33 35  0  0  0  0  0  0  0  0999 V2000
   38.1510   27.3810   32.7310 N   0  0  0  0  0  0  0  0  0  0  0  0
   37.3550   28.2050   31.8770 C   0  0  0  0  0  0  0  0  0  0  0  0
   36.3190   29.0380   32.4790 C   0  0  0  0  0  0  0  0  0  0  0  0
   35.7600   28.6250   33.7960 C   0  0  0  0  0  0  0  0  0  0  0  0
   36.6480   27.7410   34.5930 C   0  0  0  0  0  0  0  0  0  0  0  0
   37.2700   26.6880   33.6480 C   0  0  0  0  0  0  0  0  0  0  0  0
   36.8960   27.5150   31.1150 H   0  0  0  0  0  0  0  0  0  0  0  0
   38.0700   28.8330   31.2780 H   0  0  0  0  0  0  0  0  0  0  0  0
   35.4580   29.1260   31.7670 H   0  0  0  0  0  0  0  0  0  0  0  0
   36.6810   30.0910   32.5820 H   0  0  0  0  0  0  0  0  0  0  0  0
   34.8070   28.0350   33.6310 H   0  0  0  0  0  0  0  0  0  0  0  0
   36.0580   27.1230   35.3240 H   0  0  0  0  0  0  0  0  0  0  0  0
   37.4510   28.2500   35.1240 H   0  0  0  0  0  0  0  0  0  0  0  0
   37.8130   25.9240   34.2470 H   0  0  0  0  0  0  0  0  0  0  0  0
   36.4420   26.1510   33.1390 H   0  0  0  0  0  0  0  0  0  0  0  0
   39.5660   27.2620   32.6890 C   0  0  0  0  0  0  0  0  0  0  0  0
   40.3920   27.1020   33.8210 C   0  0  0  0  0  0  0  0  0  0  0  0
   41.7570   26.9990   33.6170 C   0  0  0  0  0  0  0  0  0  0  0  0
   42.2440   27.0570   32.3390 N   0  0  0  0  0  0  0  0  0  0  0  0
   41.4130   27.2100   31.2960 C   0  0  0  0  0  0  0  0  0  0  0  0
   40.0980   27.3110   31.4650 N   0  0  0  0  0  0  0  0  0  0  0  0
   39.8700   27.0740   34.7490 H   0  0  0  0  0  0  0  0  0  0  0  0
   42.3600   26.8760   34.5110 H   0  0  0  0  0  0  0  0  0  0  0  0
   41.8590   27.2480   30.3160 H   0  0  0  0  0  0  0  0  0  0  0  0
   33.1030   29.2710   34.1280 F   0  0  0  0  0  0  0  0  0  0  0  0
   33.9880   30.0910   34.7880 C   0  0  0  0  0  0  0  0  0  0  0  0
   35.3440   29.7760   34.6310 C   0  0  0  0  0  0  0  0  0  0  0  0
   36.1730   30.6350   35.3180 C   0  0  0  0  0  0  0  0  0  0  0  0
   37.2300   30.4690   35.2520 H   0  0  0  0  0  0  0  0  0  0  0  0
   35.7020   31.6880   36.0730 C   0  0  0  0  0  0  0  0  0  0  0  0
   36.4020   32.3350   36.5930 H   0  0  0  0  0  0  0  0  0  0  0  0
   34.3540   31.9360   36.1790 C   0  0  0  0  0  3  0  0  0  0  0  0
   33.4580   31.1200   35.5220 C   0  0  0  0  0  3  0  0  0  0  0  0
  1  6  1  0  0  0  0
  2  3  1  0  0  0  0
  2  1  1  0  0  0  0
  3 10  1  0  0  0  0
  3  4  1  0  0  0  0
  4  5  1  0  0  0  0
  4 27  1  0  0  0  0
  5 13  1  0  0  0  0
  5 12  1  0  0  0  0
  6 14  1  0  0  0  0
  6  5  1  0  0  0  0
  7  2  1  0  0  0  0
  8  2  1  0  0  0  0
  9  3  1  0  0  0  0
 11  4  1  0  0  0  0
 15  6  1  0  0  0  0
 16  1  1  0  0  0  0
 16 17  1  0  0  0  0
 17 22  1  0  0  0  0
 18 17  2  0  0  0  0
 18 23  1  0  0  0  0
 19 18  1  0  0  0  0
 20 21  1  0  0  0  0
 20 19  2  0  0  0  0
 21 16  2  0  0  0  0
 24 20  1  0  0  0  0
 25 26  1  0  0  0  0
 26 33  1  0  0  0  0
 27 26  2  0  0  0  0
 27 28  1  0  0  0  0
 28 30  2  0  0  0  0
 29 28  1  0  0  0  0
 30 32  1  0  0  0  0
 30 31  1  0  0  0  0
 33 32  2  0  0  0  0
M  END
>  <minimizedAffinity>
-4.84193373

$$$$

 OpenBabel03272507453D

 33 35  0  0  0  0  0  0  0  0999 V2000
   37.5750   25.5230   32.3080 N   0  0  0  0  0  0  0  0  0  0  0  0
   37.4110   25.0230   30.9800 C   0  0  0  0  0  0  0  0  0  0  0  0
   37.1200   23.6050   30.8000 C   0  0  0  0  0  0  0  0  0  0  0  0
   37.5360   22.6580   31.8720 C   0  0  0  0  0  0  0  0  0  0  0  0
   37.7130   23.2820   33.2090 C   0  0  0  0  0  0  0  0  0  0  0  0
   38.4540   24.6260   33.0300 C   0  0  0  0  0  0  0  0  0  0  0  0
   38.3520   25.2940   30.4250 H   0  0  0  0  0  0  0  0  0  0  0  0
   36.6170   25.6550   30.4940 H   0  0  0  0  0  0  0  0  0  0  0  0
   37.5920   23.2510   29.8470 H   0  0  0  0  0  0  0  0  0  0  0  0
   36.0270   23.4530   30.6220 H   0  0  0  0  0  0  0  0  0  0  0  0
   38.5410   22.2070   31.6070 H   0  0  0  0  0  0  0  0  0  0  0  0
   38.4150   22.6780   33.8490 H   0  0  0  0  0  0  0  0  0  0  0  0
   36.7930   23.4610   33.7610 H   0  0  0  0  0  0  0  0  0  0  0  0
   38.7350   25.0330   34.0260 H   0  0  0  0  0  0  0  0  0  0  0  0
   39.4080   24.4250   32.4980 H   0  0  0  0  0  0  0  0  0  0  0  0
   36.9770   26.6990   32.8340 C   0  0  0  0  0  0  0  0  0  0  0  0
   37.0460   27.1000   34.1850 C   0  0  0  0  0  0  0  0  0  0  0  0
   36.4100   28.2760   34.5450 C   0  0  0  0  0  0  0  0  0  0  0  0
   35.7480   28.9940   33.5850 N   0  0  0  0  0  0  0  0  0  0  0  0
   35.7140   28.5680   32.3130 C   0  0  0  0  0  0  0  0  0  0  0  0
   36.3160   27.4420   31.9420 N   0  0  0  0  0  0  0  0  0  0  0  0
   37.5960   26.4410   34.8150 H   0  0  0  0  0  0  0  0  0  0  0  0
   36.4850   28.5520   35.5910 H   0  0  0  0  0  0  0  0  0  0  0  0
   35.1760   29.1770   31.6060 H   0  0  0  0  0  0  0  0  0  0  0  0
   38.5120   20.1060   32.2140 F   0  0  0  0  0  0  0  0  0  0  0  0
   37.1410   20.2030   32.1690 C   0  0  0  0  0  0  0  0  0  0  0  0
   36.6270   21.4940   31.9970 C   0  0  0  0  0  0  0  0  0  0  0  0
   35.2500   21.5190   31.9600 C   0  0  0  0  0  0  0  0  0  0  0  0
   34.7700   22.4690   31.8300 H   0  0  0  0  0  0  0  0  0  0  0  0
   34.4770   20.3840   32.0810 C   0  0  0  0  0  0  0  0  0  0  0  0
   33.3940   20.4630   32.0450 H   0  0  0  0  0  0  0  0  0  0  0  0
   35.0550   19.1480   32.2470 C   0  0  0  0  0  3  0  0  0  0  0  0
   36.4280   19.0390   32.2950 C   0  0  0  0  0  3  0  0  0  0  0  0
  1 16  1  0  0  0  0
  1  6  1  0  0  0  0
  2  1  1  0  0  0  0
  3  2  1  0  0  0  0
  3  4  1  0  0  0  0
  4 27  1  0  0  0  0
  4  5  1  0  0  0  0
  5 13  1  0  0  0  0
  5 12  1  0  0  0  0
  6  5  1  0  0  0  0
  6 14  1  0  0  0  0
  7  2  1  0  0  0  0
  8  2  1  0  0  0  0
  9  3  1  0  0  0  0
 10  3  1  0  0  0  0
 11  4  1  0  0  0  0
 15  6  1  0  0  0  0
 16 17  1  0  0  0  0
 17 18  2  0  0  0  0
 17 22  1  0  0  0  0
 18 23  1  0  0  0  0
 19 18  1  0  0  0  0
 20 19  2  0  0  0  0
 21 20  1  0  0  0  0
 21 16  2  0  0  0  0
 24 20  1  0  0  0  0
 26 25  1  0  0  0  0
 26 33  1  0  0  0  0
 27 26  2  0  0  0  0
 28 27  1  0  0  0  0
 28 30  2  0  0  0  0
 29 28  1  0  0  0  0
 30 32  1  0  0  0  0
 31 30  1  0  0  0  0
 32 33  2  0  0  0  0
M  END
>  <minimizedAffinity>
-4.80047846

$$$$

 OpenBabel03272507453D

 33 35  0  0  0  0  0  0  0  0999 V2000
   36.0790   30.8890   32.1230 N   0  0  0  0  0  0  0  0  0  0  0  0
   35.3510   30.6550   33.3300 C   0  0  0  0  0  0  0  0  0  0  0  0
   35.6190   29.4320   34.0800 C   0  0  0  0  0  0  0  0  0  0  0  0
   36.1780   28.2630   33.3460 C   0  0  0  0  0  0  0  0  0  0  0  0
   36.8860   28.6080   32.0860 C   0  0  0  0  0  0  0  0  0  0  0  0
   36.0580   29.6750   31.3340 C   0  0  0  0  0  0  0  0  0  0  0  0
   34.2620   30.7020   33.0520 H   0  0  0  0  0  0  0  0  0  0  0  0
   35.5050   31.5600   33.9800 H   0  0  0  0  0  0  0  0  0  0  0  0
   34.6740   29.0900   34.5750 H   0  0  0  0  0  0  0  0  0  0  0  0
   36.3010   29.6480   34.9400 H   0  0  0  0  0  0  0  0  0  0  0  0
   35.3340   27.5700   33.0450 H   0  0  0  0  0  0  0  0  0  0  0  0
   36.8990   27.7360   31.3760 H   0  0  0  0  0  0  0  0  0  0  0  0
   37.9010   28.9800   32.2130 H   0  0  0  0  0  0  0  0  0  0  0  0
   36.4870   29.8320   30.3190 H   0  0  0  0  0  0  0  0  0  0  0  0
   35.0360   29.2700   31.1780 H   0  0  0  0  0  0  0  0  0  0  0  0
   36.7160   32.1050   31.7580 C   0  0  0  0  0  0  0  0  0  0  0  0
   37.2990   32.3590   30.4990 C   0  0  0  0  0  0  0  0  0  0  0  0
   37.8840   33.5970   30.2940 C   0  0  0  0  0  0  0  0  0  0  0  0
   37.8710   34.5140   31.3110 N   0  0  0  0  0  0  0  0  0  0  0  0
   37.3020   34.2210   32.4900 C   0  0  0  0  0  0  0  0  0  0  0  0
   36.7340   33.0390   32.7120 N   0  0  0  0  0  0  0  0  0  0  0  0
   37.2310   31.5510   29.8080 H   0  0  0  0  0  0  0  0  0  0  0  0
   38.3210   33.7570   29.3140 H   0  0  0  0  0  0  0  0  0  0  0  0
   37.3260   34.9840   33.2500 H   0  0  0  0  0  0  0  0  0  0  0  0
   36.5660   25.5910   32.8040 F   0  0  0  0  0  0  0  0  0  0  0  0
   37.2500   26.0680   33.8980 C   0  0  0  0  0  0  0  0  0  0  0  0
   37.0650   27.4260   34.1880 C   0  0  0  0  0  0  0  0  0  0  0  0
   37.7780   27.8370   35.2920 C   0  0  0  0  0  0  0  0  0  0  0  0
   37.6940   28.8630   35.5880 H   0  0  0  0  0  0  0  0  0  0  0  0
   38.5810   26.9880   36.0240 C   0  0  0  0  0  0  0  0  0  0  0  0
   39.1200   27.3670   36.8880 H   0  0  0  0  0  0  0  0  0  0  0  0
   38.7120   25.6640   35.6790 C   0  0  0  0  0  3  0  0  0  0  0  0
   38.0320   25.1750   34.5840 C   0  0  0  0  0  3  0  0  0  0  0  0
  1  2  1  0  0  0  0
  2  8  1  0  0  0  0
  2  3  1  0  0  0  0
  3  9  1  0  0  0  0
  3 10  1  0  0  0  0
  4  3  1  0  0  0  0
  4 27  1  0  0  0  0
  5 13  1  0  0  0  0
  5  4  1  0  0  0  0
  6  5  1  0  0  0  0
  6  1  1  0  0  0  0
  7  2  1  0  0  0  0
 11  4  1  0  0  0  0
 12  5  1  0  0  0  0
 14  6  1  0  0  0  0
 15  6  1  0  0  0  0
 16  1  1  0  0  0  0
 16 21  1  0  0  0  0
 17 16  2  0  0  0  0
 18 17  1  0  0  0  0
 18 19  2  0  0  0  0
 19 20  1  0  0  0  0
 20 21  2  0  0  0  0
 20 24  1  0  0  0  0
 22 17  1  0  0  0  0
 23 18  1  0  0  0  0
 25 26  1  0  0  0  0
 26 27  2  0  0  0  0
 26 33  1  0  0  0  0
 27 28  1  0  0  0  0
 28 29  1  0  0  0  0
 28 30  2  0  0  0  0
 30 31  1  0  0  0  0
 32 30  1  0  0  0  0
 33 32  2  0  0  0  0
M  END
>  <minimizedAffinity>
-4.77318907

$$$$
