
 OpenBabel03262523363D

 34 36  0  0  1  0  0  0  0  0999 V2000
   35.3870   30.2210   49.9220 C   0  0  2  0  0  0  0  0  0  0  0  0
   36.2990   31.2000   49.2250 C   0  0  0  0  0  0  0  0  0  0  0  0
   37.7480   30.8470   49.3800 C   0  0  2  0  0  0  0  0  0  0  0  0
   38.2010   30.6320   50.7850 C   0  0  0  0  0  0  0  0  0  0  0  0
   37.1650   29.9370   51.6500 C   0  0  0  0  0  0  0  0  0  0  0  0
   36.0950   29.2730   50.8170 C   0  0  0  0  0  0  0  0  0  0  0  0
   34.6190   30.8400   50.4490 H   0  0  0  0  0  0  0  0  0  0  0  0
   36.1750   32.2230   49.6140 H   0  0  0  0  0  0  0  0  0  0  0  0
   36.1170   31.2750   48.1250 H   0  0  0  0  0  0  0  0  0  0  0  0
   37.9630   29.9530   48.7290 H   0  0  0  0  0  0  0  0  0  0  0  0
   38.5020   31.5500   51.2940 H   0  0  0  0  0  0  0  0  0  0  0  0
   39.0910   29.9490   50.7470 H   0  0  0  0  0  0  0  0  0  0  0  0
   36.6950   30.6840   52.3320 H   0  0  0  0  0  0  0  0  0  0  0  0
   37.6320   29.1890   52.2930 H   0  0  0  0  0  0  0  0  0  0  0  0
   35.3420   28.8790   51.5520 H   0  0  0  0  0  0  0  0  0  0  0  0
   36.5470   28.4500   50.2600 H   0  0  0  0  0  0  0  0  0  0  0  0
   34.6250   29.4300   48.9170 C   0  0  0  0  0  0  0  0  0  0  0  0
   34.3490   30.0830   47.7020 C   0  0  0  0  0  0  0  0  0  0  0  0
   33.6100   29.3490   46.7520 C   0  0  0  0  0  0  0  0  0  0  0  0
   33.2030   28.0650   47.0520 N   0  0  0  0  0  0  0  0  0  0  0  0
   33.5010   27.4840   48.2520 C   0  0  0  0  0  0  0  0  0  0  0  0
   34.2060   28.1780   49.1570 N   0  0  0  0  0  0  0  0  0  0  0  0
   34.6440   31.0750   47.4270 H   0  0  0  0  0  0  0  0  0  0  0  0
   33.3370   29.7450   45.7830 H   0  0  0  0  0  0  0  0  0  0  0  0
   33.1360   26.4880   48.3720 H   0  0  0  0  0  0  0  0  0  0  0  0
   38.7550   30.7530   46.8330 F   0  0  0  0  0  0  0  0  0  0  0  0
   38.9970   31.9150   47.5230 C   0  0  0  0  0  0  0  0  0  0  0  0
   38.5050   31.9960   48.8190 C   0  0  0  0  0  0  0  0  0  0  0  0
   38.8000   33.1960   49.4240 C   0  0  0  0  0  0  0  0  0  0  0  0
   38.4530   33.3560   50.4330 H   0  0  0  0  0  0  0  0  0  0  0  0
   39.5080   34.1950   48.7920 C   0  0  0  0  0  0  0  0  0  0  0  0
   39.6950   35.1210   49.3580 H   0  0  0  0  0  0  0  0  0  0  0  0
   39.9640   34.0380   47.5000 C   0  0  0  0  0  0  0  0  0  0  0  0
   39.7060   32.8610   46.8270 C   0  0  0  0  0  0  0  0  0  0  0  0
  1  7  1  1  0  0  0
  1  6  1  0  0  0  0
  2  3  1  0  0  0  0
  2  8  1  0  0  0  0
  2  1  1  0  0  0  0
  3 10  1  6  0  0  0
  3  4  1  0  0  0  0
  4 11  1  0  0  0  0
  4  5  1  0  0  0  0
  5 14  1  0  0  0  0
  5 13  1  0  0  0  0
  6 15  1  0  0  0  0
  6  5  1  0  0  0  0
  9  2  1  0  0  0  0
 12  4  1  0  0  0  0
 16  6  1  0  0  0  0
 17 22  1  0  0  0  0
 17  1  1  0  0  0  0
 18 17  2  0  0  0  0
 19 20  2  0  0  0  0
 19 18  1  0  0  0  0
 20 21  1  0  0  0  0
 21 25  1  0  0  0  0
 21 22  2  0  0  0  0
 23 18  1  0  0  0  0
 24 19  1  0  0  0  0
 26 27  1  0  0  0  0
 27 28  1  0  0  0  0
 28  3  1  0  0  0  0
 28 29  2  0  0  0  0
 29 30  1  0  0  0  0
 31 32  1  0  0  0  0
 31 29  1  0  0  0  0
 33 31  2  0  0  0  0
 34 33  1  0  0  0  0
 34 27  2  0  0  0  0
M  END
>  <minimizedAffinity>
-7.1631794

>  <minimizedRMSD>
0.387164265

$$$$
