
 OpenBabel03272508373D

 44 47  0  0  1  0  0  0  0  0999 V2000
   36.6540   30.1010   43.0700 C   0  0  0  0  0  0  0  0  0  0  0  0
   36.3620   29.1290   43.5690 H   0  0  0  0  0  0  0  0  0  0  0  0
   37.4630   29.7760   42.3670 H   0  0  0  0  0  0  0  0  0  0  0  0
   35.5550   30.4800   42.2780 N   0  0  0  0  0  0  0  0  0  0  0  0
   35.0760   29.5160   41.3730 C   0  0  0  0  0  0  0  0  0  0  0  0
   35.1420   29.8780   39.9390 C   0  0  0  0  0  0  0  0  0  0  0  0
   34.8480   31.2200   39.6860 O   0  0  0  0  0  0  0  0  0  0  0  0
   35.6240   32.0470   40.4290 C   0  0  0  0  0  0  0  0  0  0  0  0
   35.4310   31.8120   41.8960 C   0  0  1  0  0  0  0  0  0  0  0  0
   35.3080   28.4580   41.5360 H   0  0  0  0  0  0  0  0  0  0  0  0
   33.9930   29.4920   41.6500 H   0  0  0  0  0  0  0  0  0  0  0  0
   35.8340   29.3830   39.2770 H   0  0  0  0  0  0  0  0  0  0  0  0
   34.1790   29.4210   39.4810 H   0  0  0  0  0  0  0  0  0  0  0  0
   36.6440   32.2310   40.0900 H   0  0  0  0  0  0  0  0  0  0  0  0
   35.1710   33.0590   40.2620 H   0  0  0  0  0  0  0  0  0  0  0  0
   36.3970   32.3060   42.3310 H   0  0  0  0  0  0  0  0  0  0  0  0
   35.2840   34.7290   41.9290 F   0  0  0  0  0  0  0  0  0  0  0  0
   34.2970   33.9990   42.4870 C   0  0  0  0  0  0  0  0  0  0  0  0
   34.3760   32.6430   42.4890 C   0  0  0  0  0  0  0  0  0  0  0  0
   33.2600   32.0980   43.1420 C   0  0  0  0  0  0  0  0  0  0  0  0
   33.1720   31.0050   43.2310 H   0  0  0  0  0  0  0  0  0  0  0  0
   32.2070   32.7760   43.7140 C   0  0  0  0  0  0  0  0  0  0  0  0
   31.3900   32.2650   44.1960 H   0  0  0  0  0  0  0  0  0  0  0  0
   32.2390   34.1510   43.6470 C   0  0  0  0  0  3  0  0  0  0  0  0
   33.2940   34.7720   43.0270 C   0  0  0  0  0  3  0  0  0  0  0  0
   37.1350   30.9990   44.1000 C   0  0  0  0  0  0  0  0  0  0  0  0
   38.2630   30.8310   44.1700 H   0  0  0  0  0  0  0  0  0  0  0  0
   37.0590   32.0680   44.0770 H   0  0  0  0  0  0  0  0  0  0  0  0
   36.4800   30.2990   47.5590 C   0  0  0  0  0  0  0  0  0  0  0  0
   35.2670   29.9500   46.9960 C   0  0  0  0  0  0  0  0  0  0  0  0
   35.3730   30.1720   45.6260 C   0  0  0  0  0  0  0  0  0  0  0  0
   36.6030   30.6300   45.4140 N   0  0  0  0  0  0  0  0  0  0  0  0
   37.2650   30.7060   46.5770 N   0  0  0  0  0  0  0  0  0  0  0  0
   34.3860   29.5680   47.5490 H   0  0  0  0  0  0  0  0  0  0  0  0
   34.5460   29.9580   45.0580 H   0  0  0  0  0  0  0  0  0  0  0  0
   38.0080   30.5640   50.9810 C   0  0  0  0  0  0  0  0  0  0  0  0
   37.8590   30.7160   49.6110 C   0  0  0  0  0  0  0  0  0  0  0  0
   36.7420   30.1990   48.9720 C   0  0  0  0  0  0  0  0  0  0  0  0
   35.8530   29.5600   49.7830 N   0  0  0  0  0  0  0  0  0  0  0  0
   36.0070   29.4150   51.1140 C   0  0  0  0  0  0  0  0  0  0  0  0
   37.0870   29.9210   51.7010 N   0  0  0  0  0  0  0  0  0  0  0  0
   38.9190   31.0100   51.3650 H   0  0  0  0  0  0  0  0  0  0  0  0
   38.5660   31.2250   48.9700 H   0  0  0  0  0  0  0  0  0  0  0  0
   35.2380   28.8880   51.6680 H   0  0  0  0  0  0  0  0  0  0  0  0
  1  2  1  0  0  0  0
  1 26  1  0  0  0  0
  3  1  1  0  0  0  0
  4  1  1  0  0  0  0
  5 10  1  0  0  0  0
  5 11  1  0  0  0  0
  5  4  1  0  0  0  0
  6  5  1  0  0  0  0
  7  6  1  0  0  0  0
  7  8  1  0  0  0  0
  8  9  1  0  0  0  0
  9  4  1  0  0  0  0
  9 16  1  1  0  0  0
  9 19  1  0  0  0  0
 12  6  1  0  0  0  0
 13  6  1  0  0  0  0
 14  8  1  0  0  0  0
 15  8  1  0  0  0  0
 17 18  1  0  0  0  0
 18 19  2  0  0  0  0
 18 25  1  0  0  0  0
 19 20  1  0  0  0  0
 20 21  1  0  0  0  0
 20 22  2  0  0  0  0
 22 23  1  0  0  0  0
 24 22  1  0  0  0  0
 25 24  2  0  0  0  0
 26 27  1  0  0  0  0
 26 32  1  0  0  0  0
 28 26  1  0  0  0  0
 29 38  1  0  0  0  0
 30 34  1  0  0  0  0
 30 29  1  0  0  0  0
 31 30  2  0  0  0  0
 32 31  1  0  0  0  0
 32 33  1  0  0  0  0
 33 29  2  0  0  0  0
 35 31  1  0  0  0  0
 36 42  1  0  0  0  0
 36 41  1  0  0  0  0
 37 36  2  0  0  0  0
 38 37  1  0  0  0  0
 38 39  2  0  0  0  0
 39 40  1  0  0  0  0
 40 44  1  0  0  0  0
 40 41  2  0  0  0  0
 43 37  1  0  0  0  0
M  END
>  <minimizedAffinity>
-4.58680439

>  <minimizedRMSD>
6.05811071

$$$$
