
 OpenBabel03272507193D

 30 32  0  0  1  0  0  0  0  0999 V2000
   37.1780   31.4030   48.7660 C   0  0  0  0  0  0  0  0  0  0  0  0
   37.9860   32.3580   49.3630 C   0  0  0  0  0  0  0  0  0  0  0  0
   38.8950   32.9810   48.4760 C   0  0  0  0  0  0  0  0  0  0  0  0
   38.9390   32.6420   47.1550 N   0  0  0  0  0  0  0  0  0  0  0  0
   38.1200   31.7010   46.6410 C   0  0  0  0  0  0  0  0  0  0  0  0
   37.2260   31.0690   47.4500 N   0  0  0  0  0  0  0  0  0  0  0  0
   37.9300   32.6030   50.3980 H   0  0  0  0  0  0  0  0  0  0  0  0
   39.5440   33.7240   48.8770 H   0  0  0  0  0  0  0  0  0  0  0  0
   39.3080   29.4410   45.3760 F   0  0  0  0  0  0  0  0  0  0  0  0
   38.8950   30.4250   44.5720 C   0  0  0  0  0  0  0  0  0  0  0  0
   38.3290   31.4950   45.2240 C   0  0  0  0  0  0  0  0  0  0  0  0
   37.8660   32.5720   44.4880 C   0  0  0  0  0  0  0  0  0  0  0  0
   37.3990   33.4840   44.8590 H   0  0  0  0  0  0  0  0  0  0  0  0
   37.9720   32.5750   43.0930 C   0  0  0  0  0  0  0  0  0  0  0  0
   37.6380   33.3710   42.4430 H   0  0  0  0  0  0  0  0  0  0  0  0
   38.5440   31.4920   42.4380 C   0  0  0  0  0  3  0  0  0  0  0  0
   38.9960   30.4350   43.1960 C   0  0  0  0  0  3  0  0  0  0  0  0
   36.1880   30.7400   49.6680 C   0  0  1  0  0  0  0  0  0  0  0  0
   34.9230   30.2030   49.1690 C   0  0  2  0  0  0  0  0  0  0  0  0
   36.0450   29.2360   49.3880 C   0  0  0  0  0  0  0  0  0  0  0  0
   36.3920   30.9690   50.7520 H   0  0  0  0  0  0  0  0  0  0  0  0
   34.0840   30.3330   49.8970 H   0  0  0  0  0  0  0  0  0  0  0  0
   36.5590   28.7980   48.5170 H   0  0  0  0  0  0  0  0  0  0  0  0
   35.9040   28.6040   50.2880 H   0  0  0  0  0  0  0  0  0  0  0  0
   34.5630   30.5320   47.8660 O   0  0  0  0  0  0  0  0  0  0  0  0
   33.5940   29.9870   47.0850 C   0  0  0  0  0  0  0  0  0  0  0  0
   33.4760   28.7520   46.9390 O   0  0  0  0  0  0  0  0  0  0  0  0
   32.8340   31.0210   46.5310 N   0  0  0  0  0  0  0  0  0  0  0  0
   33.2750   31.5110   45.6990 H   0  0  0  0  0  0  0  0  0  0  0  0
   32.0140   30.9590   47.1800 H   0  0  0  0  0  0  0  0  0  0  0  0
  1  2  1  0  0  0  0
  1 18  1  0  0  0  0
  2  7  1  0  0  0  0
  3  8  1  0  0  0  0
  3  2  2  0  0  0  0
  4  3  1  0  0  0  0
  5  4  2  0  0  0  0
  5  6  1  0  0  0  0
  6  1  2  0  0  0  0
 10 11  1  0  0  0  0
 10  9  1  0  0  0  0
 11  5  1  0  0  0  0
 12 13  1  0  0  0  0
 12 11  2  0  0  0  0
 14 12  1  0  0  0  0
 15 14  1  0  0  0  0
 16 14  2  0  0  0  0
 16 17  1  0  0  0  0
 17 10  2  0  0  0  0
 18 21  1  1  0  0  0
 19 20  1  0  0  0  0
 19 18  1  0  0  0  0
 19 22  1  1  0  0  0
 20 18  1  0  0  0  0
 20 24  1  0  0  0  0
 23 20  1  0  0  0  0
 25 19  1  0  0  0  0
 26 25  1  0  0  0  0
 27 26  2  0  0  0  0
 28 26  1  0  0  0  0
 28 30  1  0  0  0  0
 29 28  1  0  0  0  0
M  END
>  <minimizedAffinity>
-5.65596485

>  <minimizedRMSD>
2.05674481

$$$$
