
 OpenBabel03272505143D

 39 42  0  0  0  0  0  0  0  0999 V2000
   37.4280   26.0620   32.4040 S   0  0  0  0  0  0  0  0  0  0  0  0
   36.3250   27.6960   34.8330 Cl  0  0  0  0  0  0  0  0  0  0  0  0
   36.2730   28.4180   33.2430 C   0  0  0  0  0  0  0  0  0  0  0  0
   35.7390   29.6950   33.1440 C   0  0  0  0  0  0  0  0  0  0  0  0
   35.6890   30.2830   31.8920 C   0  0  0  0  0  0  0  0  0  0  0  0
   36.1630   29.6000   30.7980 C   0  0  0  0  0  0  0  0  0  0  0  0
   36.6880   28.3190   30.9680 C   0  0  0  0  0  0  0  0  0  0  0  0
   36.7660   27.6830   32.1710 C   0  0  0  0  0  0  0  0  0  0  0  0
   35.2760   31.2760   31.7970 H   0  0  0  0  0  0  0  0  0  0  0  0
   36.1390   30.0280   29.8110 H   0  0  0  0  0  0  0  0  0  0  0  0
   37.0500   27.8180   30.0790 H   0  0  0  0  0  0  0  0  0  0  0  0
   33.4340   30.8700   35.7170 C   0  0  0  0  0  0  0  0  0  0  0  0
   34.2320   31.6450   36.5700 C   0  0  0  0  0  0  0  0  0  0  0  0
   35.5930   31.7570   36.2400 C   0  0  0  0  0  0  0  0  0  0  0  0
   36.0540   31.1190   35.1300 N   0  0  0  0  0  0  0  0  0  0  0  0
   35.2450   30.3850   34.3410 C   0  0  0  0  0  0  0  0  0  0  0  0
   33.9530   30.2720   34.6450 N   0  0  0  0  0  0  0  0  0  0  0  0
   32.3580   30.7090   35.8720 H   0  0  0  0  0  0  0  0  0  0  0  0
   33.7640   32.1100   37.4250 H   0  0  0  0  0  0  0  0  0  0  0  0
   36.2130   32.3490   36.8860 H   0  0  0  0  0  0  0  0  0  0  0  0
   38.1430   23.5490   34.1740 Cl  0  0  0  0  0  0  0  0  0  0  0  0
   39.2020   24.9480   34.0850 C   0  0  0  0  0  0  0  0  0  0  0  0
   38.9600   26.0960   33.3290 C   0  0  0  0  0  0  0  0  0  0  0  0
   39.8760   27.1230   33.3490 C   0  0  0  0  0  0  0  0  0  0  0  0
   41.0070   27.0260   34.0970 C   0  0  0  0  0  0  0  0  0  0  0  0
   41.3040   25.9030   34.8750 C   0  0  0  0  0  0  0  0  0  0  0  0
   40.3840   24.8930   34.8420 C   0  0  0  0  0  0  0  0  0  0  0  0
   39.6280   27.9800   32.7430 H   0  0  0  0  0  0  0  0  0  0  0  0
   41.7360   27.8440   34.1130 H   0  0  0  0  0  0  0  0  0  0  0  0
   42.2040   25.8290   35.4670 H   0  0  0  0  0  0  0  0  0  0  0  0
   39.0280   24.1560   37.2070 F   0  0  0  0  0  0  0  0  0  0  0  0
   40.0510   23.3360   36.7940 C   0  0  0  0  0  0  0  0  0  0  0  0
   40.6860   23.7150   35.6520 C   0  0  0  0  0  0  0  0  0  0  0  0
   41.7430   22.9670   35.1240 C   0  0  0  0  0  0  0  0  0  0  0  0
   42.2920   23.2250   34.2060 H   0  0  0  0  0  0  0  0  0  0  0  0
   42.1650   21.8100   35.7680 C   0  0  0  0  0  0  0  0  0  0  0  0
   42.9930   21.2000   35.3810 H   0  0  0  0  0  0  0  0  0  0  0  0
   41.4860   21.4710   36.9240 C   0  0  0  0  0  3  0  0  0  0  0  0
   40.4480   22.1950   37.4520 C   0  0  0  0  0  3  0  0  0  0  0  0
  1 23  1  0  0  0  0
  3  2  1  0  0  0  0
  4  3  1  0  0  0  0
  4 16  1  0  0  0  0
  5  4  2  0  0  0  0
  6  7  2  0  0  0  0
  6  5  1  0  0  0  0
  7  8  1  0  0  0  0
  8  1  1  0  0  0  0
  8  3  2  0  0  0  0
  9  5  1  0  0  0  0
 10  6  1  0  0  0  0
 11  7  1  0  0  0  0
 12 18  1  0  0  0  0
 12 13  1  0  0  0  0
 13 19  1  0  0  0  0
 14 13  2  0  0  0  0
 14 20  1  0  0  0  0
 15 14  1  0  0  0  0
 16 17  1  0  0  0  0
 16 15  2  0  0  0  0
 17 12  2  0  0  0  0
 22 21  1  0  0  0  0
 22 27  1  0  0  0  0
 23 24  1  0  0  0  0
 23 22  2  0  0  0  0
 24 25  2  0  0  0  0
 25 29  1  0  0  0  0
 25 26  1  0  0  0  0
 26 30  1  0  0  0  0
 27 26  2  0  0  0  0
 27 33  1  0  0  0  0
 28 24  1  0  0  0  0
 32 31  1  0  0  0  0
 32 39  1  0  0  0  0
 33 32  2  0  0  0  0
 34 33  1  0  0  0  0
 34 36  2  0  0  0  0
 35 34  1  0  0  0  0
 36 38  1  0  0  0  0
 37 36  1  0  0  0  0
 38 39  2  0  0  0  0
M  END
>  <minimizedAffinity>
-6.35898638

$$$$

 OpenBabel03272505143D

 39 42  0  0  0  0  0  0  0  0999 V2000
   39.5080   26.6670   31.9020 S   0  0  0  0  0  0  0  0  0  0  0  0
   37.2690   27.7490   33.8010 Cl  0  0  0  0  0  0  0  0  0  0  0  0
   37.2800   28.2710   32.1330 C   0  0  0  0  0  0  0  0  0  0  0  0
   36.2810   29.1490   31.7370 C   0  0  0  0  0  0  0  0  0  0  0  0
   36.2740   29.5730   30.4200 C   0  0  0  0  0  0  0  0  0  0  0  0
   37.2400   29.1220   29.5520 C   0  0  0  0  0  0  0  0  0  0  0  0
   38.2150   28.2400   30.0160 C   0  0  0  0  0  0  0  0  0  0  0  0
   38.2800   27.7840   31.2990 C   0  0  0  0  0  0  0  0  0  0  0  0
   35.5040   30.2570   30.0940 H   0  0  0  0  0  0  0  0  0  0  0  0
   37.2630   29.4320   28.5220 H   0  0  0  0  0  0  0  0  0  0  0  0
   38.9560   27.9110   29.2990 H   0  0  0  0  0  0  0  0  0  0  0  0
   33.1060   29.3840   33.5190 C   0  0  0  0  0  0  0  0  0  0  0  0
   33.3160   30.3920   34.4700 C   0  0  0  0  0  0  0  0  0  0  0  0
   34.5840   30.9960   34.4870 C   0  0  0  0  0  0  0  0  0  0  0  0
   35.5230   30.5780   33.5960 N   0  0  0  0  0  0  0  0  0  0  0  0
   35.2710   29.6030   32.7000 C   0  0  0  0  0  0  0  0  0  0  0  0
   34.0730   29.0230   32.6750 N   0  0  0  0  0  0  0  0  0  0  0  0
   32.1580   28.8390   33.4100 H   0  0  0  0  0  0  0  0  0  0  0  0
   32.5010   30.6480   35.1320 H   0  0  0  0  0  0  0  0  0  0  0  0
   34.7540   31.7700   35.2120 H   0  0  0  0  0  0  0  0  0  0  0  0
   40.0030   26.0950   34.9670 Cl  0  0  0  0  0  0  0  0  0  0  0  0
   39.0420   25.0140   33.9680 C   0  0  0  0  0  0  0  0  0  0  0  0
   38.7770   25.1940   32.6090 C   0  0  0  0  0  0  0  0  0  0  0  0
   38.0070   24.2670   31.9440 C   0  0  0  0  0  0  0  0  0  0  0  0
   37.5080   23.1850   32.5980 C   0  0  0  0  0  0  0  0  0  0  0  0
   37.7400   22.9510   33.9560 C   0  0  0  0  0  0  0  0  0  0  0  0
   38.5060   23.8820   34.6020 C   0  0  0  0  0  0  0  0  0  0  0  0
   37.8410   24.4670   30.8970 H   0  0  0  0  0  0  0  0  0  0  0  0
   36.8950   22.4480   32.0680 H   0  0  0  0  0  0  0  0  0  0  0  0
   37.3410   22.0910   34.4730 H   0  0  0  0  0  0  0  0  0  0  0  0
   40.6900   22.4320   35.6510 F   0  0  0  0  0  0  0  0  0  0  0  0
   39.7950   22.9510   36.5550 C   0  0  0  0  0  0  0  0  0  0  0  0
   38.7530   23.6450   36.0220 C   0  0  0  0  0  0  0  0  0  0  0  0
   37.7730   24.2260   36.8340 C   0  0  0  0  0  0  0  0  0  0  0  0
   36.9110   24.7960   36.4590 H   0  0  0  0  0  0  0  0  0  0  0  0
   37.8520   24.0990   38.2150 C   0  0  0  0  0  0  0  0  0  0  0  0
   37.0980   24.5420   38.8820 H   0  0  0  0  0  0  0  0  0  0  0  0
   38.9300   23.3840   38.7040 C   0  0  0  0  0  3  0  0  0  0  0  0
   39.8970   22.8110   37.9200 C   0  0  0  0  0  3  0  0  0  0  0  0
  1 23  1  0  0  0  0
  3  2  1  0  0  0  0
  4  3  1  0  0  0  0
  4 16  1  0  0  0  0
  5  4  2  0  0  0  0
  6  7  2  0  0  0  0
  6  5  1  0  0  0  0
  7  8  1  0  0  0  0
  8  1  1  0  0  0  0
  8  3  2  0  0  0  0
  9  5  1  0  0  0  0
 10  6  1  0  0  0  0
 11  7  1  0  0  0  0
 12 13  1  0  0  0  0
 13 14  2  0  0  0  0
 13 19  1  0  0  0  0
 14 20  1  0  0  0  0
 15 14  1  0  0  0  0
 16 15  2  0  0  0  0
 17 16  1  0  0  0  0
 17 12  2  0  0  0  0
 18 12  1  0  0  0  0
 22 27  1  0  0  0  0
 22 21  1  0  0  0  0
 23 22  2  0  0  0  0
 24 25  2  0  0  0  0
 24 23  1  0  0  0  0
 25 26  1  0  0  0  0
 26 30  1  0  0  0  0
 26 27  2  0  0  0  0
 27 33  1  0  0  0  0
 28 24  1  0  0  0  0
 29 25  1  0  0  0  0
 31 32  1  0  0  0  0
 32 39  1  0  0  0  0
 33 32  2  0  0  0  0
 33 34  1  0  0  0  0
 34 36  2  0  0  0  0
 35 34  1  0  0  0  0
 36 38  1  0  0  0  0
 36 37  1  0  0  0  0
 39 38  2  0  0  0  0
M  END
>  <minimizedAffinity>
-6.34889126

$$$$

 OpenBabel03272505143D

 39 42  0  0  0  0  0  0  0  0999 V2000
   37.4340   25.9990   32.3340 S   0  0  0  0  0  0  0  0  0  0  0  0
   38.2960   23.5470   34.0770 Cl  0  0  0  0  0  0  0  0  0  0  0  0
   39.3340   24.9520   34.0330 C   0  0  0  0  0  0  0  0  0  0  0  0
   40.5000   24.9010   34.7840 C   0  0  0  0  0  0  0  0  0  0  0  0
   41.3350   26.0050   34.7620 C   0  0  0  0  0  0  0  0  0  0  0  0
   40.9940   27.1040   34.0090 C   0  0  0  0  0  0  0  0  0  0  0  0
   39.8070   27.0880   33.2770 C   0  0  0  0  0  0  0  0  0  0  0  0
   38.9420   26.0350   33.2560 C   0  0  0  0  0  0  0  0  0  0  0  0
   42.2460   25.9840   35.3400 H   0  0  0  0  0  0  0  0  0  0  0  0
   41.6210   27.9780   33.9690 H   0  0  0  0  0  0  0  0  0  0  0  0
   39.5780   27.9740   32.6990 H   0  0  0  0  0  0  0  0  0  0  0  0
   42.1070   21.7800   35.7770 C   0  0  0  0  0  0  0  0  0  0  0  0
   41.4890   21.4420   36.9890 C   0  0  0  0  0  0  0  0  0  0  0  0
   40.4980   22.3170   37.4630 C   0  0  0  0  0  0  0  0  0  0  0  0
   40.1970   23.4260   36.7330 N   0  0  0  0  0  0  0  0  0  0  0  0
   40.8210   23.7070   35.5720 C   0  0  0  0  0  0  0  0  0  0  0  0
   41.7630   22.8840   35.1140 N   0  0  0  0  0  0  0  0  0  0  0  0
   42.8950   21.1760   35.3070 H   0  0  0  0  0  0  0  0  0  0  0  0
   41.8040   20.5370   37.4870 H   0  0  0  0  0  0  0  0  0  0  0  0
   40.0170   22.0660   38.3890 H   0  0  0  0  0  0  0  0  0  0  0  0
   36.2380   27.5360   34.8180 Cl  0  0  0  0  0  0  0  0  0  0  0  0
   36.2700   28.2540   33.2140 C   0  0  0  0  0  0  0  0  0  0  0  0
   36.7790   27.6430   32.0670 C   0  0  0  0  0  0  0  0  0  0  0  0
   36.7420   28.3200   30.8690 C   0  0  0  0  0  0  0  0  0  0  0  0
   36.2150   29.5700   30.7970 C   0  0  0  0  0  0  0  0  0  0  0  0
   35.6900   30.2330   31.9110 C   0  0  0  0  0  0  0  0  0  0  0  0
   35.7360   29.5470   33.0920 C   0  0  0  0  0  0  0  0  0  0  0  0
   37.1520   27.7900   30.0230 H   0  0  0  0  0  0  0  0  0  0  0  0
   36.1860   30.1090   29.8440 H   0  0  0  0  0  0  0  0  0  0  0  0
   35.2730   31.2270   31.8510 H   0  0  0  0  0  0  0  0  0  0  0  0
   33.0700   29.3360   34.0000 F   0  0  0  0  0  0  0  0  0  0  0  0
   33.9110   30.1490   34.7210 C   0  0  0  0  0  0  0  0  0  0  0  0
   35.1890   30.2320   34.2610 C   0  0  0  0  0  0  0  0  0  0  0  0
   36.1450   31.0240   34.9050 C   0  0  0  0  0  0  0  0  0  0  0  0
   37.1910   31.1290   34.5790 H   0  0  0  0  0  0  0  0  0  0  0  0
   35.7970   31.7490   36.0380 C   0  0  0  0  0  0  0  0  0  0  0  0
   36.5230   32.3820   36.5670 H   0  0  0  0  0  0  0  0  0  0  0  0
   34.4860   31.6300   36.4620 C   0  0  0  0  0  3  0  0  0  0  0  0
   33.5400   30.8560   35.8410 C   0  0  0  0  0  3  0  0  0  0  0  0
  1  8  1  0  0  0  0
  3  2  1  0  0  0  0
  3  4  1  0  0  0  0
  4 16  1  0  0  0  0
  5  4  2  0  0  0  0
  5  9  1  0  0  0  0
  6  5  1  0  0  0  0
  7  6  2  0  0  0  0
  8  7  1  0  0  0  0
  8  3  2  0  0  0  0
 10  6  1  0  0  0  0
 11  7  1  0  0  0  0
 12 13  1  0  0  0  0
 13 14  2  0  0  0  0
 13 19  1  0  0  0  0
 14 20  1  0  0  0  0
 15 14  1  0  0  0  0
 16 15  2  0  0  0  0
 17 16  1  0  0  0  0
 17 12  2  0  0  0  0
 18 12  1  0  0  0  0
 22 21  1  0  0  0  0
 23  1  1  0  0  0  0
 23 22  2  0  0  0  0
 24 23  1  0  0  0  0
 25 24  2  0  0  0  0
 25 26  1  0  0  0  0
 26 27  2  0  0  0  0
 27 22  1  0  0  0  0
 27 33  1  0  0  0  0
 28 24  1  0  0  0  0
 29 25  1  0  0  0  0
 30 26  1  0  0  0  0
 31 32  1  0  0  0  0
 32 39  1  0  0  0  0
 33 32  2  0  0  0  0
 33 34  1  0  0  0  0
 34 36  2  0  0  0  0
 35 34  1  0  0  0  0
 36 38  1  0  0  0  0
 36 37  1  0  0  0  0
 39 38  2  0  0  0  0
M  END
>  <minimizedAffinity>
-6.30395269

$$$$

 OpenBabel03272505143D

 39 42  0  0  0  0  0  0  0  0999 V2000
   39.2360   24.1640   30.9700 S   0  0  0  0  0  0  0  0  0  0  0  0
   38.8020   27.2380   31.3630 Cl  0  0  0  0  0  0  0  0  0  0  0  0
   37.4030   26.2110   31.1670 C   0  0  0  0  0  0  0  0  0  0  0  0
   36.1580   26.8240   31.1970 C   0  0  0  0  0  0  0  0  0  0  0  0
   35.0370   26.0260   31.0440 C   0  0  0  0  0  0  0  0  0  0  0  0
   35.1820   24.6710   30.8690 C   0  0  0  0  0  0  0  0  0  0  0  0
   36.4630   24.1190   30.8490 C   0  0  0  0  0  0  0  0  0  0  0  0
   37.6070   24.8470   30.9930 C   0  0  0  0  0  0  0  0  0  0  0  0
   34.0610   26.4860   31.0650 H   0  0  0  0  0  0  0  0  0  0  0  0
   34.3330   24.0220   30.7470 H   0  0  0  0  0  0  0  0  0  0  0  0
   36.5310   23.0480   30.7080 H   0  0  0  0  0  0  0  0  0  0  0  0
   35.6130   30.0350   32.8420 C   0  0  0  0  0  0  0  0  0  0  0  0
   35.8320   30.9830   31.8330 C   0  0  0  0  0  0  0  0  0  0  0  0
   36.1750   30.4920   30.5630 C   0  0  0  0  0  0  0  0  0  0  0  0
   36.2730   29.1460   30.3830 N   0  0  0  0  0  0  0  0  0  0  0  0
   36.0520   28.2750   31.3870 C   0  0  0  0  0  0  0  0  0  0  0  0
   35.7270   28.7290   32.5960 N   0  0  0  0  0  0  0  0  0  0  0  0
   35.3410   30.2970   33.8740 H   0  0  0  0  0  0  0  0  0  0  0  0
   35.7280   32.0280   32.0840 H   0  0  0  0  0  0  0  0  0  0  0  0
   36.3440   31.2100   29.7830 H   0  0  0  0  0  0  0  0  0  0  0  0
   37.9770   23.4370   33.7710 Cl  0  0  0  0  0  0  0  0  0  0  0  0
   39.5340   24.2410   33.6380 C   0  0  0  0  0  0  0  0  0  0  0  0
   40.1590   24.5960   32.4420 C   0  0  0  0  0  0  0  0  0  0  0  0
   41.3830   25.2230   32.4810 C   0  0  0  0  0  0  0  0  0  0  0  0
   41.9820   25.4970   33.6690 C   0  0  0  0  0  0  0  0  0  0  0  0
   41.4060   25.1660   34.8990 C   0  0  0  0  0  0  0  0  0  0  0  0
   40.1910   24.5430   34.8420 C   0  0  0  0  0  0  0  0  0  0  0  0
   41.8100   25.4690   31.5210 H   0  0  0  0  0  0  0  0  0  0  0  0
   42.9570   25.9960   33.7000 H   0  0  0  0  0  0  0  0  0  0  0  0
   41.8860   25.3850   35.8420 H   0  0  0  0  0  0  0  0  0  0  0  0
   38.0050   25.8860   36.0210 F   0  0  0  0  0  0  0  0  0  0  0  0
   38.5290   24.8220   36.7140 C   0  0  0  0  0  0  0  0  0  0  0  0
   39.5810   24.1940   36.1230 C   0  0  0  0  0  0  0  0  0  0  0  0
   40.2050   23.0960   36.7240 C   0  0  0  0  0  0  0  0  0  0  0  0
   41.0580   22.5500   36.2930 H   0  0  0  0  0  0  0  0  0  0  0  0
   39.7530   22.6260   37.9500 C   0  0  0  0  0  0  0  0  0  0  0  0
   40.2220   21.7670   38.4510 H   0  0  0  0  0  0  0  0  0  0  0  0
   38.6820   23.3000   38.5080 C   0  0  0  0  0  3  0  0  0  0  0  0
   38.0610   24.3780   37.9290 C   0  0  0  0  0  3  0  0  0  0  0  0
  1  8  1  0  0  0  0
  1 23  1  0  0  0  0
  3  4  1  0  0  0  0
  3  2  1  0  0  0  0
  4 16  1  0  0  0  0
  5  9  1  0  0  0  0
  5  4  2  0  0  0  0
  6  5  1  0  0  0  0
  7  6  2  0  0  0  0
  7  8  1  0  0  0  0
  8  3  2  0  0  0  0
 10  6  1  0  0  0  0
 11  7  1  0  0  0  0
 12 18  1  0  0  0  0
 13 19  1  0  0  0  0
 13 12  2  0  0  0  0
 14 13  1  0  0  0  0
 15 14  2  0  0  0  0
 15 16  1  0  0  0  0
 16 17  2  0  0  0  0
 17 12  1  0  0  0  0
 20 14  1  0  0  0  0
 22 21  1  0  0  0  0
 22 27  1  0  0  0  0
 23 24  1  0  0  0  0
 23 22  2  0  0  0  0
 24 25  2  0  0  0  0
 25 29  1  0  0  0  0
 25 26  1  0  0  0  0
 26 30  1  0  0  0  0
 27 26  2  0  0  0  0
 27 33  1  0  0  0  0
 28 24  1  0  0  0  0
 31 32  1  0  0  0  0
 32 39  1  0  0  0  0
 33 32  2  0  0  0  0
 33 34  1  0  0  0  0
 34 36  2  0  0  0  0
 35 34  1  0  0  0  0
 36 37  1  0  0  0  0
 36 38  1  0  0  0  0
 39 38  2  0  0  0  0
M  END
>  <minimizedAffinity>
-6.10796642

$$$$

 OpenBabel03272505143D

 39 42  0  0  0  0  0  0  0  0999 V2000
   39.0620   25.9300   33.4280 S   0  0  0  0  0  0  0  0  0  0  0  0
   37.4810   27.8620   35.3140 Cl  0  0  0  0  0  0  0  0  0  0  0  0
   37.0460   27.7970   33.6240 C   0  0  0  0  0  0  0  0  0  0  0  0
   36.0090   28.6180   33.2050 C   0  0  0  0  0  0  0  0  0  0  0  0
   35.6490   28.5800   31.8680 C   0  0  0  0  0  0  0  0  0  0  0  0
   36.3180   27.7460   31.0050 C   0  0  0  0  0  0  0  0  0  0  0  0
   37.3520   26.9470   31.4930 C   0  0  0  0  0  0  0  0  0  0  0  0
   37.7550   26.9350   32.7950 C   0  0  0  0  0  0  0  0  0  0  0  0
   34.8440   29.2130   31.5250 H   0  0  0  0  0  0  0  0  0  0  0  0
   36.0640   27.6920   29.9610 H   0  0  0  0  0  0  0  0  0  0  0  0
   37.8510   26.3040   30.7780 H   0  0  0  0  0  0  0  0  0  0  0  0
   33.3470   30.0260   35.2650 C   0  0  0  0  0  0  0  0  0  0  0  0
   33.9600   31.0850   35.9480 C   0  0  0  0  0  0  0  0  0  0  0  0
   35.3220   31.3090   35.6840 C   0  0  0  0  0  0  0  0  0  0  0  0
   35.9600   30.4990   34.7940 N   0  0  0  0  0  0  0  0  0  0  0  0
   35.3240   29.4930   34.1630 C   0  0  0  0  0  0  0  0  0  0  0  0
   34.0330   29.2720   34.4060 N   0  0  0  0  0  0  0  0  0  0  0  0
   32.2890   29.7540   35.3890 H   0  0  0  0  0  0  0  0  0  0  0  0
   33.3610   31.6660   36.6330 H   0  0  0  0  0  0  0  0  0  0  0  0
   35.8010   32.1180   36.2010 H   0  0  0  0  0  0  0  0  0  0  0  0
   37.9830   23.6230   31.5640 Cl  0  0  0  0  0  0  0  0  0  0  0  0
   37.9820   23.4730   33.3150 C   0  0  0  0  0  0  0  0  0  0  0  0
   38.4390   24.4430   34.2080 C   0  0  0  0  0  0  0  0  0  0  0  0
   38.3810   24.1960   35.5600 C   0  0  0  0  0  0  0  0  0  0  0  0
   37.8830   23.0220   36.0280 C   0  0  0  0  0  0  0  0  0  0  0  0
   37.4100   22.0130   35.1840 C   0  0  0  0  0  0  0  0  0  0  0  0
   37.4760   22.2750   33.8440 C   0  0  0  0  0  0  0  0  0  0  0  0
   38.7510   24.9880   36.1930 H   0  0  0  0  0  0  0  0  0  0  0  0
   37.8370   22.8250   37.1050 H   0  0  0  0  0  0  0  0  0  0  0  0
   37.0160   21.0800   35.5590 H   0  0  0  0  0  0  0  0  0  0  0  0
   39.0910   20.3630   32.5340 F   0  0  0  0  0  0  0  0  0  0  0  0
   37.7370   20.2930   32.3100 C   0  0  0  0  0  0  0  0  0  0  0  0
   36.9840   21.2260   32.9540 C   0  0  0  0  0  0  0  0  0  0  0  0
   35.5930   21.2630   32.8120 C   0  0  0  0  0  0  0  0  0  0  0  0
   34.9340   21.9930   33.3060 H   0  0  0  0  0  0  0  0  0  0  0  0
   34.9530   20.3350   31.9990 C   0  0  0  0  0  0  0  0  0  0  0  0
   33.8620   20.3370   31.8650 H   0  0  0  0  0  0  0  0  0  0  0  0
   35.7650   19.4100   31.3690 C   0  0  0  0  0  3  0  0  0  0  0  0
   37.1290   19.3620   31.5000 C   0  0  0  0  0  3  0  0  0  0  0  0
  1 23  1  0  0  0  0
  3  2  1  0  0  0  0
  4  3  1  0  0  0  0
  4 16  1  0  0  0  0
  5  4  2  0  0  0  0
  6  7  2  0  0  0  0
  6  5  1  0  0  0  0
  7  8  1  0  0  0  0
  8  1  1  0  0  0  0
  8  3  2  0  0  0  0
  9  5  1  0  0  0  0
 10  6  1  0  0  0  0
 11  7  1  0  0  0  0
 12 18  1  0  0  0  0
 12 13  1  0  0  0  0
 13 19  1  0  0  0  0
 14 13  2  0  0  0  0
 14 20  1  0  0  0  0
 15 14  1  0  0  0  0
 16 17  1  0  0  0  0
 16 15  2  0  0  0  0
 17 12  2  0  0  0  0
 21 22  1  0  0  0  0
 22 27  2  0  0  0  0
 22 23  1  0  0  0  0
 23 24  2  0  0  0  0
 24 25  1  0  0  0  0
 24 28  1  0  0  0  0
 25 29  1  0  0  0  0
 26 30  1  0  0  0  0
 26 25  2  0  0  0  0
 27 26  1  0  0  0  0
 32 31  1  0  0  0  0
 32 33  1  0  0  0  0
 33 27  1  0  0  0  0
 34 33  2  0  0  0  0
 34 35  1  0  0  0  0
 36 34  1  0  0  0  0
 37 36  1  0  0  0  0
 38 39  1  0  0  0  0
 38 36  2  0  0  0  0
 39 32  2  0  0  0  0
M  END
>  <minimizedAffinity>
-6.04555416

$$$$

 OpenBabel03272505143D

 39 42  0  0  0  0  0  0  0  0999 V2000
   35.6450   30.4670   35.2170 S   0  0  0  0  0  0  0  0  0  0  0  0
   33.6730   31.8320   37.2260 Cl  0  0  0  0  0  0  0  0  0  0  0  0
   34.8450   32.8250   36.3940 C   0  0  0  0  0  0  0  0  0  0  0  0
   34.8360   34.1850   36.6740 C   0  0  0  0  0  0  0  0  0  0  0  0
   35.7580   34.9880   36.0240 C   0  0  0  0  0  0  0  0  0  0  0  0
   36.6430   34.4280   35.1330 C   0  0  0  0  0  0  0  0  0  0  0  0
   36.5970   33.0540   34.8990 C   0  0  0  0  0  0  0  0  0  0  0  0
   35.7160   32.2080   35.5040 C   0  0  0  0  0  0  0  0  0  0  0  0
   35.7650   36.0470   36.2300 H   0  0  0  0  0  0  0  0  0  0  0  0
   37.3710   35.0240   34.6110 H   0  0  0  0  0  0  0  0  0  0  0  0
   37.3120   32.6570   34.1900 H   0  0  0  0  0  0  0  0  0  0  0  0
   31.6670   35.3220   38.0780 C   0  0  0  0  0  0  0  0  0  0  0  0
   31.9950   35.7590   39.3690 C   0  0  0  0  0  0  0  0  0  0  0  0
   33.3430   35.6550   39.7510 C   0  0  0  0  0  0  0  0  0  0  0  0
   34.2400   35.1440   38.8640 N   0  0  0  0  0  0  0  0  0  0  0  0
   33.8720   34.7360   37.6330 C   0  0  0  0  0  0  0  0  0  0  0  0
   32.5980   34.8310   37.2600 N   0  0  0  0  0  0  0  0  0  0  0  0
   30.6480   35.3530   37.6670 H   0  0  0  0  0  0  0  0  0  0  0  0
   31.2050   36.1490   39.9920 H   0  0  0  0  0  0  0  0  0  0  0  0
   33.6060   35.9880   40.7370 H   0  0  0  0  0  0  0  0  0  0  0  0
   36.5890   27.5570   34.4370 Cl  0  0  0  0  0  0  0  0  0  0  0  0
   36.2190   28.7670   33.2180 C   0  0  0  0  0  0  0  0  0  0  0  0
   35.7980   30.0720   33.4780 C   0  0  0  0  0  0  0  0  0  0  0  0
   35.5410   30.9200   32.4250 C   0  0  0  0  0  0  0  0  0  0  0  0
   35.6960   30.4980   31.1430 C   0  0  0  0  0  0  0  0  0  0  0  0
   36.1150   29.2040   30.8200 C   0  0  0  0  0  0  0  0  0  0  0  0
   36.3640   28.3750   31.8780 C   0  0  0  0  0  0  0  0  0  0  0  0
   35.2190   31.9140   32.6970 H   0  0  0  0  0  0  0  0  0  0  0  0
   35.4920   31.1740   30.3050 H   0  0  0  0  0  0  0  0  0  0  0  0
   36.2360   28.8710   29.8000 H   0  0  0  0  0  0  0  0  0  0  0  0
   39.0500   27.5050   31.8270 F   0  0  0  0  0  0  0  0  0  0  0  0
   38.0880   26.5740   31.5170 C   0  0  0  0  0  0  0  0  0  0  0  0
   36.8040   27.0210   31.5490 C   0  0  0  0  0  0  0  0  0  0  0  0
   35.7300   26.1730   31.2550 C   0  0  0  0  0  0  0  0  0  0  0  0
   34.6740   26.4790   31.2650 H   0  0  0  0  0  0  0  0  0  0  0  0
   35.9660   24.8460   30.9200 C   0  0  0  0  0  0  0  0  0  0  0  0
   35.1460   24.1530   30.6820 H   0  0  0  0  0  0  0  0  0  0  0  0
   37.2890   24.4440   30.9020 C   0  0  0  0  0  3  0  0  0  0  0  0
   38.3500   25.2640   31.1890 C   0  0  0  0  0  3  0  0  0  0  0  0
  1  8  1  0  0  0  0
  3  4  1  0  0  0  0
  3  2  1  0  0  0  0
  4 16  1  0  0  0  0
  5  9  1  0  0  0  0
  5  4  2  0  0  0  0
  6  5  1  0  0  0  0
  7  6  2  0  0  0  0
  7  8  1  0  0  0  0
  8  3  2  0  0  0  0
 10  6  1  0  0  0  0
 11  7  1  0  0  0  0
 12 13  1  0  0  0  0
 13 14  2  0  0  0  0
 13 19  1  0  0  0  0
 14 20  1  0  0  0  0
 15 14  1  0  0  0  0
 16 15  2  0  0  0  0
 17 16  1  0  0  0  0
 17 12  2  0  0  0  0
 18 12  1  0  0  0  0
 22 23  1  0  0  0  0
 22 21  1  0  0  0  0
 23  1  1  0  0  0  0
 24 28  1  0  0  0  0
 24 23  2  0  0  0  0
 25 24  1  0  0  0  0
 26 25  2  0  0  0  0
 26 27  1  0  0  0  0
 27 22  2  0  0  0  0
 29 25  1  0  0  0  0
 30 26  1  0  0  0  0
 32 33  1  0  0  0  0
 32 31  1  0  0  0  0
 33 27  1  0  0  0  0
 34 35  1  0  0  0  0
 34 33  2  0  0  0  0
 36 34  1  0  0  0  0
 37 36  1  0  0  0  0
 38 36  2  0  0  0  0
 38 39  1  0  0  0  0
 39 32  2  0  0  0  0
M  END
>  <minimizedAffinity>
-5.99838257

$$$$

 OpenBabel03272505143D

 39 42  0  0  0  0  0  0  0  0999 V2000
   37.6980   27.8090   31.8450 S   0  0  0  0  0  0  0  0  0  0  0  0
   39.1970   25.0660   31.9660 Cl  0  0  0  0  0  0  0  0  0  0  0  0
   37.4960   25.0750   31.5690 C   0  0  0  0  0  0  0  0  0  0  0  0
   36.8950   23.8480   31.3260 C   0  0  0  0  0  0  0  0  0  0  0  0
   35.5470   23.8360   31.0100 C   0  0  0  0  0  0  0  0  0  0  0  0
   34.8500   25.0190   30.9460 C   0  0  0  0  0  0  0  0  0  0  0  0
   35.5160   26.2170   31.2020 C   0  0  0  0  0  0  0  0  0  0  0  0
   36.8390   26.3000   31.5180 C   0  0  0  0  0  0  0  0  0  0  0  0
   35.0630   22.8900   30.8180 H   0  0  0  0  0  0  0  0  0  0  0  0
   33.8020   25.0460   30.7040 H   0  0  0  0  0  0  0  0  0  0  0  0
   34.9290   27.1250   31.1410 H   0  0  0  0  0  0  0  0  0  0  0  0
   38.3720   20.8080   32.7000 C   0  0  0  0  0  0  0  0  0  0  0  0
   39.1240   20.2790   31.6420 C   0  0  0  0  0  0  0  0  0  0  0  0
   39.1130   20.9960   30.4340 C   0  0  0  0  0  0  0  0  0  0  0  0
   38.3870   22.1440   30.3570 N   0  0  0  0  0  0  0  0  0  0  0  0
   37.6790   22.6110   31.4050 C   0  0  0  0  0  0  0  0  0  0  0  0
   37.6820   21.9400   32.5550 N   0  0  0  0  0  0  0  0  0  0  0  0
   38.3030   20.3380   33.6910 H   0  0  0  0  0  0  0  0  0  0  0  0
   39.6650   19.3600   31.8100 H   0  0  0  0  0  0  0  0  0  0  0  0
   39.6870   20.6000   29.6170 H   0  0  0  0  0  0  0  0  0  0  0  0
   36.3820   28.5390   34.6200 Cl  0  0  0  0  0  0  0  0  0  0  0  0
   36.0440   29.4650   33.1650 C   0  0  0  0  0  0  0  0  0  0  0  0
   36.5830   29.2080   31.9030 C   0  0  0  0  0  0  0  0  0  0  0  0
   36.2330   30.0150   30.8440 C   0  0  0  0  0  0  0  0  0  0  0  0
   35.3720   31.0510   31.0190 C   0  0  0  0  0  0  0  0  0  0  0  0
   34.8010   31.3570   32.2580 C   0  0  0  0  0  0  0  0  0  0  0  0
   35.1590   30.5460   33.2980 C   0  0  0  0  0  0  0  0  0  0  0  0
   36.6860   29.7620   29.8980 H   0  0  0  0  0  0  0  0  0  0  0  0
   35.0940   31.6930   30.1760 H   0  0  0  0  0  0  0  0  0  0  0  0
   34.1170   32.1820   32.3930 H   0  0  0  0  0  0  0  0  0  0  0  0
   32.7030   29.5280   34.2500 F   0  0  0  0  0  0  0  0  0  0  0  0
   33.3870   30.3830   35.0800 C   0  0  0  0  0  0  0  0  0  0  0  0
   34.5660   30.8580   34.5960 C   0  0  0  0  0  0  0  0  0  0  0  0
   35.3590   31.7360   35.3430 C   0  0  0  0  0  0  0  0  0  0  0  0
   36.3200   32.1510   35.0040 H   0  0  0  0  0  0  0  0  0  0  0  0
   34.9470   32.1400   36.6070 C   0  0  0  0  0  0  0  0  0  0  0  0
   35.5450   32.8290   37.2190 H   0  0  0  0  0  0  0  0  0  0  0  0
   33.7410   31.6290   37.0500 C   0  0  0  0  0  3  0  0  0  0  0  0
   32.9540   30.7670   36.3290 C   0  0  0  0  0  3  0  0  0  0  0  0
  1 23  1  0  0  0  0
  3  2  1  0  0  0  0
  4 16  1  0  0  0  0
  4  3  2  0  0  0  0
  5  4  1  0  0  0  0
  6  5  2  0  0  0  0
  6  7  1  0  0  0  0
  7  8  2  0  0  0  0
  8  3  1  0  0  0  0
  8  1  1  0  0  0  0
  9  5  1  0  0  0  0
 10  6  1  0  0  0  0
 11  7  1  0  0  0  0
 12 18  1  0  0  0  0
 13 19  1  0  0  0  0
 13 12  2  0  0  0  0
 14 13  1  0  0  0  0
 15 14  2  0  0  0  0
 15 16  1  0  0  0  0
 16 17  2  0  0  0  0
 17 12  1  0  0  0  0
 20 14  1  0  0  0  0
 22 27  1  0  0  0  0
 22 21  1  0  0  0  0
 23 22  2  0  0  0  0
 24 25  2  0  0  0  0
 24 23  1  0  0  0  0
 25 26  1  0  0  0  0
 26 30  1  0  0  0  0
 26 27  2  0  0  0  0
 27 33  1  0  0  0  0
 28 24  1  0  0  0  0
 29 25  1  0  0  0  0
 31 32  1  0  0  0  0
 32 39  1  0  0  0  0
 33 32  2  0  0  0  0
 33 34  1  0  0  0  0
 34 36  2  0  0  0  0
 35 34  1  0  0  0  0
 36 38  1  0  0  0  0
 36 37  1  0  0  0  0
 39 38  2  0  0  0  0
M  END
>  <minimizedAffinity>
-5.99539328

$$$$

 OpenBabel03272505143D

 39 42  0  0  0  0  0  0  0  0999 V2000
   36.6090   25.7210   32.0420 S   0  0  0  0  0  0  0  0  0  0  0  0
   37.8650   28.3050   30.8070 Cl  0  0  0  0  0  0  0  0  0  0  0  0
   38.4280   26.7490   30.2480 C   0  0  0  0  0  0  0  0  0  0  0  0
   39.4160   26.7450   29.2730 C   0  0  0  0  0  0  0  0  0  0  0  0
   39.8740   25.5210   28.8170 C   0  0  0  0  0  0  0  0  0  0  0  0
   39.3490   24.3600   29.3340 C   0  0  0  0  0  0  0  0  0  0  0  0
   38.3580   24.4360   30.3120 C   0  0  0  0  0  0  0  0  0  0  0  0
   37.8630   25.6070   30.8030 C   0  0  0  0  0  0  0  0  0  0  0  0
   40.6420   25.4990   28.0590 H   0  0  0  0  0  0  0  0  0  0  0  0
   39.6830   23.3920   29.0020 H   0  0  0  0  0  0  0  0  0  0  0  0
   37.9730   23.4980   30.6900 H   0  0  0  0  0  0  0  0  0  0  0  0
   39.8240   29.6630   27.1200 C   0  0  0  0  0  0  0  0  0  0  0  0
   40.8770   30.3800   27.7040 C   0  0  0  0  0  0  0  0  0  0  0  0
   41.4510   29.8350   28.8640 C   0  0  0  0  0  0  0  0  0  0  0  0
   40.9620   28.6610   29.3510 N   0  0  0  0  0  0  0  0  0  0  0  0
   39.9460   28.0100   28.7510 C   0  0  0  0  0  0  0  0  0  0  0  0
   39.3940   28.5170   27.6510 N   0  0  0  0  0  0  0  0  0  0  0  0
   39.2960   29.9880   26.2130 H   0  0  0  0  0  0  0  0  0  0  0  0
   41.1880   31.3020   27.2360 H   0  0  0  0  0  0  0  0  0  0  0  0
   42.2590   30.3760   29.3190 H   0  0  0  0  0  0  0  0  0  0  0  0
   38.0560   23.4830   33.7340 Cl  0  0  0  0  0  0  0  0  0  0  0  0
   37.9100   25.1350   34.3180 C   0  0  0  0  0  0  0  0  0  0  0  0
   37.2870   26.1800   33.6350 C   0  0  0  0  0  0  0  0  0  0  0  0
   37.2430   27.4290   34.2080 C   0  0  0  0  0  0  0  0  0  0  0  0
   37.7970   27.6500   35.4290 C   0  0  0  0  0  0  0  0  0  0  0  0
   38.4340   26.6440   36.1620 C   0  0  0  0  0  0  0  0  0  0  0  0
   38.4700   25.4090   35.5760 C   0  0  0  0  0  0  0  0  0  0  0  0
   36.7470   28.1910   33.6260 H   0  0  0  0  0  0  0  0  0  0  0  0
   37.7620   28.6450   35.8860 H   0  0  0  0  0  0  0  0  0  0  0  0
   38.8750   26.8230   37.1310 H   0  0  0  0  0  0  0  0  0  0  0  0
   37.3950   24.1200   37.8470 F   0  0  0  0  0  0  0  0  0  0  0  0
   38.6400   23.7140   37.4310 C   0  0  0  0  0  0  0  0  0  0  0  0
   39.1330   24.3510   36.3350 C   0  0  0  0  0  0  0  0  0  0  0  0
   40.3880   24.0310   35.8090 C   0  0  0  0  0  0  0  0  0  0  0  0
   40.8370   24.5120   34.9270 H   0  0  0  0  0  0  0  0  0  0  0  0
   41.1600   23.0430   36.4080 C   0  0  0  0  0  0  0  0  0  0  0  0
   42.1510   22.7670   36.0210 H   0  0  0  0  0  0  0  0  0  0  0  0
   40.6130   22.4270   37.5190 C   0  0  0  0  0  3  0  0  0  0  0  0
   39.3830   22.7310   38.0440 C   0  0  0  0  0  3  0  0  0  0  0  0
  1 23  1  0  0  0  0
  3  8  1  0  0  0  0
  3  2  1  0  0  0  0
  4  3  2  0  0  0  0
  5  4  1  0  0  0  0
  5  6  2  0  0  0  0
  6  7  1  0  0  0  0
  7 11  1  0  0  0  0
  7  8  2  0  0  0  0
  8  1  1  0  0  0  0
  9  5  1  0  0  0  0
 10  6  1  0  0  0  0
 12 17  2  0  0  0  0
 12 13  1  0  0  0  0
 13 14  2  0  0  0  0
 14 20  1  0  0  0  0
 14 15  1  0  0  0  0
 16  4  1  0  0  0  0
 16 15  2  0  0  0  0
 17 16  1  0  0  0  0
 18 12  1  0  0  0  0
 19 13  1  0  0  0  0
 21 22  1  0  0  0  0
 22 27  1  0  0  0  0
 23 24  1  0  0  0  0
 23 22  2  0  0  0  0
 24 25  2  0  0  0  0
 25 29  1  0  0  0  0
 25 26  1  0  0  0  0
 26 30  1  0  0  0  0
 27 26  2  0  0  0  0
 27 33  1  0  0  0  0
 28 24  1  0  0  0  0
 32 31  1  0  0  0  0
 32 39  1  0  0  0  0
 33 32  2  0  0  0  0
 34 33  1  0  0  0  0
 34 36  2  0  0  0  0
 35 34  1  0  0  0  0
 36 38  1  0  0  0  0
 37 36  1  0  0  0  0
 38 39  2  0  0  0  0
M  END
>  <minimizedAffinity>
-5.97304678

$$$$

 OpenBabel03272505143D

 39 42  0  0  0  0  0  0  0  0999 V2000
   38.7840   27.3910   32.2090 S   0  0  0  0  0  0  0  0  0  0  0  0
   36.8000   28.1510   34.5060 Cl  0  0  0  0  0  0  0  0  0  0  0  0
   36.5080   28.7790   32.9020 C   0  0  0  0  0  0  0  0  0  0  0  0
   35.3960   29.5920   32.7330 C   0  0  0  0  0  0  0  0  0  0  0  0
   35.1480   30.1000   31.4690 C   0  0  0  0  0  0  0  0  0  0  0  0
   35.9950   29.7910   30.4320 C   0  0  0  0  0  0  0  0  0  0  0  0
   37.0950   28.9670   30.6710 C   0  0  0  0  0  0  0  0  0  0  0  0
   37.3960   28.4350   31.8890 C   0  0  0  0  0  0  0  0  0  0  0  0
   34.2880   30.7340   31.3200 H   0  0  0  0  0  0  0  0  0  0  0  0
   35.8320   30.1680   29.4370 H   0  0  0  0  0  0  0  0  0  0  0  0
   37.7350   28.7500   29.8250 H   0  0  0  0  0  0  0  0  0  0  0  0
   32.5730   29.3850   35.0360 C   0  0  0  0  0  0  0  0  0  0  0  0
   32.8200   30.3920   35.9800 C   0  0  0  0  0  0  0  0  0  0  0  0
   33.9890   31.1520   35.8060 C   0  0  0  0  0  0  0  0  0  0  0  0
   34.8030   30.8750   34.7510 N   0  0  0  0  0  0  0  0  0  0  0  0
   34.5200   29.8940   33.8710 C   0  0  0  0  0  0  0  0  0  0  0  0
   33.4160   29.1670   34.0250 N   0  0  0  0  0  0  0  0  0  0  0  0
   31.6950   28.7260   35.0660 H   0  0  0  0  0  0  0  0  0  0  0  0
   32.1080   30.5280   36.7790 H   0  0  0  0  0  0  0  0  0  0  0  0
   34.1870   31.9260   36.5230 H   0  0  0  0  0  0  0  0  0  0  0  0
   39.9360   26.2430   34.9150 Cl  0  0  0  0  0  0  0  0  0  0  0  0
   38.8310   25.3140   33.9120 C   0  0  0  0  0  0  0  0  0  0  0  0
   38.2790   25.7460   32.7060 C   0  0  0  0  0  0  0  0  0  0  0  0
   37.4240   24.9150   32.0190 C   0  0  0  0  0  0  0  0  0  0  0  0
   37.1180   23.6840   32.5040 C   0  0  0  0  0  0  0  0  0  0  0  0
   37.6400   23.1950   33.7060 C   0  0  0  0  0  0  0  0  0  0  0  0
   38.4860   24.0340   34.3760 C   0  0  0  0  0  0  0  0  0  0  0  0
   37.0330   25.3120   31.0950 H   0  0  0  0  0  0  0  0  0  0  0  0
   36.4380   23.0220   31.9580 H   0  0  0  0  0  0  0  0  0  0  0  0
   37.3940   22.2160   34.0900 H   0  0  0  0  0  0  0  0  0  0  0  0
   37.3690   24.4770   36.9310 F   0  0  0  0  0  0  0  0  0  0  0  0
   38.5210   23.7290   36.8760 C   0  0  0  0  0  0  0  0  0  0  0  0
   39.0360   23.5320   35.6320 C   0  0  0  0  0  0  0  0  0  0  0  0
   40.2040   22.7870   35.4380 C   0  0  0  0  0  0  0  0  0  0  0  0
   40.6660   22.5950   34.4580 H   0  0  0  0  0  0  0  0  0  0  0  0
   40.8630   22.2320   36.5270 C   0  0  0  0  0  0  0  0  0  0  0  0
   41.7840   21.6420   36.4100 H   0  0  0  0  0  0  0  0  0  0  0  0
   40.2980   22.4630   37.7680 C   0  0  0  0  0  3  0  0  0  0  0  0
   39.1530   23.1900   37.9730 C   0  0  0  0  0  3  0  0  0  0  0  0
  1 23  1  0  0  0  0
  3  2  1  0  0  0  0
  4  3  1  0  0  0  0
  4 16  1  0  0  0  0
  5  4  2  0  0  0  0
  6  7  2  0  0  0  0
  6  5  1  0  0  0  0
  7  8  1  0  0  0  0
  8  1  1  0  0  0  0
  8  3  2  0  0  0  0
  9  5  1  0  0  0  0
 10  6  1  0  0  0  0
 11  7  1  0  0  0  0
 12 18  1  0  0  0  0
 12 13  1  0  0  0  0
 13 19  1  0  0  0  0
 14 13  2  0  0  0  0
 14 20  1  0  0  0  0
 15 14  1  0  0  0  0
 16 17  1  0  0  0  0
 16 15  2  0  0  0  0
 17 12  2  0  0  0  0
 22 27  1  0  0  0  0
 22 21  1  0  0  0  0
 23 22  2  0  0  0  0
 24 25  2  0  0  0  0
 24 23  1  0  0  0  0
 25 26  1  0  0  0  0
 26 30  1  0  0  0  0
 26 27  2  0  0  0  0
 27 33  1  0  0  0  0
 28 24  1  0  0  0  0
 29 25  1  0  0  0  0
 32 31  1  0  0  0  0
 32 39  1  0  0  0  0
 33 32  2  0  0  0  0
 34 33  1  0  0  0  0
 34 36  2  0  0  0  0
 35 34  1  0  0  0  0
 36 38  1  0  0  0  0
 37 36  1  0  0  0  0
 38 39  2  0  0  0  0
M  END
>  <minimizedAffinity>
-5.94260693

$$$$
