
 OpenBabel03272506303D

 34 36  0  0  1  0  0  0  0  0999 V2000
   33.6400   29.0890   48.2510 C   0  0  1  0  0  0  0  0  0  0  0  0
   33.8100   29.3930   46.8290 C   0  0  0  0  0  0  0  0  0  0  0  0
   34.2180   28.2580   45.9300 C   0  0  0  0  0  0  0  0  0  0  0  0
   33.6610   26.9320   46.2490 C   0  0  0  0  0  0  0  0  0  0  0  0
   33.4160   26.6430   47.6770 C   0  0  0  0  0  0  0  0  0  0  0  0
   32.9560   27.7800   48.5070 C   0  0  2  0  0  0  0  0  0  0  0  0
   32.9210   29.8660   48.6680 H   0  0  0  0  0  0  0  0  0  0  0  0
   34.4570   30.2330   46.5610 H   0  0  0  0  0  0  0  0  0  0  0  0
   32.8130   29.7280   46.3790 H   0  0  0  0  0  0  0  0  0  0  0  0
   35.3300   28.1980   45.9670 H   0  0  0  0  0  0  0  0  0  0  0  0
   33.9760   28.5230   44.8750 H   0  0  0  0  0  0  0  0  0  0  0  0
   34.4280   26.1740   45.8810 H   0  0  0  0  0  0  0  0  0  0  0  0
   32.7740   26.6930   45.6330 H   0  0  0  0  0  0  0  0  0  0  0  0
   34.3480   26.1600   48.0980 H   0  0  0  0  0  0  0  0  0  0  0  0
   32.6530   25.8400   47.7260 H   0  0  0  0  0  0  0  0  0  0  0  0
   33.2280   27.4550   49.5320 H   0  0  0  0  0  0  0  0  0  0  0  0
   36.1050   29.6330   48.5720 C   0  0  0  0  0  0  0  0  0  0  0  0
   34.8340   29.2870   49.1010 C   0  0  0  0  0  0  0  0  0  0  0  0
   34.7670   29.1320   50.4720 C   0  0  0  0  0  0  0  0  0  0  0  0
   35.8700   29.3080   51.2340 N   0  0  0  0  0  0  0  0  0  0  0  0
   37.0660   29.6390   50.6820 C   0  0  0  0  0  0  0  0  0  0  0  0
   37.1710   29.8000   49.3450 N   0  0  0  0  0  0  0  0  0  0  0  0
   36.2480   29.7760   47.5150 H   0  0  0  0  0  0  0  0  0  0  0  0
   33.9400   28.8950   51.1000 H   0  0  0  0  0  0  0  0  0  0  0  0
   37.9650   29.7850   51.2640 H   0  0  0  0  0  0  0  0  0  0  0  0
   31.2950   28.0800   46.1970 F   0  0  0  0  0  0  0  0  0  0  0  0
   30.6880   28.0350   47.4270 C   0  0  0  0  0  0  0  0  0  0  0  0
   31.4780   27.8930   48.5800 C   0  0  0  0  0  0  0  0  0  0  0  0
   30.7000   27.8670   49.7120 C   0  0  0  0  0  0  0  0  0  0  0  0
   31.1730   27.7560   50.6580 H   0  0  0  0  0  0  0  0  0  0  0  0
   29.3350   27.9640   49.7500 C   0  0  0  0  0  0  0  0  0  0  0  0
   28.7860   27.9360   50.6790 H   0  0  0  0  0  0  0  0  0  0  0  0
   28.6370   28.1010   48.5730 C   0  0  0  0  0  0  0  0  0  0  0  0
   29.3170   28.1380   47.3750 C   0  0  0  0  0  0  0  0  0  0  0  0
  1  6  1  0  0  0  0
  1  7  1  1  0  0  0
  1 18  1  0  0  0  0
  2  1  1  0  0  0  0
  3 10  1  0  0  0  0
  3  4  1  0  0  0  0
  3  2  1  0  0  0  0
  4  5  1  0  0  0  0
  5 15  1  0  0  0  0
  5 14  1  0  0  0  0
  5  6  1  0  0  0  0
  6 28  1  0  0  0  0
  6 16  1  1  0  0  0
  8  2  1  0  0  0  0
  9  2  1  0  0  0  0
 11  3  1  0  0  0  0
 12  4  1  0  0  0  0
 13  4  1  0  0  0  0
 17 18  2  0  0  0  0
 17 22  1  0  0  0  0
 18 19  1  0  0  0  0
 19 24  1  0  0  0  0
 19 20  2  0  0  0  0
 21 20  1  0  0  0  0
 21 25  1  0  0  0  0
 22 21  2  0  0  0  0
 23 17  1  0  0  0  0
 26 27  1  0  0  0  0
 27 28  1  0  0  0  0
 28 29  2  0  0  0  0
 29 31  1  0  0  0  0
 29 30  1  0  0  0  0
 31 32  1  0  0  0  0
 33 31  2  0  0  0  0
 34 27  2  0  0  0  0
 34 33  1  0  0  0  0
M  END
>  <minimizedAffinity>
-5.01155519

>  <minimizedRMSD>
2.12831497

$$$$
