
 OpenBabel03272507193D

 30 32  0  0  1  0  0  0  0  0999 V2000
   37.3040   31.5770   48.8800 C   0  0  0  0  0  0  0  0  0  0  0  0
   37.8960   32.6080   49.5920 C   0  0  0  0  0  0  0  0  0  0  0  0
   38.8760   33.3230   48.8640 C   0  0  0  0  0  0  0  0  0  0  0  0
   39.1800   32.9940   47.5740 N   0  0  0  0  0  0  0  0  0  0  0  0
   38.5600   31.9760   46.9420 C   0  0  0  0  0  0  0  0  0  0  0  0
   37.6090   31.2530   47.5960 N   0  0  0  0  0  0  0  0  0  0  0  0
   37.6390   32.8430   50.5980 H   0  0  0  0  0  0  0  0  0  0  0  0
   39.3680   34.1270   49.3580 H   0  0  0  0  0  0  0  0  0  0  0  0
   39.1520   29.5200   45.6240 F   0  0  0  0  0  0  0  0  0  0  0  0
   39.3260   30.6360   44.9110 C   0  0  0  0  0  0  0  0  0  0  0  0
   39.0290   31.7970   45.5850 C   0  0  0  0  0  0  0  0  0  0  0  0
   39.1720   33.0130   44.9410 C   0  0  0  0  0  0  0  0  0  0  0  0
   38.9770   34.0090   45.3400 H   0  0  0  0  0  0  0  0  0  0  0  0
   39.6150   33.0650   43.6140 C   0  0  0  0  0  0  0  0  0  0  0  0
   39.7550   33.9670   43.0360 H   0  0  0  0  0  0  0  0  0  0  0  0
   39.9140   31.8900   42.9360 C   0  0  0  0  0  3  0  0  0  0  0  0
   39.7620   30.6950   43.6030 C   0  0  0  0  0  3  0  0  0  0  0  0
   36.2460   30.8140   49.6080 C   0  0  1  0  0  0  0  0  0  0  0  0
   35.1220   30.1880   48.9140 C   0  0  2  0  0  0  0  0  0  0  0  0
   36.2740   29.3100   49.2910 C   0  0  0  0  0  0  0  0  0  0  0  0
   36.2610   31.0310   50.7140 H   0  0  0  0  0  0  0  0  0  0  0  0
   34.1730   30.2320   49.5040 H   0  0  0  0  0  0  0  0  0  0  0  0
   36.9510   28.9370   48.5050 H   0  0  0  0  0  0  0  0  0  0  0  0
   36.0500   28.6470   50.1510 H   0  0  0  0  0  0  0  0  0  0  0  0
   34.9390   30.5200   47.5750 O   0  0  0  0  0  0  0  0  0  0  0  0
   34.0160   30.0480   46.6970 C   0  0  0  0  0  0  0  0  0  0  0  0
   34.1630   28.9600   46.1010 O   0  0  0  0  0  0  0  0  0  0  0  0
   32.9670   30.9680   46.6150 N   0  0  0  0  0  0  0  0  0  0  0  0
   33.1570   31.8180   46.0090 H   0  0  0  0  0  0  0  0  0  0  0  0
   32.2880   30.4650   47.2340 H   0  0  0  0  0  0  0  0  0  0  0  0
  1  2  1  0  0  0  0
  1 18  1  0  0  0  0
  2  7  1  0  0  0  0
  3  8  1  0  0  0  0
  3  2  2  0  0  0  0
  4  3  1  0  0  0  0
  5  4  2  0  0  0  0
  5  6  1  0  0  0  0
  6  1  2  0  0  0  0
 10 11  1  0  0  0  0
 10  9  1  0  0  0  0
 11  5  1  0  0  0  0
 12 13  1  0  0  0  0
 12 11  2  0  0  0  0
 14 12  1  0  0  0  0
 15 14  1  0  0  0  0
 16 17  1  0  0  0  0
 16 14  2  0  0  0  0
 17 10  2  0  0  0  0
 18 21  1  1  0  0  0
 19 20  1  0  0  0  0
 19 22  1  1  0  0  0
 19 18  1  0  0  0  0
 20 18  1  0  0  0  0
 20 24  1  0  0  0  0
 23 20  1  0  0  0  0
 25 19  1  0  0  0  0
 26 25  1  0  0  0  0
 27 26  2  0  0  0  0
 28 26  1  0  0  0  0
 28 30  1  0  0  0  0
 29 28  1  0  0  0  0
M  END
>  <minimizedAffinity>
-5.97769785

>  <minimizedRMSD>
2.51923609

$$$$
