
 OpenBabel03272502353D

 36 38  0  0  1  0  0  0  0  0999 V2000
   35.5840   29.9480   47.9580 C   0  0  0  0  0  3  0  0  0  0  0  0
   36.7230   30.4390   47.5920 C   0  0  0  0  0  3  0  0  0  0  0  0
   33.7400   29.6620   44.7330 C   0  0  0  0  0  0  0  0  0  0  0  0
   34.7240   29.9030   45.6790 C   0  0  0  0  0  0  0  0  0  0  0  0
   34.5210   29.6740   47.0180 C   0  0  0  0  0  0  0  0  0  0  0  0
   33.3170   29.2030   47.3730 N   0  0  0  0  0  0  0  0  0  0  0  0
   32.3600   28.9670   46.4770 C   0  0  0  0  0  0  0  0  0  0  0  0
   32.5520   29.1880   45.1660 N   0  0  0  0  0  0  0  0  0  0  0  0
   33.8620   29.8290   43.6730 H   0  0  0  0  0  0  0  0  0  0  0  0
   35.6290   30.2770   45.2250 H   0  0  0  0  0  0  0  0  0  0  0  0
   30.0080   30.3350   45.9550 F   0  0  0  0  0  0  0  0  0  0  0  0
   29.8970   29.1630   46.6220 C   0  0  0  0  0  0  0  0  0  0  0  0
   31.0580   28.4530   46.9000 C   0  0  0  0  0  0  0  0  0  0  0  0
   30.9320   27.2550   47.5820 C   0  0  0  0  0  0  0  0  0  0  0  0
   31.8340   26.6970   47.8000 H   0  0  0  0  0  0  0  0  0  0  0  0
   29.6700   26.8360   47.9480 C   0  0  0  0  0  0  0  0  0  0  0  0
   29.5470   25.8960   48.4860 H   0  0  0  0  0  0  0  0  0  0  0  0
   28.5130   27.5260   47.6820 C   0  0  0  0  0  3  0  0  0  0  0  0
   28.6220   28.7370   46.9930 C   0  0  0  0  0  3  0  0  0  0  0  0
   37.7490   30.6910   48.6580 C   0  0  1  0  0  0  0  0  0  0  0  0
   38.3740   29.7770   48.8070 H   0  0  0  0  0  0  0  0  0  0  0  0
   38.5300   31.8880   48.3150 C   0  0  0  0  0  0  0  0  0  0  0  0
   38.6080   32.8240   49.3820 C   0  0  0  0  0  0  0  0  0  0  0  0
   39.2850   34.0170   49.3000 C   0  0  0  0  0  0  0  0  0  0  0  0
   39.9540   34.3780   48.1180 C   0  0  0  0  0  0  0  0  0  0  0  0
   39.8290   33.4110   47.1290 C   0  0  0  0  0  0  0  0  0  0  0  0
   39.1740   32.2410   47.1840 N   0  0  0  0  0  0  0  0  0  0  0  0
   38.1770   32.7740   50.3950 H   0  0  0  0  0  0  0  0  0  0  0  0
   39.3830   34.7680   50.0680 H   0  0  0  0  0  0  0  0  0  0  0  0
   40.5180   35.2350   47.8680 H   0  0  0  0  0  0  0  0  0  0  0  0
   40.2940   33.5470   46.1500 H   0  0  0  0  0  0  0  0  0  0  0  0
   36.8450   31.0920   50.1930 S   0  0  0  0  0  0  0  0  0  0  0  0
   36.8930   29.7270   51.3400 C   0  0  0  0  0  0  0  0  0  0  0  0
   37.5670   30.0220   52.5140 F   0  0  0  0  0  0  0  0  0  0  0  0
   35.6290   29.2230   51.5870 F   0  0  0  0  0  0  0  0  0  0  0  0
   37.5890   28.6870   50.6940 F   0  0  0  0  0  0  0  0  0  0  0  0
  2  1  2  0  0  0  0
  2 20  1  0  0  0  0
  3  8  2  0  0  0  0
  3  4  1  0  0  0  0
  4  5  2  0  0  0  0
  5  6  1  0  0  0  0
  5  1  1  0  0  0  0
  7 13  1  0  0  0  0
  7  6  2  0  0  0  0
  8  7  1  0  0  0  0
  9  3  1  0  0  0  0
 10  4  1  0  0  0  0
 11 12  1  0  0  0  0
 12 13  2  0  0  0  0
 12 19  1  0  0  0  0
 13 14  1  0  0  0  0
 14 15  1  0  0  0  0
 14 16  2  0  0  0  0
 16 17  1  0  0  0  0
 18 16  1  0  0  0  0
 19 18  2  0  0  0  0
 20 21  1  1  0  0  0
 20 32  1  0  0  0  0
 22 20  1  0  0  0  0
 22 23  1  0  0  0  0
 23 28  1  0  0  0  0
 24 23  2  0  0  0  0
 24 29  1  0  0  0  0
 25 24  1  0  0  0  0
 26 27  1  0  0  0  0
 26 25  2  0  0  0  0
 27 22  2  0  0  0  0
 30 25  1  0  0  0  0
 31 26  1  0  0  0  0
 32 33  1  0  0  0  0
 33 35  1  0  0  0  0
 33 34  1  0  0  0  0
 36 33  1  0  0  0  0
M  END
>  <minimizedAffinity>
-6.69320869

>  <minimizedRMSD>
0.135659233

$$$$
