
 OpenBabel03272502343D

 36 38  0  0  1  0  0  0  0  0999 V2000
   35.5840   29.9530   47.9590 C   0  0  0  0  0  3  0  0  0  0  0  0
   36.7270   30.4360   47.5920 C   0  0  0  0  0  3  0  0  0  0  0  0
   33.7430   29.6630   44.7330 C   0  0  0  0  0  0  0  0  0  0  0  0
   34.7260   29.9050   45.6800 C   0  0  0  0  0  0  0  0  0  0  0  0
   34.5220   29.6770   47.0190 C   0  0  0  0  0  0  0  0  0  0  0  0
   33.3180   29.2060   47.3740 N   0  0  0  0  0  0  0  0  0  0  0  0
   32.3620   28.9680   46.4770 C   0  0  0  0  0  0  0  0  0  0  0  0
   32.5550   29.1880   45.1650 N   0  0  0  0  0  0  0  0  0  0  0  0
   33.8650   29.8290   43.6730 H   0  0  0  0  0  0  0  0  0  0  0  0
   35.6310   30.2800   45.2260 H   0  0  0  0  0  0  0  0  0  0  0  0
   30.0100   30.3360   45.9530 F   0  0  0  0  0  0  0  0  0  0  0  0
   29.8980   29.1640   46.6200 C   0  0  0  0  0  0  0  0  0  0  0  0
   31.0600   28.4540   46.8990 C   0  0  0  0  0  0  0  0  0  0  0  0
   30.9340   27.2570   47.5810 C   0  0  0  0  0  0  0  0  0  0  0  0
   31.8350   26.6990   47.8010 H   0  0  0  0  0  0  0  0  0  0  0  0
   29.6720   26.8370   47.9460 C   0  0  0  0  0  0  0  0  0  0  0  0
   29.5490   25.8970   48.4850 H   0  0  0  0  0  0  0  0  0  0  0  0
   28.5140   27.5260   47.6790 C   0  0  0  0  0  3  0  0  0  0  0  0
   28.6230   28.7370   46.9900 C   0  0  0  0  0  3  0  0  0  0  0  0
   37.7510   30.6900   48.6600 C   0  0  1  0  0  0  0  0  0  0  0  0
   38.3770   29.7770   48.8090 H   0  0  0  0  0  0  0  0  0  0  0  0
   38.5310   31.8870   48.3160 C   0  0  0  0  0  0  0  0  0  0  0  0
   38.6090   32.8230   49.3820 C   0  0  0  0  0  0  0  0  0  0  0  0
   39.2860   34.0170   49.3000 C   0  0  0  0  0  0  0  0  0  0  0  0
   39.9530   34.3790   48.1170 C   0  0  0  0  0  0  0  0  0  0  0  0
   39.8270   33.4120   47.1280 C   0  0  0  0  0  0  0  0  0  0  0  0
   39.1730   32.2410   47.1840 N   0  0  0  0  0  0  0  0  0  0  0  0
   38.1790   32.7730   50.3960 H   0  0  0  0  0  0  0  0  0  0  0  0
   39.3830   34.7680   50.0680 H   0  0  0  0  0  0  0  0  0  0  0  0
   40.5150   35.2370   47.8670 H   0  0  0  0  0  0  0  0  0  0  0  0
   40.2910   33.5480   46.1490 H   0  0  0  0  0  0  0  0  0  0  0  0
   36.8450   31.0910   50.1930 S   0  0  0  0  0  0  0  0  0  0  0  0
   36.8920   29.7280   51.3410 C   0  0  0  0  0  0  0  0  0  0  0  0
   37.5670   30.0220   52.5140 F   0  0  0  0  0  0  0  0  0  0  0  0
   35.6280   29.2240   51.5880 F   0  0  0  0  0  0  0  0  0  0  0  0
   37.5870   28.6860   50.6950 F   0  0  0  0  0  0  0  0  0  0  0  0
  2  1  2  0  0  0  0
  2 20  1  0  0  0  0
  3  8  2  0  0  0  0
  3  4  1  0  0  0  0
  4  5  2  0  0  0  0
  5  6  1  0  0  0  0
  5  1  1  0  0  0  0
  7 13  1  0  0  0  0
  7  6  2  0  0  0  0
  8  7  1  0  0  0  0
  9  3  1  0  0  0  0
 10  4  1  0  0  0  0
 11 12  1  0  0  0  0
 12 13  2  0  0  0  0
 12 19  1  0  0  0  0
 13 14  1  0  0  0  0
 14 15  1  0  0  0  0
 14 16  2  0  0  0  0
 16 17  1  0  0  0  0
 18 16  1  0  0  0  0
 19 18  2  0  0  0  0
 20 21  1  1  0  0  0
 20 32  1  0  0  0  0
 22 20  1  0  0  0  0
 22 23  1  0  0  0  0
 23 28  1  0  0  0  0
 24 23  2  0  0  0  0
 24 29  1  0  0  0  0
 25 24  1  0  0  0  0
 26 27  1  0  0  0  0
 26 25  2  0  0  0  0
 27 22  2  0  0  0  0
 30 25  1  0  0  0  0
 31 26  1  0  0  0  0
 32 33  1  0  0  0  0
 33 35  1  0  0  0  0
 33 34  1  0  0  0  0
 36 33  1  0  0  0  0
M  END
>  <minimizedAffinity>
-6.6903677

>  <minimizedRMSD>
0.655121386

$$$$
