
 OpenBabel03272502343D

 36 38  0  0  1  0  0  0  0  0999 V2000
   35.5700   29.9520   47.9570 C   0  0  0  0  0  3  0  0  0  0  0  0
   36.7070   30.4480   47.5900 C   0  0  0  0  0  3  0  0  0  0  0  0
   33.7270   29.6450   44.7340 C   0  0  0  0  0  0  0  0  0  0  0  0
   34.7150   29.8800   45.6780 C   0  0  0  0  0  0  0  0  0  0  0  0
   34.5020   29.6860   47.0210 C   0  0  0  0  0  0  0  0  0  0  0  0
   33.2850   29.2570   47.3820 N   0  0  0  0  0  0  0  0  0  0  0  0
   32.3240   29.0260   46.4880 C   0  0  0  0  0  0  0  0  0  0  0  0
   32.5250   29.2130   45.1730 N   0  0  0  0  0  0  0  0  0  0  0  0
   33.8560   29.7850   43.6700 H   0  0  0  0  0  0  0  0  0  0  0  0
   35.6300   30.2200   45.2180 H   0  0  0  0  0  0  0  0  0  0  0  0
   32.0140   26.7340   48.0140 F   0  0  0  0  0  0  0  0  0  0  0  0
   30.8850   27.4020   47.6830 C   0  0  0  0  0  0  0  0  0  0  0  0
   31.0080   28.5570   46.9180 C   0  0  0  0  0  0  0  0  0  0  0  0
   29.8470   29.2330   46.5840 C   0  0  0  0  0  0  0  0  0  0  0  0
   29.9360   30.1330   45.9890 H   0  0  0  0  0  0  0  0  0  0  0  0
   28.6420   28.7300   47.0260 C   0  0  0  0  0  0  0  0  0  0  0  0
   27.7150   29.2460   46.7750 H   0  0  0  0  0  0  0  0  0  0  0  0
   28.5040   27.5920   47.7820 C   0  0  0  0  0  3  0  0  0  0  0  0
   29.6650   26.8960   48.1280 C   0  0  0  0  0  3  0  0  0  0  0  0
   37.7370   30.6910   48.6540 C   0  0  1  0  0  0  0  0  0  0  0  0
   38.3590   29.7730   48.7960 H   0  0  0  0  0  0  0  0  0  0  0  0
   38.5230   31.8850   48.3130 C   0  0  0  0  0  0  0  0  0  0  0  0
   38.6040   32.8200   49.3800 C   0  0  0  0  0  0  0  0  0  0  0  0
   39.2850   34.0110   49.3000 C   0  0  0  0  0  0  0  0  0  0  0  0
   39.9570   34.3700   48.1190 C   0  0  0  0  0  0  0  0  0  0  0  0
   39.8290   33.4050   47.1290 C   0  0  0  0  0  0  0  0  0  0  0  0
   39.1700   32.2360   47.1820 N   0  0  0  0  0  0  0  0  0  0  0  0
   38.1710   32.7710   50.3930 H   0  0  0  0  0  0  0  0  0  0  0  0
   39.3840   34.7610   50.0690 H   0  0  0  0  0  0  0  0  0  0  0  0
   40.5230   35.2260   47.8700 H   0  0  0  0  0  0  0  0  0  0  0  0
   40.2960   33.5390   46.1500 H   0  0  0  0  0  0  0  0  0  0  0  0
   36.8410   31.0900   50.1930 S   0  0  0  0  0  0  0  0  0  0  0  0
   36.8920   29.7230   51.3370 C   0  0  0  0  0  0  0  0  0  0  0  0
   37.5720   30.0130   52.5090 F   0  0  0  0  0  0  0  0  0  0  0  0
   35.6280   29.2200   51.5890 F   0  0  0  0  0  0  0  0  0  0  0  0
   37.5830   28.6820   50.6850 F   0  0  0  0  0  0  0  0  0  0  0  0
  2  1  2  0  0  0  0
  2 20  1  0  0  0  0
  3  8  2  0  0  0  0
  3  4  1  0  0  0  0
  4  5  2  0  0  0  0
  5  6  1  0  0  0  0
  5  1  1  0  0  0  0
  7 13  1  0  0  0  0
  7  6  2  0  0  0  0
  8  7  1  0  0  0  0
  9  3  1  0  0  0  0
 10  4  1  0  0  0  0
 12 11  1  0  0  0  0
 12 19  1  0  0  0  0
 13 12  2  0  0  0  0
 14 13  1  0  0  0  0
 14 16  2  0  0  0  0
 15 14  1  0  0  0  0
 16 18  1  0  0  0  0
 17 16  1  0  0  0  0
 18 19  2  0  0  0  0
 20 21  1  1  0  0  0
 20 32  1  0  0  0  0
 22 20  1  0  0  0  0
 22 23  1  0  0  0  0
 23 28  1  0  0  0  0
 24 23  2  0  0  0  0
 24 29  1  0  0  0  0
 25 24  1  0  0  0  0
 26 27  1  0  0  0  0
 26 25  2  0  0  0  0
 27 22  2  0  0  0  0
 30 25  1  0  0  0  0
 31 26  1  0  0  0  0
 32 33  1  0  0  0  0
 33 35  1  0  0  0  0
 33 34  1  0  0  0  0
 36 33  1  0  0  0  0
M  END
>  <minimizedAffinity>
-6.72891998

>  <minimizedRMSD>
0.602216184

$$$$
