
 OpenBabel03272502353D

 36 38  0  0  1  0  0  0  0  0999 V2000
   35.5710   29.9300   47.9800 C   0  0  0  0  0  3  0  0  0  0  0  0
   36.6930   30.4530   47.6050 C   0  0  0  0  0  3  0  0  0  0  0  0
   33.7000   29.6020   44.7740 C   0  0  0  0  0  0  0  0  0  0  0  0
   34.6980   29.8380   45.7070 C   0  0  0  0  0  0  0  0  0  0  0  0
   34.4930   29.6640   47.0550 C   0  0  0  0  0  0  0  0  0  0  0  0
   33.2740   29.2540   47.4310 N   0  0  0  0  0  0  0  0  0  0  0  0
   32.3030   29.0240   46.5480 C   0  0  0  0  0  0  0  0  0  0  0  0
   32.4970   29.1900   45.2280 N   0  0  0  0  0  0  0  0  0  0  0  0
   33.8230   29.7260   43.7080 H   0  0  0  0  0  0  0  0  0  0  0  0
   35.6140   30.1600   45.2360 H   0  0  0  0  0  0  0  0  0  0  0  0
   31.9920   26.8630   48.2530 F   0  0  0  0  0  0  0  0  0  0  0  0
   30.8620   27.4880   47.8500 C   0  0  0  0  0  0  0  0  0  0  0  0
   30.9850   28.5760   46.9930 C   0  0  0  0  0  0  0  0  0  0  0  0
   29.8230   29.2080   46.5860 C   0  0  0  0  0  0  0  0  0  0  0  0
   29.9120   30.0560   45.9180 H   0  0  0  0  0  0  0  0  0  0  0  0
   28.6160   28.7290   47.0500 C   0  0  0  0  0  0  0  0  0  0  0  0
   27.6880   29.2110   46.7410 H   0  0  0  0  0  0  0  0  0  0  0  0
   28.4770   27.6560   47.8960 C   0  0  0  0  0  3  0  0  0  0  0  0
   29.6400   27.0050   48.3170 C   0  0  0  0  0  3  0  0  0  0  0  0
   37.7360   30.6920   48.6570 C   0  0  1  0  0  0  0  0  0  0  0  0
   38.3560   29.7720   48.7930 H   0  0  0  0  0  0  0  0  0  0  0  0
   38.5240   31.8830   48.3060 C   0  0  0  0  0  0  0  0  0  0  0  0
   38.6080   32.8240   49.3670 C   0  0  0  0  0  0  0  0  0  0  0  0
   39.2910   34.0140   49.2780 C   0  0  0  0  0  0  0  0  0  0  0  0
   39.9600   34.3640   48.0930 C   0  0  0  0  0  0  0  0  0  0  0  0
   39.8290   33.3930   47.1100 C   0  0  0  0  0  0  0  0  0  0  0  0
   39.1680   32.2260   47.1730 N   0  0  0  0  0  0  0  0  0  0  0  0
   38.1770   32.7830   50.3810 H   0  0  0  0  0  0  0  0  0  0  0  0
   39.3930   34.7690   50.0420 H   0  0  0  0  0  0  0  0  0  0  0  0
   40.5280   35.2170   47.8390 H   0  0  0  0  0  0  0  0  0  0  0  0
   40.2940   33.5200   46.1300 H   0  0  0  0  0  0  0  0  0  0  0  0
   36.8590   31.0950   50.2060 S   0  0  0  0  0  0  0  0  0  0  0  0
   36.9050   29.7240   51.3440 C   0  0  0  0  0  0  0  0  0  0  0  0
   37.5780   30.0100   52.5210 F   0  0  0  0  0  0  0  0  0  0  0  0
   35.6410   29.2180   51.5860 F   0  0  0  0  0  0  0  0  0  0  0  0
   37.6010   28.6870   50.6930 F   0  0  0  0  0  0  0  0  0  0  0  0
  2  1  2  0  0  0  0
  2 20  1  0  0  0  0
  3  8  2  0  0  0  0
  3  4  1  0  0  0  0
  4  5  2  0  0  0  0
  5  6  1  0  0  0  0
  5  1  1  0  0  0  0
  7 13  1  0  0  0  0
  7  6  2  0  0  0  0
  8  7  1  0  0  0  0
  9  3  1  0  0  0  0
 10  4  1  0  0  0  0
 12 11  1  0  0  0  0
 12 19  1  0  0  0  0
 13 12  2  0  0  0  0
 14 13  1  0  0  0  0
 14 16  2  0  0  0  0
 15 14  1  0  0  0  0
 16 18  1  0  0  0  0
 17 16  1  0  0  0  0
 18 19  2  0  0  0  0
 20 21  1  1  0  0  0
 20 32  1  0  0  0  0
 22 20  1  0  0  0  0
 22 23  1  0  0  0  0
 23 28  1  0  0  0  0
 24 23  2  0  0  0  0
 24 29  1  0  0  0  0
 25 24  1  0  0  0  0
 26 27  1  0  0  0  0
 26 25  2  0  0  0  0
 27 22  2  0  0  0  0
 30 25  1  0  0  0  0
 31 26  1  0  0  0  0
 32 33  1  0  0  0  0
 33 35  1  0  0  0  0
 33 34  1  0  0  0  0
 36 33  1  0  0  0  0
M  END
>  <minimizedAffinity>
-6.77496529

>  <minimizedRMSD>
0.82248354

$$$$
