
 OpenBabel03272502353D

 36 38  0  0  1  0  0  0  0  0999 V2000
   35.6550   29.8920   48.0520 C   0  0  0  0  0  3  0  0  0  0  0  0
   36.7410   30.4700   47.6500 C   0  0  0  0  0  3  0  0  0  0  0  0
   33.6420   29.6660   44.9250 C   0  0  0  0  0  0  0  0  0  0  0  0
   34.6660   29.9130   45.8260 C   0  0  0  0  0  0  0  0  0  0  0  0
   34.5530   29.6080   47.1610 C   0  0  0  0  0  0  0  0  0  0  0  0
   33.3980   29.0580   47.5580 N   0  0  0  0  0  0  0  0  0  0  0  0
   32.4030   28.8150   46.7060 C   0  0  0  0  0  0  0  0  0  0  0  0
   32.5060   29.1090   45.3990 N   0  0  0  0  0  0  0  0  0  0  0  0
   33.6920   29.8910   43.8700 H   0  0  0  0  0  0  0  0  0  0  0  0
   35.5220   30.3560   45.3410 H   0  0  0  0  0  0  0  0  0  0  0  0
   32.1450   27.7860   49.2650 F   0  0  0  0  0  0  0  0  0  0  0  0
   31.0580   27.7060   48.4650 C   0  0  0  0  0  0  0  0  0  0  0  0
   31.1560   28.2130   47.1740 C   0  0  0  0  0  0  0  0  0  0  0  0
   30.0370   28.1250   46.3630 C   0  0  0  0  0  0  0  0  0  0  0  0
   30.1070   28.5190   45.3570 H   0  0  0  0  0  0  0  0  0  0  0  0
   28.8970   27.5440   46.8750 C   0  0  0  0  0  0  0  0  0  0  0  0
   28.0040   27.4640   46.2540 H   0  0  0  0  0  0  0  0  0  0  0  0
   28.7840   27.0380   48.1470 C   0  0  0  0  0  3  0  0  0  0  0  0
   29.9030   27.1180   48.9800 C   0  0  0  0  0  3  0  0  0  0  0  0
   37.8140   30.7220   48.6690 C   0  0  1  0  0  0  0  0  0  0  0  0
   38.4360   29.8040   48.7990 H   0  0  0  0  0  0  0  0  0  0  0  0
   38.5910   31.9070   48.2800 C   0  0  0  0  0  0  0  0  0  0  0  0
   38.6730   32.8800   49.3120 C   0  0  0  0  0  0  0  0  0  0  0  0
   39.3470   34.0720   49.1850 C   0  0  0  0  0  0  0  0  0  0  0  0
   40.0090   34.3920   47.9870 C   0  0  0  0  0  0  0  0  0  0  0  0
   39.8800   33.3910   47.0340 C   0  0  0  0  0  0  0  0  0  0  0  0
   39.2280   32.2220   47.1330 N   0  0  0  0  0  0  0  0  0  0  0  0
   38.2470   32.8660   50.3290 H   0  0  0  0  0  0  0  0  0  0  0  0
   39.4470   34.8490   49.9260 H   0  0  0  0  0  0  0  0  0  0  0  0
   40.5690   35.2410   47.7050 H   0  0  0  0  0  0  0  0  0  0  0  0
   40.3400   33.4930   46.0480 H   0  0  0  0  0  0  0  0  0  0  0  0
   36.9810   31.1470   50.2360 S   0  0  0  0  0  0  0  0  0  0  0  0
   36.9590   29.7540   51.3490 C   0  0  0  0  0  0  0  0  0  0  0  0
   37.6110   29.9980   52.5460 F   0  0  0  0  0  0  0  0  0  0  0  0
   35.6750   29.2820   51.5510 F   0  0  0  0  0  0  0  0  0  0  0  0
   37.6400   28.7090   50.6930 F   0  0  0  0  0  0  0  0  0  0  0  0
  2  1  2  0  0  0  0
  2 20  1  0  0  0  0
  3  8  2  0  0  0  0
  3  4  1  0  0  0  0
  4  5  2  0  0  0  0
  5  6  1  0  0  0  0
  5  1  1  0  0  0  0
  7 13  1  0  0  0  0
  7  6  2  0  0  0  0
  8  7  1  0  0  0  0
  9  3  1  0  0  0  0
 10  4  1  0  0  0  0
 12 19  1  0  0  0  0
 12 11  1  0  0  0  0
 13 12  2  0  0  0  0
 14 16  2  0  0  0  0
 14 13  1  0  0  0  0
 15 14  1  0  0  0  0
 16 18  1  0  0  0  0
 17 16  1  0  0  0  0
 18 19  2  0  0  0  0
 20 21  1  1  0  0  0
 20 32  1  0  0  0  0
 22 20  1  0  0  0  0
 22 23  1  0  0  0  0
 23 28  1  0  0  0  0
 24 23  2  0  0  0  0
 24 29  1  0  0  0  0
 25 24  1  0  0  0  0
 26 27  1  0  0  0  0
 26 25  2  0  0  0  0
 27 22  2  0  0  0  0
 30 25  1  0  0  0  0
 31 26  1  0  0  0  0
 32 33  1  0  0  0  0
 33 35  1  0  0  0  0
 33 34  1  0  0  0  0
 36 33  1  0  0  0  0
M  END
>  <minimizedAffinity>
-6.89421988

>  <minimizedRMSD>
0.51806277

$$$$
