
 OpenBabel03272502343D

 36 38  0  0  1  0  0  0  0  0999 V2000
   35.5840   29.9580   47.9610 C   0  0  0  0  0  3  0  0  0  0  0  0
   36.7310   30.4310   47.5930 C   0  0  0  0  0  3  0  0  0  0  0  0
   33.7460   29.6630   44.7340 C   0  0  0  0  0  0  0  0  0  0  0  0
   34.7280   29.9070   45.6810 C   0  0  0  0  0  0  0  0  0  0  0  0
   34.5230   29.6810   47.0210 C   0  0  0  0  0  0  0  0  0  0  0  0
   33.3190   29.2090   47.3740 N   0  0  0  0  0  0  0  0  0  0  0  0
   32.3640   28.9690   46.4770 C   0  0  0  0  0  0  0  0  0  0  0  0
   32.5570   29.1880   45.1660 N   0  0  0  0  0  0  0  0  0  0  0  0
   33.8690   29.8280   43.6740 H   0  0  0  0  0  0  0  0  0  0  0  0
   35.6330   30.2820   45.2280 H   0  0  0  0  0  0  0  0  0  0  0  0
   30.0120   30.3360   45.9530 F   0  0  0  0  0  0  0  0  0  0  0  0
   29.8990   29.1650   46.6200 C   0  0  0  0  0  0  0  0  0  0  0  0
   31.0620   28.4540   46.8980 C   0  0  0  0  0  0  0  0  0  0  0  0
   30.9360   27.2580   47.5810 C   0  0  0  0  0  0  0  0  0  0  0  0
   31.8380   26.6990   47.8010 H   0  0  0  0  0  0  0  0  0  0  0  0
   29.6730   26.8370   47.9450 C   0  0  0  0  0  0  0  0  0  0  0  0
   29.5520   25.8960   48.4830 H   0  0  0  0  0  0  0  0  0  0  0  0
   28.5160   27.5260   47.6780 C   0  0  0  0  0  3  0  0  0  0  0  0
   28.6250   28.7370   46.9890 C   0  0  0  0  0  3  0  0  0  0  0  0
   37.7530   30.6880   48.6610 C   0  0  1  0  0  0  0  0  0  0  0  0
   38.3810   29.7770   48.8130 H   0  0  0  0  0  0  0  0  0  0  0  0
   38.5320   31.8860   48.3170 C   0  0  0  0  0  0  0  0  0  0  0  0
   38.6100   32.8230   49.3830 C   0  0  0  0  0  0  0  0  0  0  0  0
   39.2850   34.0170   49.2990 C   0  0  0  0  0  0  0  0  0  0  0  0
   39.9510   34.3790   48.1160 C   0  0  0  0  0  0  0  0  0  0  0  0
   39.8260   33.4120   47.1280 C   0  0  0  0  0  0  0  0  0  0  0  0
   39.1730   32.2400   47.1840 N   0  0  0  0  0  0  0  0  0  0  0  0
   38.1810   32.7720   50.3970 H   0  0  0  0  0  0  0  0  0  0  0  0
   39.3830   34.7690   50.0680 H   0  0  0  0  0  0  0  0  0  0  0  0
   40.5120   35.2370   47.8650 H   0  0  0  0  0  0  0  0  0  0  0  0
   40.2890   33.5480   46.1470 H   0  0  0  0  0  0  0  0  0  0  0  0
   36.8450   31.0900   50.1930 S   0  0  0  0  0  0  0  0  0  0  0  0
   36.8920   29.7280   51.3420 C   0  0  0  0  0  0  0  0  0  0  0  0
   37.5660   30.0230   52.5160 F   0  0  0  0  0  0  0  0  0  0  0  0
   35.6280   29.2250   51.5900 F   0  0  0  0  0  0  0  0  0  0  0  0
   37.5870   28.6850   50.6980 F   0  0  0  0  0  0  0  0  0  0  0  0
  2  1  2  0  0  0  0
  2 20  1  0  0  0  0
  3  8  2  0  0  0  0
  3  4  1  0  0  0  0
  4  5  2  0  0  0  0
  5  6  1  0  0  0  0
  5  1  1  0  0  0  0
  7 13  1  0  0  0  0
  7  6  2  0  0  0  0
  8  7  1  0  0  0  0
  9  3  1  0  0  0  0
 10  4  1  0  0  0  0
 11 12  1  0  0  0  0
 12 13  2  0  0  0  0
 12 19  1  0  0  0  0
 13 14  1  0  0  0  0
 14 15  1  0  0  0  0
 14 16  2  0  0  0  0
 16 17  1  0  0  0  0
 18 16  1  0  0  0  0
 19 18  2  0  0  0  0
 20 21  1  1  0  0  0
 20 32  1  0  0  0  0
 22 20  1  0  0  0  0
 22 23  1  0  0  0  0
 23 28  1  0  0  0  0
 24 23  2  0  0  0  0
 24 29  1  0  0  0  0
 25 24  1  0  0  0  0
 26 27  1  0  0  0  0
 26 25  2  0  0  0  0
 27 22  2  0  0  0  0
 30 25  1  0  0  0  0
 31 26  1  0  0  0  0
 32 33  1  0  0  0  0
 33 35  1  0  0  0  0
 33 34  1  0  0  0  0
 36 33  1  0  0  0  0
M  END
>  <minimizedAffinity>
-6.68905783

>  <minimizedRMSD>
0.511156023

$$$$
