
 OpenBabel03272506473D

 42 45  0  0  1  0  0  0  0  0999 V2000
   31.9090   28.2790   47.4920 C   0  0  2  0  0  0  0  0  0  0  0  0
   33.1750   28.0550   48.2640 C   0  0  1  0  0  0  0  0  0  0  0  0
   33.5260   26.7470   48.1270 O   0  0  0  0  0  0  0  0  0  0  0  0
   32.7680   26.1730   47.1100 C   0  0  0  0  0  0  0  0  0  0  0  0
   32.1730   27.3010   46.3010 C   0  0  1  0  0  0  0  0  0  0  0  0
   30.9990   27.9540   47.9850 H   0  0  0  0  0  0  0  0  0  0  0  0
   33.0770   28.3950   49.3140 H   0  0  0  0  0  0  0  0  0  0  0  0
   32.0590   25.5110   47.5930 H   0  0  0  0  0  0  0  0  0  0  0  0
   33.4860   25.5830   46.4580 H   0  0  0  0  0  0  0  0  0  0  0  0
   32.8950   27.8000   45.6600 H   0  0  0  0  0  0  0  0  0  0  0  0
   31.8590   29.5990   46.9960 O   0  0  0  0  0  0  0  0  0  0  0  0
   32.4390   29.5920   46.1870 H   0  0  0  0  0  0  0  0  0  0  0  0
   34.4870   29.0840   47.4890 S   0  0  0  0  0  0  0  0  0  0  0  0
   36.8460   29.2360   50.6680 C   0  0  0  0  0  0  0  0  0  0  0  0
   37.2410   30.5710   50.7590 C   0  0  0  0  0  0  0  0  0  0  0  0
   36.7590   31.4660   49.7950 C   0  0  0  0  0  0  0  0  0  0  0  0
   35.9320   30.9880   48.8260 N   0  0  0  0  0  0  0  0  0  0  0  0
   35.5750   29.6840   48.7770 C   0  0  0  0  0  0  0  0  0  0  0  0
   36.0220   28.7940   49.6900 N   0  0  0  0  0  0  0  0  0  0  0  0
   37.2330   28.5700   51.4240 H   0  0  0  0  0  0  0  0  0  0  0  0
   37.9000   30.9420   51.5350 H   0  0  0  0  0  0  0  0  0  0  0  0
   37.0180   32.5100   49.7980 H   0  0  0  0  0  0  0  0  0  0  0  0
   30.9920   26.8760   45.7460 O   0  0  0  0  0  0  0  0  0  0  0  0
   29.8760   29.1690   44.2710 Cl  0  0  0  0  0  0  0  0  0  0  0  0
   29.1470   28.2410   45.5600 C   0  0  0  0  0  0  0  0  0  0  0  0
   29.7670   27.1750   46.1690 C   0  0  0  0  0  0  0  0  0  0  0  0
   29.0700   26.4950   47.1710 C   0  0  0  0  0  0  0  0  0  0  0  0
   27.8010   26.8870   47.5340 C   0  0  0  0  0  0  0  0  0  0  0  0
   27.1670   27.9590   46.9280 C   0  0  0  0  0  0  0  0  0  0  0  0
   27.8530   28.6320   45.9360 C   0  0  0  0  0  0  0  0  0  0  0  0
   29.4640   25.6480   47.7040 H   0  0  0  0  0  0  0  0  0  0  0  0
   27.2140   26.4030   48.2990 H   0  0  0  0  0  0  0  0  0  0  0  0
   26.1810   28.2710   47.2020 H   0  0  0  0  0  0  0  0  0  0  0  0
   26.5700   28.5750   43.4180 F   0  0  0  0  0  0  0  0  0  0  0  0
   26.5650   29.7640   44.0650 C   0  0  0  0  0  0  0  0  0  0  0  0
   27.1990   29.7620   45.2910 C   0  0  0  0  0  0  0  0  0  0  0  0
   27.2450   30.9340   46.0270 C   0  0  0  0  0  0  0  0  0  0  0  0
   27.7190   31.0230   46.9950 H   0  0  0  0  0  0  0  0  0  0  0  0
   26.6710   32.1170   45.5690 C   0  0  0  0  0  0  0  0  0  0  0  0
   26.6970   33.0490   46.1330 H   0  0  0  0  0  0  0  0  0  0  0  0
   26.0460   32.0780   44.3370 C   0  0  0  0  0  3  0  0  0  0  0  0
   25.9840   30.9170   43.5750 C   0  0  0  0  0  3  0  0  0  0  0  0
  1  6  1  1  0  0  0
  1  2  1  0  0  0  0
  2  7  1  1  0  0  0
  3  2  1  0  0  0  0
  4  8  1  0  0  0  0
  4  3  1  0  0  0  0
  5 10  1  6  0  0  0
  5  4  1  0  0  0  0
  5  1  1  0  0  0  0
  9  4  1  0  0  0  0
 11  1  1  0  0  0  0
 12 11  1  0  0  0  0
 13  2  1  0  0  0  0
 13 18  1  0  0  0  0
 14 15  1  0  0  0  0
 14 20  1  0  0  0  0
 15 21  1  0  0  0  0
 16 22  1  0  0  0  0
 16 15  2  0  0  0  0
 17 16  1  0  0  0  0
 18 17  2  0  0  0  0
 18 19  1  0  0  0  0
 19 14  2  0  0  0  0
 23 26  1  0  0  0  0
 23  5  1  0  0  0  0
 24 25  1  0  0  0  0
 25 30  2  0  0  0  0
 25 26  1  0  0  0  0
 26 27  2  0  0  0  0
 27 28  1  0  0  0  0
 27 31  1  0  0  0  0
 28 32  1  0  0  0  0
 29 33  1  0  0  0  0
 29 28  2  0  0  0  0
 30 29  1  0  0  0  0
 34 35  1  0  0  0  0
 35 36  1  0  0  0  0
 36 30  1  0  0  0  0
 36 37  2  0  0  0  0
 37 38  1  0  0  0  0
 39 37  1  0  0  0  0
 39 40  1  0  0  0  0
 41 39  2  0  0  0  0
 42 35  2  0  0  0  0
 42 41  1  0  0  0  0
M  END
>  <minimizedAffinity>
-5.53446102

>  <minimizedRMSD>
0.494953126

$$$$
