
 OpenBabel03272506473D

 42 45  0  0  1  0  0  0  0  0999 V2000
   31.4170   28.4050   47.3520 C   0  0  2  0  0  0  0  0  0  0  0  0
   32.5470   27.9260   48.2150 C   0  0  1  0  0  0  0  0  0  0  0  0
   32.5180   26.5650   48.2270 O   0  0  0  0  0  0  0  0  0  0  0  0
   31.6580   26.1140   47.2300 C   0  0  0  0  0  0  0  0  0  0  0  0
   31.4280   27.2670   46.2810 C   0  0  1  0  0  0  0  0  0  0  0  0
   30.4390   28.4020   47.8220 H   0  0  0  0  0  0  0  0  0  0  0  0
   32.5190   28.3930   49.2190 H   0  0  0  0  0  0  0  0  0  0  0  0
   30.7780   25.7330   47.7330 H   0  0  0  0  0  0  0  0  0  0  0  0
   32.1990   25.2810   46.6820 H   0  0  0  0  0  0  0  0  0  0  0  0
   32.2790   27.4730   45.6370 H   0  0  0  0  0  0  0  0  0  0  0  0
   31.7550   29.6240   46.7270 O   0  0  0  0  0  0  0  0  0  0  0  0
   32.3320   29.3670   45.9580 H   0  0  0  0  0  0  0  0  0  0  0  0
   34.1160   28.4580   47.4200 S   0  0  0  0  0  0  0  0  0  0  0  0
   35.9360   29.4070   50.8090 C   0  0  0  0  0  0  0  0  0  0  0  0
   36.6290   30.5840   50.5270 C   0  0  0  0  0  0  0  0  0  0  0  0
   36.5320   31.1110   49.2330 C   0  0  0  0  0  0  0  0  0  0  0  0
   35.7680   30.4480   48.3210 N   0  0  0  0  0  0  0  0  0  0  0  0
   35.1130   29.3090   48.6390 C   0  0  0  0  0  0  0  0  0  0  0  0
   35.1850   28.7740   49.8780 N   0  0  0  0  0  0  0  0  0  0  0  0
   36.0300   29.0240   51.8140 H   0  0  0  0  0  0  0  0  0  0  0  0
   37.2350   31.1040   51.2600 H   0  0  0  0  0  0  0  0  0  0  0  0
   37.0360   32.0140   48.9390 H   0  0  0  0  0  0  0  0  0  0  0  0
   30.1910   27.1270   45.7030 O   0  0  0  0  0  0  0  0  0  0  0  0
   29.3340   29.6580   44.4620 Cl  0  0  0  0  0  0  0  0  0  0  0  0
   28.5360   28.7290   45.7090 C   0  0  0  0  0  0  0  0  0  0  0  0
   29.0330   27.5460   46.2040 C   0  0  0  0  0  0  0  0  0  0  0  0
   28.2890   26.8820   47.1830 C   0  0  0  0  0  0  0  0  0  0  0  0
   27.0970   27.4030   47.6340 C   0  0  0  0  0  0  0  0  0  0  0  0
   26.5880   28.5930   47.1420 C   0  0  0  0  0  0  0  0  0  0  0  0
   27.3210   29.2520   46.1740 C   0  0  0  0  0  0  0  0  0  0  0  0
   28.5870   25.9500   47.6310 H   0  0  0  0  0  0  0  0  0  0  0  0
   26.4800   26.9360   48.3860 H   0  0  0  0  0  0  0  0  0  0  0  0
   25.6620   29.0050   47.4850 H   0  0  0  0  0  0  0  0  0  0  0  0
   26.9100   31.6200   47.6620 F   0  0  0  0  0  0  0  0  0  0  0  0
   26.5860   31.6750   46.3490 C   0  0  0  0  0  0  0  0  0  0  0  0
   26.7980   30.5050   45.6480 C   0  0  0  0  0  0  0  0  0  0  0  0
   26.4960   30.4630   44.2980 C   0  0  0  0  0  0  0  0  0  0  0  0
   26.6300   29.5930   43.6720 H   0  0  0  0  0  0  0  0  0  0  0  0
   25.9850   31.5700   43.6220 C   0  0  0  0  0  0  0  0  0  0  0  0
   25.7420   31.5590   42.5590 H   0  0  0  0  0  0  0  0  0  0  0  0
   25.7880   32.7230   44.3580 C   0  0  0  0  0  0  0  0  0  0  0  0
   26.0810   32.7940   45.7150 C   0  0  0  0  0  0  0  0  0  0  0  0
  1  6  1  1  0  0  0
  1  2  1  0  0  0  0
  2  3  1  0  0  0  0
  2  7  1  1  0  0  0
  4  8  1  0  0  0  0
  4  3  1  0  0  0  0
  5 10  1  6  0  0  0
  5  4  1  0  0  0  0
  5  1  1  0  0  0  0
  9  4  1  0  0  0  0
 11  1  1  0  0  0  0
 12 11  1  0  0  0  0
 13  2  1  0  0  0  0
 13 18  1  0  0  0  0
 14 20  1  0  0  0  0
 15 14  1  0  0  0  0
 15 21  1  0  0  0  0
 16 15  2  0  0  0  0
 17 18  2  0  0  0  0
 17 16  1  0  0  0  0
 18 19  1  0  0  0  0
 19 14  2  0  0  0  0
 22 16  1  0  0  0  0
 23 26  1  0  0  0  0
 23  5  1  0  0  0  0
 24 25  1  0  0  0  0
 25 30  2  0  0  0  0
 25 26  1  0  0  0  0
 26 27  2  0  0  0  0
 27 31  1  0  0  0  0
 27 28  1  0  0  0  0
 28 32  1  0  0  0  0
 29 33  1  0  0  0  0
 29 28  2  0  0  0  0
 30 29  1  0  0  0  0
 35 34  1  0  0  0  0
 36 30  1  0  0  0  0
 36 35  2  0  0  0  0
 37 36  1  0  0  0  0
 38 37  1  0  0  0  0
 39 37  2  0  0  0  0
 39 41  1  0  0  0  0
 40 39  1  0  0  0  0
 41 42  2  0  0  0  0
 42 35  1  0  0  0  0
M  END
>  <minimizedAffinity>
-5.73402643

>  <minimizedRMSD>
1.2826041

$$$$
