
 OpenBabel03272506473D

 42 45  0  0  1  0  0  0  0  0999 V2000
   32.1950   28.4060   47.5610 C   0  0  2  0  0  0  0  0  0  0  0  0
   33.4640   28.3410   48.3580 C   0  0  1  0  0  0  0  0  0  0  0  0
   33.9250   27.0620   48.3110 O   0  0  0  0  0  0  0  0  0  0  0  0
   33.2340   26.3600   47.3270 C   0  0  0  0  0  0  0  0  0  0  0  0
   32.5580   27.3800   46.4400 C   0  0  1  0  0  0  0  0  0  0  0  0
   31.3080   28.0380   48.0660 H   0  0  0  0  0  0  0  0  0  0  0  0
   33.3220   28.7380   49.3830 H   0  0  0  0  0  0  0  0  0  0  0  0
   32.5760   25.6740   47.8450 H   0  0  0  0  0  0  0  0  0  0  0  0
   34.0080   25.7930   46.7220 H   0  0  0  0  0  0  0  0  0  0  0  0
   33.2450   27.8960   45.7740 H   0  0  0  0  0  0  0  0  0  0  0  0
   32.0410   29.6820   46.9790 O   0  0  0  0  0  0  0  0  0  0  0  0
   32.6320   29.6720   46.1780 H   0  0  0  0  0  0  0  0  0  0  0  0
   34.6960   29.4250   47.5300 S   0  0  0  0  0  0  0  0  0  0  0  0
   37.2480   29.3620   50.5600 C   0  0  0  0  0  0  0  0  0  0  0  0
   37.7950   30.6450   50.5950 C   0  0  0  0  0  0  0  0  0  0  0  0
   37.3580   31.5730   49.6410 C   0  0  0  0  0  0  0  0  0  0  0  0
   36.4250   31.1750   48.7330 N   0  0  0  0  0  0  0  0  0  0  0  0
   35.9220   29.9200   48.7370 C   0  0  0  0  0  0  0  0  0  0  0  0
   36.3210   29.0010   49.6430 N   0  0  0  0  0  0  0  0  0  0  0  0
   37.6040   28.6690   51.3070 H   0  0  0  0  0  0  0  0  0  0  0  0
   38.5380   30.9520   51.3220 H   0  0  0  0  0  0  0  0  0  0  0  0
   37.7330   32.5800   49.6040 H   0  0  0  0  0  0  0  0  0  0  0  0
   31.4260   26.8200   45.9030 O   0  0  0  0  0  0  0  0  0  0  0  0
   29.9490   28.4700   43.9590 Cl  0  0  0  0  0  0  0  0  0  0  0  0
   29.3880   27.8060   45.4750 C   0  0  0  0  0  0  0  0  0  0  0  0
   30.1740   27.0340   46.2990 C   0  0  0  0  0  0  0  0  0  0  0  0
   29.6040   26.5380   47.4750 C   0  0  0  0  0  0  0  0  0  0  0  0
   28.2930   26.8190   47.7920 C   0  0  0  0  0  0  0  0  0  0  0  0
   27.4930   27.5940   46.9700 C   0  0  0  0  0  0  0  0  0  0  0  0
   28.0550   28.0850   45.8070 C   0  0  0  0  0  0  0  0  0  0  0  0
   30.1310   25.9230   48.1820 H   0  0  0  0  0  0  0  0  0  0  0  0
   27.7990   26.4650   48.6830 H   0  0  0  0  0  0  0  0  0  0  0  0
   26.4740   27.8170   47.2080 H   0  0  0  0  0  0  0  0  0  0  0  0
   28.0450   30.9120   45.7130 F   0  0  0  0  0  0  0  0  0  0  0  0
   27.1980   30.2810   44.8650 C   0  0  0  0  0  0  0  0  0  0  0  0
   27.2240   28.9040   44.9330 C   0  0  0  0  0  0  0  0  0  0  0  0
   26.3930   28.1700   44.1030 C   0  0  0  0  0  0  0  0  0  0  0  0
   26.3470   27.0910   44.0890 H   0  0  0  0  0  0  0  0  0  0  0  0
   25.5270   28.7820   43.2000 C   0  0  0  0  0  0  0  0  0  0  0  0
   24.8660   28.2250   42.5380 H   0  0  0  0  0  0  0  0  0  0  0  0
   25.5300   30.1640   43.1610 C   0  0  0  0  0  3  0  0  0  0  0  0
   26.3540   30.9250   43.9820 C   0  0  0  0  0  3  0  0  0  0  0  0
  1  6  1  1  0  0  0
  1  2  1  0  0  0  0
  2  7  1  1  0  0  0
  3  2  1  0  0  0  0
  4  8  1  0  0  0  0
  4  3  1  0  0  0  0
  5 10  1  6  0  0  0
  5  4  1  0  0  0  0
  5  1  1  0  0  0  0
  9  4  1  0  0  0  0
 11  1  1  0  0  0  0
 12 11  1  0  0  0  0
 13  2  1  0  0  0  0
 13 18  1  0  0  0  0
 14 15  1  0  0  0  0
 14 20  1  0  0  0  0
 15 21  1  0  0  0  0
 16 15  2  0  0  0  0
 17 18  2  0  0  0  0
 17 16  1  0  0  0  0
 18 19  1  0  0  0  0
 19 14  2  0  0  0  0
 22 16  1  0  0  0  0
 23 26  1  0  0  0  0
 23  5  1  0  0  0  0
 24 25  1  0  0  0  0
 25 30  2  0  0  0  0
 25 26  1  0  0  0  0
 26 27  2  0  0  0  0
 27 28  1  0  0  0  0
 27 31  1  0  0  0  0
 28 32  1  0  0  0  0
 29 33  1  0  0  0  0
 29 28  2  0  0  0  0
 30 29  1  0  0  0  0
 35 36  1  0  0  0  0
 35 34  1  0  0  0  0
 36 30  1  0  0  0  0
 37 36  2  0  0  0  0
 38 37  1  0  0  0  0
 39 37  1  0  0  0  0
 40 39  1  0  0  0  0
 41 39  2  0  0  0  0
 41 42  1  0  0  0  0
 42 35  2  0  0  0  0
M  END
>  <minimizedAffinity>
-5.40447569

>  <minimizedRMSD>
0.667883575

$$$$
