
 OpenBabel03272500573D

 35 37  0  0  0  0  0  0  0  0999 V2000
   38.2950   32.0260   47.4200 C   0  0  0  0  0  0  0  0  0  0  0  0
   38.8990   32.9370   48.2420 C   0  0  0  0  0  0  0  0  0  0  0  0
   38.5230   33.1030   49.5790 C   0  0  0  0  0  0  0  0  0  0  0  0
   37.4540   32.2590   50.0720 C   0  0  0  0  0  0  0  0  0  0  0  0
   36.8960   31.3760   49.2100 C   0  0  0  0  0  0  0  0  0  0  0  0
   37.2640   31.2260   47.9250 C   0  0  0  0  0  0  0  0  0  0  0  0
   39.7130   33.5870   47.8890 H   0  0  0  0  0  0  0  0  0  0  0  0
   39.0420   33.8440   50.1750 H   0  0  0  0  0  0  0  0  0  0  0  0
   37.2760   32.4930   51.1010 H   0  0  0  0  0  0  0  0  0  0  0  0
   36.1580   30.8500   49.7950 H   0  0  0  0  0  0  0  0  0  0  0  0
   40.0250   31.2530   45.8690 C   0  0  0  0  0  0  0  0  0  0  0  0
   38.8080   31.9600   46.0700 C   0  0  0  0  0  0  0  0  0  0  0  0
   38.2620   32.4970   44.9300 C   0  0  0  0  0  0  0  0  0  0  0  0
   38.8680   32.3410   43.7390 N   0  0  0  0  0  0  0  0  0  0  0  0
   39.9930   31.6840   43.5720 C   0  0  0  0  0  0  0  0  0  0  0  0
   40.5620   31.1460   44.6380 N   0  0  0  0  0  0  0  0  0  0  0  0
   40.5010   30.8100   46.7180 H   0  0  0  0  0  0  0  0  0  0  0  0
   37.3350   33.0380   45.0750 H   0  0  0  0  0  0  0  0  0  0  0  0
   40.5190   31.5300   42.6380 H   0  0  0  0  0  0  0  0  0  0  0  0
   35.2550   30.0930   47.4680 C   0  0  0  0  0  0  0  0  0  0  0  0
   34.7910   30.6870   48.5220 O   0  0  0  0  0  0  0  0  0  0  0  0
   36.6360   30.3270   47.0980 N   0  0  0  0  0  0  0  0  0  0  0  0
   37.0830   29.8640   46.3060 H   0  0  0  0  0  0  0  0  0  0  0  0
   34.4280   29.2690   46.7450 O   0  0  0  0  0  0  0  0  0  0  0  0
   33.0610   29.4700   46.5890 C   0  0  0  0  0  0  0  0  0  0  0  0
   32.5800   30.6010   46.1220 O   0  0  0  0  0  0  0  0  0  0  0  0
   32.8570   28.2340   49.1130 F   0  0  0  0  0  0  0  0  0  0  0  0
   31.9750   27.8390   48.1540 C   0  0  0  0  0  0  0  0  0  0  0  0
   32.0560   28.4300   46.9120 C   0  0  0  0  0  0  0  0  0  0  0  0
   31.1510   28.0040   45.9820 C   0  0  0  0  0  0  0  0  0  0  0  0
   31.1810   28.4400   44.9970 H   0  0  0  0  0  0  0  0  0  0  0  0
   30.2230   27.0340   46.3040 C   0  0  0  0  0  0  0  0  0  0  0  0
   29.5400   26.7570   45.4910 H   0  0  0  0  0  0  0  0  0  0  0  0
   30.1690   26.4620   47.5580 C   0  0  0  0  0  3  0  0  0  0  0  0
   31.0650   26.8790   48.4920 C   0  0  0  0  0  3  0  0  0  0  0  0
  1  6  2  0  0  0  0
  1  2  1  0  0  0  0
  2  3  2  0  0  0  0
  3  4  1  0  0  0  0
  3  8  1  0  0  0  0
  4  9  1  0  0  0  0
  5 10  1  0  0  0  0
  5  4  2  0  0  0  0
  6  5  1  0  0  0  0
  7  2  1  0  0  0  0
 11 12  1  0  0  0  0
 11 17  1  0  0  0  0
 12  1  1  0  0  0  0
 13 18  1  0  0  0  0
 13 12  2  0  0  0  0
 14 13  1  0  0  0  0
 15 14  2  0  0  0  0
 15 16  1  0  0  0  0
 16 11  2  0  0  0  0
 19 15  1  0  0  0  0
 20 21  2  0  0  0  0
 22 20  1  0  0  0  0
 22  6  1  0  0  0  0
 23 22  1  0  0  0  0
 24 20  1  0  0  0  0
 25 24  1  0  0  0  0
 25 29  1  0  0  0  0
 26 25  2  0  0  0  0
 28 35  1  0  0  0  0
 28 27  1  0  0  0  0
 29 28  2  0  0  0  0
 30 32  2  0  0  0  0
 30 29  1  0  0  0  0
 31 30  1  0  0  0  0
 32 34  1  0  0  0  0
 33 32  1  0  0  0  0
 34 35  2  0  0  0  0
M  END
>  <minimizedAffinity>
-6.15833473

>  <minimizedRMSD>
1.35736609

$$$$
