
 OpenBabel03272500573D

 35 37  0  0  0  0  0  0  0  0999 V2000
   38.1030   31.9160   47.4380 C   0  0  0  0  0  0  0  0  0  0  0  0
   38.5470   32.8550   48.3280 C   0  0  0  0  0  0  0  0  0  0  0  0
   38.0430   32.9490   49.6290 C   0  0  0  0  0  0  0  0  0  0  0  0
   37.0160   31.9990   50.0080 C   0  0  0  0  0  0  0  0  0  0  0  0
   36.6190   31.0930   49.0830 C   0  0  0  0  0  0  0  0  0  0  0  0
   37.1100   31.0130   47.8330 C   0  0  0  0  0  0  0  0  0  0  0  0
   39.3250   33.5840   48.0620 H   0  0  0  0  0  0  0  0  0  0  0  0
   38.4370   33.7160   50.2840 H   0  0  0  0  0  0  0  0  0  0  0  0
   36.7280   32.1880   51.0220 H   0  0  0  0  0  0  0  0  0  0  0  0
   35.8840   30.4870   49.5890 H   0  0  0  0  0  0  0  0  0  0  0  0
   40.0030   31.2980   46.0210 C   0  0  0  0  0  0  0  0  0  0  0  0
   38.7360   31.9330   46.1390 C   0  0  0  0  0  0  0  0  0  0  0  0
   38.2640   32.4900   44.9750 C   0  0  0  0  0  0  0  0  0  0  0  0
   38.9800   32.4160   43.8380 N   0  0  0  0  0  0  0  0  0  0  0  0
   40.1490   31.8250   43.7480 C   0  0  0  0  0  0  0  0  0  0  0  0
   40.6500   31.2700   44.8400 N   0  0  0  0  0  0  0  0  0  0  0  0
   40.4250   30.8440   46.8920 H   0  0  0  0  0  0  0  0  0  0  0  0
   37.3000   32.9770   45.0560 H   0  0  0  0  0  0  0  0  0  0  0  0
   40.7620   31.7370   42.8610 H   0  0  0  0  0  0  0  0  0  0  0  0
   35.1990   29.9630   46.9540 C   0  0  0  0  0  0  0  0  0  0  0  0
   34.5320   30.6700   47.8120 O   0  0  0  0  0  0  0  0  0  0  0  0
   36.6420   30.0840   46.9360 N   0  0  0  0  0  0  0  0  0  0  0  0
   37.2360   29.5290   46.3180 H   0  0  0  0  0  0  0  0  0  0  0  0
   34.5180   29.1290   46.1020 O   0  0  0  0  0  0  0  0  0  0  0  0
   33.3180   29.4520   45.4790 C   0  0  0  0  0  0  0  0  0  0  0  0
   33.2820   30.2000   44.3980 O   0  0  0  0  0  0  0  0  0  0  0  0
   32.8510   26.8030   46.3180 F   0  0  0  0  0  0  0  0  0  0  0  0
   31.8000   27.6660   46.3730 C   0  0  0  0  0  0  0  0  0  0  0  0
   32.0050   28.9680   45.9680 C   0  0  0  0  0  0  0  0  0  0  0  0
   30.9230   29.7980   46.0400 C   0  0  0  0  0  0  0  0  0  0  0  0
   31.0420   30.8250   45.7320 H   0  0  0  0  0  0  0  0  0  0  0  0
   29.7100   29.3270   46.4980 C   0  0  0  0  0  0  0  0  0  0  0  0
   28.9020   30.0680   46.5200 H   0  0  0  0  0  0  0  0  0  0  0  0
   29.5390   28.0170   46.8970 C   0  0  0  0  0  3  0  0  0  0  0  0
   30.6070   27.1810   46.8290 C   0  0  0  0  0  3  0  0  0  0  0  0
  1  6  2  0  0  0  0
  1  2  1  0  0  0  0
  2  3  2  0  0  0  0
  3  4  1  0  0  0  0
  3  8  1  0  0  0  0
  4  9  1  0  0  0  0
  5 10  1  0  0  0  0
  5  4  2  0  0  0  0
  6  5  1  0  0  0  0
  7  2  1  0  0  0  0
 11 12  1  0  0  0  0
 11 17  1  0  0  0  0
 12  1  1  0  0  0  0
 13 18  1  0  0  0  0
 13 12  2  0  0  0  0
 14 13  1  0  0  0  0
 15 14  2  0  0  0  0
 15 16  1  0  0  0  0
 16 11  2  0  0  0  0
 19 15  1  0  0  0  0
 20 21  2  0  0  0  0
 22 20  1  0  0  0  0
 22  6  1  0  0  0  0
 23 22  1  0  0  0  0
 24 20  1  0  0  0  0
 25 29  1  0  0  0  0
 25 24  1  0  0  0  0
 26 25  2  0  0  0  0
 27 28  1  0  0  0  0
 28 35  1  0  0  0  0
 29 30  1  0  0  0  0
 29 28  2  0  0  0  0
 30 32  2  0  0  0  0
 31 30  1  0  0  0  0
 32 33  1  0  0  0  0
 32 34  1  0  0  0  0
 35 34  2  0  0  0  0
M  END
>  <minimizedAffinity>
-5.59142351

>  <minimizedRMSD>
0.896060944

$$$$
