
 OpenBabel03272500563D

 35 37  0  0  0  0  0  0  0  0999 V2000
   38.1030   31.9270   47.4430 C   0  0  0  0  0  0  0  0  0  0  0  0
   38.4840   32.9170   48.3060 C   0  0  0  0  0  0  0  0  0  0  0  0
   37.9630   33.0210   49.6000 C   0  0  0  0  0  0  0  0  0  0  0  0
   36.9910   32.0260   50.0010 C   0  0  0  0  0  0  0  0  0  0  0  0
   36.6550   31.0700   49.1020 C   0  0  0  0  0  0  0  0  0  0  0  0
   37.1610   30.9800   47.8590 C   0  0  0  0  0  0  0  0  0  0  0  0
   39.2210   33.6820   48.0220 H   0  0  0  0  0  0  0  0  0  0  0  0
   38.3060   33.8310   50.2330 H   0  0  0  0  0  0  0  0  0  0  0  0
   36.6830   32.2290   51.0060 H   0  0  0  0  0  0  0  0  0  0  0  0
   35.9530   30.4380   49.6220 H   0  0  0  0  0  0  0  0  0  0  0  0
   40.0150   31.3080   46.0420 C   0  0  0  0  0  0  0  0  0  0  0  0
   38.7460   31.9400   46.1480 C   0  0  0  0  0  0  0  0  0  0  0  0
   38.2810   32.4920   44.9790 C   0  0  0  0  0  0  0  0  0  0  0  0
   39.0060   32.4150   43.8480 N   0  0  0  0  0  0  0  0  0  0  0  0
   40.1770   31.8260   43.7690 C   0  0  0  0  0  0  0  0  0  0  0  0
   40.6710   31.2780   44.8660 N   0  0  0  0  0  0  0  0  0  0  0  0
   40.4320   30.8590   46.9180 H   0  0  0  0  0  0  0  0  0  0  0  0
   37.3150   32.9760   45.0510 H   0  0  0  0  0  0  0  0  0  0  0  0
   40.7970   31.7370   42.8860 H   0  0  0  0  0  0  0  0  0  0  0  0
   35.3150   29.8930   46.8910 C   0  0  0  0  0  0  0  0  0  0  0  0
   34.5890   30.6630   47.6390 O   0  0  0  0  0  0  0  0  0  0  0  0
   36.7560   29.9970   46.9890 N   0  0  0  0  0  0  0  0  0  0  0  0
   37.3920   29.3960   46.4620 H   0  0  0  0  0  0  0  0  0  0  0  0
   34.6950   29.0110   46.0400 O   0  0  0  0  0  0  0  0  0  0  0  0
   33.6130   29.3310   45.2290 C   0  0  0  0  0  0  0  0  0  0  0  0
   33.7690   29.9780   44.0940 O   0  0  0  0  0  0  0  0  0  0  0  0
   31.6330   31.1920   45.9740 F   0  0  0  0  0  0  0  0  0  0  0  0
   31.2690   29.8830   45.9270 C   0  0  0  0  0  0  0  0  0  0  0  0
   32.2190   28.9540   45.5650 C   0  0  0  0  0  0  0  0  0  0  0  0
   31.8080   27.6520   45.5330 C   0  0  0  0  0  0  0  0  0  0  0  0
   32.5230   26.8930   45.2540 H   0  0  0  0  0  0  0  0  0  0  0  0
   30.5070   27.3220   45.8500 C   0  0  0  0  0  0  0  0  0  0  0  0
   30.2720   26.2520   45.7950 H   0  0  0  0  0  0  0  0  0  0  0  0
   29.5780   28.2770   46.2090 C   0  0  0  0  0  3  0  0  0  0  0  0
   29.9760   29.5760   46.2450 C   0  0  0  0  0  3  0  0  0  0  0  0
  1  6  2  0  0  0  0
  1  2  1  0  0  0  0
  2  3  2  0  0  0  0
  3  4  1  0  0  0  0
  3  8  1  0  0  0  0
  4  9  1  0  0  0  0
  5 10  1  0  0  0  0
  5  4  2  0  0  0  0
  6  5  1  0  0  0  0
  7  2  1  0  0  0  0
 11 12  1  0  0  0  0
 11 17  1  0  0  0  0
 12  1  1  0  0  0  0
 13 18  1  0  0  0  0
 13 12  2  0  0  0  0
 14 13  1  0  0  0  0
 15 14  2  0  0  0  0
 15 16  1  0  0  0  0
 16 11  2  0  0  0  0
 19 15  1  0  0  0  0
 20 22  1  0  0  0  0
 20 21  2  0  0  0  0
 22  6  1  0  0  0  0
 23 22  1  0  0  0  0
 24 20  1  0  0  0  0
 25 29  1  0  0  0  0
 25 24  1  0  0  0  0
 26 25  2  0  0  0  0
 28 27  1  0  0  0  0
 28 35  1  0  0  0  0
 29 28  2  0  0  0  0
 30 29  1  0  0  0  0
 30 32  2  0  0  0  0
 31 30  1  0  0  0  0
 32 34  1  0  0  0  0
 33 32  1  0  0  0  0
 34 35  2  0  0  0  0
M  END
>  <minimizedAffinity>
-5.35855293

>  <minimizedRMSD>
0.774080515

$$$$
