
 OpenBabel03272500563D

 35 37  0  0  0  0  0  0  0  0999 V2000
   38.2950   32.0280   47.4210 C   0  0  0  0  0  0  0  0  0  0  0  0
   38.8990   32.9390   48.2420 C   0  0  0  0  0  0  0  0  0  0  0  0
   38.5240   33.1050   49.5790 C   0  0  0  0  0  0  0  0  0  0  0  0
   37.4540   32.2620   50.0720 C   0  0  0  0  0  0  0  0  0  0  0  0
   36.8960   31.3780   49.2110 C   0  0  0  0  0  0  0  0  0  0  0  0
   37.2640   31.2280   47.9260 C   0  0  0  0  0  0  0  0  0  0  0  0
   39.7140   33.5880   47.8880 H   0  0  0  0  0  0  0  0  0  0  0  0
   39.0430   33.8460   50.1750 H   0  0  0  0  0  0  0  0  0  0  0  0
   37.2770   32.4970   51.1020 H   0  0  0  0  0  0  0  0  0  0  0  0
   36.1580   30.8530   49.7960 H   0  0  0  0  0  0  0  0  0  0  0  0
   40.0260   31.2540   45.8700 C   0  0  0  0  0  0  0  0  0  0  0  0
   38.8080   31.9600   46.0710 C   0  0  0  0  0  0  0  0  0  0  0  0
   38.2620   32.4970   44.9300 C   0  0  0  0  0  0  0  0  0  0  0  0
   38.8680   32.3400   43.7390 N   0  0  0  0  0  0  0  0  0  0  0  0
   39.9930   31.6840   43.5730 C   0  0  0  0  0  0  0  0  0  0  0  0
   40.5620   31.1460   44.6390 N   0  0  0  0  0  0  0  0  0  0  0  0
   40.5020   30.8120   46.7190 H   0  0  0  0  0  0  0  0  0  0  0  0
   37.3340   33.0370   45.0750 H   0  0  0  0  0  0  0  0  0  0  0  0
   40.5180   31.5290   42.6390 H   0  0  0  0  0  0  0  0  0  0  0  0
   35.2560   30.0930   47.4720 C   0  0  0  0  0  0  0  0  0  0  0  0
   34.7930   30.6850   48.5280 O   0  0  0  0  0  0  0  0  0  0  0  0
   36.6350   30.3290   47.1000 N   0  0  0  0  0  0  0  0  0  0  0  0
   37.0810   29.8670   46.3060 H   0  0  0  0  0  0  0  0  0  0  0  0
   34.4280   29.2680   46.7500 O   0  0  0  0  0  0  0  0  0  0  0  0
   33.0620   29.4710   46.5920 C   0  0  0  0  0  0  0  0  0  0  0  0
   32.5820   30.6030   46.1250 O   0  0  0  0  0  0  0  0  0  0  0  0
   32.8540   28.2330   49.1150 F   0  0  0  0  0  0  0  0  0  0  0  0
   31.9730   27.8400   48.1550 C   0  0  0  0  0  0  0  0  0  0  0  0
   32.0550   28.4310   46.9140 C   0  0  0  0  0  0  0  0  0  0  0  0
   31.1520   28.0060   45.9810 C   0  0  0  0  0  0  0  0  0  0  0  0
   31.1820   28.4430   44.9970 H   0  0  0  0  0  0  0  0  0  0  0  0
   30.2220   27.0360   46.3020 C   0  0  0  0  0  0  0  0  0  0  0  0
   29.5400   26.7610   45.4880 H   0  0  0  0  0  0  0  0  0  0  0  0
   30.1660   26.4640   47.5560 C   0  0  0  0  0  3  0  0  0  0  0  0
   31.0610   26.8790   48.4910 C   0  0  0  0  0  3  0  0  0  0  0  0
  1  6  2  0  0  0  0
  1  2  1  0  0  0  0
  2  3  2  0  0  0  0
  3  4  1  0  0  0  0
  3  8  1  0  0  0  0
  4  9  1  0  0  0  0
  5 10  1  0  0  0  0
  5  4  2  0  0  0  0
  6  5  1  0  0  0  0
  7  2  1  0  0  0  0
 11 12  1  0  0  0  0
 11 17  1  0  0  0  0
 12  1  1  0  0  0  0
 13 18  1  0  0  0  0
 13 12  2  0  0  0  0
 14 13  1  0  0  0  0
 15 14  2  0  0  0  0
 15 16  1  0  0  0  0
 16 11  2  0  0  0  0
 19 15  1  0  0  0  0
 20 21  2  0  0  0  0
 22 20  1  0  0  0  0
 22  6  1  0  0  0  0
 23 22  1  0  0  0  0
 24 20  1  0  0  0  0
 25 24  1  0  0  0  0
 25 29  1  0  0  0  0
 26 25  2  0  0  0  0
 28 35  1  0  0  0  0
 28 27  1  0  0  0  0
 29 28  2  0  0  0  0
 30 32  2  0  0  0  0
 30 29  1  0  0  0  0
 31 30  1  0  0  0  0
 32 34  1  0  0  0  0
 33 32  1  0  0  0  0
 34 35  2  0  0  0  0
M  END
>  <minimizedAffinity>
-6.15964031

>  <minimizedRMSD>
1.27946603

$$$$
