
 OpenBabel03272500573D

 35 37  0  0  0  0  0  0  0  0999 V2000
   38.1040   31.9070   47.4360 C   0  0  0  0  0  0  0  0  0  0  0  0
   38.5730   32.8280   48.3310 C   0  0  0  0  0  0  0  0  0  0  0  0
   38.0790   32.9210   49.6360 C   0  0  0  0  0  0  0  0  0  0  0  0
   37.0350   31.9910   50.0140 C   0  0  0  0  0  0  0  0  0  0  0  0
   36.6130   31.1010   49.0840 C   0  0  0  0  0  0  0  0  0  0  0  0
   37.0950   31.0210   47.8300 C   0  0  0  0  0  0  0  0  0  0  0  0
   39.3650   33.5430   48.0660 H   0  0  0  0  0  0  0  0  0  0  0  0
   38.4940   33.6750   50.2950 H   0  0  0  0  0  0  0  0  0  0  0  0
   36.7580   32.1770   51.0310 H   0  0  0  0  0  0  0  0  0  0  0  0
   35.8690   30.5060   49.5890 H   0  0  0  0  0  0  0  0  0  0  0  0
   39.9890   31.2750   46.0060 C   0  0  0  0  0  0  0  0  0  0  0  0
   38.7290   31.9210   46.1330 C   0  0  0  0  0  0  0  0  0  0  0  0
   38.2540   32.4850   44.9740 C   0  0  0  0  0  0  0  0  0  0  0  0
   38.9630   32.4070   43.8320 N   0  0  0  0  0  0  0  0  0  0  0  0
   40.1260   31.8060   43.7340 C   0  0  0  0  0  0  0  0  0  0  0  0
   40.6290   31.2450   44.8210 N   0  0  0  0  0  0  0  0  0  0  0  0
   40.4130   30.8160   46.8730 H   0  0  0  0  0  0  0  0  0  0  0  0
   37.2950   32.9800   45.0620 H   0  0  0  0  0  0  0  0  0  0  0  0
   40.7330   31.7160   42.8420 H   0  0  0  0  0  0  0  0  0  0  0  0
   35.1600   29.9800   46.9930 C   0  0  0  0  0  0  0  0  0  0  0  0
   34.5190   30.6620   47.8890 O   0  0  0  0  0  0  0  0  0  0  0  0
   36.6010   30.1100   46.9290 N   0  0  0  0  0  0  0  0  0  0  0  0
   37.1770   29.5740   46.2780 H   0  0  0  0  0  0  0  0  0  0  0  0
   34.4550   29.1610   46.1450 O   0  0  0  0  0  0  0  0  0  0  0  0
   33.2150   29.4750   45.6010 C   0  0  0  0  0  0  0  0  0  0  0  0
   33.1070   30.1410   44.4720 O   0  0  0  0  0  0  0  0  0  0  0  0
   30.7790   30.8300   45.1870 F   0  0  0  0  0  0  0  0  0  0  0  0
   30.7570   29.7500   46.0150 C   0  0  0  0  0  0  0  0  0  0  0  0
   31.9360   29.0720   46.2330 C   0  0  0  0  0  0  0  0  0  0  0  0
   31.8670   27.9950   47.0700 C   0  0  0  0  0  0  0  0  0  0  0  0
   32.7680   27.4370   47.2660 H   0  0  0  0  0  0  0  0  0  0  0  0
   30.6650   27.6360   47.6470 C   0  0  0  0  0  0  0  0  0  0  0  0
   30.7110   26.7580   48.3050 H   0  0  0  0  0  0  0  0  0  0  0  0
   29.5020   28.3360   47.4090 C   0  0  0  0  0  3  0  0  0  0  0  0
   29.5590   29.4110   46.5770 C   0  0  0  0  0  3  0  0  0  0  0  0
  1  6  2  0  0  0  0
  1  2  1  0  0  0  0
  2  3  2  0  0  0  0
  3  4  1  0  0  0  0
  3  8  1  0  0  0  0
  4  9  1  0  0  0  0
  5 10  1  0  0  0  0
  5  4  2  0  0  0  0
  6  5  1  0  0  0  0
  7  2  1  0  0  0  0
 11 12  1  0  0  0  0
 11 17  1  0  0  0  0
 12  1  1  0  0  0  0
 13 18  1  0  0  0  0
 13 12  2  0  0  0  0
 14 13  1  0  0  0  0
 15 14  2  0  0  0  0
 15 16  1  0  0  0  0
 16 11  2  0  0  0  0
 19 15  1  0  0  0  0
 20 21  2  0  0  0  0
 22 20  1  0  0  0  0
 22  6  1  0  0  0  0
 23 22  1  0  0  0  0
 24 20  1  0  0  0  0
 25 24  1  0  0  0  0
 25 29  1  0  0  0  0
 26 25  2  0  0  0  0
 27 28  1  0  0  0  0
 28 29  2  0  0  0  0
 28 35  1  0  0  0  0
 29 30  1  0  0  0  0
 30 31  1  0  0  0  0
 30 32  2  0  0  0  0
 32 33  1  0  0  0  0
 34 32  1  0  0  0  0
 35 34  2  0  0  0  0
M  END
>  <minimizedAffinity>
-5.82161474

>  <minimizedRMSD>
0.976993561

$$$$
