
 OpenBabel03272500573D

 35 37  0  0  0  0  0  0  0  0999 V2000
   38.1090   31.8880   47.4440 C   0  0  0  0  0  0  0  0  0  0  0  0
   38.7110   32.8870   48.1580 C   0  0  0  0  0  0  0  0  0  0  0  0
   38.4500   33.0970   49.5160 C   0  0  0  0  0  0  0  0  0  0  0  0
   37.5040   32.2020   50.1510 C   0  0  0  0  0  0  0  0  0  0  0  0
   36.9410   31.2320   49.3920 C   0  0  0  0  0  0  0  0  0  0  0  0
   37.1990   31.0400   48.0850 C   0  0  0  0  0  0  0  0  0  0  0  0
   39.4320   33.5760   47.6960 H   0  0  0  0  0  0  0  0  0  0  0  0
   38.9600   33.9070   50.0230 H   0  0  0  0  0  0  0  0  0  0  0  0
   37.4050   32.4790   51.1810 H   0  0  0  0  0  0  0  0  0  0  0  0
   36.3070   30.6840   50.0700 H   0  0  0  0  0  0  0  0  0  0  0  0
   39.7310   31.1400   45.7680 C   0  0  0  0  0  0  0  0  0  0  0  0
   38.4970   31.7860   46.0560 C   0  0  0  0  0  0  0  0  0  0  0  0
   37.8150   32.2360   44.9510 C   0  0  0  0  0  0  0  0  0  0  0  0
   38.3160   32.0580   43.7150 N   0  0  0  0  0  0  0  0  0  0  0  0
   39.4590   31.4590   43.4690 C   0  0  0  0  0  0  0  0  0  0  0  0
   40.1560   31.0050   44.4970 N   0  0  0  0  0  0  0  0  0  0  0  0
   40.3100   30.7670   46.5860 H   0  0  0  0  0  0  0  0  0  0  0  0
   36.8740   32.7290   45.1620 H   0  0  0  0  0  0  0  0  0  0  0  0
   39.9030   31.2900   42.4970 H   0  0  0  0  0  0  0  0  0  0  0  0
   35.1960   29.8500   47.7730 C   0  0  0  0  0  0  0  0  0  0  0  0
   34.7350   30.5520   48.7590 O   0  0  0  0  0  0  0  0  0  0  0  0
   36.5710   30.0510   47.3680 N   0  0  0  0  0  0  0  0  0  0  0  0
   37.0160   29.5060   46.6280 H   0  0  0  0  0  0  0  0  0  0  0  0
   34.3690   28.9450   47.1530 O   0  0  0  0  0  0  0  0  0  0  0  0
   33.0950   29.2390   46.6820 C   0  0  0  0  0  0  0  0  0  0  0  0
   32.8660   30.2880   45.9220 O   0  0  0  0  0  0  0  0  0  0  0  0
   33.2050   26.9250   48.2860 F   0  0  0  0  0  0  0  0  0  0  0  0
   31.9930   27.2650   47.7660 C   0  0  0  0  0  0  0  0  0  0  0  0
   31.9150   28.3930   46.9800 C   0  0  0  0  0  0  0  0  0  0  0  0
   30.6800   28.6950   46.4810 C   0  0  0  0  0  0  0  0  0  0  0  0
   30.5760   29.5710   45.8590 H   0  0  0  0  0  0  0  0  0  0  0  0
   29.5940   27.8940   46.7700 C   0  0  0  0  0  0  0  0  0  0  0  0
   28.6460   28.2180   46.3240 H   0  0  0  0  0  0  0  0  0  0  0  0
   29.7070   26.7700   47.5630 C   0  0  0  0  0  3  0  0  0  0  0  0
   30.9310   26.4600   48.0640 C   0  0  0  0  0  3  0  0  0  0  0  0
  1  6  2  0  0  0  0
  1  2  1  0  0  0  0
  2  3  2  0  0  0  0
  3  8  1  0  0  0  0
  3  4  1  0  0  0  0
  4  9  1  0  0  0  0
  5 10  1  0  0  0  0
  5  4  2  0  0  0  0
  6  5  1  0  0  0  0
  7  2  1  0  0  0  0
 11 12  1  0  0  0  0
 11 17  1  0  0  0  0
 12  1  1  0  0  0  0
 13 18  1  0  0  0  0
 13 12  2  0  0  0  0
 14 13  1  0  0  0  0
 15 14  2  0  0  0  0
 15 16  1  0  0  0  0
 16 11  2  0  0  0  0
 19 15  1  0  0  0  0
 20 21  2  0  0  0  0
 22 20  1  0  0  0  0
 22  6  1  0  0  0  0
 23 22  1  0  0  0  0
 24 20  1  0  0  0  0
 25 29  1  0  0  0  0
 25 24  1  0  0  0  0
 26 25  2  0  0  0  0
 28 35  1  0  0  0  0
 28 27  1  0  0  0  0
 29 28  2  0  0  0  0
 30 32  2  0  0  0  0
 30 29  1  0  0  0  0
 31 30  1  0  0  0  0
 32 34  1  0  0  0  0
 33 32  1  0  0  0  0
 34 35  2  0  0  0  0
M  END
>  <minimizedAffinity>
-5.78079462

>  <minimizedRMSD>
1.30904794

$$$$
