
 OpenBabel03272500563D

 35 37  0  0  0  0  0  0  0  0999 V2000
   38.0830   31.9080   47.4390 C   0  0  0  0  0  0  0  0  0  0  0  0
   38.5290   32.8480   48.3260 C   0  0  0  0  0  0  0  0  0  0  0  0
   38.0270   32.9460   49.6280 C   0  0  0  0  0  0  0  0  0  0  0  0
   37.0000   31.9980   50.0100 C   0  0  0  0  0  0  0  0  0  0  0  0
   36.6000   31.0910   49.0880 C   0  0  0  0  0  0  0  0  0  0  0  0
   37.0900   31.0070   47.8370 C   0  0  0  0  0  0  0  0  0  0  0  0
   39.3080   33.5770   48.0570 H   0  0  0  0  0  0  0  0  0  0  0  0
   38.4230   33.7150   50.2800 H   0  0  0  0  0  0  0  0  0  0  0  0
   36.7140   32.1900   51.0240 H   0  0  0  0  0  0  0  0  0  0  0  0
   35.8660   30.4860   49.5960 H   0  0  0  0  0  0  0  0  0  0  0  0
   39.9780   31.2830   46.0190 C   0  0  0  0  0  0  0  0  0  0  0  0
   38.7140   31.9220   46.1380 C   0  0  0  0  0  0  0  0  0  0  0  0
   38.2410   32.4790   44.9750 C   0  0  0  0  0  0  0  0  0  0  0  0
   38.9550   32.4010   43.8370 N   0  0  0  0  0  0  0  0  0  0  0  0
   40.1230   31.8060   43.7460 C   0  0  0  0  0  0  0  0  0  0  0  0
   40.6240   31.2520   44.8380 N   0  0  0  0  0  0  0  0  0  0  0  0
   40.4010   30.8290   46.8900 H   0  0  0  0  0  0  0  0  0  0  0  0
   37.2780   32.9680   45.0570 H   0  0  0  0  0  0  0  0  0  0  0  0
   40.7340   31.7160   42.8580 H   0  0  0  0  0  0  0  0  0  0  0  0
   35.1760   29.9530   46.9680 C   0  0  0  0  0  0  0  0  0  0  0  0
   34.5120   30.6600   47.8280 O   0  0  0  0  0  0  0  0  0  0  0  0
   36.6190   30.0760   46.9440 N   0  0  0  0  0  0  0  0  0  0  0  0
   37.2110   29.5230   46.3230 H   0  0  0  0  0  0  0  0  0  0  0  0
   34.4930   29.1170   46.1200 O   0  0  0  0  0  0  0  0  0  0  0  0
   33.1140   29.1300   45.9470 C   0  0  0  0  0  0  0  0  0  0  0  0
   32.5440   29.8510   45.0060 O   0  0  0  0  0  0  0  0  0  0  0  0
   30.4310   29.8430   46.4350 F   0  0  0  0  0  0  0  0  0  0  0  0
   30.8840   28.6960   47.0100 C   0  0  0  0  0  0  0  0  0  0  0  0
   32.1930   28.3270   46.7860 C   0  0  0  0  0  0  0  0  0  0  0  0
   32.6030   27.1700   47.3820 C   0  0  0  0  0  0  0  0  0  0  0  0
   33.6200   26.8460   47.2320 H   0  0  0  0  0  0  0  0  0  0  0  0
   31.7290   26.4360   48.1590 C   0  0  0  0  0  0  0  0  0  0  0  0
   32.1510   25.5230   48.5970 H   0  0  0  0  0  0  0  0  0  0  0  0
   30.4240   26.8340   48.3650 C   0  0  0  0  0  3  0  0  0  0  0  0
   30.0040   27.9850   47.7750 C   0  0  0  0  0  3  0  0  0  0  0  0
  1  6  2  0  0  0  0
  1  2  1  0  0  0  0
  2  3  2  0  0  0  0
  3  4  1  0  0  0  0
  3  8  1  0  0  0  0
  4  9  1  0  0  0  0
  5 10  1  0  0  0  0
  5  4  2  0  0  0  0
  6  5  1  0  0  0  0
  7  2  1  0  0  0  0
 11 12  1  0  0  0  0
 11 17  1  0  0  0  0
 12  1  1  0  0  0  0
 13 18  1  0  0  0  0
 13 12  2  0  0  0  0
 14 13  1  0  0  0  0
 15 14  2  0  0  0  0
 15 16  1  0  0  0  0
 16 11  2  0  0  0  0
 19 15  1  0  0  0  0
 20 21  2  0  0  0  0
 22 20  1  0  0  0  0
 22  6  1  0  0  0  0
 23 22  1  0  0  0  0
 24 20  1  0  0  0  0
 25 24  1  0  0  0  0
 25 29  1  0  0  0  0
 26 25  2  0  0  0  0
 27 28  1  0  0  0  0
 28 35  1  0  0  0  0
 29 28  2  0  0  0  0
 29 30  1  0  0  0  0
 30 32  2  0  0  0  0
 31 30  1  0  0  0  0
 32 34  1  0  0  0  0
 32 33  1  0  0  0  0
 35 34  2  0  0  0  0
M  END
>  <minimizedAffinity>
-5.92777538

>  <minimizedRMSD>
1.41375601

$$$$
