
 OpenBabel03272500563D

 35 37  0  0  0  0  0  0  0  0999 V2000
   38.1140   31.8990   47.4350 C   0  0  0  0  0  0  0  0  0  0  0  0
   38.7090   32.8260   48.2460 C   0  0  0  0  0  0  0  0  0  0  0  0
   38.3510   32.9850   49.5880 C   0  0  0  0  0  0  0  0  0  0  0  0
   37.3080   32.1190   50.0980 C   0  0  0  0  0  0  0  0  0  0  0  0
   36.7570   31.2210   49.2470 C   0  0  0  0  0  0  0  0  0  0  0  0
   37.1100   31.0770   47.9570 C   0  0  0  0  0  0  0  0  0  0  0  0
   39.5030   33.4930   47.8790 H   0  0  0  0  0  0  0  0  0  0  0  0
   38.8610   33.7390   50.1750 H   0  0  0  0  0  0  0  0  0  0  0  0
   37.1400   32.3510   51.1300 H   0  0  0  0  0  0  0  0  0  0  0  0
   36.0410   30.6790   49.8440 H   0  0  0  0  0  0  0  0  0  0  0  0
   39.8230   31.1370   45.8540 C   0  0  0  0  0  0  0  0  0  0  0  0
   38.6080   31.8410   46.0780 C   0  0  0  0  0  0  0  0  0  0  0  0
   38.0450   32.3850   44.9490 C   0  0  0  0  0  0  0  0  0  0  0  0
   38.6350   32.2370   43.7480 N   0  0  0  0  0  0  0  0  0  0  0  0
   39.7580   31.5830   43.5610 C   0  0  0  0  0  0  0  0  0  0  0  0
   40.3420   31.0380   44.6160 N   0  0  0  0  0  0  0  0  0  0  0  0
   40.3120   30.6900   46.6940 H   0  0  0  0  0  0  0  0  0  0  0  0
   37.1200   32.9240   45.1100 H   0  0  0  0  0  0  0  0  0  0  0  0
   40.2700   31.4350   42.6190 H   0  0  0  0  0  0  0  0  0  0  0  0
   35.0630   30.0780   47.3730 C   0  0  0  0  0  0  0  0  0  0  0  0
   34.5490   30.8010   48.3180 O   0  0  0  0  0  0  0  0  0  0  0  0
   36.4900   30.1610   47.1420 N   0  0  0  0  0  0  0  0  0  0  0  0
   36.9710   29.5930   46.4440 H   0  0  0  0  0  0  0  0  0  0  0  0
   34.2420   29.2630   46.6330 O   0  0  0  0  0  0  0  0  0  0  0  0
   33.0820   29.6880   45.9950 C   0  0  0  0  0  0  0  0  0  0  0  0
   33.0660   30.7620   45.2360 O   0  0  0  0  0  0  0  0  0  0  0  0
   32.8620   27.0520   46.9680 F   0  0  0  0  0  0  0  0  0  0  0  0
   31.7130   27.6710   46.5830 C   0  0  0  0  0  0  0  0  0  0  0  0
   31.7950   28.9600   46.1040 C   0  0  0  0  0  0  0  0  0  0  0  0
   30.6170   29.5400   45.7300 C   0  0  0  0  0  0  0  0  0  0  0  0
   30.6380   30.5490   45.3480 H   0  0  0  0  0  0  0  0  0  0  0  0
   29.4300   28.8450   45.8390 C   0  0  0  0  0  0  0  0  0  0  0  0
   28.5390   29.3950   45.5130 H   0  0  0  0  0  0  0  0  0  0  0  0
   29.3820   27.5540   46.3230 C   0  0  0  0  0  3  0  0  0  0  0  0
   30.5480   26.9660   46.6990 C   0  0  0  0  0  3  0  0  0  0  0  0
  1  6  2  0  0  0  0
  1  2  1  0  0  0  0
  2  3  2  0  0  0  0
  3  4  1  0  0  0  0
  3  8  1  0  0  0  0
  4  9  1  0  0  0  0
  5 10  1  0  0  0  0
  5  4  2  0  0  0  0
  6  5  1  0  0  0  0
  7  2  1  0  0  0  0
 11 12  1  0  0  0  0
 11 17  1  0  0  0  0
 12  1  1  0  0  0  0
 13 18  1  0  0  0  0
 13 12  2  0  0  0  0
 14 13  1  0  0  0  0
 15 14  2  0  0  0  0
 15 16  1  0  0  0  0
 16 11  2  0  0  0  0
 19 15  1  0  0  0  0
 20 21  2  0  0  0  0
 22 20  1  0  0  0  0
 22  6  1  0  0  0  0
 23 22  1  0  0  0  0
 24 20  1  0  0  0  0
 25 29  1  0  0  0  0
 25 24  1  0  0  0  0
 26 25  2  0  0  0  0
 28 35  1  0  0  0  0
 28 27  1  0  0  0  0
 29 28  2  0  0  0  0
 30 32  2  0  0  0  0
 30 29  1  0  0  0  0
 31 30  1  0  0  0  0
 32 34  1  0  0  0  0
 33 32  1  0  0  0  0
 34 35  2  0  0  0  0
M  END
>  <minimizedAffinity>
-5.43310928

>  <minimizedRMSD>
0.704728842

$$$$
