
 OpenBabel03272500563D

 35 37  0  0  0  0  0  0  0  0999 V2000
   38.2400   31.9140   47.4010 C   0  0  0  0  0  0  0  0  0  0  0  0
   38.8580   32.7350   48.3030 C   0  0  0  0  0  0  0  0  0  0  0  0
   38.4490   32.8220   49.6380 C   0  0  0  0  0  0  0  0  0  0  0  0
   37.3280   31.9960   50.0380 C   0  0  0  0  0  0  0  0  0  0  0  0
   36.7570   31.2040   49.0990 C   0  0  0  0  0  0  0  0  0  0  0  0
   37.1590   31.1300   47.8170 C   0  0  0  0  0  0  0  0  0  0  0  0
   39.7110   33.3690   48.0210 H   0  0  0  0  0  0  0  0  0  0  0  0
   38.9820   33.4930   50.3010 H   0  0  0  0  0  0  0  0  0  0  0  0
   37.1290   32.1650   51.0770 H   0  0  0  0  0  0  0  0  0  0  0  0
   35.9790   30.6730   49.6230 H   0  0  0  0  0  0  0  0  0  0  0  0
   40.0270   31.2450   45.8650 C   0  0  0  0  0  0  0  0  0  0  0  0
   38.7910   31.9200   46.0650 C   0  0  0  0  0  0  0  0  0  0  0  0
   38.2670   32.5010   44.9360 C   0  0  0  0  0  0  0  0  0  0  0  0
   38.9090   32.4120   43.7560 N   0  0  0  0  0  0  0  0  0  0  0  0
   40.0490   31.7830   43.5910 C   0  0  0  0  0  0  0  0  0  0  0  0
   40.5990   31.2050   44.6470 N   0  0  0  0  0  0  0  0  0  0  0  0
   40.4870   30.7710   46.7060 H   0  0  0  0  0  0  0  0  0  0  0  0
   37.3260   33.0180   45.0790 H   0  0  0  0  0  0  0  0  0  0  0  0
   40.6040   31.6820   42.6670 H   0  0  0  0  0  0  0  0  0  0  0  0
   35.1210   30.1110   47.2350 C   0  0  0  0  0  0  0  0  0  0  0  0
   34.6560   30.6360   48.3250 O   0  0  0  0  0  0  0  0  0  0  0  0
   36.5170   30.3220   46.9100 N   0  0  0  0  0  0  0  0  0  0  0  0
   36.9640   29.9070   46.0920 H   0  0  0  0  0  0  0  0  0  0  0  0
   34.2810   29.3780   46.4340 O   0  0  0  0  0  0  0  0  0  0  0  0
   32.8990   29.5300   46.3980 C   0  0  0  0  0  0  0  0  0  0  0  0
   32.3390   30.6370   45.9620 O   0  0  0  0  0  0  0  0  0  0  0  0
   30.9270   28.4250   44.7150 F   0  0  0  0  0  0  0  0  0  0  0  0
   31.0080   27.9370   45.9830 C   0  0  0  0  0  0  0  0  0  0  0  0
   31.9640   28.4620   46.8250 C   0  0  0  0  0  0  0  0  0  0  0  0
   32.0080   27.9410   48.0860 C   0  0  0  0  0  0  0  0  0  0  0  0
   32.7420   28.3250   48.7750 H   0  0  0  0  0  0  0  0  0  0  0  0
   31.1280   26.9460   48.4620 C   0  0  0  0  0  0  0  0  0  0  0  0
   31.2410   26.5930   49.4950 H   0  0  0  0  0  0  0  0  0  0  0  0
   30.1800   26.4430   47.5950 C   0  0  0  0  0  3  0  0  0  0  0  0
   30.1280   26.9530   46.3360 C   0  0  0  0  0  3  0  0  0  0  0  0
  1  6  2  0  0  0  0
  1  2  1  0  0  0  0
  2  3  2  0  0  0  0
  3  4  1  0  0  0  0
  3  8  1  0  0  0  0
  4  9  1  0  0  0  0
  5 10  1  0  0  0  0
  5  4  2  0  0  0  0
  6  5  1  0  0  0  0
  7  2  1  0  0  0  0
 11 12  1  0  0  0  0
 11 17  1  0  0  0  0
 12  1  1  0  0  0  0
 13 18  1  0  0  0  0
 13 12  2  0  0  0  0
 14 13  1  0  0  0  0
 15 14  2  0  0  0  0
 15 16  1  0  0  0  0
 16 11  2  0  0  0  0
 19 15  1  0  0  0  0
 20 21  2  0  0  0  0
 22 20  1  0  0  0  0
 22  6  1  0  0  0  0
 23 22  1  0  0  0  0
 24 20  1  0  0  0  0
 25 24  1  0  0  0  0
 25 29  1  0  0  0  0
 26 25  2  0  0  0  0
 27 28  1  0  0  0  0
 28 35  2  0  0  0  0
 28 29  1  0  0  0  0
 29 30  2  0  0  0  0
 30 32  1  0  0  0  0
 30 31  1  0  0  0  0
 32 33  1  0  0  0  0
 34 32  2  0  0  0  0
 35 34  1  0  0  0  0
M  END
>  <minimizedAffinity>
-6.00122404

>  <minimizedRMSD>
1.29710734

$$$$
