
 OpenBabel03272500543D

 32 34  0  0  0  0  0  0  0  0999 V2000
   37.7400   31.4370   45.9030 C   0  0  0  0  0  0  0  0  0  0  0  0
   38.7360   32.1560   46.5690 C   0  0  0  0  0  0  0  0  0  0  0  0
   38.9010   32.0930   47.9420 C   0  0  0  0  0  0  0  0  0  0  0  0
   38.0290   31.2710   48.7070 C   0  0  0  0  0  0  0  0  0  0  0  0
   37.0700   30.5850   48.0160 C   0  0  0  0  0  0  0  0  0  0  0  0
   36.9040   30.6380   46.6680 C   0  0  0  0  0  0  0  0  0  0  0  0
   39.4140   32.7970   45.9900 H   0  0  0  0  0  0  0  0  0  0  0  0
   39.7150   32.6990   48.3520 H   0  0  0  0  0  0  0  0  0  0  0  0
   38.2970   31.3440   49.7370 H   0  0  0  0  0  0  0  0  0  0  0  0
   36.5200   30.0900   48.7890 H   0  0  0  0  0  0  0  0  0  0  0  0
   38.7200   31.1260   43.7100 C   0  0  0  0  0  0  0  0  0  0  0  0
   37.6600   31.6530   44.4720 C   0  0  0  0  0  0  0  0  0  0  0  0
   36.6430   32.3280   43.7790 C   0  0  0  0  0  0  0  0  0  0  0  0
   36.7140   32.4460   42.4420 N   0  0  0  0  0  0  0  0  0  0  0  0
   37.7280   31.9390   41.7310 C   0  0  0  0  0  0  0  0  0  0  0  0
   38.7200   31.2870   42.3660 N   0  0  0  0  0  0  0  0  0  0  0  0
   39.5310   30.5960   44.1920 H   0  0  0  0  0  0  0  0  0  0  0  0
   35.8450   32.7170   44.4160 H   0  0  0  0  0  0  0  0  0  0  0  0
   37.6930   32.0880   40.6610 H   0  0  0  0  0  0  0  0  0  0  0  0
   34.6720   29.8960   46.6460 C   0  0  0  0  0  0  0  0  0  0  0  0
   34.5970   30.4610   47.7970 O   0  0  0  0  0  0  0  0  0  0  0  0
   35.9470   29.8910   45.9820 N   0  0  0  0  0  0  0  0  0  0  0  0
   36.1020   29.3960   45.1200 H   0  0  0  0  0  0  0  0  0  0  0  0
   34.1140   27.0810   46.2060 F   0  0  0  0  0  0  0  0  0  0  0  0
   33.1730   27.9910   45.8740 C   0  0  0  0  0  0  0  0  0  0  0  0
   33.4630   29.2970   46.0870 C   0  0  0  0  0  0  0  0  0  0  0  0
   32.4460   30.1500   45.7160 C   0  0  0  0  0  0  0  0  0  0  0  0
   32.5300   31.2250   45.8260 H   0  0  0  0  0  0  0  0  0  0  0  0
   31.2500   29.7250   45.1800 C   0  0  0  0  0  0  0  0  0  0  0  0
   30.4790   30.4070   44.9000 H   0  0  0  0  0  0  0  0  0  0  0  0
   31.0080   28.3840   44.9840 C   0  0  0  0  0  3  0  0  0  0  0  0
   32.0060   27.5050   45.3460 C   0  0  0  0  0  3  0  0  0  0  0  0
  1  2  2  0  0  0  0
  1  6  1  0  0  0  0
  2  3  1  0  0  0  0
  3  8  1  0  0  0  0
  3  4  2  0  0  0  0
  4  9  1  0  0  0  0
  5  4  1  0  0  0  0
  5 10  1  0  0  0  0
  6  5  2  0  0  0  0
  7  2  1  0  0  0  0
 11 17  1  0  0  0  0
 11 12  1  0  0  0  0
 12  1  1  0  0  0  0
 13 18  1  0  0  0  0
 13 12  2  0  0  0  0
 14 13  1  0  0  0  0
 15 16  1  0  0  0  0
 15 14  2  0  0  0  0
 16 11  2  0  0  0  0
 19 15  1  0  0  0  0
 20 21  2  0  0  0  0
 22 20  1  0  0  0  0
 22  6  1  0  0  0  0
 23 22  1  0  0  0  0
 25 26  1  0  0  0  0
 25 24  1  0  0  0  0
 26 20  1  0  0  0  0
 27 28  1  0  0  0  0
 27 26  2  0  0  0  0
 29 27  1  0  0  0  0
 30 29  1  0  0  0  0
 31 29  2  0  0  0  0
 31 32  1  0  0  0  0
 32 25  2  0  0  0  0
M  END
>  <minimizedAffinity>
-4.377635

>  <minimizedRMSD>
8.11110783

$$$$
