
 OpenBabel03272500543D

 32 34  0  0  0  0  0  0  0  0999 V2000
   35.5660   29.0380   42.8070 C   0  0  0  0  0  0  0  0  0  0  0  0
   35.1890   27.8920   42.1020 C   0  0  0  0  0  0  0  0  0  0  0  0
   35.9910   27.3270   41.1260 C   0  0  0  0  0  0  0  0  0  0  0  0
   37.2430   27.9290   40.8260 C   0  0  0  0  0  0  0  0  0  0  0  0
   37.5730   29.0470   41.5390 C   0  0  0  0  0  0  0  0  0  0  0  0
   36.7930   29.6060   42.5010 C   0  0  0  0  0  0  0  0  0  0  0  0
   34.2230   27.4190   42.3240 H   0  0  0  0  0  0  0  0  0  0  0  0
   35.5920   26.4300   40.6420 H   0  0  0  0  0  0  0  0  0  0  0  0
   37.7230   27.3670   40.0560 H   0  0  0  0  0  0  0  0  0  0  0  0
   38.5090   29.3410   41.1120 H   0  0  0  0  0  0  0  0  0  0  0  0
   34.6350   28.9690   45.0420 C   0  0  0  0  0  0  0  0  0  0  0  0
   34.5920   29.5400   43.7560 C   0  0  0  0  0  0  0  0  0  0  0  0
   33.6220   30.5270   43.5230 C   0  0  0  0  0  0  0  0  0  0  0  0
   32.7850   30.8850   44.5120 N   0  0  0  0  0  0  0  0  0  0  0  0
   32.8380   30.3330   45.7300 C   0  0  0  0  0  0  0  0  0  0  0  0
   33.7570   29.3830   45.9860 N   0  0  0  0  0  0  0  0  0  0  0  0
   35.3620   28.2040   45.2780 H   0  0  0  0  0  0  0  0  0  0  0  0
   33.6300   30.9370   42.5110 H   0  0  0  0  0  0  0  0  0  0  0  0
   32.1220   30.6900   46.4570 H   0  0  0  0  0  0  0  0  0  0  0  0
   38.2080   30.4160   44.1960 C   0  0  0  0  0  0  0  0  0  0  0  0
   38.5610   29.1870   44.3250 O   0  0  0  0  0  0  0  0  0  0  0  0
   37.1740   30.7210   43.2470 N   0  0  0  0  0  0  0  0  0  0  0  0
   36.7860   31.6450   43.1520 H   0  0  0  0  0  0  0  0  0  0  0  0
   37.4370   31.3650   46.8300 F   0  0  0  0  0  0  0  0  0  0  0  0
   38.5430   31.8780   46.2500 C   0  0  0  0  0  0  0  0  0  0  0  0
   38.8760   31.4190   45.0210 C   0  0  0  0  0  0  0  0  0  0  0  0
   40.0160   32.0030   44.5110 C   0  0  0  0  0  0  0  0  0  0  0  0
   40.4080   31.7380   43.5350 H   0  0  0  0  0  0  0  0  0  0  0  0
   40.7490   32.9590   45.1770 C   0  0  0  0  0  0  0  0  0  0  0  0
   41.6290   33.3950   44.7590 H   0  0  0  0  0  0  0  0  0  0  0  0
   40.3640   33.3890   46.4270 C   0  0  0  0  0  3  0  0  0  0  0  0
   39.2280   32.8250   46.9650 C   0  0  0  0  0  3  0  0  0  0  0  0
  1 12  1  0  0  0  0
  2  7  1  0  0  0  0
  2  1  2  0  0  0  0
  3  2  1  0  0  0  0
  4  3  2  0  0  0  0
  4  5  1  0  0  0  0
  5  6  2  0  0  0  0
  6  1  1  0  0  0  0
  6 22  1  0  0  0  0
  8  3  1  0  0  0  0
  9  4  1  0  0  0  0
 10  5  1  0  0  0  0
 11 17  1  0  0  0  0
 11 16  1  0  0  0  0
 12 11  2  0  0  0  0
 13 12  1  0  0  0  0
 13 14  2  0  0  0  0
 14 15  1  0  0  0  0
 15 16  2  0  0  0  0
 15 19  1  0  0  0  0
 18 13  1  0  0  0  0
 20 21  2  0  0  0  0
 20 26  1  0  0  0  0
 22 20  1  0  0  0  0
 23 22  1  0  0  0  0
 25 24  1  0  0  0  0
 25 32  1  0  0  0  0
 26 25  2  0  0  0  0
 27 26  1  0  0  0  0
 27 29  2  0  0  0  0
 28 27  1  0  0  0  0
 29 31  1  0  0  0  0
 30 29  1  0  0  0  0
 31 32  2  0  0  0  0
M  END
>  <minimizedAffinity>
-3.58362579

>  <minimizedRMSD>
6.43941498

$$$$
