
 OpenBabel03272508523D

 29 31  0  0  1  0  0  0  0  0999 V2000
   35.7330   28.1360   31.3430 C   0  0  2  0  0  0  0  0  0  0  0  0
   36.2830   29.2430   30.5690 C   0  0  0  0  0  0  0  0  0  0  0  0
   36.6000   29.0690   32.0640 C   0  0  1  0  0  0  0  0  0  0  0  0
   34.6550   28.1430   31.7110 H   0  0  0  0  0  0  0  0  0  0  0  0
   35.6010   30.0830   30.3550 H   0  0  0  0  0  0  0  0  0  0  0  0
   37.0790   29.0700   29.8210 H   0  0  0  0  0  0  0  0  0  0  0  0
   37.6950   29.0330   32.1700 H   0  0  0  0  0  0  0  0  0  0  0  0
   37.8760   25.1570   30.8550 C   0  0  0  0  0  0  0  0  0  0  0  0
   36.9210   24.1050   30.8500 C   0  0  0  0  0  0  0  0  0  0  0  0
   35.5340   24.4420   31.0170 C   0  0  0  0  0  0  0  0  0  0  0  0
   35.2130   25.7510   31.1710 N   0  0  0  0  0  0  0  0  0  0  0  0
   36.1700   26.7180   31.1690 C   0  0  0  0  0  0  0  0  0  0  0  0
   37.4840   26.4620   31.0160 N   0  0  0  0  0  0  0  0  0  0  0  0
   38.8930   24.8290   30.7230 H   0  0  0  0  0  0  0  0  0  0  0  0
   37.2450   23.0840   30.7230 H   0  0  0  0  0  0  0  0  0  0  0  0
   34.8070   23.6590   31.0160 H   0  0  0  0  0  0  0  0  0  0  0  0
   35.6450   29.6940   34.2600 C   0  0  0  0  0  0  0  0  0  0  0  0
   36.0240   28.5750   34.6920 O   0  0  0  0  0  0  0  0  0  0  0  0
   35.9280   30.0490   32.9220 N   0  0  0  0  0  0  0  0  0  0  0  0
   35.6870   30.9580   32.5360 H   0  0  0  0  0  0  0  0  0  0  0  0
   36.7720   31.7330   36.0140 F   0  0  0  0  0  0  0  0  0  0  0  0
   35.4500   31.5000   36.0390 C   0  0  0  0  0  0  0  0  0  0  0  0
   34.9280   30.5380   35.2060 C   0  0  0  0  0  0  0  0  0  0  0  0
   33.5590   30.4150   35.3420 C   0  0  0  0  0  0  0  0  0  0  0  0
   33.0140   29.6870   34.7390 H   0  0  0  0  0  0  0  0  0  0  0  0
   32.7860   31.1560   36.2040 C   0  0  0  0  0  0  0  0  0  0  0  0
   31.7230   31.0090   36.2600 H   0  0  0  0  0  0  0  0  0  0  0  0
   33.3740   32.1040   37.0110 C   0  0  0  0  0  3  0  0  0  0  0  0
   34.7390   32.2750   36.9220 C   0  0  0  0  0  3  0  0  0  0  0  0
  1  4  1  1  0  0  0
  1  3  1  0  0  0  0
  2  1  1  0  0  0  0
  2  3  1  0  0  0  0
  3  7  1  1  0  0  0
  3 19  1  0  0  0  0
  5  2  1  0  0  0  0
  6  2  1  0  0  0  0
  8 13  1  0  0  0  0
  9  8  2  0  0  0  0
  9 10  1  0  0  0  0
 10 11  2  0  0  0  0
 12 11  1  0  0  0  0
 12  1  1  0  0  0  0
 13 12  2  0  0  0  0
 14  8  1  0  0  0  0
 15  9  1  0  0  0  0
 16 10  1  0  0  0  0
 17 18  2  0  0  0  0
 17 23  1  0  0  0  0
 19 17  1  0  0  0  0
 20 19  1  0  0  0  0
 21 22  1  0  0  0  0
 22 29  1  0  0  0  0
 23 24  1  0  0  0  0
 23 22  2  0  0  0  0
 24 26  2  0  0  0  0
 25 24  1  0  0  0  0
 26 27  1  0  0  0  0
 26 28  1  0  0  0  0
 29 28  2  0  0  0  0
M  END
>  <minimizedAffinity>
-5.0705142

$$$$

 OpenBabel03272508523D

 29 31  0  0  1  0  0  0  0  0999 V2000
   35.9520   27.3660   31.1730 C   0  0  2  0  0  0  0  0  0  0  0  0
   36.6450   28.3830   30.3880 C   0  0  0  0  0  0  0  0  0  0  0  0
   36.8170   28.2850   31.9130 C   0  0  1  0  0  0  0  0  0  0  0  0
   34.8500   27.4680   31.4390 H   0  0  0  0  0  0  0  0  0  0  0  0
   36.0450   29.2500   30.0640 H   0  0  0  0  0  0  0  0  0  0  0  0
   37.4880   28.1090   29.7280 H   0  0  0  0  0  0  0  0  0  0  0  0
   37.8940   28.1840   32.1220 H   0  0  0  0  0  0  0  0  0  0  0  0
   35.6450   23.6770   31.2390 C   0  0  0  0  0  0  0  0  0  0  0  0
   36.9880   23.2660   31.0260 C   0  0  0  0  0  0  0  0  0  0  0  0
   37.9930   24.2800   30.8600 C   0  0  0  0  0  0  0  0  0  0  0  0
   37.6030   25.5780   30.9170 N   0  0  0  0  0  0  0  0  0  0  0  0
   36.3010   25.9150   31.1230 C   0  0  0  0  0  0  0  0  0  0  0  0
   35.3160   25.0090   31.2850 N   0  0  0  0  0  0  0  0  0  0  0  0
   34.9490   22.8640   31.3560 H   0  0  0  0  0  0  0  0  0  0  0  0
   37.2310   22.2150   30.9920 H   0  0  0  0  0  0  0  0  0  0  0  0
   39.0080   23.9820   30.6990 H   0  0  0  0  0  0  0  0  0  0  0  0
   35.9200   29.1950   34.0330 C   0  0  0  0  0  0  0  0  0  0  0  0
   36.3500   28.1610   34.6060 O   0  0  0  0  0  0  0  0  0  0  0  0
   36.1450   29.3600   32.6480 N   0  0  0  0  0  0  0  0  0  0  0  0
   35.8600   30.1970   32.1450 H   0  0  0  0  0  0  0  0  0  0  0  0
   33.0360   29.4080   34.4180 F   0  0  0  0  0  0  0  0  0  0  0  0
   33.8520   30.2570   35.0620 C   0  0  0  0  0  0  0  0  0  0  0  0
   35.2100   30.1480   34.8750 C   0  0  0  0  0  0  0  0  0  0  0  0
   35.9160   31.0850   35.6030 C   0  0  0  0  0  0  0  0  0  0  0  0
   37.0060   31.1120   35.5490 H   0  0  0  0  0  0  0  0  0  0  0  0
   35.3490   32.0310   36.4250 C   0  0  0  0  0  0  0  0  0  0  0  0
   35.9580   32.7330   36.9640 H   0  0  0  0  0  0  0  0  0  0  0  0
   33.9800   32.0850   36.5660 C   0  0  0  0  0  3  0  0  0  0  0  0
   33.2190   31.1740   35.8650 C   0  0  0  0  0  3  0  0  0  0  0  0
  1  4  1  1  0  0  0
  1  3  1  0  0  0  0
  2  1  1  0  0  0  0
  2  3  1  0  0  0  0
  3  7  1  1  0  0  0
  3 19  1  0  0  0  0
  5  2  1  0  0  0  0
  6  2  1  0  0  0  0
  8 13  1  0  0  0  0
  8 14  1  0  0  0  0
  9  8  2  0  0  0  0
 10 11  2  0  0  0  0
 10  9  1  0  0  0  0
 11 12  1  0  0  0  0
 12  1  1  0  0  0  0
 12 13  2  0  0  0  0
 15  9  1  0  0  0  0
 16 10  1  0  0  0  0
 17 18  2  0  0  0  0
 17 23  1  0  0  0  0
 19 17  1  0  0  0  0
 20 19  1  0  0  0  0
 21 22  1  0  0  0  0
 22 29  1  0  0  0  0
 23 22  2  0  0  0  0
 23 24  1  0  0  0  0
 24 26  2  0  0  0  0
 25 24  1  0  0  0  0
 26 28  1  0  0  0  0
 26 27  1  0  0  0  0
 29 28  2  0  0  0  0
M  END
>  <minimizedAffinity>
-5.01711178

$$$$

 OpenBabel03272508523D

 29 31  0  0  1  0  0  0  0  0999 V2000
   36.1070   23.0980   31.2240 C   0  0  2  0  0  0  0  0  0  0  0  0
   37.3800   23.5930   30.7120 C   0  0  0  0  0  0  0  0  0  0  0  0
   36.8050   24.0810   32.0520 C   0  0  1  0  0  0  0  0  0  0  0  0
   35.1130   23.4740   30.8150 H   0  0  0  0  0  0  0  0  0  0  0  0
   37.3290   24.3460   29.9070 H   0  0  0  0  0  0  0  0  0  0  0  0
   38.2770   22.9470   30.7090 H   0  0  0  0  0  0  0  0  0  0  0  0
   37.5650   23.8980   32.8280 H   0  0  0  0  0  0  0  0  0  0  0  0
   35.4930   20.2610   33.5220 C   0  0  0  0  0  0  0  0  0  0  0  0
   35.5780   19.1470   32.6440 C   0  0  0  0  0  0  0  0  0  0  0  0
   35.8480   19.3940   31.2540 C   0  0  0  0  0  0  0  0  0  0  0  0
   36.0090   20.6810   30.8560 N   0  0  0  0  0  0  0  0  0  0  0  0
   35.9160   21.7100   31.7410 C   0  0  0  0  0  0  0  0  0  0  0  0
   35.6660   21.5400   33.0550 N   0  0  0  0  0  0  0  0  0  0  0  0
   35.2890   19.9990   34.5460 H   0  0  0  0  0  0  0  0  0  0  0  0
   35.4390   18.1470   33.0260 H   0  0  0  0  0  0  0  0  0  0  0  0
   35.9130   18.5630   30.5830 H   0  0  0  0  0  0  0  0  0  0  0  0
   36.8650   26.4200   32.8590 C   0  0  0  0  0  0  0  0  0  0  0  0
   37.8320   26.0930   33.5950 O   0  0  0  0  0  0  0  0  0  0  0  0
   36.2920   25.4530   32.0030 N   0  0  0  0  0  0  0  0  0  0  0  0
   35.5410   25.6750   31.3550 H   0  0  0  0  0  0  0  0  0  0  0  0
   36.3060   28.2690   30.6740 F   0  0  0  0  0  0  0  0  0  0  0  0
   36.1520   28.6820   31.9420 C   0  0  0  0  0  0  0  0  0  0  0  0
   36.4160   27.8020   32.9650 C   0  0  0  0  0  0  0  0  0  0  0  0
   36.2110   28.3670   34.2090 C   0  0  0  0  0  0  0  0  0  0  0  0
   36.3830   27.7790   35.1120 H   0  0  0  0  0  0  0  0  0  0  0  0
   35.7920   29.6590   34.4240 C   0  0  0  0  0  0  0  0  0  0  0  0
   35.6530   30.0370   35.4200 H   0  0  0  0  0  0  0  0  0  0  0  0
   35.5460   30.4880   33.3520 C   0  0  0  0  0  3  0  0  0  0  0  0
   35.7330   29.9810   32.0840 C   0  0  0  0  0  3  0  0  0  0  0  0
  1  4  1  6  0  0  0
  1 12  1  0  0  0  0
  1  3  1  0  0  0  0
  2  1  1  0  0  0  0
  2  3  1  0  0  0  0
  3  7  1  1  0  0  0
  5  2  1  0  0  0  0
  6  2  1  0  0  0  0
  8 14  1  0  0  0  0
  9 15  1  0  0  0  0
  9  8  2  0  0  0  0
 10  9  1  0  0  0  0
 11 10  2  0  0  0  0
 11 12  1  0  0  0  0
 12 13  2  0  0  0  0
 13  8  1  0  0  0  0
 16 10  1  0  0  0  0
 17 23  1  0  0  0  0
 17 18  2  0  0  0  0
 19  3  1  0  0  0  0
 19 17  1  0  0  0  0
 20 19  1  0  0  0  0
 21 22  1  0  0  0  0
 22 29  2  0  0  0  0
 22 23  1  0  0  0  0
 23 24  2  0  0  0  0
 24 26  1  0  0  0  0
 24 25  1  0  0  0  0
 26 27  1  0  0  0  0
 28 26  2  0  0  0  0
 29 28  1  0  0  0  0
M  END
>  <minimizedAffinity>
-4.90028334

$$$$

 OpenBabel03272508523D

 29 31  0  0  1  0  0  0  0  0999 V2000
   36.1460   28.0020   32.7840 C   0  0  2  0  0  0  0  0  0  0  0  0
   35.6970   28.6770   33.9970 C   0  0  0  0  0  0  0  0  0  0  0  0
   37.0640   27.9750   33.9220 C   0  0  1  0  0  0  0  0  0  0  0  0
   35.7530   26.9730   32.4930 H   0  0  0  0  0  0  0  0  0  0  0  0
   34.9560   28.1410   34.6140 H   0  0  0  0  0  0  0  0  0  0  0  0
   35.6550   29.7800   34.0470 H   0  0  0  0  0  0  0  0  0  0  0  0
   37.8330   28.7150   34.1920 H   0  0  0  0  0  0  0  0  0  0  0  0
   37.2660   28.6870   29.3220 C   0  0  0  0  0  0  0  0  0  0  0  0
   37.2690   30.1070   29.2890 C   0  0  0  0  0  0  0  0  0  0  0  0
   36.8790   30.8170   30.4760 C   0  0  0  0  0  0  0  0  0  0  0  0
   36.5290   30.0900   31.5660 N   0  0  0  0  0  0  0  0  0  0  0  0
   36.5440   28.7300   31.5410 C   0  0  0  0  0  0  0  0  0  0  0  0
   36.9000   28.0100   30.4580 N   0  0  0  0  0  0  0  0  0  0  0  0
   37.5700   28.2250   28.3980 H   0  0  0  0  0  0  0  0  0  0  0  0
   37.5580   30.6250   28.3880 H   0  0  0  0  0  0  0  0  0  0  0  0
   36.8770   31.8870   30.4620 H   0  0  0  0  0  0  0  0  0  0  0  0
   38.1840   26.5300   35.5910 C   0  0  0  0  0  0  0  0  0  0  0  0
   39.0170   27.4570   35.7660 O   0  0  0  0  0  0  0  0  0  0  0  0
   37.1200   26.7220   34.6820 N   0  0  0  0  0  0  0  0  0  0  0  0
   36.3930   26.0260   34.5380 H   0  0  0  0  0  0  0  0  0  0  0  0
   39.6650   24.1560   34.7680 F   0  0  0  0  0  0  0  0  0  0  0  0
   39.0970   24.1910   35.9840 C   0  0  0  0  0  0  0  0  0  0  0  0
   38.4030   25.3160   36.3640 C   0  0  0  0  0  0  0  0  0  0  0  0
   37.8810   25.2040   37.6380 C   0  0  0  0  0  0  0  0  0  0  0  0
   37.3050   26.0260   38.0660 H   0  0  0  0  0  0  0  0  0  0  0  0
   38.0240   24.1040   38.4510 C   0  0  0  0  0  0  0  0  0  0  0  0
   37.5900   24.0830   39.4340 H   0  0  0  0  0  0  0  0  0  0  0  0
   38.7320   23.0100   38.0080 C   0  0  0  0  0  3  0  0  0  0  0  0
   39.2790   23.0610   36.7430 C   0  0  0  0  0  3  0  0  0  0  0  0
  1  4  1  6  0  0  0
  1  3  1  0  0  0  0
  1  2  1  0  0  0  0
  2  6  1  0  0  0  0
  2  5  1  0  0  0  0
  3  2  1  0  0  0  0
  3  7  1  6  0  0  0
  3 19  1  0  0  0  0
  8 13  1  0  0  0  0
  9  8  2  0  0  0  0
  9 10  1  0  0  0  0
 10 11  2  0  0  0  0
 12 11  1  0  0  0  0
 12  1  1  0  0  0  0
 13 12  2  0  0  0  0
 14  8  1  0  0  0  0
 15  9  1  0  0  0  0
 16 10  1  0  0  0  0
 17 18  2  0  0  0  0
 17 23  1  0  0  0  0
 19 17  1  0  0  0  0
 20 19  1  0  0  0  0
 21 22  1  0  0  0  0
 22 23  2  0  0  0  0
 22 29  1  0  0  0  0
 23 24  1  0  0  0  0
 24 25  1  0  0  0  0
 24 26  2  0  0  0  0
 26 27  1  0  0  0  0
 28 26  1  0  0  0  0
 29 28  2  0  0  0  0
M  END
>  <minimizedAffinity>
-4.89628744

$$$$

 OpenBabel03272508523D

 29 31  0  0  1  0  0  0  0  0999 V2000
   37.7650   26.7230   32.2540 C   0  0  2  0  0  0  0  0  0  0  0  0
   37.4370   25.6110   31.3680 C   0  0  0  0  0  0  0  0  0  0  0  0
   37.0290   25.6080   32.8500 C   0  0  1  0  0  0  0  0  0  0  0  0
   38.8120   26.8560   32.6820 H   0  0  0  0  0  0  0  0  0  0  0  0
   38.2560   24.9110   31.1320 H   0  0  0  0  0  0  0  0  0  0  0  0
   36.6590   25.7190   30.5900 H   0  0  0  0  0  0  0  0  0  0  0  0
   35.9390   25.4620   32.8960 H   0  0  0  0  0  0  0  0  0  0  0  0
   35.7400   29.7080   33.0910 C   0  0  0  0  0  0  0  0  0  0  0  0
   35.9350   30.5260   31.9460 C   0  0  0  0  0  0  0  0  0  0  0  0
   36.7720   30.0310   30.8880 C   0  0  0  0  0  0  0  0  0  0  0  0
   37.3330   28.8050   31.0420 N   0  0  0  0  0  0  0  0  0  0  0  0
   37.1120   28.0640   32.1620 C   0  0  0  0  0  0  0  0  0  0  0  0
   36.3370   28.4750   33.1840 N   0  0  0  0  0  0  0  0  0  0  0  0
   35.1010   30.1440   33.8400 H   0  0  0  0  0  0  0  0  0  0  0  0
   35.4600   31.4930   31.8870 H   0  0  0  0  0  0  0  0  0  0  0  0
   36.9270   30.6380   30.0220 H   0  0  0  0  0  0  0  0  0  0  0  0
   38.0240   24.9920   35.0310 C   0  0  0  0  0  0  0  0  0  0  0  0
   37.4920   26.0250   35.5140 O   0  0  0  0  0  0  0  0  0  0  0  0
   37.8110   24.6780   33.6700 N   0  0  0  0  0  0  0  0  0  0  0  0
   38.1780   23.8320   33.2410 H   0  0  0  0  0  0  0  0  0  0  0  0
   37.3090   24.1300   37.7240 F   0  0  0  0  0  0  0  0  0  0  0  0
   38.5040   23.7880   37.2180 C   0  0  0  0  0  0  0  0  0  0  0  0
   38.8310   24.1970   35.9470 C   0  0  0  0  0  0  0  0  0  0  0  0
   40.0870   23.7690   35.5650 C   0  0  0  0  0  0  0  0  0  0  0  0
   40.4750   24.0230   34.5770 H   0  0  0  0  0  0  0  0  0  0  0  0
   40.9330   23.0190   36.3490 C   0  0  0  0  0  0  0  0  0  0  0  0
   41.9000   22.7180   35.9900 H   0  0  0  0  0  0  0  0  0  0  0  0
   40.5420   22.6430   37.6150 C   0  0  0  0  0  3  0  0  0  0  0  0
   39.2970   23.0400   38.0540 C   0  0  0  0  0  3  0  0  0  0  0  0
  1  4  1  1  0  0  0
  1  3  1  0  0  0  0
  2  1  1  0  0  0  0
  2  3  1  0  0  0  0
  3  7  1  1  0  0  0
  3 19  1  0  0  0  0
  5  2  1  0  0  0  0
  6  2  1  0  0  0  0
  8 13  1  0  0  0  0
  8 14  1  0  0  0  0
  9  8  2  0  0  0  0
 10 11  2  0  0  0  0
 10  9  1  0  0  0  0
 11 12  1  0  0  0  0
 12  1  1  0  0  0  0
 12 13  2  0  0  0  0
 15  9  1  0  0  0  0
 16 10  1  0  0  0  0
 17 18  2  0  0  0  0
 17 23  1  0  0  0  0
 19 17  1  0  0  0  0
 20 19  1  0  0  0  0
 22 21  1  0  0  0  0
 22 29  1  0  0  0  0
 23 22  2  0  0  0  0
 24 23  1  0  0  0  0
 24 26  2  0  0  0  0
 25 24  1  0  0  0  0
 26 28  1  0  0  0  0
 27 26  1  0  0  0  0
 28 29  2  0  0  0  0
M  END
>  <minimizedAffinity>
-4.87634993

$$$$

 OpenBabel03272508523D

 29 31  0  0  1  0  0  0  0  0999 V2000
   38.1890   23.8210   34.5510 C   0  0  2  0  0  0  0  0  0  0  0  0
   38.8510   23.0540   33.5020 C   0  0  0  0  0  0  0  0  0  0  0  0
   39.1350   24.5510   33.7080 C   0  0  1  0  0  0  0  0  0  0  0  0
   37.1140   24.1790   34.4410 H   0  0  0  0  0  0  0  0  0  0  0  0
   38.2550   22.8350   32.6000 H   0  0  0  0  0  0  0  0  0  0  0  0
   39.6330   22.3130   33.7520 H   0  0  0  0  0  0  0  0  0  0  0  0
   40.2210   24.6680   33.8490 H   0  0  0  0  0  0  0  0  0  0  0  0
   39.8350   22.7720   37.6970 C   0  0  0  0  0  0  0  0  0  0  0  0
   38.9940   23.3590   38.6800 C   0  0  0  0  0  0  0  0  0  0  0  0
   37.8560   24.1170   38.2380 C   0  0  0  0  0  0  0  0  0  0  0  0
   37.6480   24.2320   36.9030 N   0  0  0  0  0  0  0  0  0  0  0  0
   38.4880   23.6490   36.0050 C   0  0  0  0  0  0  0  0  0  0  0  0
   39.5690   22.9270   36.3600 N   0  0  0  0  0  0  0  0  0  0  0  0
   40.6660   22.2190   38.1030 H   0  0  0  0  0  0  0  0  0  0  0  0
   39.2160   23.2290   39.7280 H   0  0  0  0  0  0  0  0  0  0  0  0
   37.2150   24.5640   38.9690 H   0  0  0  0  0  0  0  0  0  0  0  0
   38.4620   26.7940   32.9060 C   0  0  0  0  0  0  0  0  0  0  0  0
   38.9310   27.2660   33.9740 O   0  0  0  0  0  0  0  0  0  0  0  0
   38.5530   25.4050   32.6670 N   0  0  0  0  0  0  0  0  0  0  0  0
   38.2340   24.9780   31.8020 H   0  0  0  0  0  0  0  0  0  0  0  0
   36.0590   28.3840   33.3620 F   0  0  0  0  0  0  0  0  0  0  0  0
   36.7180   28.5040   32.1990 C   0  0  0  0  0  0  0  0  0  0  0  0
   37.8510   27.7520   31.9950 C   0  0  0  0  0  0  0  0  0  0  0  0
   38.4190   27.9850   30.7570 C   0  0  0  0  0  0  0  0  0  0  0  0
   39.3260   27.4530   30.4630 H   0  0  0  0  0  0  0  0  0  0  0  0
   37.9260   28.8630   29.8200 C   0  0  0  0  0  0  0  0  0  0  0  0
   38.4170   28.9960   28.8740 H   0  0  0  0  0  0  0  0  0  0  0  0
   36.7850   29.5860   30.0900 C   0  0  0  0  0  3  0  0  0  0  0  0
   36.1720   29.3970   31.3100 C   0  0  0  0  0  3  0  0  0  0  0  0
  1  4  1  6  0  0  0
  1 12  1  0  0  0  0
  2  3  1  0  0  0  0
  2  6  1  0  0  0  0
  2  1  1  0  0  0  0
  3  7  1  1  0  0  0
  3  1  1  0  0  0  0
  5  2  1  0  0  0  0
  8 14  1  0  0  0  0
  8  9  1  0  0  0  0
  9 15  1  0  0  0  0
 10  9  2  0  0  0  0
 10 16  1  0  0  0  0
 11 10  1  0  0  0  0
 12 13  1  0  0  0  0
 12 11  2  0  0  0  0
 13  8  2  0  0  0  0
 17 18  2  0  0  0  0
 19 17  1  0  0  0  0
 19  3  1  0  0  0  0
 20 19  1  0  0  0  0
 22 21  1  0  0  0  0
 23 22  1  0  0  0  0
 23 17  1  0  0  0  0
 24 23  2  0  0  0  0
 25 24  1  0  0  0  0
 26 28  2  0  0  0  0
 26 24  1  0  0  0  0
 27 26  1  0  0  0  0
 28 29  1  0  0  0  0
 29 22  2  0  0  0  0
M  END
>  <minimizedAffinity>
-4.79090023

$$$$

 OpenBabel03272508523D

 29 31  0  0  1  0  0  0  0  0999 V2000
   37.8390   26.1130   31.6490 C   0  0  2  0  0  0  0  0  0  0  0  0
   37.2480   24.9180   31.0580 C   0  0  0  0  0  0  0  0  0  0  0  0
   37.0430   25.2700   32.5410 C   0  0  1  0  0  0  0  0  0  0  0  0
   38.9410   26.1570   31.9300 H   0  0  0  0  0  0  0  0  0  0  0  0
   37.9250   24.0620   30.8940 H   0  0  0  0  0  0  0  0  0  0  0  0
   36.3950   24.9960   30.3590 H   0  0  0  0  0  0  0  0  0  0  0  0
   35.9590   25.3120   32.7270 H   0  0  0  0  0  0  0  0  0  0  0  0
   37.2160   29.2920   29.8560 C   0  0  0  0  0  0  0  0  0  0  0  0
   36.4910   30.0380   30.8230 C   0  0  0  0  0  0  0  0  0  0  0  0
   36.2230   29.4270   32.0950 C   0  0  0  0  0  0  0  0  0  0  0  0
   36.6800   28.1670   32.3040 N   0  0  0  0  0  0  0  0  0  0  0  0
   37.3690   27.4980   31.3410 C   0  0  0  0  0  0  0  0  0  0  0  0
   37.6500   28.0190   30.1300 N   0  0  0  0  0  0  0  0  0  0  0  0
   37.3790   29.8140   28.9280 H   0  0  0  0  0  0  0  0  0  0  0  0
   36.1560   31.0380   30.5920 H   0  0  0  0  0  0  0  0  0  0  0  0
   35.6770   29.9800   32.8310 H   0  0  0  0  0  0  0  0  0  0  0  0
   38.0420   24.8620   34.7690 C   0  0  0  0  0  0  0  0  0  0  0  0
   37.5680   25.9700   35.1320 O   0  0  0  0  0  0  0  0  0  0  0  0
   37.7930   24.4040   33.4560 N   0  0  0  0  0  0  0  0  0  0  0  0
   38.1120   23.4970   33.1250 H   0  0  0  0  0  0  0  0  0  0  0  0
   37.1970   24.0660   37.4440 F   0  0  0  0  0  0  0  0  0  0  0  0
   38.4370   23.7630   37.0270 C   0  0  0  0  0  0  0  0  0  0  0  0
   38.8250   24.1410   35.7630 C   0  0  0  0  0  0  0  0  0  0  0  0
   40.1200   23.7590   35.4760 C   0  0  0  0  0  0  0  0  0  0  0  0
   40.5580   23.9950   34.5040 H   0  0  0  0  0  0  0  0  0  0  0  0
   40.9480   23.0790   36.3390 C   0  0  0  0  0  0  0  0  0  0  0  0
   41.9480   22.8120   36.0530 H   0  0  0  0  0  0  0  0  0  0  0  0
   40.4950   22.7310   37.5930 C   0  0  0  0  0  3  0  0  0  0  0  0
   39.2080   23.0850   37.9380 C   0  0  0  0  0  3  0  0  0  0  0  0
  1  4  1  1  0  0  0
  1  3  1  0  0  0  0
  2  1  1  0  0  0  0
  2  3  1  0  0  0  0
  3  7  1  1  0  0  0
  3 19  1  0  0  0  0
  5  2  1  0  0  0  0
  6  2  1  0  0  0  0
  8 13  2  0  0  0  0
  8  9  1  0  0  0  0
  9 10  2  0  0  0  0
 10 11  1  0  0  0  0
 10 16  1  0  0  0  0
 12  1  1  0  0  0  0
 12 11  2  0  0  0  0
 13 12  1  0  0  0  0
 14  8  1  0  0  0  0
 15  9  1  0  0  0  0
 17 18  2  0  0  0  0
 17 23  1  0  0  0  0
 19 17  1  0  0  0  0
 20 19  1  0  0  0  0
 22 21  1  0  0  0  0
 22 29  1  0  0  0  0
 23 22  2  0  0  0  0
 24 23  1  0  0  0  0
 24 26  2  0  0  0  0
 25 24  1  0  0  0  0
 26 28  1  0  0  0  0
 27 26  1  0  0  0  0
 28 29  2  0  0  0  0
M  END
>  <minimizedAffinity>
-4.75249863

$$$$

 OpenBabel03272508523D

 29 31  0  0  1  0  0  0  0  0999 V2000
   37.5480   27.9710   32.3540 C   0  0  2  0  0  0  0  0  0  0  0  0
   36.9230   26.7670   32.8900 C   0  0  0  0  0  0  0  0  0  0  0  0
   36.1280   28.0690   32.6930 C   0  0  1  0  0  0  0  0  0  0  0  0
   38.2140   28.6340   32.9970 H   0  0  0  0  0  0  0  0  0  0  0  0
   37.1320   26.5310   33.9470 H   0  0  0  0  0  0  0  0  0  0  0  0
   36.7150   25.9000   32.2370 H   0  0  0  0  0  0  0  0  0  0  0  0
   35.2610   27.8370   32.0560 H   0  0  0  0  0  0  0  0  0  0  0  0
   39.4330   27.5590   29.1940 C   0  0  0  0  0  0  0  0  0  0  0  0
   38.7070   28.3970   28.3070 C   0  0  0  0  0  0  0  0  0  0  0  0
   37.5630   29.1020   28.8160 C   0  0  0  0  0  0  0  0  0  0  0  0
   37.2380   28.9260   30.1220 N   0  0  0  0  0  0  0  0  0  0  0  0
   37.9700   28.1090   30.9280 C   0  0  0  0  0  0  0  0  0  0  0  0
   39.0510   27.4250   30.5060 N   0  0  0  0  0  0  0  0  0  0  0  0
   40.2760   27.0650   28.7420 H   0  0  0  0  0  0  0  0  0  0  0  0
   39.0180   28.4920   27.2780 H   0  0  0  0  0  0  0  0  0  0  0  0
   37.0080   29.7350   28.1570 H   0  0  0  0  0  0  0  0  0  0  0  0
   34.7750   29.7190   33.9470 C   0  0  0  0  0  0  0  0  0  0  0  0
   34.1280   29.9240   32.8880 O   0  0  0  0  0  0  0  0  0  0  0  0
   35.8060   28.7530   33.9490 N   0  0  0  0  0  0  0  0  0  0  0  0
   36.3290   28.5140   34.7880 H   0  0  0  0  0  0  0  0  0  0  0  0
   36.4670   31.5310   35.4840 F   0  0  0  0  0  0  0  0  0  0  0  0
   35.1810   31.3750   35.8330 C   0  0  0  0  0  0  0  0  0  0  0  0
   34.3900   30.5210   35.1010 C   0  0  0  0  0  0  0  0  0  0  0  0
   33.0950   30.4680   35.5770 C   0  0  0  0  0  0  0  0  0  0  0  0
   32.3590   29.8270   35.0880 H   0  0  0  0  0  0  0  0  0  0  0  0
   32.6250   31.1780   36.6570 C   0  0  0  0  0  0  0  0  0  0  0  0
   31.6040   31.0900   36.9760 H   0  0  0  0  0  0  0  0  0  0  0  0
   33.4720   32.0170   37.3470 C   0  0  0  0  0  3  0  0  0  0  0  0
   34.7790   32.1130   36.9200 C   0  0  0  0  0  3  0  0  0  0  0  0
  1  3  1  0  0  0  0
  1  2  1  0  0  0  0
  1  4  1  1  0  0  0
  2  5  1  0  0  0  0
  3  7  1  6  0  0  0
  3  2  1  0  0  0  0
  3 19  1  0  0  0  0
  6  2  1  0  0  0  0
  8 13  1  0  0  0  0
  9 10  1  0  0  0  0
  9  8  2  0  0  0  0
 10 11  2  0  0  0  0
 11 12  1  0  0  0  0
 12  1  1  0  0  0  0
 13 12  2  0  0  0  0
 14  8  1  0  0  0  0
 15  9  1  0  0  0  0
 16 10  1  0  0  0  0
 17 19  1  0  0  0  0
 17 23  1  0  0  0  0
 18 17  2  0  0  0  0
 19 20  1  0  0  0  0
 21 22  1  0  0  0  0
 22 29  1  0  0  0  0
 23 24  1  0  0  0  0
 23 22  2  0  0  0  0
 24 26  2  0  0  0  0
 25 24  1  0  0  0  0
 26 27  1  0  0  0  0
 26 28  1  0  0  0  0
 29 28  2  0  0  0  0
M  END
>  <minimizedAffinity>
-4.73502827

$$$$

 OpenBabel03272508523D

 29 31  0  0  1  0  0  0  0  0999 V2000
   38.4070   25.8620   35.0340 C   0  0  2  0  0  0  0  0  0  0  0  0
   39.2340   27.0480   34.8370 C   0  0  0  0  0  0  0  0  0  0  0  0
   37.7720   27.1520   35.3030 C   0  0  1  0  0  0  0  0  0  0  0  0
   37.9470   25.3040   34.1560 H   0  0  0  0  0  0  0  0  0  0  0  0
   39.3910   27.3720   33.7940 H   0  0  0  0  0  0  0  0  0  0  0  0
   40.0470   27.2940   35.5430 H   0  0  0  0  0  0  0  0  0  0  0  0
   37.7610   27.7210   36.2450 H   0  0  0  0  0  0  0  0  0  0  0  0
   38.0640   24.1580   38.3040 C   0  0  0  0  0  0  0  0  0  0  0  0
   39.0220   23.1160   38.1940 C   0  0  0  0  0  0  0  0  0  0  0  0
   39.7830   23.0130   36.9790 C   0  0  0  0  0  0  0  0  0  0  0  0
   39.5430   23.9210   36.0000 N   0  0  0  0  0  0  0  0  0  0  0  0
   38.6110   24.9000   36.1590 C   0  0  0  0  0  0  0  0  0  0  0  0
   37.8690   25.0460   37.2750 N   0  0  0  0  0  0  0  0  0  0  0  0
   37.5350   24.1730   39.2410 H   0  0  0  0  0  0  0  0  0  0  0  0
   39.1640   22.4250   39.0110 H   0  0  0  0  0  0  0  0  0  0  0  0
   40.5070   22.2310   36.8850 H   0  0  0  0  0  0  0  0  0  0  0  0
   36.2510   28.9140   34.4610 C   0  0  0  0  0  0  0  0  0  0  0  0
   36.5440   29.5900   35.4810 O   0  0  0  0  0  0  0  0  0  0  0  0
   36.8630   27.6560   34.2680 N   0  0  0  0  0  0  0  0  0  0  0  0
   36.6980   27.0900   33.4390 H   0  0  0  0  0  0  0  0  0  0  0  0
   33.3750   29.1750   34.8700 F   0  0  0  0  0  0  0  0  0  0  0  0
   33.9240   29.6360   33.7350 C   0  0  0  0  0  0  0  0  0  0  0  0
   35.2810   29.5100   33.5530 C   0  0  0  0  0  0  0  0  0  0  0  0
   35.6970   30.0310   32.3430 C   0  0  0  0  0  0  0  0  0  0  0  0
   36.7530   29.9980   32.0680 H   0  0  0  0  0  0  0  0  0  0  0  0
   34.8690   30.6130   31.4110 C   0  0  0  0  0  0  0  0  0  0  0  0
   35.2590   30.9980   30.4880 H   0  0  0  0  0  0  0  0  0  0  0  0
   33.5170   30.7060   31.6590 C   0  0  0  0  0  3  0  0  0  0  0  0
   33.0400   30.2030   32.8500 C   0  0  0  0  0  3  0  0  0  0  0  0
  1  4  1  6  0  0  0
  1  3  1  0  0  0  0
  1 12  1  0  0  0  0
  2  1  1  0  0  0  0
  2  3  1  0  0  0  0
  2  6  1  0  0  0  0
  3  7  1  1  0  0  0
  5  2  1  0  0  0  0
  8 14  1  0  0  0  0
  9  8  1  0  0  0  0
  9 15  1  0  0  0  0
 10  9  2  0  0  0  0
 11 12  2  0  0  0  0
 11 10  1  0  0  0  0
 12 13  1  0  0  0  0
 13  8  2  0  0  0  0
 16 10  1  0  0  0  0
 17 18  2  0  0  0  0
 19 17  1  0  0  0  0
 19  3  1  0  0  0  0
 20 19  1  0  0  0  0
 22 21  1  0  0  0  0
 23 22  1  0  0  0  0
 23 17  1  0  0  0  0
 24 23  2  0  0  0  0
 25 24  1  0  0  0  0
 26 28  2  0  0  0  0
 26 24  1  0  0  0  0
 27 26  1  0  0  0  0
 28 29  1  0  0  0  0
 29 22  2  0  0  0  0
M  END
>  <minimizedAffinity>
-4.70173407

$$$$
