
 OpenBabel03272508423D

 20 21  0  0  0  0  0  0  0  0999 V2000
   34.5450   29.7180   49.9290 C   0  0  0  0  0  0  0  0  0  0  0  0
   33.7540   29.7840   50.8950 O   0  0  0  0  0  0  0  0  0  0  0  0
   33.8770   26.9910   47.6290 C   0  0  0  0  0  0  0  0  0  0  0  0
   33.7220   27.6340   46.3930 C   0  0  0  0  0  0  0  0  0  0  0  0
   33.8500   29.0330   46.3520 C   0  0  0  0  0  0  0  0  0  0  0  0
   34.1200   29.6940   47.5180 N   0  0  0  0  0  0  0  0  0  0  0  0
   34.2610   29.0440   48.6730 C   0  0  0  0  0  0  0  0  0  0  0  0
   34.1440   27.7230   48.7350 N   0  0  0  0  0  0  0  0  0  0  0  0
   33.7660   25.9150   47.5890 H   0  0  0  0  0  0  0  0  0  0  0  0
   33.5080   27.1480   45.4510 H   0  0  0  0  0  0  0  0  0  0  0  0
   33.7510   29.6360   45.4620 H   0  0  0  0  0  0  0  0  0  0  0  0
   36.9450   28.2690   50.3750 F   0  0  0  0  0  0  0  0  0  0  0  0
   37.0480   29.5940   50.1560 C   0  0  0  0  0  0  0  0  0  0  0  0
   35.8810   30.3180   49.9350 C   0  0  0  0  0  0  0  0  0  0  0  0
   36.0310   31.6900   49.7120 C   0  0  0  0  0  0  0  0  0  0  0  0
   35.1110   32.2370   49.5420 H   0  0  0  0  0  0  0  0  0  0  0  0
   37.2450   32.3540   49.6970 C   0  0  0  0  0  0  0  0  0  0  0  0
   37.2020   33.4270   49.5090 H   0  0  0  0  0  0  0  0  0  0  0  0
   38.3860   31.6070   49.9190 C   0  0  0  0  0  0  0  0  0  0  0  0
   38.2530   30.2510   50.1420 C   0  0  0  0  0  0  0  0  0  0  0  0
  1 14  1  0  0  0  0
  1  2  2  0  0  0  0
  3  8  1  0  0  0  0
  4  3  2  0  0  0  0
  5  4  1  0  0  0  0
  5  6  2  0  0  0  0
  6  7  1  0  0  0  0
  7  8  2  0  0  0  0
  7  1  1  0  0  0  0
  9  3  1  0  0  0  0
 10  4  1  0  0  0  0
 11  5  1  0  0  0  0
 13 12  1  0  0  0  0
 14 13  2  0  0  0  0
 15 14  1  0  0  0  0
 16 15  1  0  0  0  0
 17 15  2  0  0  0  0
 17 19  1  0  0  0  0
 18 17  1  0  0  0  0
 19 20  2  0  0  0  0
 20 13  1  0  0  0  0
M  END
>  <minimizedAffinity>
-4.65039968

>  <minimizedRMSD>
5.01709986

$$$$
