
 OpenBabel03272507433D

 41 44  0  0  0  0  0  0  0  0999 V2000
   38.0070   25.3150   31.2800 C   0  0  0  0  0  0  0  0  0  0  0  0
   38.3730   24.1140   30.6610 C   0  0  0  0  0  0  0  0  0  0  0  0
   39.1550   24.0730   29.5410 C   0  0  0  0  0  0  0  0  0  0  0  0
   39.5770   25.2650   29.0370 N   0  0  0  0  0  0  0  0  0  0  0  0
   39.2240   26.4400   29.6350 C   0  0  0  0  0  0  0  0  0  0  0  0
   38.4620   26.4450   30.7230 N   0  0  0  0  0  0  0  0  0  0  0  0
   39.4730   23.2090   29.0200 H   0  0  0  0  0  0  0  0  0  0  0  0
   39.5950   27.3490   29.1800 H   0  0  0  0  0  0  0  0  0  0  0  0
   36.6410   22.3930   31.0150 C   0  0  0  0  0  0  0  0  0  0  0  0
   35.5490   23.0480   30.7030 O   0  0  0  0  0  0  0  0  0  0  0  0
   37.9770   22.8310   31.0900 N   0  0  0  0  0  0  0  0  0  0  0  0
   38.7960   22.3290   31.4480 H   0  0  0  0  0  0  0  0  0  0  0  0
   35.0180   21.4090   33.2350 F   0  0  0  0  0  0  0  0  0  0  0  0
   35.5450   20.5330   32.3560 C   0  0  0  0  0  0  0  0  0  0  0  0
   36.3220   20.9990   31.3190 C   0  0  0  0  0  0  0  0  0  0  0  0
   36.7740   19.9380   30.5440 C   0  0  0  0  0  0  0  0  0  0  0  0
   37.4130   20.1330   29.6700 H   0  0  0  0  0  0  0  0  0  0  0  0
   36.5120   18.6030   30.7430 C   0  0  0  0  0  0  0  0  0  0  0  0
   36.9020   17.8370   30.0940 H   0  0  0  0  0  0  0  0  0  0  0  0
   35.7240   18.2430   31.8050 C   0  0  0  0  0  3  0  0  0  0  0  0
   35.2360   19.2390   32.6220 C   0  0  0  0  0  3  0  0  0  0  0  0
   37.2320   25.1420   32.3720 O   0  0  0  0  0  0  0  0  0  0  0  0
   37.9670   24.7040   34.6910 C   0  0  0  0  0  0  0  0  0  0  0  0
   37.5850   25.5330   33.6550 C   0  0  0  0  0  0  0  0  0  0  0  0
   37.5240   26.9060   33.8370 C   0  0  0  0  0  0  0  0  0  0  0  0
   37.8520   27.4440   35.0800 C   0  0  0  0  0  0  0  0  0  0  0  0
   38.2340   26.6090   36.1130 C   0  0  0  0  0  0  0  0  0  0  0  0
   38.2790   25.2580   35.8850 C   0  0  0  0  0  0  0  0  0  0  0  0
   37.2390   27.6060   33.0890 H   0  0  0  0  0  0  0  0  0  0  0  0
   37.8130   28.5120   35.2500 H   0  0  0  0  0  0  0  0  0  0  0  0
   38.4810   27.0640   37.0640 H   0  0  0  0  0  0  0  0  0  0  0  0
   38.6920   24.3670   37.0060 C   0  0  0  0  0  0  0  0  0  0  0  0
   38.1270   24.1990   38.2480 C   0  0  0  0  0  0  0  0  0  0  0  0
   38.8860   23.2510   38.9270 C   0  0  0  0  0  0  0  0  0  0  0  0
   39.8790   22.8980   38.0420 C   0  0  0  0  0  0  0  0  0  0  0  0
   39.7540   23.5660   36.9060 O   0  0  0  0  0  0  0  0  0  0  0  0
   37.2450   24.7410   38.5760 H   0  0  0  0  0  0  0  0  0  0  0  0
   38.6550   22.9360   39.9270 H   0  0  0  0  0  0  0  0  0  0  0  0
   40.6350   22.1650   38.2990 H   0  0  0  0  0  0  0  0  0  0  0  0
   38.0470   22.1710   34.1940 N   0  0  0  0  0  0  0  0  0  0  0  0
   38.0030   23.3000   34.4180 C   0  0  0  0  0  0  0  0  0  0  0  0
  1 22  1  0  0  0  0
  2 11  1  0  0  0  0
  2  1  2  0  0  0  0
  3  2  1  0  0  0  0
  4  3  2  0  0  0  0
  4  5  1  0  0  0  0
  5  6  2  0  0  0  0
  6  1  1  0  0  0  0
  7  3  1  0  0  0  0
  8  5  1  0  0  0  0
  9 11  1  0  0  0  0
  9 15  1  0  0  0  0
 10  9  2  0  0  0  0
 11 12  1  0  0  0  0
 14 21  1  0  0  0  0
 14 13  1  0  0  0  0
 15 14  2  0  0  0  0
 16 18  2  0  0  0  0
 16 15  1  0  0  0  0
 17 16  1  0  0  0  0
 18 20  1  0  0  0  0
 19 18  1  0  0  0  0
 20 21  2  0  0  0  0
 22 24  1  0  0  0  0
 23 28  1  0  0  0  0
 24 25  1  0  0  0  0
 24 23  2  0  0  0  0
 25 26  2  0  0  0  0
 26 30  1  0  0  0  0
 26 27  1  0  0  0  0
 27 31  1  0  0  0  0
 28 27  2  0  0  0  0
 28 32  1  0  0  0  0
 29 25  1  0  0  0  0
 32 33  2  0  0  0  0
 33 37  1  0  0  0  0
 33 34  1  0  0  0  0
 34 38  1  0  0  0  0
 35 39  1  0  0  0  0
 35 34  2  0  0  0  0
 36 32  1  0  0  0  0
 36 35  1  0  0  0  0
 40 41  3  0  0  0  0
 41 23  1  0  0  0  0
M  END
>  <minimizedAffinity>
-6.26677132

$$$$

 OpenBabel03272507433D

 41 44  0  0  0  0  0  0  0  0999 V2000
   37.7470   27.1970   33.0440 C   0  0  0  0  0  0  0  0  0  0  0  0
   36.5660   27.9470   32.9960 C   0  0  0  0  0  0  0  0  0  0  0  0
   35.8280   28.0840   31.8540 C   0  0  0  0  0  0  0  0  0  0  0  0
   36.2880   27.4520   30.7400 N   0  0  0  0  0  0  0  0  0  0  0  0
   37.4400   26.7200   30.7780 C   0  0  0  0  0  0  0  0  0  0  0  0
   38.1340   26.6060   31.9040 N   0  0  0  0  0  0  0  0  0  0  0  0
   34.9290   28.6300   31.7410 H   0  0  0  0  0  0  0  0  0  0  0  0
   37.7470   26.2460   29.8560 H   0  0  0  0  0  0  0  0  0  0  0  0
   35.6510   30.0090   33.9940 C   0  0  0  0  0  0  0  0  0  0  0  0
   35.8560   30.8800   33.0360 O   0  0  0  0  0  0  0  0  0  0  0  0
   36.0130   28.6510   34.0840 N   0  0  0  0  0  0  0  0  0  0  0  0
   35.9430   28.0230   34.8910 H   0  0  0  0  0  0  0  0  0  0  0  0
   36.7200   31.9300   35.9180 F   0  0  0  0  0  0  0  0  0  0  0  0
   35.4280   31.5550   36.0000 C   0  0  0  0  0  0  0  0  0  0  0  0
   34.9320   30.6380   35.1000 C   0  0  0  0  0  0  0  0  0  0  0  0
   33.5920   30.3810   35.3670 C   0  0  0  0  0  0  0  0  0  0  0  0
   33.0370   29.6680   34.7420 H   0  0  0  0  0  0  0  0  0  0  0  0
   32.8320   30.9370   36.3710 C   0  0  0  0  0  0  0  0  0  0  0  0
   31.7940   30.6850   36.5130 H   0  0  0  0  0  0  0  0  0  0  0  0
   33.4220   31.8420   37.2130 C   0  0  0  0  0  3  0  0  0  0  0  0
   34.7500   32.1500   37.0130 C   0  0  0  0  0  3  0  0  0  0  0  0
   38.3270   27.1850   34.2620 O   0  0  0  0  0  0  0  0  0  0  0  0
   39.9450   25.4110   34.8520 C   0  0  0  0  0  0  0  0  0  0  0  0
   38.7160   26.0370   34.9350 C   0  0  0  0  0  0  0  0  0  0  0  0
   37.7210   25.5270   35.7540 C   0  0  0  0  0  0  0  0  0  0  0  0
   37.9700   24.3730   36.4940 C   0  0  0  0  0  0  0  0  0  0  0  0
   39.2010   23.7510   36.4050 C   0  0  0  0  0  0  0  0  0  0  0  0
   40.1550   24.2920   35.5830 C   0  0  0  0  0  0  0  0  0  0  0  0
   36.7520   25.9520   35.8700 H   0  0  0  0  0  0  0  0  0  0  0  0
   37.2100   23.9530   37.1400 H   0  0  0  0  0  0  0  0  0  0  0  0
   39.3580   22.8560   36.9950 H   0  0  0  0  0  0  0  0  0  0  0  0
   41.4790   23.6130   35.4960 C   0  0  0  0  0  0  0  0  0  0  0  0
   42.6310   23.8420   36.2100 C   0  0  0  0  0  0  0  0  0  0  0  0
   43.5900   22.9430   35.7530 C   0  0  0  0  0  0  0  0  0  0  0  0
   42.9500   22.2150   34.7760 C   0  0  0  0  0  0  0  0  0  0  0  0
   41.6990   22.6210   34.6320 O   0  0  0  0  0  0  0  0  0  0  0  0
   42.7090   24.6040   36.9790 H   0  0  0  0  0  0  0  0  0  0  0  0
   44.5870   22.9120   36.1510 H   0  0  0  0  0  0  0  0  0  0  0  0
   43.4570   21.4260   34.2320 H   0  0  0  0  0  0  0  0  0  0  0  0
   41.7080   26.4670   33.2890 N   0  0  0  0  0  0  0  0  0  0  0  0
   40.9160   26.0030   33.9830 C   0  0  0  0  0  0  0  0  0  0  0  0
  1 22  1  0  0  0  0
  2  1  1  0  0  0  0
  2 11  1  0  0  0  0
  3  2  2  0  0  0  0
  4  5  2  0  0  0  0
  4  3  1  0  0  0  0
  5  6  1  0  0  0  0
  6  1  2  0  0  0  0
  7  3  1  0  0  0  0
  8  5  1  0  0  0  0
  9 11  1  0  0  0  0
  9 15  1  0  0  0  0
 10  9  2  0  0  0  0
 11 12  1  0  0  0  0
 13 14  1  0  0  0  0
 14 21  1  0  0  0  0
 15 16  1  0  0  0  0
 15 14  2  0  0  0  0
 16 18  2  0  0  0  0
 17 16  1  0  0  0  0
 18 19  1  0  0  0  0
 18 20  1  0  0  0  0
 21 20  2  0  0  0  0
 22 24  1  0  0  0  0
 23 24  2  0  0  0  0
 23 28  1  0  0  0  0
 24 25  1  0  0  0  0
 25 29  1  0  0  0  0
 25 26  2  0  0  0  0
 26 30  1  0  0  0  0
 27 26  1  0  0  0  0
 27 31  1  0  0  0  0
 28 27  2  0  0  0  0
 32 28  1  0  0  0  0
 32 33  2  0  0  0  0
 33 37  1  0  0  0  0
 34 38  1  0  0  0  0
 34 33  1  0  0  0  0
 35 34  2  0  0  0  0
 36 35  1  0  0  0  0
 36 32  1  0  0  0  0
 39 35  1  0  0  0  0
 40 41  3  0  0  0  0
 41 23  1  0  0  0  0
M  END
>  <minimizedAffinity>
-6.13049316

$$$$

 OpenBabel03272507433D

 41 44  0  0  0  0  0  0  0  0999 V2000
   36.3170   28.5210   31.7690 C   0  0  0  0  0  0  0  0  0  0  0  0
   36.1990   29.9130   31.8740 C   0  0  0  0  0  0  0  0  0  0  0  0
   36.4980   30.7550   30.8400 C   0  0  0  0  0  0  0  0  0  0  0  0
   36.9220   30.1850   29.6790 N   0  0  0  0  0  0  0  0  0  0  0  0
   37.0400   28.8300   29.5690 C   0  0  0  0  0  0  0  0  0  0  0  0
   36.7420   28.0380   30.5930 N   0  0  0  0  0  0  0  0  0  0  0  0
   36.4330   31.8110   30.8430 H   0  0  0  0  0  0  0  0  0  0  0  0
   37.3840   28.4460   28.6180 H   0  0  0  0  0  0  0  0  0  0  0  0
   34.4550   30.5740   33.4880 C   0  0  0  0  0  0  0  0  0  0  0  0
   33.3770   30.0780   32.9300 O   0  0  0  0  0  0  0  0  0  0  0  0
   35.7870   30.6020   33.0300 N   0  0  0  0  0  0  0  0  0  0  0  0
   36.5900   31.0970   33.4320 H   0  0  0  0  0  0  0  0  0  0  0  0
   36.2800   31.0570   35.7160 F   0  0  0  0  0  0  0  0  0  0  0  0
   34.9840   31.4130   35.8280 C   0  0  0  0  0  0  0  0  0  0  0  0
   34.1240   31.1700   34.7800 C   0  0  0  0  0  0  0  0  0  0  0  0
   32.8410   31.5970   35.1040 C   0  0  0  0  0  0  0  0  0  0  0  0
   32.0250   31.4770   34.3780 H   0  0  0  0  0  0  0  0  0  0  0  0
   32.4430   32.1820   36.2840 C   0  0  0  0  0  0  0  0  0  0  0  0
   31.4250   32.4870   36.4600 H   0  0  0  0  0  0  0  0  0  0  0  0
   33.3790   32.3820   37.2640 C   0  0  0  0  0  3  0  0  0  0  0  0
   34.6750   31.9840   37.0190 C   0  0  0  0  0  3  0  0  0  0  0  0
   35.9750   27.8660   32.8980 O   0  0  0  0  0  0  0  0  0  0  0  0
   37.3390   25.9340   33.6150 C   0  0  0  0  0  0  0  0  0  0  0  0
   36.8730   27.2280   33.7390 C   0  0  0  0  0  0  0  0  0  0  0  0
   37.3000   28.0330   34.7830 C   0  0  0  0  0  0  0  0  0  0  0  0
   38.2070   27.5240   35.7110 C   0  0  0  0  0  0  0  0  0  0  0  0
   38.6690   26.2280   35.5810 C   0  0  0  0  0  0  0  0  0  0  0  0
   38.2190   25.4690   34.5330 C   0  0  0  0  0  0  0  0  0  0  0  0
   36.9860   29.0370   34.9440 H   0  0  0  0  0  0  0  0  0  0  0  0
   38.5570   28.1310   36.5360 H   0  0  0  0  0  0  0  0  0  0  0  0
   39.3730   25.8670   36.3210 H   0  0  0  0  0  0  0  0  0  0  0  0
   38.7240   24.0730   34.4020 C   0  0  0  0  0  0  0  0  0  0  0  0
   39.8880   23.6110   33.8350 C   0  0  0  0  0  0  0  0  0  0  0  0
   39.8940   22.2260   33.9670 C   0  0  0  0  0  0  0  0  0  0  0  0
   38.7160   21.9300   34.6140 C   0  0  0  0  0  0  0  0  0  0  0  0
   38.0310   23.0340   34.8670 O   0  0  0  0  0  0  0  0  0  0  0  0
   40.6270   24.2650   33.3840 H   0  0  0  0  0  0  0  0  0  0  0  0
   40.6990   21.6150   33.6030 H   0  0  0  0  0  0  0  0  0  0  0  0
   38.4410   20.9100   34.8570 H   0  0  0  0  0  0  0  0  0  0  0  0
   36.4650   24.5480   31.6190 N   0  0  0  0  0  0  0  0  0  0  0  0
   36.8470   25.1710   32.5090 C   0  0  0  0  0  0  0  0  0  0  0  0
  1  2  1  0  0  0  0
  1 22  1  0  0  0  0
  2 11  1  0  0  0  0
  3  7  1  0  0  0  0
  3  2  2  0  0  0  0
  4  3  1  0  0  0  0
  5  4  2  0  0  0  0
  5  6  1  0  0  0  0
  6  1  2  0  0  0  0
  8  5  1  0  0  0  0
  9 15  1  0  0  0  0
 10  9  2  0  0  0  0
 11 12  1  0  0  0  0
 11  9  1  0  0  0  0
 13 14  1  0  0  0  0
 14 21  1  0  0  0  0
 15 16  1  0  0  0  0
 15 14  2  0  0  0  0
 16 18  2  0  0  0  0
 17 16  1  0  0  0  0
 18 19  1  0  0  0  0
 18 20  1  0  0  0  0
 21 20  2  0  0  0  0
 22 24  1  0  0  0  0
 23 24  2  0  0  0  0
 23 28  1  0  0  0  0
 24 25  1  0  0  0  0
 25 29  1  0  0  0  0
 25 26  2  0  0  0  0
 26 30  1  0  0  0  0
 27 26  1  0  0  0  0
 27 31  1  0  0  0  0
 28 27  2  0  0  0  0
 32 28  1  0  0  0  0
 32 36  1  0  0  0  0
 33 34  1  0  0  0  0
 33 32  2  0  0  0  0
 34 35  2  0  0  0  0
 35 39  1  0  0  0  0
 35 36  1  0  0  0  0
 37 33  1  0  0  0  0
 38 34  1  0  0  0  0
 40 41  3  0  0  0  0
 41 23  1  0  0  0  0
M  END
>  <minimizedAffinity>
-6.01950121

$$$$

 OpenBabel03272507433D

 41 44  0  0  0  0  0  0  0  0999 V2000
   36.0550   28.7280   32.6940 C   0  0  0  0  0  0  0  0  0  0  0  0
   36.8710   27.6190   32.4430 C   0  0  0  0  0  0  0  0  0  0  0  0
   37.5920   27.4830   31.2900 C   0  0  0  0  0  0  0  0  0  0  0  0
   37.4890   28.4840   30.3730 N   0  0  0  0  0  0  0  0  0  0  0  0
   36.6950   29.5680   30.6110 C   0  0  0  0  0  0  0  0  0  0  0  0
   36.0070   29.6710   31.7410 N   0  0  0  0  0  0  0  0  0  0  0  0
   38.2280   26.6780   31.0300 H   0  0  0  0  0  0  0  0  0  0  0  0
   36.6590   30.3250   29.8380 H   0  0  0  0  0  0  0  0  0  0  0  0
   38.1370   26.4150   34.1850 C   0  0  0  0  0  0  0  0  0  0  0  0
   39.2220   27.1450   34.2760 O   0  0  0  0  0  0  0  0  0  0  0  0
   37.0350   26.5240   33.3150 N   0  0  0  0  0  0  0  0  0  0  0  0
   36.2540   25.8720   33.1870 H   0  0  0  0  0  0  0  0  0  0  0  0
   38.1690   26.7190   37.0900 F   0  0  0  0  0  0  0  0  0  0  0  0
   38.1660   25.4830   36.5490 C   0  0  0  0  0  0  0  0  0  0  0  0
   38.1660   25.3440   35.1800 C   0  0  0  0  0  0  0  0  0  0  0  0
   38.1780   23.9980   34.8340 C   0  0  0  0  0  0  0  0  0  0  0  0
   38.1810   23.7050   33.7750 H   0  0  0  0  0  0  0  0  0  0  0  0
   38.1890   22.9280   35.6980 C   0  0  0  0  0  0  0  0  0  0  0  0
   38.1980   21.9080   35.3500 H   0  0  0  0  0  0  0  0  0  0  0  0
   38.1860   23.1740   37.0460 C   0  0  0  0  0  3  0  0  0  0  0  0
   38.1750   24.4850   37.4680 C   0  0  0  0  0  3  0  0  0  0  0  0
   35.4280   28.6750   33.8880 O   0  0  0  0  0  0  0  0  0  0  0  0
   33.7460   30.2660   34.7540 C   0  0  0  0  0  0  0  0  0  0  0  0
   35.0340   29.7860   34.6180 C   0  0  0  0  0  0  0  0  0  0  0  0
   36.0930   30.4230   35.2450 C   0  0  0  0  0  0  0  0  0  0  0  0
   35.8470   31.5580   36.0170 C   0  0  0  0  0  0  0  0  0  0  0  0
   34.5560   32.0330   36.1490 C   0  0  0  0  0  0  0  0  0  0  0  0
   33.5410   31.3700   35.5100 C   0  0  0  0  0  0  0  0  0  0  0  0
   37.1090   30.1140   35.1870 H   0  0  0  0  0  0  0  0  0  0  0  0
   36.6550   32.0750   36.5170 H   0  0  0  0  0  0  0  0  0  0  0  0
   34.4040   32.9170   36.7560 H   0  0  0  0  0  0  0  0  0  0  0  0
   32.1520   31.8910   35.6600 C   0  0  0  0  0  0  0  0  0  0  0  0
   31.2480   31.6970   36.6760 C   0  0  0  0  0  0  0  0  0  0  0  0
   30.0910   32.3970   36.3440 C   0  0  0  0  0  0  0  0  0  0  0  0
   30.3720   32.9800   35.1290 C   0  0  0  0  0  0  0  0  0  0  0  0
   31.5970   32.6730   34.7340 O   0  0  0  0  0  0  0  0  0  0  0  0
   31.4610   31.0940   37.5530 H   0  0  0  0  0  0  0  0  0  0  0  0
   29.2230   32.4100   36.9760 H   0  0  0  0  0  0  0  0  0  0  0  0
   29.6450   33.5970   34.6130 H   0  0  0  0  0  0  0  0  0  0  0  0
   31.8750   28.9650   33.5410 N   0  0  0  0  0  0  0  0  0  0  0  0
   32.7110   29.5490   34.0740 C   0  0  0  0  0  0  0  0  0  0  0  0
  1 22  1  0  0  0  0
  2  1  1  0  0  0  0
  2 11  1  0  0  0  0
  3  2  2  0  0  0  0
  4  5  2  0  0  0  0
  4  3  1  0  0  0  0
  5  6  1  0  0  0  0
  6  1  2  0  0  0  0
  7  3  1  0  0  0  0
  8  5  1  0  0  0  0
  9 10  2  0  0  0  0
  9 15  1  0  0  0  0
 11  9  1  0  0  0  0
 12 11  1  0  0  0  0
 14 13  1  0  0  0  0
 14 21  1  0  0  0  0
 15 14  2  0  0  0  0
 16 15  1  0  0  0  0
 16 18  2  0  0  0  0
 17 16  1  0  0  0  0
 18 20  1  0  0  0  0
 19 18  1  0  0  0  0
 20 21  2  0  0  0  0
 22 24  1  0  0  0  0
 23 28  1  0  0  0  0
 24 23  2  0  0  0  0
 24 25  1  0  0  0  0
 25 26  2  0  0  0  0
 26 27  1  0  0  0  0
 26 30  1  0  0  0  0
 27 31  1  0  0  0  0
 28 32  1  0  0  0  0
 28 27  2  0  0  0  0
 29 25  1  0  0  0  0
 32 33  2  0  0  0  0
 33 37  1  0  0  0  0
 34 33  1  0  0  0  0
 34 38  1  0  0  0  0
 35 34  2  0  0  0  0
 36 35  1  0  0  0  0
 36 32  1  0  0  0  0
 39 35  1  0  0  0  0
 40 41  3  0  0  0  0
 41 23  1  0  0  0  0
M  END
>  <minimizedAffinity>
-6.00255299

$$$$

 OpenBabel03272507433D

 41 44  0  0  0  0  0  0  0  0999 V2000
   38.0890   25.8460   33.7320 C   0  0  0  0  0  0  0  0  0  0  0  0
   38.5990   25.5580   35.0040 C   0  0  0  0  0  0  0  0  0  0  0  0
   38.4920   26.4280   36.0520 C   0  0  0  0  0  0  0  0  0  0  0  0
   37.8590   27.6100   35.8150 N   0  0  0  0  0  0  0  0  0  0  0  0
   37.3600   27.8970   34.5770 C   0  0  0  0  0  0  0  0  0  0  0  0
   37.4800   27.0300   33.5790 N   0  0  0  0  0  0  0  0  0  0  0  0
   38.8500   26.2820   37.0370 H   0  0  0  0  0  0  0  0  0  0  0  0
   36.8700   28.8550   34.4600 H   0  0  0  0  0  0  0  0  0  0  0  0
   40.6890   24.3120   35.4080 C   0  0  0  0  0  0  0  0  0  0  0  0
   41.5940   25.1900   35.0500 O   0  0  0  0  0  0  0  0  0  0  0  0
   39.2830   24.3760   35.3500 N   0  0  0  0  0  0  0  0  0  0  0  0
   38.6010   23.6320   35.5280 H   0  0  0  0  0  0  0  0  0  0  0  0
   40.1360   22.9930   37.9550 F   0  0  0  0  0  0  0  0  0  0  0  0
   41.0660   22.4770   37.1260 C   0  0  0  0  0  0  0  0  0  0  0  0
   41.3340   23.1100   35.9330 C   0  0  0  0  0  0  0  0  0  0  0  0
   42.3280   22.4270   35.2400 C   0  0  0  0  0  0  0  0  0  0  0  0
   42.6670   22.7980   34.2630 H   0  0  0  0  0  0  0  0  0  0  0  0
   42.9760   21.2840   35.6470 C   0  0  0  0  0  0  0  0  0  0  0  0
   43.7390   20.8120   35.0510 H   0  0  0  0  0  0  0  0  0  0  0  0
   42.6330   20.7310   36.8530 C   0  0  0  0  0  3  0  0  0  0  0  0
   41.6550   21.3510   37.6000 C   0  0  0  0  0  3  0  0  0  0  0  0
   38.2950   24.8590   32.8350 O   0  0  0  0  0  0  0  0  0  0  0  0
   37.1930   22.6810   32.4430 C   0  0  0  0  0  0  0  0  0  0  0  0
   37.2960   24.0520   32.3110 C   0  0  0  0  0  0  0  0  0  0  0  0
   36.3440   24.7650   31.6000 C   0  0  0  0  0  0  0  0  0  0  0  0
   35.2770   24.0830   31.0150 C   0  0  0  0  0  0  0  0  0  0  0  0
   35.1800   22.7110   31.1510 C   0  0  0  0  0  0  0  0  0  0  0  0
   36.1460   22.0500   31.8640 C   0  0  0  0  0  0  0  0  0  0  0  0
   36.3560   25.8190   31.4550 H   0  0  0  0  0  0  0  0  0  0  0  0
   34.5200   24.6150   30.4540 H   0  0  0  0  0  0  0  0  0  0  0  0
   34.3380   22.2170   30.6830 H   0  0  0  0  0  0  0  0  0  0  0  0
   36.0310   20.5700   32.0040 C   0  0  0  0  0  0  0  0  0  0  0  0
   35.3720   19.8280   32.9550 C   0  0  0  0  0  0  0  0  0  0  0  0
   35.5670   18.4850   32.6440 C   0  0  0  0  0  0  0  0  0  0  0  0
   36.3430   18.4980   31.5060 C   0  0  0  0  0  0  0  0  0  0  0  0
   36.6110   19.7400   31.1370 O   0  0  0  0  0  0  0  0  0  0  0  0
   34.8180   20.2730   33.7750 H   0  0  0  0  0  0  0  0  0  0  0  0
   35.1530   17.6900   33.2350 H   0  0  0  0  0  0  0  0  0  0  0  0
   36.6600   17.5800   31.0250 H   0  0  0  0  0  0  0  0  0  0  0  0
   39.0480   21.5080   33.8030 N   0  0  0  0  0  0  0  0  0  0  0  0
   38.2180   22.0230   33.1940 C   0  0  0  0  0  0  0  0  0  0  0  0
  1  2  1  0  0  0  0
  2 11  1  0  0  0  0
  2  3  2  0  0  0  0
  3  7  1  0  0  0  0
  4  3  1  0  0  0  0
  5  4  2  0  0  0  0
  6  1  2  0  0  0  0
  6  5  1  0  0  0  0
  8  5  1  0  0  0  0
  9 15  1  0  0  0  0
 10  9  2  0  0  0  0
 11  9  1  0  0  0  0
 11 12  1  0  0  0  0
 14 21  1  0  0  0  0
 14 13  1  0  0  0  0
 15 14  2  0  0  0  0
 16 18  2  0  0  0  0
 16 15  1  0  0  0  0
 17 16  1  0  0  0  0
 18 20  1  0  0  0  0
 19 18  1  0  0  0  0
 20 21  2  0  0  0  0
 22  1  1  0  0  0  0
 23 41  1  0  0  0  0
 24 23  1  0  0  0  0
 24 22  1  0  0  0  0
 25 24  2  0  0  0  0
 26 27  2  0  0  0  0
 26 25  1  0  0  0  0
 27 28  1  0  0  0  0
 28 32  1  0  0  0  0
 28 23  2  0  0  0  0
 29 25  1  0  0  0  0
 30 26  1  0  0  0  0
 31 27  1  0  0  0  0
 32 33  2  0  0  0  0
 33 37  1  0  0  0  0
 34 33  1  0  0  0  0
 34 38  1  0  0  0  0
 35 34  2  0  0  0  0
 36 35  1  0  0  0  0
 36 32  1  0  0  0  0
 39 35  1  0  0  0  0
 41 40  3  0  0  0  0
M  END
>  <minimizedAffinity>
-5.90268898

$$$$

 OpenBabel03272507433D

 41 44  0  0  0  0  0  0  0  0999 V2000
   40.1020   27.0760   32.1710 C   0  0  0  0  0  0  0  0  0  0  0  0
   40.7770   26.7710   33.3600 C   0  0  0  0  0  0  0  0  0  0  0  0
   42.1120   27.0120   33.5290 C   0  0  0  0  0  0  0  0  0  0  0  0
   42.7780   27.5710   32.4820 N   0  0  0  0  0  0  0  0  0  0  0  0
   42.1270   27.8710   31.3200 C   0  0  0  0  0  0  0  0  0  0  0  0
   40.8290   27.6240   31.1870 N   0  0  0  0  0  0  0  0  0  0  0  0
   42.6880   26.8110   34.3930 H   0  0  0  0  0  0  0  0  0  0  0  0
   42.7190   28.3120   30.5300 H   0  0  0  0  0  0  0  0  0  0  0  0
   39.9800   24.7880   34.5920 C   0  0  0  0  0  0  0  0  0  0  0  0
   40.1330   23.8420   33.6970 O   0  0  0  0  0  0  0  0  0  0  0  0
   40.1880   26.1780   34.4930 N   0  0  0  0  0  0  0  0  0  0  0  0
   39.9510   26.9090   35.1720 H   0  0  0  0  0  0  0  0  0  0  0  0
   41.4200   22.9000   36.2920 F   0  0  0  0  0  0  0  0  0  0  0  0
   40.2010   23.3380   36.6670 C   0  0  0  0  0  0  0  0  0  0  0  0
   39.5190   24.2160   35.8550 C   0  0  0  0  0  0  0  0  0  0  0  0
   38.2860   24.5280   36.4150 C   0  0  0  0  0  0  0  0  0  0  0  0
   37.6080   25.2190   35.8950 H   0  0  0  0  0  0  0  0  0  0  0  0
   37.7780   24.0530   37.6020 C   0  0  0  0  0  0  0  0  0  0  0  0
   36.8080   24.3440   37.9700 H   0  0  0  0  0  0  0  0  0  0  0  0
   38.5390   23.1820   38.3380 C   0  0  0  0  0  3  0  0  0  0  0  0
   39.7750   22.8240   37.8480 C   0  0  0  0  0  3  0  0  0  0  0  0
   38.7900   26.7630   32.2030 O   0  0  0  0  0  0  0  0  0  0  0  0
   36.9850   28.2540   32.9960 C   0  0  0  0  0  0  0  0  0  0  0  0
   37.7610   27.6730   32.0130 C   0  0  0  0  0  0  0  0  0  0  0  0
   37.5510   27.9790   30.6770 C   0  0  0  0  0  0  0  0  0  0  0  0
   36.5460   28.8820   30.3330 C   0  0  0  0  0  0  0  0  0  0  0  0
   35.7730   29.4600   31.3230 C   0  0  0  0  0  0  0  0  0  0  0  0
   36.0170   29.1260   32.6290 C   0  0  0  0  0  0  0  0  0  0  0  0
   38.1070   27.5720   29.8660 H   0  0  0  0  0  0  0  0  0  0  0  0
   36.3610   29.1380   29.2980 H   0  0  0  0  0  0  0  0  0  0  0  0
   35.0020   30.1560   31.0170 H   0  0  0  0  0  0  0  0  0  0  0  0
   35.1770   29.7560   33.6870 C   0  0  0  0  0  0  0  0  0  0  0  0
   35.4210   30.8730   34.4510 C   0  0  0  0  0  0  0  0  0  0  0  0
   34.3280   31.0460   35.2950 C   0  0  0  0  0  0  0  0  0  0  0  0
   33.4780   30.0080   34.9860 C   0  0  0  0  0  0  0  0  0  0  0  0
   33.9930   29.2500   34.0310 O   0  0  0  0  0  0  0  0  0  0  0  0
   36.3240   31.4680   34.3600 H   0  0  0  0  0  0  0  0  0  0  0  0
   34.2660   31.8540   36.0000 H   0  0  0  0  0  0  0  0  0  0  0  0
   32.5280   29.8820   35.4930 H   0  0  0  0  0  0  0  0  0  0  0  0
   37.5030   27.5730   35.4320 N   0  0  0  0  0  0  0  0  0  0  0  0
   37.2670   27.8830   34.3490 C   0  0  0  0  0  0  0  0  0  0  0  0
  1 22  1  0  0  0  0
  1  2  1  0  0  0  0
  2  3  2  0  0  0  0
  2 11  1  0  0  0  0
  3  7  1  0  0  0  0
  4  3  1  0  0  0  0
  5  4  2  0  0  0  0
  6  5  1  0  0  0  0
  6  1  2  0  0  0  0
  8  5  1  0  0  0  0
  9 15  1  0  0  0  0
 10  9  2  0  0  0  0
 11  9  1  0  0  0  0
 11 12  1  0  0  0  0
 13 14  1  0  0  0  0
 14 21  1  0  0  0  0
 15 16  1  0  0  0  0
 15 14  2  0  0  0  0
 16 18  2  0  0  0  0
 17 16  1  0  0  0  0
 18 19  1  0  0  0  0
 18 20  1  0  0  0  0
 21 20  2  0  0  0  0
 23 41  1  0  0  0  0
 24 22  1  0  0  0  0
 24 23  2  0  0  0  0
 25 24  1  0  0  0  0
 26 25  2  0  0  0  0
 26 27  1  0  0  0  0
 27 28  2  0  0  0  0
 28 23  1  0  0  0  0
 28 32  1  0  0  0  0
 29 25  1  0  0  0  0
 30 26  1  0  0  0  0
 31 27  1  0  0  0  0
 32 36  1  0  0  0  0
 32 33  2  0  0  0  0
 33 34  1  0  0  0  0
 34 38  1  0  0  0  0
 35 34  2  0  0  0  0
 35 39  1  0  0  0  0
 36 35  1  0  0  0  0
 37 33  1  0  0  0  0
 41 40  3  0  0  0  0
M  END
>  <minimizedAffinity>
-5.87169695

$$$$

 OpenBabel03272507433D

 41 44  0  0  0  0  0  0  0  0999 V2000
   39.0980   26.3460   31.9190 C   0  0  0  0  0  0  0  0  0  0  0  0
   40.3750   25.8720   32.2450 C   0  0  0  0  0  0  0  0  0  0  0  0
   41.5050   26.3160   31.6180 C   0  0  0  0  0  0  0  0  0  0  0  0
   41.3460   27.2560   30.6460 N   0  0  0  0  0  0  0  0  0  0  0  0
   40.1050   27.7230   30.3240 C   0  0  0  0  0  0  0  0  0  0  0  0
   39.0260   27.2700   30.9510 N   0  0  0  0  0  0  0  0  0  0  0  0
   42.4990   26.0080   31.8080 H   0  0  0  0  0  0  0  0  0  0  0  0
   40.0520   28.4680   29.5410 H   0  0  0  0  0  0  0  0  0  0  0  0
   40.6570   25.1830   34.5970 C   0  0  0  0  0  0  0  0  0  0  0  0
   40.5710   26.3330   35.2210 O   0  0  0  0  0  0  0  0  0  0  0  0
   40.6480   24.8920   33.2190 N   0  0  0  0  0  0  0  0  0  0  0  0
   40.8330   23.9970   32.7540 H   0  0  0  0  0  0  0  0  0  0  0  0
   38.5700   24.1580   36.3640 F   0  0  0  0  0  0  0  0  0  0  0  0
   39.7970   23.5980   36.3870 C   0  0  0  0  0  0  0  0  0  0  0  0
   40.7820   24.0940   35.5630 C   0  0  0  0  0  0  0  0  0  0  0  0
   41.9650   23.3890   35.7530 C   0  0  0  0  0  0  0  0  0  0  0  0
   42.8590   23.6570   35.1720 H   0  0  0  0  0  0  0  0  0  0  0  0
   42.1690   22.3440   36.6230 C   0  0  0  0  0  0  0  0  0  0  0  0
   43.1210   21.8470   36.7120 H   0  0  0  0  0  0  0  0  0  0  0  0
   41.1210   21.9250   37.3990 C   0  0  0  0  0  3  0  0  0  0  0  0
   39.9130   22.5740   37.2690 C   0  0  0  0  0  3  0  0  0  0  0  0
   38.1140   25.7830   32.6510 O   0  0  0  0  0  0  0  0  0  0  0  0
   36.9090   23.6900   32.1260 C   0  0  0  0  0  0  0  0  0  0  0  0
   37.0540   25.0630   32.1210 C   0  0  0  0  0  0  0  0  0  0  0  0
   36.0840   25.8720   31.5490 C   0  0  0  0  0  0  0  0  0  0  0  0
   34.9580   25.2850   30.9750 C   0  0  0  0  0  0  0  0  0  0  0  0
   34.8190   23.9100   30.9830 C   0  0  0  0  0  0  0  0  0  0  0  0
   35.8040   23.1520   31.5600 C   0  0  0  0  0  0  0  0  0  0  0  0
   36.1260   26.9340   31.5070 H   0  0  0  0  0  0  0  0  0  0  0  0
   34.1860   25.8930   30.5210 H   0  0  0  0  0  0  0  0  0  0  0  0
   33.9310   23.4910   30.5280 H   0  0  0  0  0  0  0  0  0  0  0  0
   35.6430   21.6700   31.5630 C   0  0  0  0  0  0  0  0  0  0  0  0
   34.8600   20.8740   32.3640 C   0  0  0  0  0  0  0  0  0  0  0  0
   35.0640   19.5550   31.9690 C   0  0  0  0  0  0  0  0  0  0  0  0
   35.9730   19.6350   30.9380 C   0  0  0  0  0  0  0  0  0  0  0  0
   36.3090   20.8940   30.7070 O   0  0  0  0  0  0  0  0  0  0  0  0
   34.2190   21.2680   33.1460 H   0  0  0  0  0  0  0  0  0  0  0  0
   34.5660   18.7280   32.4390 H   0  0  0  0  0  0  0  0  0  0  0  0
   36.3280   18.7490   30.4240 H   0  0  0  0  0  0  0  0  0  0  0  0
   38.7940   22.3050   33.2190 N   0  0  0  0  0  0  0  0  0  0  0  0
   37.9560   22.9300   32.7370 C   0  0  0  0  0  0  0  0  0  0  0  0
  1  2  1  0  0  0  0
  1 22  1  0  0  0  0
  2 11  1  0  0  0  0
  3  7  1  0  0  0  0
  3  2  2  0  0  0  0
  4  3  1  0  0  0  0
  5  4  2  0  0  0  0
  5  6  1  0  0  0  0
  6  1  2  0  0  0  0
  8  5  1  0  0  0  0
  9 10  2  0  0  0  0
  9 15  1  0  0  0  0
 11  9  1  0  0  0  0
 12 11  1  0  0  0  0
 13 14  1  0  0  0  0
 14 21  1  0  0  0  0
 15 16  1  0  0  0  0
 15 14  2  0  0  0  0
 16 18  2  0  0  0  0
 17 16  1  0  0  0  0
 18 19  1  0  0  0  0
 18 20  1  0  0  0  0
 21 20  2  0  0  0  0
 23 41  1  0  0  0  0
 24 23  1  0  0  0  0
 24 22  1  0  0  0  0
 25 24  2  0  0  0  0
 26 27  2  0  0  0  0
 26 25  1  0  0  0  0
 27 28  1  0  0  0  0
 28 32  1  0  0  0  0
 28 23  2  0  0  0  0
 29 25  1  0  0  0  0
 30 26  1  0  0  0  0
 31 27  1  0  0  0  0
 32 33  2  0  0  0  0
 33 37  1  0  0  0  0
 34 33  1  0  0  0  0
 34 38  1  0  0  0  0
 35 34  2  0  0  0  0
 36 35  1  0  0  0  0
 36 32  1  0  0  0  0
 39 35  1  0  0  0  0
 41 40  3  0  0  0  0
M  END
>  <minimizedAffinity>
-5.83876467

$$$$

 OpenBabel03272507433D

 41 44  0  0  0  0  0  0  0  0999 V2000
   36.4100   28.6060   31.3720 C   0  0  0  0  0  0  0  0  0  0  0  0
   36.3190   29.9430   31.7780 C   0  0  0  0  0  0  0  0  0  0  0  0
   36.6540   30.9840   30.9590 C   0  0  0  0  0  0  0  0  0  0  0  0
   37.0870   30.6730   29.7070 N   0  0  0  0  0  0  0  0  0  0  0  0
   37.1790   29.3720   29.3040 C   0  0  0  0  0  0  0  0  0  0  0  0
   36.8460   28.3820   30.1240 N   0  0  0  0  0  0  0  0  0  0  0  0
   36.6110   32.0150   31.1930 H   0  0  0  0  0  0  0  0  0  0  0  0
   37.5330   29.1970   28.2970 H   0  0  0  0  0  0  0  0  0  0  0  0
   34.5720   30.7620   33.3160 C   0  0  0  0  0  0  0  0  0  0  0  0
   33.5620   30.9390   32.4980 O   0  0  0  0  0  0  0  0  0  0  0  0
   35.8990   30.3720   33.0530 N   0  0  0  0  0  0  0  0  0  0  0  0
   36.6990   30.3530   33.6950 H   0  0  0  0  0  0  0  0  0  0  0  0
   36.0800   32.2340   35.3380 F   0  0  0  0  0  0  0  0  0  0  0  0
   34.8610   31.7430   35.6420 C   0  0  0  0  0  0  0  0  0  0  0  0
   34.1600   31.0370   34.6910 C   0  0  0  0  0  0  0  0  0  0  0  0
   32.9430   30.6110   35.2100 C   0  0  0  0  0  0  0  0  0  0  0  0
   32.2540   30.0290   34.5820 H   0  0  0  0  0  0  0  0  0  0  0  0
   32.4670   30.8370   36.4810 C   0  0  0  0  0  0  0  0  0  0  0  0
   31.5080   30.4720   36.8100 H   0  0  0  0  0  0  0  0  0  0  0  0
   33.2440   31.5540   37.3530 C   0  0  0  0  0  3  0  0  0  0  0  0
   34.4660   32.0120   36.9120 C   0  0  0  0  0  3  0  0  0  0  0  0
   36.0330   27.7280   32.3250 O   0  0  0  0  0  0  0  0  0  0  0  0
   36.4570   25.3020   32.1140 C   0  0  0  0  0  0  0  0  0  0  0  0
   36.7130   26.5580   32.6280 C   0  0  0  0  0  0  0  0  0  0  0  0
   37.7360   26.7490   33.5430 C   0  0  0  0  0  0  0  0  0  0  0  0
   38.5070   25.6590   33.9430 C   0  0  0  0  0  0  0  0  0  0  0  0
   38.2450   24.4050   33.4250 C   0  0  0  0  0  0  0  0  0  0  0  0
   37.2240   24.2640   32.5230 C   0  0  0  0  0  0  0  0  0  0  0  0
   37.9920   27.6840   33.9820 H   0  0  0  0  0  0  0  0  0  0  0  0
   39.3110   25.7800   34.6570 H   0  0  0  0  0  0  0  0  0  0  0  0
   38.8660   23.5820   33.7590 H   0  0  0  0  0  0  0  0  0  0  0  0
   36.9510   22.9070   31.9700 C   0  0  0  0  0  0  0  0  0  0  0  0
   35.9800   21.9980   32.3160 C   0  0  0  0  0  0  0  0  0  0  0  0
   36.1480   20.8800   31.5050 C   0  0  0  0  0  0  0  0  0  0  0  0
   37.2270   21.1850   30.7060 C   0  0  0  0  0  0  0  0  0  0  0  0
   37.6940   22.3900   30.9910 O   0  0  0  0  0  0  0  0  0  0  0  0
   35.2450   22.1830   33.0920 H   0  0  0  0  0  0  0  0  0  0  0  0
   35.5130   20.0160   31.5720 H   0  0  0  0  0  0  0  0  0  0  0  0
   37.5970   20.4900   29.9610 H   0  0  0  0  0  0  0  0  0  0  0  0
   34.5200   25.0870   30.4210 N   0  0  0  0  0  0  0  0  0  0  0  0
   35.3830   25.1920   31.1750 C   0  0  0  0  0  0  0  0  0  0  0  0
  1  2  1  0  0  0  0
  1 22  1  0  0  0  0
  2 11  1  0  0  0  0
  3  7  1  0  0  0  0
  3  2  2  0  0  0  0
  4  3  1  0  0  0  0
  5  4  2  0  0  0  0
  5  6  1  0  0  0  0
  6  1  2  0  0  0  0
  8  5  1  0  0  0  0
  9 15  1  0  0  0  0
 10  9  2  0  0  0  0
 11  9  1  0  0  0  0
 11 12  1  0  0  0  0
 13 14  1  0  0  0  0
 14 21  1  0  0  0  0
 15 16  1  0  0  0  0
 15 14  2  0  0  0  0
 16 18  2  0  0  0  0
 17 16  1  0  0  0  0
 18 19  1  0  0  0  0
 18 20  1  0  0  0  0
 21 20  2  0  0  0  0
 22 24  1  0  0  0  0
 23 28  2  0  0  0  0
 23 24  1  0  0  0  0
 24 25  2  0  0  0  0
 25 26  1  0  0  0  0
 25 29  1  0  0  0  0
 26 30  1  0  0  0  0
 27 31  1  0  0  0  0
 27 26  2  0  0  0  0
 28 27  1  0  0  0  0
 32 33  2  0  0  0  0
 32 28  1  0  0  0  0
 33 37  1  0  0  0  0
 34 38  1  0  0  0  0
 34 33  1  0  0  0  0
 35 36  1  0  0  0  0
 35 34  2  0  0  0  0
 36 32  1  0  0  0  0
 39 35  1  0  0  0  0
 40 41  3  0  0  0  0
 41 23  1  0  0  0  0
M  END
>  <minimizedAffinity>
-5.82831097

$$$$

 OpenBabel03272507433D

 41 44  0  0  0  0  0  0  0  0999 V2000
   36.1860   28.2090   30.9940 C   0  0  0  0  0  0  0  0  0  0  0  0
   36.0320   29.4480   31.6280 C   0  0  0  0  0  0  0  0  0  0  0  0
   36.5340   30.6070   31.1060 C   0  0  0  0  0  0  0  0  0  0  0  0
   37.2010   30.5170   29.9240 N   0  0  0  0  0  0  0  0  0  0  0  0
   37.3560   29.3130   29.3000 C   0  0  0  0  0  0  0  0  0  0  0  0
   36.8570   28.2040   29.8330 N   0  0  0  0  0  0  0  0  0  0  0  0
   36.4580   31.5770   31.5240 H   0  0  0  0  0  0  0  0  0  0  0  0
   37.8980   29.3140   28.3640 H   0  0  0  0  0  0  0  0  0  0  0  0
   34.0420   30.0950   32.9340 C   0  0  0  0  0  0  0  0  0  0  0  0
   33.2350   30.5200   31.9920 O   0  0  0  0  0  0  0  0  0  0  0  0
   35.3760   29.6490   32.8580 N   0  0  0  0  0  0  0  0  0  0  0  0
   36.0220   29.4310   33.6240 H   0  0  0  0  0  0  0  0  0  0  0  0
   31.7660   28.4620   33.7620 F   0  0  0  0  0  0  0  0  0  0  0  0
   32.3010   29.3470   34.6280 C   0  0  0  0  0  0  0  0  0  0  0  0
   33.3650   30.1250   34.2290 C   0  0  0  0  0  0  0  0  0  0  0  0
   33.7520   30.9720   35.2600 C   0  0  0  0  0  0  0  0  0  0  0  0
   34.5910   31.6670   35.1110 H   0  0  0  0  0  0  0  0  0  0  0  0
   33.1870   31.0570   36.5110 C   0  0  0  0  0  0  0  0  0  0  0  0
   33.5470   31.7440   37.2600 H   0  0  0  0  0  0  0  0  0  0  0  0
   32.1320   30.2350   36.8100 C   0  0  0  0  0  3  0  0  0  0  0  0
   31.6880   29.3660   35.8380 C   0  0  0  0  0  3  0  0  0  0  0  0
   35.6200   27.1870   31.6680 O   0  0  0  0  0  0  0  0  0  0  0  0
   37.0570   25.7060   33.0290 C   0  0  0  0  0  0  0  0  0  0  0  0
   36.2490   25.9820   31.9430 C   0  0  0  0  0  0  0  0  0  0  0  0
   35.9940   25.0090   30.9900 C   0  0  0  0  0  0  0  0  0  0  0  0
   36.5620   23.7450   31.1360 C   0  0  0  0  0  0  0  0  0  0  0  0
   37.3690   23.4750   32.2250 C   0  0  0  0  0  0  0  0  0  0  0  0
   37.5930   24.4690   33.1410 C   0  0  0  0  0  0  0  0  0  0  0  0
   35.3840   25.1470   30.1290 H   0  0  0  0  0  0  0  0  0  0  0  0
   36.3800   22.9670   30.4060 H   0  0  0  0  0  0  0  0  0  0  0  0
   37.7930   22.4810   32.3040 H   0  0  0  0  0  0  0  0  0  0  0  0
   38.4650   24.1660   34.3120 C   0  0  0  0  0  0  0  0  0  0  0  0
   39.8320   24.2360   34.4280 C   0  0  0  0  0  0  0  0  0  0  0  0
   40.1610   23.8510   35.7250 C   0  0  0  0  0  0  0  0  0  0  0  0
   38.9530   23.5670   36.3220 C   0  0  0  0  0  0  0  0  0  0  0  0
   37.9550   23.7570   35.4750 O   0  0  0  0  0  0  0  0  0  0  0  0
   40.4810   24.5450   33.6150 H   0  0  0  0  0  0  0  0  0  0  0  0
   41.1740   23.8190   36.0780 H   0  0  0  0  0  0  0  0  0  0  0  0
   38.8930   23.2360   37.3530 H   0  0  0  0  0  0  0  0  0  0  0  0
   37.4280   27.6280   34.7120 N   0  0  0  0  0  0  0  0  0  0  0  0
   37.2690   26.7660   33.9660 C   0  0  0  0  0  0  0  0  0  0  0  0
  1  2  1  0  0  0  0
  1 22  1  0  0  0  0
  2 11  1  0  0  0  0
  3  7  1  0  0  0  0
  3  2  2  0  0  0  0
  4  3  1  0  0  0  0
  5  6  1  0  0  0  0
  5  4  2  0  0  0  0
  6  1  2  0  0  0  0
  8  5  1  0  0  0  0
  9 15  1  0  0  0  0
 10  9  2  0  0  0  0
 11  9  1  0  0  0  0
 11 12  1  0  0  0  0
 13 14  1  0  0  0  0
 14 21  1  0  0  0  0
 15 14  2  0  0  0  0
 15 16  1  0  0  0  0
 16 18  2  0  0  0  0
 17 16  1  0  0  0  0
 18 20  1  0  0  0  0
 18 19  1  0  0  0  0
 21 20  2  0  0  0  0
 22 24  1  0  0  0  0
 23 28  1  0  0  0  0
 23 41  1  0  0  0  0
 24 23  2  0  0  0  0
 25 26  2  0  0  0  0
 25 24  1  0  0  0  0
 26 27  1  0  0  0  0
 27 31  1  0  0  0  0
 27 28  2  0  0  0  0
 28 32  1  0  0  0  0
 29 25  1  0  0  0  0
 30 26  1  0  0  0  0
 32 33  2  0  0  0  0
 32 36  1  0  0  0  0
 33 34  1  0  0  0  0
 34 38  1  0  0  0  0
 34 35  2  0  0  0  0
 35 39  1  0  0  0  0
 36 35  1  0  0  0  0
 37 33  1  0  0  0  0
 41 40  3  0  0  0  0
M  END
>  <minimizedAffinity>
-5.82818317

$$$$
