
 OpenBabel03272508423D

 20 21  0  0  0  0  0  0  0  0999 V2000
   34.2870   29.5370   49.8690 C   0  0  0  0  0  0  0  0  0  0  0  0
   33.4190   29.6610   50.7590 O   0  0  0  0  0  0  0  0  0  0  0  0
   37.8730   29.6130   50.4250 C   0  0  0  0  0  0  0  0  0  0  0  0
   38.2210   30.9410   50.1420 C   0  0  0  0  0  0  0  0  0  0  0  0
   37.2010   31.8260   49.7530 C   0  0  0  0  0  0  0  0  0  0  0  0
   35.9230   31.3470   49.6710 N   0  0  0  0  0  0  0  0  0  0  0  0
   35.6340   30.0760   49.9490 C   0  0  0  0  0  0  0  0  0  0  0  0
   36.5820   29.2220   50.3180 N   0  0  0  0  0  0  0  0  0  0  0  0
   38.7050   28.9860   50.7180 H   0  0  0  0  0  0  0  0  0  0  0  0
   39.2180   31.3580   50.1950 H   0  0  0  0  0  0  0  0  0  0  0  0
   37.3480   32.8680   49.5100 H   0  0  0  0  0  0  0  0  0  0  0  0
   33.7830   30.8070   47.3810 F   0  0  0  0  0  0  0  0  0  0  0  0
   33.8140   29.4600   47.3980 C   0  0  0  0  0  0  0  0  0  0  0  0
   34.0600   28.8230   48.6100 C   0  0  0  0  0  0  0  0  0  0  0  0
   34.0840   27.4270   48.5860 C   0  0  0  0  0  0  0  0  0  0  0  0
   34.2770   26.9470   49.5400 H   0  0  0  0  0  0  0  0  0  0  0  0
   33.8810   26.6580   47.4530 C   0  0  0  0  0  0  0  0  0  0  0  0
   33.9300   25.5770   47.5930 H   0  0  0  0  0  0  0  0  0  0  0  0
   33.6390   27.3190   46.2650 C   0  0  0  0  0  3  0  0  0  0  0  0
   33.6120   28.7000   46.2740 C   0  0  0  0  0  3  0  0  0  0  0  0
  1  7  1  0  0  0  0
  1  2  2  0  0  0  0
  3  9  1  0  0  0  0
  4 10  1  0  0  0  0
  4  3  2  0  0  0  0
  5  4  1  0  0  0  0
  6  5  2  0  0  0  0
  6  7  1  0  0  0  0
  7  8  2  0  0  0  0
  8  3  1  0  0  0  0
 11  5  1  0  0  0  0
 12 13  1  0  0  0  0
 13 14  1  0  0  0  0
 14  1  1  0  0  0  0
 15 14  2  0  0  0  0
 15 16  1  0  0  0  0
 17 18  1  0  0  0  0
 17 15  1  0  0  0  0
 19 20  1  0  0  0  0
 19 17  2  0  0  0  0
 20 13  2  0  0  0  0
M  END
>  <minimizedAffinity>
-4.60562611

>  <minimizedRMSD>
2.60306072

$$$$
