
 OpenBabel03272507413D

 41 44  0  0  0  0  0  0  0  0999 V2000
   36.6410   31.1670   50.1080 C   0  0  0  0  0  0  0  0  0  0  0  0
   35.5640   30.2900   49.9290 C   0  0  0  0  0  0  0  0  0  0  0  0
   35.3720   29.1920   50.7190 C   0  0  0  0  0  0  0  0  0  0  0  0
   36.2810   28.9740   51.7090 N   0  0  0  0  0  0  0  0  0  0  0  0
   37.3330   29.8240   51.8890 C   0  0  0  0  0  0  0  0  0  0  0  0
   37.4920   30.8830   51.1030 N   0  0  0  0  0  0  0  0  0  0  0  0
   34.5860   28.4870   50.6470 H   0  0  0  0  0  0  0  0  0  0  0  0
   38.0170   29.5890   52.6940 H   0  0  0  0  0  0  0  0  0  0  0  0
   34.2270   29.3430   48.0850 C   0  0  0  0  0  0  0  0  0  0  0  0
   34.7700   28.1580   47.9460 O   0  0  0  0  0  0  0  0  0  0  0  0
   34.5800   30.4140   48.9290 N   0  0  0  0  0  0  0  0  0  0  0  0
   34.2110   31.3710   48.9360 H   0  0  0  0  0  0  0  0  0  0  0  0
   31.8920   27.5960   47.9200 F   0  0  0  0  0  0  0  0  0  0  0  0
   31.9780   28.6710   47.1110 C   0  0  0  0  0  0  0  0  0  0  0  0
   33.0870   29.4840   47.1810 C   0  0  0  0  0  0  0  0  0  0  0  0
   32.9830   30.5180   46.2580 C   0  0  0  0  0  0  0  0  0  0  0  0
   33.7860   31.2630   46.1780 H   0  0  0  0  0  0  0  0  0  0  0  0
   31.9440   30.7370   45.3840 C   0  0  0  0  0  0  0  0  0  0  0  0
   31.9370   31.5670   44.6940 H   0  0  0  0  0  0  0  0  0  0  0  0
   30.8840   29.8690   45.3940 C   0  0  0  0  0  3  0  0  0  0  0  0
   30.9140   28.8160   46.2820 C   0  0  0  0  0  3  0  0  0  0  0  0
   36.6540   32.1890   49.2270 O   0  0  0  0  0  0  0  0  0  0  0  0
   38.1610   32.1690   47.2680 C   0  0  0  0  0  0  0  0  0  0  0  0
   37.7720   32.6030   48.5200 C   0  0  0  0  0  0  0  0  0  0  0  0
   38.5230   33.5480   49.2030 C   0  0  0  0  0  0  0  0  0  0  0  0
   39.6790   34.0570   48.6130 C   0  0  0  0  0  0  0  0  0  0  0  0
   40.0630   33.6180   47.3600 C   0  0  0  0  0  0  0  0  0  0  0  0
   39.2890   32.6840   46.7240 C   0  0  0  0  0  0  0  0  0  0  0  0
   38.2880   33.9290   50.1680 H   0  0  0  0  0  0  0  0  0  0  0  0
   40.2840   34.7940   49.1240 H   0  0  0  0  0  0  0  0  0  0  0  0
   40.9660   34.0360   46.9350 H   0  0  0  0  0  0  0  0  0  0  0  0
   39.7120   32.2180   45.3720 C   0  0  0  0  0  0  0  0  0  0  0  0
   40.5700   31.2030   45.0230 C   0  0  0  0  0  0  0  0  0  0  0  0
   40.6320   31.1700   43.6330 C   0  0  0  0  0  0  0  0  0  0  0  0
   39.7960   32.1830   43.2200 C   0  0  0  0  0  0  0  0  0  0  0  0
   39.2560   32.7970   44.2610 O   0  0  0  0  0  0  0  0  0  0  0  0
   41.0740   30.5770   45.7510 H   0  0  0  0  0  0  0  0  0  0  0  0
   41.2380   30.4610   43.0990 H   0  0  0  0  0  0  0  0  0  0  0  0
   39.6420   32.3990   42.1690 H   0  0  0  0  0  0  0  0  0  0  0  0
   36.6650   30.4150   46.1080 N   0  0  0  0  0  0  0  0  0  0  0  0
   37.3300   31.1930   46.6330 C   0  0  0  0  0  0  0  0  0  0  0  0
  1  6  1  0  0  0  0
  2  1  2  0  0  0  0
  2  3  1  0  0  0  0
  3  4  2  0  0  0  0
  4  5  1  0  0  0  0
  5  8  1  0  0  0  0
  6  5  2  0  0  0  0
  7  3  1  0  0  0  0
  9 11  1  0  0  0  0
 10  9  2  0  0  0  0
 11 12  1  0  0  0  0
 11  2  1  0  0  0  0
 14 15  1  0  0  0  0
 14 13  1  0  0  0  0
 15  9  1  0  0  0  0
 16 15  2  0  0  0  0
 17 16  1  0  0  0  0
 18 20  2  0  0  0  0
 18 16  1  0  0  0  0
 19 18  1  0  0  0  0
 20 21  1  0  0  0  0
 21 14  2  0  0  0  0
 22  1  1  0  0  0  0
 23 24  1  0  0  0  0
 24 25  2  0  0  0  0
 24 22  1  0  0  0  0
 25 29  1  0  0  0  0
 26 30  1  0  0  0  0
 26 25  1  0  0  0  0
 27 26  2  0  0  0  0
 28 23  2  0  0  0  0
 28 27  1  0  0  0  0
 31 27  1  0  0  0  0
 32 28  1  0  0  0  0
 33 32  2  0  0  0  0
 33 37  1  0  0  0  0
 34 33  1  0  0  0  0
 35 34  2  0  0  0  0
 35 36  1  0  0  0  0
 36 32  1  0  0  0  0
 38 34  1  0  0  0  0
 39 35  1  0  0  0  0
 40 41  3  0  0  0  0
 41 23  1  0  0  0  0
M  END
>  <minimizedAffinity>
-6.15601444

>  <minimizedRMSD>
0.436069548

$$$$
