
 OpenBabel03272509303D

 38 40  0  0  1  0  0  0  0  0999 V2000
   36.4990   30.8160   48.8380 C   0  0  2  0  0  0  0  0  0  0  0  0
   37.4120   31.5640   49.7630 C   0  0  0  0  0  0  0  0  0  0  0  0
   38.0960   30.6640   50.7670 C   0  0  0  0  0  0  0  0  0  0  0  0
   37.0810   29.8660   51.5730 C   0  0  0  0  0  0  0  0  0  0  0  0
   35.8620   29.4550   50.7860 C   0  0  0  0  0  0  0  0  0  0  0  0
   36.2600   29.4130   49.2960 C   0  0  1  0  0  0  0  0  0  0  0  0
   35.4800   31.3070   48.7170 H   0  0  0  0  0  0  0  0  0  0  0  0
   38.0870   32.2730   49.3300 H   0  0  0  0  0  0  0  0  0  0  0  0
   36.7020   32.1900   50.4010 H   0  0  0  0  0  0  0  0  0  0  0  0
   38.8710   30.0170   50.3550 H   0  0  0  0  0  0  0  0  0  0  0  0
   38.6010   31.3430   51.4830 H   0  0  0  0  0  0  0  0  0  0  0  0
   36.8330   30.3940   52.5220 H   0  0  0  0  0  0  0  0  0  0  0  0
   37.5960   28.9220   51.8660 H   0  0  0  0  0  0  0  0  0  0  0  0
   35.5100   28.4650   51.1220 H   0  0  0  0  0  0  0  0  0  0  0  0
   35.0710   30.2060   50.9080 H   0  0  0  0  0  0  0  0  0  0  0  0
   37.1680   28.8680   49.3690 H   0  0  0  0  0  0  0  0  0  0  0  0
   37.0400   30.7830   47.4580 C   0  0  0  0  0  0  0  0  0  0  0  0
   38.4240   31.0130   47.3420 C   0  0  0  0  0  0  0  0  0  0  0  0
   38.9620   30.9850   46.0500 C   0  0  0  0  0  0  0  0  0  0  0  0
   38.1280   30.7380   44.9880 N   0  0  0  0  0  0  0  0  0  0  0  0
   36.7820   30.5170   45.1570 C   0  0  0  0  0  0  0  0  0  0  0  0
   36.2640   30.5460   46.3950 N   0  0  0  0  0  0  0  0  0  0  0  0
   39.1850   31.2070   48.0690 H   0  0  0  0  0  0  0  0  0  0  0  0
   40.0040   31.1460   45.8130 H   0  0  0  0  0  0  0  0  0  0  0  0
   36.1730   30.3280   44.2880 H   0  0  0  0  0  0  0  0  0  0  0  0
   34.0600   28.2900   48.7030 C   0  0  0  0  0  0  0  0  0  0  0  0
   33.2520   28.6550   49.6500 O   0  0  0  0  0  0  0  0  0  0  0  0
   35.3950   28.6610   48.4670 N   0  0  0  0  0  0  0  0  0  0  0  0
   35.7760   28.3490   47.5460 H   0  0  0  0  0  0  0  0  0  0  0  0
   31.7180   28.9390   47.0510 F   0  0  0  0  0  0  0  0  0  0  0  0
   32.2070   27.6820   47.0890 C   0  0  0  0  0  0  0  0  0  0  0  0
   33.3160   27.3510   47.8340 C   0  0  0  0  0  0  0  0  0  0  0  0
   33.6330   26.0240   47.6940 C   0  0  0  0  0  0  0  0  0  0  0  0
   34.5010   25.6130   48.2350 H   0  0  0  0  0  0  0  0  0  0  0  0
   32.9760   25.0900   46.9300 C   0  0  0  0  0  0  0  0  0  0  0  0
   33.2860   24.0610   46.8700 H   0  0  0  0  0  0  0  0  0  0  0  0
   31.8760   25.5140   46.2190 C   0  0  0  0  0  3  0  0  0  0  0  0
   31.5010   26.8220   46.3090 C   0  0  0  0  0  3  0  0  0  0  0  0
  1  7  1  6  0  0  0
  1  6  1  0  0  0  0
  1  2  1  0  0  0  0
  2  9  1  0  0  0  0
  2  3  1  0  0  0  0
  3 11  1  0  0  0  0
  3  4  1  0  0  0  0
  4 13  1  0  0  0  0
  4 12  1  0  0  0  0
  5 15  1  0  0  0  0
  5 14  1  0  0  0  0
  5  4  1  0  0  0  0
  6 16  1  6  0  0  0
  6  5  1  0  0  0  0
  8  2  1  0  0  0  0
 10  3  1  0  0  0  0
 17  1  1  0  0  0  0
 18 17  1  0  0  0  0
 18 23  1  0  0  0  0
 19 18  2  0  0  0  0
 20 21  2  0  0  0  0
 20 19  1  0  0  0  0
 21 22  1  0  0  0  0
 22 17  2  0  0  0  0
 24 19  1  0  0  0  0
 25 21  1  0  0  0  0
 26 27  2  0  0  0  0
 28 26  1  0  0  0  0
 28  6  1  0  0  0  0
 29 28  1  0  0  0  0
 30 31  1  0  0  0  0
 31 32  1  0  0  0  0
 32 26  1  0  0  0  0
 33 32  2  0  0  0  0
 33 34  1  0  0  0  0
 35 33  1  0  0  0  0
 36 35  1  0  0  0  0
 37 38  1  0  0  0  0
 37 35  2  0  0  0  0
 38 31  2  0  0  0  0
M  END
>  <minimizedAffinity>
-6.07929182

>  <minimizedRMSD>
0.947015166

$$$$
