
 OpenBabel03272507413D

 41 44  0  0  0  0  0  0  0  0999 V2000
   36.6420   31.1670   50.1060 C   0  0  0  0  0  0  0  0  0  0  0  0
   35.5640   30.2910   49.9280 C   0  0  0  0  0  0  0  0  0  0  0  0
   35.3720   29.1930   50.7190 C   0  0  0  0  0  0  0  0  0  0  0  0
   36.2810   28.9750   51.7090 N   0  0  0  0  0  0  0  0  0  0  0  0
   37.3340   29.8250   51.8880 C   0  0  0  0  0  0  0  0  0  0  0  0
   37.4930   30.8840   51.1020 N   0  0  0  0  0  0  0  0  0  0  0  0
   34.5860   28.4890   50.6470 H   0  0  0  0  0  0  0  0  0  0  0  0
   38.0180   29.5910   52.6930 H   0  0  0  0  0  0  0  0  0  0  0  0
   34.2270   29.3440   48.0840 C   0  0  0  0  0  0  0  0  0  0  0  0
   34.7710   28.1590   47.9440 O   0  0  0  0  0  0  0  0  0  0  0  0
   34.5800   30.4150   48.9280 N   0  0  0  0  0  0  0  0  0  0  0  0
   34.2110   31.3720   48.9360 H   0  0  0  0  0  0  0  0  0  0  0  0
   31.8930   27.5970   47.9200 F   0  0  0  0  0  0  0  0  0  0  0  0
   31.9790   28.6710   47.1100 C   0  0  0  0  0  0  0  0  0  0  0  0
   33.0870   29.4840   47.1800 C   0  0  0  0  0  0  0  0  0  0  0  0
   32.9830   30.5190   46.2570 C   0  0  0  0  0  0  0  0  0  0  0  0
   33.7860   31.2640   46.1780 H   0  0  0  0  0  0  0  0  0  0  0  0
   31.9440   30.7380   45.3830 C   0  0  0  0  0  0  0  0  0  0  0  0
   31.9370   31.5670   44.6940 H   0  0  0  0  0  0  0  0  0  0  0  0
   30.8840   29.8700   45.3940 C   0  0  0  0  0  0  0  0  0  0  0  0
   30.9140   28.8170   46.2820 C   0  0  0  0  0  0  0  0  0  0  0  0
   36.6540   32.1890   49.2250 O   0  0  0  0  0  0  0  0  0  0  0  0
   38.1610   32.1690   47.2670 C   0  0  0  0  0  0  0  0  0  0  0  0
   37.7730   32.6040   48.5190 C   0  0  0  0  0  0  0  0  0  0  0  0
   38.5240   33.5480   49.2010 C   0  0  0  0  0  0  0  0  0  0  0  0
   39.6800   34.0570   48.6120 C   0  0  0  0  0  0  0  0  0  0  0  0
   40.0630   33.6180   47.3580 C   0  0  0  0  0  0  0  0  0  0  0  0
   39.2890   32.6830   46.7220 C   0  0  0  0  0  0  0  0  0  0  0  0
   38.2890   33.9290   50.1660 H   0  0  0  0  0  0  0  0  0  0  0  0
   40.2850   34.7940   49.1230 H   0  0  0  0  0  0  0  0  0  0  0  0
   40.9670   34.0360   46.9330 H   0  0  0  0  0  0  0  0  0  0  0  0
   39.7120   32.2180   45.3710 C   0  0  0  0  0  0  0  0  0  0  0  0
   40.5690   31.2010   45.0220 C   0  0  0  0  0  0  0  0  0  0  0  0
   40.6320   31.1690   43.6320 C   0  0  0  0  0  0  0  0  0  0  0  0
   39.7970   32.1820   43.2190 C   0  0  0  0  0  0  0  0  0  0  0  0
   39.2580   32.7970   44.2590 O   0  0  0  0  0  0  0  0  0  0  0  0
   41.0730   30.5740   45.7500 H   0  0  0  0  0  0  0  0  0  0  0  0
   41.2370   30.4590   43.0980 H   0  0  0  0  0  0  0  0  0  0  0  0
   39.6430   32.4000   42.1680 H   0  0  0  0  0  0  0  0  0  0  0  0
   36.6650   30.4150   46.1060 N   0  0  0  0  0  0  0  0  0  0  0  0
   37.3300   31.1930   46.6310 C   0  0  0  0  0  0  0  0  0  0  0  0
  1  6  1  0  0  0  0
  2  1  2  0  0  0  0
  2  3  1  0  0  0  0
  3  4  2  0  0  0  0
  4  5  1  0  0  0  0
  5  8  1  0  0  0  0
  6  5  2  0  0  0  0
  7  3  1  0  0  0  0
  9 11  1  0  0  0  0
 10  9  2  0  0  0  0
 11 12  1  0  0  0  0
 11  2  1  0  0  0  0
 14 15  1  0  0  0  0
 14 13  1  0  0  0  0
 15  9  1  0  0  0  0
 16 15  2  0  0  0  0
 17 16  1  0  0  0  0
 18 20  2  0  0  0  0
 18 16  1  0  0  0  0
 19 18  1  0  0  0  0
 20 21  1  0  0  0  0
 21 14  2  0  0  0  0
 22  1  1  0  0  0  0
 23 24  1  0  0  0  0
 24 25  2  0  0  0  0
 24 22  1  0  0  0  0
 25 29  1  0  0  0  0
 26 30  1  0  0  0  0
 26 25  1  0  0  0  0
 27 26  2  0  0  0  0
 28 23  2  0  0  0  0
 28 27  1  0  0  0  0
 31 27  1  0  0  0  0
 32 28  1  0  0  0  0
 33 32  2  0  0  0  0
 33 37  1  0  0  0  0
 34 33  1  0  0  0  0
 35 34  2  0  0  0  0
 35 36  1  0  0  0  0
 36 32  1  0  0  0  0
 38 34  1  0  0  0  0
 39 35  1  0  0  0  0
 40 41  3  0  0  0  0
 41 23  1  0  0  0  0
M  END
>  <minimizedAffinity>
-6.15635204

>  <minimizedRMSD>
0.648831069

$$$$
