
 OpenBabel03272509293D

 38 40  0  0  1  0  0  0  0  0999 V2000
   36.4980   30.8000   48.8870 C   0  0  2  0  0  0  0  0  0  0  0  0
   37.3950   31.5200   49.8480 C   0  0  0  0  0  0  0  0  0  0  0  0
   38.0470   30.5940   50.8490 C   0  0  0  0  0  0  0  0  0  0  0  0
   37.0070   29.7890   51.6140 C   0  0  0  0  0  0  0  0  0  0  0  0
   35.8030   29.4050   50.7900 C   0  0  0  0  0  0  0  0  0  0  0  0
   36.2350   29.3900   49.3100 C   0  0  1  0  0  0  0  0  0  0  0  0
   35.4860   31.3040   48.7520 H   0  0  0  0  0  0  0  0  0  0  0  0
   38.0870   32.2310   49.4460 H   0  0  0  0  0  0  0  0  0  0  0  0
   36.6760   32.1400   50.4820 H   0  0  0  0  0  0  0  0  0  0  0  0
   38.8260   29.9480   50.4420 H   0  0  0  0  0  0  0  0  0  0  0  0
   38.5420   31.2530   51.5910 H   0  0  0  0  0  0  0  0  0  0  0  0
   36.7400   30.2990   52.5670 H   0  0  0  0  0  0  0  0  0  0  0  0
   37.5050   28.8340   51.8990 H   0  0  0  0  0  0  0  0  0  0  0  0
   35.4330   28.4130   51.0970 H   0  0  0  0  0  0  0  0  0  0  0  0
   35.0160   30.1610   50.9100 H   0  0  0  0  0  0  0  0  0  0  0  0
   37.1370   28.8360   49.3930 H   0  0  0  0  0  0  0  0  0  0  0  0
   37.0710   30.7910   47.5190 C   0  0  0  0  0  0  0  0  0  0  0  0
   38.4570   31.0220   47.4400 C   0  0  0  0  0  0  0  0  0  0  0  0
   39.0260   31.0160   46.1610 C   0  0  0  0  0  0  0  0  0  0  0  0
   38.2170   30.7870   45.0750 N   0  0  0  0  0  0  0  0  0  0  0  0
   36.8670   30.5650   45.2080 C   0  0  0  0  0  0  0  0  0  0  0  0
   36.3210   30.5720   46.4350 N   0  0  0  0  0  0  0  0  0  0  0  0
   39.2010   31.2020   48.1880 H   0  0  0  0  0  0  0  0  0  0  0  0
   40.0730   31.1790   45.9510 H   0  0  0  0  0  0  0  0  0  0  0  0
   36.2800   30.3900   44.3230 H   0  0  0  0  0  0  0  0  0  0  0  0
   34.0310   28.3270   48.6290 C   0  0  0  0  0  0  0  0  0  0  0  0
   33.1970   28.7090   49.5460 O   0  0  0  0  0  0  0  0  0  0  0  0
   35.3840   28.6640   48.4450 N   0  0  0  0  0  0  0  0  0  0  0  0
   35.7920   28.3450   47.5380 H   0  0  0  0  0  0  0  0  0  0  0  0
   34.3800   28.1060   45.7200 F   0  0  0  0  0  0  0  0  0  0  0  0
   33.4690   27.3470   46.3640 C   0  0  0  0  0  0  0  0  0  0  0  0
   33.2970   27.4100   47.7280 C   0  0  0  0  0  0  0  0  0  0  0  0
   32.3310   26.5320   48.1500 C   0  0  0  0  0  0  0  0  0  0  0  0
   32.0840   26.4730   49.2210 H   0  0  0  0  0  0  0  0  0  0  0  0
   31.5920   25.6740   47.3710 C   0  0  0  0  0  0  0  0  0  0  0  0
   30.8480   25.0120   47.7770 H   0  0  0  0  0  0  0  0  0  0  0  0
   31.8340   25.6820   46.0170 C   0  0  0  0  0  3  0  0  0  0  0  0
   32.7820   26.5300   45.5230 C   0  0  0  0  0  3  0  0  0  0  0  0
  1  7  1  6  0  0  0
  1  6  1  0  0  0  0
  1  2  1  0  0  0  0
  2  9  1  0  0  0  0
  2  3  1  0  0  0  0
  3 11  1  0  0  0  0
  3  4  1  0  0  0  0
  4 13  1  0  0  0  0
  4 12  1  0  0  0  0
  5 15  1  0  0  0  0
  5 14  1  0  0  0  0
  5  4  1  0  0  0  0
  6 16  1  6  0  0  0
  6  5  1  0  0  0  0
  8  2  1  0  0  0  0
 10  3  1  0  0  0  0
 17  1  1  0  0  0  0
 18 17  1  0  0  0  0
 18 23  1  0  0  0  0
 19 18  2  0  0  0  0
 20 21  2  0  0  0  0
 20 19  1  0  0  0  0
 21 22  1  0  0  0  0
 22 17  2  0  0  0  0
 24 19  1  0  0  0  0
 25 21  1  0  0  0  0
 26 27  2  0  0  0  0
 28 26  1  0  0  0  0
 28  6  1  0  0  0  0
 29 28  1  0  0  0  0
 30 31  1  0  0  0  0
 31 32  1  0  0  0  0
 32 33  2  0  0  0  0
 32 26  1  0  0  0  0
 33 34  1  0  0  0  0
 35 36  1  0  0  0  0
 35 33  1  0  0  0  0
 37 35  2  0  0  0  0
 38 37  1  0  0  0  0
 38 31  2  0  0  0  0
M  END
>  <minimizedAffinity>
-5.9563632

>  <minimizedRMSD>
1.05738795

$$$$
