
 OpenBabel03272509303D

 38 40  0  0  1  0  0  0  0  0999 V2000
   36.3980   30.7330   48.9840 C   0  0  2  0  0  0  0  0  0  0  0  0
   37.4080   31.4350   49.8410 C   0  0  0  0  0  0  0  0  0  0  0  0
   38.1160   30.5030   50.7970 C   0  0  0  0  0  0  0  0  0  0  0  0
   37.1220   29.7540   51.6740 C   0  0  0  0  0  0  0  0  0  0  0  0
   35.8330   29.4030   50.9740 C   0  0  0  0  0  0  0  0  0  0  0  0
   36.1240   29.3430   49.4610 C   0  0  1  0  0  0  0  0  0  0  0  0
   35.3980   31.2730   48.9320 H   0  0  0  0  0  0  0  0  0  0  0  0
   38.0850   32.1110   49.3600 H   0  0  0  0  0  0  0  0  0  0  0  0
   36.7750   32.0950   50.5250 H   0  0  0  0  0  0  0  0  0  0  0  0
   38.8280   29.8200   50.3340 H   0  0  0  0  0  0  0  0  0  0  0  0
   38.7020   31.1560   51.4750 H   0  0  0  0  0  0  0  0  0  0  0  0
   36.9660   30.2920   52.6360 H   0  0  0  0  0  0  0  0  0  0  0  0
   37.6100   28.7860   51.9320 H   0  0  0  0  0  0  0  0  0  0  0  0
   35.4570   28.4310   51.3360 H   0  0  0  0  0  0  0  0  0  0  0  0
   35.0900   30.1910   51.1490 H   0  0  0  0  0  0  0  0  0  0  0  0
   37.0080   28.7550   49.4720 H   0  0  0  0  0  0  0  0  0  0  0  0
   36.8400   30.6750   47.5690 C   0  0  0  0  0  0  0  0  0  0  0  0
   38.2190   30.8570   47.3550 C   0  0  0  0  0  0  0  0  0  0  0  0
   38.6640   30.8050   46.0290 C   0  0  0  0  0  0  0  0  0  0  0  0
   37.7500   30.5810   45.0290 N   0  0  0  0  0  0  0  0  0  0  0  0
   36.4120   30.4070   45.2930 C   0  0  0  0  0  0  0  0  0  0  0  0
   35.9840   30.4590   46.5650 N   0  0  0  0  0  0  0  0  0  0  0  0
   39.0360   31.0280   48.0260 H   0  0  0  0  0  0  0  0  0  0  0  0
   39.6920   30.9280   45.7180 H   0  0  0  0  0  0  0  0  0  0  0  0
   35.7390   30.2340   44.4710 H   0  0  0  0  0  0  0  0  0  0  0  0
   33.7930   28.4800   48.9390 C   0  0  0  0  0  0  0  0  0  0  0  0
   33.0360   29.0520   49.8250 O   0  0  0  0  0  0  0  0  0  0  0  0
   35.1680   28.6350   48.6950 N   0  0  0  0  0  0  0  0  0  0  0  0
   35.5090   28.1760   47.8210 H   0  0  0  0  0  0  0  0  0  0  0  0
   34.3490   27.4560   46.2420 F   0  0  0  0  0  0  0  0  0  0  0  0
   33.2100   27.1220   46.8840 C   0  0  0  0  0  0  0  0  0  0  0  0
   32.9310   27.5650   48.1570 C   0  0  0  0  0  0  0  0  0  0  0  0
   31.7280   27.0770   48.6030 C   0  0  0  0  0  0  0  0  0  0  0  0
   31.3730   27.3490   49.6090 H   0  0  0  0  0  0  0  0  0  0  0  0
   30.8670   26.2500   47.9240 C   0  0  0  0  0  0  0  0  0  0  0  0
   29.9360   25.9060   48.3420 H   0  0  0  0  0  0  0  0  0  0  0  0
   31.2310   25.8590   46.6560 C   0  0  0  0  0  3  0  0  0  0  0  0
   32.4140   26.3050   46.1450 C   0  0  0  0  0  3  0  0  0  0  0  0
  1  7  1  1  0  0  0
  1  6  1  0  0  0  0
  1  2  1  0  0  0  0
  2  9  1  0  0  0  0
  2  3  1  0  0  0  0
  3 11  1  0  0  0  0
  3  4  1  0  0  0  0
  4 13  1  0  0  0  0
  4 12  1  0  0  0  0
  5 15  1  0  0  0  0
  5 14  1  0  0  0  0
  5  4  1  0  0  0  0
  6 16  1  6  0  0  0
  6  5  1  0  0  0  0
  8  2  1  0  0  0  0
 10  3  1  0  0  0  0
 17  1  1  0  0  0  0
 18 17  1  0  0  0  0
 18 23  1  0  0  0  0
 19 18  2  0  0  0  0
 20 21  2  0  0  0  0
 20 19  1  0  0  0  0
 21 22  1  0  0  0  0
 22 17  2  0  0  0  0
 24 19  1  0  0  0  0
 25 21  1  0  0  0  0
 26 27  2  0  0  0  0
 28 26  1  0  0  0  0
 28  6  1  0  0  0  0
 29 28  1  0  0  0  0
 30 31  1  0  0  0  0
 31 32  1  0  0  0  0
 32 33  2  0  0  0  0
 32 26  1  0  0  0  0
 33 34  1  0  0  0  0
 35 36  1  0  0  0  0
 35 33  1  0  0  0  0
 37 35  2  0  0  0  0
 38 37  1  0  0  0  0
 38 31  2  0  0  0  0
M  END
>  <minimizedAffinity>
-5.92509985

>  <minimizedRMSD>
0.787252307

$$$$
