
 OpenBabel03272503063D

 32 34  0  0  0  0  0  0  0  0999 V2000
   40.2420   23.9100   34.7200 F   0  0  0  0  0  0  0  0  0  0  0  0
   39.6700   23.7710   35.9290 C   0  0  0  0  0  0  0  0  0  0  0  0
   40.3310   23.0980   36.9210 C   0  0  0  0  0  0  0  0  0  0  0  0
   39.6980   22.9890   38.1340 C   0  0  0  0  0  0  0  0  0  0  0  0
   38.4480   23.5240   38.3750 C   0  0  0  0  0  0  0  0  0  0  0  0
   37.7880   24.2020   37.3670 C   0  0  0  0  0  0  0  0  0  0  0  0
   38.4170   24.3140   36.1460 C   0  0  0  0  0  0  0  0  0  0  0  0
   40.2280   22.4500   38.9310 H   0  0  0  0  0  0  0  0  0  0  0  0
   37.9460   23.4410   39.3280 H   0  0  0  0  0  0  0  0  0  0  0  0
   36.8110   24.6610   37.4360 H   0  0  0  0  0  0  0  0  0  0  0  0
   44.0270   22.7850   36.1980 C   0  0  0  0  0  0  0  0  0  0  0  0
   42.7720   23.3380   36.4880 C   0  0  0  0  0  0  0  0  0  0  0  0
   41.6470   22.5500   36.6210 C   0  0  0  0  0  0  0  0  0  0  0  0
   41.8100   21.1950   36.4560 N   0  0  0  0  0  0  0  0  0  0  0  0
   43.0270   20.6750   36.1770 C   0  0  0  0  0  0  0  0  0  0  0  0
   44.1080   21.4540   36.0510 N   0  0  0  0  0  0  0  0  0  0  0  0
   44.8670   23.4610   36.1070 H   0  0  0  0  0  0  0  0  0  0  0  0
   42.6140   24.4110   36.6230 H   0  0  0  0  0  0  0  0  0  0  0  0
   43.1900   19.6120   36.0420 H   0  0  0  0  0  0  0  0  0  0  0  0
   37.9360   26.4170   35.0350 C   0  0  0  0  0  0  0  0  0  0  0  0
   38.6500   26.8440   36.0080 O   0  0  0  0  0  0  0  0  0  0  0  0
   37.7700   25.0030   35.0580 N   0  0  0  0  0  0  0  0  0  0  0  0
   37.2060   24.5570   34.3100 H   0  0  0  0  0  0  0  0  0  0  0  0
   38.6420   26.6830   32.2420 F   0  0  0  0  0  0  0  0  0  0  0  0
   37.7060   27.4900   32.7330 C   0  0  0  0  0  0  0  0  0  0  0  0
   37.3960   27.3360   34.0630 C   0  0  0  0  0  0  0  0  0  0  0  0
   36.4070   28.2130   34.5180 C   0  0  0  0  0  0  0  0  0  0  0  0
   36.0670   28.1940   35.5630 H   0  0  0  0  0  0  0  0  0  0  0  0
   35.8070   29.1410   33.6970 C   0  0  0  0  0  0  0  0  0  0  0  0
   35.0470   29.7960   34.0990 H   0  0  0  0  0  0  0  0  0  0  0  0
   36.1570   29.2520   32.3680 C   0  0  0  0  0  3  0  0  0  0  0  0
   37.1280   28.4070   31.8830 C   0  0  0  0  0  3  0  0  0  0  0  0
  1  2  1  0  0  0  0
  2  7  2  0  0  0  0
  2  3  1  0  0  0  0
  3  4  2  0  0  0  0
  4  5  1  0  0  0  0
  4  8  1  0  0  0  0
  5  9  1  0  0  0  0
  6 10  1  0  0  0  0
  6  5  2  0  0  0  0
  7  6  1  0  0  0  0
 11 12  1  0  0  0  0
 12 13  2  0  0  0  0
 12 18  1  0  0  0  0
 13  3  1  0  0  0  0
 14 13  1  0  0  0  0
 15 14  2  0  0  0  0
 16 15  1  0  0  0  0
 16 11  2  0  0  0  0
 17 11  1  0  0  0  0
 19 15  1  0  0  0  0
 20 22  1  0  0  0  0
 20 21  2  0  0  0  0
 22  7  1  0  0  0  0
 23 22  1  0  0  0  0
 24 25  1  0  0  0  0
 25 26  1  0  0  0  0
 26 27  2  0  0  0  0
 26 20  1  0  0  0  0
 27 28  1  0  0  0  0
 29 30  1  0  0  0  0
 29 27  1  0  0  0  0
 31 29  2  0  0  0  0
 32 31  1  0  0  0  0
 32 25  2  0  0  0  0
M  END
>  <minimizedAffinity>
-5.96064281

$$$$

 OpenBabel03272503063D

 32 34  0  0  0  0  0  0  0  0999 V2000
   40.3480   23.8740   34.5150 F   0  0  0  0  0  0  0  0  0  0  0  0
   39.7280   23.7690   35.7040 C   0  0  0  0  0  0  0  0  0  0  0  0
   40.3460   23.1220   36.7380 C   0  0  0  0  0  0  0  0  0  0  0  0
   39.6660   23.0480   37.9280 C   0  0  0  0  0  0  0  0  0  0  0  0
   38.4090   23.5920   38.1050 C   0  0  0  0  0  0  0  0  0  0  0  0
   37.7920   24.2440   37.0530 C   0  0  0  0  0  0  0  0  0  0  0  0
   38.4700   24.3220   35.8550 C   0  0  0  0  0  0  0  0  0  0  0  0
   40.1610   22.5280   38.7590 H   0  0  0  0  0  0  0  0  0  0  0  0
   37.8690   23.5360   39.0380 H   0  0  0  0  0  0  0  0  0  0  0  0
   36.8150   24.7080   37.0710 H   0  0  0  0  0  0  0  0  0  0  0  0
   44.0740   22.7750   36.2190 C   0  0  0  0  0  0  0  0  0  0  0  0
   42.8100   23.3390   36.4440 C   0  0  0  0  0  0  0  0  0  0  0  0
   41.6710   22.5620   36.5060 C   0  0  0  0  0  0  0  0  0  0  0  0
   41.8290   21.2070   36.3360 N   0  0  0  0  0  0  0  0  0  0  0  0
   43.0530   20.6760   36.1190 C   0  0  0  0  0  0  0  0  0  0  0  0
   44.1490   21.4440   36.0620 N   0  0  0  0  0  0  0  0  0  0  0  0
   44.9250   23.4420   36.1820 H   0  0  0  0  0  0  0  0  0  0  0  0
   42.6560   24.4120   36.5820 H   0  0  0  0  0  0  0  0  0  0  0  0
   43.2120   19.6120   35.9810 H   0  0  0  0  0  0  0  0  0  0  0  0
   38.1230   26.3790   34.6180 C   0  0  0  0  0  0  0  0  0  0  0  0
   38.8600   26.8200   35.5680 O   0  0  0  0  0  0  0  0  0  0  0  0
   37.8690   24.9830   34.7240 N   0  0  0  0  0  0  0  0  0  0  0  0
   37.2800   24.5290   34.0010 H   0  0  0  0  0  0  0  0  0  0  0  0
   35.8920   28.2180   34.7410 F   0  0  0  0  0  0  0  0  0  0  0  0
   36.5910   28.1540   33.6110 C   0  0  0  0  0  0  0  0  0  0  0  0
   37.6440   27.2700   33.5890 C   0  0  0  0  0  0  0  0  0  0  0  0
   38.3390   27.2500   32.3750 C   0  0  0  0  0  0  0  0  0  0  0  0
   39.2010   26.5860   32.2260 H   0  0  0  0  0  0  0  0  0  0  0  0
   37.9890   28.0480   31.3090 C   0  0  0  0  0  0  0  0  0  0  0  0
   38.5590   27.9930   30.3930 H   0  0  0  0  0  0  0  0  0  0  0  0
   36.9220   28.9180   31.3880 C   0  0  0  0  0  3  0  0  0  0  0  0
   36.2130   28.9660   32.5660 C   0  0  0  0  0  3  0  0  0  0  0  0
  1  2  1  0  0  0  0
  2  7  2  0  0  0  0
  2  3  1  0  0  0  0
  3  4  2  0  0  0  0
  4  5  1  0  0  0  0
  4  8  1  0  0  0  0
  5  9  1  0  0  0  0
  6 10  1  0  0  0  0
  6  5  2  0  0  0  0
  7  6  1  0  0  0  0
 11 12  1  0  0  0  0
 12 13  2  0  0  0  0
 12 18  1  0  0  0  0
 13  3  1  0  0  0  0
 14 13  1  0  0  0  0
 15 14  2  0  0  0  0
 16 15  1  0  0  0  0
 16 11  2  0  0  0  0
 17 11  1  0  0  0  0
 19 15  1  0  0  0  0
 20 22  1  0  0  0  0
 20 21  2  0  0  0  0
 22  7  1  0  0  0  0
 23 22  1  0  0  0  0
 25 24  1  0  0  0  0
 26 25  1  0  0  0  0
 26 20  1  0  0  0  0
 27 26  2  0  0  0  0
 28 27  1  0  0  0  0
 29 31  2  0  0  0  0
 29 27  1  0  0  0  0
 30 29  1  0  0  0  0
 31 32  1  0  0  0  0
 32 25  2  0  0  0  0
M  END
>  <minimizedAffinity>
-5.75722075

$$$$

 OpenBabel03272503063D

 32 34  0  0  0  0  0  0  0  0999 V2000
   36.0020   28.0730   34.6070 F   0  0  0  0  0  0  0  0  0  0  0  0
   36.1400   28.7980   33.4820 C   0  0  0  0  0  0  0  0  0  0  0  0
   35.6760   30.0840   33.4400 C   0  0  0  0  0  0  0  0  0  0  0  0
   35.8460   30.7740   32.2660 C   0  0  0  0  0  0  0  0  0  0  0  0
   36.4530   30.2220   31.1560 C   0  0  0  0  0  0  0  0  0  0  0  0
   36.9190   28.9210   31.2080 C   0  0  0  0  0  0  0  0  0  0  0  0
   36.7510   28.2220   32.3840 C   0  0  0  0  0  0  0  0  0  0  0  0
   35.4740   31.8070   32.2310 H   0  0  0  0  0  0  0  0  0  0  0  0
   36.5890   30.7600   30.2300 H   0  0  0  0  0  0  0  0  0  0  0  0
   37.4090   28.3830   30.4080 H   0  0  0  0  0  0  0  0  0  0  0  0
   35.0850   31.8960   36.7040 C   0  0  0  0  0  0  0  0  0  0  0  0
   35.7200   31.3880   35.5620 C   0  0  0  0  0  0  0  0  0  0  0  0
   35.0400   30.6250   34.6340 C   0  0  0  0  0  0  0  0  0  0  0  0
   33.7090   30.3840   34.8780 N   0  0  0  0  0  0  0  0  0  0  0  0
   33.1090   30.8810   35.9830 C   0  0  0  0  0  0  0  0  0  0  0  0
   33.7830   31.6190   36.8740 N   0  0  0  0  0  0  0  0  0  0  0  0
   35.6780   32.4860   37.3900 H   0  0  0  0  0  0  0  0  0  0  0  0
   36.7770   31.5630   35.3440 H   0  0  0  0  0  0  0  0  0  0  0  0
   32.0620   30.7100   36.2060 H   0  0  0  0  0  0  0  0  0  0  0  0
   36.3390   25.8710   31.9480 C   0  0  0  0  0  0  0  0  0  0  0  0
   35.2730   26.3740   31.4490 O   0  0  0  0  0  0  0  0  0  0  0  0
   37.2100   26.8590   32.4890 N   0  0  0  0  0  0  0  0  0  0  0  0
   38.1030   26.5530   32.9190 H   0  0  0  0  0  0  0  0  0  0  0  0
   38.5290   24.3780   33.1100 F   0  0  0  0  0  0  0  0  0  0  0  0
   37.5820   23.7030   32.4630 C   0  0  0  0  0  0  0  0  0  0  0  0
   36.5580   24.4450   31.9240 C   0  0  0  0  0  0  0  0  0  0  0  0
   35.5960   23.6800   31.2570 C   0  0  0  0  0  0  0  0  0  0  0  0
   34.7250   24.1500   30.7810 H   0  0  0  0  0  0  0  0  0  0  0  0
   35.6810   22.3090   31.1580 C   0  0  0  0  0  0  0  0  0  0  0  0
   34.9100   21.7640   30.6310 H   0  0  0  0  0  0  0  0  0  0  0  0
   36.7330   21.6160   31.7180 C   0  0  0  0  0  3  0  0  0  0  0  0
   37.7000   22.3340   32.3820 C   0  0  0  0  0  3  0  0  0  0  0  0
  2  1  1  0  0  0  0
  3  2  1  0  0  0  0
  3 13  1  0  0  0  0
  4  3  2  0  0  0  0
  5  6  2  0  0  0  0
  5  4  1  0  0  0  0
  6  7  1  0  0  0  0
  7 22  1  0  0  0  0
  7  2  2  0  0  0  0
  8  4  1  0  0  0  0
  9  5  1  0  0  0  0
 10  6  1  0  0  0  0
 11 16  1  0  0  0  0
 11 17  1  0  0  0  0
 12 11  2  0  0  0  0
 13 14  2  0  0  0  0
 13 12  1  0  0  0  0
 14 15  1  0  0  0  0
 15 19  1  0  0  0  0
 15 16  2  0  0  0  0
 18 12  1  0  0  0  0
 20 22  1  0  0  0  0
 21 20  2  0  0  0  0
 22 23  1  0  0  0  0
 25 24  1  0  0  0  0
 26 20  1  0  0  0  0
 26 25  2  0  0  0  0
 27 26  1  0  0  0  0
 28 27  1  0  0  0  0
 29 27  2  0  0  0  0
 29 31  1  0  0  0  0
 30 29  1  0  0  0  0
 31 32  2  0  0  0  0
 32 25  1  0  0  0  0
M  END
>  <minimizedAffinity>
-5.74588251

$$$$

 OpenBabel03272503063D

 32 34  0  0  0  0  0  0  0  0999 V2000
   36.2730   27.1690   35.2650 F   0  0  0  0  0  0  0  0  0  0  0  0
   36.6630   27.4460   34.0090 C   0  0  0  0  0  0  0  0  0  0  0  0
   36.2550   28.6070   33.4100 C   0  0  0  0  0  0  0  0  0  0  0  0
   36.6860   28.8370   32.1280 C   0  0  0  0  0  0  0  0  0  0  0  0
   37.4970   27.9530   31.4430 C   0  0  0  0  0  0  0  0  0  0  0  0
   37.9040   26.7830   32.0560 C   0  0  0  0  0  0  0  0  0  0  0  0
   37.4740   26.5460   33.3440 C   0  0  0  0  0  0  0  0  0  0  0  0
   36.3590   29.7680   31.6460 H   0  0  0  0  0  0  0  0  0  0  0  0
   37.8390   28.1290   30.4340 H   0  0  0  0  0  0  0  0  0  0  0  0
   38.5350   26.0180   31.6230 H   0  0  0  0  0  0  0  0  0  0  0  0
   35.0530   31.3630   35.7000 C   0  0  0  0  0  0  0  0  0  0  0  0
   35.8990   30.5090   34.9790 C   0  0  0  0  0  0  0  0  0  0  0  0
   35.3990   29.5080   34.1700 C   0  0  0  0  0  0  0  0  0  0  0  0
   34.0320   29.3840   34.1020 N   0  0  0  0  0  0  0  0  0  0  0  0
   33.2270   30.2150   34.8030 C   0  0  0  0  0  0  0  0  0  0  0  0
   33.7280   31.1810   35.5840 N   0  0  0  0  0  0  0  0  0  0  0  0
   35.5120   32.1260   36.3150 H   0  0  0  0  0  0  0  0  0  0  0  0
   36.9880   30.5850   35.0150 H   0  0  0  0  0  0  0  0  0  0  0  0
   32.1460   30.1450   34.7720 H   0  0  0  0  0  0  0  0  0  0  0  0
   38.9440   25.4640   34.9420 C   0  0  0  0  0  0  0  0  0  0  0  0
   39.3980   26.6590   35.0050 O   0  0  0  0  0  0  0  0  0  0  0  0
   37.8620   25.3360   34.0260 N   0  0  0  0  0  0  0  0  0  0  0  0
   37.4230   24.4050   33.9020 H   0  0  0  0  0  0  0  0  0  0  0  0
   37.7910   24.1250   37.2340 F   0  0  0  0  0  0  0  0  0  0  0  0
   39.0080   23.7590   36.8390 C   0  0  0  0  0  0  0  0  0  0  0  0
   39.5230   24.4170   35.7470 C   0  0  0  0  0  0  0  0  0  0  0  0
   40.8040   23.9880   35.3830 C   0  0  0  0  0  0  0  0  0  0  0  0
   41.3300   24.4320   34.5270 H   0  0  0  0  0  0  0  0  0  0  0  0
   41.4740   22.9960   36.0650 C   0  0  0  0  0  0  0  0  0  0  0  0
   42.4620   22.7020   35.7410 H   0  0  0  0  0  0  0  0  0  0  0  0
   40.9060   22.3700   37.1540 C   0  0  0  0  0  3  0  0  0  0  0  0
   39.6480   22.7650   37.5450 C   0  0  0  0  0  3  0  0  0  0  0  0
  2  1  1  0  0  0  0
  3  2  1  0  0  0  0
  3 13  1  0  0  0  0
  4  3  2  0  0  0  0
  5  6  2  0  0  0  0
  5  4  1  0  0  0  0
  6  7  1  0  0  0  0
  7  2  2  0  0  0  0
  7 22  1  0  0  0  0
  8  4  1  0  0  0  0
  9  5  1  0  0  0  0
 10  6  1  0  0  0  0
 11 17  1  0  0  0  0
 12 18  1  0  0  0  0
 12 11  2  0  0  0  0
 13 12  1  0  0  0  0
 14 13  2  0  0  0  0
 14 15  1  0  0  0  0
 15 16  2  0  0  0  0
 16 11  1  0  0  0  0
 19 15  1  0  0  0  0
 20 21  2  0  0  0  0
 20 26  1  0  0  0  0
 22 20  1  0  0  0  0
 23 22  1  0  0  0  0
 25 24  1  0  0  0  0
 25 32  1  0  0  0  0
 26 25  2  0  0  0  0
 27 26  1  0  0  0  0
 27 29  2  0  0  0  0
 28 27  1  0  0  0  0
 29 31  1  0  0  0  0
 30 29  1  0  0  0  0
 31 32  2  0  0  0  0
M  END
>  <minimizedAffinity>
-5.6113658

$$$$

 OpenBabel03272503063D

 32 34  0  0  0  0  0  0  0  0999 V2000
   36.1570   28.3550   34.8410 F   0  0  0  0  0  0  0  0  0  0  0  0
   36.6850   28.1990   33.6140 C   0  0  0  0  0  0  0  0  0  0  0  0
   36.0960   28.8030   32.5380 C   0  0  0  0  0  0  0  0  0  0  0  0
   36.6800   28.6090   31.3110 C   0  0  0  0  0  0  0  0  0  0  0  0
   37.8140   27.8410   31.1380 C   0  0  0  0  0  0  0  0  0  0  0  0
   38.4030   27.2340   32.2320 C   0  0  0  0  0  0  0  0  0  0  0  0
   37.8210   27.4250   33.4660 C   0  0  0  0  0  0  0  0  0  0  0  0
   36.2070   29.0930   30.4460 H   0  0  0  0  0  0  0  0  0  0  0  0
   38.2780   27.6840   30.1750 H   0  0  0  0  0  0  0  0  0  0  0  0
   39.2890   26.6120   32.2210 H   0  0  0  0  0  0  0  0  0  0  0  0
   33.7770   31.7080   33.2210 C   0  0  0  0  0  0  0  0  0  0  0  0
   34.9430   30.9620   33.0020 C   0  0  0  0  0  0  0  0  0  0  0  0
   34.8990   29.6020   32.7670 C   0  0  0  0  0  0  0  0  0  0  0  0
   33.6590   29.0100   32.7580 N   0  0  0  0  0  0  0  0  0  0  0  0
   32.5420   29.7420   32.9700 C   0  0  0  0  0  0  0  0  0  0  0  0
   32.6020   31.0600   33.1970 N   0  0  0  0  0  0  0  0  0  0  0  0
   33.8840   32.7700   33.3990 H   0  0  0  0  0  0  0  0  0  0  0  0
   35.9410   31.4070   33.0050 H   0  0  0  0  0  0  0  0  0  0  0  0
   31.5490   29.3060   32.9690 H   0  0  0  0  0  0  0  0  0  0  0  0
   38.1170   25.4200   34.7990 C   0  0  0  0  0  0  0  0  0  0  0  0
   37.3980   24.9460   33.8520 O   0  0  0  0  0  0  0  0  0  0  0  0
   38.3890   26.8070   34.6390 N   0  0  0  0  0  0  0  0  0  0  0  0
   38.9650   27.2870   35.3550 H   0  0  0  0  0  0  0  0  0  0  0  0
   40.3510   23.5800   34.8180 F   0  0  0  0  0  0  0  0  0  0  0  0
   39.6160   23.6870   35.9210 C   0  0  0  0  0  0  0  0  0  0  0  0
   38.5630   24.5700   35.8760 C   0  0  0  0  0  0  0  0  0  0  0  0
   37.8300   24.6350   37.0650 C   0  0  0  0  0  0  0  0  0  0  0  0
   36.9620   25.3020   37.1620 H   0  0  0  0  0  0  0  0  0  0  0  0
   38.1460   23.8790   38.1710 C   0  0  0  0  0  0  0  0  0  0  0  0
   37.5460   23.9670   39.0660 H   0  0  0  0  0  0  0  0  0  0  0  0
   39.2150   23.0080   38.1600 C   0  0  0  0  0  3  0  0  0  0  0  0
   39.9600   22.9140   37.0080 C   0  0  0  0  0  3  0  0  0  0  0  0
  2  1  1  0  0  0  0
  3 13  1  0  0  0  0
  3  2  2  0  0  0  0
  4  3  1  0  0  0  0
  5  4  2  0  0  0  0
  5  6  1  0  0  0  0
  6  7  2  0  0  0  0
  7  2  1  0  0  0  0
  7 22  1  0  0  0  0
  8  4  1  0  0  0  0
  9  5  1  0  0  0  0
 10  6  1  0  0  0  0
 11 17  1  0  0  0  0
 12 18  1  0  0  0  0
 12 11  2  0  0  0  0
 13 12  1  0  0  0  0
 14 13  2  0  0  0  0
 14 15  1  0  0  0  0
 15 16  2  0  0  0  0
 16 11  1  0  0  0  0
 19 15  1  0  0  0  0
 20 26  1  0  0  0  0
 21 20  2  0  0  0  0
 22 20  1  0  0  0  0
 22 23  1  0  0  0  0
 24 25  1  0  0  0  0
 25 32  1  0  0  0  0
 26 25  2  0  0  0  0
 26 27  1  0  0  0  0
 27 28  1  0  0  0  0
 27 29  2  0  0  0  0
 29 30  1  0  0  0  0
 31 29  1  0  0  0  0
 32 31  2  0  0  0  0
M  END
>  <minimizedAffinity>
-5.54953909

$$$$

 OpenBabel03272503063D

 32 34  0  0  0  0  0  0  0  0999 V2000
   36.2780   26.9930   33.4850 F   0  0  0  0  0  0  0  0  0  0  0  0
   36.4410   27.7050   32.3570 C   0  0  0  0  0  0  0  0  0  0  0  0
   36.6830   27.0620   31.1740 C   0  0  0  0  0  0  0  0  0  0  0  0
   36.8410   27.8410   30.0560 C   0  0  0  0  0  0  0  0  0  0  0  0
   36.7640   29.2200   30.0900 C   0  0  0  0  0  0  0  0  0  0  0  0
   36.5190   29.8620   31.2890 C   0  0  0  0  0  0  0  0  0  0  0  0
   36.3610   29.0840   32.4170 C   0  0  0  0  0  0  0  0  0  0  0  0
   37.0350   27.3260   29.1060 H   0  0  0  0  0  0  0  0  0  0  0  0
   36.8870   29.8380   29.2130 H   0  0  0  0  0  0  0  0  0  0  0  0
   36.4370   30.9300   31.4400 H   0  0  0  0  0  0  0  0  0  0  0  0
   35.7370   23.4030   31.1440 C   0  0  0  0  0  0  0  0  0  0  0  0
   35.6380   24.8010   31.1310 C   0  0  0  0  0  0  0  0  0  0  0  0
   36.7580   25.6070   31.1860 C   0  0  0  0  0  0  0  0  0  0  0  0
   37.9780   24.9770   31.2550 N   0  0  0  0  0  0  0  0  0  0  0  0
   38.0590   23.6270   31.2670 C   0  0  0  0  0  0  0  0  0  0  0  0
   36.9630   22.8600   31.2140 N   0  0  0  0  0  0  0  0  0  0  0  0
   34.8190   22.8320   31.0990 H   0  0  0  0  0  0  0  0  0  0  0  0
   34.6820   25.3270   31.0770 H   0  0  0  0  0  0  0  0  0  0  0  0
   39.0040   23.0990   31.3210 H   0  0  0  0  0  0  0  0  0  0  0  0
   34.7560   30.0380   33.9650 C   0  0  0  0  0  0  0  0  0  0  0  0
   33.9690   29.7240   33.0050 O   0  0  0  0  0  0  0  0  0  0  0  0
   36.1120   29.7030   33.6950 N   0  0  0  0  0  0  0  0  0  0  0  0
   36.8300   29.9180   34.4120 H   0  0  0  0  0  0  0  0  0  0  0  0
   36.0700   31.9490   35.6960 F   0  0  0  0  0  0  0  0  0  0  0  0
   34.8330   31.5700   36.0040 C   0  0  0  0  0  0  0  0  0  0  0  0
   34.2400   30.6610   35.1600 C   0  0  0  0  0  0  0  0  0  0  0  0
   32.9420   30.3020   35.5390 C   0  0  0  0  0  0  0  0  0  0  0  0
   32.3570   29.5830   34.9490 H   0  0  0  0  0  0  0  0  0  0  0  0
   32.3280   30.8200   36.6570 C   0  0  0  0  0  0  0  0  0  0  0  0
   31.3240   30.5100   36.9050 H   0  0  0  0  0  0  0  0  0  0  0  0
   32.9720   31.7300   37.4690 C   0  0  0  0  0  3  0  0  0  0  0  0
   34.2510   32.1070   37.1300 C   0  0  0  0  0  3  0  0  0  0  0  0
  2  7  1  0  0  0  0
  2  1  1  0  0  0  0
  3 13  1  0  0  0  0
  3  2  2  0  0  0  0
  4  5  2  0  0  0  0
  4  3  1  0  0  0  0
  5  6  1  0  0  0  0
  6 10  1  0  0  0  0
  6  7  2  0  0  0  0
  7 22  1  0  0  0  0
  8  4  1  0  0  0  0
  9  5  1  0  0  0  0
 11 16  1  0  0  0  0
 12 11  2  0  0  0  0
 12 13  1  0  0  0  0
 13 14  2  0  0  0  0
 14 15  1  0  0  0  0
 15 19  1  0  0  0  0
 16 15  2  0  0  0  0
 17 11  1  0  0  0  0
 18 12  1  0  0  0  0
 20 26  1  0  0  0  0
 21 20  2  0  0  0  0
 22 20  1  0  0  0  0
 22 23  1  0  0  0  0
 24 25  1  0  0  0  0
 25 32  1  0  0  0  0
 26 27  1  0  0  0  0
 26 25  2  0  0  0  0
 27 29  2  0  0  0  0
 28 27  1  0  0  0  0
 29 30  1  0  0  0  0
 29 31  1  0  0  0  0
 32 31  2  0  0  0  0
M  END
>  <minimizedAffinity>
-5.38500452

$$$$

 OpenBabel03272503063D

 32 34  0  0  0  0  0  0  0  0999 V2000
   39.7980   26.7700   32.3660 F   0  0  0  0  0  0  0  0  0  0  0  0
   38.6720   27.1910   32.9680 C   0  0  0  0  0  0  0  0  0  0  0  0
   37.7260   27.8660   32.2470 C   0  0  0  0  0  0  0  0  0  0  0  0
   36.5970   28.2690   32.9150 C   0  0  0  0  0  0  0  0  0  0  0  0
   36.3950   28.0200   34.2580 C   0  0  0  0  0  0  0  0  0  0  0  0
   37.3560   27.3370   34.9790 C   0  0  0  0  0  0  0  0  0  0  0  0
   38.4930   26.9290   34.3140 C   0  0  0  0  0  0  0  0  0  0  0  0
   35.8360   28.8110   32.3370 H   0  0  0  0  0  0  0  0  0  0  0  0
   35.5080   28.3350   34.7890 H   0  0  0  0  0  0  0  0  0  0  0  0
   37.3110   27.0840   36.0300 H   0  0  0  0  0  0  0  0  0  0  0  0
   37.6730   29.3650   28.7780 C   0  0  0  0  0  0  0  0  0  0  0  0
   37.4110   29.1550   30.1390 C   0  0  0  0  0  0  0  0  0  0  0  0
   37.9820   28.1070   30.8330 C   0  0  0  0  0  0  0  0  0  0  0  0
   38.8240   27.2780   30.1310 N   0  0  0  0  0  0  0  0  0  0  0  0
   39.0690   27.4920   28.8190 C   0  0  0  0  0  0  0  0  0  0  0  0
   38.5050   28.5120   28.1590 N   0  0  0  0  0  0  0  0  0  0  0  0
   37.1910   30.2050   28.2950 H   0  0  0  0  0  0  0  0  0  0  0  0
   36.7460   29.7980   30.7210 H   0  0  0  0  0  0  0  0  0  0  0  0
   39.7270   26.8570   28.2360 H   0  0  0  0  0  0  0  0  0  0  0  0
   39.4070   24.8040   35.0440 C   0  0  0  0  0  0  0  0  0  0  0  0
   38.3700   24.3900   34.4180 O   0  0  0  0  0  0  0  0  0  0  0  0
   39.5320   26.2220   35.0210 N   0  0  0  0  0  0  0  0  0  0  0  0
   40.3410   26.6570   35.5020 H   0  0  0  0  0  0  0  0  0  0  0  0
   42.1650   24.2380   34.3760 F   0  0  0  0  0  0  0  0  0  0  0  0
   41.6140   23.5720   35.3890 C   0  0  0  0  0  0  0  0  0  0  0  0
   40.3030   23.8670   35.6770 C   0  0  0  0  0  0  0  0  0  0  0  0
   39.7820   23.1350   36.7490 C   0  0  0  0  0  0  0  0  0  0  0  0
   38.7450   23.2750   37.0820 H   0  0  0  0  0  0  0  0  0  0  0  0
   40.5270   22.2080   37.4430 C   0  0  0  0  0  0  0  0  0  0  0  0
   40.0770   21.6700   38.2640 H   0  0  0  0  0  0  0  0  0  0  0  0
   41.8410   21.9530   37.1090 C   0  0  0  0  0  3  0  0  0  0  0  0
   42.3890   22.6520   36.0590 C   0  0  0  0  0  3  0  0  0  0  0  0
  1  2  1  0  0  0  0
  2  7  1  0  0  0  0
  3  4  1  0  0  0  0
  3  2  2  0  0  0  0
  4  5  2  0  0  0  0
  5  9  1  0  0  0  0
  5  6  1  0  0  0  0
  6 10  1  0  0  0  0
  7  6  2  0  0  0  0
  7 22  1  0  0  0  0
  8  4  1  0  0  0  0
 11 12  1  0  0  0  0
 12 18  1  0  0  0  0
 12 13  2  0  0  0  0
 13  3  1  0  0  0  0
 14 13  1  0  0  0  0
 15 14  2  0  0  0  0
 16 11  2  0  0  0  0
 16 15  1  0  0  0  0
 17 11  1  0  0  0  0
 19 15  1  0  0  0  0
 20 26  1  0  0  0  0
 21 20  2  0  0  0  0
 22 20  1  0  0  0  0
 22 23  1  0  0  0  0
 24 25  1  0  0  0  0
 25 26  2  0  0  0  0
 25 32  1  0  0  0  0
 26 27  1  0  0  0  0
 27 28  1  0  0  0  0
 27 29  2  0  0  0  0
 29 30  1  0  0  0  0
 31 29  1  0  0  0  0
 32 31  2  0  0  0  0
M  END
>  <minimizedAffinity>
-5.36375618

$$$$

 OpenBabel03272503063D

 32 34  0  0  0  0  0  0  0  0999 V2000
   36.6390   26.5210   34.5020 F   0  0  0  0  0  0  0  0  0  0  0  0
   37.2860   26.8570   33.3720 C   0  0  0  0  0  0  0  0  0  0  0  0
   36.9050   27.9700   32.6740 C   0  0  0  0  0  0  0  0  0  0  0  0
   37.6030   28.2630   31.5300 C   0  0  0  0  0  0  0  0  0  0  0  0
   38.6510   27.4870   31.0750 C   0  0  0  0  0  0  0  0  0  0  0  0
   39.0300   26.3640   31.7870 C   0  0  0  0  0  0  0  0  0  0  0  0
   38.3320   26.0640   32.9370 C   0  0  0  0  0  0  0  0  0  0  0  0
   37.2980   29.1560   30.9690 H   0  0  0  0  0  0  0  0  0  0  0  0
   39.2040   27.7130   30.1750 H   0  0  0  0  0  0  0  0  0  0  0  0
   39.8300   25.6830   31.5320 H   0  0  0  0  0  0  0  0  0  0  0  0
   34.8200   30.3200   34.7760 C   0  0  0  0  0  0  0  0  0  0  0  0
   35.9060   29.5730   34.2990 C   0  0  0  0  0  0  0  0  0  0  0  0
   35.7930   28.7580   33.1910 C   0  0  0  0  0  0  0  0  0  0  0  0
   34.5660   28.7100   32.5720 N   0  0  0  0  0  0  0  0  0  0  0  0
   33.5270   29.4370   33.0430 C   0  0  0  0  0  0  0  0  0  0  0  0
   33.6530   30.2220   34.1200 N   0  0  0  0  0  0  0  0  0  0  0  0
   34.9780   30.9370   35.6500 H   0  0  0  0  0  0  0  0  0  0  0  0
   36.8920   29.5900   34.7710 H   0  0  0  0  0  0  0  0  0  0  0  0
   32.5470   29.4230   32.5790 H   0  0  0  0  0  0  0  0  0  0  0  0
   39.6620   25.1000   34.7220 C   0  0  0  0  0  0  0  0  0  0  0  0
   40.0790   26.3100   34.7710 O   0  0  0  0  0  0  0  0  0  0  0  0
   38.6790   24.8990   33.7130 N   0  0  0  0  0  0  0  0  0  0  0  0
   38.2780   23.9500   33.5910 H   0  0  0  0  0  0  0  0  0  0  0  0
   42.3490   24.0340   34.8530 F   0  0  0  0  0  0  0  0  0  0  0  0
   41.4500   23.5790   35.7220 C   0  0  0  0  0  0  0  0  0  0  0  0
   40.1850   24.1080   35.6300 C   0  0  0  0  0  0  0  0  0  0  0  0
   39.2870   23.5900   36.5690 C   0  0  0  0  0  0  0  0  0  0  0  0
   38.2420   23.9290   36.6030 H   0  0  0  0  0  0  0  0  0  0  0  0
   39.6520   22.6390   37.4950 C   0  0  0  0  0  0  0  0  0  0  0  0
   38.9190   22.2720   38.1990 H   0  0  0  0  0  0  0  0  0  0  0  0
   40.9380   22.1440   37.5420 C   0  0  0  0  0  3  0  0  0  0  0  0
   41.8500   22.6270   36.6330 C   0  0  0  0  0  3  0  0  0  0  0  0
  2  1  1  0  0  0  0
  3 13  1  0  0  0  0
  3  2  2  0  0  0  0
  4  3  1  0  0  0  0
  5  4  2  0  0  0  0
  5  6  1  0  0  0  0
  6  7  2  0  0  0  0
  7  2  1  0  0  0  0
  7 22  1  0  0  0  0
  8  4  1  0  0  0  0
  9  5  1  0  0  0  0
 10  6  1  0  0  0  0
 11 17  1  0  0  0  0
 12 18  1  0  0  0  0
 12 11  1  0  0  0  0
 13 12  2  0  0  0  0
 14 15  2  0  0  0  0
 14 13  1  0  0  0  0
 15 16  1  0  0  0  0
 16 11  2  0  0  0  0
 19 15  1  0  0  0  0
 20 21  2  0  0  0  0
 20 26  1  0  0  0  0
 22 20  1  0  0  0  0
 23 22  1  0  0  0  0
 24 25  1  0  0  0  0
 25 32  1  0  0  0  0
 26 25  2  0  0  0  0
 26 27  1  0  0  0  0
 27 28  1  0  0  0  0
 27 29  2  0  0  0  0
 29 31  1  0  0  0  0
 29 30  1  0  0  0  0
 32 31  2  0  0  0  0
M  END
>  <minimizedAffinity>
-5.36233616

$$$$

 OpenBabel03272503063D

 32 34  0  0  0  0  0  0  0  0999 V2000
   38.4260   26.5430   32.5080 F   0  0  0  0  0  0  0  0  0  0  0  0
   37.4590   25.6920   32.1230 C   0  0  0  0  0  0  0  0  0  0  0  0
   36.3220   26.1750   31.5360 C   0  0  0  0  0  0  0  0  0  0  0  0
   35.3700   25.2590   31.1630 C   0  0  0  0  0  0  0  0  0  0  0  0
   35.5240   23.9010   31.3590 C   0  0  0  0  0  0  0  0  0  0  0  0
   36.6760   23.4220   31.9540 C   0  0  0  0  0  0  0  0  0  0  0  0
   37.6360   24.3370   32.3320 C   0  0  0  0  0  0  0  0  0  0  0  0
   34.4570   25.6460   30.6910 H   0  0  0  0  0  0  0  0  0  0  0  0
   34.7780   23.1760   31.0680 H   0  0  0  0  0  0  0  0  0  0  0  0
   36.9090   22.3860   32.1590 H   0  0  0  0  0  0  0  0  0  0  0  0
   35.4460   29.8160   32.0470 C   0  0  0  0  0  0  0  0  0  0  0  0
   35.5480   28.4330   32.2500 C   0  0  0  0  0  0  0  0  0  0  0  0
   36.2030   27.6150   31.3500 C   0  0  0  0  0  0  0  0  0  0  0  0
   36.7530   28.2180   30.2450 N   0  0  0  0  0  0  0  0  0  0  0  0
   36.6490   29.5540   30.0620 C   0  0  0  0  0  0  0  0  0  0  0  0
   36.0090   30.3330   30.9440 N   0  0  0  0  0  0  0  0  0  0  0  0
   34.9180   30.3970   32.7920 H   0  0  0  0  0  0  0  0  0  0  0  0
   35.1190   27.9270   33.1190 H   0  0  0  0  0  0  0  0  0  0  0  0
   37.0710   30.0610   29.2020 H   0  0  0  0  0  0  0  0  0  0  0  0
   38.8710   23.9610   34.3850 C   0  0  0  0  0  0  0  0  0  0  0  0
   37.7770   24.4160   34.8710 O   0  0  0  0  0  0  0  0  0  0  0  0
   38.8530   23.8920   32.9640 N   0  0  0  0  0  0  0  0  0  0  0  0
   39.6940   23.5350   32.4730 H   0  0  0  0  0  0  0  0  0  0  0  0
   38.7750   22.2600   36.7240 F   0  0  0  0  0  0  0  0  0  0  0  0
   39.9490   22.7770   36.3720 C   0  0  0  0  0  0  0  0  0  0  0  0
   39.9560   23.5800   35.2560 C   0  0  0  0  0  0  0  0  0  0  0  0
   41.2180   24.0920   34.9380 C   0  0  0  0  0  0  0  0  0  0  0  0
   41.3620   24.7490   34.0690 H   0  0  0  0  0  0  0  0  0  0  0  0
   42.3410   23.8100   35.6840 C   0  0  0  0  0  0  0  0  0  0  0  0
   43.2920   24.2310   35.3940 H   0  0  0  0  0  0  0  0  0  0  0  0
   42.2740   22.9960   36.7950 C   0  0  0  0  0  3  0  0  0  0  0  0
   41.0500   22.4730   37.1410 C   0  0  0  0  0  3  0  0  0  0  0  0
  2  7  1  0  0  0  0
  2  1  1  0  0  0  0
  3  2  2  0  0  0  0
  4  5  2  0  0  0  0
  4  3  1  0  0  0  0
  5  6  1  0  0  0  0
  6 10  1  0  0  0  0
  6  7  2  0  0  0  0
  7 22  1  0  0  0  0
  8  4  1  0  0  0  0
  9  5  1  0  0  0  0
 11 12  1  0  0  0  0
 11 17  1  0  0  0  0
 12 18  1  0  0  0  0
 13  3  1  0  0  0  0
 13 12  2  0  0  0  0
 14 13  1  0  0  0  0
 15 14  2  0  0  0  0
 15 16  1  0  0  0  0
 16 11  2  0  0  0  0
 19 15  1  0  0  0  0
 20 21  2  0  0  0  0
 20 26  1  0  0  0  0
 22 20  1  0  0  0  0
 23 22  1  0  0  0  0
 25 24  1  0  0  0  0
 25 32  1  0  0  0  0
 26 25  2  0  0  0  0
 27 26  1  0  0  0  0
 27 29  2  0  0  0  0
 28 27  1  0  0  0  0
 29 31  1  0  0  0  0
 30 29  1  0  0  0  0
 31 32  2  0  0  0  0
M  END
>  <minimizedAffinity>
-5.35097075

$$$$
