
 OpenBabel03262521463D

 30 31  0  0  0  0  0  0  0  0999 V2000
   36.9460   29.1820   50.6720 C   0  0  0  0  0  0  0  0  0  0  0  0
   36.8780   28.9460   49.5940 H   0  0  0  0  0  0  0  0  0  0  0  0
   37.3920   28.3060   51.2030 H   0  0  0  0  0  0  0  0  0  0  0  0
   37.7160   30.4460   50.8810 C   0  0  0  0  0  0  0  0  0  0  0  0
   38.6730   30.1590   51.3930 H   0  0  0  0  0  0  0  0  0  0  0  0
   37.2150   31.1570   51.5850 H   0  0  0  0  0  0  0  0  0  0  0  0
   38.0870   31.1440   49.6480 C   0  0  0  0  0  0  0  0  0  0  0  0
   38.5410   32.4430   49.6310 C   0  0  0  0  0  0  0  0  0  0  0  0
   38.8730   33.0320   48.4020 C   0  0  0  0  0  0  0  0  0  0  0  0
   38.7260   32.2740   47.2740 N   0  0  0  0  0  0  0  0  0  0  0  0
   38.2710   30.9790   47.3300 C   0  0  0  0  0  0  0  0  0  0  0  0
   37.9530   30.4250   48.5340 N   0  0  0  0  0  0  0  0  0  0  0  0
   38.6310   32.9850   50.5690 H   0  0  0  0  0  0  0  0  0  0  0  0
   39.2270   34.0360   48.3580 H   0  0  0  0  0  0  0  0  0  0  0  0
   38.1680   30.4110   46.4150 H   0  0  0  0  0  0  0  0  0  0  0  0
   35.6850   29.3440   51.2370 O   0  0  0  0  0  0  0  0  0  0  0  0
   34.6320   31.1190   49.6560 O   0  0  0  0  0  0  0  0  0  0  0  0
   34.5030   29.6590   50.0570 P   0  0  2  0  0  0  0  0  0  0  0  0
   32.9600   29.4750   50.7060 O   0  0  0  0  0  0  0  0  0  0  0  0
   32.7570   30.0720   51.4480 H   0  0  0  0  0  0  0  0  0  0  0  0
   34.6850   28.6450   48.7420 O   0  0  0  0  0  0  0  0  0  0  0  0
   33.5450   30.4100   46.8470 F   0  0  0  0  0  0  0  0  0  0  0  0
   33.0130   29.1790   46.9200 C   0  0  0  0  0  0  0  0  0  0  0  0
   33.6370   28.3990   47.8700 C   0  0  0  0  0  0  0  0  0  0  0  0
   33.1890   27.0860   48.0640 C   0  0  0  0  0  0  0  0  0  0  0  0
   33.5640   26.3390   48.7640 H   0  0  0  0  0  0  0  0  0  0  0  0
   32.1300   26.5670   47.3100 C   0  0  0  0  0  0  0  0  0  0  0  0
   31.7400   25.5740   47.4080 H   0  0  0  0  0  0  0  0  0  0  0  0
   31.5180   27.3640   46.3630 C   0  0  0  0  0  3  0  0  0  0  0  0
   31.9700   28.6560   46.1840 C   0  0  0  0  0  3  0  0  0  0  0  0
  1  4  1  0  0  0  0
  1  3  1  0  0  0  0
  1 16  1  0  0  0  0
  2  1  1  0  0  0  0
  4  5  1  0  0  0  0
  4  6  1  0  0  0  0
  7  4  1  0  0  0  0
  8  7  1  0  0  0  0
  8 13  1  0  0  0  0
  9  8  2  0  0  0  0
 10 11  2  0  0  0  0
 10  9  1  0  0  0  0
 11 12  1  0  0  0  0
 12  7  2  0  0  0  0
 14  9  1  0  0  0  0
 15 11  1  0  0  0  0
 18 17  2  6  0  0  0
 18 19  1  0  0  0  0
 18 16  1  0  0  0  0
 19 20  1  0  0  0  0
 21 18  1  0  0  0  0
 22 23  1  0  0  0  0
 23 24  1  0  0  0  0
 24 25  2  0  0  0  0
 24 21  1  0  0  0  0
 25 26  1  0  0  0  0
 27 28  1  0  0  0  0
 27 25  1  0  0  0  0
 29 27  2  0  0  0  0
 30 29  1  0  0  0  0
 30 23  2  0  0  0  0
M  END
>  <minimizedAffinity>
-5.09180784

>  <minimizedRMSD>
0.62832427

$$$$
