
 OpenBabel03262521463D

 30 31  0  0  0  0  0  0  0  0999 V2000
   36.9220   29.2070   50.4910 C   0  0  0  0  0  0  0  0  0  0  0  0
   36.7660   29.0730   49.4040 H   0  0  0  0  0  0  0  0  0  0  0  0
   37.4040   28.2870   50.9010 H   0  0  0  0  0  0  0  0  0  0  0  0
   37.7110   30.4480   50.7550 C   0  0  0  0  0  0  0  0  0  0  0  0
   38.6570   30.1250   51.2670 H   0  0  0  0  0  0  0  0  0  0  0  0
   37.2150   31.1420   51.4800 H   0  0  0  0  0  0  0  0  0  0  0  0
   38.1100   31.1850   49.5540 C   0  0  0  0  0  0  0  0  0  0  0  0
   38.5320   32.4950   49.5840 C   0  0  0  0  0  0  0  0  0  0  0  0
   38.8940   33.1200   48.3820 C   0  0  0  0  0  0  0  0  0  0  0  0
   38.8070   32.3860   47.2320 N   0  0  0  0  0  0  0  0  0  0  0  0
   38.3820   31.0800   47.2400 C   0  0  0  0  0  0  0  0  0  0  0  0
   38.0340   30.4900   48.4190 N   0  0  0  0  0  0  0  0  0  0  0  0
   38.5740   33.0150   50.5370 H   0  0  0  0  0  0  0  0  0  0  0  0
   39.2240   34.1330   48.3740 H   0  0  0  0  0  0  0  0  0  0  0  0
   38.3270   30.5310   46.3100 H   0  0  0  0  0  0  0  0  0  0  0  0
   35.7100   29.3120   51.1680 O   0  0  0  0  0  0  0  0  0  0  0  0
   34.6760   30.5640   49.1360 O   0  0  0  0  0  0  0  0  0  0  0  0
   34.3970   29.4170   50.0930 P   0  0  2  0  0  0  0  0  0  0  0  0
   32.9870   29.8170   50.9230 O   0  0  0  0  0  0  0  0  0  0  0  0
   33.0180   30.6720   51.3860 H   0  0  0  0  0  0  0  0  0  0  0  0
   34.1790   27.9770   49.2740 O   0  0  0  0  0  0  0  0  0  0  0  0
   31.3630   27.7390   49.4080 F   0  0  0  0  0  0  0  0  0  0  0  0
   31.9070   27.7560   48.1810 C   0  0  0  0  0  0  0  0  0  0  0  0
   33.2810   27.8740   48.2230 C   0  0  0  0  0  0  0  0  0  0  0  0
   33.9940   27.9070   47.0180 C   0  0  0  0  0  0  0  0  0  0  0  0
   35.0690   27.9950   46.8680 H   0  0  0  0  0  0  0  0  0  0  0  0
   33.3310   27.8200   45.7880 C   0  0  0  0  0  0  0  0  0  0  0  0
   33.8120   27.8390   44.8310 H   0  0  0  0  0  0  0  0  0  0  0  0
   31.9550   27.7020   45.7650 C   0  0  0  0  0  3  0  0  0  0  0  0
   31.2680   27.6720   46.9610 C   0  0  0  0  0  3  0  0  0  0  0  0
  1  4  1  0  0  0  0
  1  3  1  0  0  0  0
  1 16  1  0  0  0  0
  2  1  1  0  0  0  0
  4  5  1  0  0  0  0
  4  6  1  0  0  0  0
  7  8  1  0  0  0  0
  7  4  1  0  0  0  0
  8 13  1  0  0  0  0
  9  8  2  0  0  0  0
 10 11  2  0  0  0  0
 10  9  1  0  0  0  0
 11 12  1  0  0  0  0
 12  7  2  0  0  0  0
 14  9  1  0  0  0  0
 15 11  1  0  0  0  0
 18 17  2  6  0  0  0
 18 19  1  0  0  0  0
 18 16  1  0  0  0  0
 19 20  1  0  0  0  0
 21 18  1  0  0  0  0
 23 24  1  0  0  0  0
 23 22  1  0  0  0  0
 24 21  1  0  0  0  0
 25 24  2  0  0  0  0
 26 25  1  0  0  0  0
 27 25  1  0  0  0  0
 28 27  1  0  0  0  0
 29 27  2  0  0  0  0
 29 30  1  0  0  0  0
 30 23  2  0  0  0  0
M  END
>  <minimizedAffinity>
-5.36827898

>  <minimizedRMSD>
0.98047328

$$$$
