
 OpenBabel03262521463D

 30 31  0  0  0  0  0  0  0  0999 V2000
   36.9380   29.2410   50.5000 C   0  0  0  0  0  0  0  0  0  0  0  0
   36.7830   29.1030   49.4130 H   0  0  0  0  0  0  0  0  0  0  0  0
   37.4300   28.3270   50.9110 H   0  0  0  0  0  0  0  0  0  0  0  0
   37.7160   30.4910   50.7600 C   0  0  0  0  0  0  0  0  0  0  0  0
   38.6590   30.1790   51.2840 H   0  0  0  0  0  0  0  0  0  0  0  0
   37.2080   31.1870   51.4730 H   0  0  0  0  0  0  0  0  0  0  0  0
   38.1210   31.2190   49.5560 C   0  0  0  0  0  0  0  0  0  0  0  0
   38.5510   32.5260   49.5800 C   0  0  0  0  0  0  0  0  0  0  0  0
   38.9190   33.1440   48.3760 C   0  0  0  0  0  0  0  0  0  0  0  0
   38.8290   32.4060   47.2300 N   0  0  0  0  0  0  0  0  0  0  0  0
   38.3950   31.1020   47.2430 C   0  0  0  0  0  0  0  0  0  0  0  0
   38.0420   30.5200   48.4240 N   0  0  0  0  0  0  0  0  0  0  0  0
   38.5950   33.0510   50.5310 H   0  0  0  0  0  0  0  0  0  0  0  0
   39.2550   34.1550   48.3640 H   0  0  0  0  0  0  0  0  0  0  0  0
   38.3380   30.5500   46.3150 H   0  0  0  0  0  0  0  0  0  0  0  0
   35.7260   29.3360   51.1770 O   0  0  0  0  0  0  0  0  0  0  0  0
   34.6890   30.5120   49.1020 O   0  0  0  0  0  0  0  0  0  0  0  0
   34.4100   29.4030   50.1040 P   0  0  2  0  0  0  0  0  0  0  0  0
   33.0040   29.8400   50.9230 O   0  0  0  0  0  0  0  0  0  0  0  0
   33.0390   30.7120   51.3520 H   0  0  0  0  0  0  0  0  0  0  0  0
   34.1840   27.9340   49.3410 O   0  0  0  0  0  0  0  0  0  0  0  0
   31.3610   27.7900   49.4570 F   0  0  0  0  0  0  0  0  0  0  0  0
   31.9170   27.7190   48.2370 C   0  0  0  0  0  0  0  0  0  0  0  0
   33.2940   27.7980   48.2880 C   0  0  0  0  0  0  0  0  0  0  0  0
   34.0190   27.7370   47.0910 C   0  0  0  0  0  0  0  0  0  0  0  0
   35.0970   27.7840   46.9490 H   0  0  0  0  0  0  0  0  0  0  0  0
   33.3650   27.5980   45.8600 C   0  0  0  0  0  0  0  0  0  0  0  0
   33.8570   27.5450   44.9090 H   0  0  0  0  0  0  0  0  0  0  0  0
   31.9870   27.5210   45.8280 C   0  0  0  0  0  3  0  0  0  0  0  0
   31.2880   27.5820   47.0170 C   0  0  0  0  0  3  0  0  0  0  0  0
  1  4  1  0  0  0  0
  1  3  1  0  0  0  0
  1 16  1  0  0  0  0
  2  1  1  0  0  0  0
  4  5  1  0  0  0  0
  4  6  1  0  0  0  0
  7  8  1  0  0  0  0
  7  4  1  0  0  0  0
  8 13  1  0  0  0  0
  9  8  2  0  0  0  0
 10 11  2  0  0  0  0
 10  9  1  0  0  0  0
 11 12  1  0  0  0  0
 12  7  2  0  0  0  0
 14  9  1  0  0  0  0
 15 11  1  0  0  0  0
 18 17  2  6  0  0  0
 18 19  1  0  0  0  0
 18 16  1  0  0  0  0
 19 20  1  0  0  0  0
 21 18  1  0  0  0  0
 23 24  1  0  0  0  0
 23 22  1  0  0  0  0
 24 21  1  0  0  0  0
 25 24  2  0  0  0  0
 26 25  1  0  0  0  0
 27 25  1  0  0  0  0
 28 27  1  0  0  0  0
 29 27  2  0  0  0  0
 29 30  1  0  0  0  0
 30 23  2  0  0  0  0
M  END
>  <minimizedAffinity>
-5.37265682

>  <minimizedRMSD>
0.191009775

$$$$
