
 OpenBabel03272504563D

 33 35  0  0  1  0  0  0  0  0999 V2000
   36.0110   29.8620   49.6140 C   0  0  1  0  0  0  0  0  0  0  0  0
   34.6310   30.2200   49.8590 C   0  0  0  0  0  0  0  0  0  0  0  0
   34.9770   29.3700   48.7020 C   0  0  2  0  0  0  0  0  0  0  0  0
   36.5560   29.0330   50.1800 H   0  0  0  0  0  0  0  0  0  0  0  0
   34.4440   30.0440   50.8940 H   0  0  0  0  0  0  0  0  0  0  0  0
   34.3590   31.2730   49.6110 H   0  0  0  0  0  0  0  0  0  0  0  0
   34.6290   29.8020   47.7830 H   0  0  0  0  0  0  0  0  0  0  0  0
   36.9760   30.8750   49.0690 C   0  0  0  0  0  0  0  0  0  0  0  0
   37.8290   31.4920   50.0170 C   0  0  0  0  0  0  0  0  0  0  0  0
   38.7020   32.4110   49.4840 C   0  0  0  0  0  0  0  0  0  0  0  0
   38.6990   32.6670   48.1350 N   0  0  0  0  0  0  0  0  0  0  0  0
   37.8650   32.0520   47.2710 C   0  0  0  0  0  0  0  0  0  0  0  0
   36.9820   31.1310   47.7680 N   0  0  0  0  0  0  0  0  0  0  0  0
   37.8680   32.3090   45.8980 N   0  0  0  0  0  0  0  0  0  0  0  0
   37.8270   31.2890   51.0630 H   0  0  0  0  0  0  0  0  0  0  0  0
   39.4070   32.9590   50.0730 H   0  0  0  0  0  0  0  0  0  0  0  0
   37.2220   31.8490   45.2520 H   0  0  0  0  0  0  0  0  0  0  0  0
   38.5640   33.0000   45.5280 H   0  0  0  0  0  0  0  0  0  0  0  0
   34.6740   28.0090   48.8070 O   0  0  0  0  0  0  0  0  0  0  0  0
   33.1780   26.1730   47.7960 O   0  0  0  0  0  0  0  0  0  0  0  0
   33.2790   27.6610   47.9560 P   0  0  1  0  0  0  0  0  0  0  0  0
   31.9240   28.1020   48.8850 O   0  0  0  0  0  0  0  0  0  0  0  0
   32.0010   28.8520   49.4610 H   0  0  0  0  0  0  0  0  0  0  0  0
   33.2880   28.4660   46.4860 O   0  0  0  0  0  0  0  0  0  0  0  0
   32.8610   31.1230   46.6010 F   0  0  0  0  0  0  0  0  0  0  0  0
   32.0730   30.2970   45.8430 C   0  0  0  0  0  0  0  0  0  0  0  0
   32.2410   28.9100   45.7390 C   0  0  0  0  0  0  0  0  0  0  0  0
   31.3530   28.2330   44.9290 C   0  0  0  0  0  0  0  0  0  0  0  0
   31.5510   27.1670   44.9030 H   0  0  0  0  0  0  0  0  0  0  0  0
   30.3480   28.8780   44.2490 C   0  0  0  0  0  0  0  0  0  0  0  0
   29.6850   28.2870   43.6300 H   0  0  0  0  0  0  0  0  0  0  0  0
   30.1760   30.2310   44.3440 C   0  0  0  0  0  0  0  0  0  0  0  0
   31.0460   30.9400   45.1470 C   0  0  0  0  0  0  0  0  0  0  0  0
  1  2  1  0  0  0  0
  1  4  1  1  0  0  0
  2  5  1  0  0  0  0
  3  7  1  6  0  0  0
  3 19  1  0  0  0  0
  3  1  1  0  0  0  0
  3  2  1  0  0  0  0
  6  2  1  0  0  0  0
  8  1  1  0  0  0  0
  8  9  1  0  0  0  0
  9 15  1  0  0  0  0
 10  9  2  0  0  0  0
 10 16  1  0  0  0  0
 11 10  1  0  0  0  0
 12 13  1  0  0  0  0
 12 11  2  0  0  0  0
 13  8  2  0  0  0  0
 14 12  1  0  0  0  0
 17 14  1  0  0  0  0
 18 14  1  0  0  0  0
 21 20  2  6  0  0  0
 21 19  1  0  0  0  0
 21 22  1  0  0  0  0
 22 23  1  0  0  0  0
 24 21  1  0  0  0  0
 26 25  1  0  0  0  0
 27 26  1  0  0  0  0
 27 24  1  0  0  0  0
 28 27  2  0  0  0  0
 29 28  1  0  0  0  0
 30 32  2  0  0  0  0
 30 28  1  0  0  0  0
 31 30  1  0  0  0  0
 32 33  1  0  0  0  0
 33 26  2  0  0  0  0
M  END
>  <minimizedAffinity>
-5.15389538

>  <minimizedRMSD>
3.3933692

$$$$
