
 OpenBabel03272509423D

 38 40  0  0  1  0  0  0  0  0999 V2000
   37.0190   30.9100   49.0920 C   0  0  0  0  0  0  0  0  0  0  0  0
   36.6980   31.8210   50.1020 C   0  0  0  0  0  0  0  0  0  0  0  0
   37.2690   33.0810   50.1580 C   0  0  0  0  0  0  0  0  0  0  0  0
   38.1940   33.4610   49.1780 C   0  0  0  0  0  0  0  0  0  0  0  0
   38.5000   32.5610   48.1970 C   0  0  0  0  0  0  0  0  0  0  0  0
   37.9070   31.3070   48.1740 C   0  0  0  0  0  0  0  0  0  0  0  0
   35.9770   31.5200   50.8600 H   0  0  0  0  0  0  0  0  0  0  0  0
   36.9630   33.7070   50.9650 H   0  0  0  0  0  0  0  0  0  0  0  0
   38.5750   34.4450   49.3070 H   0  0  0  0  0  0  0  0  0  0  0  0
   39.2290   32.9980   47.5170 H   0  0  0  0  0  0  0  0  0  0  0  0
   36.4480   29.5810   49.0520 C   0  0  2  0  0  0  0  0  0  0  0  0
   36.9510   29.0610   48.1500 H   0  0  0  0  0  0  0  0  0  0  0  0
   33.5950   29.9070   46.8250 C   0  0  0  0  0  0  0  0  0  0  0  0
   32.8480   28.7680   47.0700 C   0  0  0  0  0  0  0  0  0  0  0  0
   33.2860   27.9010   48.0530 C   0  0  0  0  0  0  0  0  0  0  0  0
   34.4380   28.1950   48.7460 N   0  0  0  0  0  0  0  0  0  0  0  0
   35.1070   29.2930   48.4660 C   0  0  0  0  0  0  0  0  0  0  0  0
   34.6940   30.1560   47.5090 N   0  0  0  0  0  0  0  0  0  0  0  0
   33.2180   30.5610   46.0480 H   0  0  0  0  0  0  0  0  0  0  0  0
   31.9410   28.4560   46.5830 H   0  0  0  0  0  0  0  0  0  0  0  0
   32.8270   26.9640   48.3800 H   0  0  0  0  0  0  0  0  0  0  0  0
   36.9290   28.8110   49.9610 O   0  0  0  0  0  0  0  0  0  0  0  0
   36.7090   28.9100   50.9160 H   0  0  0  0  0  0  0  0  0  0  0  0
   38.3440   30.4450   47.1000 C   0  0  0  0  0  3  0  0  0  0  0  0
   38.6190   30.8750   45.8640 C   0  0  0  0  0  3  0  0  0  0  0  0
   39.1130   30.0910   44.7070 C   0  0  0  0  0  0  0  0  0  0  0  0
   38.3230   29.8320   43.9830 H   0  0  0  0  0  0  0  0  0  0  0  0
   39.5070   29.1010   45.0790 H   0  0  0  0  0  0  0  0  0  0  0  0
   40.4970   30.9480   43.9470 S   0  0  0  0  0  0  0  0  0  0  0  0
   41.9430   29.0420   42.2830 F   0  0  0  0  0  0  0  0  0  0  0  0
   41.1420   29.8830   41.6070 C   0  0  0  0  0  0  0  0  0  0  0  0
   40.3470   30.8840   42.1710 C   0  0  0  0  0  0  0  0  0  0  0  0
   39.5700   31.6800   41.3560 C   0  0  0  0  0  0  0  0  0  0  0  0
   39.0000   32.4140   41.8870 H   0  0  0  0  0  0  0  0  0  0  0  0
   39.5820   31.4820   39.9920 C   0  0  0  0  0  0  0  0  0  0  0  0
   38.9730   32.1070   39.3860 H   0  0  0  0  0  0  0  0  0  0  0  0
   40.3690   30.4870   39.4030 C   0  0  0  0  0  3  0  0  0  0  0  0
   41.1380   29.7030   40.2260 C   0  0  0  0  0  3  0  0  0  0  0  0
  1  2  1  0  0  0  0
  2  3  2  0  0  0  0
  2  7  1  0  0  0  0
  3  8  1  0  0  0  0
  4  9  1  0  0  0  0
  4  3  1  0  0  0  0
  5  4  2  0  0  0  0
  6  5  1  0  0  0  0
  6  1  2  0  0  0  0
 10  5  1  0  0  0  0
 11 12  1  6  0  0  0
 11  1  1  0  0  0  0
 11 22  1  0  0  0  0
 13 14  2  0  0  0  0
 13 18  1  0  0  0  0
 14 15  1  0  0  0  0
 15 21  1  0  0  0  0
 15 16  2  0  0  0  0
 17 16  1  0  0  0  0
 17 11  1  0  0  0  0
 18 17  2  0  0  0  0
 19 13  1  0  0  0  0
 20 14  1  0  0  0  0
 22 23  1  0  0  0  0
 24  6  1  0  0  0  0
 25 24  2  0  0  0  0
 26 28  1  0  0  0  0
 26 25  1  0  0  0  0
 27 26  1  0  0  0  0
 29 26  1  0  0  0  0
 31 32  1  0  0  0  0
 31 30  1  0  0  0  0
 32 29  1  0  0  0  0
 33 34  1  0  0  0  0
 33 32  2  0  0  0  0
 35 33  1  0  0  0  0
 36 35  1  0  0  0  0
 37 35  2  0  0  0  0
 37 38  1  0  0  0  0
 38 31  2  0  0  0  0
M  END
>  <minimizedAffinity>
-6.07719803

>  <minimizedRMSD>
0.970223665

$$$$
