
 OpenBabel03272505493D

 40 44  0  0  0  0  0  0  0  0999 V2000
   38.6340   25.3920   33.7110 C   0  0  0  0  0  0  0  0  0  0  0  0
   38.1970   24.4390   32.8470 C   0  0  0  0  0  0  0  0  0  0  0  0
   37.1060   24.6760   32.0200 C   0  0  0  0  0  0  0  0  0  0  0  0
   36.4770   25.9100   32.1060 C   0  0  0  0  0  0  0  0  0  0  0  0
   36.9170   26.8860   32.9870 C   0  0  0  0  0  0  0  0  0  0  0  0
   37.9850   26.5780   33.7560 N   0  0  0  0  0  0  0  0  0  0  0  0
   38.6920   23.4840   32.7880 H   0  0  0  0  0  0  0  0  0  0  0  0
   36.7380   23.9270   31.3180 H   0  0  0  0  0  0  0  0  0  0  0  0
   35.6220   26.1790   31.5020 H   0  0  0  0  0  0  0  0  0  0  0  0
   39.8120   25.1490   34.6100 C   0  0  0  0  0  0  0  0  0  0  0  0
   41.1470   24.9690   33.9950 C   0  0  0  0  0  0  0  0  0  0  0  0
   40.8250   26.2530   34.7230 C   0  0  0  0  0  0  0  0  0  0  0  0
   41.9100   24.3640   34.5370 H   0  0  0  0  0  0  0  0  0  0  0  0
   41.2250   25.0370   32.8870 H   0  0  0  0  0  0  0  0  0  0  0  0
   40.6120   27.1470   34.1120 H   0  0  0  0  0  0  0  0  0  0  0  0
   41.2800   26.4770   35.6900 H   0  0  0  0  0  0  0  0  0  0  0  0
   37.9790   24.2990   37.7110 C   0  0  0  0  0  0  0  0  0  0  0  0
   38.7250   23.2010   38.2080 C   0  0  0  0  0  0  0  0  0  0  0  0
   39.8420   22.7800   37.4640 C   0  0  0  0  0  0  0  0  0  0  0  0
   40.1490   23.4350   36.3200 N   0  0  0  0  0  0  0  0  0  0  0  0
   39.4170   24.4830   35.8660 C   0  0  0  0  0  0  0  0  0  0  0  0
   38.3380   24.9150   36.5550 N   0  0  0  0  0  0  0  0  0  0  0  0
   37.1090   24.7180   38.1810 H   0  0  0  0  0  0  0  0  0  0  0  0
   38.3550   22.7880   39.1300 H   0  0  0  0  0  0  0  0  0  0  0  0
   40.3690   21.9550   37.8770 H   0  0  0  0  0  0  0  0  0  0  0  0
   36.2970   28.1980   33.1210 C   0  0  0  0  0  0  0  0  0  0  0  0
   35.9810   29.1430   32.1940 N   0  0  0  0  0  0  0  0  0  0  0  0
   35.4140   30.2090   32.8090 C   0  0  0  0  0  0  0  0  0  0  0  0
   35.3770   29.9220   34.1410 N   0  0  0  0  0  0  0  0  0  0  0  0
   35.9080   28.7180   34.3160 N   0  0  0  0  0  0  0  0  0  0  0  0
   35.0520   31.1230   32.3490 H   0  0  0  0  0  0  0  0  0  0  0  0
   32.7070   29.7160   34.7710 F   0  0  0  0  0  0  0  0  0  0  0  0
   33.5320   30.5670   35.4280 C   0  0  0  0  0  0  0  0  0  0  0  0
   34.8770   30.7280   35.1710 C   0  0  0  0  0  0  0  0  0  0  0  0
   35.5780   31.6370   35.9300 C   0  0  0  0  0  0  0  0  0  0  0  0
   36.6200   31.7400   35.7090 H   0  0  0  0  0  0  0  0  0  0  0  0
   34.9640   32.3710   36.9210 C   0  0  0  0  0  0  0  0  0  0  0  0
   35.5130   33.0880   37.5190 H   0  0  0  0  0  0  0  0  0  0  0  0
   33.6130   32.2260   37.1960 C   0  0  0  0  0  3  0  0  0  0  0  0
   32.8970   31.3030   36.4260 C   0  0  0  0  0  3  0  0  0  0  0  0
  1  6  1  0  0  0  0
  1 10  1  0  0  0  0
  2  1  2  0  0  0  0
  3  4  2  0  0  0  0
  3  2  1  0  0  0  0
  4  5  1  0  0  0  0
  5 26  1  0  0  0  0
  5  6  2  0  0  0  0
  7  2  1  0  0  0  0
  8  3  1  0  0  0  0
  9  4  1  0  0  0  0
 10 12  1  0  0  0  0
 10 21  1  0  0  0  0
 11 13  1  0  0  0  0
 11 10  1  0  0  0  0
 11 12  1  0  0  0  0
 12 16  1  0  0  0  0
 14 11  1  0  0  0  0
 15 12  1  0  0  0  0
 17 23  1  0  0  0  0
 17 18  1  0  0  0  0
 18 24  1  0  0  0  0
 19 25  1  0  0  0  0
 19 18  2  0  0  0  0
 20 19  1  0  0  0  0
 21 20  2  0  0  0  0
 21 22  1  0  0  0  0
 22 17  2  0  0  0  0
 26 30  2  0  0  0  0
 27 28  2  0  0  0  0
 27 26  1  0  0  0  0
 28 29  1  0  0  0  0
 29 30  1  0  0  0  0
 29 34  1  0  0  0  0
 31 28  1  0  0  0  0
 32 33  1  0  0  0  0
 33 40  1  0  0  0  0
 34 33  2  0  0  0  0
 34 35  1  0  0  0  0
 35 37  2  0  0  0  0
 36 35  1  0  0  0  0
 37 39  1  0  0  0  0
 37 38  1  0  0  0  0
 40 39  2  0  0  0  0
M  END
>  <minimizedAffinity>
-6.54833174

$$$$

 OpenBabel03272505493D

 40 44  0  0  0  0  0  0  0  0999 V2000
   38.4970   25.7940   33.5840 C   0  0  0  0  0  0  0  0  0  0  0  0
   38.0630   24.8640   32.6940 C   0  0  0  0  0  0  0  0  0  0  0  0
   36.9650   25.1150   31.8820 C   0  0  0  0  0  0  0  0  0  0  0  0
   36.3250   26.3410   32.0090 C   0  0  0  0  0  0  0  0  0  0  0  0
   36.7620   27.2930   32.9170 C   0  0  0  0  0  0  0  0  0  0  0  0
   37.8370   26.9720   33.6690 N   0  0  0  0  0  0  0  0  0  0  0  0
   38.5670   23.9160   32.6030 H   0  0  0  0  0  0  0  0  0  0  0  0
   36.6000   24.3850   31.1590 H   0  0  0  0  0  0  0  0  0  0  0  0
   35.4640   26.6200   31.4180 H   0  0  0  0  0  0  0  0  0  0  0  0
   39.6830   25.5350   34.4680 C   0  0  0  0  0  0  0  0  0  0  0  0
   41.0300   25.5010   33.8540 C   0  0  0  0  0  0  0  0  0  0  0  0
   40.6240   26.6820   34.7040 C   0  0  0  0  0  0  0  0  0  0  0  0
   41.8270   24.8930   34.3410 H   0  0  0  0  0  0  0  0  0  0  0  0
   41.1100   25.6860   32.7600 H   0  0  0  0  0  0  0  0  0  0  0  0
   40.3580   27.6180   34.1830 H   0  0  0  0  0  0  0  0  0  0  0  0
   41.0590   26.8350   35.6940 H   0  0  0  0  0  0  0  0  0  0  0  0
   37.9890   24.3580   37.5410 C   0  0  0  0  0  0  0  0  0  0  0  0
   38.6950   23.1640   37.8340 C   0  0  0  0  0  0  0  0  0  0  0  0
   39.7380   22.7930   36.9660 C   0  0  0  0  0  0  0  0  0  0  0  0
   40.0150   23.5830   35.9030 N   0  0  0  0  0  0  0  0  0  0  0  0
   39.3230   24.7220   35.6460 C   0  0  0  0  0  0  0  0  0  0  0  0
   38.3160   25.1100   36.4580 N   0  0  0  0  0  0  0  0  0  0  0  0
   37.1760   24.7530   38.1210 H   0  0  0  0  0  0  0  0  0  0  0  0
   38.3560   22.6470   38.7140 H   0  0  0  0  0  0  0  0  0  0  0  0
   40.2360   21.8920   37.2260 H   0  0  0  0  0  0  0  0  0  0  0  0
   36.1310   28.5950   33.0940 C   0  0  0  0  0  0  0  0  0  0  0  0
   35.9590   29.6360   32.2350 N   0  0  0  0  0  0  0  0  0  0  0  0
   35.3070   30.6420   32.8680 C   0  0  0  0  0  0  0  0  0  0  0  0
   35.0710   30.2190   34.1410 N   0  0  0  0  0  0  0  0  0  0  0  0
   35.5680   28.9940   34.2660 N   0  0  0  0  0  0  0  0  0  0  0  0
   35.0190   31.6050   32.4580 H   0  0  0  0  0  0  0  0  0  0  0  0
   36.6190   31.5980   35.9510 F   0  0  0  0  0  0  0  0  0  0  0  0
   35.2660   31.5880   36.0310 C   0  0  0  0  0  0  0  0  0  0  0  0
   34.4240   30.9220   35.1650 C   0  0  0  0  0  0  0  0  0  0  0  0
   33.0670   31.0110   35.3830 C   0  0  0  0  0  0  0  0  0  0  0  0
   32.4390   30.4850   34.6950 H   0  0  0  0  0  0  0  0  0  0  0  0
   32.5550   31.7410   36.4330 C   0  0  0  0  0  0  0  0  0  0  0  0
   31.4880   31.8120   36.6070 H   0  0  0  0  0  0  0  0  0  0  0  0
   33.3840   32.4170   37.3160 C   0  0  0  0  0  3  0  0  0  0  0  0
   34.7620   32.3290   37.0980 C   0  0  0  0  0  3  0  0  0  0  0  0
  1  6  1  0  0  0  0
  1 10  1  0  0  0  0
  2  1  2  0  0  0  0
  3  4  2  0  0  0  0
  3  2  1  0  0  0  0
  4  5  1  0  0  0  0
  5 26  1  0  0  0  0
  5  6  2  0  0  0  0
  7  2  1  0  0  0  0
  8  3  1  0  0  0  0
  9  4  1  0  0  0  0
 10 12  1  0  0  0  0
 10 21  1  0  0  0  0
 11 13  1  0  0  0  0
 11 10  1  0  0  0  0
 11 12  1  0  0  0  0
 12 16  1  0  0  0  0
 14 11  1  0  0  0  0
 15 12  1  0  0  0  0
 17 18  1  0  0  0  0
 17 23  1  0  0  0  0
 18 24  1  0  0  0  0
 19 25  1  0  0  0  0
 19 18  2  0  0  0  0
 20 19  1  0  0  0  0
 21 20  2  0  0  0  0
 21 22  1  0  0  0  0
 22 17  2  0  0  0  0
 26 30  2  0  0  0  0
 27 28  2  0  0  0  0
 27 26  1  0  0  0  0
 28 29  1  0  0  0  0
 29 30  1  0  0  0  0
 29 34  1  0  0  0  0
 31 28  1  0  0  0  0
 32 33  1  0  0  0  0
 33 40  1  0  0  0  0
 34 35  1  0  0  0  0
 34 33  2  0  0  0  0
 35 37  2  0  0  0  0
 36 35  1  0  0  0  0
 37 38  1  0  0  0  0
 37 39  1  0  0  0  0
 40 39  2  0  0  0  0
M  END
>  <minimizedAffinity>
-6.5020647

$$$$

 OpenBabel03272505493D

 40 44  0  0  0  0  0  0  0  0999 V2000
   38.1750   24.3280   34.8750 C   0  0  0  0  0  0  0  0  0  0  0  0
   38.2950   23.4900   33.8120 C   0  0  0  0  0  0  0  0  0  0  0  0
   37.9180   23.8970   32.5390 C   0  0  0  0  0  0  0  0  0  0  0  0
   37.4140   25.1810   32.3870 C   0  0  0  0  0  0  0  0  0  0  0  0
   37.2870   26.0410   33.4670 C   0  0  0  0  0  0  0  0  0  0  0  0
   37.6770   25.5690   34.6720 N   0  0  0  0  0  0  0  0  0  0  0  0
   38.6880   22.4950   33.9410 H   0  0  0  0  0  0  0  0  0  0  0  0
   38.0070   23.2430   31.6720 H   0  0  0  0  0  0  0  0  0  0  0  0
   37.0960   25.5800   31.4340 H   0  0  0  0  0  0  0  0  0  0  0  0
   38.5790   23.9010   36.2560 C   0  0  0  0  0  0  0  0  0  0  0  0
   37.9790   24.5960   37.4180 C   0  0  0  0  0  0  0  0  0  0  0  0
   37.5460   23.1880   37.0820 C   0  0  0  0  0  0  0  0  0  0  0  0
   38.5520   24.6380   38.3730 H   0  0  0  0  0  0  0  0  0  0  0  0
   37.2370   25.4010   37.2180 H   0  0  0  0  0  0  0  0  0  0  0  0
   36.5650   23.0590   36.5930 H   0  0  0  0  0  0  0  0  0  0  0  0
   37.8390   22.3470   37.7140 H   0  0  0  0  0  0  0  0  0  0  0  0
   41.4490   21.6640   36.9330 C   0  0  0  0  0  0  0  0  0  0  0  0
   42.5160   22.3440   36.2930 C   0  0  0  0  0  0  0  0  0  0  0  0
   42.2220   23.5560   35.6440 C   0  0  0  0  0  0  0  0  0  0  0  0
   40.9480   24.0120   35.6600 N   0  0  0  0  0  0  0  0  0  0  0  0
   39.9450   23.3410   36.2800 C   0  0  0  0  0  0  0  0  0  0  0  0
   40.1910   22.1740   36.9140 N   0  0  0  0  0  0  0  0  0  0  0  0
   41.5390   20.7330   37.4610 H   0  0  0  0  0  0  0  0  0  0  0  0
   43.4710   21.8530   36.3690 H   0  0  0  0  0  0  0  0  0  0  0  0
   43.0530   24.0280   35.1790 H   0  0  0  0  0  0  0  0  0  0  0  0
   36.7650   27.3980   33.3680 C   0  0  0  0  0  0  0  0  0  0  0  0
   36.6390   28.2390   32.3050 N   0  0  0  0  0  0  0  0  0  0  0  0
   36.0920   29.4090   32.7150 C   0  0  0  0  0  0  0  0  0  0  0  0
   35.8760   29.2940   34.0560 N   0  0  0  0  0  0  0  0  0  0  0  0
   36.2810   28.0880   34.4360 N   0  0  0  0  0  0  0  0  0  0  0  0
   35.8630   30.2800   32.1100 H   0  0  0  0  0  0  0  0  0  0  0  0
   33.1420   29.3430   34.3670 F   0  0  0  0  0  0  0  0  0  0  0  0
   33.9500   30.2150   35.0170 C   0  0  0  0  0  0  0  0  0  0  0  0
   35.3250   30.2550   34.9140 C   0  0  0  0  0  0  0  0  0  0  0  0
   36.0040   31.2050   35.6430 C   0  0  0  0  0  0  0  0  0  0  0  0
   37.0690   31.2100   35.5430 H   0  0  0  0  0  0  0  0  0  0  0  0
   35.3390   32.0960   36.4550 C   0  0  0  0  0  0  0  0  0  0  0  0
   35.8710   32.8450   37.0300 H   0  0  0  0  0  0  0  0  0  0  0  0
   33.9570   32.0750   36.5740 C   0  0  0  0  0  3  0  0  0  0  0  0
   33.2640   31.1110   35.8350 C   0  0  0  0  0  3  0  0  0  0  0  0
  1 10  1  0  0  0  0
  2  7  1  0  0  0  0
  2  1  2  0  0  0  0
  3  2  1  0  0  0  0
  4  3  2  0  0  0  0
  4  5  1  0  0  0  0
  5  6  2  0  0  0  0
  6  1  1  0  0  0  0
  8  3  1  0  0  0  0
  9  4  1  0  0  0  0
 10 21  1  0  0  0  0
 10 12  1  0  0  0  0
 10 11  1  0  0  0  0
 11 13  1  0  0  0  0
 12 11  1  0  0  0  0
 12 16  1  0  0  0  0
 14 11  1  0  0  0  0
 15 12  1  0  0  0  0
 17 23  1  0  0  0  0
 18 24  1  0  0  0  0
 18 17  2  0  0  0  0
 19 20  2  0  0  0  0
 19 18  1  0  0  0  0
 20 21  1  0  0  0  0
 21 22  2  0  0  0  0
 22 17  1  0  0  0  0
 25 19  1  0  0  0  0
 26  5  1  0  0  0  0
 26 30  2  0  0  0  0
 27 28  2  0  0  0  0
 27 26  1  0  0  0  0
 28 29  1  0  0  0  0
 29 30  1  0  0  0  0
 29 34  1  0  0  0  0
 31 28  1  0  0  0  0
 32 33  1  0  0  0  0
 33 40  1  0  0  0  0
 34 33  2  0  0  0  0
 34 35  1  0  0  0  0
 35 37  2  0  0  0  0
 36 35  1  0  0  0  0
 37 39  1  0  0  0  0
 37 38  1  0  0  0  0
 40 39  2  0  0  0  0
M  END
>  <minimizedAffinity>
-6.49073935

$$$$

 OpenBabel03272505493D

 40 44  0  0  0  0  0  0  0  0999 V2000
   35.8930   29.3400   33.1670 C   0  0  0  0  0  0  0  0  0  0  0  0
   36.2660   29.8540   31.9660 C   0  0  0  0  0  0  0  0  0  0  0  0
   37.0400   29.1110   31.0840 C   0  0  0  0  0  0  0  0  0  0  0  0
   37.4210   27.8320   31.4680 C   0  0  0  0  0  0  0  0  0  0  0  0
   37.0460   27.3020   32.6920 C   0  0  0  0  0  0  0  0  0  0  0  0
   36.2920   28.0890   33.4920 N   0  0  0  0  0  0  0  0  0  0  0  0
   35.9650   30.8470   31.6780 H   0  0  0  0  0  0  0  0  0  0  0  0
   37.3500   29.5020   30.1150 H   0  0  0  0  0  0  0  0  0  0  0  0
   38.0230   27.1850   30.8450 H   0  0  0  0  0  0  0  0  0  0  0  0
   35.0570   30.1320   34.1290 C   0  0  0  0  0  0  0  0  0  0  0  0
   35.7280   30.8030   35.2670 C   0  0  0  0  0  0  0  0  0  0  0  0
   35.2180   31.6260   34.1080 C   0  0  0  0  0  0  0  0  0  0  0  0
   35.1450   30.9910   36.1980 H   0  0  0  0  0  0  0  0  0  0  0  0
   36.8320   30.7030   35.3530 H   0  0  0  0  0  0  0  0  0  0  0  0
   35.9610   32.0040   33.3850 H   0  0  0  0  0  0  0  0  0  0  0  0
   34.3430   32.2700   34.2200 H   0  0  0  0  0  0  0  0  0  0  0  0
   31.7280   28.8350   33.1610 C   0  0  0  0  0  0  0  0  0  0  0  0
   31.0970   28.6620   34.4180 C   0  0  0  0  0  0  0  0  0  0  0  0
   31.8320   28.9970   35.5690 C   0  0  0  0  0  0  0  0  0  0  0  0
   33.0940   29.4620   35.4250 N   0  0  0  0  0  0  0  0  0  0  0  0
   33.6750   29.6180   34.2090 C   0  0  0  0  0  0  0  0  0  0  0  0
   32.9990   29.3070   33.0820 N   0  0  0  0  0  0  0  0  0  0  0  0
   31.2800   28.6180   32.2100 H   0  0  0  0  0  0  0  0  0  0  0  0
   30.0910   28.2820   34.3670 H   0  0  0  0  0  0  0  0  0  0  0  0
   31.3170   28.8500   36.4870 H   0  0  0  0  0  0  0  0  0  0  0  0
   37.4150   25.9690   33.1470 C   0  0  0  0  0  0  0  0  0  0  0  0
   37.1680   24.7370   32.6220 N   0  0  0  0  0  0  0  0  0  0  0  0
   37.7230   23.7880   33.4150 C   0  0  0  0  0  0  0  0  0  0  0  0
   38.3230   24.4390   34.4500 N   0  0  0  0  0  0  0  0  0  0  0  0
   38.1340   25.7430   34.2800 N   0  0  0  0  0  0  0  0  0  0  0  0
   37.7040   22.7120   33.2710 H   0  0  0  0  0  0  0  0  0  0  0  0
   37.0610   24.2740   36.8900 F   0  0  0  0  0  0  0  0  0  0  0  0
   38.3260   23.8230   36.7080 C   0  0  0  0  0  0  0  0  0  0  0  0
   39.0250   23.8710   35.5210 C   0  0  0  0  0  0  0  0  0  0  0  0
   40.3070   23.3700   35.5010 C   0  0  0  0  0  0  0  0  0  0  0  0
   40.8240   23.4200   34.5660 H   0  0  0  0  0  0  0  0  0  0  0  0
   40.8850   22.8340   36.6300 C   0  0  0  0  0  0  0  0  0  0  0  0
   41.8940   22.4390   36.6180 H   0  0  0  0  0  0  0  0  0  0  0  0
   40.2020   22.7760   37.8350 C   0  0  0  0  0  3  0  0  0  0  0  0
   38.8990   23.2840   37.8590 C   0  0  0  0  0  3  0  0  0  0  0  0
  1  6  1  0  0  0  0
  1 10  1  0  0  0  0
  2  1  2  0  0  0  0
  3  4  2  0  0  0  0
  3  2  1  0  0  0  0
  4  5  1  0  0  0  0
  5 26  1  0  0  0  0
  5  6  2  0  0  0  0
  7  2  1  0  0  0  0
  8  3  1  0  0  0  0
  9  4  1  0  0  0  0
 10 21  1  0  0  0  0
 10 11  1  0  0  0  0
 11 14  1  0  0  0  0
 11 13  1  0  0  0  0
 12 10  1  0  0  0  0
 12 16  1  0  0  0  0
 12 11  1  0  0  0  0
 15 12  1  0  0  0  0
 17 18  1  0  0  0  0
 18 19  2  0  0  0  0
 19 25  1  0  0  0  0
 20 19  1  0  0  0  0
 21 20  2  0  0  0  0
 22 17  2  0  0  0  0
 22 21  1  0  0  0  0
 23 17  1  0  0  0  0
 24 18  1  0  0  0  0
 26 30  2  0  0  0  0
 27 26  1  0  0  0  0
 27 28  2  0  0  0  0
 28 29  1  0  0  0  0
 29 34  1  0  0  0  0
 30 29  1  0  0  0  0
 31 28  1  0  0  0  0
 33 32  1  0  0  0  0
 33 40  1  0  0  0  0
 34 33  2  0  0  0  0
 35 34  1  0  0  0  0
 35 37  2  0  0  0  0
 36 35  1  0  0  0  0
 37 39  1  0  0  0  0
 38 37  1  0  0  0  0
 39 40  2  0  0  0  0
M  END
>  <minimizedAffinity>
-6.45410156

$$$$

 OpenBabel03272505493D

 40 44  0  0  0  0  0  0  0  0999 V2000
   38.6430   24.5000   33.7660 C   0  0  0  0  0  0  0  0  0  0  0  0
   39.8420   24.7060   33.1610 C   0  0  0  0  0  0  0  0  0  0  0  0
   40.1260   25.9140   32.5370 C   0  0  0  0  0  0  0  0  0  0  0  0
   39.1490   26.9000   32.5480 C   0  0  0  0  0  0  0  0  0  0  0  0
   37.9230   26.6970   33.1620 C   0  0  0  0  0  0  0  0  0  0  0  0
   37.7260   25.4950   33.7480 N   0  0  0  0  0  0  0  0  0  0  0  0
   40.5930   23.9340   33.1580 H   0  0  0  0  0  0  0  0  0  0  0  0
   41.0820   26.1010   32.0460 H   0  0  0  0  0  0  0  0  0  0  0  0
   39.2850   27.8680   32.0870 H   0  0  0  0  0  0  0  0  0  0  0  0
   38.3240   23.2000   34.4450 C   0  0  0  0  0  0  0  0  0  0  0  0
   37.3290   22.2990   33.8180 C   0  0  0  0  0  0  0  0  0  0  0  0
   38.7960   21.9430   33.7720 C   0  0  0  0  0  0  0  0  0  0  0  0
   36.7530   21.6010   34.4690 H   0  0  0  0  0  0  0  0  0  0  0  0
   36.8690   22.6170   32.8570 H   0  0  0  0  0  0  0  0  0  0  0  0
   39.3290   22.0960   32.8180 H   0  0  0  0  0  0  0  0  0  0  0  0
   39.1920   21.1190   34.3710 H   0  0  0  0  0  0  0  0  0  0  0  0
   37.7670   23.9380   38.0290 C   0  0  0  0  0  0  0  0  0  0  0  0
   38.9330   23.4020   38.6300 C   0  0  0  0  0  0  0  0  0  0  0  0
   39.8840   22.8000   37.7860 C   0  0  0  0  0  0  0  0  0  0  0  0
   39.6430   22.7590   36.4550 N   0  0  0  0  0  0  0  0  0  0  0  0
   38.5180   23.2810   35.9060 C   0  0  0  0  0  0  0  0  0  0  0  0
   37.5830   23.8670   36.6850 N   0  0  0  0  0  0  0  0  0  0  0  0
   36.9670   24.4230   38.5570 H   0  0  0  0  0  0  0  0  0  0  0  0
   38.9780   23.5120   39.6990 H   0  0  0  0  0  0  0  0  0  0  0  0
   40.7400   22.4120   38.2830 H   0  0  0  0  0  0  0  0  0  0  0  0
   36.8620   27.6940   33.2060 C   0  0  0  0  0  0  0  0  0  0  0  0
   35.9500   28.0790   32.2730 N   0  0  0  0  0  0  0  0  0  0  0  0
   35.1610   29.0550   32.7860 C   0  0  0  0  0  0  0  0  0  0  0  0
   35.5910   29.2800   34.0590 N   0  0  0  0  0  0  0  0  0  0  0  0
   36.6080   28.4610   34.3010 N   0  0  0  0  0  0  0  0  0  0  0  0
   34.3410   29.5690   32.2960 H   0  0  0  0  0  0  0  0  0  0  0  0
   32.9160   29.1330   34.6890 F   0  0  0  0  0  0  0  0  0  0  0  0
   33.7300   30.0630   35.2440 C   0  0  0  0  0  0  0  0  0  0  0  0
   35.0770   30.2010   34.9810 C   0  0  0  0  0  0  0  0  0  0  0  0
   35.7660   31.2000   35.6300 C   0  0  0  0  0  0  0  0  0  0  0  0
   36.8090   31.2820   35.4060 H   0  0  0  0  0  0  0  0  0  0  0  0
   35.1390   32.0450   36.5190 C   0  0  0  0  0  0  0  0  0  0  0  0
   35.6780   32.8320   37.0310 H   0  0  0  0  0  0  0  0  0  0  0  0
   33.7860   31.9250   36.7990 C   0  0  0  0  0  3  0  0  0  0  0  0
   33.0820   30.9100   36.1410 C   0  0  0  0  0  3  0  0  0  0  0  0
  1 10  1  0  0  0  0
  2  1  2  0  0  0  0
  3  4  2  0  0  0  0
  3  2  1  0  0  0  0
  4  5  1  0  0  0  0
  5 26  1  0  0  0  0
  5  6  2  0  0  0  0
  6  1  1  0  0  0  0
  7  2  1  0  0  0  0
  8  3  1  0  0  0  0
  9  4  1  0  0  0  0
 10 21  1  0  0  0  0
 11 10  1  0  0  0  0
 11 13  1  0  0  0  0
 12 11  1  0  0  0  0
 12 16  1  0  0  0  0
 12 10  1  0  0  0  0
 14 11  1  0  0  0  0
 15 12  1  0  0  0  0
 17 23  1  0  0  0  0
 17 18  1  0  0  0  0
 18 24  1  0  0  0  0
 19 25  1  0  0  0  0
 19 18  2  0  0  0  0
 20 19  1  0  0  0  0
 21 20  2  0  0  0  0
 21 22  1  0  0  0  0
 22 17  2  0  0  0  0
 26 30  2  0  0  0  0
 27 28  2  0  0  0  0
 27 26  1  0  0  0  0
 28 29  1  0  0  0  0
 29 30  1  0  0  0  0
 29 34  1  0  0  0  0
 31 28  1  0  0  0  0
 32 33  1  0  0  0  0
 33 40  1  0  0  0  0
 34 33  2  0  0  0  0
 34 35  1  0  0  0  0
 35 37  2  0  0  0  0
 36 35  1  0  0  0  0
 37 39  1  0  0  0  0
 37 38  1  0  0  0  0
 40 39  2  0  0  0  0
M  END
>  <minimizedAffinity>
-6.3371129

$$$$

 OpenBabel03272505493D

 40 44  0  0  0  0  0  0  0  0999 V2000
   37.8090   24.9020   32.6820 C   0  0  0  0  0  0  0  0  0  0  0  0
   37.2020   24.1650   31.7150 C   0  0  0  0  0  0  0  0  0  0  0  0
   36.1800   24.7050   30.9450 C   0  0  0  0  0  0  0  0  0  0  0  0
   35.7970   26.0160   31.1950 C   0  0  0  0  0  0  0  0  0  0  0  0
   36.4110   26.7730   32.1800 C   0  0  0  0  0  0  0  0  0  0  0  0
   37.3970   26.1740   32.8850 N   0  0  0  0  0  0  0  0  0  0  0  0
   37.5060   23.1480   31.5290 H   0  0  0  0  0  0  0  0  0  0  0  0
   35.6790   24.1330   30.1630 H   0  0  0  0  0  0  0  0  0  0  0  0
   35.0120   26.5150   30.6450 H   0  0  0  0  0  0  0  0  0  0  0  0
   38.9150   24.3300   33.5200 C   0  0  0  0  0  0  0  0  0  0  0  0
   40.0410   23.6500   32.8400 C   0  0  0  0  0  0  0  0  0  0  0  0
   40.2500   25.0150   33.4520 C   0  0  0  0  0  0  0  0  0  0  0  0
   40.6000   22.8580   33.3900 H   0  0  0  0  0  0  0  0  0  0  0  0
   40.0280   23.6040   31.7290 H   0  0  0  0  0  0  0  0  0  0  0  0
   40.2960   25.8790   32.7670 H   0  0  0  0  0  0  0  0  0  0  0  0
   40.8470   25.1370   34.3580 H   0  0  0  0  0  0  0  0  0  0  0  0
   37.5340   22.3390   36.3190 C   0  0  0  0  0  0  0  0  0  0  0  0
   37.5690   23.2660   37.3910 C   0  0  0  0  0  0  0  0  0  0  0  0
   38.0660   24.5540   37.1250 C   0  0  0  0  0  0  0  0  0  0  0  0
   38.4850   24.8460   35.8710 N   0  0  0  0  0  0  0  0  0  0  0  0
   38.4410   23.9390   34.8630 C   0  0  0  0  0  0  0  0  0  0  0  0
   37.9690   22.6930   35.0820 N   0  0  0  0  0  0  0  0  0  0  0  0
   37.1800   21.3280   36.3880 H   0  0  0  0  0  0  0  0  0  0  0  0
   37.2010   22.8820   38.3270 H   0  0  0  0  0  0  0  0  0  0  0  0
   38.0720   25.2120   37.9590 H   0  0  0  0  0  0  0  0  0  0  0  0
   36.0530   28.1520   32.4860 C   0  0  0  0  0  0  0  0  0  0  0  0
   35.9950   29.2620   31.7020 N   0  0  0  0  0  0  0  0  0  0  0  0
   35.6050   30.3240   32.4490 C   0  0  0  0  0  0  0  0  0  0  0  0
   35.4170   29.8660   33.7180 N   0  0  0  0  0  0  0  0  0  0  0  0
   35.6870   28.5660   33.7300 N   0  0  0  0  0  0  0  0  0  0  0  0
   35.4630   31.3480   32.1190 H   0  0  0  0  0  0  0  0  0  0  0  0
   32.7920   29.6710   34.5200 F   0  0  0  0  0  0  0  0  0  0  0  0
   33.6830   30.4530   35.1770 C   0  0  0  0  0  0  0  0  0  0  0  0
   35.0110   30.6030   34.8380 C   0  0  0  0  0  0  0  0  0  0  0  0
   35.7880   31.4380   35.6090 C   0  0  0  0  0  0  0  0  0  0  0  0
   36.8140   31.5340   35.3220 H   0  0  0  0  0  0  0  0  0  0  0  0
   35.2630   32.1090   36.6910 C   0  0  0  0  0  0  0  0  0  0  0  0
   35.8720   32.7670   37.3000 H   0  0  0  0  0  0  0  0  0  0  0  0
   33.9310   31.9730   37.0510 C   0  0  0  0  0  3  0  0  0  0  0  0
   33.1390   31.1260   36.2690 C   0  0  0  0  0  3  0  0  0  0  0  0
  1  6  1  0  0  0  0
  1 10  1  0  0  0  0
  2  1  2  0  0  0  0
  3  4  2  0  0  0  0
  3  2  1  0  0  0  0
  4  5  1  0  0  0  0
  5 26  1  0  0  0  0
  5  6  2  0  0  0  0
  7  2  1  0  0  0  0
  8  3  1  0  0  0  0
  9  4  1  0  0  0  0
 10 21  1  0  0  0  0
 11 13  1  0  0  0  0
 11 12  1  0  0  0  0
 11 10  1  0  0  0  0
 12 10  1  0  0  0  0
 12 16  1  0  0  0  0
 14 11  1  0  0  0  0
 15 12  1  0  0  0  0
 17 23  1  0  0  0  0
 17 18  1  0  0  0  0
 18 24  1  0  0  0  0
 19 18  2  0  0  0  0
 19 25  1  0  0  0  0
 20 19  1  0  0  0  0
 21 22  1  0  0  0  0
 21 20  2  0  0  0  0
 22 17  2  0  0  0  0
 26 30  2  0  0  0  0
 27 28  2  0  0  0  0
 27 26  1  0  0  0  0
 28 29  1  0  0  0  0
 29 30  1  0  0  0  0
 29 34  1  0  0  0  0
 31 28  1  0  0  0  0
 32 33  1  0  0  0  0
 33 40  1  0  0  0  0
 34 33  2  0  0  0  0
 34 35  1  0  0  0  0
 35 37  2  0  0  0  0
 36 35  1  0  0  0  0
 37 39  1  0  0  0  0
 37 38  1  0  0  0  0
 40 39  2  0  0  0  0
M  END
>  <minimizedAffinity>
-6.17851734

$$$$

 OpenBabel03272505493D

 40 44  0  0  0  0  0  0  0  0999 V2000
   38.4570   24.3030   35.2120 C   0  0  0  0  0  0  0  0  0  0  0  0
   38.6270   25.1010   36.2990 C   0  0  0  0  0  0  0  0  0  0  0  0
   38.2900   26.4470   36.2530 C   0  0  0  0  0  0  0  0  0  0  0  0
   37.7770   26.9510   35.0660 C   0  0  0  0  0  0  0  0  0  0  0  0
   37.6020   26.1440   33.9530 C   0  0  0  0  0  0  0  0  0  0  0  0
   37.9540   24.8450   34.0800 N   0  0  0  0  0  0  0  0  0  0  0  0
   39.0270   24.6990   37.2160 H   0  0  0  0  0  0  0  0  0  0  0  0
   38.4170   27.1060   37.1130 H   0  0  0  0  0  0  0  0  0  0  0  0
   37.4890   27.9860   34.9410 H   0  0  0  0  0  0  0  0  0  0  0  0
   38.8180   22.8470   35.2490 C   0  0  0  0  0  0  0  0  0  0  0  0
   40.2370   22.4620   35.0680 C   0  0  0  0  0  0  0  0  0  0  0  0
   39.6030   22.3650   36.4360 C   0  0  0  0  0  0  0  0  0  0  0  0
   40.4710   21.4580   34.6460 H   0  0  0  0  0  0  0  0  0  0  0  0
   40.9830   23.2750   34.9280 H   0  0  0  0  0  0  0  0  0  0  0  0
   39.8580   23.1450   37.1740 H   0  0  0  0  0  0  0  0  0  0  0  0
   39.3780   21.3930   36.8810 H   0  0  0  0  0  0  0  0  0  0  0  0
   36.5800   20.8090   33.1180 C   0  0  0  0  0  0  0  0  0  0  0  0
   35.5840   20.3960   34.0380 C   0  0  0  0  0  0  0  0  0  0  0  0
   35.7070   20.8290   35.3700 C   0  0  0  0  0  0  0  0  0  0  0  0
   36.7590   21.6110   35.7090 N   0  0  0  0  0  0  0  0  0  0  0  0
   37.6980   21.9920   34.8070 C   0  0  0  0  0  0  0  0  0  0  0  0
   37.6120   21.5960   33.5190 N   0  0  0  0  0  0  0  0  0  0  0  0
   36.6040   20.5500   32.0760 H   0  0  0  0  0  0  0  0  0  0  0  0
   34.8130   19.7760   33.6160 H   0  0  0  0  0  0  0  0  0  0  0  0
   34.9370   20.4940   36.0220 H   0  0  0  0  0  0  0  0  0  0  0  0
   37.0680   26.6170   32.6820 C   0  0  0  0  0  0  0  0  0  0  0  0
   36.0870   26.1240   31.8780 N   0  0  0  0  0  0  0  0  0  0  0  0
   35.9500   26.9220   30.7910 C   0  0  0  0  0  0  0  0  0  0  0  0
   36.8610   27.9260   30.9210 N   0  0  0  0  0  0  0  0  0  0  0  0
   37.5240   27.7350   32.0550 N   0  0  0  0  0  0  0  0  0  0  0  0
   35.2550   26.8010   29.9660 H   0  0  0  0  0  0  0  0  0  0  0  0
   35.9870   30.4310   31.6520 F   0  0  0  0  0  0  0  0  0  0  0  0
   36.6210   30.2110   30.4750 C   0  0  0  0  0  0  0  0  0  0  0  0
   37.0870   28.9890   30.0370 C   0  0  0  0  0  0  0  0  0  0  0  0
   37.7120   28.9330   28.8120 C   0  0  0  0  0  0  0  0  0  0  0  0
   38.0630   27.9720   28.5000 H   0  0  0  0  0  0  0  0  0  0  0  0
   37.8720   30.0590   28.0360 C   0  0  0  0  0  0  0  0  0  0  0  0
   38.3630   30.0180   27.0710 H   0  0  0  0  0  0  0  0  0  0  0  0
   37.4110   31.2990   28.4550 C   0  0  0  0  0  3  0  0  0  0  0  0
   36.7760   31.3590   29.6990 C   0  0  0  0  0  3  0  0  0  0  0  0
  1 10  1  0  0  0  0
  1  2  1  0  0  0  0
  2  7  1  0  0  0  0
  3  2  2  0  0  0  0
  3  8  1  0  0  0  0
  4  3  1  0  0  0  0
  5  6  1  0  0  0  0
  5  4  2  0  0  0  0
  6  1  2  0  0  0  0
  9  4  1  0  0  0  0
 10 12  1  0  0  0  0
 11 10  1  0  0  0  0
 11 12  1  0  0  0  0
 12 16  1  0  0  0  0
 12 15  1  0  0  0  0
 13 11  1  0  0  0  0
 14 11  1  0  0  0  0
 17 22  2  0  0  0  0
 17 18  1  0  0  0  0
 18 19  2  0  0  0  0
 19 20  1  0  0  0  0
 19 25  1  0  0  0  0
 21 10  1  0  0  0  0
 21 20  2  0  0  0  0
 22 21  1  0  0  0  0
 23 17  1  0  0  0  0
 24 18  1  0  0  0  0
 26  5  1  0  0  0  0
 27 26  1  0  0  0  0
 28 29  1  0  0  0  0
 28 27  2  0  0  0  0
 29 30  1  0  0  0  0
 30 26  2  0  0  0  0
 31 28  1  0  0  0  0
 33 32  1  0  0  0  0
 34 33  1  0  0  0  0
 34 29  1  0  0  0  0
 35 34  2  0  0  0  0
 36 35  1  0  0  0  0
 37 39  2  0  0  0  0
 37 35  1  0  0  0  0
 38 37  1  0  0  0  0
 39 40  1  0  0  0  0
 40 33  2  0  0  0  0
M  END
>  <minimizedAffinity>
-6.10337925

$$$$

 OpenBabel03272505493D

 40 44  0  0  0  0  0  0  0  0999 V2000
   38.2550   25.3100   33.0290 C   0  0  0  0  0  0  0  0  0  0  0  0
   39.2820   25.5830   32.1820 C   0  0  0  0  0  0  0  0  0  0  0  0
   39.3360   26.7880   31.4930 C   0  0  0  0  0  0  0  0  0  0  0  0
   38.3100   27.7010   31.6950 C   0  0  0  0  0  0  0  0  0  0  0  0
   37.2580   27.4290   32.5560 C   0  0  0  0  0  0  0  0  0  0  0  0
   37.2810   26.2350   33.1890 N   0  0  0  0  0  0  0  0  0  0  0  0
   40.0740   24.8670   32.0330 H   0  0  0  0  0  0  0  0  0  0  0  0
   40.1510   27.0290   30.8100 H   0  0  0  0  0  0  0  0  0  0  0  0
   38.2710   28.6620   31.2010 H   0  0  0  0  0  0  0  0  0  0  0  0
   38.1850   24.0120   33.7790 C   0  0  0  0  0  0  0  0  0  0  0  0
   39.3690   23.5770   34.5550 C   0  0  0  0  0  0  0  0  0  0  0  0
   38.1460   24.0890   35.2790 C   0  0  0  0  0  0  0  0  0  0  0  0
   39.5280   22.4870   34.7260 H   0  0  0  0  0  0  0  0  0  0  0  0
   40.2610   24.2420   34.5630 H   0  0  0  0  0  0  0  0  0  0  0  0
   38.1900   25.1100   35.6940 H   0  0  0  0  0  0  0  0  0  0  0  0
   37.5040   23.4090   35.8430 H   0  0  0  0  0  0  0  0  0  0  0  0
   35.7070   22.5370   31.4590 C   0  0  0  0  0  0  0  0  0  0  0  0
   35.5330   21.2360   31.9950 C   0  0  0  0  0  0  0  0  0  0  0  0
   36.2730   20.8980   33.1420 C   0  0  0  0  0  0  0  0  0  0  0  0
   37.1080   21.8190   33.6750 N   0  0  0  0  0  0  0  0  0  0  0  0
   37.2560   23.0590   33.1420 C   0  0  0  0  0  0  0  0  0  0  0  0
   36.5610   23.4180   32.0410 N   0  0  0  0  0  0  0  0  0  0  0  0
   35.2040   22.9200   30.5910 H   0  0  0  0  0  0  0  0  0  0  0  0
   34.8330   20.6190   31.4570 H   0  0  0  0  0  0  0  0  0  0  0  0
   36.1090   19.9130   33.5050 H   0  0  0  0  0  0  0  0  0  0  0  0
   36.1560   28.3480   32.8070 C   0  0  0  0  0  0  0  0  0  0  0  0
   35.2480   28.9160   31.9670 N   0  0  0  0  0  0  0  0  0  0  0  0
   34.4090   29.7090   32.6770 C   0  0  0  0  0  0  0  0  0  0  0  0
   34.8030   29.6340   33.9790 N   0  0  0  0  0  0  0  0  0  0  0  0
   35.8470   28.8170   34.0460 N   0  0  0  0  0  0  0  0  0  0  0  0
   33.5790   30.2990   32.3010 H   0  0  0  0  0  0  0  0  0  0  0  0
   36.2900   31.5590   35.2650 F   0  0  0  0  0  0  0  0  0  0  0  0
   35.0380   31.2370   35.6690 C   0  0  0  0  0  0  0  0  0  0  0  0
   34.2310   30.2860   35.0800 C   0  0  0  0  0  0  0  0  0  0  0  0
   32.9800   30.0750   35.6120 C   0  0  0  0  0  0  0  0  0  0  0  0
   32.3770   29.3320   35.1340 H   0  0  0  0  0  0  0  0  0  0  0  0
   32.5350   30.7880   36.7040 C   0  0  0  0  0  0  0  0  0  0  0  0
   31.5500   30.6250   37.1260 H   0  0  0  0  0  0  0  0  0  0  0  0
   33.3280   31.7490   37.3130 C   0  0  0  0  0  3  0  0  0  0  0  0
   34.6010   31.9650   36.7740 C   0  0  0  0  0  3  0  0  0  0  0  0
  1  6  1  0  0  0  0
  1 10  1  0  0  0  0
  2  1  2  0  0  0  0
  3  4  2  0  0  0  0
  3  2  1  0  0  0  0
  4  5  1  0  0  0  0
  5 26  1  0  0  0  0
  5  6  2  0  0  0  0
  7  2  1  0  0  0  0
  8  3  1  0  0  0  0
  9  4  1  0  0  0  0
 10 11  1  0  0  0  0
 10 12  1  0  0  0  0
 11 14  1  0  0  0  0
 11 13  1  0  0  0  0
 11 12  1  0  0  0  0
 12 15  1  0  0  0  0
 12 16  1  0  0  0  0
 17 18  2  0  0  0  0
 17 22  1  0  0  0  0
 18 19  1  0  0  0  0
 19 25  1  0  0  0  0
 19 20  2  0  0  0  0
 21 20  1  0  0  0  0
 21 10  1  0  0  0  0
 22 21  2  0  0  0  0
 23 17  1  0  0  0  0
 24 18  1  0  0  0  0
 26 30  2  0  0  0  0
 27 28  2  0  0  0  0
 27 26  1  0  0  0  0
 28 29  1  0  0  0  0
 29 30  1  0  0  0  0
 29 34  1  0  0  0  0
 31 28  1  0  0  0  0
 32 33  1  0  0  0  0
 33 40  1  0  0  0  0
 34 35  1  0  0  0  0
 34 33  2  0  0  0  0
 35 37  2  0  0  0  0
 36 35  1  0  0  0  0
 37 38  1  0  0  0  0
 37 39  1  0  0  0  0
 40 39  2  0  0  0  0
M  END
>  <minimizedAffinity>
-6.06119156

$$$$

 OpenBabel03272505493D

 40 44  0  0  0  0  0  0  0  0999 V2000
   35.3930   29.3430   31.8850 C   0  0  0  0  0  0  0  0  0  0  0  0
   35.9570   29.8610   30.7620 C   0  0  0  0  0  0  0  0  0  0  0  0
   36.8530   29.1160   30.0070 C   0  0  0  0  0  0  0  0  0  0  0  0
   37.1540   27.8300   30.4330 C   0  0  0  0  0  0  0  0  0  0  0  0
   36.5830   27.2950   31.5780 C   0  0  0  0  0  0  0  0  0  0  0  0
   35.7210   28.0840   32.2560 N   0  0  0  0  0  0  0  0  0  0  0  0
   35.7160   30.8610   30.4400 H   0  0  0  0  0  0  0  0  0  0  0  0
   37.3160   29.5110   29.1030 H   0  0  0  0  0  0  0  0  0  0  0  0
   37.8400   27.1810   29.9070 H   0  0  0  0  0  0  0  0  0  0  0  0
   34.4230   30.1380   32.7100 C   0  0  0  0  0  0  0  0  0  0  0  0
   33.1050   30.4760   32.1250 C   0  0  0  0  0  0  0  0  0  0  0  0
   33.1980   29.4230   33.2040 C   0  0  0  0  0  0  0  0  0  0  0  0
   32.5790   31.3920   32.4820 H   0  0  0  0  0  0  0  0  0  0  0  0
   32.8810   30.1120   31.0980 H   0  0  0  0  0  0  0  0  0  0  0  0
   33.1170   28.3670   32.8940 H   0  0  0  0  0  0  0  0  0  0  0  0
   32.8210   29.6180   34.2100 H   0  0  0  0  0  0  0  0  0  0  0  0
   36.0930   33.0710   34.2300 C   0  0  0  0  0  0  0  0  0  0  0  0
   36.4020   32.5990   35.5300 C   0  0  0  0  0  0  0  0  0  0  0  0
   36.0280   31.2820   35.8530 C   0  0  0  0  0  0  0  0  0  0  0  0
   35.3970   30.5350   34.9170 N   0  0  0  0  0  0  0  0  0  0  0  0
   35.1140   31.0120   33.6790 C   0  0  0  0  0  0  0  0  0  0  0  0
   35.4580   32.2710   33.3340 N   0  0  0  0  0  0  0  0  0  0  0  0
   36.3230   34.0520   33.8580 H   0  0  0  0  0  0  0  0  0  0  0  0
   36.9050   33.3130   36.1590 H   0  0  0  0  0  0  0  0  0  0  0  0
   36.2810   30.9740   36.8380 H   0  0  0  0  0  0  0  0  0  0  0  0
   36.8610   25.9530   32.0720 C   0  0  0  0  0  0  0  0  0  0  0  0
   37.6560   25.5140   33.0860 N   0  0  0  0  0  0  0  0  0  0  0  0
   37.5880   24.1620   33.1620 C   0  0  0  0  0  0  0  0  0  0  0  0
   36.7370   23.7550   32.1780 N   0  0  0  0  0  0  0  0  0  0  0  0
   36.3080   24.8330   31.5330 N   0  0  0  0  0  0  0  0  0  0  0  0
   38.1020   23.5120   33.8620 H   0  0  0  0  0  0  0  0  0  0  0  0
   38.3460   22.2970   30.4870 F   0  0  0  0  0  0  0  0  0  0  0  0
   37.2140   21.7770   31.0200 C   0  0  0  0  0  0  0  0  0  0  0  0
   36.3570   22.4410   31.8720 C   0  0  0  0  0  0  0  0  0  0  0  0
   35.2450   21.7710   32.3270 C   0  0  0  0  0  0  0  0  0  0  0  0
   34.6000   22.3120   32.9870 H   0  0  0  0  0  0  0  0  0  0  0  0
   34.9850   20.4720   31.9490 C   0  0  0  0  0  0  0  0  0  0  0  0
   34.1100   19.9420   32.3050 H   0  0  0  0  0  0  0  0  0  0  0  0
   35.8320   19.7850   31.0920 C   0  0  0  0  0  3  0  0  0  0  0  0
   36.9630   20.4640   30.6280 C   0  0  0  0  0  3  0  0  0  0  0  0
  1  6  1  0  0  0  0
  1 10  1  0  0  0  0
  2  1  2  0  0  0  0
  3  4  2  0  0  0  0
  3  2  1  0  0  0  0
  4  5  1  0  0  0  0
  5 26  1  0  0  0  0
  5  6  2  0  0  0  0
  7  2  1  0  0  0  0
  8  3  1  0  0  0  0
  9  4  1  0  0  0  0
 10 12  1  0  0  0  0
 10 21  1  0  0  0  0
 11 13  1  0  0  0  0
 11 10  1  0  0  0  0
 11 12  1  0  0  0  0
 12 16  1  0  0  0  0
 14 11  1  0  0  0  0
 15 12  1  0  0  0  0
 17 18  1  0  0  0  0
 18 19  2  0  0  0  0
 18 24  1  0  0  0  0
 19 25  1  0  0  0  0
 20 19  1  0  0  0  0
 21 20  2  0  0  0  0
 22 21  1  0  0  0  0
 22 17  2  0  0  0  0
 23 17  1  0  0  0  0
 26 27  1  0  0  0  0
 27 28  2  0  0  0  0
 28 31  1  0  0  0  0
 29 28  1  0  0  0  0
 30 26  2  0  0  0  0
 30 29  1  0  0  0  0
 32 33  1  0  0  0  0
 33 34  1  0  0  0  0
 34 29  1  0  0  0  0
 34 35  2  0  0  0  0
 35 36  1  0  0  0  0
 37 38  1  0  0  0  0
 37 35  1  0  0  0  0
 39 37  2  0  0  0  0
 40 33  2  0  0  0  0
 40 39  1  0  0  0  0
M  END
>  <minimizedAffinity>
-6.04664946

$$$$
