
 OpenBabel03272503123D

 46 50  0  0  0  0  0  0  0  0999 V2000
   39.2800   31.9300   44.9700 C   0  0  0  0  0  0  0  0  0  0  0  0
   38.1870   32.5790   45.0930 O   0  0  0  0  0  0  0  0  0  0  0  0
   39.9630   31.6530   46.1790 N   0  0  0  0  0  0  0  0  0  0  0  0
   40.8620   31.1140   46.0930 H   0  0  0  0  0  0  0  0  0  0  0  0
   39.2200   32.2820   42.5940 C   0  0  0  0  0  0  0  0  0  0  0  0
   39.7110   31.5460   43.6390 C   0  0  0  0  0  0  0  0  0  0  0  0
   40.5710   30.4890   43.4730 C   0  0  0  0  0  0  0  0  0  0  0  0
   40.9740   30.1350   42.1850 C   0  0  0  0  0  0  0  0  0  0  0  0
   41.7770   29.1840   41.7210 N   0  0  0  0  0  0  0  0  0  0  0  0
   41.8110   29.2950   40.4030 C   0  0  0  0  0  0  0  0  0  0  0  0
   41.0280   30.3200   40.0210 N   0  0  0  0  0  0  0  0  0  0  0  0
   40.4730   30.8830   41.1320 C   0  0  0  0  0  0  0  0  0  0  0  0
   39.6030   31.9560   41.2890 C   0  0  0  0  0  0  0  0  0  0  0  0
   38.5590   33.1030   42.7910 H   0  0  0  0  0  0  0  0  0  0  0  0
   40.9460   29.9230   44.3070 H   0  0  0  0  0  0  0  0  0  0  0  0
   42.2670   28.4980   42.3500 H   0  0  0  0  0  0  0  0  0  0  0  0
   42.3920   28.6420   39.7750 H   0  0  0  0  0  0  0  0  0  0  0  0
   39.1250   32.6740   40.2230 O   0  0  0  0  0  0  0  0  0  0  0  0
   38.0650   34.0870   38.0100 F   0  0  0  0  0  0  0  0  0  0  0  0
   37.3840   33.9510   39.1830 C   0  0  0  0  0  0  0  0  0  0  0  0
   37.8850   33.2700   40.2810 C   0  0  0  0  0  0  0  0  0  0  0  0
   37.0460   33.2530   41.3940 C   0  0  0  0  0  0  0  0  0  0  0  0
   37.4330   32.7220   42.2540 H   0  0  0  0  0  0  0  0  0  0  0  0
   35.8120   33.8610   41.4200 C   0  0  0  0  0  0  0  0  0  0  0  0
   35.2620   33.7770   42.3340 H   0  0  0  0  0  0  0  0  0  0  0  0
   35.3580   34.5270   40.2970 C   0  0  0  0  0  0  0  0  0  0  0  0
   36.1570   34.5710   39.1690 C   0  0  0  0  0  0  0  0  0  0  0  0
   38.1210   30.1630   47.4960 F   0  0  0  0  0  0  0  0  0  0  0  0
   38.3690   31.4010   48.0000 C   0  0  0  0  0  0  0  0  0  0  0  0
   37.7080   31.8330   49.1080 C   0  0  0  0  0  0  0  0  0  0  0  0
   38.0120   33.1010   49.5610 C   0  0  0  0  0  0  0  0  0  0  0  0
   38.9360   33.9090   48.9410 C   0  0  0  0  0  0  0  0  0  0  0  0
   39.5920   33.4420   47.8150 C   0  0  0  0  0  0  0  0  0  0  0  0
   39.2980   32.1650   47.3430 C   0  0  0  0  0  0  0  0  0  0  0  0
   37.4940   33.4580   50.4410 H   0  0  0  0  0  0  0  0  0  0  0  0
   39.1240   34.8930   49.3500 H   0  0  0  0  0  0  0  0  0  0  0  0
   40.3140   34.0600   47.3220 H   0  0  0  0  0  0  0  0  0  0  0  0
   36.0700   29.3450   51.4460 C   0  0  0  0  0  0  0  0  0  0  0  0
   37.0370   30.2060   50.8730 C   0  0  0  0  0  0  0  0  0  0  0  0
   36.7360   30.9350   49.7290 C   0  0  0  0  0  0  0  0  0  0  0  0
   35.4920   30.7880   49.1960 N   0  0  0  0  0  0  0  0  0  0  0  0
   34.5770   29.9660   49.7500 C   0  0  0  0  0  0  0  0  0  0  0  0
   34.8640   29.2670   50.8460 N   0  0  0  0  0  0  0  0  0  0  0  0
   36.3000   28.7810   52.3320 H   0  0  0  0  0  0  0  0  0  0  0  0
   38.0220   30.3100   51.3110 H   0  0  0  0  0  0  0  0  0  0  0  0
   33.5820   29.8390   49.3370 H   0  0  0  0  0  0  0  0  0  0  0  0
  1  2  2  0  0  0  0
  1  3  1  0  0  0  0
  3 34  1  0  0  0  0
  4  3  1  0  0  0  0
  5 14  1  0  0  0  0
  5  6  1  0  0  0  0
  6  1  1  0  0  0  0
  7  6  2  0  0  0  0
  7 15  1  0  0  0  0
  8  7  1  0  0  0  0
  9  8  1  0  0  0  0
  9 16  1  0  0  0  0
 10  9  1  0  0  0  0
 11 10  2  0  0  0  0
 11 12  1  0  0  0  0
 12 13  1  0  0  0  0
 12  8  2  0  0  0  0
 13  5  2  0  0  0  0
 17 10  1  0  0  0  0
 18 21  1  0  0  0  0
 18 13  1  0  0  0  0
 19 20  1  0  0  0  0
 20 21  1  0  0  0  0
 21 22  2  0  0  0  0
 22 24  1  0  0  0  0
 22 23  1  0  0  0  0
 24 25  1  0  0  0  0
 26 24  2  0  0  0  0
 27 20  2  0  0  0  0
 27 26  1  0  0  0  0
 28 29  1  0  0  0  0
 29 30  1  0  0  0  0
 30 31  2  0  0  0  0
 30 40  1  0  0  0  0
 31 35  1  0  0  0  0
 32 36  1  0  0  0  0
 32 31  1  0  0  0  0
 33 32  2  0  0  0  0
 34 33  1  0  0  0  0
 34 29  2  0  0  0  0
 37 33  1  0  0  0  0
 38 44  1  0  0  0  0
 39 45  1  0  0  0  0
 39 38  1  0  0  0  0
 40 39  2  0  0  0  0
 41 40  1  0  0  0  0
 41 42  2  0  0  0  0
 42 43  1  0  0  0  0
 43 38  2  0  0  0  0
 46 42  1  0  0  0  0
M  END
>  <minimizedAffinity>
-7.55296707

>  <minimizedRMSD>
0.466376275

$$$$
