
 OpenBabel03272509423D

 38 40  0  0  1  0  0  0  0  0999 V2000
   37.0630   30.9470   49.0560 C   0  0  0  0  0  0  0  0  0  0  0  0
   36.7680   31.8790   50.0550 C   0  0  0  0  0  0  0  0  0  0  0  0
   37.3540   33.1320   50.0820 C   0  0  0  0  0  0  0  0  0  0  0  0
   38.2700   33.4840   49.0840 C   0  0  0  0  0  0  0  0  0  0  0  0
   38.5510   32.5650   48.1130 C   0  0  0  0  0  0  0  0  0  0  0  0
   37.9430   31.3180   48.1200 C   0  0  0  0  0  0  0  0  0  0  0  0
   36.0530   31.5990   50.8280 H   0  0  0  0  0  0  0  0  0  0  0  0
   37.0670   33.7750   50.8830 H   0  0  0  0  0  0  0  0  0  0  0  0
   38.6650   34.4660   49.1910 H   0  0  0  0  0  0  0  0  0  0  0  0
   39.2760   32.9810   47.4160 H   0  0  0  0  0  0  0  0  0  0  0  0
   36.4750   29.6250   49.0470 C   0  0  2  0  0  0  0  0  0  0  0  0
   36.9780   29.0760   48.1620 H   0  0  0  0  0  0  0  0  0  0  0  0
   33.6170   29.9690   46.8290 C   0  0  0  0  0  0  0  0  0  0  0  0
   32.8750   28.8230   47.0590 C   0  0  0  0  0  0  0  0  0  0  0  0
   33.3190   27.9450   48.0290 C   0  0  0  0  0  0  0  0  0  0  0  0
   34.4720   28.2340   48.7250 N   0  0  0  0  0  0  0  0  0  0  0  0
   35.1350   29.3400   48.4590 C   0  0  0  0  0  0  0  0  0  0  0  0
   34.7160   30.2130   47.5140 N   0  0  0  0  0  0  0  0  0  0  0  0
   33.2360   30.6320   46.0610 H   0  0  0  0  0  0  0  0  0  0  0  0
   31.9690   28.5140   46.5690 H   0  0  0  0  0  0  0  0  0  0  0  0
   32.8660   27.0010   48.3440 H   0  0  0  0  0  0  0  0  0  0  0  0
   36.9410   28.8720   49.9780 O   0  0  0  0  0  0  0  0  0  0  0  0
   36.7150   28.9990   50.9290 H   0  0  0  0  0  0  0  0  0  0  0  0
   38.3540   30.4330   47.0540 C   0  0  0  0  0  3  0  0  0  0  0  0
   38.9530   30.8450   45.9320 C   0  0  0  0  0  3  0  0  0  0  0  0
   39.4530   30.0260   44.8020 C   0  0  0  0  0  0  0  0  0  0  0  0
   39.0470   29.0010   44.7910 H   0  0  0  0  0  0  0  0  0  0  0  0
   40.5690   29.8980   44.9110 H   0  0  0  0  0  0  0  0  0  0  0  0
   39.1780   30.8990   43.2580 S   0  0  0  0  0  0  0  0  0  0  0  0
   38.0900   28.3700   42.3060 F   0  0  0  0  0  0  0  0  0  0  0  0
   39.1770   28.7970   41.6430 C   0  0  0  0  0  0  0  0  0  0  0  0
   39.8830   29.9750   41.9050 C   0  0  0  0  0  0  0  0  0  0  0  0
   40.9870   30.2950   41.1440 C   0  0  0  0  0  0  0  0  0  0  0  0
   41.4530   31.2150   41.4250 H   0  0  0  0  0  0  0  0  0  0  0  0
   41.3870   29.4490   40.1300 C   0  0  0  0  0  0  0  0  0  0  0  0
   42.2410   29.7170   39.5580 H   0  0  0  0  0  0  0  0  0  0  0  0
   40.6990   28.2650   39.8490 C   0  0  0  0  0  3  0  0  0  0  0  0
   39.6010   27.9600   40.6150 C   0  0  0  0  0  3  0  0  0  0  0  0
  1  2  1  0  0  0  0
  2  3  2  0  0  0  0
  2  7  1  0  0  0  0
  3  8  1  0  0  0  0
  4  9  1  0  0  0  0
  4  3  1  0  0  0  0
  5  6  1  0  0  0  0
  5  4  2  0  0  0  0
  6  1  2  0  0  0  0
 10  5  1  0  0  0  0
 11 12  1  6  0  0  0
 11  1  1  0  0  0  0
 11 22  1  0  0  0  0
 13 14  2  0  0  0  0
 13 18  1  0  0  0  0
 14 15  1  0  0  0  0
 15 21  1  0  0  0  0
 15 16  2  0  0  0  0
 17 16  1  0  0  0  0
 17 11  1  0  0  0  0
 18 17  2  0  0  0  0
 19 13  1  0  0  0  0
 20 14  1  0  0  0  0
 22 23  1  0  0  0  0
 24  6  1  0  0  0  0
 25 24  2  0  0  0  0
 26 28  1  0  0  0  0
 26 25  1  0  0  0  0
 27 26  1  0  0  0  0
 29 26  1  0  0  0  0
 31 32  1  0  0  0  0
 31 30  1  0  0  0  0
 32 29  1  0  0  0  0
 33 34  1  0  0  0  0
 33 32  2  0  0  0  0
 35 33  1  0  0  0  0
 36 35  1  0  0  0  0
 37 35  2  0  0  0  0
 37 38  1  0  0  0  0
 38 31  2  0  0  0  0
M  END
>  <minimizedAffinity>
-5.60326719

>  <minimizedRMSD>
0.29121682

$$$$
