
 OpenBabel03272507173D

 26 28  0  0  1  0  0  0  0  0999 V2000
   37.8060   27.2660   34.6480 C   0  0  1  0  0  0  0  0  0  0  0  0
   37.8290   26.4860   35.8620 C   0  0  2  0  0  0  0  0  0  0  0  0
   39.1270   27.1290   35.4170 C   0  0  0  0  0  0  0  0  0  0  0  0
   37.4010   28.2980   34.5630 H   0  0  0  0  0  0  0  0  0  0  0  0
   37.2770   26.9090   36.7310 H   0  0  0  0  0  0  0  0  0  0  0  0
   39.9100   26.4660   35.0070 H   0  0  0  0  0  0  0  0  0  0  0  0
   39.3800   28.0170   36.0030 H   0  0  0  0  0  0  0  0  0  0  0  0
   37.8670   26.6100   33.2830 C   0  0  0  0  0  0  0  0  0  0  0  0
   38.8000   27.1340   32.3880 C   0  0  0  0  0  0  0  0  0  0  0  0
   38.8100   26.5250   31.1370 C   0  0  0  0  0  0  0  0  0  0  0  0
   37.9480   25.4880   30.8440 N   0  0  0  0  0  0  0  0  0  0  0  0
   37.0660   25.0280   31.7570 C   0  0  0  0  0  0  0  0  0  0  0  0
   37.0230   25.5960   33.0000 N   0  0  0  0  0  0  0  0  0  0  0  0
   39.4520   27.9360   32.6450 H   0  0  0  0  0  0  0  0  0  0  0  0
   39.5040   26.8680   30.3780 H   0  0  0  0  0  0  0  0  0  0  0  0
   36.4250   24.2120   31.4530 H   0  0  0  0  0  0  0  0  0  0  0  0
   37.7880   25.0870   35.7810 O   0  0  0  0  0  0  0  0  0  0  0  0
   37.5770   24.4780   38.4830 F   0  0  0  0  0  0  0  0  0  0  0  0
   38.5240   23.9150   37.6710 C   0  0  0  0  0  0  0  0  0  0  0  0
   38.6650   24.1910   36.3140 C   0  0  0  0  0  0  0  0  0  0  0  0
   39.6780   23.5310   35.6350 C   0  0  0  0  0  0  0  0  0  0  0  0
   39.7850   23.7470   34.5820 H   0  0  0  0  0  0  0  0  0  0  0  0
   40.5460   22.6310   36.2040 C   0  0  0  0  0  0  0  0  0  0  0  0
   41.3130   22.1630   35.5830 H   0  0  0  0  0  0  0  0  0  0  0  0
   40.3700   22.3890   37.5450 C   0  0  0  0  0  3  0  0  0  0  0  0
   39.3870   23.0100   38.2680 C   0  0  0  0  0  3  0  0  0  0  0  0
  1  4  1  1  0  0  0
  1  3  1  0  0  0  0
  1  2  1  0  0  0  0
  2  5  1  1  0  0  0
  3  2  1  0  0  0  0
  3  7  1  0  0  0  0
  6  3  1  0  0  0  0
  8  1  1  0  0  0  0
  9 14  1  0  0  0  0
  9  8  2  0  0  0  0
 10  9  1  0  0  0  0
 11 10  2  0  0  0  0
 11 12  1  0  0  0  0
 12 13  2  0  0  0  0
 13  8  1  0  0  0  0
 15 10  1  0  0  0  0
 16 12  1  0  0  0  0
 17  2  1  0  0  0  0
 17 20  1  0  0  0  0
 19 26  1  0  0  0  0
 19 18  1  0  0  0  0
 20 19  2  0  0  0  0
 21 23  2  0  0  0  0
 21 20  1  0  0  0  0
 22 21  1  0  0  0  0
 23 25  1  0  0  0  0
 24 23  1  0  0  0  0
 25 26  2  0  0  0  0
M  END
>  <minimizedAffinity>
-4.82173347

$$$$

 OpenBabel03272507173D

 26 28  0  0  1  0  0  0  0  0999 V2000
   37.7440   22.1850   34.5460 C   0  0  1  0  0  0  0  0  0  0  0  0
   37.9490   23.0270   33.3900 C   0  0  2  0  0  0  0  0  0  0  0  0
   38.7010   21.7120   33.4430 C   0  0  0  0  0  0  0  0  0  0  0  0
   36.8500   21.5460   34.7150 H   0  0  0  0  0  0  0  0  0  0  0  0
   37.0830   23.1350   32.6990 H   0  0  0  0  0  0  0  0  0  0  0  0
   39.7890   21.7550   33.6350 H   0  0  0  0  0  0  0  0  0  0  0  0
   38.2660   20.9510   32.7900 H   0  0  0  0  0  0  0  0  0  0  0  0
   38.4610   22.4460   35.8540 C   0  0  0  0  0  0  0  0  0  0  0  0
   37.7290   23.1120   36.8370 C   0  0  0  0  0  0  0  0  0  0  0  0
   38.4270   23.3590   38.0150 C   0  0  0  0  0  0  0  0  0  0  0  0
   39.7410   22.9610   38.1600 N   0  0  0  0  0  0  0  0  0  0  0  0
   40.3940   22.3190   37.1670 C   0  0  0  0  0  0  0  0  0  0  0  0
   39.7450   22.0560   35.9930 N   0  0  0  0  0  0  0  0  0  0  0  0
   36.7160   23.4060   36.6940 H   0  0  0  0  0  0  0  0  0  0  0  0
   37.9350   23.8710   38.8330 H   0  0  0  0  0  0  0  0  0  0  0  0
   41.4210   22.0390   37.3560 H   0  0  0  0  0  0  0  0  0  0  0  0
   38.7360   24.1800   33.5120 O   0  0  0  0  0  0  0  0  0  0  0  0
   40.4720   25.2510   35.3980 F   0  0  0  0  0  0  0  0  0  0  0  0
   39.3000   25.8620   35.0410 C   0  0  0  0  0  0  0  0  0  0  0  0
   38.4030   25.3620   34.1030 C   0  0  0  0  0  0  0  0  0  0  0  0
   37.2610   26.1090   33.8560 C   0  0  0  0  0  0  0  0  0  0  0  0
   36.5660   25.7180   33.1280 H   0  0  0  0  0  0  0  0  0  0  0  0
   36.9560   27.2990   34.4700 C   0  0  0  0  0  0  0  0  0  0  0  0
   36.0280   27.8140   34.2070 H   0  0  0  0  0  0  0  0  0  0  0  0
   37.8700   27.7560   35.3880 C   0  0  0  0  0  3  0  0  0  0  0  0
   39.0150   27.0630   35.6730 C   0  0  0  0  0  3  0  0  0  0  0  0
  1  4  1  1  0  0  0
  1  8  1  0  0  0  0
  2  5  1  6  0  0  0
  2  3  1  0  0  0  0
  2 17  1  0  0  0  0
  2  1  1  0  0  0  0
  3  6  1  0  0  0  0
  3  1  1  0  0  0  0
  7  3  1  0  0  0  0
  8 13  2  0  0  0  0
  8  9  1  0  0  0  0
  9 10  2  0  0  0  0
 10 11  1  0  0  0  0
 10 15  1  0  0  0  0
 12 16  1  0  0  0  0
 12 11  2  0  0  0  0
 13 12  1  0  0  0  0
 14  9  1  0  0  0  0
 17 20  1  0  0  0  0
 19 18  1  0  0  0  0
 19 26  1  0  0  0  0
 20 19  2  0  0  0  0
 21 20  1  0  0  0  0
 21 23  2  0  0  0  0
 22 21  1  0  0  0  0
 23 25  1  0  0  0  0
 24 23  1  0  0  0  0
 25 26  2  0  0  0  0
M  END
>  <minimizedAffinity>
-4.76215839

$$$$

 OpenBabel03272507173D

 26 28  0  0  1  0  0  0  0  0999 V2000
   37.6300   22.2750   32.5030 C   0  0  1  0  0  0  0  0  0  0  0  0
   38.1760   22.1690   33.8360 C   0  0  2  0  0  0  0  0  0  0  0  0
   36.7900   21.6060   33.5990 C   0  0  0  0  0  0  0  0  0  0  0  0
   37.9140   21.6240   31.6480 H   0  0  0  0  0  0  0  0  0  0  0  0
   39.0360   21.4740   33.9640 H   0  0  0  0  0  0  0  0  0  0  0  0
   35.9340   22.1640   34.0210 H   0  0  0  0  0  0  0  0  0  0  0  0
   36.7830   20.5150   33.5330 H   0  0  0  0  0  0  0  0  0  0  0  0
   37.0030   23.5590   32.0030 C   0  0  0  0  0  0  0  0  0  0  0  0
   35.6860   23.4690   31.5510 C   0  0  0  0  0  0  0  0  0  0  0  0
   35.1520   24.6620   31.0750 C   0  0  0  0  0  0  0  0  0  0  0  0
   35.8990   25.8220   31.0660 N   0  0  0  0  0  0  0  0  0  0  0  0
   37.1720   25.8430   31.5180 C   0  0  0  0  0  0  0  0  0  0  0  0
   37.7360   24.6930   31.9960 N   0  0  0  0  0  0  0  0  0  0  0  0
   35.1370   22.5570   31.5720 H   0  0  0  0  0  0  0  0  0  0  0  0
   34.1340   24.6840   30.7050 H   0  0  0  0  0  0  0  0  0  0  0  0
   37.6910   26.7900   31.4790 H   0  0  0  0  0  0  0  0  0  0  0  0
   38.2350   23.3110   34.6460 O   0  0  0  0  0  0  0  0  0  0  0  0
   40.5160   22.1230   35.6970 F   0  0  0  0  0  0  0  0  0  0  0  0
   39.5920   22.7660   36.4750 C   0  0  0  0  0  0  0  0  0  0  0  0
   38.4380   23.3740   35.9920 C   0  0  0  0  0  0  0  0  0  0  0  0
   37.6070   23.9850   36.9190 C   0  0  0  0  0  0  0  0  0  0  0  0
   36.7110   24.4560   36.5400 H   0  0  0  0  0  0  0  0  0  0  0  0
   37.8410   24.0300   38.2720 C   0  0  0  0  0  0  0  0  0  0  0  0
   37.1240   24.5370   38.9210 H   0  0  0  0  0  0  0  0  0  0  0  0
   38.9930   23.4180   38.7040 C   0  0  0  0  0  3  0  0  0  0  0  0
   39.8510   22.8000   37.8370 C   0  0  0  0  0  3  0  0  0  0  0  0
  1  4  1  6  0  0  0
  1  3  1  0  0  0  0
  1  2  1  0  0  0  0
  2  5  1  1  0  0  0
  2 17  1  0  0  0  0
  3  2  1  0  0  0  0
  3  6  1  0  0  0  0
  7  3  1  0  0  0  0
  8  1  1  0  0  0  0
  9 14  1  0  0  0  0
  9  8  2  0  0  0  0
 10  9  1  0  0  0  0
 11 10  2  0  0  0  0
 11 12  1  0  0  0  0
 12 13  2  0  0  0  0
 13  8  1  0  0  0  0
 15 10  1  0  0  0  0
 16 12  1  0  0  0  0
 17 20  1  0  0  0  0
 18 19  1  0  0  0  0
 19 26  1  0  0  0  0
 20 19  2  0  0  0  0
 20 21  1  0  0  0  0
 21 23  2  0  0  0  0
 22 21  1  0  0  0  0
 23 25  1  0  0  0  0
 23 24  1  0  0  0  0
 26 25  2  0  0  0  0
M  END
>  <minimizedAffinity>
-4.72872448

$$$$

 OpenBabel03272507173D

 26 28  0  0  1  0  0  0  0  0999 V2000
   37.8430   27.3730   34.2610 C   0  0  1  0  0  0  0  0  0  0  0  0
   37.6830   26.8200   35.5860 C   0  0  2  0  0  0  0  0  0  0  0  0
   39.0770   27.2370   35.1630 C   0  0  0  0  0  0  0  0  0  0  0  0
   37.5700   28.4100   33.9690 H   0  0  0  0  0  0  0  0  0  0  0  0
   37.1210   27.4440   36.3170 H   0  0  0  0  0  0  0  0  0  0  0  0
   39.8050   26.4350   34.9450 H   0  0  0  0  0  0  0  0  0  0  0  0
   39.3890   28.1840   35.6140 H   0  0  0  0  0  0  0  0  0  0  0  0
   37.9280   26.4850   33.0370 C   0  0  0  0  0  0  0  0  0  0  0  0
   38.9620   26.7620   32.1430 C   0  0  0  0  0  0  0  0  0  0  0  0
   38.9930   25.9440   31.0180 C   0  0  0  0  0  0  0  0  0  0  0  0
   38.0550   24.9490   30.8370 N   0  0  0  0  0  0  0  0  0  0  0  0
   37.0760   24.7320   31.7410 C   0  0  0  0  0  0  0  0  0  0  0  0
   37.0090   25.5120   32.8620 N   0  0  0  0  0  0  0  0  0  0  0  0
   39.6700   27.5390   32.3130 H   0  0  0  0  0  0  0  0  0  0  0  0
   39.7640   26.0890   30.2710 H   0  0  0  0  0  0  0  0  0  0  0  0
   36.3800   23.9330   31.5290 H   0  0  0  0  0  0  0  0  0  0  0  0
   37.4830   25.4410   35.7340 O   0  0  0  0  0  0  0  0  0  0  0  0
   39.4820   23.9570   34.5020 F   0  0  0  0  0  0  0  0  0  0  0  0
   39.1940   23.8450   35.8350 C   0  0  0  0  0  0  0  0  0  0  0  0
   38.2030   24.5670   36.4920 C   0  0  0  0  0  0  0  0  0  0  0  0
   38.0430   24.3340   37.8500 C   0  0  0  0  0  0  0  0  0  0  0  0
   37.2730   24.8960   38.3570 H   0  0  0  0  0  0  0  0  0  0  0  0
   38.7880   23.4440   38.5850 C   0  0  0  0  0  0  0  0  0  0  0  0
   38.5850   23.3310   39.6530 H   0  0  0  0  0  0  0  0  0  0  0  0
   39.7550   22.7530   37.8960 C   0  0  0  0  0  3  0  0  0  0  0  0
   39.9600   22.9420   36.5560 C   0  0  0  0  0  3  0  0  0  0  0  0
  1  4  1  6  0  0  0
  1  3  1  0  0  0  0
  1  2  1  0  0  0  0
  2 17  1  0  0  0  0
  2  5  1  1  0  0  0
  3  2  1  0  0  0  0
  3  7  1  0  0  0  0
  6  3  1  0  0  0  0
  8  1  1  0  0  0  0
  9 14  1  0  0  0  0
  9  8  2  0  0  0  0
 10  9  1  0  0  0  0
 11 10  2  0  0  0  0
 11 12  1  0  0  0  0
 12 13  2  0  0  0  0
 13  8  1  0  0  0  0
 15 10  1  0  0  0  0
 16 12  1  0  0  0  0
 17 20  1  0  0  0  0
 18 19  1  0  0  0  0
 19 20  2  0  0  0  0
 19 26  1  0  0  0  0
 20 21  1  0  0  0  0
 21 22  1  0  0  0  0
 21 23  2  0  0  0  0
 23 24  1  0  0  0  0
 25 23  1  0  0  0  0
 26 25  2  0  0  0  0
M  END
>  <minimizedAffinity>
-4.69018173

$$$$

 OpenBabel03272507173D

 26 28  0  0  1  0  0  0  0  0999 V2000
   38.5030   22.7510   34.4830 C   0  0  1  0  0  0  0  0  0  0  0  0
   38.1180   23.8390   33.6140 C   0  0  2  0  0  0  0  0  0  0  0  0
   39.5840   23.4590   33.6560 C   0  0  0  0  0  0  0  0  0  0  0  0
   38.3500   21.6740   34.2560 H   0  0  0  0  0  0  0  0  0  0  0  0
   37.5060   23.5670   32.7240 H   0  0  0  0  0  0  0  0  0  0  0  0
   40.2750   24.1510   34.1720 H   0  0  0  0  0  0  0  0  0  0  0  0
   39.8980   22.8900   32.7770 H   0  0  0  0  0  0  0  0  0  0  0  0
   38.6940   22.9560   35.9710 C   0  0  0  0  0  0  0  0  0  0  0  0
   39.9140   22.5350   36.5010 C   0  0  0  0  0  0  0  0  0  0  0  0
   40.0440   22.7140   37.8750 C   0  0  0  0  0  0  0  0  0  0  0  0
   39.0220   23.2670   38.6200 N   0  0  0  0  0  0  0  0  0  0  0  0
   37.8620   23.6530   38.0450 C   0  0  0  0  0  0  0  0  0  0  0  0
   37.6930   23.4970   36.6970 N   0  0  0  0  0  0  0  0  0  0  0  0
   40.6830   22.1120   35.8980 H   0  0  0  0  0  0  0  0  0  0  0  0
   40.9600   22.4160   38.3700 H   0  0  0  0  0  0  0  0  0  0  0  0
   37.1100   24.0780   38.6950 H   0  0  0  0  0  0  0  0  0  0  0  0
   37.7990   25.0840   34.1730 O   0  0  0  0  0  0  0  0  0  0  0  0
   37.5120   27.4470   35.6060 F   0  0  0  0  0  0  0  0  0  0  0  0
   37.0400   27.2940   34.3300 C   0  0  0  0  0  0  0  0  0  0  0  0
   37.1620   26.1310   33.5770 C   0  0  0  0  0  0  0  0  0  0  0  0
   36.6280   26.1450   32.2970 C   0  0  0  0  0  0  0  0  0  0  0  0
   36.7240   25.2400   31.7150 H   0  0  0  0  0  0  0  0  0  0  0  0
   35.9910   27.2200   31.7260 C   0  0  0  0  0  0  0  0  0  0  0  0
   35.6040   27.1320   30.7080 H   0  0  0  0  0  0  0  0  0  0  0  0
   35.8950   28.3470   32.5050 C   0  0  0  0  0  3  0  0  0  0  0  0
   36.4030   28.3930   33.7750 C   0  0  0  0  0  3  0  0  0  0  0  0
  1  4  1  6  0  0  0
  1  8  1  0  0  0  0
  2  5  1  6  0  0  0
  2  3  1  0  0  0  0
  2 17  1  0  0  0  0
  2  1  1  0  0  0  0
  3  6  1  0  0  0  0
  3  1  1  0  0  0  0
  7  3  1  0  0  0  0
  8  9  2  0  0  0  0
  8 13  1  0  0  0  0
  9 10  1  0  0  0  0
 10 15  1  0  0  0  0
 10 11  2  0  0  0  0
 12 11  1  0  0  0  0
 12 16  1  0  0  0  0
 13 12  2  0  0  0  0
 14  9  1  0  0  0  0
 19 18  1  0  0  0  0
 20 17  1  0  0  0  0
 20 19  2  0  0  0  0
 21 20  1  0  0  0  0
 22 21  1  0  0  0  0
 23 21  2  0  0  0  0
 23 25  1  0  0  0  0
 24 23  1  0  0  0  0
 25 26  2  0  0  0  0
 26 19  1  0  0  0  0
M  END
>  <minimizedAffinity>
-4.55584335

$$$$

 OpenBabel03272507173D

 26 28  0  0  1  0  0  0  0  0999 V2000
   39.3930   22.9690   36.0890 C   0  0  1  0  0  0  0  0  0  0  0  0
   38.5500   22.0330   35.3810 C   0  0  2  0  0  0  0  0  0  0  0  0
   39.9850   22.1780   34.9150 C   0  0  0  0  0  0  0  0  0  0  0  0
   39.8570   22.7790   37.0820 H   0  0  0  0  0  0  0  0  0  0  0  0
   38.2460   21.1210   35.9420 H   0  0  0  0  0  0  0  0  0  0  0  0
   40.1590   22.7060   33.9590 H   0  0  0  0  0  0  0  0  0  0  0  0
   40.6170   21.3440   35.2300 H   0  0  0  0  0  0  0  0  0  0  0  0
   39.3360   24.4560   35.8090 C   0  0  0  0  0  0  0  0  0  0  0  0
   38.2690   25.1510   36.3790 C   0  0  0  0  0  0  0  0  0  0  0  0
   38.2340   26.5100   36.0790 C   0  0  0  0  0  0  0  0  0  0  0  0
   39.1970   27.0850   35.2760 N   0  0  0  0  0  0  0  0  0  0  0  0
   40.2060   26.3550   34.7550 C   0  0  0  0  0  0  0  0  0  0  0  0
   40.2800   25.0170   35.0250 N   0  0  0  0  0  0  0  0  0  0  0  0
   37.5410   24.6760   36.9940 H   0  0  0  0  0  0  0  0  0  0  0  0
   37.4390   27.1270   36.4800 H   0  0  0  0  0  0  0  0  0  0  0  0
   40.9230   26.8780   34.1370 H   0  0  0  0  0  0  0  0  0  0  0  0
   37.5760   22.5200   34.5000 O   0  0  0  0  0  0  0  0  0  0  0  0
   35.6010   20.6580   35.0970 F   0  0  0  0  0  0  0  0  0  0  0  0
   35.9910   20.9370   33.8150 C   0  0  0  0  0  0  0  0  0  0  0  0
   36.9730   21.8600   33.4710 C   0  0  0  0  0  0  0  0  0  0  0  0
   37.2460   22.0230   32.1210 C   0  0  0  0  0  0  0  0  0  0  0  0
   38.0090   22.7400   31.8570 H   0  0  0  0  0  0  0  0  0  0  0  0
   36.6180   21.3410   31.1070 C   0  0  0  0  0  0  0  0  0  0  0  0
   36.9040   21.5410   30.0720 H   0  0  0  0  0  0  0  0  0  0  0  0
   35.6540   20.4400   31.4920 C   0  0  0  0  0  3  0  0  0  0  0  0
   35.3420   20.2370   32.8090 C   0  0  0  0  0  3  0  0  0  0  0  0
  1  4  1  1  0  0  0
  2  5  1  1  0  0  0
  2  1  1  0  0  0  0
  3  7  1  0  0  0  0
  3  2  1  0  0  0  0
  3  1  1  0  0  0  0
  6  3  1  0  0  0  0
  8  1  1  0  0  0  0
  8  9  1  0  0  0  0
  9 14  1  0  0  0  0
 10  9  2  0  0  0  0
 10 15  1  0  0  0  0
 11 10  1  0  0  0  0
 12 13  1  0  0  0  0
 12 11  2  0  0  0  0
 13  8  2  0  0  0  0
 16 12  1  0  0  0  0
 17  2  1  0  0  0  0
 19 18  1  0  0  0  0
 20 19  1  0  0  0  0
 20 17  1  0  0  0  0
 21 20  2  0  0  0  0
 22 21  1  0  0  0  0
 23 25  2  0  0  0  0
 23 21  1  0  0  0  0
 24 23  1  0  0  0  0
 25 26  1  0  0  0  0
 26 19  2  0  0  0  0
M  END
>  <minimizedAffinity>
-4.55567932

$$$$

 OpenBabel03272507173D

 26 28  0  0  1  0  0  0  0  0999 V2000
   39.4350   26.1220   35.3950 C   0  0  1  0  0  0  0  0  0  0  0  0
   38.9460   27.1440   34.5000 C   0  0  2  0  0  0  0  0  0  0  0  0
   38.5640   27.2500   35.9620 C   0  0  0  0  0  0  0  0  0  0  0  0
   40.4720   26.0670   35.7910 H   0  0  0  0  0  0  0  0  0  0  0  0
   39.7080   27.8380   34.0800 H   0  0  0  0  0  0  0  0  0  0  0  0
   37.5170   27.0230   36.2330 H   0  0  0  0  0  0  0  0  0  0  0  0
   39.1380   28.0140   36.4940 H   0  0  0  0  0  0  0  0  0  0  0  0
   38.7600   24.7700   35.4990 C   0  0  0  0  0  0  0  0  0  0  0  0
   38.2530   24.4260   36.7520 C   0  0  0  0  0  0  0  0  0  0  0  0
   37.6630   23.1680   36.8160 C   0  0  0  0  0  0  0  0  0  0  0  0
   37.6060   22.3520   35.7050 N   0  0  0  0  0  0  0  0  0  0  0  0
   38.1170   22.7440   34.5180 C   0  0  0  0  0  0  0  0  0  0  0  0
   38.7050   23.9740   34.4100 N   0  0  0  0  0  0  0  0  0  0  0  0
   38.3130   25.0800   37.5910 H   0  0  0  0  0  0  0  0  0  0  0  0
   37.2420   22.8190   37.7520 H   0  0  0  0  0  0  0  0  0  0  0  0
   38.0330   22.0500   33.6940 H   0  0  0  0  0  0  0  0  0  0  0  0
   37.8970   26.8420   33.6210 O   0  0  0  0  0  0  0  0  0  0  0  0
   35.8040   28.4250   34.5320 F   0  0  0  0  0  0  0  0  0  0  0  0
   36.2380   28.4490   33.2340 C   0  0  0  0  0  0  0  0  0  0  0  0
   37.2800   27.6740   32.7360 C   0  0  0  0  0  0  0  0  0  0  0  0
   37.5950   27.8210   31.3930 C   0  0  0  0  0  0  0  0  0  0  0  0
   38.4040   27.2190   31.0090 H   0  0  0  0  0  0  0  0  0  0  0  0
   36.9510   28.6720   30.5270 C   0  0  0  0  0  0  0  0  0  0  0  0
   37.2740   28.7160   29.4840 H   0  0  0  0  0  0  0  0  0  0  0  0
   35.9290   29.4180   31.0620 C   0  0  0  0  0  3  0  0  0  0  0  0
   35.5740   29.3160   32.3790 C   0  0  0  0  0  3  0  0  0  0  0  0
  1  8  1  0  0  0  0
  1  4  1  1  0  0  0
  1  3  1  0  0  0  0
  2  5  1  6  0  0  0
  2  1  1  0  0  0  0
  2  3  1  0  0  0  0
  3  6  1  0  0  0  0
  3  7  1  0  0  0  0
  8  9  1  0  0  0  0
  9 10  2  0  0  0  0
  9 14  1  0  0  0  0
 10 15  1  0  0  0  0
 11 10  1  0  0  0  0
 12 11  2  0  0  0  0
 13 12  1  0  0  0  0
 13  8  2  0  0  0  0
 16 12  1  0  0  0  0
 17  2  1  0  0  0  0
 19 18  1  0  0  0  0
 20 19  1  0  0  0  0
 20 17  1  0  0  0  0
 21 20  2  0  0  0  0
 22 21  1  0  0  0  0
 23 25  2  0  0  0  0
 23 21  1  0  0  0  0
 24 23  1  0  0  0  0
 25 26  1  0  0  0  0
 26 19  2  0  0  0  0
M  END
>  <minimizedAffinity>
-4.54957867

$$$$

 OpenBabel03272507173D

 26 28  0  0  1  0  0  0  0  0999 V2000
   39.1660   24.8770   34.4830 C   0  0  1  0  0  0  0  0  0  0  0  0
   38.9100   24.0970   33.2960 C   0  0  2  0  0  0  0  0  0  0  0  0
   37.8050   25.0090   33.7880 C   0  0  0  0  0  0  0  0  0  0  0  0
   39.7840   25.8010   34.5150 H   0  0  0  0  0  0  0  0  0  0  0  0
   39.4880   24.3770   32.3870 H   0  0  0  0  0  0  0  0  0  0  0  0
   36.9240   24.5350   34.2590 H   0  0  0  0  0  0  0  0  0  0  0  0
   37.7110   25.9200   33.1900 H   0  0  0  0  0  0  0  0  0  0  0  0
   39.0470   24.2750   35.8680 C   0  0  0  0  0  0  0  0  0  0  0  0
   40.0400   23.3650   36.2340 C   0  0  0  0  0  0  0  0  0  0  0  0
   39.8830   22.8130   37.5010 C   0  0  0  0  0  0  0  0  0  0  0  0
   38.8160   23.1630   38.3030 N   0  0  0  0  0  0  0  0  0  0  0  0
   37.8880   24.0520   37.8890 C   0  0  0  0  0  0  0  0  0  0  0  0
   38.0030   24.6200   36.6500 N   0  0  0  0  0  0  0  0  0  0  0  0
   40.8510   23.1160   35.5900 H   0  0  0  0  0  0  0  0  0  0  0  0
   40.6090   22.0960   37.8670 H   0  0  0  0  0  0  0  0  0  0  0  0
   37.0820   24.2750   38.5740 H   0  0  0  0  0  0  0  0  0  0  0  0
   38.6600   22.7230   33.4180 O   0  0  0  0  0  0  0  0  0  0  0  0
   37.2860   21.4850   35.4900 F   0  0  0  0  0  0  0  0  0  0  0  0
   36.8550   21.4470   34.1920 C   0  0  0  0  0  0  0  0  0  0  0  0
   37.5120   22.0520   33.1240 C   0  0  0  0  0  0  0  0  0  0  0  0
   36.9380   21.9180   31.8690 C   0  0  0  0  0  0  0  0  0  0  0  0
   37.4500   22.3880   31.0420 H   0  0  0  0  0  0  0  0  0  0  0  0
   35.7760   21.2320   31.6070 C   0  0  0  0  0  0  0  0  0  0  0  0
   35.4040   21.1840   30.5810 H   0  0  0  0  0  0  0  0  0  0  0  0
   35.1620   20.6520   32.6910 C   0  0  0  0  0  3  0  0  0  0  0  0
   35.6800   20.7510   33.9530 C   0  0  0  0  0  3  0  0  0  0  0  0
  1  4  1  6  0  0  0
  1  8  1  0  0  0  0
  2  5  1  6  0  0  0
  2 17  1  0  0  0  0
  2  3  1  0  0  0  0
  2  1  1  0  0  0  0
  3  6  1  0  0  0  0
  3  1  1  0  0  0  0
  7  3  1  0  0  0  0
  8  9  2  0  0  0  0
  8 13  1  0  0  0  0
  9 10  1  0  0  0  0
 10 15  1  0  0  0  0
 10 11  2  0  0  0  0
 12 11  1  0  0  0  0
 12 16  1  0  0  0  0
 13 12  2  0  0  0  0
 14  9  1  0  0  0  0
 19 18  1  0  0  0  0
 20 17  1  0  0  0  0
 20 19  2  0  0  0  0
 21 20  1  0  0  0  0
 22 21  1  0  0  0  0
 23 21  2  0  0  0  0
 23 25  1  0  0  0  0
 24 23  1  0  0  0  0
 25 26  2  0  0  0  0
 26 19  1  0  0  0  0
M  END
>  <minimizedAffinity>
-4.52940702

$$$$

 OpenBabel03272507173D

 26 28  0  0  1  0  0  0  0  0999 V2000
   38.0920   27.3440   34.4700 C   0  0  1  0  0  0  0  0  0  0  0  0
   37.3980   26.3630   35.2720 C   0  0  2  0  0  0  0  0  0  0  0  0
   38.3750   27.2820   35.9770 C   0  0  0  0  0  0  0  0  0  0  0  0
   37.6450   28.2930   34.1010 H   0  0  0  0  0  0  0  0  0  0  0  0
   36.3040   26.5190   35.4050 H   0  0  0  0  0  0  0  0  0  0  0  0
   39.3320   26.8450   36.3160 H   0  0  0  0  0  0  0  0  0  0  0  0
   37.8760   28.0740   36.5430 H   0  0  0  0  0  0  0  0  0  0  0  0
   39.3060   26.9760   33.6430 C   0  0  0  0  0  0  0  0  0  0  0  0
   39.0540   26.4610   32.3710 C   0  0  0  0  0  0  0  0  0  0  0  0
   40.1920   26.1100   31.6500 C   0  0  0  0  0  0  0  0  0  0  0  0
   41.4520   26.2720   32.1880 N   0  0  0  0  0  0  0  0  0  0  0  0
   41.6280   26.7760   33.4280 C   0  0  0  0  0  0  0  0  0  0  0  0
   40.5380   27.1360   34.1710 N   0  0  0  0  0  0  0  0  0  0  0  0
   38.0680   26.3490   31.9850 H   0  0  0  0  0  0  0  0  0  0  0  0
   40.0890   25.7020   30.6510 H   0  0  0  0  0  0  0  0  0  0  0  0
   42.6460   26.8740   33.7790 H   0  0  0  0  0  0  0  0  0  0  0  0
   37.7820   25.0180   35.1940 O   0  0  0  0  0  0  0  0  0  0  0  0
   40.2010   23.8770   34.4410 F   0  0  0  0  0  0  0  0  0  0  0  0
   39.6770   23.7360   35.6970 C   0  0  0  0  0  0  0  0  0  0  0  0
   38.4710   24.2890   36.1160 C   0  0  0  0  0  0  0  0  0  0  0  0
   38.0850   24.0500   37.4270 C   0  0  0  0  0  0  0  0  0  0  0  0
   37.1490   24.4800   37.7490 H   0  0  0  0  0  0  0  0  0  0  0  0
   38.8050   23.3090   38.3330 C   0  0  0  0  0  0  0  0  0  0  0  0
   38.4150   23.1780   39.3450 H   0  0  0  0  0  0  0  0  0  0  0  0
   39.9890   22.7830   37.8760 C   0  0  0  0  0  3  0  0  0  0  0  0
   40.4220   22.9850   36.5930 C   0  0  0  0  0  3  0  0  0  0  0  0
  1  4  1  6  0  0  0
  1  2  1  0  0  0  0
  1  3  1  0  0  0  0
  2  5  1  1  0  0  0
  2  3  1  0  0  0  0
  3  6  1  0  0  0  0
  3  7  1  0  0  0  0
  8 13  1  0  0  0  0
  8  1  1  0  0  0  0
  9  8  2  0  0  0  0
 10 11  2  0  0  0  0
 10  9  1  0  0  0  0
 11 12  1  0  0  0  0
 12 16  1  0  0  0  0
 12 13  2  0  0  0  0
 14  9  1  0  0  0  0
 15 10  1  0  0  0  0
 17  2  1  0  0  0  0
 17 20  1  0  0  0  0
 18 19  1  0  0  0  0
 19 20  2  0  0  0  0
 19 26  1  0  0  0  0
 20 21  1  0  0  0  0
 21 22  1  0  0  0  0
 21 23  2  0  0  0  0
 23 24  1  0  0  0  0
 25 23  1  0  0  0  0
 26 25  2  0  0  0  0
M  END
>  <minimizedAffinity>
-4.51097441

$$$$
