
 OpenBabel03272509423D

 38 40  0  0  1  0  0  0  0  0999 V2000
   37.1240   30.9120   49.0650 C   0  0  0  0  0  0  0  0  0  0  0  0
   36.8620   31.8730   50.0440 C   0  0  0  0  0  0  0  0  0  0  0  0
   37.4320   33.1340   50.0020 C   0  0  0  0  0  0  0  0  0  0  0  0
   38.2960   33.4630   48.9510 C   0  0  0  0  0  0  0  0  0  0  0  0
   38.5450   32.5150   48.0000 C   0  0  0  0  0  0  0  0  0  0  0  0
   37.9550   31.2610   48.0760 C   0  0  0  0  0  0  0  0  0  0  0  0
   36.1880   31.6110   50.8590 H   0  0  0  0  0  0  0  0  0  0  0  0
   37.1730   33.8000   50.7940 H   0  0  0  0  0  0  0  0  0  0  0  0
   38.6820   34.4520   49.0070 H   0  0  0  0  0  0  0  0  0  0  0  0
   39.2310   32.9160   47.2560 H   0  0  0  0  0  0  0  0  0  0  0  0
   36.5550   29.5830   49.1270 C   0  0  2  0  0  0  0  0  0  0  0  0
   37.0330   29.0070   48.2450 H   0  0  0  0  0  0  0  0  0  0  0  0
   33.6360   29.7680   46.9700 C   0  0  0  0  0  0  0  0  0  0  0  0
   32.9000   28.6450   47.3050 C   0  0  0  0  0  0  0  0  0  0  0  0
   33.3710   27.8400   48.3250 C   0  0  0  0  0  0  0  0  0  0  0  0
   34.5420   28.1770   48.9650 N   0  0  0  0  0  0  0  0  0  0  0  0
   35.1990   29.2580   48.5990 C   0  0  0  0  0  0  0  0  0  0  0  0
   34.7540   30.0600   47.6040 N   0  0  0  0  0  0  0  0  0  0  0  0
   33.2340   30.3730   46.1650 H   0  0  0  0  0  0  0  0  0  0  0  0
   31.9810   28.3030   46.8650 H   0  0  0  0  0  0  0  0  0  0  0  0
   32.9250   26.9240   48.7230 H   0  0  0  0  0  0  0  0  0  0  0  0
   37.0640   28.8730   50.0690 O   0  0  0  0  0  0  0  0  0  0  0  0
   36.8710   29.0330   51.0210 H   0  0  0  0  0  0  0  0  0  0  0  0
   38.3290   30.3450   47.0230 C   0  0  0  0  0  3  0  0  0  0  0  0
   38.6660   30.7280   45.7870 C   0  0  0  0  0  3  0  0  0  0  0  0
   39.1050   29.8840   44.6510 C   0  0  0  0  0  0  0  0  0  0  0  0
   38.5260   28.9520   44.5480 H   0  0  0  0  0  0  0  0  0  0  0  0
   40.1680   29.5510   44.8350 H   0  0  0  0  0  0  0  0  0  0  0  0
   39.1200   30.8620   43.1450 S   0  0  0  0  0  0  0  0  0  0  0  0
   41.7700   29.7080   42.7740 F   0  0  0  0  0  0  0  0  0  0  0  0
   40.8860   29.4030   41.8100 C   0  0  0  0  0  0  0  0  0  0  0  0
   39.5560   29.8310   41.7560 C   0  0  0  0  0  0  0  0  0  0  0  0
   38.7540   29.4420   40.7040 C   0  0  0  0  0  0  0  0  0  0  0  0
   37.7560   29.8230   40.7590 H   0  0  0  0  0  0  0  0  0  0  0  0
   39.2710   28.6340   39.7130 C   0  0  0  0  0  0  0  0  0  0  0  0
   38.6320   28.3480   38.9130 H   0  0  0  0  0  0  0  0  0  0  0  0
   40.5970   28.1920   39.7440 C   0  0  0  0  0  3  0  0  0  0  0  0
   41.3830   28.5880   40.7970 C   0  0  0  0  0  3  0  0  0  0  0  0
  1 11  1  0  0  0  0
  1  2  1  0  0  0  0
  2  7  1  0  0  0  0
  3  2  2  0  0  0  0
  3  8  1  0  0  0  0
  4  9  1  0  0  0  0
  4  3  1  0  0  0  0
  5  6  1  0  0  0  0
  5  4  2  0  0  0  0
  6  1  2  0  0  0  0
 10  5  1  0  0  0  0
 11 12  1  6  0  0  0
 11 22  1  0  0  0  0
 13 14  2  0  0  0  0
 13 18  1  0  0  0  0
 14 15  1  0  0  0  0
 15 21  1  0  0  0  0
 15 16  2  0  0  0  0
 17 16  1  0  0  0  0
 17 11  1  0  0  0  0
 18 17  2  0  0  0  0
 19 13  1  0  0  0  0
 20 14  1  0  0  0  0
 22 23  1  0  0  0  0
 24  6  1  0  0  0  0
 25 24  2  0  0  0  0
 26 28  1  0  0  0  0
 26 25  1  0  0  0  0
 27 26  1  0  0  0  0
 29 26  1  0  0  0  0
 31 30  1  0  0  0  0
 32 31  1  0  0  0  0
 32 29  1  0  0  0  0
 33 34  1  0  0  0  0
 33 32  2  0  0  0  0
 35 37  2  0  0  0  0
 35 33  1  0  0  0  0
 36 35  1  0  0  0  0
 37 38  1  0  0  0  0
 38 31  2  0  0  0  0
M  END
>  <minimizedAffinity>
-5.78587723

>  <minimizedRMSD>
0.463326782

$$$$
