
 OpenBabel03262521523D

 23 24  0  0  0  0  0  0  0  0999 V2000
   35.6440   29.4550   50.7310 C   0  0  0  0  0  0  0  0  0  0  0  0
   35.5900   29.9660   51.7330 H   0  0  0  0  0  0  0  0  0  0  0  0
   35.0770   28.4990   50.9030 H   0  0  0  0  0  0  0  0  0  0  0  0
   37.3420   29.1690   50.2530 S   0  0  0  0  0  0  0  0  0  0  0  0
   37.9110   30.5510   49.2710 C   0  0  0  0  0  0  0  0  0  0  0  0
   38.2090   31.6890   49.9980 C   0  0  0  0  0  0  0  0  0  0  0  0
   38.6580   32.7950   49.2770 C   0  0  0  0  0  0  0  0  0  0  0  0
   38.7850   32.7240   47.9090 N   0  0  0  0  0  0  0  0  0  0  0  0
   38.4690   31.5660   47.2770 C   0  0  0  0  0  0  0  0  0  0  0  0
   38.0450   30.5090   47.9350 N   0  0  0  0  0  0  0  0  0  0  0  0
   38.1230   31.7840   51.0750 H   0  0  0  0  0  0  0  0  0  0  0  0
   38.9130   33.7260   49.7690 H   0  0  0  0  0  0  0  0  0  0  0  0
   38.5450   31.4340   46.1990 H   0  0  0  0  0  0  0  0  0  0  0  0
   34.7320   30.4670   49.5360 S   0  0  0  0  0  0  0  0  0  0  0  0
   32.9830   28.0880   49.3990 F   0  0  0  0  0  0  0  0  0  0  0  0
   33.5260   28.4960   48.2080 C   0  0  0  0  0  0  0  0  0  0  0  0
   34.3720   29.5860   48.0440 C   0  0  0  0  0  0  0  0  0  0  0  0
   34.8350   29.8670   46.7740 C   0  0  0  0  0  0  0  0  0  0  0  0
   35.4980   30.7450   46.7310 H   0  0  0  0  0  0  0  0  0  0  0  0
   34.4830   29.1040   45.6840 C   0  0  0  0  0  0  0  0  0  0  0  0
   34.8760   29.3720   44.7140 H   0  0  0  0  0  0  0  0  0  0  0  0
   33.6400   28.0280   45.8790 C   0  0  0  0  0  0  0  0  0  0  0  0
   33.1450   27.7020   47.1460 C   0  0  0  0  0  0  0  0  0  0  0  0
  1  3  1  0  0  0  0
  1  2  1  0  0  0  0
  4  1  1  0  0  0  0
  5  6  1  0  0  0  0
  5  4  1  0  0  0  0
  6 11  1  0  0  0  0
  7 12  1  0  0  0  0
  7  6  2  0  0  0  0
  8  7  1  0  0  0  0
  9  8  2  0  0  0  0
  9 10  1  0  0  0  0
 10  5  2  0  0  0  0
 13  9  1  0  0  0  0
 14  1  1  0  0  0  0
 16 15  1  0  0  0  0
 17 16  1  0  0  0  0
 17 14  1  0  0  0  0
 18 17  2  0  0  0  0
 19 18  1  0  0  0  0
 20 22  2  0  0  0  0
 20 18  1  0  0  0  0
 21 20  1  0  0  0  0
 22 23  1  0  0  0  0
 23 16  2  0  0  0  0
M  END
>  <minimizedAffinity>
-4.38446474

>  <minimizedRMSD>
2.70310187

$$$$
