
 OpenBabel03272510113D

 35 38  0  0  0  0  0  0  0  0999 V2000
   33.0480   28.2940   48.9700 C   0  0  0  0  0  0  0  0  0  0  0  0
   33.4730   28.8960   50.1010 C   0  0  0  0  0  0  0  0  0  0  0  0
   34.7480   29.3440   50.3200 C   0  0  0  0  0  0  0  0  0  0  0  0
   35.7010   29.2000   49.3670 C   0  0  0  0  0  0  0  0  0  0  0  0
   35.2790   28.5760   48.1820 C   0  0  0  0  0  0  0  0  0  0  0  0
   34.0120   28.1520   48.0150 N   0  0  0  0  0  0  0  0  0  0  0  0
   32.7790   29.0520   50.9160 H   0  0  0  0  0  0  0  0  0  0  0  0
   35.0740   29.8290   51.2390 H   0  0  0  0  0  0  0  0  0  0  0  0
   35.9320   28.3970   47.3410 H   0  0  0  0  0  0  0  0  0  0  0  0
   30.6640   27.9580   49.6500 C   0  0  0  0  0  0  0  0  0  0  0  0
   31.7140   27.8180   48.7280 C   0  0  0  0  0  0  0  0  0  0  0  0
   31.4050   27.1870   47.5410 C   0  0  0  0  0  0  0  0  0  0  0  0
   30.1370   26.7370   47.3140 N   0  0  0  0  0  0  0  0  0  0  0  0
   29.1740   26.9020   48.2400 C   0  0  0  0  0  0  0  0  0  0  0  0
   29.4220   27.5160   49.4230 N   0  0  0  0  0  0  0  0  0  0  0  0
   30.8630   28.4500   50.5980 H   0  0  0  0  0  0  0  0  0  0  0  0
   32.1920   27.0660   46.8140 H   0  0  0  0  0  0  0  0  0  0  0  0
   28.2310   26.4930   47.9090 H   0  0  0  0  0  0  0  0  0  0  0  0
   37.0410   29.5970   49.4230 O   0  0  0  0  0  0  0  0  0  0  0  0
   37.5440   30.5740   48.5770 C   0  0  0  0  0  0  0  0  0  0  0  0
   37.9110   31.7660   49.2070 C   0  0  0  0  0  0  0  0  0  0  0  0
   38.3920   32.6330   48.2330 C   0  0  0  0  0  0  0  0  0  0  0  0
   38.3010   31.9570   47.0810 N   0  0  0  0  0  0  0  0  0  0  0  0
   37.8090   30.7580   47.2710 N   0  0  0  0  0  0  0  0  0  0  0  0
   37.8940   32.1170   50.2390 H   0  0  0  0  0  0  0  0  0  0  0  0
   38.7770   33.6440   48.2700 H   0  0  0  0  0  0  0  0  0  0  0  0
   40.6640   33.3110   46.5280 F   0  0  0  0  0  0  0  0  0  0  0  0
   39.8320   33.0430   45.4900 C   0  0  0  0  0  0  0  0  0  0  0  0
   38.6600   32.3730   45.7500 C   0  0  0  0  0  0  0  0  0  0  0  0
   37.8000   32.0920   44.7060 C   0  0  0  0  0  0  0  0  0  0  0  0
   36.8590   31.5700   44.8230 H   0  0  0  0  0  0  0  0  0  0  0  0
   38.1460   32.4920   43.4320 C   0  0  0  0  0  0  0  0  0  0  0  0
   37.4750   32.2750   42.5950 H   0  0  0  0  0  0  0  0  0  0  0  0
   39.3080   33.1620   43.1330 C   0  0  0  0  0  3  0  0  0  0  0  0
   40.1450   33.4290   44.1920 C   0  0  0  0  0  3  0  0  0  0  0  0
  1  2  1  0  0  0  0
  2  3  2  0  0  0  0
  2  7  1  0  0  0  0
  3  8  1  0  0  0  0
  4 19  1  0  0  0  0
  4  3  1  0  0  0  0
  5  4  2  0  0  0  0
  6  5  1  0  0  0  0
  6  1  2  0  0  0  0
  9  5  1  0  0  0  0
 10 16  1  0  0  0  0
 11  1  1  0  0  0  0
 11 10  2  0  0  0  0
 12 11  1  0  0  0  0
 13 12  2  0  0  0  0
 13 14  1  0  0  0  0
 14 15  2  0  0  0  0
 15 10  1  0  0  0  0
 17 12  1  0  0  0  0
 18 14  1  0  0  0  0
 20 21  1  0  0  0  0
 20 19  1  0  0  0  0
 21 25  1  0  0  0  0
 22 26  1  0  0  0  0
 22 21  2  0  0  0  0
 23 24  1  0  0  0  0
 23 22  1  0  0  0  0
 24 20  2  0  0  0  0
 28 29  1  0  0  0  0
 28 27  1  0  0  0  0
 29 23  1  0  0  0  0
 30 31  1  0  0  0  0
 30 29  2  0  0  0  0
 32 30  1  0  0  0  0
 33 32  1  0  0  0  0
 34 32  2  0  0  0  0
 34 35  1  0  0  0  0
 35 28  2  0  0  0  0
M  END
>  <minimizedAffinity>
-6.03827858

>  <minimizedRMSD>
1.86298025

$$$$
