
 OpenBabel03272508033D

 28 30  0  0  0  0  0  0  0  0999 V2000
   37.4970   26.4790   34.2920 C   0  0  0  0  0  0  0  0  0  0  0  0
   37.6060   26.8450   32.9690 C   0  0  0  0  0  0  0  0  0  0  0  0
   36.8360   28.0010   32.7440 C   0  0  0  0  0  0  0  0  0  0  0  0
   36.2920   28.2810   33.9640 N   0  0  0  0  0  0  0  0  0  0  0  0
   36.6810   27.3950   34.8510 N   0  0  0  0  0  0  0  0  0  0  0  0
   38.2040   26.2900   32.2590 H   0  0  0  0  0  0  0  0  0  0  0  0
   36.7620   28.4810   31.7790 H   0  0  0  0  0  0  0  0  0  0  0  0
   36.5890   30.4100   35.8020 F   0  0  0  0  0  0  0  0  0  0  0  0
   35.5590   30.4740   34.9450 C   0  0  0  0  0  0  0  0  0  0  0  0
   35.4450   29.4190   34.0640 C   0  0  0  0  0  0  0  0  0  0  0  0
   34.4030   29.3980   33.1340 C   0  0  0  0  0  0  0  0  0  0  0  0
   34.2140   28.6450   32.4090 H   0  0  0  0  0  0  0  0  0  0  0  0
   33.5090   30.4620   33.1370 C   0  0  0  0  0  0  0  0  0  0  0  0
   32.6790   30.4980   32.4360 H   0  0  0  0  0  0  0  0  0  0  0  0
   33.5990   31.5420   34.0180 C   0  0  0  0  0  3  0  0  0  0  0  0
   34.6480   31.5130   34.9170 C   0  0  0  0  0  3  0  0  0  0  0  0
   38.1270   25.3490   34.9490 C   0  0  0  0  0  0  0  0  0  0  0  0
   37.8950   25.1650   36.3310 C   0  0  0  0  0  0  0  0  0  0  0  0
   38.4980   24.0770   36.9760 C   0  0  0  0  0  0  0  0  0  0  0  0
   39.2760   23.2610   36.2150 N   0  0  0  0  0  0  0  0  0  0  0  0
   39.4880   23.4470   34.9000 C   0  0  0  0  0  0  0  0  0  0  0  0
   38.9060   24.4930   34.2910 N   0  0  0  0  0  0  0  0  0  0  0  0
   37.2660   25.8510   36.8780 H   0  0  0  0  0  0  0  0  0  0  0  0
   40.1270   22.7330   34.3940 H   0  0  0  0  0  0  0  0  0  0  0  0
   38.2590   23.8780   38.4270 C   0  0  0  0  0  0  0  0  0  0  0  0
   39.4520   23.4370   38.9420 F   0  0  0  0  0  0  0  0  0  0  0  0
   37.9180   25.0630   39.0670 F   0  0  0  0  0  0  0  0  0  0  0  0
   37.2980   22.9140   38.6700 F   0  0  0  0  0  0  0  0  0  0  0  0
  1  5  2  0  0  0  0
  1 17  1  0  0  0  0
  2  1  1  0  0  0  0
  3  2  2  0  0  0  0
  3  4  1  0  0  0  0
  4 10  1  0  0  0  0
  4  5  1  0  0  0  0
  6  2  1  0  0  0  0
  7  3  1  0  0  0  0
  9  8  1  0  0  0  0
 10  9  2  0  0  0  0
 11 13  2  0  0  0  0
 11 10  1  0  0  0  0
 12 11  1  0  0  0  0
 13 15  1  0  0  0  0
 14 13  1  0  0  0  0
 15 16  2  0  0  0  0
 16  9  1  0  0  0  0
 17 18  1  0  0  0  0
 18 23  1  0  0  0  0
 18 19  2  0  0  0  0
 19 25  1  0  0  0  0
 20 19  1  0  0  0  0
 21 20  2  0  0  0  0
 22 21  1  0  0  0  0
 22 17  2  0  0  0  0
 24 21  1  0  0  0  0
 25 28  1  0  0  0  0
 25 26  1  0  0  0  0
 25 27  1  0  0  0  0
M  END
>  <minimizedAffinity>
-6.11902046

$$$$

 OpenBabel03272508033D

 28 30  0  0  0  0  0  0  0  0999 V2000
   37.7410   25.1430   33.7870 C   0  0  0  0  0  0  0  0  0  0  0  0
   37.2360   24.8390   32.5430 C   0  0  0  0  0  0  0  0  0  0  0  0
   36.7460   26.0140   31.9430 C   0  0  0  0  0  0  0  0  0  0  0  0
   36.9830   26.9860   32.8710 N   0  0  0  0  0  0  0  0  0  0  0  0
   37.5580   26.4710   33.9330 N   0  0  0  0  0  0  0  0  0  0  0  0
   37.2420   23.8350   32.1410 H   0  0  0  0  0  0  0  0  0  0  0  0
   36.2990   26.0310   30.9590 H   0  0  0  0  0  0  0  0  0  0  0  0
   35.4110   28.6840   34.4970 F   0  0  0  0  0  0  0  0  0  0  0  0
   35.8270   29.1700   33.3180 C   0  0  0  0  0  0  0  0  0  0  0  0
   36.5910   28.3150   32.5520 C   0  0  0  0  0  0  0  0  0  0  0  0
   37.0690   28.7320   31.3080 C   0  0  0  0  0  0  0  0  0  0  0  0
   37.6630   28.1680   30.6330 H   0  0  0  0  0  0  0  0  0  0  0  0
   36.7480   30.0180   30.8880 C   0  0  0  0  0  0  0  0  0  0  0  0
   37.0930   30.3970   29.9300 H   0  0  0  0  0  0  0  0  0  0  0  0
   35.9760   30.9050   31.6430 C   0  0  0  0  0  3  0  0  0  0  0  0
   35.5290   30.4410   32.8650 C   0  0  0  0  0  3  0  0  0  0  0  0
   38.3420   24.2300   34.7420 C   0  0  0  0  0  0  0  0  0  0  0  0
   38.0410   24.4030   36.1120 C   0  0  0  0  0  0  0  0  0  0  0  0
   38.6170   23.5280   37.0430 C   0  0  0  0  0  0  0  0  0  0  0  0
   39.4370   22.5580   36.5550 N   0  0  0  0  0  0  0  0  0  0  0  0
   39.7140   22.4040   35.2480 C   0  0  0  0  0  0  0  0  0  0  0  0
   39.1570   23.2490   34.3640 N   0  0  0  0  0  0  0  0  0  0  0  0
   37.3820   25.1950   36.4330 H   0  0  0  0  0  0  0  0  0  0  0  0
   40.3800   21.5960   34.9730 H   0  0  0  0  0  0  0  0  0  0  0  0
   38.3060   23.7030   38.4830 C   0  0  0  0  0  0  0  0  0  0  0  0
   39.4700   23.4170   39.1520 F   0  0  0  0  0  0  0  0  0  0  0  0
   37.9410   25.0100   38.7830 F   0  0  0  0  0  0  0  0  0  0  0  0
   37.3290   22.8270   38.9170 F   0  0  0  0  0  0  0  0  0  0  0  0
  1  5  2  0  0  0  0
  1 17  1  0  0  0  0
  2  1  1  0  0  0  0
  3  2  2  0  0  0  0
  3  4  1  0  0  0  0
  4  5  1  0  0  0  0
  6  2  1  0  0  0  0
  7  3  1  0  0  0  0
  9  8  1  0  0  0  0
 10  4  1  0  0  0  0
 10  9  2  0  0  0  0
 11 10  1  0  0  0  0
 12 11  1  0  0  0  0
 13 11  2  0  0  0  0
 13 15  1  0  0  0  0
 14 13  1  0  0  0  0
 15 16  2  0  0  0  0
 16  9  1  0  0  0  0
 17 18  1  0  0  0  0
 18 23  1  0  0  0  0
 18 19  2  0  0  0  0
 19 25  1  0  0  0  0
 20 19  1  0  0  0  0
 21 20  2  0  0  0  0
 22 17  2  0  0  0  0
 22 21  1  0  0  0  0
 24 21  1  0  0  0  0
 25 27  1  0  0  0  0
 25 28  1  0  0  0  0
 25 26  1  0  0  0  0
M  END
>  <minimizedAffinity>
-5.9746232

$$$$

 OpenBabel03272508033D

 28 30  0  0  0  0  0  0  0  0999 V2000
   37.4090   26.4750   34.2960 C   0  0  0  0  0  0  0  0  0  0  0  0
   37.5370   26.8840   32.9880 C   0  0  0  0  0  0  0  0  0  0  0  0
   36.7910   28.0620   32.7960 C   0  0  0  0  0  0  0  0  0  0  0  0
   36.2390   28.3090   34.0200 N   0  0  0  0  0  0  0  0  0  0  0  0
   36.6030   27.3860   34.8800 N   0  0  0  0  0  0  0  0  0  0  0  0
   38.1330   26.3440   32.2650 H   0  0  0  0  0  0  0  0  0  0  0  0
   36.7350   28.5760   31.8480 H   0  0  0  0  0  0  0  0  0  0  0  0
   33.7790   28.7380   32.6910 F   0  0  0  0  0  0  0  0  0  0  0  0
   34.2090   29.7010   33.5220 C   0  0  0  0  0  0  0  0  0  0  0  0
   35.4110   29.4580   34.1510 C   0  0  0  0  0  0  0  0  0  0  0  0
   35.9390   30.4030   35.0340 C   0  0  0  0  0  0  0  0  0  0  0  0
   36.8500   30.3280   35.5750 H   0  0  0  0  0  0  0  0  0  0  0  0
   35.2150   31.5710   35.2430 C   0  0  0  0  0  0  0  0  0  0  0  0
   35.5770   32.3410   35.9180 H   0  0  0  0  0  0  0  0  0  0  0  0
   33.9960   31.8430   34.6180 C   0  0  0  0  0  3  0  0  0  0  0  0
   33.5180   30.8750   33.7560 C   0  0  0  0  0  3  0  0  0  0  0  0
   38.0110   25.3110   34.9190 C   0  0  0  0  0  0  0  0  0  0  0  0
   37.8780   25.1580   36.3180 C   0  0  0  0  0  0  0  0  0  0  0  0
   38.4560   24.0380   36.9310 C   0  0  0  0  0  0  0  0  0  0  0  0
   39.1150   23.1630   36.1240 N   0  0  0  0  0  0  0  0  0  0  0  0
   39.2340   23.3200   34.7930 C   0  0  0  0  0  0  0  0  0  0  0  0
   38.6760   24.3980   34.2160 N   0  0  0  0  0  0  0  0  0  0  0  0
   37.3410   25.8900   36.9010 H   0  0  0  0  0  0  0  0  0  0  0  0
   39.7810   22.5600   34.2500 H   0  0  0  0  0  0  0  0  0  0  0  0
   38.3200   23.8700   38.3990 C   0  0  0  0  0  0  0  0  0  0  0  0
   37.3400   22.9250   38.5750 F   0  0  0  0  0  0  0  0  0  0  0  0
   39.4910   23.3980   38.9800 F   0  0  0  0  0  0  0  0  0  0  0  0
   37.9170   25.0360   39.0230 F   0  0  0  0  0  0  0  0  0  0  0  0
  1  5  2  0  0  0  0
  1 17  1  0  0  0  0
  2  1  1  0  0  0  0
  3  2  2  0  0  0  0
  3  4  1  0  0  0  0
  4 10  1  0  0  0  0
  4  5  1  0  0  0  0
  6  2  1  0  0  0  0
  7  3  1  0  0  0  0
  8  9  1  0  0  0  0
  9 16  2  0  0  0  0
  9 10  1  0  0  0  0
 10 11  2  0  0  0  0
 11 13  1  0  0  0  0
 11 12  1  0  0  0  0
 13 14  1  0  0  0  0
 15 13  2  0  0  0  0
 16 15  1  0  0  0  0
 17 18  1  0  0  0  0
 18 23  1  0  0  0  0
 18 19  2  0  0  0  0
 19 25  1  0  0  0  0
 20 19  1  0  0  0  0
 21 20  2  0  0  0  0
 22 21  1  0  0  0  0
 22 17  2  0  0  0  0
 24 21  1  0  0  0  0
 25 26  1  0  0  0  0
 25 27  1  0  0  0  0
 25 28  1  0  0  0  0
M  END
>  <minimizedAffinity>
-5.96087503

$$$$

 OpenBabel03272508033D

 28 30  0  0  0  0  0  0  0  0999 V2000
   37.2170   26.3700   33.6950 C   0  0  0  0  0  0  0  0  0  0  0  0
   37.3280   25.2200   32.9460 C   0  0  0  0  0  0  0  0  0  0  0  0
   37.9970   24.2390   33.7000 C   0  0  0  0  0  0  0  0  0  0  0  0
   38.2610   24.8550   34.8890 N   0  0  0  0  0  0  0  0  0  0  0  0
   37.8060   26.0870   34.8750 N   0  0  0  0  0  0  0  0  0  0  0  0
   36.9420   25.1430   31.9380 H   0  0  0  0  0  0  0  0  0  0  0  0
   38.2050   23.2470   33.3250 H   0  0  0  0  0  0  0  0  0  0  0  0
   37.2630   24.2160   37.4560 F   0  0  0  0  0  0  0  0  0  0  0  0
   38.4910   23.7740   37.1440 C   0  0  0  0  0  0  0  0  0  0  0  0
   38.9450   24.1050   35.8850 C   0  0  0  0  0  0  0  0  0  0  0  0
   40.2120   23.6900   35.4700 C   0  0  0  0  0  0  0  0  0  0  0  0
   40.6680   23.8810   34.5300 H   0  0  0  0  0  0  0  0  0  0  0  0
   40.9760   22.9460   36.3630 C   0  0  0  0  0  0  0  0  0  0  0  0
   41.9690   22.5970   36.0950 H   0  0  0  0  0  0  0  0  0  0  0  0
   40.5410   22.5980   37.6440 C   0  0  0  0  0  3  0  0  0  0  0  0
   39.2800   23.0340   38.0030 C   0  0  0  0  0  3  0  0  0  0  0  0
   36.5980   27.6220   33.3030 C   0  0  0  0  0  0  0  0  0  0  0  0
   36.2850   28.5580   34.3140 C   0  0  0  0  0  0  0  0  0  0  0  0
   35.6860   29.7710   33.9470 C   0  0  0  0  0  0  0  0  0  0  0  0
   35.4460   29.9660   32.6220 N   0  0  0  0  0  0  0  0  0  0  0  0
   35.7500   29.0660   31.6690 C   0  0  0  0  0  0  0  0  0  0  0  0
   36.3230   27.9060   32.0320 N   0  0  0  0  0  0  0  0  0  0  0  0
   36.5020   28.3410   35.3490 H   0  0  0  0  0  0  0  0  0  0  0  0
   35.5130   29.3280   30.6450 H   0  0  0  0  0  0  0  0  0  0  0  0
   35.3540   30.7590   35.0030 C   0  0  0  0  0  0  0  0  0  0  0  0
   35.2800   31.9720   34.3660 F   0  0  0  0  0  0  0  0  0  0  0  0
   34.1230   30.4990   35.5920 F   0  0  0  0  0  0  0  0  0  0  0  0
   36.3360   30.8360   35.9730 F   0  0  0  0  0  0  0  0  0  0  0  0
  1  5  2  0  0  0  0
  2  1  1  0  0  0  0
  2  3  2  0  0  0  0
  3  4  1  0  0  0  0
  4 10  1  0  0  0  0
  5  4  1  0  0  0  0
  6  2  1  0  0  0  0
  7  3  1  0  0  0  0
  9  8  1  0  0  0  0
  9 16  1  0  0  0  0
 10  9  2  0  0  0  0
 11 10  1  0  0  0  0
 11 13  2  0  0  0  0
 12 11  1  0  0  0  0
 13 15  1  0  0  0  0
 14 13  1  0  0  0  0
 15 16  2  0  0  0  0
 17  1  1  0  0  0  0
 17 18  1  0  0  0  0
 18 23  1  0  0  0  0
 19 18  2  0  0  0  0
 19 25  1  0  0  0  0
 20 19  1  0  0  0  0
 21 22  1  0  0  0  0
 21 20  2  0  0  0  0
 22 17  2  0  0  0  0
 24 21  1  0  0  0  0
 25 27  1  0  0  0  0
 25 28  1  0  0  0  0
 26 25  1  0  0  0  0
M  END
>  <minimizedAffinity>
-5.81440878

$$$$

 OpenBabel03272508033D

 28 30  0  0  0  0  0  0  0  0999 V2000
   38.0090   25.0440   34.7880 C   0  0  0  0  0  0  0  0  0  0  0  0
   37.8440   24.5260   33.5230 C   0  0  0  0  0  0  0  0  0  0  0  0
   37.4060   25.5460   32.6580 C   0  0  0  0  0  0  0  0  0  0  0  0
   37.3260   26.6490   33.4580 N   0  0  0  0  0  0  0  0  0  0  0  0
   37.6780   26.3480   34.6870 N   0  0  0  0  0  0  0  0  0  0  0  0
   38.0360   23.4870   33.2900 H   0  0  0  0  0  0  0  0  0  0  0  0
   37.2050   25.3830   31.6090 H   0  0  0  0  0  0  0  0  0  0  0  0
   35.5620   28.5320   34.6160 F   0  0  0  0  0  0  0  0  0  0  0  0
   36.0460   28.8080   33.3950 C   0  0  0  0  0  0  0  0  0  0  0  0
   36.9020   27.8690   32.8620 C   0  0  0  0  0  0  0  0  0  0  0  0
   37.4560   28.0690   31.5960 C   0  0  0  0  0  0  0  0  0  0  0  0
   38.1240   27.4220   31.0840 H   0  0  0  0  0  0  0  0  0  0  0  0
   37.1120   29.2310   30.9140 C   0  0  0  0  0  0  0  0  0  0  0  0
   37.5120   29.4400   29.9270 H   0  0  0  0  0  0  0  0  0  0  0  0
   36.2470   30.1990   31.4300 C   0  0  0  0  0  3  0  0  0  0  0  0
   35.7280   29.9510   32.6870 C   0  0  0  0  0  3  0  0  0  0  0  0
   38.4470   24.3410   35.9790 C   0  0  0  0  0  0  0  0  0  0  0  0
   39.6550   23.6100   35.9170 C   0  0  0  0  0  0  0  0  0  0  0  0
   40.0870   22.9260   37.0610 C   0  0  0  0  0  0  0  0  0  0  0  0
   39.3020   23.0150   38.1690 N   0  0  0  0  0  0  0  0  0  0  0  0
   38.1540   23.7150   38.2140 C   0  0  0  0  0  0  0  0  0  0  0  0
   37.7490   24.3670   37.1120 N   0  0  0  0  0  0  0  0  0  0  0  0
   40.2320   23.5800   35.0050 H   0  0  0  0  0  0  0  0  0  0  0  0
   37.6100   23.7160   39.1510 H   0  0  0  0  0  0  0  0  0  0  0  0
   41.3550   22.1560   37.0040 C   0  0  0  0  0  0  0  0  0  0  0  0
   41.3100   21.4550   35.8250 F   0  0  0  0  0  0  0  0  0  0  0  0
   42.4680   22.9870   36.9760 F   0  0  0  0  0  0  0  0  0  0  0  0
   41.4640   21.2530   38.0440 F   0  0  0  0  0  0  0  0  0  0  0  0
  1 17  1  0  0  0  0
  2  1  1  0  0  0  0
  3  4  1  0  0  0  0
  3  2  2  0  0  0  0
  4  5  1  0  0  0  0
  5  1  2  0  0  0  0
  6  2  1  0  0  0  0
  7  3  1  0  0  0  0
  9  8  1  0  0  0  0
 10  9  1  0  0  0  0
 10  4  1  0  0  0  0
 11 10  2  0  0  0  0
 12 11  1  0  0  0  0
 13 15  2  0  0  0  0
 13 11  1  0  0  0  0
 14 13  1  0  0  0  0
 15 16  1  0  0  0  0
 16  9  2  0  0  0  0
 17 22  1  0  0  0  0
 18 17  2  0  0  0  0
 18 19  1  0  0  0  0
 19 20  2  0  0  0  0
 20 21  1  0  0  0  0
 21 24  1  0  0  0  0
 22 21  2  0  0  0  0
 23 18  1  0  0  0  0
 25 19  1  0  0  0  0
 25 28  1  0  0  0  0
 26 25  1  0  0  0  0
 27 25  1  0  0  0  0
M  END
>  <minimizedAffinity>
-5.7632494

$$$$

 OpenBabel03272508033D

 28 30  0  0  0  0  0  0  0  0999 V2000
   37.9830   25.1010   34.8890 C   0  0  0  0  0  0  0  0  0  0  0  0
   37.7840   24.5980   33.6220 C   0  0  0  0  0  0  0  0  0  0  0  0
   37.3240   25.6290   32.7820 C   0  0  0  0  0  0  0  0  0  0  0  0
   37.2660   26.7220   33.5970 N   0  0  0  0  0  0  0  0  0  0  0  0
   37.6490   26.4050   34.8130 N   0  0  0  0  0  0  0  0  0  0  0  0
   37.9690   23.5620   33.3710 H   0  0  0  0  0  0  0  0  0  0  0  0
   37.0950   25.4790   31.7370 H   0  0  0  0  0  0  0  0  0  0  0  0
   38.0180   27.7350   31.0660 F   0  0  0  0  0  0  0  0  0  0  0  0
   37.1710   28.4730   31.8000 C   0  0  0  0  0  0  0  0  0  0  0  0
   36.8270   27.9490   33.0280 C   0  0  0  0  0  0  0  0  0  0  0  0
   35.9510   28.6460   33.8630 C   0  0  0  0  0  0  0  0  0  0  0  0
   35.6140   28.3450   34.8240 H   0  0  0  0  0  0  0  0  0  0  0  0
   35.4540   29.8630   33.4100 C   0  0  0  0  0  0  0  0  0  0  0  0
   34.7690   30.4490   34.0160 H   0  0  0  0  0  0  0  0  0  0  0  0
   35.7870   30.4180   32.1720 C   0  0  0  0  0  3  0  0  0  0  0  0
   36.6570   29.6870   31.3860 C   0  0  0  0  0  3  0  0  0  0  0  0
   38.4510   24.3820   36.0590 C   0  0  0  0  0  0  0  0  0  0  0  0
   39.6300   23.6120   35.9420 C   0  0  0  0  0  0  0  0  0  0  0  0
   40.0920   22.9140   37.0660 C   0  0  0  0  0  0  0  0  0  0  0  0
   39.3620   23.0280   38.2090 N   0  0  0  0  0  0  0  0  0  0  0  0
   38.2410   23.7660   38.3060 C   0  0  0  0  0  0  0  0  0  0  0  0
   37.8070   24.4310   37.2230 N   0  0  0  0  0  0  0  0  0  0  0  0
   40.1640   23.5630   35.0050 H   0  0  0  0  0  0  0  0  0  0  0  0
   37.7410   23.7840   39.2660 H   0  0  0  0  0  0  0  0  0  0  0  0
   41.3300   22.1030   36.9520 C   0  0  0  0  0  0  0  0  0  0  0  0
   42.3670   23.0020   36.9800 F   0  0  0  0  0  0  0  0  0  0  0  0
   41.4810   21.2290   38.0210 F   0  0  0  0  0  0  0  0  0  0  0  0
   41.3900   21.4070   35.7580 F   0  0  0  0  0  0  0  0  0  0  0  0
  1 17  1  0  0  0  0
  2  1  1  0  0  0  0
  3  4  1  0  0  0  0
  3  2  2  0  0  0  0
  4  5  1  0  0  0  0
  5  1  2  0  0  0  0
  6  2  1  0  0  0  0
  7  3  1  0  0  0  0
  8  9  1  0  0  0  0
  9 10  1  0  0  0  0
 10  4  1  0  0  0  0
 10 11  2  0  0  0  0
 11 12  1  0  0  0  0
 13 11  1  0  0  0  0
 13 14  1  0  0  0  0
 15 13  2  0  0  0  0
 16  9  2  0  0  0  0
 16 15  1  0  0  0  0
 17 22  1  0  0  0  0
 18 17  2  0  0  0  0
 18 19  1  0  0  0  0
 19 20  2  0  0  0  0
 20 21  1  0  0  0  0
 21 24  1  0  0  0  0
 22 21  2  0  0  0  0
 23 18  1  0  0  0  0
 25 26  1  0  0  0  0
 25 19  1  0  0  0  0
 25 27  1  0  0  0  0
 28 25  1  0  0  0  0
M  END
>  <minimizedAffinity>
-5.74877882

$$$$

 OpenBabel03272508033D

 28 30  0  0  0  0  0  0  0  0999 V2000
   38.7040   25.4310   33.7080 C   0  0  0  0  0  0  0  0  0  0  0  0
   39.8190   26.2340   33.7830 C   0  0  0  0  0  0  0  0  0  0  0  0
   39.7610   27.2030   32.7640 C   0  0  0  0  0  0  0  0  0  0  0  0
   38.5920   26.9310   32.1130 N   0  0  0  0  0  0  0  0  0  0  0  0
   37.9890   25.9050   32.6670 N   0  0  0  0  0  0  0  0  0  0  0  0
   40.5880   26.0950   34.5310 H   0  0  0  0  0  0  0  0  0  0  0  0
   40.5260   27.9510   32.6170 H   0  0  0  0  0  0  0  0  0  0  0  0
   39.7060   26.7820   29.5180 F   0  0  0  0  0  0  0  0  0  0  0  0
   38.7630   27.7120   29.7330 C   0  0  0  0  0  0  0  0  0  0  0  0
   38.2430   27.7570   31.0090 C   0  0  0  0  0  0  0  0  0  0  0  0
   37.2570   28.6930   31.3280 C   0  0  0  0  0  0  0  0  0  0  0  0
   36.7830   28.8220   32.2690 H   0  0  0  0  0  0  0  0  0  0  0  0
   36.8340   29.5570   30.3240 C   0  0  0  0  0  0  0  0  0  0  0  0
   36.0700   30.3050   30.5140 H   0  0  0  0  0  0  0  0  0  0  0  0
   37.3440   29.5350   29.0230 C   0  0  0  0  0  3  0  0  0  0  0  0
   38.3170   28.5890   28.7620 C   0  0  0  0  0  3  0  0  0  0  0  0
   38.3650   24.3100   34.5660 C   0  0  0  0  0  0  0  0  0  0  0  0
   38.4260   24.4980   35.9650 C   0  0  0  0  0  0  0  0  0  0  0  0
   38.1020   23.4230   36.8040 C   0  0  0  0  0  0  0  0  0  0  0  0
   37.7450   22.2550   36.2020 N   0  0  0  0  0  0  0  0  0  0  0  0
   37.6900   22.0910   34.8680 C   0  0  0  0  0  0  0  0  0  0  0  0
   38.0030   23.1280   34.0740 N   0  0  0  0  0  0  0  0  0  0  0  0
   38.7180   25.4510   36.3790 H   0  0  0  0  0  0  0  0  0  0  0  0
   37.3920   21.1170   34.5000 H   0  0  0  0  0  0  0  0  0  0  0  0
   38.1640   23.6120   38.2740 C   0  0  0  0  0  0  0  0  0  0  0  0
   39.4410   23.2650   38.6390 F   0  0  0  0  0  0  0  0  0  0  0  0
   37.9500   24.9350   38.6390 F   0  0  0  0  0  0  0  0  0  0  0  0
   37.2800   22.7860   38.9440 F   0  0  0  0  0  0  0  0  0  0  0  0
  1  2  1  0  0  0  0
  1 17  1  0  0  0  0
  2  6  1  0  0  0  0
  3  2  2  0  0  0  0
  4  5  1  0  0  0  0
  4  3  1  0  0  0  0
  5  1  2  0  0  0  0
  7  3  1  0  0  0  0
  8  9  1  0  0  0  0
  9 10  1  0  0  0  0
 10 11  2  0  0  0  0
 10  4  1  0  0  0  0
 11 12  1  0  0  0  0
 13 14  1  0  0  0  0
 13 11  1  0  0  0  0
 15 13  2  0  0  0  0
 16 15  1  0  0  0  0
 16  9  2  0  0  0  0
 17 18  1  0  0  0  0
 18 23  1  0  0  0  0
 18 19  2  0  0  0  0
 19 25  1  0  0  0  0
 20 19  1  0  0  0  0
 21 20  2  0  0  0  0
 22 17  2  0  0  0  0
 22 21  1  0  0  0  0
 24 21  1  0  0  0  0
 25 26  1  0  0  0  0
 25 27  1  0  0  0  0
 25 28  1  0  0  0  0
M  END
>  <minimizedAffinity>
-5.573174

$$$$

 OpenBabel03272508033D

 28 30  0  0  0  0  0  0  0  0999 V2000
   37.3940   25.8580   33.0630 C   0  0  0  0  0  0  0  0  0  0  0  0
   37.4470   24.5500   32.6360 C   0  0  0  0  0  0  0  0  0  0  0  0
   37.8800   23.7350   33.6980 C   0  0  0  0  0  0  0  0  0  0  0  0
   38.0710   24.6060   34.7310 N   0  0  0  0  0  0  0  0  0  0  0  0
   37.7870   25.8310   34.3530 N   0  0  0  0  0  0  0  0  0  0  0  0
   37.1840   24.2550   31.6290 H   0  0  0  0  0  0  0  0  0  0  0  0
   38.0020   22.6650   33.6080 H   0  0  0  0  0  0  0  0  0  0  0  0
   40.4560   23.1420   35.1390 F   0  0  0  0  0  0  0  0  0  0  0  0
   39.6730   23.3570   36.2070 C   0  0  0  0  0  0  0  0  0  0  0  0
   38.5190   24.0730   35.9710 C   0  0  0  0  0  0  0  0  0  0  0  0
   37.6410   24.3460   37.0220 C   0  0  0  0  0  0  0  0  0  0  0  0
   36.7280   24.8850   36.9640 H   0  0  0  0  0  0  0  0  0  0  0  0
   37.9750   23.8740   38.2860 C   0  0  0  0  0  0  0  0  0  0  0  0
   37.3310   24.0560   39.1410 H   0  0  0  0  0  0  0  0  0  0  0  0
   39.1370   23.1450   38.5530 C   0  0  0  0  0  3  0  0  0  0  0  0
   39.9710   22.9040   37.4780 C   0  0  0  0  0  3  0  0  0  0  0  0
   36.9990   27.0220   32.2910 C   0  0  0  0  0  0  0  0  0  0  0  0
   36.5240   28.1560   32.9880 C   0  0  0  0  0  0  0  0  0  0  0  0
   36.1400   29.2860   32.2530 C   0  0  0  0  0  0  0  0  0  0  0  0
   36.2530   29.2110   30.8990 N   0  0  0  0  0  0  0  0  0  0  0  0
   36.7080   28.1240   30.2480 C   0  0  0  0  0  0  0  0  0  0  0  0
   37.0730   27.0470   30.9620 N   0  0  0  0  0  0  0  0  0  0  0  0
   36.4590   28.1500   34.0650 H   0  0  0  0  0  0  0  0  0  0  0  0
   36.7550   28.1770   29.1670 H   0  0  0  0  0  0  0  0  0  0  0  0
   35.6400   30.4800   32.9780 C   0  0  0  0  0  0  0  0  0  0  0  0
   34.2920   30.5290   32.7260 F   0  0  0  0  0  0  0  0  0  0  0  0
   35.8250   30.3730   34.3510 F   0  0  0  0  0  0  0  0  0  0  0  0
   36.2120   31.6500   32.5130 F   0  0  0  0  0  0  0  0  0  0  0  0
  1  5  2  0  0  0  0
  2  1  1  0  0  0  0
  2  3  2  0  0  0  0
  3  4  1  0  0  0  0
  4 10  1  0  0  0  0
  5  4  1  0  0  0  0
  6  2  1  0  0  0  0
  7  3  1  0  0  0  0
  8  9  1  0  0  0  0
  9 16  1  0  0  0  0
 10  9  2  0  0  0  0
 10 11  1  0  0  0  0
 11 13  2  0  0  0  0
 12 11  1  0  0  0  0
 13 15  1  0  0  0  0
 13 14  1  0  0  0  0
 16 15  2  0  0  0  0
 17 18  1  0  0  0  0
 17  1  1  0  0  0  0
 18 23  1  0  0  0  0
 19 25  1  0  0  0  0
 19 18  2  0  0  0  0
 20 19  1  0  0  0  0
 21 20  2  0  0  0  0
 21 22  1  0  0  0  0
 22 17  2  0  0  0  0
 24 21  1  0  0  0  0
 25 27  1  0  0  0  0
 26 25  1  0  0  0  0
 28 25  1  0  0  0  0
M  END
>  <minimizedAffinity>
-5.50218964

$$$$

 OpenBabel03272508033D

 28 30  0  0  0  0  0  0  0  0999 V2000
   35.5170   29.4950   31.9000 C   0  0  0  0  0  0  0  0  0  0  0  0
   36.2060   29.5510   30.7090 C   0  0  0  0  0  0  0  0  0  0  0  0
   36.5540   28.2470   30.3130 C   0  0  0  0  0  0  0  0  0  0  0  0
   36.0500   27.4530   31.3030 N   0  0  0  0  0  0  0  0  0  0  0  0
   35.4520   28.1850   32.2150 N   0  0  0  0  0  0  0  0  0  0  0  0
   36.4170   30.4840   30.2020 H   0  0  0  0  0  0  0  0  0  0  0  0
   37.1020   28.0320   29.4070 H   0  0  0  0  0  0  0  0  0  0  0  0
   34.0040   25.5040   31.1770 F   0  0  0  0  0  0  0  0  0  0  0  0
   35.2730   25.0720   31.1230 C   0  0  0  0  0  0  0  0  0  0  0  0
   36.2440   26.0490   31.1870 C   0  0  0  0  0  0  0  0  0  0  0  0
   37.5940   25.6950   31.1390 C   0  0  0  0  0  0  0  0  0  0  0  0
   38.4260   26.3540   31.1790 H   0  0  0  0  0  0  0  0  0  0  0  0
   37.9070   24.3450   31.0260 C   0  0  0  0  0  0  0  0  0  0  0  0
   38.9390   24.0110   30.9840 H   0  0  0  0  0  0  0  0  0  0  0  0
   36.9450   23.3350   30.9600 C   0  0  0  0  0  3  0  0  0  0  0  0
   35.6250   23.7400   31.0110 C   0  0  0  0  0  3  0  0  0  0  0  0
   34.9750   30.6070   32.6590 C   0  0  0  0  0  0  0  0  0  0  0  0
   35.4820   30.8390   33.9570 C   0  0  0  0  0  0  0  0  0  0  0  0
   34.9650   31.9100   34.7000 C   0  0  0  0  0  0  0  0  0  0  0  0
   33.9970   32.6630   34.1090 N   0  0  0  0  0  0  0  0  0  0  0  0
   33.5250   32.4300   32.8710 C   0  0  0  0  0  0  0  0  0  0  0  0
   34.0270   31.4010   32.1680 N   0  0  0  0  0  0  0  0  0  0  0  0
   36.2510   30.2040   34.3690 H   0  0  0  0  0  0  0  0  0  0  0  0
   32.7530   33.0950   32.5010 H   0  0  0  0  0  0  0  0  0  0  0  0
   35.4920   32.1610   36.0640 C   0  0  0  0  0  0  0  0  0  0  0  0
   36.6680   31.4580   36.1430 F   0  0  0  0  0  0  0  0  0  0  0  0
   35.7720   33.5050   36.2760 F   0  0  0  0  0  0  0  0  0  0  0  0
   34.6390   31.6940   37.0470 F   0  0  0  0  0  0  0  0  0  0  0  0
  1  5  2  0  0  0  0
  1 17  1  0  0  0  0
  2  1  1  0  0  0  0
  3  2  2  0  0  0  0
  3  4  1  0  0  0  0
  4  5  1  0  0  0  0
  6  2  1  0  0  0  0
  7  3  1  0  0  0  0
  9  8  1  0  0  0  0
  9 10  1  0  0  0  0
 10  4  1  0  0  0  0
 11 12  1  0  0  0  0
 11 10  2  0  0  0  0
 13 11  1  0  0  0  0
 14 13  1  0  0  0  0
 15 16  1  0  0  0  0
 15 13  2  0  0  0  0
 16  9  2  0  0  0  0
 17 18  1  0  0  0  0
 18 23  1  0  0  0  0
 18 19  2  0  0  0  0
 19 25  1  0  0  0  0
 20 19  1  0  0  0  0
 21 20  2  0  0  0  0
 22 17  2  0  0  0  0
 22 21  1  0  0  0  0
 24 21  1  0  0  0  0
 25 26  1  0  0  0  0
 25 27  1  0  0  0  0
 25 28  1  0  0  0  0
M  END
>  <minimizedAffinity>
-5.4990263

$$$$
