
 OpenBabel03272508023D

 28 30  0  0  0  0  0  0  0  0999 V2000
   38.6610   31.1040   45.3780 C   0  0  0  0  0  0  0  0  0  0  0  0
   39.8780   31.7280   45.5330 C   0  0  0  0  0  0  0  0  0  0  0  0
   40.5680   31.7070   44.3060 C   0  0  0  0  0  0  0  0  0  0  0  0
   39.7180   31.0590   43.4580 N   0  0  0  0  0  0  0  0  0  0  0  0
   38.6190   30.7150   44.0870 N   0  0  0  0  0  0  0  0  0  0  0  0
   40.2010   32.1510   46.4750 H   0  0  0  0  0  0  0  0  0  0  0  0
   41.5500   32.1380   44.1750 H   0  0  0  0  0  0  0  0  0  0  0  0
   41.7150   29.2590   42.5790 F   0  0  0  0  0  0  0  0  0  0  0  0
   41.1080   30.0120   41.6480 C   0  0  0  0  0  0  0  0  0  0  0  0
   40.1400   30.8760   42.1120 C   0  0  0  0  0  0  0  0  0  0  0  0
   39.4530   31.6990   41.2160 C   0  0  0  0  0  0  0  0  0  0  0  0
   38.6920   32.4010   41.4530 H   0  0  0  0  0  0  0  0  0  0  0  0
   39.7820   31.6080   39.8680 C   0  0  0  0  0  0  0  0  0  0  0  0
   39.2810   32.2220   39.1270 H   0  0  0  0  0  0  0  0  0  0  0  0
   40.7570   30.7400   39.3700 C   0  0  0  0  0  3  0  0  0  0  0  0
   41.4060   29.9490   40.2990 C   0  0  0  0  0  3  0  0  0  0  0  0
   37.6380   30.9040   46.3880 C   0  0  0  0  0  0  0  0  0  0  0  0
   37.9340   31.2710   47.7200 C   0  0  0  0  0  0  0  0  0  0  0  0
   36.9540   31.0820   48.7040 C   0  0  0  0  0  0  0  0  0  0  0  0
   35.7670   30.5520   48.3010 N   0  0  0  0  0  0  0  0  0  0  0  0
   35.4980   30.2080   47.0280 C   0  0  0  0  0  0  0  0  0  0  0  0
   36.4450   30.3920   46.0930 N   0  0  0  0  0  0  0  0  0  0  0  0
   38.8970   31.6880   47.9740 H   0  0  0  0  0  0  0  0  0  0  0  0
   34.5190   29.7940   46.8220 H   0  0  0  0  0  0  0  0  0  0  0  0
   37.2570   31.4650   50.1050 C   0  0  0  0  0  0  0  0  0  0  0  0
   36.6300   32.6700   50.3050 F   0  0  0  0  0  0  0  0  0  0  0  0
   36.7440   30.5510   51.0180 F   0  0  0  0  0  0  0  0  0  0  0  0
   38.6120   31.6390   50.3180 F   0  0  0  0  0  0  0  0  0  0  0  0
  1  2  1  0  0  0  0
  1 17  1  0  0  0  0
  2  6  1  0  0  0  0
  3  2  2  0  0  0  0
  4  5  1  0  0  0  0
  4  3  1  0  0  0  0
  5  1  2  0  0  0  0
  7  3  1  0  0  0  0
  9 10  1  0  0  0  0
  9  8  1  0  0  0  0
 10  4  1  0  0  0  0
 11 12  1  0  0  0  0
 11 10  2  0  0  0  0
 13 11  1  0  0  0  0
 14 13  1  0  0  0  0
 15 13  2  0  0  0  0
 15 16  1  0  0  0  0
 16  9  2  0  0  0  0
 17 18  1  0  0  0  0
 18 23  1  0  0  0  0
 18 19  2  0  0  0  0
 19 25  1  0  0  0  0
 20 19  1  0  0  0  0
 21 20  2  0  0  0  0
 22 17  2  0  0  0  0
 22 21  1  0  0  0  0
 24 21  1  0  0  0  0
 25 26  1  0  0  0  0
 25 28  1  0  0  0  0
 25 27  1  0  0  0  0
M  END
>  <minimizedAffinity>
-6.03022337

>  <minimizedRMSD>
1.61438596

$$$$
