
 OpenBabel03272510123D

 35 38  0  0  0  0  0  0  0  0999 V2000
   36.3120   23.5520   31.7830 C   0  0  0  0  0  0  0  0  0  0  0  0
   35.5920   24.5260   31.1870 C   0  0  0  0  0  0  0  0  0  0  0  0
   35.8470   25.8670   31.2930 C   0  0  0  0  0  0  0  0  0  0  0  0
   36.8880   26.3130   32.0380 C   0  0  0  0  0  0  0  0  0  0  0  0
   37.6510   25.3150   32.6660 C   0  0  0  0  0  0  0  0  0  0  0  0
   37.3590   24.0070   32.5310 N   0  0  0  0  0  0  0  0  0  0  0  0
   34.7410   24.2620   30.5730 H   0  0  0  0  0  0  0  0  0  0  0  0
   35.2560   26.6410   30.8040 H   0  0  0  0  0  0  0  0  0  0  0  0
   38.5070   25.5270   33.2880 H   0  0  0  0  0  0  0  0  0  0  0  0
   34.9910   21.5020   32.3370 C   0  0  0  0  0  0  0  0  0  0  0  0
   36.0550   22.1430   31.6820 C   0  0  0  0  0  0  0  0  0  0  0  0
   36.8690   21.3400   30.9110 C   0  0  0  0  0  0  0  0  0  0  0  0
   36.6210   20.0020   30.8170 N   0  0  0  0  0  0  0  0  0  0  0  0
   35.5830   19.4480   31.4710 C   0  0  0  0  0  0  0  0  0  0  0  0
   34.7510   20.1890   32.2420 N   0  0  0  0  0  0  0  0  0  0  0  0
   34.3240   22.0970   32.9560 H   0  0  0  0  0  0  0  0  0  0  0  0
   37.6940   21.8050   30.3960 H   0  0  0  0  0  0  0  0  0  0  0  0
   35.5250   18.3850   31.2940 H   0  0  0  0  0  0  0  0  0  0  0  0
   37.2890   27.6350   32.2520 O   0  0  0  0  0  0  0  0  0  0  0  0
   36.4270   28.5750   32.7970 C   0  0  0  0  0  0  0  0  0  0  0  0
   35.8370   29.4410   31.8710 C   0  0  0  0  0  0  0  0  0  0  0  0
   35.0090   30.3120   32.5690 C   0  0  0  0  0  0  0  0  0  0  0  0
   35.1220   29.9550   33.8540 N   0  0  0  0  0  0  0  0  0  0  0  0
   35.9450   28.9450   33.9970 N   0  0  0  0  0  0  0  0  0  0  0  0
   35.8990   29.5520   30.7890 H   0  0  0  0  0  0  0  0  0  0  0  0
   34.3710   31.1300   32.2600 H   0  0  0  0  0  0  0  0  0  0  0  0
   36.4150   31.7410   35.5470 F   0  0  0  0  0  0  0  0  0  0  0  0
   35.1350   31.4010   35.8460 C   0  0  0  0  0  0  0  0  0  0  0  0
   34.4850   30.5190   35.0160 C   0  0  0  0  0  0  0  0  0  0  0  0
   33.1820   30.1620   35.3040 C   0  0  0  0  0  0  0  0  0  0  0  0
   32.5980   29.4760   34.7050 H   0  0  0  0  0  0  0  0  0  0  0  0
   32.5720   30.7040   36.4170 C   0  0  0  0  0  0  0  0  0  0  0  0
   31.5410   30.4300   36.6570 H   0  0  0  0  0  0  0  0  0  0  0  0
   33.1910   31.5880   37.2690 C   0  0  0  0  0  3  0  0  0  0  0  0
   34.4880   31.9260   36.9590 C   0  0  0  0  0  3  0  0  0  0  0  0
  1  6  1  0  0  0  0
  2  3  1  0  0  0  0
  2  1  2  0  0  0  0
  3  4  2  0  0  0  0
  4 19  1  0  0  0  0
  4  5  1  0  0  0  0
  5  9  1  0  0  0  0
  6  5  2  0  0  0  0
  7  2  1  0  0  0  0
  8  3  1  0  0  0  0
 10 16  1  0  0  0  0
 11  1  1  0  0  0  0
 11 10  2  0  0  0  0
 12 11  1  0  0  0  0
 13 12  2  0  0  0  0
 13 14  1  0  0  0  0
 14 15  2  0  0  0  0
 15 10  1  0  0  0  0
 17 12  1  0  0  0  0
 18 14  1  0  0  0  0
 19 20  1  0  0  0  0
 20 24  2  0  0  0  0
 21 22  2  0  0  0  0
 21 20  1  0  0  0  0
 22 23  1  0  0  0  0
 23 24  1  0  0  0  0
 23 29  1  0  0  0  0
 25 21  1  0  0  0  0
 26 22  1  0  0  0  0
 27 28  1  0  0  0  0
 28 35  1  0  0  0  0
 29 30  1  0  0  0  0
 29 28  2  0  0  0  0
 30 32  2  0  0  0  0
 31 30  1  0  0  0  0
 32 33  1  0  0  0  0
 32 34  1  0  0  0  0
 35 34  2  0  0  0  0
M  END
>  <minimizedAffinity>
-6.16416168

$$$$

 OpenBabel03272510123D

 35 38  0  0  0  0  0  0  0  0999 V2000
   36.2680   23.0880   32.0410 C   0  0  0  0  0  0  0  0  0  0  0  0
   35.5630   23.9800   31.3150 C   0  0  0  0  0  0  0  0  0  0  0  0
   35.8620   25.3110   31.2020 C   0  0  0  0  0  0  0  0  0  0  0  0
   36.9350   25.8320   31.8450 C   0  0  0  0  0  0  0  0  0  0  0  0
   37.6830   24.9200   32.6070 C   0  0  0  0  0  0  0  0  0  0  0  0
   37.3470   23.6180   32.6870 N   0  0  0  0  0  0  0  0  0  0  0  0
   34.6890   23.6520   30.7680 H   0  0  0  0  0  0  0  0  0  0  0  0
   35.2820   26.0190   30.6100 H   0  0  0  0  0  0  0  0  0  0  0  0
   38.5620   25.1970   33.1700 H   0  0  0  0  0  0  0  0  0  0  0  0
   35.8790   20.8130   31.0750 C   0  0  0  0  0  0  0  0  0  0  0  0
   35.9650   21.6890   32.1700 C   0  0  0  0  0  0  0  0  0  0  0  0
   35.7400   21.1370   33.4130 C   0  0  0  0  0  0  0  0  0  0  0  0
   35.4530   19.8080   33.5310 N   0  0  0  0  0  0  0  0  0  0  0  0
   35.3860   19.0210   32.4410 C   0  0  0  0  0  0  0  0  0  0  0  0
   35.5980   19.5110   31.1950 N   0  0  0  0  0  0  0  0  0  0  0  0
   36.0490   21.2070   30.0760 H   0  0  0  0  0  0  0  0  0  0  0  0
   35.7990   21.7860   34.2720 H   0  0  0  0  0  0  0  0  0  0  0  0
   35.1500   18.0010   32.7020 H   0  0  0  0  0  0  0  0  0  0  0  0
   37.3820   27.1570   31.8390 O   0  0  0  0  0  0  0  0  0  0  0  0
   36.6200   28.1820   32.3800 C   0  0  0  0  0  0  0  0  0  0  0  0
   36.0700   29.0640   31.4450 C   0  0  0  0  0  0  0  0  0  0  0  0
   35.3420   30.0220   32.1400 C   0  0  0  0  0  0  0  0  0  0  0  0
   35.4720   29.6980   33.4320 N   0  0  0  0  0  0  0  0  0  0  0  0
   36.2130   28.6280   33.5830 N   0  0  0  0  0  0  0  0  0  0  0  0
   36.1020   29.1360   30.3580 H   0  0  0  0  0  0  0  0  0  0  0  0
   34.7620   30.8810   31.8250 H   0  0  0  0  0  0  0  0  0  0  0  0
   32.8290   29.3620   34.2240 F   0  0  0  0  0  0  0  0  0  0  0  0
   33.6150   30.1750   34.9750 C   0  0  0  0  0  0  0  0  0  0  0  0
   34.9240   30.3490   34.5940 C   0  0  0  0  0  0  0  0  0  0  0  0
   35.7380   31.1730   35.3470 C   0  0  0  0  0  0  0  0  0  0  0  0
   36.7790   31.3650   35.1180 H   0  0  0  0  0  0  0  0  0  0  0  0
   35.2130   31.7950   36.4600 C   0  0  0  0  0  0  0  0  0  0  0  0
   35.8460   32.4510   37.0650 H   0  0  0  0  0  0  0  0  0  0  0  0
   33.9090   31.6450   36.8710 C   0  0  0  0  0  3  0  0  0  0  0  0
   33.1200   30.8200   36.1030 C   0  0  0  0  0  3  0  0  0  0  0  0
  1 11  1  0  0  0  0
  1  6  1  0  0  0  0
  2  1  2  0  0  0  0
  3  2  1  0  0  0  0
  3  4  2  0  0  0  0
  4  5  1  0  0  0  0
  5  6  2  0  0  0  0
  5  9  1  0  0  0  0
  7  2  1  0  0  0  0
  8  3  1  0  0  0  0
 10 15  2  0  0  0  0
 10 11  1  0  0  0  0
 11 12  2  0  0  0  0
 12 13  1  0  0  0  0
 12 17  1  0  0  0  0
 14 18  1  0  0  0  0
 14 13  2  0  0  0  0
 15 14  1  0  0  0  0
 16 10  1  0  0  0  0
 19  4  1  0  0  0  0
 19 20  1  0  0  0  0
 20 24  2  0  0  0  0
 21 22  2  0  0  0  0
 21 20  1  0  0  0  0
 22 23  1  0  0  0  0
 23 24  1  0  0  0  0
 23 29  1  0  0  0  0
 25 21  1  0  0  0  0
 26 22  1  0  0  0  0
 27 28  1  0  0  0  0
 28 35  1  0  0  0  0
 29 28  2  0  0  0  0
 29 30  1  0  0  0  0
 30 32  2  0  0  0  0
 31 30  1  0  0  0  0
 32 34  1  0  0  0  0
 32 33  1  0  0  0  0
 35 34  2  0  0  0  0
M  END
>  <minimizedAffinity>
-6.15943289

$$$$

 OpenBabel03272510123D

 35 38  0  0  0  0  0  0  0  0999 V2000
   39.3750   24.7710   34.9930 C   0  0  0  0  0  0  0  0  0  0  0  0
   39.5480   26.1090   35.0190 C   0  0  0  0  0  0  0  0  0  0  0  0
   38.8210   27.0090   34.2870 C   0  0  0  0  0  0  0  0  0  0  0  0
   37.8390   26.5850   33.4550 C   0  0  0  0  0  0  0  0  0  0  0  0
   37.6410   25.1950   33.4130 C   0  0  0  0  0  0  0  0  0  0  0  0
   38.3840   24.3500   34.1540 N   0  0  0  0  0  0  0  0  0  0  0  0
   40.3120   26.5360   35.6550 H   0  0  0  0  0  0  0  0  0  0  0  0
   38.9740   28.0870   34.3200 H   0  0  0  0  0  0  0  0  0  0  0  0
   36.8940   24.7210   32.7960 H   0  0  0  0  0  0  0  0  0  0  0  0
   39.6000   23.0980   36.8390 C   0  0  0  0  0  0  0  0  0  0  0  0
   40.1310   23.8150   35.7540 C   0  0  0  0  0  0  0  0  0  0  0  0
   41.4470   23.5570   35.4370 C   0  0  0  0  0  0  0  0  0  0  0  0
   42.1620   22.6490   36.1620 N   0  0  0  0  0  0  0  0  0  0  0  0
   41.5950   21.9940   37.1920 C   0  0  0  0  0  0  0  0  0  0  0  0
   40.3040   22.2070   37.5480 N   0  0  0  0  0  0  0  0  0  0  0  0
   38.5660   23.2690   37.1240 H   0  0  0  0  0  0  0  0  0  0  0  0
   41.8810   24.0940   34.6080 H   0  0  0  0  0  0  0  0  0  0  0  0
   42.2900   21.3130   37.6600 H   0  0  0  0  0  0  0  0  0  0  0  0
   37.0060   27.3600   32.6420 O   0  0  0  0  0  0  0  0  0  0  0  0
   36.3470   28.4770   33.1340 C   0  0  0  0  0  0  0  0  0  0  0  0
   36.1680   29.5110   32.2100 C   0  0  0  0  0  0  0  0  0  0  0  0
   35.4990   30.5460   32.8520 C   0  0  0  0  0  0  0  0  0  0  0  0
   35.3030   30.1170   34.1050 N   0  0  0  0  0  0  0  0  0  0  0  0
   35.7920   28.9150   34.2790 N   0  0  0  0  0  0  0  0  0  0  0  0
   36.4340   29.6470   31.1620 H   0  0  0  0  0  0  0  0  0  0  0  0
   35.1610   31.5210   32.5250 H   0  0  0  0  0  0  0  0  0  0  0  0
   36.6770   31.7880   35.8490 F   0  0  0  0  0  0  0  0  0  0  0  0
   35.3480   31.6090   36.0620 C   0  0  0  0  0  0  0  0  0  0  0  0
   34.6570   30.7850   35.2050 C   0  0  0  0  0  0  0  0  0  0  0  0
   33.3050   30.5920   35.4050 C   0  0  0  0  0  0  0  0  0  0  0  0
   32.6860   29.9610   34.7800 H   0  0  0  0  0  0  0  0  0  0  0  0
   32.6870   31.2330   36.4600 C   0  0  0  0  0  0  0  0  0  0  0  0
   31.6160   31.0880   36.6300 H   0  0  0  0  0  0  0  0  0  0  0  0
   33.3460   32.0630   37.3360 C   0  0  0  0  0  3  0  0  0  0  0  0
   34.6920   32.2380   37.1140 C   0  0  0  0  0  3  0  0  0  0  0  0
  1  2  1  0  0  0  0
  1 11  1  0  0  0  0
  2  7  1  0  0  0  0
  3  8  1  0  0  0  0
  3  2  2  0  0  0  0
  4  3  1  0  0  0  0
  5  4  2  0  0  0  0
  5  6  1  0  0  0  0
  6  1  2  0  0  0  0
  9  5  1  0  0  0  0
 10 16  1  0  0  0  0
 10 15  1  0  0  0  0
 11 10  2  0  0  0  0
 12 11  1  0  0  0  0
 12 13  2  0  0  0  0
 13 14  1  0  0  0  0
 14 15  2  0  0  0  0
 14 18  1  0  0  0  0
 17 12  1  0  0  0  0
 19 20  1  0  0  0  0
 19  4  1  0  0  0  0
 20 24  2  0  0  0  0
 21 22  2  0  0  0  0
 21 20  1  0  0  0  0
 22 23  1  0  0  0  0
 23 24  1  0  0  0  0
 23 29  1  0  0  0  0
 25 21  1  0  0  0  0
 26 22  1  0  0  0  0
 27 28  1  0  0  0  0
 28 35  1  0  0  0  0
 29 30  1  0  0  0  0
 29 28  2  0  0  0  0
 30 32  2  0  0  0  0
 31 30  1  0  0  0  0
 32 33  1  0  0  0  0
 32 34  1  0  0  0  0
 35 34  2  0  0  0  0
M  END
>  <minimizedAffinity>
-6.05270529

$$$$

 OpenBabel03272510123D

 35 38  0  0  0  0  0  0  0  0999 V2000
   35.5740   29.3780   34.0510 C   0  0  0  0  0  0  0  0  0  0  0  0
   36.4380   28.3830   34.3430 C   0  0  0  0  0  0  0  0  0  0  0  0
   36.9430   27.4910   33.4360 C   0  0  0  0  0  0  0  0  0  0  0  0
   36.5850   27.5610   32.1300 C   0  0  0  0  0  0  0  0  0  0  0  0
   35.6870   28.5900   31.8050 C   0  0  0  0  0  0  0  0  0  0  0  0
   35.2180   29.4430   32.7350 N   0  0  0  0  0  0  0  0  0  0  0  0
   36.7780   28.2520   35.3620 H   0  0  0  0  0  0  0  0  0  0  0  0
   37.6410   26.6930   33.6880 H   0  0  0  0  0  0  0  0  0  0  0  0
   35.3180   28.7610   30.8050 H   0  0  0  0  0  0  0  0  0  0  0  0
   33.6630   30.4530   35.2560 C   0  0  0  0  0  0  0  0  0  0  0  0
   35.0360   30.3210   34.9930 C   0  0  0  0  0  0  0  0  0  0  0  0
   35.8760   31.1570   35.6980 C   0  0  0  0  0  0  0  0  0  0  0  0
   35.3620   32.0490   36.5920 N   0  0  0  0  0  0  0  0  0  0  0  0
   34.0330   32.1270   36.7980 C   0  0  0  0  0  0  0  0  0  0  0  0
   33.1620   31.3290   36.1330 N   0  0  0  0  0  0  0  0  0  0  0  0
   32.9650   29.8130   34.7220 H   0  0  0  0  0  0  0  0  0  0  0  0
   36.9360   31.0770   35.5170 H   0  0  0  0  0  0  0  0  0  0  0  0
   33.7890   32.8800   37.5330 H   0  0  0  0  0  0  0  0  0  0  0  0
   37.0020   26.7380   31.0790 O   0  0  0  0  0  0  0  0  0  0  0  0
   37.0330   25.3570   31.2080 C   0  0  0  0  0  0  0  0  0  0  0  0
   38.1000   24.7290   30.5590 C   0  0  0  0  0  0  0  0  0  0  0  0
   37.9900   23.3620   30.7820 C   0  0  0  0  0  0  0  0  0  0  0  0
   36.8930   23.2130   31.5360 N   0  0  0  0  0  0  0  0  0  0  0  0
   36.3300   24.3680   31.7890 N   0  0  0  0  0  0  0  0  0  0  0  0
   38.9370   25.0820   29.9570 H   0  0  0  0  0  0  0  0  0  0  0  0
   38.5860   22.5130   30.4730 H   0  0  0  0  0  0  0  0  0  0  0  0
   37.3370   22.3520   34.1400 F   0  0  0  0  0  0  0  0  0  0  0  0
   36.5350   21.5920   33.3530 C   0  0  0  0  0  0  0  0  0  0  0  0
   36.3060   22.0080   32.0620 C   0  0  0  0  0  0  0  0  0  0  0  0
   35.4920   21.2480   31.2460 C   0  0  0  0  0  0  0  0  0  0  0  0
   35.2600   21.5010   30.2200 H   0  0  0  0  0  0  0  0  0  0  0  0
   34.9300   20.0940   31.7520 C   0  0  0  0  0  0  0  0  0  0  0  0
   34.2830   19.4820   31.1170 H   0  0  0  0  0  0  0  0  0  0  0  0
   35.1350   19.6480   33.0370 C   0  0  0  0  0  3  0  0  0  0  0  0
   35.9510   20.4230   33.8270 C   0  0  0  0  0  3  0  0  0  0  0  0
  1  2  1  0  0  0  0
  1 11  1  0  0  0  0
  2  7  1  0  0  0  0
  3  8  1  0  0  0  0
  3  2  2  0  0  0  0
  4  3  1  0  0  0  0
  5  4  2  0  0  0  0
  5  6  1  0  0  0  0
  6  1  2  0  0  0  0
  9  5  1  0  0  0  0
 10 15  1  0  0  0  0
 11 10  2  0  0  0  0
 11 12  1  0  0  0  0
 12 13  2  0  0  0  0
 13 14  1  0  0  0  0
 14 18  1  0  0  0  0
 15 14  2  0  0  0  0
 16 10  1  0  0  0  0
 17 12  1  0  0  0  0
 19 20  1  0  0  0  0
 19  4  1  0  0  0  0
 20 24  2  0  0  0  0
 21 22  2  0  0  0  0
 21 20  1  0  0  0  0
 22 23  1  0  0  0  0
 23 24  1  0  0  0  0
 23 29  1  0  0  0  0
 25 21  1  0  0  0  0
 26 22  1  0  0  0  0
 28 35  1  0  0  0  0
 28 27  1  0  0  0  0
 29 28  2  0  0  0  0
 30 32  2  0  0  0  0
 30 29  1  0  0  0  0
 31 30  1  0  0  0  0
 32 34  1  0  0  0  0
 33 32  1  0  0  0  0
 34 35  2  0  0  0  0
M  END
>  <minimizedAffinity>
-5.93810081

$$$$

 OpenBabel03272510123D

 35 38  0  0  0  0  0  0  0  0999 V2000
   34.2750   31.4370   35.7220 C   0  0  0  0  0  0  0  0  0  0  0  0
   35.6000   31.1840   35.7790 C   0  0  0  0  0  0  0  0  0  0  0  0
   36.2350   30.1730   35.1090 C   0  0  0  0  0  0  0  0  0  0  0  0
   35.5350   29.3290   34.3120 C   0  0  0  0  0  0  0  0  0  0  0  0
   34.1550   29.5750   34.2390 C   0  0  0  0  0  0  0  0  0  0  0  0
   33.5760   30.5840   34.9180 N   0  0  0  0  0  0  0  0  0  0  0  0
   36.2370   31.8080   36.3920 H   0  0  0  0  0  0  0  0  0  0  0  0
   37.3070   29.9830   35.1660 H   0  0  0  0  0  0  0  0  0  0  0  0
   33.4770   28.9820   33.6430 H   0  0  0  0  0  0  0  0  0  0  0  0
   34.2390   33.3730   37.3060 C   0  0  0  0  0  0  0  0  0  0  0  0
   33.5960   32.4930   36.4200 C   0  0  0  0  0  0  0  0  0  0  0  0
   32.2430   32.6890   36.2390 C   0  0  0  0  0  0  0  0  0  0  0  0
   31.6010   33.6930   36.9030 N   0  0  0  0  0  0  0  0  0  0  0  0
   32.2760   34.5030   37.7400 C   0  0  0  0  0  0  0  0  0  0  0  0
   33.6060   34.3570   37.9550 N   0  0  0  0  0  0  0  0  0  0  0  0
   35.3050   33.2550   37.4780 H   0  0  0  0  0  0  0  0  0  0  0  0
   31.7230   32.0280   35.5640 H   0  0  0  0  0  0  0  0  0  0  0  0
   31.6270   35.2430   38.1850 H   0  0  0  0  0  0  0  0  0  0  0  0
   36.0200   28.2530   33.5620 O   0  0  0  0  0  0  0  0  0  0  0  0
   36.9230   27.3450   34.0960 C   0  0  0  0  0  0  0  0  0  0  0  0
   38.1250   27.2270   33.3930 C   0  0  0  0  0  0  0  0  0  0  0  0
   38.9120   26.2890   34.0490 C   0  0  0  0  0  0  0  0  0  0  0  0
   38.1820   25.8830   35.0950 N   0  0  0  0  0  0  0  0  0  0  0  0
   37.0230   26.4920   35.1320 N   0  0  0  0  0  0  0  0  0  0  0  0
   38.5300   27.6960   32.4960 H   0  0  0  0  0  0  0  0  0  0  0  0
   39.9010   25.8920   33.8580 H   0  0  0  0  0  0  0  0  0  0  0  0
   40.0580   23.8710   34.7000 F   0  0  0  0  0  0  0  0  0  0  0  0
   39.4370   23.9270   35.9060 C   0  0  0  0  0  0  0  0  0  0  0  0
   38.5070   24.9190   36.1140 C   0  0  0  0  0  0  0  0  0  0  0  0
   37.8660   24.9920   37.3340 C   0  0  0  0  0  0  0  0  0  0  0  0
   37.1220   25.7390   37.5820 H   0  0  0  0  0  0  0  0  0  0  0  0
   38.1790   24.0680   38.3100 C   0  0  0  0  0  0  0  0  0  0  0  0
   37.6780   24.1130   39.2810 H   0  0  0  0  0  0  0  0  0  0  0  0
   39.1030   23.0640   38.1370 C   0  0  0  0  0  3  0  0  0  0  0  0
   39.7260   23.0130   36.9120 C   0  0  0  0  0  3  0  0  0  0  0  0
  1  2  1  0  0  0  0
  1 11  1  0  0  0  0
  2  7  1  0  0  0  0
  3  8  1  0  0  0  0
  3  2  2  0  0  0  0
  4  3  1  0  0  0  0
  5  4  2  0  0  0  0
  5  6  1  0  0  0  0
  6  1  2  0  0  0  0
  9  5  1  0  0  0  0
 10 16  1  0  0  0  0
 10 15  1  0  0  0  0
 11 10  2  0  0  0  0
 12 11  1  0  0  0  0
 12 13  2  0  0  0  0
 13 14  1  0  0  0  0
 14 15  2  0  0  0  0
 14 18  1  0  0  0  0
 17 12  1  0  0  0  0
 19 20  1  0  0  0  0
 19  4  1  0  0  0  0
 20 24  2  0  0  0  0
 21 22  2  0  0  0  0
 21 20  1  0  0  0  0
 22 23  1  0  0  0  0
 23 24  1  0  0  0  0
 23 29  1  0  0  0  0
 25 21  1  0  0  0  0
 26 22  1  0  0  0  0
 27 28  1  0  0  0  0
 28 29  2  0  0  0  0
 28 35  1  0  0  0  0
 29 30  1  0  0  0  0
 30 31  1  0  0  0  0
 30 32  2  0  0  0  0
 32 33  1  0  0  0  0
 34 32  1  0  0  0  0
 35 34  2  0  0  0  0
M  END
>  <minimizedAffinity>
-5.7559762

$$$$

 OpenBabel03272510123D

 35 38  0  0  0  0  0  0  0  0999 V2000
   39.2220   24.7490   34.7820 C   0  0  0  0  0  0  0  0  0  0  0  0
   38.1130   24.4500   34.0740 C   0  0  0  0  0  0  0  0  0  0  0  0
   37.4530   25.3170   33.2450 C   0  0  0  0  0  0  0  0  0  0  0  0
   37.9000   26.5870   33.0820 C   0  0  0  0  0  0  0  0  0  0  0  0
   39.0540   26.9190   33.8090 C   0  0  0  0  0  0  0  0  0  0  0  0
   39.6670   26.0280   34.6130 N   0  0  0  0  0  0  0  0  0  0  0  0
   37.6850   23.4590   34.1440 H   0  0  0  0  0  0  0  0  0  0  0  0
   36.5580   25.0600   32.6800 H   0  0  0  0  0  0  0  0  0  0  0  0
   39.5180   27.8930   33.7740 H   0  0  0  0  0  0  0  0  0  0  0  0
   39.3620   23.3140   36.8260 C   0  0  0  0  0  0  0  0  0  0  0  0
   39.9230   23.8500   35.6550 C   0  0  0  0  0  0  0  0  0  0  0  0
   41.2160   23.4650   35.3670 C   0  0  0  0  0  0  0  0  0  0  0  0
   41.8780   22.6100   36.1990 N   0  0  0  0  0  0  0  0  0  0  0  0
   41.2830   22.1320   37.3070 C   0  0  0  0  0  0  0  0  0  0  0  0
   40.0140   22.4750   37.6390 N   0  0  0  0  0  0  0  0  0  0  0  0
   38.3450   23.5900   37.0910 H   0  0  0  0  0  0  0  0  0  0  0  0
   41.6730   23.8610   34.4740 H   0  0  0  0  0  0  0  0  0  0  0  0
   41.9370   21.4710   37.8550 H   0  0  0  0  0  0  0  0  0  0  0  0
   37.3530   27.5950   32.2810 O   0  0  0  0  0  0  0  0  0  0  0  0
   36.5180   28.5680   32.8100 C   0  0  0  0  0  0  0  0  0  0  0  0
   35.9300   29.4150   31.8670 C   0  0  0  0  0  0  0  0  0  0  0  0
   35.1290   30.3230   32.5490 C   0  0  0  0  0  0  0  0  0  0  0  0
   35.2570   30.0050   33.8430 N   0  0  0  0  0  0  0  0  0  0  0  0
   36.0620   28.9850   34.0060 N   0  0  0  0  0  0  0  0  0  0  0  0
   35.9760   29.4920   30.7800 H   0  0  0  0  0  0  0  0  0  0  0  0
   34.5020   31.1440   32.2250 H   0  0  0  0  0  0  0  0  0  0  0  0
   32.6060   29.5590   34.5450 F   0  0  0  0  0  0  0  0  0  0  0  0
   33.3360   30.3890   35.3320 C   0  0  0  0  0  0  0  0  0  0  0  0
   34.6490   30.6180   34.9960 C   0  0  0  0  0  0  0  0  0  0  0  0
   35.4070   31.4590   35.7860 C   0  0  0  0  0  0  0  0  0  0  0  0
   36.4470   31.6930   35.5940 H   0  0  0  0  0  0  0  0  0  0  0  0
   34.8230   32.0450   36.8900 C   0  0  0  0  0  0  0  0  0  0  0  0
   35.4120   32.7140   37.5240 H   0  0  0  0  0  0  0  0  0  0  0  0
   33.5140   31.8390   37.2570 C   0  0  0  0  0  3  0  0  0  0  0  0
   32.7810   30.9970   36.4530 C   0  0  0  0  0  3  0  0  0  0  0  0
  1 11  1  0  0  0  0
  2  7  1  0  0  0  0
  2  1  2  0  0  0  0
  3  2  1  0  0  0  0
  4  3  2  0  0  0  0
  4  5  1  0  0  0  0
  5  6  2  0  0  0  0
  6  1  1  0  0  0  0
  8  3  1  0  0  0  0
  9  5  1  0  0  0  0
 10 16  1  0  0  0  0
 10 15  1  0  0  0  0
 11 10  2  0  0  0  0
 12 11  1  0  0  0  0
 12 13  2  0  0  0  0
 13 14  1  0  0  0  0
 14 15  2  0  0  0  0
 14 18  1  0  0  0  0
 17 12  1  0  0  0  0
 19 20  1  0  0  0  0
 19  4  1  0  0  0  0
 20 24  2  0  0  0  0
 21 22  2  0  0  0  0
 21 20  1  0  0  0  0
 22 23  1  0  0  0  0
 23 24  1  0  0  0  0
 23 29  1  0  0  0  0
 25 21  1  0  0  0  0
 26 22  1  0  0  0  0
 27 28  1  0  0  0  0
 28 35  1  0  0  0  0
 29 28  2  0  0  0  0
 29 30  1  0  0  0  0
 30 32  2  0  0  0  0
 31 30  1  0  0  0  0
 32 34  1  0  0  0  0
 32 33  1  0  0  0  0
 35 34  2  0  0  0  0
M  END
>  <minimizedAffinity>
-5.70720863

$$$$

 OpenBabel03272510123D

 35 38  0  0  0  0  0  0  0  0999 V2000
   36.2240   22.8170   31.9460 C   0  0  0  0  0  0  0  0  0  0  0  0
   35.5020   23.6960   31.2210 C   0  0  0  0  0  0  0  0  0  0  0  0
   35.7110   25.0490   31.1920 C   0  0  0  0  0  0  0  0  0  0  0  0
   36.7040   25.6070   31.9260 C   0  0  0  0  0  0  0  0  0  0  0  0
   37.4690   24.7100   32.6880 C   0  0  0  0  0  0  0  0  0  0  0  0
   37.2230   23.3850   32.6830 N   0  0  0  0  0  0  0  0  0  0  0  0
   34.6870   23.3390   30.6050 H   0  0  0  0  0  0  0  0  0  0  0  0
   35.1180   25.7450   30.5990 H   0  0  0  0  0  0  0  0  0  0  0  0
   38.2900   25.0160   33.3180 H   0  0  0  0  0  0  0  0  0  0  0  0
   35.6230   20.7060   33.1450 C   0  0  0  0  0  0  0  0  0  0  0  0
   36.0150   21.3960   31.9870 C   0  0  0  0  0  0  0  0  0  0  0  0
   36.1960   20.6330   30.8520 C   0  0  0  0  0  0  0  0  0  0  0  0
   35.9960   19.2850   30.8950 N   0  0  0  0  0  0  0  0  0  0  0  0
   35.6200   18.6820   32.0380 C   0  0  0  0  0  0  0  0  0  0  0  0
   35.4270   19.3830   33.1820 N   0  0  0  0  0  0  0  0  0  0  0  0
   35.4680   21.2680   34.0620 H   0  0  0  0  0  0  0  0  0  0  0  0
   36.4970   21.1370   29.9480 H   0  0  0  0  0  0  0  0  0  0  0  0
   35.5040   17.6170   31.9060 H   0  0  0  0  0  0  0  0  0  0  0  0
   37.0540   26.9590   32.0120 O   0  0  0  0  0  0  0  0  0  0  0  0
   36.1870   27.9000   32.5480 C   0  0  0  0  0  0  0  0  0  0  0  0
   36.4130   28.2120   33.8910 C   0  0  0  0  0  0  0  0  0  0  0  0
   35.4720   29.1600   34.2730 C   0  0  0  0  0  0  0  0  0  0  0  0
   34.7300   29.3820   33.1810 N   0  0  0  0  0  0  0  0  0  0  0  0
   35.1390   28.6540   32.1710 N   0  0  0  0  0  0  0  0  0  0  0  0
   37.1330   27.8770   34.6380 H   0  0  0  0  0  0  0  0  0  0  0  0
   35.2790   29.6740   35.2060 H   0  0  0  0  0  0  0  0  0  0  0  0
   32.1400   28.4600   32.7780 F   0  0  0  0  0  0  0  0  0  0  0  0
   32.3340   29.8030   32.8060 C   0  0  0  0  0  0  0  0  0  0  0  0
   33.6110   30.2720   33.0050 C   0  0  0  0  0  0  0  0  0  0  0  0
   33.8280   31.6350   33.0380 C   0  0  0  0  0  0  0  0  0  0  0  0
   34.8000   32.0880   33.1890 H   0  0  0  0  0  0  0  0  0  0  0  0
   32.7550   32.4860   32.8690 C   0  0  0  0  0  0  0  0  0  0  0  0
   32.9130   33.5690   32.8920 H   0  0  0  0  0  0  0  0  0  0  0  0
   31.4660   32.0540   32.6680 C   0  0  0  0  0  3  0  0  0  0  0  0
   31.2780   30.6910   32.6400 C   0  0  0  0  0  3  0  0  0  0  0  0
  1 11  1  0  0  0  0
  1  6  1  0  0  0  0
  2  1  2  0  0  0  0
  3  2  1  0  0  0  0
  3  4  2  0  0  0  0
  4 19  1  0  0  0  0
  4  5  1  0  0  0  0
  5  9  1  0  0  0  0
  6  5  2  0  0  0  0
  7  2  1  0  0  0  0
  8  3  1  0  0  0  0
 10 15  1  0  0  0  0
 10 16  1  0  0  0  0
 11 10  2  0  0  0  0
 12 13  2  0  0  0  0
 12 11  1  0  0  0  0
 13 14  1  0  0  0  0
 14 15  2  0  0  0  0
 17 12  1  0  0  0  0
 18 14  1  0  0  0  0
 19 20  1  0  0  0  0
 20 21  1  0  0  0  0
 21 22  2  0  0  0  0
 21 25  1  0  0  0  0
 22 26  1  0  0  0  0
 23 22  1  0  0  0  0
 24 20  2  0  0  0  0
 24 23  1  0  0  0  0
 27 28  1  0  0  0  0
 28 29  1  0  0  0  0
 29 30  2  0  0  0  0
 29 23  1  0  0  0  0
 30 31  1  0  0  0  0
 32 33  1  0  0  0  0
 32 30  1  0  0  0  0
 34 32  2  0  0  0  0
 35 34  1  0  0  0  0
 35 28  2  0  0  0  0
M  END
>  <minimizedAffinity>
-5.52052927

$$$$

 OpenBabel03272510123D

 35 38  0  0  0  0  0  0  0  0999 V2000
   38.1560   25.4150   35.0940 C   0  0  0  0  0  0  0  0  0  0  0  0
   37.7980   25.1070   33.8300 C   0  0  0  0  0  0  0  0  0  0  0  0
   37.2320   25.9790   32.9400 C   0  0  0  0  0  0  0  0  0  0  0  0
   36.9880   27.2640   33.2970 C   0  0  0  0  0  0  0  0  0  0  0  0
   37.3540   27.6060   34.6080 C   0  0  0  0  0  0  0  0  0  0  0  0
   37.9080   26.7090   35.4470 N   0  0  0  0  0  0  0  0  0  0  0  0
   37.9550   24.1020   33.4600 H   0  0  0  0  0  0  0  0  0  0  0  0
   36.9490   25.7140   31.9220 H   0  0  0  0  0  0  0  0  0  0  0  0
   37.2180   28.5920   35.0240 H   0  0  0  0  0  0  0  0  0  0  0  0
   39.9450   23.8130   35.7960 C   0  0  0  0  0  0  0  0  0  0  0  0
   38.7490   24.5090   36.0380 C   0  0  0  0  0  0  0  0  0  0  0  0
   38.1470   24.2830   37.2580 C   0  0  0  0  0  0  0  0  0  0  0  0
   38.7140   23.4220   38.1530 N   0  0  0  0  0  0  0  0  0  0  0  0
   39.8630   22.7850   37.8590 C   0  0  0  0  0  0  0  0  0  0  0  0
   40.4980   22.9700   36.6760 N   0  0  0  0  0  0  0  0  0  0  0  0
   40.4530   23.9620   34.8470 H   0  0  0  0  0  0  0  0  0  0  0  0
   37.2280   24.8030   37.4720 H   0  0  0  0  0  0  0  0  0  0  0  0
   40.1780   22.1430   38.6680 H   0  0  0  0  0  0  0  0  0  0  0  0
   36.4220   28.2800   32.5200 O   0  0  0  0  0  0  0  0  0  0  0  0
   35.5930   29.2420   33.0770 C   0  0  0  0  0  0  0  0  0  0  0  0
   35.8520   30.5530   32.6660 C   0  0  0  0  0  0  0  0  0  0  0  0
   34.9450   31.3880   33.3060 C   0  0  0  0  0  0  0  0  0  0  0  0
   34.1900   30.5800   34.0610 N   0  0  0  0  0  0  0  0  0  0  0  0
   34.5590   29.3290   33.9340 N   0  0  0  0  0  0  0  0  0  0  0  0
   36.5760   31.0080   31.9900 H   0  0  0  0  0  0  0  0  0  0  0  0
   34.7850   32.4590   33.2850 H   0  0  0  0  0  0  0  0  0  0  0  0
   34.5720   31.4010   36.6880 F   0  0  0  0  0  0  0  0  0  0  0  0
   33.2960   31.3140   36.2330 C   0  0  0  0  0  0  0  0  0  0  0  0
   33.0940   30.9100   34.9340 C   0  0  0  0  0  0  0  0  0  0  0  0
   31.8030   30.8160   34.4540 C   0  0  0  0  0  0  0  0  0  0  0  0
   31.5550   30.5060   33.4460 H   0  0  0  0  0  0  0  0  0  0  0  0
   30.7540   31.1330   35.2920 C   0  0  0  0  0  0  0  0  0  0  0  0
   29.7260   31.0630   34.9240 H   0  0  0  0  0  0  0  0  0  0  0  0
   30.9180   31.5400   36.5950 C   0  0  0  0  0  3  0  0  0  0  0  0
   32.2140   31.6250   37.0480 C   0  0  0  0  0  3  0  0  0  0  0  0
  1  6  1  0  0  0  0
  1 11  1  0  0  0  0
  2  1  2  0  0  0  0
  3  4  2  0  0  0  0
  3  2  1  0  0  0  0
  4  5  1  0  0  0  0
  5  9  1  0  0  0  0
  5  6  2  0  0  0  0
  7  2  1  0  0  0  0
  8  3  1  0  0  0  0
 10 11  2  0  0  0  0
 10 15  1  0  0  0  0
 11 12  1  0  0  0  0
 12 17  1  0  0  0  0
 12 13  2  0  0  0  0
 14 13  1  0  0  0  0
 14 18  1  0  0  0  0
 15 14  2  0  0  0  0
 16 10  1  0  0  0  0
 19 20  1  0  0  0  0
 19  4  1  0  0  0  0
 20 24  2  0  0  0  0
 21 20  1  0  0  0  0
 21 22  2  0  0  0  0
 22 23  1  0  0  0  0
 23 29  1  0  0  0  0
 24 23  1  0  0  0  0
 25 21  1  0  0  0  0
 26 22  1  0  0  0  0
 28 27  1  0  0  0  0
 28 35  1  0  0  0  0
 29 28  2  0  0  0  0
 30 29  1  0  0  0  0
 30 32  2  0  0  0  0
 31 30  1  0  0  0  0
 32 34  1  0  0  0  0
 33 32  1  0  0  0  0
 34 35  2  0  0  0  0
M  END
>  <minimizedAffinity>
-5.45634651

$$$$

 OpenBabel03272510123D

 35 38  0  0  0  0  0  0  0  0999 V2000
   34.0860   29.5760   33.3870 C   0  0  0  0  0  0  0  0  0  0  0  0
   34.9420   29.3780   34.4110 C   0  0  0  0  0  0  0  0  0  0  0  0
   36.1480   28.7370   34.3150 C   0  0  0  0  0  0  0  0  0  0  0  0
   36.5700   28.2410   33.1260 C   0  0  0  0  0  0  0  0  0  0  0  0
   35.6940   28.4360   32.0460 C   0  0  0  0  0  0  0  0  0  0  0  0
   34.5170   29.0740   32.1930 N   0  0  0  0  0  0  0  0  0  0  0  0
   34.6860   29.7400   35.3980 H   0  0  0  0  0  0  0  0  0  0  0  0
   36.8270   28.5860   35.1530 H   0  0  0  0  0  0  0  0  0  0  0  0
   35.9030   28.0940   31.0440 H   0  0  0  0  0  0  0  0  0  0  0  0
   31.5900   29.6110   33.2260 C   0  0  0  0  0  0  0  0  0  0  0  0
   32.8180   30.2460   33.4740 C   0  0  0  0  0  0  0  0  0  0  0  0
   32.7580   31.5790   33.8190 C   0  0  0  0  0  0  0  0  0  0  0  0
   31.5520   32.2120   33.9010 N   0  0  0  0  0  0  0  0  0  0  0  0
   30.4090   31.5460   33.6500 C   0  0  0  0  0  0  0  0  0  0  0  0
   30.4090   30.2340   33.3090 N   0  0  0  0  0  0  0  0  0  0  0  0
   31.5910   28.5590   32.9520 H   0  0  0  0  0  0  0  0  0  0  0  0
   33.6860   32.0920   34.0150 H   0  0  0  0  0  0  0  0  0  0  0  0
   29.5460   32.1850   33.7580 H   0  0  0  0  0  0  0  0  0  0  0  0
   37.7630   27.5650   32.8510 O   0  0  0  0  0  0  0  0  0  0  0  0
   38.0710   26.3600   33.4640 C   0  0  0  0  0  0  0  0  0  0  0  0
   37.5560   25.2270   32.8280 C   0  0  0  0  0  0  0  0  0  0  0  0
   37.9500   24.1120   33.5570 C   0  0  0  0  0  0  0  0  0  0  0  0
   38.6690   24.5930   34.5790 N   0  0  0  0  0  0  0  0  0  0  0  0
   38.7450   25.9000   34.5330 N   0  0  0  0  0  0  0  0  0  0  0  0
   36.9500   25.0650   31.9360 H   0  0  0  0  0  0  0  0  0  0  0  0
   37.7800   23.0500   33.4320 H   0  0  0  0  0  0  0  0  0  0  0  0
   37.4500   24.1460   37.0360 F   0  0  0  0  0  0  0  0  0  0  0  0
   38.7080   23.6690   36.8600 C   0  0  0  0  0  0  0  0  0  0  0  0
   39.3210   23.8820   35.6480 C   0  0  0  0  0  0  0  0  0  0  0  0
   40.6010   23.4030   35.4500 C   0  0  0  0  0  0  0  0  0  0  0  0
   41.1560   23.5260   34.5290 H   0  0  0  0  0  0  0  0  0  0  0  0
   41.2250   22.7220   36.4750 C   0  0  0  0  0  0  0  0  0  0  0  0
   42.2390   22.3370   36.3320 H   0  0  0  0  0  0  0  0  0  0  0  0
   40.6430   22.4890   37.6990 C   0  0  0  0  0  3  0  0  0  0  0  0
   39.3680   22.9780   37.8690 C   0  0  0  0  0  3  0  0  0  0  0  0
  1 11  1  0  0  0  0
  1  2  1  0  0  0  0
  2  7  1  0  0  0  0
  3  2  2  0  0  0  0
  3  8  1  0  0  0  0
  4  3  1  0  0  0  0
  5  6  1  0  0  0  0
  5  4  2  0  0  0  0
  6  1  2  0  0  0  0
  9  5  1  0  0  0  0
 10 15  2  0  0  0  0
 10 11  1  0  0  0  0
 11 12  2  0  0  0  0
 12 13  1  0  0  0  0
 12 17  1  0  0  0  0
 14 18  1  0  0  0  0
 14 13  2  0  0  0  0
 15 14  1  0  0  0  0
 16 10  1  0  0  0  0
 19  4  1  0  0  0  0
 19 20  1  0  0  0  0
 20 24  2  0  0  0  0
 21 20  1  0  0  0  0
 21 22  2  0  0  0  0
 22 23  1  0  0  0  0
 23 29  1  0  0  0  0
 24 23  1  0  0  0  0
 25 21  1  0  0  0  0
 26 22  1  0  0  0  0
 28 27  1  0  0  0  0
 28 35  1  0  0  0  0
 29 28  2  0  0  0  0
 30 29  1  0  0  0  0
 30 32  2  0  0  0  0
 31 30  1  0  0  0  0
 32 34  1  0  0  0  0
 33 32  1  0  0  0  0
 34 35  2  0  0  0  0
M  END
>  <minimizedAffinity>
-5.32612944

$$$$
