
 OpenBabel03272507523D

 32 34  0  0  0  0  0  0  0  0999 V2000
   36.8980   31.3780   48.4630 N   0  0  0  0  0  0  0  0  0  0  0  0
   37.3550   32.2410   49.3610 C   0  0  0  0  0  0  0  0  0  0  0  0
   38.4170   33.0880   49.0490 C   0  0  0  0  0  0  0  0  0  0  0  0
   38.9060   32.9370   47.7870 C   0  0  0  0  0  0  0  0  0  0  0  0
   39.8750   33.7090   47.5040 O   0  0  0  0  0  0  0  0  0  0  0  0
   38.4820   32.0880   46.8570 N   0  0  0  0  0  0  0  0  0  0  0  0
   37.4500   31.2960   47.2200 C   0  0  0  0  0  0  0  0  0  0  0  0
   37.0340   30.4790   46.3400 O   0  0  0  0  0  0  0  0  0  0  0  0
   36.8990   32.2900   50.3480 H   0  0  0  0  0  0  0  0  0  0  0  0
   38.8080   33.8030   49.7670 H   0  0  0  0  0  0  0  0  0  0  0  0
   40.8560   30.6910   46.2350 F   0  0  0  0  0  0  0  0  0  0  0  0
   40.2100   31.3150   45.2290 C   0  0  0  0  0  0  0  0  0  0  0  0
   39.0520   31.9930   45.5510 C   0  0  0  0  0  0  0  0  0  0  0  0
   38.3050   32.6650   44.6240 C   0  0  0  0  0  0  0  0  0  0  0  0
   37.3920   33.2180   44.7950 H   0  0  0  0  0  0  0  0  0  0  0  0
   38.6960   32.6920   43.2840 C   0  0  0  0  0  0  0  0  0  0  0  0
   38.1460   33.2080   42.5030 H   0  0  0  0  0  0  0  0  0  0  0  0
   39.8660   32.0120   42.9460 C   0  0  0  0  0  3  0  0  0  0  0  0
   40.6050   31.3400   43.8910 C   0  0  0  0  0  3  0  0  0  0  0  0
   35.7040   29.9520   50.0250 C   0  0  0  0  0  0  0  0  0  0  0  0
   35.8090   30.4770   48.7230 C   0  0  0  0  0  0  0  0  0  0  0  0
   34.8630   30.1040   47.7570 C   0  0  0  0  0  0  0  0  0  0  0  0
   33.8890   29.2480   48.1310 N   0  0  0  0  0  0  0  0  0  0  0  0
   33.7890   28.7520   49.3540 C   0  0  0  0  0  0  0  0  0  0  0  0
   34.6890   29.1020   50.2890 N   0  0  0  0  0  0  0  0  0  0  0  0
   35.0600   30.5730   46.8230 H   0  0  0  0  0  0  0  0  0  0  0  0
   32.9840   28.0670   49.5960 H   0  0  0  0  0  0  0  0  0  0  0  0
   37.6440   29.5310   51.7130 C   0  0  0  0  0  0  0  0  0  0  0  0
   37.9320   28.3650   51.3670 O   0  0  0  0  0  0  0  0  0  0  0  0
   36.5890   30.2700   51.0770 N   0  0  0  0  0  0  0  0  0  0  0  0
   38.2370   29.9370   52.5150 H   0  0  0  0  0  0  0  0  0  0  0  0
   36.5040   31.2340   51.5200 H   0  0  0  0  0  0  0  0  0  0  0  0
  1 21  1  0  0  0  0
  1  2  1  0  0  0  0
  2  9  1  0  0  0  0
  3  2  2  0  0  0  0
  3 10  1  0  0  0  0
  4  3  1  0  0  0  0
  5  4  2  0  0  0  0
  6  7  1  0  0  0  0
  6  4  1  0  0  0  0
  7  1  1  0  0  0  0
  8  7  2  0  0  0  0
 12 13  1  0  0  0  0
 12 11  1  0  0  0  0
 13  6  1  0  0  0  0
 14 15  1  0  0  0  0
 14 13  2  0  0  0  0
 16 14  1  0  0  0  0
 17 16  1  0  0  0  0
 18 16  2  0  0  0  0
 18 19  1  0  0  0  0
 19 12  2  0  0  0  0
 20 25  1  0  0  0  0
 20 30  1  0  0  0  0
 21 20  2  0  0  0  0
 22 23  2  0  0  0  0
 22 21  1  0  0  0  0
 23 24  1  0  0  0  0
 24 27  1  0  0  0  0
 24 25  2  0  0  0  0
 26 22  1  0  0  0  0
 28 31  1  0  0  0  0
 29 28  2  0  0  0  0
 30 32  1  0  0  0  0
 30 28  1  0  0  0  0
M  END
>  <minimizedAffinity>
-6.47119427

>  <minimizedRMSD>
1.91172874

$$$$
