
 OpenBabel03272508023D

 28 30  0  0  0  0  0  0  0  0999 V2000
   34.5350   28.9910   45.2140 C   0  0  0  0  0  0  0  0  0  0  0  0
   34.7300   30.2630   44.7240 C   0  0  0  0  0  0  0  0  0  0  0  0
   35.2720   30.1820   43.4290 C   0  0  0  0  0  0  0  0  0  0  0  0
   35.3800   28.8410   43.1970 N   0  0  0  0  0  0  0  0  0  0  0  0
   34.9510   28.1620   44.2350 N   0  0  0  0  0  0  0  0  0  0  0  0
   34.4850   31.1500   45.2930 H   0  0  0  0  0  0  0  0  0  0  0  0
   35.5140   31.0520   42.8350 H   0  0  0  0  0  0  0  0  0  0  0  0
   33.9200   27.6110   41.1100 F   0  0  0  0  0  0  0  0  0  0  0  0
   35.2270   27.8260   40.9040 C   0  0  0  0  0  0  0  0  0  0  0  0
   35.9080   28.4280   41.9420 C   0  0  0  0  0  0  0  0  0  0  0  0
   37.2740   28.6930   41.8200 C   0  0  0  0  0  0  0  0  0  0  0  0
   37.9000   29.1490   42.5460 H   0  0  0  0  0  0  0  0  0  0  0  0
   37.9010   28.3310   40.6330 C   0  0  0  0  0  0  0  0  0  0  0  0
   38.9610   28.5120   40.4810 H   0  0  0  0  0  0  0  0  0  0  0  0
   37.2370   27.7210   39.5660 C   0  0  0  0  0  3  0  0  0  0  0  0
   35.8870   27.4810   39.7390 C   0  0  0  0  0  3  0  0  0  0  0  0
   33.9960   28.6180   46.5090 C   0  0  0  0  0  0  0  0  0  0  0  0
   34.4650   29.3060   47.6510 C   0  0  0  0  0  0  0  0  0  0  0  0
   33.9520   28.9540   48.9070 C   0  0  0  0  0  0  0  0  0  0  0  0
   33.0240   27.9600   48.9390 N   0  0  0  0  0  0  0  0  0  0  0  0
   32.5850   27.3130   47.8430 C   0  0  0  0  0  0  0  0  0  0  0  0
   33.0840   27.6590   46.6450 N   0  0  0  0  0  0  0  0  0  0  0  0
   35.2040   30.0870   47.5560 H   0  0  0  0  0  0  0  0  0  0  0  0
   31.8430   26.5380   47.9880 H   0  0  0  0  0  0  0  0  0  0  0  0
   34.4400   29.6710   50.1110 C   0  0  0  0  0  0  0  0  0  0  0  0
   33.3570   29.7680   50.9490 F   0  0  0  0  0  0  0  0  0  0  0  0
   35.4390   28.9660   50.7690 F   0  0  0  0  0  0  0  0  0  0  0  0
   34.8770   30.9490   49.8160 F   0  0  0  0  0  0  0  0  0  0  0  0
  1 17  1  0  0  0  0
  2  1  1  0  0  0  0
  2  6  1  0  0  0  0
  3  2  2  0  0  0  0
  4  3  1  0  0  0  0
  4  5  1  0  0  0  0
  5  1  2  0  0  0  0
  7  3  1  0  0  0  0
  9  8  1  0  0  0  0
  9 10  1  0  0  0  0
 10  4  1  0  0  0  0
 11 10  2  0  0  0  0
 11 12  1  0  0  0  0
 13 11  1  0  0  0  0
 14 13  1  0  0  0  0
 15 16  1  0  0  0  0
 15 13  2  0  0  0  0
 16  9  2  0  0  0  0
 17 22  2  0  0  0  0
 17 18  1  0  0  0  0
 18 19  2  0  0  0  0
 19 20  1  0  0  0  0
 19 25  1  0  0  0  0
 21 24  1  0  0  0  0
 21 20  2  0  0  0  0
 22 21  1  0  0  0  0
 23 18  1  0  0  0  0
 25 27  1  0  0  0  0
 25 26  1  0  0  0  0
 28 25  1  0  0  0  0
M  END
>  <minimizedAffinity>
-3.65091968

>  <minimizedRMSD>
5.22874451

$$$$
