
 OpenBabel03262521093D

 24 25  0  0  0  0  0  0  0  0999 V2000
   35.4080   30.2660   46.2450 O   0  0  0  0  0  0  0  0  0  0  0  0
   34.2450   29.8880   47.1530 P   0  0  1  0  0  0  0  0  0  0  0  0
   34.1110   28.1950   47.2470 O   0  0  0  0  0  0  0  0  0  0  0  0
   33.5550   27.8150   46.5390 H   0  0  0  0  0  0  0  0  0  0  0  0
   34.4790   30.4400   48.7590 O   0  0  0  0  0  0  0  0  0  0  0  0
   35.6910   30.3450   49.4080 C   0  0  0  0  0  0  0  0  0  0  0  0
   36.1550   29.2280   50.1170 C   0  0  0  0  0  0  0  0  0  0  0  0
   37.4090   29.2830   50.7240 C   0  0  0  0  0  0  0  0  0  0  0  0
   38.1420   30.4370   50.6010 N   0  0  0  0  0  0  0  0  0  0  0  0
   37.6610   31.5030   49.9030 C   0  0  0  0  0  0  0  0  0  0  0  0
   36.4410   31.4640   49.3070 N   0  0  0  0  0  0  0  0  0  0  0  0
   35.5080   28.3850   50.1520 H   0  0  0  0  0  0  0  0  0  0  0  0
   37.7650   28.4250   51.2690 H   0  0  0  0  0  0  0  0  0  0  0  0
   38.2650   32.4090   49.8200 H   0  0  0  0  0  0  0  0  0  0  0  0
   32.8700   30.5820   46.4790 O   0  0  0  0  0  0  0  0  0  0  0  0
   31.8230   32.8040   45.3810 F   0  0  0  0  0  0  0  0  0  0  0  0
   32.1410   31.7230   44.6330 C   0  0  0  0  0  0  0  0  0  0  0  0
   32.6880   30.5240   45.1010 C   0  0  0  0  0  0  0  0  0  0  0  0
   32.9670   29.4960   44.2250 C   0  0  0  0  0  0  0  0  0  0  0  0
   33.3850   28.6270   44.7100 H   0  0  0  0  0  0  0  0  0  0  0  0
   32.6970   29.6710   42.8780 C   0  0  0  0  0  0  0  0  0  0  0  0
   32.9390   28.8240   42.2430 H   0  0  0  0  0  0  0  0  0  0  0  0
   32.1570   30.8540   42.4140 C   0  0  0  0  0  0  0  0  0  0  0  0
   31.8690   31.9030   43.2810 C   0  0  0  0  0  0  0  0  0  0  0  0
  2  1  2  6  0  0  0
  2  3  1  0  0  0  0
  2  5  1  0  0  0  0
  4  3  1  0  0  0  0
  5  6  1  0  0  0  0
  6  7  1  0  0  0  0
  7 12  1  0  0  0  0
  7  8  2  0  0  0  0
  8 13  1  0  0  0  0
  9  8  1  0  0  0  0
 10  9  2  0  0  0  0
 11  6  2  0  0  0  0
 11 10  1  0  0  0  0
 14 10  1  0  0  0  0
 15  2  1  0  0  0  0
 17 18  1  0  0  0  0
 17 16  1  0  0  0  0
 18 15  1  0  0  0  0
 19 20  1  0  0  0  0
 19 18  2  0  0  0  0
 21 19  1  0  0  0  0
 22 21  1  0  0  0  0
 23 21  2  0  0  0  0
 23 24  1  0  0  0  0
 24 17  2  0  0  0  0
M  END
>  <minimizedAffinity>
-3.82406569

>  <minimizedRMSD>
2.54734254

$$$$
