
 OpenBabel03262522573D

 25 27  0  0  0  0  0  0  0  0999 V2000
   34.4560   28.9940   48.5350 C   0  0  0  0  0  0  0  0  0  0  0  0
   35.1100   28.3870   49.5790 C   0  0  0  0  0  0  0  0  0  0  0  0
   36.3050   28.9870   49.7780 C   0  0  0  0  0  0  0  0  0  0  0  0
   36.4000   29.9890   48.8410 N   0  0  0  0  0  0  0  0  0  0  0  0
   35.2740   29.9640   48.1140 N   0  0  0  0  0  0  0  0  0  0  0  0
   34.7900   27.5690   50.1800 H   0  0  0  0  0  0  0  0  0  0  0  0
   37.1460   28.8760   50.4510 H   0  0  0  0  0  0  0  0  0  0  0  0
   31.5320   28.7790   46.3220 C   0  0  0  0  0  0  0  0  0  0  0  0
   30.6520   27.9640   47.1040 C   0  0  0  0  0  0  0  0  0  0  0  0
   31.0840   27.5090   48.3700 C   0  0  0  0  0  0  0  0  0  0  0  0
   32.3240   27.8770   48.7730 N   0  0  0  0  0  0  0  0  0  0  0  0
   33.1420   28.6600   47.9970 C   0  0  0  0  0  0  0  0  0  0  0  0
   32.7410   29.0880   46.8100 N   0  0  0  0  0  0  0  0  0  0  0  0
   31.2000   29.1230   45.3590 H   0  0  0  0  0  0  0  0  0  0  0  0
   29.6800   27.6880   46.7640 H   0  0  0  0  0  0  0  0  0  0  0  0
   30.4330   26.9010   48.9600 H   0  0  0  0  0  0  0  0  0  0  0  0
   36.5520   32.2210   50.4020 F   0  0  0  0  0  0  0  0  0  0  0  0
   37.3780   32.0930   49.3240 C   0  0  0  0  0  0  0  0  0  0  0  0
   37.3530   30.9830   48.4870 C   0  0  0  0  0  0  0  0  0  0  0  0
   38.2170   30.9050   47.4030 C   0  0  0  0  0  0  0  0  0  0  0  0
   38.1500   30.0190   46.7910 H   0  0  0  0  0  0  0  0  0  0  0  0
   39.0830   31.9680   47.2060 C   0  0  0  0  0  0  0  0  0  0  0  0
   39.7480   31.8860   46.3540 H   0  0  0  0  0  0  0  0  0  0  0  0
   39.1030   33.0670   48.0390 C   0  0  0  0  0  0  0  0  0  0  0  0
   38.2360   33.1390   49.1220 C   0  0  0  0  0  0  0  0  0  0  0  0
  1  2  1  0  0  0  0
  2  3  2  0  0  0  0
  2  6  1  0  0  0  0
  3  7  1  0  0  0  0
  4  3  1  0  0  0  0
  5  1  2  0  0  0  0
  5  4  1  0  0  0  0
  8 13  2  0  0  0  0
  8  9  1  0  0  0  0
  9 10  2  0  0  0  0
 10 11  1  0  0  0  0
 10 16  1  0  0  0  0
 12  1  1  0  0  0  0
 12 11  2  0  0  0  0
 13 12  1  0  0  0  0
 14  8  1  0  0  0  0
 15  9  1  0  0  0  0
 18 17  1  0  0  0  0
 19  4  1  0  0  0  0
 19 18  2  0  0  0  0
 20 19  1  0  0  0  0
 21 20  1  0  0  0  0
 22 20  2  0  0  0  0
 22 24  1  0  0  0  0
 23 22  1  0  0  0  0
 24 25  2  0  0  0  0
 25 18  1  0  0  0  0
M  END
>  <minimizedAffinity>
-5.88980341

>  <minimizedRMSD>
6.69631958

$$$$
