
 OpenBabel03272507523D

 32 34  0  0  0  0  0  0  0  0999 V2000
   36.4970   31.2910   48.8310 N   0  0  0  0  0  0  0  0  0  0  0  0
   36.6940   32.1550   49.8190 C   0  0  0  0  0  0  0  0  0  0  0  0
   37.7720   33.0390   49.7780 C   0  0  0  0  0  0  0  0  0  0  0  0
   38.5560   32.9210   48.6710 C   0  0  0  0  0  0  0  0  0  0  0  0
   39.5380   33.7270   48.6350 O   0  0  0  0  0  0  0  0  0  0  0  0
   38.3970   32.0730   47.6610 N   0  0  0  0  0  0  0  0  0  0  0  0
   37.3360   31.2440   47.7580 C   0  0  0  0  0  0  0  0  0  0  0  0
   37.1710   30.4270   46.7990 O   0  0  0  0  0  0  0  0  0  0  0  0
   36.0120   32.1760   50.6670 H   0  0  0  0  0  0  0  0  0  0  0  0
   37.9540   33.7550   50.5730 H   0  0  0  0  0  0  0  0  0  0  0  0
   39.6360   34.3110   46.4640 F   0  0  0  0  0  0  0  0  0  0  0  0
   39.8830   33.0950   45.9340 C   0  0  0  0  0  0  0  0  0  0  0  0
   39.2690   32.0140   46.5300 C   0  0  0  0  0  0  0  0  0  0  0  0
   39.4360   30.7310   46.0890 C   0  0  0  0  0  0  0  0  0  0  0  0
   38.9930   29.8340   46.5010 H   0  0  0  0  0  0  0  0  0  0  0  0
   40.2550   30.4600   44.9920 C   0  0  0  0  0  0  0  0  0  0  0  0
   40.4270   29.4640   44.5940 H   0  0  0  0  0  0  0  0  0  0  0  0
   40.8810   31.5450   44.3780 C   0  0  0  0  0  3  0  0  0  0  0  0
   40.7020   32.8310   44.8350 C   0  0  0  0  0  3  0  0  0  0  0  0
   35.2130   29.5720   49.9690 C   0  0  0  0  0  0  0  0  0  0  0  0
   35.4080   30.3540   48.8150 C   0  0  0  0  0  0  0  0  0  0  0  0
   34.5450   30.1860   47.7220 C   0  0  0  0  0  0  0  0  0  0  0  0
   33.5620   29.2690   47.8340 N   0  0  0  0  0  0  0  0  0  0  0  0
   33.3780   28.5320   48.9180 C   0  0  0  0  0  0  0  0  0  0  0  0
   34.1970   28.6830   49.9720 N   0  0  0  0  0  0  0  0  0  0  0  0
   34.8050   30.8370   46.9220 H   0  0  0  0  0  0  0  0  0  0  0  0
   32.5690   27.8100   48.9500 H   0  0  0  0  0  0  0  0  0  0  0  0
   37.3420   29.2210   51.4320 C   0  0  0  0  0  0  0  0  0  0  0  0
   38.0360   28.6090   50.5930 O   0  0  0  0  0  0  0  0  0  0  0  0
   36.0100   29.6690   51.1300 N   0  0  0  0  0  0  0  0  0  0  0  0
   37.8080   29.3870   52.3880 H   0  0  0  0  0  0  0  0  0  0  0  0
   35.5930   30.1610   51.9760 H   0  0  0  0  0  0  0  0  0  0  0  0
  1  2  1  0  0  0  0
  2  9  1  0  0  0  0
  3  2  2  0  0  0  0
  3 10  1  0  0  0  0
  4  3  1  0  0  0  0
  5  4  2  0  0  0  0
  6  7  1  0  0  0  0
  6  4  1  0  0  0  0
  7  1  1  0  0  0  0
  8  7  2  0  0  0  0
 12 11  1  0  0  0  0
 12 13  1  0  0  0  0
 13  6  1  0  0  0  0
 14 15  1  0  0  0  0
 14 13  2  0  0  0  0
 16 14  1  0  0  0  0
 17 16  1  0  0  0  0
 18 19  1  0  0  0  0
 18 16  2  0  0  0  0
 19 12  2  0  0  0  0
 20 25  1  0  0  0  0
 20 30  1  0  0  0  0
 21  1  1  0  0  0  0
 21 20  2  0  0  0  0
 22 23  2  0  0  0  0
 22 21  1  0  0  0  0
 23 24  1  0  0  0  0
 24 27  1  0  0  0  0
 24 25  2  0  0  0  0
 26 22  1  0  0  0  0
 28 31  1  0  0  0  0
 29 28  2  0  0  0  0
 30 28  1  0  0  0  0
 30 32  1  0  0  0  0
M  END
>  <minimizedAffinity>
-6.07622814

>  <minimizedRMSD>
1.04662514

$$$$
