
 OpenBabel03272510113D

 35 38  0  0  0  0  0  0  0  0999 V2000
   33.5910   28.3850   48.5460 C   0  0  0  0  0  0  0  0  0  0  0  0
   34.5040   28.0970   49.4960 C   0  0  0  0  0  0  0  0  0  0  0  0
   35.5420   28.9120   49.8610 C   0  0  0  0  0  0  0  0  0  0  0  0
   35.7170   30.1130   49.2580 C   0  0  0  0  0  0  0  0  0  0  0  0
   34.7780   30.4330   48.2650 C   0  0  0  0  0  0  0  0  0  0  0  0
   33.7730   29.5950   47.9420 N   0  0  0  0  0  0  0  0  0  0  0  0
   34.4420   27.1570   50.0300 H   0  0  0  0  0  0  0  0  0  0  0  0
   36.2710   28.6640   50.6320 H   0  0  0  0  0  0  0  0  0  0  0  0
   34.7970   31.3550   47.7050 H   0  0  0  0  0  0  0  0  0  0  0  0
   31.2190   27.6120   48.7250 C   0  0  0  0  0  0  0  0  0  0  0  0
   32.4990   27.5380   48.1520 C   0  0  0  0  0  0  0  0  0  0  0  0
   32.6720   26.5920   47.1640 C   0  0  0  0  0  0  0  0  0  0  0  0
   31.6320   25.7910   46.7930 N   0  0  0  0  0  0  0  0  0  0  0  0
   30.4280   25.9120   47.3830 C   0  0  0  0  0  0  0  0  0  0  0  0
   30.2010   26.8250   48.3580 N   0  0  0  0  0  0  0  0  0  0  0  0
   31.0370   28.3440   49.5080 H   0  0  0  0  0  0  0  0  0  0  0  0
   33.6450   26.5130   46.7060 H   0  0  0  0  0  0  0  0  0  0  0  0
   29.7160   25.2080   46.9780 H   0  0  0  0  0  0  0  0  0  0  0  0
   36.7140   31.0620   49.5050 O   0  0  0  0  0  0  0  0  0  0  0  0
   37.5280   31.5410   48.4890 C   0  0  0  0  0  0  0  0  0  0  0  0
   38.3900   32.5760   48.8630 C   0  0  0  0  0  0  0  0  0  0  0  0
   39.1300   32.9400   47.7450 C   0  0  0  0  0  0  0  0  0  0  0  0
   38.7040   32.1380   46.7610 N   0  0  0  0  0  0  0  0  0  0  0  0
   37.7720   31.3200   47.1850 N   0  0  0  0  0  0  0  0  0  0  0  0
   38.5770   33.1100   49.7950 H   0  0  0  0  0  0  0  0  0  0  0  0
   39.9000   33.6830   47.5790 H   0  0  0  0  0  0  0  0  0  0  0  0
   40.9990   30.7900   45.9650 F   0  0  0  0  0  0  0  0  0  0  0  0
   40.2660   31.4080   45.0050 C   0  0  0  0  0  0  0  0  0  0  0  0
   39.1270   32.0780   45.3870 C   0  0  0  0  0  0  0  0  0  0  0  0
   38.3680   32.7130   44.4240 C   0  0  0  0  0  0  0  0  0  0  0  0
   37.4590   33.2620   44.6370 H   0  0  0  0  0  0  0  0  0  0  0  0
   38.7750   32.6550   43.1070 C   0  0  0  0  0  0  0  0  0  0  0  0
   38.1830   33.1540   42.3340 H   0  0  0  0  0  0  0  0  0  0  0  0
   39.9070   31.9950   42.6890 C   0  0  0  0  0  3  0  0  0  0  0  0
   40.6450   31.3720   43.6680 C   0  0  0  0  0  3  0  0  0  0  0  0
  1  2  1  0  0  0  0
  2  3  2  0  0  0  0
  2  7  1  0  0  0  0
  3  8  1  0  0  0  0
  4 19  1  0  0  0  0
  4  3  1  0  0  0  0
  5  4  2  0  0  0  0
  6  5  1  0  0  0  0
  6  1  2  0  0  0  0
  9  5  1  0  0  0  0
 10 16  1  0  0  0  0
 11  1  1  0  0  0  0
 11 10  2  0  0  0  0
 12 11  1  0  0  0  0
 13 12  2  0  0  0  0
 13 14  1  0  0  0  0
 14 15  2  0  0  0  0
 15 10  1  0  0  0  0
 17 12  1  0  0  0  0
 18 14  1  0  0  0  0
 20 21  1  0  0  0  0
 20 19  1  0  0  0  0
 21 25  1  0  0  0  0
 22 21  2  0  0  0  0
 23 24  1  0  0  0  0
 23 22  1  0  0  0  0
 24 20  2  0  0  0  0
 26 22  1  0  0  0  0
 28 29  1  0  0  0  0
 28 27  1  0  0  0  0
 29 23  1  0  0  0  0
 30 31  1  0  0  0  0
 30 29  2  0  0  0  0
 32 30  1  0  0  0  0
 33 32  1  0  0  0  0
 34 32  2  0  0  0  0
 34 35  1  0  0  0  0
 35 28  2  0  0  0  0
M  END
>  <minimizedAffinity>
-6.22987127

>  <minimizedRMSD>
2.29588914

$$$$
