
     RDKit          3D

 17 17  0  0  0  0  0  0  0  0999 V2000
   45.1720   35.9910   43.2980 C   0  0  0  0  0  0  0  0  0  0  0  0
   45.9350   34.8360   43.0610 C   0  0  0  0  0  0  0  0  0  0  0  0
   46.0320   33.9140   44.0990 C   0  0  0  0  0  0  0  0  0  0  0  0
   45.3870   34.1860   45.2720 N   0  0  0  0  0  0  0  0  0  0  0  0
   44.6690   35.3000   45.4560 C   0  0  0  0  0  0  0  0  0  0  0  0
   44.5530   36.2130   44.4770 N   0  0  0  0  0  0  0  0  0  0  0  0
   46.5710   34.6630   41.7740 C   0  0  0  0  0  0  0  0  0  0  0  0
   48.0440   34.3680   41.9950 C   0  0  0  0  0  0  0  0  0  0  0  0
   49.0900   35.7850   41.6590 S   0  0  0  0  0  0  0  0  0  0  0  0
   45.0756   36.7389   42.4971 H   0  0  0  0  0  0  0  0  0  0  0  0
   46.6141   32.9885   43.9777 H   0  0  0  0  0  0  0  0  0  0  0  0
   44.1677   35.4704   46.4202 H   0  0  0  0  0  0  0  0  0  0  0  0
   46.4626   35.5830   41.1808 H   0  0  0  0  0  0  0  0  0  0  0  0
   46.0992   33.8305   41.2315 H   0  0  0  0  0  0  0  0  0  0  0  0
   48.1890   34.0637   43.0421 H   0  0  0  0  0  0  0  0  0  0  0  0
   48.3318   33.5687   41.2962 H   0  0  0  0  0  0  0  0  0  0  0  0
   49.5002   36.3406   42.8422 H   0  0  0  0  0  0  0  0  0  0  0  0
  1  6  2  0
  2  1  1  0
  2  3  2  0
  3  4  1  0
  4  5  2  0
  6  5  1  0
  7  8  1  0
  7  2  1  0
  9  8  1  0
  1 10  1  0
  3 11  1  0
  5 12  1  0
  7 13  1  0
  7 14  1  0
  8 15  1  0
  8 16  1  0
  9 17  1  0
M  ISO  8  10  14  11  14  12  14  13   8  14   8  15   8  16   8  17  11
M  END
>  <minimizedAffinity>  (1) 
-3.26799989

>  <minimizedRMSD>  (1) 
1.21423745

$$$$
