
     RDKit          3D

 32 33  0  0  0  0  0  0  0  0999 V2000
   47.5490   34.7380   41.4670 C   0  0  0  0  0  0  0  0  0  0  0  0
   48.1270   33.8620   40.4560 C   0  0  0  0  0  0  0  0  0  0  0  0
   47.7480   33.8590   39.1520 C   0  0  0  0  0  0  0  0  0  0  0  0
   48.4820   32.9340   38.5050 N   0  0  0  0  0  0  0  0  0  0  0  0
   49.3230   32.3550   39.3990 C   0  0  0  0  0  0  0  0  0  0  0  0
   49.0940   32.9350   40.5980 N   0  0  0  0  0  0  0  0  0  0  0  0
   49.7980   32.5880   41.8180 C   0  0  0  0  0  0  0  0  0  0  0  0
   50.4780   33.7870   42.4410 C   0  0  0  0  0  0  0  0  0  0  0  0
   48.7820   31.9940   42.8010 C   0  0  0  0  0  0  0  0  0  0  0  0
   46.0080   34.6550   41.4890 C   0  0  0  0  0  0  0  0  0  0  0  0
   45.0300   36.0200   43.2790 C   0  0  0  0  0  0  0  0  0  0  0  0
   45.5940   34.7970   42.8670 C   0  0  0  0  0  0  0  0  0  0  0  0
   45.7150   33.7960   43.8270 C   0  0  0  0  0  0  0  0  0  0  0  0
   45.2840   34.0560   45.1060 N   0  0  0  0  0  0  0  0  0  0  0  0
   44.7540   35.2470   45.4350 C   0  0  0  0  0  0  0  0  0  0  0  0
   44.6130   36.2530   44.5410 N   0  0  0  0  0  0  0  0  0  0  0  0
   47.8460   35.7748   41.2508 H   0  0  0  0  0  0  0  0  0  0  0  0
   47.9214   34.4151   42.4504 H   0  0  0  0  0  0  0  0  0  0  0  0
   46.9758   34.5006   38.7025 H   0  0  0  0  0  0  0  0  0  0  0  0
   50.0547   31.5615   39.1872 H   0  0  0  0  0  0  0  0  0  0  0  0
   50.5870   31.8599   41.5786 H   0  0  0  0  0  0  0  0  0  0  0  0
   50.4321   33.7061   43.5371 H   0  0  0  0  0  0  0  0  0  0  0  0
   51.5294   33.8203   42.1195 H   0  0  0  0  0  0  0  0  0  0  0  0
   49.9669   34.7065   42.1195 H   0  0  0  0  0  0  0  0  0  0  0  0
   49.1130   32.1875   43.8320 H   0  0  0  0  0  0  0  0  0  0  0  0
   47.7988   32.4595   42.6381 H   0  0  0  0  0  0  0  0  0  0  0  0
   48.7054   30.9088   42.6381 H   0  0  0  0  0  0  0  0  0  0  0  0
   45.5779   35.4642   40.8805 H   0  0  0  0  0  0  0  0  0  0  0  0
   45.6616   33.6975   41.0729 H   0  0  0  0  0  0  0  0  0  0  0  0
   44.9243   36.8242   42.5360 H   0  0  0  0  0  0  0  0  0  0  0  0
   46.1463   32.8179   43.5675 H   0  0  0  0  0  0  0  0  0  0  0  0
   44.4221   35.4100   46.4710 H   0  0  0  0  0  0  0  0  0  0  0  0
  1 10  1  0
  2  6  1  0
  2  1  1  0
  3  2  2  0
  4  3  1  0
  4  5  2  0
  5  6  1  0
  6  7  1  0
  7  8  1  0
  7  9  1  0
 10 12  1  0
 11 16  2  0
 12 11  1  0
 12 13  2  0
 13 14  1  0
 14 15  2  0
 16 15  1  0
  1 17  1  0
  1 18  1  0
  3 19  1  0
  5 20  1  0
  7 21  1  0
  8 22  1  0
  8 23  1  0
  8 24  1  0
  9 25  1  0
  9 26  1  0
  9 27  1  0
 10 28  1  0
 10 29  1  0
 11 30  1  0
 13 31  1  0
 15 32  1  0
M  ISO  8  17   8  18   8  19  14  20  14  21   8  22   8  23   8  24   8
M  ISO  8  25   8  26   8  27   8  28   8  29   8  30  14  31  14  32  14
M  END
>  <minimizedAffinity>  (1) 
-4.34346151

>  <minimizedRMSD>  (1) 
2.28635859

$$$$
