
     RDKit          3D

 30 32  0  0  0  0  0  0  0  0999 V2000
   47.7890   35.0180   41.7480 C   0  0  0  0  0  0  0  0  0  0  0  0
   48.1830   34.0810   40.7020 C   0  0  0  0  0  0  0  0  0  0  0  0
   47.7430   34.1670   39.4260 C   0  0  0  0  0  0  0  0  0  0  0  0
   48.2920   33.1580   38.7210 N   0  0  0  0  0  0  0  0  0  0  0  0
   49.0860   32.4260   39.5550 C   0  0  0  0  0  0  0  0  0  0  0  0
   48.9960   33.0180   40.7580 N   0  0  0  0  0  0  0  0  0  0  0  0
   49.6780   32.5780   41.9490 C   0  0  0  0  0  0  0  0  0  0  0  0
   50.8320   33.4730   42.3890 C   0  0  0  0  0  0  0  0  0  0  0  0
   51.1310   32.1200   41.8230 C   0  0  0  0  0  0  0  0  0  0  0  0
   46.2780   35.1360   41.8870 C   0  0  0  0  0  0  0  0  0  0  0  0
   44.9580   35.6630   43.8690 C   0  0  0  0  0  0  0  0  0  0  0  0
   45.9130   34.8550   43.2570 C   0  0  0  0  0  0  0  0  0  0  0  0
   46.4500   33.8290   44.0150 C   0  0  0  0  0  0  0  0  0  0  0  0
   46.0250   33.6690   45.2920 N   0  0  0  0  0  0  0  0  0  0  0  0
   45.0880   34.4800   45.8560 C   0  0  0  0  0  0  0  0  0  0  0  0
   44.5520   35.4760   45.1490 N   0  0  0  0  0  0  0  0  0  0  0  0
   48.1993   36.0095   41.5060 H   0  0  0  0  0  0  0  0  0  0  0  0
   48.1834   34.6384   42.7021 H   0  0  0  0  0  0  0  0  0  0  0  0
   47.0553   34.9294   39.0314 H   0  0  0  0  0  0  0  0  0  0  0  0
   49.6775   31.5354   39.2961 H   0  0  0  0  0  0  0  0  0  0  0  0
   48.7748   32.1443   42.4031 H   0  0  0  0  0  0  0  0  0  0  0  0
   51.0770   34.3755   41.8098 H   0  0  0  0  0  0  0  0  0  0  0  0
   51.0929   33.9964   43.3207 H   0  0  0  0  0  0  0  0  0  0  0  0
   51.5139   31.3237   42.4782 H   0  0  0  0  0  0  0  0  0  0  0  0
   51.7566   31.7459   40.9992 H   0  0  0  0  0  0  0  0  0  0  0  0
   45.9608   36.1553   41.6215 H   0  0  0  0  0  0  0  0  0  0  0  0
   45.7837   34.4199   41.2141 H   0  0  0  0  0  0  0  0  0  0  0  0
   44.5149   36.4868   43.2901 H   0  0  0  0  0  0  0  0  0  0  0  0
   47.2081   33.1555   43.5887 H   0  0  0  0  0  0  0  0  0  0  0  0
   44.7725   34.3135   46.8965 H   0  0  0  0  0  0  0  0  0  0  0  0
  1 10  1  0
  2  6  1  0
  2  1  1  0
  3  2  2  0
  4  3  1  0
  4  5  2  0
  5  6  1  0
  6  7  1  0
  7  8  1  0
  9  7  1  0
  9  8  1  0
 10 12  1  0
 11 16  2  0
 12 11  1  0
 12 13  2  0
 13 14  1  0
 14 15  2  0
 16 15  1  0
  1 17  1  0
  1 18  1  0
  3 19  1  0
  5 20  1  0
  7 21  1  0
  8 22  1  0
  8 23  1  0
  9 24  1  0
  9 25  1  0
 10 26  1  0
 10 27  1  0
 11 28  1  0
 13 29  1  0
 15 30  1  0
M  ISO  8  17   8  18   8  19  14  20  14  21  13  22  13  23  13  24  13
M  ISO  6  25  13  26   8  27   8  28  14  29  14  30  14
M  END
>  <minimizedAffinity>  (1) 
-4.42579842

>  <minimizedRMSD>  (1) 
2.40906

$$$$
