
     RDKit          3D

 26 27  0  0  0  0  0  0  0  0999 V2000
   46.6450   34.9140   41.7150 C   0  0  0  0  0  0  0  0  0  0  0  0
   45.1500   35.9750   43.3370 C   0  0  0  0  0  0  0  0  0  0  0  0
   46.0200   34.9320   43.0270 C   0  0  0  0  0  0  0  0  0  0  0  0
   46.2310   33.9740   44.0060 C   0  0  0  0  0  0  0  0  0  0  0  0
   45.5790   34.1100   45.2020 N   0  0  0  0  0  0  0  0  0  0  0  0
   44.7490   35.1400   45.4460 C   0  0  0  0  0  0  0  0  0  0  0  0
   44.5210   36.0880   44.5170 N   0  0  0  0  0  0  0  0  0  0  0  0
   48.1500   34.7850   41.9050 C   0  0  0  0  0  0  0  0  0  0  0  0
   48.7230   33.6480   41.1930 C   0  0  0  0  0  0  0  0  0  0  0  0
   48.0850   33.0410   40.1470 C   0  0  0  0  0  0  0  0  0  0  0  0
   48.8560   32.0310   39.7020 N   0  0  0  0  0  0  0  0  0  0  0  0
   49.9810   32.0020   40.4700 C   0  0  0  0  0  0  0  0  0  0  0  0
   49.8730   32.9970   41.3690 N   0  0  0  0  0  0  0  0  0  0  0  0
   50.8470   33.3380   42.3950 C   0  0  0  0  0  0  0  0  0  0  0  0
   46.4161   35.8480   41.1810 H   0  0  0  0  0  0  0  0  0  0  0  0
   46.2633   34.0680   41.1246 H   0  0  0  0  0  0  0  0  0  0  0  0
   44.9691   36.7467   42.5742 H   0  0  0  0  0  0  0  0  0  0  0  0
   46.9063   33.1245   43.8263 H   0  0  0  0  0  0  0  0  0  0  0  0
   44.2472   35.2093   46.4224 H   0  0  0  0  0  0  0  0  0  0  0  0
   48.6289   35.7048   41.5382 H   0  0  0  0  0  0  0  0  0  0  0  0
   48.3318   34.6246   42.9779 H   0  0  0  0  0  0  0  0  0  0  0  0
   47.1057   33.3296   39.7376 H   0  0  0  0  0  0  0  0  0  0  0  0
   50.8201   31.2973   40.3732 H   0  0  0  0  0  0  0  0  0  0  0  0
   50.4023   33.1823   43.3890 H   0  0  0  0  0  0  0  0  0  0  0  0
   51.7343   32.6970   42.2858 H   0  0  0  0  0  0  0  0  0  0  0  0
   51.1407   34.3924   42.2858 H   0  0  0  0  0  0  0  0  0  0  0  0
  1  8  1  0
  1  3  1  0
  2  7  2  0
  3  2  1  0
  3  4  2  0
  4  5  1  0
  5  6  2  0
  7  6  1  0
  9 13  1  0
  9  8  1  0
 10  9  2  0
 11 10  1  0
 11 12  2  0
 12 13  1  0
 13 14  1  0
  1 15  1  0
  1 16  1  0
  2 17  1  0
  4 18  1  0
  6 19  1  0
  8 20  1  0
  8 21  1  0
 10 22  1  0
 12 23  1  0
 14 24  1  0
 14 25  1  0
 14 26  1  0
M  ISO  8  15   8  16   8  17  14  18  14  19  14  20   8  21   8  22  14
M  ISO  4  23  14  24   8  25   8  26   8
M  END
>  <minimizedAffinity>  (1) 
-4.1639924

>  <minimizedRMSD>  (1) 
1.34039521

$$$$
