
     RDKit          3D

 29 30  0  0  0  0  0  0  0  0999 V2000
   46.6640   34.7690   42.0420 C   0  0  0  0  0  0  0  0  0  0  0  0
   47.9350   35.2960   41.9520 C   0  0  0  0  0  0  0  0  0  0  0  0
   48.7050   35.1800   40.7960 C   0  0  0  0  0  0  0  0  0  0  0  0
   48.1850   34.5130   39.6940 C   0  0  0  0  0  0  0  0  0  0  0  0
   46.9030   33.9820   39.7900 C   0  0  0  0  0  0  0  0  0  0  0  0
   46.1550   34.1110   40.9520 C   0  0  0  0  0  0  0  0  0  0  0  0
   44.4510   36.1020   44.7860 C   0  0  0  0  0  0  0  0  0  0  0  0
   45.0930   36.0390   43.5420 C   0  0  0  0  0  0  0  0  0  0  0  0
   45.9410   34.9510   43.2870 C   0  0  0  0  0  0  0  0  0  0  0  0
   46.1010   34.0160   44.2390 N   0  0  0  0  0  0  0  0  0  0  0  0
   45.4550   34.1170   45.4370 C   0  0  0  0  0  0  0  0  0  0  0  0
   44.6390   35.1480   45.7070 N   0  0  0  0  0  0  0  0  0  0  0  0
   44.7970   33.5370   41.0250 C   0  0  0  0  0  0  0  0  0  0  0  0
   43.7240   34.5620   41.2560 C   0  0  0  0  0  0  0  0  0  0  0  0
   44.7710   32.4460   42.0820 C   0  0  0  0  0  0  0  0  0  0  0  0
   48.3547   35.8249   42.8204 H   0  0  0  0  0  0  0  0  0  0  0  0
   49.7155   35.6128   40.7567 H   0  0  0  0  0  0  0  0  0  0  0  0
   48.7718   34.4075   38.7696 H   0  0  0  0  0  0  0  0  0  0  0  0
   46.4737   33.4496   38.9284 H   0  0  0  0  0  0  0  0  0  0  0  0
   43.7831   36.9470   45.0093 H   0  0  0  0  0  0  0  0  0  0  0  0
   44.9362   36.8220   42.7855 H   0  0  0  0  0  0  0  0  0  0  0  0
   45.6063   33.3368   46.1975 H   0  0  0  0  0  0  0  0  0  0  0  0
   44.5654   33.1026   40.0413 H   0  0  0  0  0  0  0  0  0  0  0  0
   43.5774   34.7021   42.3371 H   0  0  0  0  0  0  0  0  0  0  0  0
   44.0247   35.5168   40.8000 H   0  0  0  0  0  0  0  0  0  0  0  0
   42.7840   34.2179   40.8000 H   0  0  0  0  0  0  0  0  0  0  0  0
   44.7819   32.9040   43.0820 H   0  0  0  0  0  0  0  0  0  0  0  0
   43.8582   31.8434   41.9646 H   0  0  0  0  0  0  0  0  0  0  0  0
   45.6540   31.8006   41.9646 H   0  0  0  0  0  0  0  0  0  0  0  0
  1  9  1  0
  2  1  2  0
  3  2  1  0
  4  5  1  0
  4  3  2  0
  5  6  2  0
  6 13  1  0
  6  1  1  0
  7 12  2  0
  8  7  1  0
  9  8  2  0
  9 10  1  0
 10 11  2  0
 11 12  1  0
 13 14  1  0
 13 15  1  0
  2 16  1  0
  3 17  1  0
  4 18  1  0
  5 19  1  0
  7 20  1  0
  8 21  1  0
 11 22  1  0
 13 23  1  0
 14 24  1  0
 14 25  1  0
 14 26  1  0
 15 27  1  0
 15 28  1  0
 15 29  1  0
M  ISO  8  16  14  17  14  18  14  19  14  20  14  21  14  22  14  23   8
M  ISO  6  24   8  25   8  26   8  27   8  28   8  29   8
M  END
>  <minimizedAffinity>  (1) 
-5.26450539

>  <minimizedRMSD>  (1) 
0.189407691

$$$$
