
     RDKit          3D

 42 45  0  0  1  0  0  0  0  0999 V2000
   46.3760   34.4350   41.3890 C   0  0  0  0  0  0  0  0  0  0  0  0
   45.3590   33.9530   40.5040 C   0  0  0  0  0  0  0  0  0  0  0  0
   44.0300   34.0620   40.8040 C   0  0  0  0  0  0  0  0  0  0  0  0
   43.3230   33.5300   39.7850 N   0  0  0  0  0  0  0  0  0  0  0  0
   44.1760   33.0950   38.8590 C   0  0  0  0  0  0  0  0  0  0  0  0
   45.4110   33.3590   39.3080 N   0  0  0  0  0  0  0  0  0  0  0  0
   47.1990   34.1950   37.9000 N   0  0  0  0  0  0  0  0  0  0  0  0
   48.5360   33.7820   37.5570 C   0  0  0  0  0  0  0  0  0  0  0  0
   48.8520   32.6070   38.3900 C   0  0  0  0  0  0  0  0  0  0  0  0
   47.7300   32.6090   39.4590 C   0  0  0  0  0  0  0  0  0  0  0  0
   46.6700   33.0890   38.6450 C   0  0  1  0  0  0  0  0  0  0  0  0
   45.8040   35.3550   42.4780 C   0  0  0  0  0  0  0  0  0  0  0  0
   46.8760   33.7030   43.8730 C   0  0  0  0  0  0  0  0  0  0  0  0
   45.8800   34.6700   43.7410 C   0  0  0  0  0  0  0  0  0  0  0  0
   45.0380   34.8710   44.8200 C   0  0  0  0  0  0  0  0  0  0  0  0
   45.2240   34.1210   45.9420 N   0  0  0  0  0  0  0  0  0  0  0  0
   46.1990   33.1930   46.0330 C   0  0  0  0  0  0  0  0  0  0  0  0
   47.0340   32.9780   44.9970 N   0  0  0  0  0  0  0  0  0  0  0  0
   46.3140   32.4460   47.2750 C   0  0  0  0  0  0  0  0  0  0  0  0
   45.2140   32.3350   48.1010 C   0  0  0  0  0  0  0  0  0  0  0  0
   45.6250   31.5770   49.1890 C   0  0  0  0  0  0  0  0  0  0  0  0
   46.9420   31.2740   48.9610 C   0  0  0  0  0  0  0  0  0  0  0  0
   47.3170   31.8070   47.8120 O   0  0  0  0  0  0  0  0  0  0  0  0
   47.1187   34.9970   40.8037 H   0  0  0  0  0  0  0  0  0  0  0  0
   46.8339   33.5664   41.8848 H   0  0  0  0  0  0  0  0  0  0  0  0
   43.6094   34.5065   41.7180 H   0  0  0  0  0  0  0  0  0  0  0  0
   43.9161   32.6108   37.9061 H   0  0  0  0  0  0  0  0  0  0  0  0
   46.6401   34.3649   37.0517 H   0  0  0  0  0  0  0  0  0  0  0  0
   48.5868   33.5141   36.4913 H   0  0  0  0  0  0  0  0  0  0  0  0
   49.2556   34.5946   37.7358 H   0  0  0  0  0  0  0  0  0  0  0  0
   48.8249   31.6833   37.7933 H   0  0  0  0  0  0  0  0  0  0  0  0
   49.8604   32.6506   38.8273 H   0  0  0  0  0  0  0  0  0  0  0  0
   47.5286   31.6013   39.8513 H   0  0  0  0  0  0  0  0  0  0  0  0
   47.9365   33.1909   40.3693 H   0  0  0  0  0  0  0  0  0  0  0  0
   46.3481   32.2781   37.9751 H   0  0  0  0  0  0  0  0  0  0  0  0
   46.3905   36.2844   42.5242 H   0  0  0  0  0  0  0  0  0  0  0  0
   44.7580   35.6061   42.2479 H   0  0  0  0  0  0  0  0  0  0  0  0
   47.5577   33.5258   43.0281 H   0  0  0  0  0  0  0  0  0  0  0  0
   44.2347   35.6210   44.7730 H   0  0  0  0  0  0  0  0  0  0  0  0
   44.2140   32.7609   47.9316 H   0  0  0  0  0  0  0  0  0  0  0  0
   45.0177   31.2802   50.0568 H   0  0  0  0  0  0  0  0  0  0  0  0
   47.5846   30.6812   49.6286 H   0  0  0  0  0  0  0  0  0  0  0  0
  1 12  1  0
  2  3  2  0
  2  1  1  0
  4  3  1  0
  5  6  1  0
  5  4  2  0
  6  2  1  0
  7 11  1  0
  8  7  1  0
  8  9  1  0
  9 10  1  0
 11  6  1  0
 11 10  1  0
 12 14  1  0
 13 18  2  0
 14 13  1  0
 14 15  2  0
 15 16  1  0
 16 17  2  0
 17 19  1  0
 18 17  1  0
 19 23  1  0
 19 20  2  0
 20 21  1  0
 22 21  2  0
 23 22  1  0
  1 24  1  0
  1 25  1  0
  3 26  1  0
  5 27  1  0
  7 28  1  0
  8 29  1  0
  8 30  1  0
  9 31  1  0
  9 32  1  0
 10 33  1  0
 10 34  1  0
 11 35  1  6
 12 36  1  0
 12 37  1  0
 13 38  1  0
 15 39  1  0
 20 40  1  0
 21 41  1  0
 22 42  1  0
M  ISO  8  24   8  25   8  26  14  27  14  28   5  29  13  30  13  31  13
M  ISO  8  32  13  33  13  34  13  35  13  36   8  37   8  38  14  39  14
M  ISO  3  40  14  41  14  42  14
M  END
>  <minimizedAffinity>  (1) 
-5.63084984

>  <minimizedRMSD>  (1) 
2.4315021

$$$$
