
     RDKit          3D

 42 45  0  0  1  0  0  0  0  0999 V2000
   46.6330   34.3070   41.2590 C   0  0  0  0  0  0  0  0  0  0  0  0
   45.5540   33.8710   40.3940 C   0  0  0  0  0  0  0  0  0  0  0  0
   44.2330   33.9790   40.7590 C   0  0  0  0  0  0  0  0  0  0  0  0
   43.4950   33.4990   39.7440 N   0  0  0  0  0  0  0  0  0  0  0  0
   44.3120   33.1010   38.7720 C   0  0  0  0  0  0  0  0  0  0  0  0
   45.5690   33.3320   39.1770 N   0  0  0  0  0  0  0  0  0  0  0  0
   47.4190   34.2070   37.8680 N   0  0  0  0  0  0  0  0  0  0  0  0
   48.7100   33.7150   37.4650 C   0  0  0  0  0  0  0  0  0  0  0  0
   49.0100   32.4880   38.2510 C   0  0  0  0  0  0  0  0  0  0  0  0
   47.7790   32.3690   39.1870 C   0  0  0  0  0  0  0  0  0  0  0  0
   46.7920   33.0600   38.4580 C   0  0  1  0  0  0  0  0  0  0  0  0
   46.1550   35.3120   42.2900 C   0  0  0  0  0  0  0  0  0  0  0  0
   46.9880   33.6330   43.8580 C   0  0  0  0  0  0  0  0  0  0  0  0
   46.0910   34.6470   43.5650 C   0  0  0  0  0  0  0  0  0  0  0  0
   45.1300   34.9740   44.5330 C   0  0  0  0  0  0  0  0  0  0  0  0
   45.1400   34.2700   45.7040 N   0  0  0  0  0  0  0  0  0  0  0  0
   46.0370   33.2890   45.9380 C   0  0  0  0  0  0  0  0  0  0  0  0
   46.9660   32.9640   45.0200 N   0  0  0  0  0  0  0  0  0  0  0  0
   45.9710   32.5900   47.2180 C   0  0  0  0  0  0  0  0  0  0  0  0
   47.0120   32.0440   47.9400 C   0  0  0  0  0  0  0  0  0  0  0  0
   46.4760   31.4950   49.0690 N   0  0  0  0  0  0  0  0  0  0  0  0
   45.1300   31.7150   49.0150 C   0  0  0  0  0  0  0  0  0  0  0  0
   44.8300   32.3760   47.8960 N   0  0  0  0  0  0  0  0  0  0  0  0
   47.4169   34.7729   40.6438 H   0  0  0  0  0  0  0  0  0  0  0  0
   47.0214   33.4270   41.7926 H   0  0  0  0  0  0  0  0  0  0  0  0
   43.8505   34.3839   41.7076 H   0  0  0  0  0  0  0  0  0  0  0  0
   44.0104   32.6617   37.8097 H   0  0  0  0  0  0  0  0  0  0  0  0
   46.8827   34.5422   37.0550 H   0  0  0  0  0  0  0  0  0  0  0  0
   48.6978   33.4751   36.3916 H   0  0  0  0  0  0  0  0  0  0  0  0
   49.4800   34.4790   37.6476 H   0  0  0  0  0  0  0  0  0  0  0  0
   49.0956   31.6088   37.5955 H   0  0  0  0  0  0  0  0  0  0  0  0
   49.9655   32.5414   38.7933 H   0  0  0  0  0  0  0  0  0  0  0  0
   47.4969   31.3176   39.3453 H   0  0  0  0  0  0  0  0  0  0  0  0
   47.9482   32.7704   40.1971 H   0  0  0  0  0  0  0  0  0  0  0  0
   46.4081   32.4047   37.6622 H   0  0  0  0  0  0  0  0  0  0  0  0
   46.8596   36.1550   42.3439 H   0  0  0  0  0  0  0  0  0  0  0  0
   45.1643   35.7014   42.0126 H   0  0  0  0  0  0  0  0  0  0  0  0
   47.7477   33.3662   43.1086 H   0  0  0  0  0  0  0  0  0  0  0  0
   44.3927   35.7708   44.3553 H   0  0  0  0  0  0  0  0  0  0  0  0
   48.0754   32.0499   47.6585 H   0  0  0  0  0  0  0  0  0  0  0  0
   44.4040   31.3961   49.7774 H   0  0  0  0  0  0  0  0  0  0  0  0
   43.8879   32.6712   47.6024 H   0  0  0  0  0  0  0  0  0  0  0  0
  1 12  1  0
  2  3  2  0
  2  1  1  0
  4  3  1  0
  5  6  1  0
  5  4  2  0
  6  2  1  0
  7 11  1  0
  8  7  1  0
  8  9  1  0
  9 10  1  0
 11  6  1  0
 11 10  1  0
 12 14  1  0
 13 18  2  0
 14 13  1  0
 14 15  2  0
 15 16  1  0
 16 17  2  0
 17 19  1  0
 18 17  1  0
 19 23  1  0
 19 20  2  0
 20 21  1  0
 22 21  2  0
 23 22  1  0
  1 24  1  0
  1 25  1  0
  3 26  1  0
  5 27  1  0
  7 28  1  0
  8 29  1  0
  8 30  1  0
  9 31  1  0
  9 32  1  0
 10 33  1  0
 10 34  1  0
 11 35  1  6
 12 36  1  0
 12 37  1  0
 13 38  1  0
 15 39  1  0
 20 40  1  0
 22 41  1  0
 23 42  1  0
M  ISO  8  24   8  25   8  26  14  27  14  28   5  29  13  30  13  31  13
M  ISO  8  32  13  33  13  34  13  35  13  36   8  37   8  38  14  39  14
M  ISO  3  40  14  41  14  42   9
M  END
>  <minimizedAffinity>  (1) 
-5.65575743

>  <minimizedRMSD>  (1) 
2.17245698

$$$$
