
     RDKit          3D

 43 46  0  0  1  0  0  0  0  0999 V2000
   46.5960   34.1660   40.8990 C   0  0  0  0  0  0  0  0  0  0  0  0
   45.4690   33.7230   40.0750 C   0  0  0  0  0  0  0  0  0  0  0  0
   44.1770   33.7370   40.5160 C   0  0  0  0  0  0  0  0  0  0  0  0
   43.4040   33.2960   39.5170 N   0  0  0  0  0  0  0  0  0  0  0  0
   44.1790   33.0100   38.4710 C   0  0  0  0  0  0  0  0  0  0  0  0
   45.4410   33.2730   38.8230 N   0  0  0  0  0  0  0  0  0  0  0  0
   47.1320   34.2670   37.3940 N   0  0  0  0  0  0  0  0  0  0  0  0
   48.4410   33.8400   36.9280 C   0  0  0  0  0  0  0  0  0  0  0  0
   48.9450   32.7880   37.8960 C   0  0  0  0  0  0  0  0  0  0  0  0
   47.7290   32.5220   38.7540 C   0  0  0  0  0  0  0  0  0  0  0  0
   46.6220   33.0890   38.0020 C   0  0  1  0  0  0  0  0  0  0  0  0
   46.1340   35.1460   41.9630 C   0  0  0  0  0  0  0  0  0  0  0  0
   47.1390   33.4970   43.4850 C   0  0  0  0  0  0  0  0  0  0  0  0
   46.1860   34.4680   43.2380 C   0  0  0  0  0  0  0  0  0  0  0  0
   45.2640   34.7700   44.2600 C   0  0  0  0  0  0  0  0  0  0  0  0
   45.3750   34.0770   45.4330 N   0  0  0  0  0  0  0  0  0  0  0  0
   46.3250   33.1360   45.6220 C   0  0  0  0  0  0  0  0  0  0  0  0
   47.2060   32.8440   44.6530 N   0  0  0  0  0  0  0  0  0  0  0  0
   46.3880   32.4290   46.9050 C   0  0  0  0  0  0  0  0  0  0  0  0
   45.3720   32.5680   47.8240 C   0  0  0  0  0  0  0  0  0  0  0  0
   45.4500   31.8950   49.0240 C   0  0  0  0  0  0  0  0  0  0  0  0
   46.4810   31.0950   49.3520 N   0  0  0  0  0  0  0  0  0  0  0  0
   47.4700   30.9800   48.4190 C   0  0  0  0  0  0  0  0  0  0  0  0
   47.4180   31.6290   47.2350 N   0  0  0  0  0  0  0  0  0  0  0  0
   47.3417   34.6567   40.2562 H   0  0  0  0  0  0  0  0  0  0  0  0
   47.0362   33.2885   41.3953 H   0  0  0  0  0  0  0  0  0  0  0  0
   43.8338   34.0535   41.5120 H   0  0  0  0  0  0  0  0  0  0  0  0
   43.8415   32.6275   37.4964 H   0  0  0  0  0  0  0  0  0  0  0  0
   46.5373   34.5678   36.6086 H   0  0  0  0  0  0  0  0  0  0  0  0
   48.3597   33.4131   35.9175 H   0  0  0  0  0  0  0  0  0  0  0  0
   49.1351   34.6923   36.8842 H   0  0  0  0  0  0  0  0  0  0  0  0
   49.2630   31.8789   37.3646 H   0  0  0  0  0  0  0  0  0  0  0  0
   49.8258   33.1085   38.4717 H   0  0  0  0  0  0  0  0  0  0  0  0
   47.5859   31.4413   38.9013 H   0  0  0  0  0  0  0  0  0  0  0  0
   47.8213   32.9616   39.7581 H   0  0  0  0  0  0  0  0  0  0  0  0
   46.2553   32.4111   37.2171 H   0  0  0  0  0  0  0  0  0  0  0  0
   46.7977   36.0231   41.9779 H   0  0  0  0  0  0  0  0  0  0  0  0
   45.1108   35.4900   41.7513 H   0  0  0  0  0  0  0  0  0  0  0  0
   47.8661   33.2526   42.6966 H   0  0  0  0  0  0  0  0  0  0  0  0
   44.4851   35.5339   44.1193 H   0  0  0  0  0  0  0  0  0  0  0  0
   44.5066   33.2099   47.6024 H   0  0  0  0  0  0  0  0  0  0  0  0
   44.6308   32.0176   49.7478 H   0  0  0  0  0  0  0  0  0  0  0  0
   48.3367   30.3389   48.6376 H   0  0  0  0  0  0  0  0  0  0  0  0
  1 12  1  0
  2  3  2  0
  2  1  1  0
  4  3  1  0
  5  6  1  0
  5  4  2  0
  6  2  1  0
  7 11  1  0
  8  7  1  0
  8  9  1  0
  9 10  1  0
 11 10  1  0
 11  6  1  0
 12 14  1  0
 13 18  2  0
 14 13  1  0
 14 15  2  0
 15 16  1  0
 16 17  2  0
 17 19  1  0
 18 17  1  0
 19 24  1  0
 19 20  2  0
 20 21  1  0
 21 22  2  0
 23 22  1  0
 24 23  2  0
  1 25  1  0
  1 26  1  0
  3 27  1  0
  5 28  1  0
  7 29  1  0
  8 30  1  0
  8 31  1  0
  9 32  1  0
  9 33  1  0
 10 34  1  0
 10 35  1  0
 11 36  1  6
 12 37  1  0
 12 38  1  0
 13 39  1  0
 15 40  1  0
 20 41  1  0
 21 42  1  0
 23 43  1  0
M  ISO  8  25   8  26   8  27  14  28  14  29   5  30  13  31  13  32  13
M  ISO  8  33  13  34  13  35  13  36  13  37   8  38   8  39  14  40  14
M  ISO  3  41  14  42  14  43  14
M  END
>  <minimizedAffinity>  (1) 
-5.57874155

>  <minimizedRMSD>  (1) 
2.47122192

$$$$
