
     RDKit          3D

 50 53  0  0  1  0  0  0  0  0999 V2000
   46.3580   34.6220   41.5590 C   0  0  0  0  0  0  0  0  0  0  0  0
   45.2400   34.1840   40.7200 C   0  0  0  0  0  0  0  0  0  0  0  0
   43.9360   34.4530   41.0210 C   0  0  0  0  0  0  0  0  0  0  0  0
   43.1830   33.9410   40.0430 N   0  0  0  0  0  0  0  0  0  0  0  0
   43.9780   33.3620   39.1460 C   0  0  0  0  0  0  0  0  0  0  0  0
   45.2360   33.5150   39.5700 N   0  0  0  0  0  0  0  0  0  0  0  0
   47.2890   34.0170   38.3770 N   0  0  0  0  0  0  0  0  0  0  0  0
   48.5140   33.2810   38.1100 C   0  0  0  0  0  0  0  0  0  0  0  0
   48.5990   32.1490   39.1160 C   0  0  0  0  0  0  0  0  0  0  0  0
   47.2570   32.2290   39.8130 C   0  0  0  0  0  0  0  0  0  0  0  0
   46.4340   33.0220   38.9170 C   0  0  1  0  0  0  0  0  0  0  0  0
   45.8490   35.4090   42.7590 C   0  0  0  0  0  0  0  0  0  0  0  0
   46.8740   33.5280   43.9540 C   0  0  0  0  0  0  0  0  0  0  0  0
   45.9590   34.5580   43.9180 C   0  0  0  0  0  0  0  0  0  0  0  0
   45.1290   34.7460   45.0430 C   0  0  0  0  0  0  0  0  0  0  0  0
   45.2800   33.9020   46.0880 N   0  0  0  0  0  0  0  0  0  0  0  0
   46.1960   32.8970   46.0830 C   0  0  0  0  0  0  0  0  0  0  0  0
   46.9940   32.7110   45.0120 N   0  0  0  0  0  0  0  0  0  0  0  0
   46.3130   32.0350   47.2150 N   0  0  0  0  0  0  0  0  0  0  0  0
   45.5460   30.8100   47.3470 C   0  0  0  0  0  0  0  0  0  0  0  0
   46.4490   29.6440   47.7080 C   0  0  0  0  0  0  0  0  0  0  0  0
   47.9040   30.0190   47.7110 C   0  0  0  0  0  0  0  0  0  0  0  0
   48.1960   31.2500   48.5380 C   0  0  0  0  0  0  0  0  0  0  0  0
   47.2290   32.3820   48.2850 C   0  0  0  0  0  0  0  0  0  0  0  0
   47.0276   35.2611   40.9648 H   0  0  0  0  0  0  0  0  0  0  0  0
   46.9004   33.7355   41.9195 H   0  0  0  0  0  0  0  0  0  0  0  0
   43.5714   34.9930   41.9073 H   0  0  0  0  0  0  0  0  0  0  0  0
   43.6584   32.8517   38.2255 H   0  0  0  0  0  0  0  0  0  0  0  0
   46.8972   34.4118   37.5101 H   0  0  0  0  0  0  0  0  0  0  0  0
   48.4915   32.8737   37.0884 H   0  0  0  0  0  0  0  0  0  0  0  0
   49.3885   33.9424   38.1987 H   0  0  0  0  0  0  0  0  0  0  0  0
   48.7287   31.1792   38.6133 H   0  0  0  0  0  0  0  0  0  0  0  0
   49.4551   32.2346   39.8014 H   0  0  0  0  0  0  0  0  0  0  0  0
   46.8285   31.2252   39.9497 H   0  0  0  0  0  0  0  0  0  0  0  0
   47.3309   32.6711   40.8176 H   0  0  0  0  0  0  0  0  0  0  0  0
   46.0202   32.4258   38.0904 H   0  0  0  0  0  0  0  0  0  0  0  0
   46.4580   36.3142   42.8994 H   0  0  0  0  0  0  0  0  0  0  0  0
   44.8044   35.7167   42.6038 H   0  0  0  0  0  0  0  0  0  0  0  0
   47.5292   33.3699   43.0847 H   0  0  0  0  0  0  0  0  0  0  0  0
   44.3827   35.5537   45.0690 H   0  0  0  0  0  0  0  0  0  0  0  0
   44.7920   30.9402   48.1372 H   0  0  0  0  0  0  0  0  0  0  0  0
   45.0591   30.5937   46.3846 H   0  0  0  0  0  0  0  0  0  0  0  0
   46.1759   29.2843   48.7110 H   0  0  0  0  0  0  0  0  0  0  0  0
   46.3075   28.8645   46.9449 H   0  0  0  0  0  0  0  0  0  0  0  0
   48.4819   29.1771   48.1199 H   0  0  0  0  0  0  0  0  0  0  0  0
   48.1869   30.2461   46.6725 H   0  0  0  0  0  0  0  0  0  0  0  0
   48.1429   30.9765   49.6021 H   0  0  0  0  0  0  0  0  0  0  0  0
   49.1966   31.6057   48.2512 H   0  0  0  0  0  0  0  0  0  0  0  0
   47.7923   33.2834   48.0018 H   0  0  0  0  0  0  0  0  0  0  0  0
   46.6515   32.5697   49.2022 H   0  0  0  0  0  0  0  0  0  0  0  0
  1 12  1  0
  2  3  2  0
  2  1  1  0
  4  3  1  0
  5  6  1  0
  5  4  2  0
  6  2  1  0
  7 11  1  0
  8  7  1  0
  8  9  1  0
  9 10  1  0
 11  6  1  0
 11 10  1  0
 12 14  1  0
 13 18  2  0
 14 13  1  0
 14 15  2  0
 15 16  1  0
 17 16  2  0
 17 19  1  0
 18 17  1  0
 19 20  1  0
 19 24  1  0
 20 21  1  0
 21 22  1  0
 22 23  1  0
 24 23  1  0
  1 25  1  0
  1 26  1  0
  3 27  1  0
  5 28  1  0
  7 29  1  0
  8 30  1  0
  8 31  1  0
  9 32  1  0
  9 33  1  0
 10 34  1  0
 10 35  1  0
 11 36  1  6
 12 37  1  0
 12 38  1  0
 13 39  1  0
 15 40  1  0
 20 41  1  0
 20 42  1  0
 21 43  1  0
 21 44  1  0
 22 45  1  0
 22 46  1  0
 23 47  1  0
 23 48  1  0
 24 49  1  0
 24 50  1  0
M  ISO  8  25   8  26   8  27  14  28  14  29   5  30  13  31  13  32  13
M  ISO  8  33  13  34  13  35  13  36  13  37   8  38   8  39  14  40  14
M  ISO  8  41  13  42  13  43  13  44  13  45  13  46  13  47  13  48  13
M  ISO  2  49  13  50  13
M  END
>  <minimizedAffinity>  (1) 
-5.58057785

>  <minimizedRMSD>  (1) 
2.69066143

$$$$
