
     RDKit          3D

 43 46  0  0  1  0  0  0  0  0999 V2000
   46.6900   34.3160   41.1010 C   0  0  0  0  0  0  0  0  0  0  0  0
   45.5700   33.8390   40.2890 C   0  0  0  0  0  0  0  0  0  0  0  0
   44.2720   33.8940   40.7070 C   0  0  0  0  0  0  0  0  0  0  0  0
   43.5100   33.4050   39.7260 N   0  0  0  0  0  0  0  0  0  0  0  0
   44.2930   33.0470   38.7110 C   0  0  0  0  0  0  0  0  0  0  0  0
   45.5520   33.3150   39.0650 N   0  0  0  0  0  0  0  0  0  0  0  0
   47.4280   34.2170   37.8150 N   0  0  0  0  0  0  0  0  0  0  0  0
   48.7160   33.6980   37.3960 C   0  0  0  0  0  0  0  0  0  0  0  0
   49.0110   32.4670   38.2310 C   0  0  0  0  0  0  0  0  0  0  0  0
   47.7260   32.2780   39.0030 C   0  0  0  0  0  0  0  0  0  0  0  0
   46.7480   33.0720   38.2790 C   0  0  1  0  0  0  0  0  0  0  0  0
   46.2080   35.2510   42.1960 C   0  0  0  0  0  0  0  0  0  0  0  0
   45.2960   34.8070   44.4240 C   0  0  0  0  0  0  0  0  0  0  0  0
   46.2200   34.5310   43.4420 C   0  0  0  0  0  0  0  0  0  0  0  0
   47.1810   33.5320   43.6910 C   0  0  0  0  0  0  0  0  0  0  0  0
   47.1350   32.9020   44.8920 N   0  0  0  0  0  0  0  0  0  0  0  0
   46.2080   33.2040   45.8310 C   0  0  0  0  0  0  0  0  0  0  0  0
   45.2820   34.1590   45.6020 N   0  0  0  0  0  0  0  0  0  0  0  0
   46.2200   32.4830   47.1000 C   0  0  0  0  0  0  0  0  0  0  0  0
   47.3820   31.9560   47.5940 C   0  0  0  0  0  0  0  0  0  0  0  0
   47.4500   31.2640   48.7890 C   0  0  0  0  0  0  0  0  0  0  0  0
   46.3070   31.0970   49.5150 N   0  0  0  0  0  0  0  0  0  0  0  0
   45.1830   31.6280   49.0020 C   0  0  0  0  0  0  0  0  0  0  0  0
   45.1000   32.3020   47.8410 N   0  0  0  0  0  0  0  0  0  0  0  0
   47.3994   34.8539   40.4550 H   0  0  0  0  0  0  0  0  0  0  0  0
   47.1777   33.4487   41.5699 H   0  0  0  0  0  0  0  0  0  0  0  0
   43.9177   34.2728   41.6770 H   0  0  0  0  0  0  0  0  0  0  0  0
   43.9635   32.6107   37.7565 H   0  0  0  0  0  0  0  0  0  0  0  0
   46.9286   34.6463   37.0231 H   0  0  0  0  0  0  0  0  0  0  0  0
   48.6825   33.4284   36.3301 H   0  0  0  0  0  0  0  0  0  0  0  0
   49.5008   34.4558   37.5364 H   0  0  0  0  0  0  0  0  0  0  0  0
   49.2232   31.5960   37.5935 H   0  0  0  0  0  0  0  0  0  0  0  0
   49.8964   32.5762   38.8745 H   0  0  0  0  0  0  0  0  0  0  0  0
   47.4329   31.2179   39.0170 H   0  0  0  0  0  0  0  0  0  0  0  0
   47.8200   32.5864   40.0547 H   0  0  0  0  0  0  0  0  0  0  0  0
   46.3410   32.5404   37.4062 H   0  0  0  0  0  0  0  0  0  0  0  0
   46.8770   36.1216   42.2629 H   0  0  0  0  0  0  0  0  0  0  0  0
   45.1907   35.6046   41.9721 H   0  0  0  0  0  0  0  0  0  0  0  0
   44.5417   35.5859   44.2384 H   0  0  0  0  0  0  0  0  0  0  0  0
   47.9410   33.2720   42.9395 H   0  0  0  0  0  0  0  0  0  0  0  0
   48.3063   32.0892   47.0126 H   0  0  0  0  0  0  0  0  0  0  0  0
   48.4067   30.8562   49.1473 H   0  0  0  0  0  0  0  0  0  0  0  0
   44.2553   31.5007   49.5793 H   0  0  0  0  0  0  0  0  0  0  0  0
  1 12  1  0
  2  3  2  0
  2  1  1  0
  4  3  1  0
  5  6  1  0
  5  4  2  0
  6  2  1  0
  7 11  1  0
  8  7  1  0
  8  9  1  0
  9 10  1  0
 11 10  1  0
 11  6  1  0
 12 14  1  0
 13 18  2  0
 14 15  2  0
 14 13  1  0
 15 16  1  0
 16 17  2  0
 17 19  1  0
 18 17  1  0
 19 20  2  0
 19 24  1  0
 20 21  1  0
 21 22  2  0
 23 22  1  0
 24 23  2  0
  1 25  1  0
  1 26  1  0
  3 27  1  0
  5 28  1  0
  7 29  1  0
  8 30  1  0
  8 31  1  0
  9 32  1  0
  9 33  1  0
 10 34  1  0
 10 35  1  0
 11 36  1  6
 12 37  1  0
 12 38  1  0
 13 39  1  0
 15 40  1  0
 20 41  1  0
 21 42  1  0
 23 43  1  0
M  ISO  8  25   8  26   8  27  14  28  14  29   5  30  13  31  13  32  13
M  ISO  8  33  13  34  13  35  13  36  13  37   8  38   8  39  14  40  14
M  ISO  3  41  14  42  14  43  14
M  END
>  <minimizedAffinity>  (1) 
-5.5751338

>  <minimizedRMSD>  (1) 
2.73591328

$$$$
