
     RDKit          3D

 51 54  0  0  1  0  0  0  0  0999 V2000
   46.3280   34.4930   41.4820 C   0  0  0  0  0  0  0  0  0  0  0  0
   45.2410   34.0630   40.5970 C   0  0  0  0  0  0  0  0  0  0  0  0
   43.9240   34.2960   40.8690 C   0  0  0  0  0  0  0  0  0  0  0  0
   43.2050   33.8020   39.8540 N   0  0  0  0  0  0  0  0  0  0  0  0
   44.0390   33.2680   38.9640 C   0  0  0  0  0  0  0  0  0  0  0  0
   45.2820   33.4320   39.4260 N   0  0  0  0  0  0  0  0  0  0  0  0
   47.3560   34.0120   38.3100 N   0  0  0  0  0  0  0  0  0  0  0  0
   48.6030   33.3100   38.0560 C   0  0  0  0  0  0  0  0  0  0  0  0
   48.6870   32.1540   39.0350 C   0  0  0  0  0  0  0  0  0  0  0  0
   47.3200   32.1700   39.6790 C   0  0  0  0  0  0  0  0  0  0  0  0
   46.5110   32.9880   38.7950 C   0  0  1  0  0  0  0  0  0  0  0  0
   45.8130   35.4150   42.5670 C   0  0  0  0  0  0  0  0  0  0  0  0
   46.7990   33.7010   44.0330 C   0  0  0  0  0  0  0  0  0  0  0  0
   45.8590   34.7050   43.8190 C   0  0  0  0  0  0  0  0  0  0  0  0
   44.9480   34.9950   44.8550 C   0  0  0  0  0  0  0  0  0  0  0  0
   45.0500   34.2650   46.0030 N   0  0  0  0  0  0  0  0  0  0  0  0
   45.9810   33.2990   46.1610 C   0  0  0  0  0  0  0  0  0  0  0  0
   46.8640   33.0040   45.1850 N   0  0  0  0  0  0  0  0  0  0  0  0
   46.0580   32.5160   47.4460 C   0  0  0  0  0  0  0  0  0  0  0  0
   45.5590   31.0950   47.2670 C   0  0  0  0  0  0  0  0  0  0  0  0
   46.7160   30.2450   46.7850 C   0  0  0  0  0  0  0  0  0  0  0  0
   47.5420   29.9010   48.0230 C   0  0  0  0  0  0  0  0  0  0  0  0
   47.6690   31.1860   48.8090 C   0  0  0  0  0  0  0  0  0  0  0  0
   47.4930   32.4200   47.9200 C   0  0  0  0  0  0  0  0  0  0  0  0
   47.0861   35.0247   40.8882 H   0  0  0  0  0  0  0  0  0  0  0  0
   46.7652   33.6027   41.9576 H   0  0  0  0  0  0  0  0  0  0  0  0
   43.5251   34.7994   41.7620 H   0  0  0  0  0  0  0  0  0  0  0  0
   43.7560   32.7802   38.0195 H   0  0  0  0  0  0  0  0  0  0  0  0
   46.9797   34.4242   37.4443 H   0  0  0  0  0  0  0  0  0  0  0  0
   48.6155   32.9292   37.0241 H   0  0  0  0  0  0  0  0  0  0  0  0
   49.4603   33.9873   38.1839 H   0  0  0  0  0  0  0  0  0  0  0  0
   48.8691   31.2032   38.5126 H   0  0  0  0  0  0  0  0  0  0  0  0
   49.5123   32.2494   39.7560 H   0  0  0  0  0  0  0  0  0  0  0  0
   46.9111   31.1512   39.7485 H   0  0  0  0  0  0  0  0  0  0  0  0
   47.3461   32.5639   40.7057 H   0  0  0  0  0  0  0  0  0  0  0  0
   46.1326   32.4156   37.9352 H   0  0  0  0  0  0  0  0  0  0  0  0
   46.4460   36.3128   42.6244 H   0  0  0  0  0  0  0  0  0  0  0  0
   44.7818   35.7261   42.3439 H   0  0  0  0  0  0  0  0  0  0  0  0
   47.5158   33.4675   43.2319 H   0  0  0  0  0  0  0  0  0  0  0  0
   44.1848   35.7791   44.7422 H   0  0  0  0  0  0  0  0  0  0  0  0
   45.4293   33.0485   48.1748 H   0  0  0  0  0  0  0  0  0  0  0  0
   45.1865   30.7074   48.2267 H   0  0  0  0  0  0  0  0  0  0  0  0
   44.7380   31.0697   46.5354 H   0  0  0  0  0  0  0  0  0  0  0  0
   46.3414   29.3263   46.3100 H   0  0  0  0  0  0  0  0  0  0  0  0
   47.3204   30.7801   46.0378 H   0  0  0  0  0  0  0  0  0  0  0  0
   47.0299   29.1347   48.6234 H   0  0  0  0  0  0  0  0  0  0  0  0
   48.5278   29.4963   47.7501 H   0  0  0  0  0  0  0  0  0  0  0  0
   46.8982   31.2004   49.5937 H   0  0  0  0  0  0  0  0  0  0  0  0
   48.6789   31.2208   49.2437 H   0  0  0  0  0  0  0  0  0  0  0  0
   48.1598   32.3396   47.0489 H   0  0  0  0  0  0  0  0  0  0  0  0
   47.7432   33.3211   48.4992 H   0  0  0  0  0  0  0  0  0  0  0  0
  1 12  1  0
  2  3  2  0
  2  1  1  0
  4  3  1  0
  5  6  1  0
  5  4  2  0
  6  2  1  0
  7 11  1  0
  8  7  1  0
  8  9  1  0
  9 10  1  0
 11  6  1  0
 11 10  1  0
 12 14  1  0
 13 18  2  0
 14 13  1  0
 14 15  2  0
 15 16  1  0
 16 17  2  0
 17 19  1  0
 18 17  1  0
 19 24  1  0
 20 19  1  0
 21 20  1  0
 21 22  1  0
 22 23  1  0
 24 23  1  0
  1 25  1  0
  1 26  1  0
  3 27  1  0
  5 28  1  0
  7 29  1  0
  8 30  1  0
  8 31  1  0
  9 32  1  0
  9 33  1  0
 10 34  1  0
 10 35  1  0
 11 36  1  6
 12 37  1  0
 12 38  1  0
 13 39  1  0
 15 40  1  0
 19 41  1  0
 20 42  1  0
 20 43  1  0
 21 44  1  0
 21 45  1  0
 22 46  1  0
 22 47  1  0
 23 48  1  0
 23 49  1  0
 24 50  1  0
 24 51  1  0
M  ISO  8  25   8  26   8  27  14  28  14  29   5  30  13  31  13  32  13
M  ISO  8  33  13  34  13  35  13  36  13  37   8  38   8  39  14  40  14
M  ISO  8  41  13  42  13  43  13  44  13  45  13  46  13  47  13  48  13
M  ISO  3  49  13  50  13  51  13
M  END
>  <minimizedAffinity>  (1) 
-5.54235983

>  <minimizedRMSD>  (1) 
2.29120445

$$$$
