
     RDKit          3D

 48 51  0  0  1  0  0  0  0  0999 V2000
   46.1580   34.9660   41.7220 C   0  0  0  0  0  0  0  0  0  0  0  0
   45.0980   34.4850   40.8990 C   0  0  0  0  0  0  0  0  0  0  0  0
   43.8000   34.8870   41.0830 C   0  0  0  0  0  0  0  0  0  0  0  0
   43.0360   34.2740   40.1560 N   0  0  0  0  0  0  0  0  0  0  0  0
   43.8210   33.4990   39.3970 C   0  0  0  0  0  0  0  0  0  0  0  0
   45.0680   33.6380   39.8580 N   0  0  0  0  0  0  0  0  0  0  0  0
   47.2060   33.9280   38.7670 N   0  0  0  0  0  0  0  0  0  0  0  0
   48.4010   33.1410   38.5750 C   0  0  0  0  0  0  0  0  0  0  0  0
   48.1940   31.8840   39.3210 C   0  0  0  0  0  0  0  0  0  0  0  0
   47.0180   32.2170   40.2690 C   0  0  0  0  0  0  0  0  0  0  0  0
   46.2710   33.0140   39.3540 C   0  0  1  0  0  0  0  0  0  0  0  0
   45.6360   35.6830   42.9810 C   0  0  0  0  0  0  0  0  0  0  0  0
   46.6520   33.7330   43.9730 C   0  0  0  0  0  0  0  0  0  0  0  0
   45.7330   34.7790   44.0960 C   0  0  0  0  0  0  0  0  0  0  0  0
   44.9840   34.8420   45.2570 C   0  0  0  0  0  0  0  0  0  0  0  0
   45.1820   33.8880   46.2100 N   0  0  0  0  0  0  0  0  0  0  0  0
   46.0790   32.8910   46.0570 C   0  0  0  0  0  0  0  0  0  0  0  0
   46.8190   32.8080   44.9370 N   0  0  0  0  0  0  0  0  0  0  0  0
   46.2100   31.9450   47.1050 N   0  0  0  0  0  0  0  0  0  0  0  0
   46.2780   32.4080   48.4780 C   0  0  0  0  0  0  0  0  0  0  0  0
   45.2810   31.5850   49.2660 C   0  0  0  0  0  0  0  0  0  0  0  0
   45.5040   30.2370   49.1200 O   0  0  0  0  0  0  0  0  0  0  0  0
   46.4990   29.8890   48.2400 C   0  0  0  0  0  0  0  0  0  0  0  0
   46.2820   30.5180   46.8570 C   0  0  0  0  0  0  0  0  0  0  0  0
   46.7671   35.6723   41.1387 H   0  0  0  0  0  0  0  0  0  0  0  0
   46.7526   34.0999   42.0481 H   0  0  0  0  0  0  0  0  0  0  0  0
   43.4439   35.5875   41.8527 H   0  0  0  0  0  0  0  0  0  0  0  0
   43.5008   32.8682   38.5547 H   0  0  0  0  0  0  0  0  0  0  0  0
   46.8537   34.2822   37.8663 H   0  0  0  0  0  0  0  0  0  0  0  0
   48.5498   32.9292   37.5059 H   0  0  0  0  0  0  0  0  0  0  0  0
   49.2934   33.6756   38.9325 H   0  0  0  0  0  0  0  0  0  0  0  0
   47.9295   31.0616   38.6401 H   0  0  0  0  0  0  0  0  0  0  0  0
   49.0949   31.5499   39.8565 H   0  0  0  0  0  0  0  0  0  0  0  0
   46.4692   31.3190   40.5889 H   0  0  0  0  0  0  0  0  0  0  0  0
   47.2796   32.6870   41.2285 H   0  0  0  0  0  0  0  0  0  0  0  0
   45.8232   32.3513   38.5988 H   0  0  0  0  0  0  0  0  0  0  0  0
   46.2435   36.5790   43.1762 H   0  0  0  0  0  0  0  0  0  0  0  0
   44.5894   35.9880   42.8337 H   0  0  0  0  0  0  0  0  0  0  0  0
   47.2589   33.6632   43.0583 H   0  0  0  0  0  0  0  0  0  0  0  0
   44.2457   35.6434   45.4077 H   0  0  0  0  0  0  0  0  0  0  0  0
   47.2919   32.2597   48.8780 H   0  0  0  0  0  0  0  0  0  0  0  0
   46.0453   33.4810   48.5451 H   0  0  0  0  0  0  0  0  0  0  0  0
   45.3659   31.8467   50.3310 H   0  0  0  0  0  0  0  0  0  0  0  0
   44.2743   31.8086   48.8832 H   0  0  0  0  0  0  0  0  0  0  0  0
   47.4644   30.2326   48.6400 H   0  0  0  0  0  0  0  0  0  0  0  0
   46.4860   28.7952   48.1241 H   0  0  0  0  0  0  0  0  0  0  0  0
   45.3452   30.1550   46.4091 H   0  0  0  0  0  0  0  0  0  0  0  0
   47.0866   30.2595   46.1529 H   0  0  0  0  0  0  0  0  0  0  0  0
  1 12  1  0
  2  3  2  0
  2  1  1  0
  4  3  1  0
  5  6  1  0
  5  4  2  0
  6  2  1  0
  7 11  1  0
  8  7  1  0
  8  9  1  0
  9 10  1  0
 11  6  1  0
 11 10  1  0
 12 14  1  0
 13 14  2  0
 13 18  1  0
 14 15  1  0
 15 16  2  0
 17 16  1  0
 17 19  1  0
 18 17  2  0
 19 20  1  0
 20 21  1  0
 22 21  1  0
 23 22  1  0
 24 19  1  0
 24 23  1  0
  1 25  1  0
  1 26  1  0
  3 27  1  0
  5 28  1  0
  7 29  1  0
  8 30  1  0
  8 31  1  0
  9 32  1  0
  9 33  1  0
 10 34  1  0
 10 35  1  0
 11 36  1  6
 12 37  1  0
 12 38  1  0
 13 39  1  0
 15 40  1  0
 20 41  1  0
 20 42  1  0
 21 43  1  0
 21 44  1  0
 23 45  1  0
 23 46  1  0
 24 47  1  0
 24 48  1  0
M  ISO  8  25   8  26   8  27  14  28  14  29   5  30  13  31  13  32  13
M  ISO  8  33  13  34  13  35  13  36  13  37   8  38   8  39  14  40  14
M  ISO  8  41  13  42  13  43  13  44  13  45  13  46  13  47  13  48  13
M  END
>  <minimizedAffinity>  (1) 
-5.45129204

>  <minimizedRMSD>  (1) 
3.12601876

$$$$
