
     RDKit          3D

 36 38  0  0  1  0  0  0  0  0999 V2000
   45.3810   33.2880   40.1640 C   0  0  0  0  0  0  0  0  0  0  0  0
   44.0510   33.3360   40.4740 C   0  0  0  0  0  0  0  0  0  0  0  0
   43.3550   33.2180   39.3270 N   0  0  0  0  0  0  0  0  0  0  0  0
   44.2200   33.0960   38.3210 C   0  0  0  0  0  0  0  0  0  0  0  0
   45.4540   33.1400   38.8400 N   0  0  0  0  0  0  0  0  0  0  0  0
   47.3620   34.3210   37.9170 N   0  0  0  0  0  0  0  0  0  0  0  0
   48.6610   33.9480   37.4350 C   0  0  0  0  0  0  0  0  0  0  0  0
   48.8910   32.5300   37.7940 C   0  0  0  0  0  0  0  0  0  0  0  0
   47.6740   32.1880   38.6900 C   0  0  0  0  0  0  0  0  0  0  0  0
   46.7090   33.0580   38.1390 C   0  0  1  0  0  0  0  0  0  0  0  0
   46.4080   33.3950   41.1710 C   0  0  0  0  0  0  0  0  0  0  0  0
   46.6090   34.8350   41.6280 C   0  0  0  0  0  0  0  0  0  0  0  0
   46.1970   34.0150   43.8730 C   0  0  0  0  0  0  0  0  0  0  0  0
   45.9810   34.9970   42.9110 C   0  0  0  0  0  0  0  0  0  0  0  0
   45.1480   36.0610   43.2510 C   0  0  0  0  0  0  0  0  0  0  0  0
   44.5960   36.0780   44.4970 N   0  0  0  0  0  0  0  0  0  0  0  0
   44.8330   35.1030   45.4000 C   0  0  0  0  0  0  0  0  0  0  0  0
   45.6340   34.0670   45.0940 N   0  0  0  0  0  0  0  0  0  0  0  0
   44.2280   35.2040   46.6460 O   0  0  0  0  0  0  0  0  0  0  0  0
   43.6245   33.4507   41.4815 H   0  0  0  0  0  0  0  0  0  0  0  0
   43.9666   32.9801   37.2569 H   0  0  0  0  0  0  0  0  0  0  0  0
   46.8552   34.8788   37.2149 H   0  0  0  0  0  0  0  0  0  0  0  0
   49.4291   34.5812   37.9031 H   0  0  0  0  0  0  0  0  0  0  0  0
   48.7172   34.0806   36.3445 H   0  0  0  0  0  0  0  0  0  0  0  0
   48.9107   31.8944   36.8965 H   0  0  0  0  0  0  0  0  0  0  0  0
   49.8556   32.3637   38.2959 H   0  0  0  0  0  0  0  0  0  0  0  0
   47.3772   31.1336   38.5896 H   0  0  0  0  0  0  0  0  0  0  0  0
   47.8453   32.3116   39.7695 H   0  0  0  0  0  0  0  0  0  0  0  0
   46.3580   32.6381   37.1848 H   0  0  0  0  0  0  0  0  0  0  0  0
   46.1200   32.7835   42.0388 H   0  0  0  0  0  0  0  0  0  0  0  0
   47.3530   33.0417   40.7326 H   0  0  0  0  0  0  0  0  0  0  0  0
   47.6843   35.0515   41.7110 H   0  0  0  0  0  0  0  0  0  0  0  0
   46.1631   35.5280   40.8993 H   0  0  0  0  0  0  0  0  0  0  0  0
   46.8514   33.1659   43.6265 H   0  0  0  0  0  0  0  0  0  0  0  0
   44.9411   36.8671   42.5317 H   0  0  0  0  0  0  0  0  0  0  0  0
   44.3825   34.5046   47.3294 H   0  0  0  0  0  0  0  0  0  0  0  0
  1  2  2  0
  1 11  1  0
  3  2  1  0
  4  5  1  0
  4  3  2  0
  5  1  1  0
  6 10  1  0
  7  8  1  0
  7  6  1  0
  8  9  1  0
 10  9  1  0
 10  5  1  0
 11 12  1  0
 12 14  1  0
 13 18  2  0
 14 15  2  0
 14 13  1  0
 15 16  1  0
 16 17  2  0
 17 19  1  0
 18 17  1  0
  2 20  1  0
  4 21  1  0
  6 22  1  0
  7 23  1  0
  7 24  1  0
  8 25  1  0
  8 26  1  0
  9 27  1  0
  9 28  1  0
 10 29  1  6
 11 30  1  0
 11 31  1  0
 12 32  1  0
 12 33  1  0
 13 34  1  0
 15 35  1  0
 19 36  1  0
M  ISO  8  20  14  21  14  22   5  23  13  24  13  25  13  26  13  27  13
M  ISO  8  28  13  29  13  30   8  31   8  32   8  33   8  34  14  35  14
M  ISO  1  36   3
M  END
>  <minimizedAffinity>  (1) 
-5.19230652

>  <minimizedRMSD>  (1) 
0.28981328

$$$$
