
     RDKit          3D

 38 40  0  0  1  0  0  0  0  0999 V2000
   45.7690   33.4220   40.0460 C   0  0  0  0  0  0  0  0  0  0  0  0
   44.4690   33.4320   40.4940 C   0  0  0  0  0  0  0  0  0  0  0  0
   43.6700   33.2280   39.4380 N   0  0  0  0  0  0  0  0  0  0  0  0
   44.4290   33.0930   38.3520 C   0  0  0  0  0  0  0  0  0  0  0  0
   45.7100   33.2120   38.7330 N   0  0  0  0  0  0  0  0  0  0  0  0
   47.6510   34.3400   37.8050 N   0  0  0  0  0  0  0  0  0  0  0  0
   48.8550   33.9180   37.1470 C   0  0  0  0  0  0  0  0  0  0  0  0
   49.0300   32.4560   37.3780 C   0  0  0  0  0  0  0  0  0  0  0  0
   47.7860   32.0930   38.2270 C   0  0  0  0  0  0  0  0  0  0  0  0
   46.8850   33.1310   37.9030 C   0  0  1  0  0  0  0  0  0  0  0  0
   46.8930   33.6230   40.9340 C   0  0  0  0  0  0  0  0  0  0  0  0
   46.7590   34.9240   41.7180 C   0  0  0  0  0  0  0  0  0  0  0  0
   47.0380   33.5960   43.7430 C   0  0  0  0  0  0  0  0  0  0  0  0
   46.3600   34.5900   43.0580 C   0  0  0  0  0  0  0  0  0  0  0  0
   45.2970   35.2210   43.7090 C   0  0  0  0  0  0  0  0  0  0  0  0
   44.9980   34.8110   44.9790 N   0  0  0  0  0  0  0  0  0  0  0  0
   45.6940   33.8290   45.6080 C   0  0  0  0  0  0  0  0  0  0  0  0
   46.7050   33.2280   44.9930 N   0  0  0  0  0  0  0  0  0  0  0  0
   45.3340   33.4310   46.9630 C   0  0  0  0  0  0  0  0  0  0  0  0
   45.8420   32.3740   47.4740 O   0  0  0  0  0  0  0  0  0  0  0  0
   44.4620   34.1070   47.7960 O   0  0  0  0  0  0  0  0  0  0  0  0
   44.1431   33.5809   41.5340 H   0  0  0  0  0  0  0  0  0  0  0  0
   44.0703   32.9159   37.3273 H   0  0  0  0  0  0  0  0  0  0  0  0
   47.1535   35.0473   37.2454 H   0  0  0  0  0  0  0  0  0  0  0  0
   49.7153   34.4649   37.5601 H   0  0  0  0  0  0  0  0  0  0  0  0
   48.7887   34.1249   36.0687 H   0  0  0  0  0  0  0  0  0  0  0  0
   49.0366   31.9024   36.4275 H   0  0  0  0  0  0  0  0  0  0  0  0
   49.9816   32.2028   37.8682 H   0  0  0  0  0  0  0  0  0  0  0  0
   47.3815   31.1110   37.9407 H   0  0  0  0  0  0  0  0  0  0  0  0
   47.9964   32.0135   39.3038 H   0  0  0  0  0  0  0  0  0  0  0  0
   46.4154   32.9151   36.9320 H   0  0  0  0  0  0  0  0  0  0  0  0
   46.9442   32.7826   41.6419 H   0  0  0  0  0  0  0  0  0  0  0  0
   47.8080   33.6787   40.3260 H   0  0  0  0  0  0  0  0  0  0  0  0
   47.7241   35.4516   41.7354 H   0  0  0  0  0  0  0  0  0  0  0  0
   46.0130   35.5813   41.2474 H   0  0  0  0  0  0  0  0  0  0  0  0
   47.8790   33.0892   43.2472 H   0  0  0  0  0  0  0  0  0  0  0  0
   44.7211   36.0191   43.2176 H   0  0  0  0  0  0  0  0  0  0  0  0
   44.2768   33.7606   48.7047 H   0  0  0  0  0  0  0  0  0  0  0  0
  1  2  2  0
  1 11  1  0
  3  2  1  0
  4  5  1  0
  4  3  2  0
  5  1  1  0
  6 10  1  0
  7  8  1  0
  7  6  1  0
  8  9  1  0
 10  9  1  0
 10  5  1  0
 11 12  1  0
 12 14  1  0
 13 18  2  0
 14 15  2  0
 14 13  1  0
 15 16  1  0
 16 17  2  0
 17 19  1  0
 18 17  1  0
 19 20  2  0
 19 21  1  0
  2 22  1  0
  4 23  1  0
  6 24  1  0
  7 25  1  0
  7 26  1  0
  8 27  1  0
  8 28  1  0
  9 29  1  0
  9 30  1  0
 10 31  1  6
 11 32  1  0
 11 33  1  0
 12 34  1  0
 12 35  1  0
 13 36  1  0
 15 37  1  0
 21 38  1  0
M  ISO  8  22  14  23  14  24   5  25  13  26  13  27  13  28  13  29  13
M  ISO  8  30  13  31  13  32   8  33   8  34   8  35   8  36  14  37  14
M  ISO  1  38   3
M  END
>  <minimizedAffinity>  (1) 
-5.15123224

>  <minimizedRMSD>  (1) 
1.10402536

$$$$
