
     RDKit          3D

 26 27  0  0  0  0  0  0  0  0999 V2000
   46.6510   34.7600   42.0720 C   0  0  0  0  0  0  0  0  0  0  0  0
   47.9090   35.3190   41.9780 C   0  0  0  0  0  0  0  0  0  0  0  0
   48.6780   35.2000   40.8150 C   0  0  0  0  0  0  0  0  0  0  0  0
   48.1640   34.4980   39.7110 C   0  0  0  0  0  0  0  0  0  0  0  0
   46.9110   33.9500   39.8220 C   0  0  0  0  0  0  0  0  0  0  0  0
   46.1680   34.0800   40.9850 C   0  0  0  0  0  0  0  0  0  0  0  0
   44.4540   36.0060   44.8580 C   0  0  0  0  0  0  0  0  0  0  0  0
   45.0750   35.9880   43.5870 C   0  0  0  0  0  0  0  0  0  0  0  0
   45.9290   34.9360   43.3210 C   0  0  0  0  0  0  0  0  0  0  0  0
   46.1340   33.9790   44.2750 N   0  0  0  0  0  0  0  0  0  0  0  0
   45.5080   34.0450   45.4850 C   0  0  0  0  0  0  0  0  0  0  0  0
   44.6790   35.0490   45.7660 N   0  0  0  0  0  0  0  0  0  0  0  0
   44.8000   33.5050   41.1640 C   0  0  0  0  0  0  0  0  0  0  0  0
   43.7660   34.2790   40.3800 C   0  0  0  0  0  0  0  0  0  0  0  0
   48.3170   35.8712   42.8375 H   0  0  0  0  0  0  0  0  0  0  0  0
   49.6790   35.6532   40.7650 H   0  0  0  0  0  0  0  0  0  0  0  0
   48.7489   34.3911   38.7856 H   0  0  0  0  0  0  0  0  0  0  0  0
   46.4876   33.3964   38.9710 H   0  0  0  0  0  0  0  0  0  0  0  0
   43.7676   36.8289   45.1066 H   0  0  0  0  0  0  0  0  0  0  0  0
   44.8860   36.7767   42.8439 H   0  0  0  0  0  0  0  0  0  0  0  0
   45.6894   33.2618   46.2358 H   0  0  0  0  0  0  0  0  0  0  0  0
   44.8032   32.4610   40.8176 H   0  0  0  0  0  0  0  0  0  0  0  0
   44.5385   33.5633   42.2309 H   0  0  0  0  0  0  0  0  0  0  0  0
   43.0843   34.7893   41.0763 H   0  0  0  0  0  0  0  0  0  0  0  0
   44.2687   35.0246   39.7465 H   0  0  0  0  0  0  0  0  0  0  0  0
   43.1923   33.5866   39.7465 H   0  0  0  0  0  0  0  0  0  0  0  0
  1  9  1  0
  2  1  2  0
  3  2  1  0
  4  5  1  0
  4  3  2  0
  5  6  2  0
  6 13  1  0
  6  1  1  0
  7 12  2  0
  8  7  1  0
  9  8  2  0
  9 10  1  0
 10 11  2  0
 11 12  1  0
 14 13  1  0
  2 15  1  0
  3 16  1  0
  4 17  1  0
  5 18  1  0
  7 19  1  0
  8 20  1  0
 11 21  1  0
 13 22  1  0
 13 23  1  0
 14 24  1  0
 14 25  1  0
 14 26  1  0
M  ISO  8  15  14  16  14  17  14  18  14  19  14  20  14  21  14  22   8
M  ISO  4  23   8  24   8  25   8  26   8
M  END
>  <minimizedAffinity>  (1) 
-5.13052654

>  <minimizedRMSD>  (1) 
0.55924505

$$$$
