
     RDKit          3D

 36 38  0  0  1  0  0  0  0  0999 V2000
   45.6300   33.7800   40.3550 C   0  0  0  0  0  0  0  0  0  0  0  0
   44.3220   33.9050   40.7620 C   0  0  0  0  0  0  0  0  0  0  0  0
   43.5420   33.5200   39.7440 N   0  0  0  0  0  0  0  0  0  0  0  0
   44.3180   33.1630   38.7230 C   0  0  0  0  0  0  0  0  0  0  0  0
   45.5920   33.3230   39.1020 N   0  0  0  0  0  0  0  0  0  0  0  0
   47.4550   34.2340   37.8320 N   0  0  0  0  0  0  0  0  0  0  0  0
   48.7030   33.7310   37.3470 C   0  0  0  0  0  0  0  0  0  0  0  0
   48.9500   32.4040   37.9790 C   0  0  0  0  0  0  0  0  0  0  0  0
   47.7570   32.2650   38.9600 C   0  0  0  0  0  0  0  0  0  0  0  0
   46.7840   33.0650   38.3310 C   0  0  1  0  0  0  0  0  0  0  0  0
   46.7420   34.1230   41.2110 C   0  0  0  0  0  0  0  0  0  0  0  0
   46.3720   35.2210   42.2040 C   0  0  0  0  0  0  0  0  0  0  0  0
   47.0350   33.5820   43.8670 C   0  0  0  0  0  0  0  0  0  0  0  0
   46.1880   34.6130   43.4960 C   0  0  0  0  0  0  0  0  0  0  0  0
   45.1940   34.9880   44.3970 C   0  0  0  0  0  0  0  0  0  0  0  0
   45.1130   34.3230   45.5810 N   0  0  0  0  0  0  0  0  0  0  0  0
   45.9590   33.3220   45.9060 C   0  0  0  0  0  0  0  0  0  0  0  0
   46.9280   32.9450   45.0470 N   0  0  0  0  0  0  0  0  0  0  0  0
   45.7550   32.5210   47.4910 S   0  0  0  0  0  0  0  0  0  0  0  0
   43.9788   34.2575   41.7459 H   0  0  0  0  0  0  0  0  0  0  0  0
   43.9739   32.8011   37.7429 H   0  0  0  0  0  0  0  0  0  0  0  0
   46.9148   34.6703   37.0713 H   0  0  0  0  0  0  0  0  0  0  0  0
   48.6596   33.6199   36.2535 H   0  0  0  0  0  0  0  0  0  0  0  0
   49.5160   34.4279   37.5986 H   0  0  0  0  0  0  0  0  0  0  0  0
   48.9420   31.5998   37.2285 H   0  0  0  0  0  0  0  0  0  0  0  0
   49.9307   32.3315   38.4720 H   0  0  0  0  0  0  0  0  0  0  0  0
   47.4251   31.2196   39.0440 H   0  0  0  0  0  0  0  0  0  0  0  0
   47.9871   32.5662   39.9926 H   0  0  0  0  0  0  0  0  0  0  0  0
   46.3452   32.5043   37.4926 H   0  0  0  0  0  0  0  0  0  0  0  0
   47.0518   33.2272   41.7691 H   0  0  0  0  0  0  0  0  0  0  0  0
   47.5605   34.4952   40.5773 H   0  0  0  0  0  0  0  0  0  0  0  0
   47.1799   35.9658   42.2542 H   0  0  0  0  0  0  0  0  0  0  0  0
   45.4483   35.7266   41.8860 H   0  0  0  0  0  0  0  0  0  0  0  0
   47.8266   33.2717   43.1691 H   0  0  0  0  0  0  0  0  0  0  0  0
   44.4927   35.8008   44.1573 H   0  0  0  0  0  0  0  0  0  0  0  0
   45.9855   33.4262   48.4932 H   0  0  0  0  0  0  0  0  0  0  0  0
  1  2  2  0
  1 11  1  0
  3  2  1  0
  4  5  1  0
  4  3  2  0
  5  1  1  0
  6 10  1  0
  7  6  1  0
  7  8  1  0
  8  9  1  0
 10  9  1  0
 10  5  1  0
 11 12  1  0
 12 14  1  0
 13 18  2  0
 14 13  1  0
 14 15  2  0
 15 16  1  0
 16 17  2  0
 17 19  1  0
 18 17  1  0
  2 20  1  0
  4 21  1  0
  6 22  1  0
  7 23  1  0
  7 24  1  0
  8 25  1  0
  8 26  1  0
  9 27  1  0
  9 28  1  0
 10 29  1  6
 11 30  1  0
 11 31  1  0
 12 32  1  0
 12 33  1  0
 13 34  1  0
 15 35  1  0
 19 36  1  0
M  ISO  8  20  14  21  14  22   5  23  13  24  13  25  13  26  13  27  13
M  ISO  8  28  13  29  13  30   8  31   8  32   8  33   8  34  14  35  14
M  ISO  1  36  11
M  END
>  <minimizedAffinity>  (1) 
-4.4845047

>  <minimizedRMSD>  (1) 
1.31495011

$$$$
