
     RDKit          3D

 37 39  0  0  1  0  0  0  0  0999 V2000
   45.5700   33.3000   40.1080 C   0  0  0  0  0  0  0  0  0  0  0  0
   44.2440   33.3460   40.4730 C   0  0  0  0  0  0  0  0  0  0  0  0
   43.5120   33.2100   39.3600 N   0  0  0  0  0  0  0  0  0  0  0  0
   44.3360   33.0810   38.3220 C   0  0  0  0  0  0  0  0  0  0  0  0
   45.5900   33.1370   38.7840 N   0  0  0  0  0  0  0  0  0  0  0  0
   47.4860   34.2960   37.8100 N   0  0  0  0  0  0  0  0  0  0  0  0
   48.7740   33.9190   37.3050 C   0  0  0  0  0  0  0  0  0  0  0  0
   48.9800   32.4820   37.6140 C   0  0  0  0  0  0  0  0  0  0  0  0
   47.7790   32.1440   38.5340 C   0  0  0  0  0  0  0  0  0  0  0  0
   46.8150   33.0450   38.0360 C   0  0  1  0  0  0  0  0  0  0  0  0
   46.6370   33.4280   41.0730 C   0  0  0  0  0  0  0  0  0  0  0  0
   46.7880   34.8680   41.5530 C   0  0  0  0  0  0  0  0  0  0  0  0
   46.3260   34.0060   43.7830 C   0  0  0  0  0  0  0  0  0  0  0  0
   46.1160   34.9900   42.8170 C   0  0  0  0  0  0  0  0  0  0  0  0
   45.2430   36.0300   43.1300 C   0  0  0  0  0  0  0  0  0  0  0  0
   44.6490   36.0230   44.3560 N   0  0  0  0  0  0  0  0  0  0  0  0
   44.8780   35.0530   45.2640 C   0  0  0  0  0  0  0  0  0  0  0  0
   45.7180   34.0400   44.9790 N   0  0  0  0  0  0  0  0  0  0  0  0
   44.2090   35.1390   46.5110 N   0  0  0  0  0  0  0  0  0  0  0  0
   43.8556   33.4718   41.4944 H   0  0  0  0  0  0  0  0  0  0  0  0
   44.0383   32.9514   37.2710 H   0  0  0  0  0  0  0  0  0  0  0  0
   46.9753   34.8648   37.1197 H   0  0  0  0  0  0  0  0  0  0  0  0
   49.5567   34.5217   37.7889 H   0  0  0  0  0  0  0  0  0  0  0  0
   48.8260   34.0898   36.2196 H   0  0  0  0  0  0  0  0  0  0  0  0
   48.9586   31.8741   36.6975 H   0  0  0  0  0  0  0  0  0  0  0  0
   49.9541   32.2758   38.0816 H   0  0  0  0  0  0  0  0  0  0  0  0
   47.4578   31.0986   38.4156 H   0  0  0  0  0  0  0  0  0  0  0  0
   47.9840   32.2394   39.6105 H   0  0  0  0  0  0  0  0  0  0  0  0
   46.4193   32.6535   37.0872 H   0  0  0  0  0  0  0  0  0  0  0  0
   46.4161   32.7846   41.9374 H   0  0  0  0  0  0  0  0  0  0  0  0
   47.5775   33.1254   40.5893 H   0  0  0  0  0  0  0  0  0  0  0  0
   47.8541   35.1113   41.6725 H   0  0  0  0  0  0  0  0  0  0  0  0
   46.3503   35.5618   40.8202 H   0  0  0  0  0  0  0  0  0  0  0  0
   47.0116   33.1759   43.5574 H   0  0  0  0  0  0  0  0  0  0  0  0
   45.0392   36.8340   42.4075 H   0  0  0  0  0  0  0  0  0  0  0  0
   44.3607   34.4151   47.2278 H   0  0  0  0  0  0  0  0  0  0  0  0
   43.5712   35.9254   46.7001 H   0  0  0  0  0  0  0  0  0  0  0  0
  1  2  2  0
  1 11  1  0
  3  2  1  0
  4  5  1  0
  4  3  2  0
  5  1  1  0
  6 10  1  0
  7  8  1  0
  7  6  1  0
  8  9  1  0
 10  9  1  0
 10  5  1  0
 11 12  1  0
 12 14  1  0
 13 18  2  0
 14 15  2  0
 14 13  1  0
 15 16  1  0
 16 17  2  0
 17 19  1  0
 18 17  1  0
  2 20  1  0
  4 21  1  0
  6 22  1  0
  7 23  1  0
  7 24  1  0
  8 25  1  0
  8 26  1  0
  9 27  1  0
  9 28  1  0
 10 29  1  6
 11 30  1  0
 11 31  1  0
 12 32  1  0
 12 33  1  0
 13 34  1  0
 15 35  1  0
 19 36  1  0
 19 37  1  0
M  ISO  8  20  14  21  14  22   5  23  13  24  13  25  13  26  13  27  13
M  ISO  8  28  13  29  13  30   8  31   8  32   8  33   8  34  14  35  14
M  END
>  <minimizedAffinity>  (1) 
-5.19737244

>  <minimizedRMSD>  (1) 
0.214839101

$$$$
