
     RDKit          3D

 38 40  0  0  1  0  0  0  0  0999 V2000
   45.6310   33.2020   39.7240 C   0  0  0  0  0  0  0  0  0  0  0  0
   44.3070   33.1980   40.1020 C   0  0  0  0  0  0  0  0  0  0  0  0
   43.5680   33.1340   38.9870 N   0  0  0  0  0  0  0  0  0  0  0  0
   44.3820   33.1000   37.9350 C   0  0  0  0  0  0  0  0  0  0  0  0
   45.6400   33.1420   38.3940 N   0  0  0  0  0  0  0  0  0  0  0  0
   47.6270   34.3270   37.6520 N   0  0  0  0  0  0  0  0  0  0  0  0
   48.8620   33.9440   37.0270 C   0  0  0  0  0  0  0  0  0  0  0  0
   49.0280   32.4730   37.1690 C   0  0  0  0  0  0  0  0  0  0  0  0
   47.7380   32.0550   37.9210 C   0  0  0  0  0  0  0  0  0  0  0  0
   46.8640   33.1210   37.6210 C   0  0  1  0  0  0  0  0  0  0  0  0
   46.7130   33.2730   40.6870 C   0  0  0  0  0  0  0  0  0  0  0  0
   46.9120   34.6790   41.2290 C   0  0  0  0  0  0  0  0  0  0  0  0
   46.6930   33.8310   43.5070 C   0  0  0  0  0  0  0  0  0  0  0  0
   46.2970   34.7520   42.5250 C   0  0  0  0  0  0  0  0  0  0  0  0
   45.3110   35.6820   42.8700 C   0  0  0  0  0  0  0  0  0  0  0  0
   44.7950   35.6350   44.1310 N   0  0  0  0  0  0  0  0  0  0  0  0
   45.2070   34.7280   45.0420 C   0  0  0  0  0  0  0  0  0  0  0  0
   46.1570   33.8170   44.7440 N   0  0  0  0  0  0  0  0  0  0  0  0
   44.5750   34.7680   46.3850 C   0  0  0  0  0  0  0  0  0  0  0  0
   43.9255   33.2398   41.1329 H   0  0  0  0  0  0  0  0  0  0  0  0
   44.0772   33.0470   36.8794 H   0  0  0  0  0  0  0  0  0  0  0  0
   47.7839   34.6410   38.6203 H   0  0  0  0  0  0  0  0  0  0  0  0
   49.7009   34.4607   37.5160 H   0  0  0  0  0  0  0  0  0  0  0  0
   48.8463   34.2199   35.9623 H   0  0  0  0  0  0  0  0  0  0  0  0
   49.0898   31.9841   36.1856 H   0  0  0  0  0  0  0  0  0  0  0  0
   49.9513   32.1867   37.6940 H   0  0  0  0  0  0  0  0  0  0  0  0
   47.3469   31.0991   37.5425 H   0  0  0  0  0  0  0  0  0  0  0  0
   47.8861   31.8934   38.9989 H   0  0  0  0  0  0  0  0  0  0  0  0
   46.4571   32.9842   36.6082 H   0  0  0  0  0  0  0  0  0  0  0  0
   46.4844   32.5995   41.5262 H   0  0  0  0  0  0  0  0  0  0  0  0
   47.6397   32.9759   40.1742 H   0  0  0  0  0  0  0  0  0  0  0  0
   47.9869   34.8965   41.3142 H   0  0  0  0  0  0  0  0  0  0  0  0
   46.4568   35.4155   40.5506 H   0  0  0  0  0  0  0  0  0  0  0  0
   47.4697   33.0929   43.2582 H   0  0  0  0  0  0  0  0  0  0  0  0
   44.9615   36.4307   42.1439 H   0  0  0  0  0  0  0  0  0  0  0  0
   45.3551   34.7186   47.1590 H   0  0  0  0  0  0  0  0  0  0  0  0
   44.0076   35.7039   46.4955 H   0  0  0  0  0  0  0  0  0  0  0  0
   43.8941   33.9112   46.4955 H   0  0  0  0  0  0  0  0  0  0  0  0
  1  2  2  0
  1 11  1  0
  3  2  1  0
  4  5  1  0
  4  3  2  0
  5  1  1  0
  7  8  1  0
  7  6  1  0
  8  9  1  0
 10  6  1  0
 10  9  1  0
 10  5  1  0
 11 12  1  0
 12 14  1  0
 13 18  2  0
 14 15  2  0
 14 13  1  0
 15 16  1  0
 16 17  2  0
 17 19  1  0
 18 17  1  0
  2 20  1  0
  4 21  1  0
  6 22  1  0
  7 23  1  0
  7 24  1  0
  8 25  1  0
  8 26  1  0
  9 27  1  0
  9 28  1  0
 10 29  1  6
 11 30  1  0
 11 31  1  0
 12 32  1  0
 12 33  1  0
 13 34  1  0
 15 35  1  0
 19 36  1  0
 19 37  1  0
 19 38  1  0
M  ISO  8  20  14  21  14  22   5  23  13  24  13  25  13  26  13  27  13
M  ISO  8  28  13  29  13  30   8  31   8  32   8  33   8  34  14  35  14
M  ISO  3  36   8  37   8  38   8
M  END
>  <minimizedAffinity>  (1) 
-4.18898201

>  <minimizedRMSD>  (1) 
0.336331427

$$$$
