
     RDKit          3D

 44 46  0  0  1  0  0  0  0  0999 V2000
   45.6020   33.8440   40.3480 C   0  0  0  0  0  0  0  0  0  0  0  0
   44.2970   33.9340   40.7640 C   0  0  0  0  0  0  0  0  0  0  0  0
   43.5160   33.5050   39.7510 N   0  0  0  0  0  0  0  0  0  0  0  0
   44.2840   33.1550   38.7240 C   0  0  0  0  0  0  0  0  0  0  0  0
   45.5590   33.3660   39.1020 N   0  0  0  0  0  0  0  0  0  0  0  0
   47.0930   34.2370   37.4350 N   0  0  0  0  0  0  0  0  0  0  0  0
   48.4130   33.8950   36.9670 C   0  0  0  0  0  0  0  0  0  0  0  0
   48.9290   32.8350   37.8560 C   0  0  0  0  0  0  0  0  0  0  0  0
   47.9270   32.8330   39.0380 C   0  0  0  0  0  0  0  0  0  0  0  0
   46.7500   33.1420   38.3150 C   0  0  1  0  0  0  0  0  0  0  0  0
   46.6920   34.2370   41.1890 C   0  0  0  0  0  0  0  0  0  0  0  0
   46.2540   35.2390   42.2710 C   0  0  0  0  0  0  0  0  0  0  0  0
   47.1410   33.5380   43.7420 C   0  0  0  0  0  0  0  0  0  0  0  0
   46.1920   34.5540   43.5330 C   0  0  0  0  0  0  0  0  0  0  0  0
   45.2750   34.7790   44.5450 C   0  0  0  0  0  0  0  0  0  0  0  0
   45.3370   34.0140   45.6760 N   0  0  0  0  0  0  0  0  0  0  0  0
   46.2680   33.0480   45.8310 C   0  0  0  0  0  0  0  0  0  0  0  0
   47.1800   32.7980   44.8690 N   0  0  0  0  0  0  0  0  0  0  0  0
   46.2580   32.2650   47.0970 C   0  0  0  0  0  0  0  0  0  0  0  0
   45.0530   32.7400   47.8850 C   0  0  0  0  0  0  0  0  0  0  0  0
   47.5450   32.3830   47.8550 C   0  0  0  0  0  0  0  0  0  0  0  0
   43.9508   34.2911   41.7452 H   0  0  0  0  0  0  0  0  0  0  0  0
   43.9435   32.7676   37.7524 H   0  0  0  0  0  0  0  0  0  0  0  0
   46.4292   34.2996   36.6499 H   0  0  0  0  0  0  0  0  0  0  0  0
   48.3625   33.5273   35.9315 H   0  0  0  0  0  0  0  0  0  0  0  0
   49.0735   34.7745   36.9828 H   0  0  0  0  0  0  0  0  0  0  0  0
   48.9350   31.8613   37.3442 H   0  0  0  0  0  0  0  0  0  0  0  0
   49.9668   33.0116   38.1750 H   0  0  0  0  0  0  0  0  0  0  0  0
   47.8663   31.8502   39.5284 H   0  0  0  0  0  0  0  0  0  0  0  0
   48.1684   33.5105   39.8703 H   0  0  0  0  0  0  0  0  0  0  0  0
   46.4376   32.2553   37.7440 H   0  0  0  0  0  0  0  0  0  0  0  0
   47.1026   33.3420   41.6793 H   0  0  0  0  0  0  0  0  0  0  0  0
   47.4477   34.7276   40.5580 H   0  0  0  0  0  0  0  0  0  0  0  0
   46.9823   36.0612   42.3311 H   0  0  0  0  0  0  0  0  0  0  0  0
   45.2669   35.6546   42.0204 H   0  0  0  0  0  0  0  0  0  0  0  0
   47.8821   33.3384   42.9541 H   0  0  0  0  0  0  0  0  0  0  0  0
   44.5085   35.5610   44.4407 H   0  0  0  0  0  0  0  0  0  0  0  0
   46.1748   31.1876   46.8914 H   0  0  0  0  0  0  0  0  0  0  0  0
   45.2631   32.6572   48.9616 H   0  0  0  0  0  0  0  0  0  0  0  0
   44.8402   33.7893   47.6326 H   0  0  0  0  0  0  0  0  0  0  0  0
   44.1815   32.1181   47.6326 H   0  0  0  0  0  0  0  0  0  0  0  0
   47.3375   32.3640   48.9351 H   0  0  0  0  0  0  0  0  0  0  0  0
   48.2032   31.5414   47.5932 H   0  0  0  0  0  0  0  0  0  0  0  0
   48.0392   33.3302   47.5932 H   0  0  0  0  0  0  0  0  0  0  0  0
  1  2  2  0
  1 11  1  0
  3  2  1  0
  4  5  1  0
  4  3  2  0
  5  1  1  0
  6 10  1  0
  7  6  1  0
  7  8  1  0
  8  9  1  0
 10  9  1  0
 10  5  1  0
 11 12  1  0
 12 14  1  0
 13 18  2  0
 14 13  1  0
 14 15  2  0
 15 16  1  0
 16 17  2  0
 17 19  1  0
 18 17  1  0
 19 21  1  0
 19 20  1  0
  2 22  1  0
  4 23  1  0
  6 24  1  0
  7 25  1  0
  7 26  1  0
  8 27  1  0
  8 28  1  0
  9 29  1  0
  9 30  1  0
 10 31  1  6
 11 32  1  0
 11 33  1  0
 12 34  1  0
 12 35  1  0
 13 36  1  0
 15 37  1  0
 19 38  1  0
 20 39  1  0
 20 40  1  0
 20 41  1  0
 21 42  1  0
 21 43  1  0
 21 44  1  0
M  ISO  8  22  14  23  14  24   5  25  13  26  13  27  13  28  13  29  13
M  ISO  8  30  13  31  13  32   8  33   8  34   8  35   8  36  14  37  14
M  ISO  7  38   8  39   8  40   8  41   8  42   8  43   8  44   8
M  END
>  <minimizedAffinity>  (1) 
-5.02031422

>  <minimizedRMSD>  (1) 
1.83817506

$$$$
