
     RDKit          3D

 45 48  0  0  1  0  0  0  0  0999 V2000
   45.7830   33.3880   40.1550 C   0  0  0  0  0  0  0  0  0  0  0  0
   44.5100   33.4810   40.6320 C   0  0  0  0  0  0  0  0  0  0  0  0
   43.6760   33.3430   39.5920 N   0  0  0  0  0  0  0  0  0  0  0  0
   44.3950   33.1670   38.4890 C   0  0  0  0  0  0  0  0  0  0  0  0
   45.6910   33.1950   38.8400 N   0  0  0  0  0  0  0  0  0  0  0  0
   47.3340   34.2560   37.3960 N   0  0  0  0  0  0  0  0  0  0  0  0
   48.5770   33.8630   36.8230 C   0  0  0  0  0  0  0  0  0  0  0  0
   49.0660   32.6540   37.5480 C   0  0  0  0  0  0  0  0  0  0  0  0
   47.9130   32.3400   38.5530 C   0  0  0  0  0  0  0  0  0  0  0  0
   46.8600   33.0390   37.9940 C   0  0  1  0  0  0  0  0  0  0  0  0
   46.9510   33.5280   41.0010 C   0  0  0  0  0  0  0  0  0  0  0  0
   46.7760   34.7010   41.9790 C   0  0  0  0  0  0  0  0  0  0  0  0
   47.3680   33.1290   43.7040 C   0  0  0  0  0  0  0  0  0  0  0  0
   46.5760   34.1900   43.2920 C   0  0  0  0  0  0  0  0  0  0  0  0
   45.6010   34.6800   44.1780 C   0  0  0  0  0  0  0  0  0  0  0  0
   45.5310   34.0450   45.3660 N   0  0  0  0  0  0  0  0  0  0  0  0
   46.2910   33.0250   45.7550 C   0  0  0  0  0  0  0  0  0  0  0  0
   47.2350   32.5520   44.9080 N   0  0  0  0  0  0  0  0  0  0  0  0
   46.0720   32.4620   47.1080 C   0  0  0  0  0  0  0  0  0  0  0  0
   44.9480   33.0370   47.6790 F   0  0  0  0  0  0  0  0  0  0  0  0
   45.7420   31.1270   46.8980 F   0  0  0  0  0  0  0  0  0  0  0  0
   47.2030   32.5820   47.8920 F   0  0  0  0  0  0  0  0  0  0  0  0
   44.7300   35.8020   43.8910 C   0  0  0  0  0  0  0  0  0  0  0  0
   44.9270   37.2200   43.9760 C   0  0  0  0  0  0  0  0  0  0  0  0
   44.8940   36.6280   42.6300 C   0  0  0  0  0  0  0  0  0  0  0  0
   44.2194   33.6405   41.6809 H   0  0  0  0  0  0  0  0  0  0  0  0
   44.0003   33.0242   37.4722 H   0  0  0  0  0  0  0  0  0  0  0  0
   46.6821   34.5925   36.6730 H   0  0  0  0  0  0  0  0  0  0  0  0
   48.4373   33.6267   35.7578 H   0  0  0  0  0  0  0  0  0  0  0  0
   49.3093   34.6791   36.9103 H   0  0  0  0  0  0  0  0  0  0  0  0
   49.2215   31.8152   36.8535 H   0  0  0  0  0  0  0  0  0  0  0  0
   50.0346   32.8146   38.0440 H   0  0  0  0  0  0  0  0  0  0  0  0
   47.7009   31.2615   38.5966 H   0  0  0  0  0  0  0  0  0  0  0  0
   48.1360   32.6220   39.5926 H   0  0  0  0  0  0  0  0  0  0  0  0
   46.4564   32.4066   37.1895 H   0  0  0  0  0  0  0  0  0  0  0  0
   47.0960   32.5996   41.5729 H   0  0  0  0  0  0  0  0  0  0  0  0
   47.8267   33.7253   40.3652 H   0  0  0  0  0  0  0  0  0  0  0  0
   47.6775   35.3310   41.9628 H   0  0  0  0  0  0  0  0  0  0  0  0
   45.9057   35.3040   41.6807 H   0  0  0  0  0  0  0  0  0  0  0  0
   48.1359   32.7451   43.0163 H   0  0  0  0  0  0  0  0  0  0  0  0
   43.9990   35.1464   44.3869 H   0  0  0  0  0  0  0  0  0  0  0  0
   44.0978   37.8634   44.3053 H   0  0  0  0  0  0  0  0  0  0  0  0
   45.6484   37.8567   44.5090 H   0  0  0  0  0  0  0  0  0  0  0  0
   45.8137   36.5540   42.0312 H   0  0  0  0  0  0  0  0  0  0  0  0
   44.3179   36.7888   41.7069 H   0  0  0  0  0  0  0  0  0  0  0  0
  1  2  2  0
  1 11  1  0
  3  2  1  0
  4  5  1  0
  4  3  2  0
  5  1  1  0
  6 10  1  0
  7  6  1  0
  7  8  1  0
  8  9  1  0
 10  9  1  0
 10  5  1  0
 11 12  1  0
 12 14  1  0
 13 18  2  0
 14 13  1  0
 14 15  2  0
 15 16  1  0
 16 17  2  0
 17 19  1  0
 18 17  1  0
 19 20  1  0
 19 22  1  0
 21 19  1  0
 23 24  1  0
 23 15  1  0
 25 23  1  0
 25 24  1  0
  2 26  1  0
  4 27  1  0
  6 28  1  0
  7 29  1  0
  7 30  1  0
  8 31  1  0
  8 32  1  0
  9 33  1  0
  9 34  1  0
 10 35  1  6
 11 36  1  0
 11 37  1  0
 12 38  1  0
 12 39  1  0
 13 40  1  0
 23 41  1  0
 24 42  1  0
 24 43  1  0
 25 44  1  0
 25 45  1  0
M  ISO  8  26  14  27  14  28   5  29  13  30  13  31  13  32  13  33  13
M  ISO  8  34  13  35  13  36   8  37   8  38   8  39   8  40  14  41  13
M  ISO  4  42  13  43  13  44  13  45  13
M  END
>  <minimizedAffinity>  (1) 
-5.28084278

>  <minimizedRMSD>  (1) 
0.382164985

$$$$
