
     RDKit          3D

 45 47  0  0  1  0  0  0  0  0999 V2000
   46.8280   33.7870   40.6160 C   0  0  0  0  0  0  0  0  0  0  0  0
   45.7800   33.2590   39.7400 C   0  0  0  0  0  0  0  0  0  0  0  0
   44.5000   33.0460   40.1600 C   0  0  0  0  0  0  0  0  0  0  0  0
   43.8100   32.5730   39.1100 N   0  0  0  0  0  0  0  0  0  0  0  0
   44.6210   32.4880   38.0620 C   0  0  0  0  0  0  0  0  0  0  0  0
   45.8330   32.9090   38.4480 N   0  0  0  0  0  0  0  0  0  0  0  0
   47.4620   34.3420   37.3530 N   0  0  0  0  0  0  0  0  0  0  0  0
   48.7540   34.1440   36.7850 C   0  0  0  0  0  0  0  0  0  0  0  0
   49.3050   32.8590   37.3080 C   0  0  0  0  0  0  0  0  0  0  0  0
   48.1320   32.2820   38.1590 C   0  0  0  0  0  0  0  0  0  0  0  0
   47.0540   32.9990   37.6740 C   0  0  1  0  0  0  0  0  0  0  0  0
   46.2700   34.8930   41.5040 C   0  0  0  0  0  0  0  0  0  0  0  0
   47.1560   33.5680   43.3060 C   0  0  0  0  0  0  0  0  0  0  0  0
   46.1640   34.4150   42.8490 C   0  0  0  0  0  0  0  0  0  0  0  0
   45.1220   34.7240   43.7200 C   0  0  0  0  0  0  0  0  0  0  0  0
   45.1430   34.1750   44.9600 N   0  0  0  0  0  0  0  0  0  0  0  0
   46.1090   33.3580   45.3830 C   0  0  0  0  0  0  0  0  0  0  0  0
   47.1290   33.0480   44.5520 N   0  0  0  0  0  0  0  0  0  0  0  0
   44.0790   35.5880   43.3050 N   0  0  0  0  0  0  0  0  0  0  0  0
   43.2050   35.1780   42.2620 C   0  0  0  0  0  0  0  0  0  0  0  0
   42.7870   33.9630   42.1760 N   0  0  0  0  0  0  0  0  0  0  0  0
   42.7260   36.0820   41.2420 N   0  0  0  0  0  0  0  0  0  0  0  0
   43.0190   33.1810   42.8140 H   0  0  0  0  0  0  0  0  0  0  0  0
   46.0050   32.8280   46.7580 C   0  0  0  0  0  0  0  0  0  0  0  0
   44.9430   33.4310   47.4140 F   0  0  0  0  0  0  0  0  0  0  0  0
   45.6400   31.4830   46.6100 F   0  0  0  0  0  0  0  0  0  0  0  0
   47.2040   32.9410   47.4330 F   0  0  0  0  0  0  0  0  0  0  0  0
   47.6443   34.1932   40.0007 H   0  0  0  0  0  0  0  0  0  0  0  0
   47.2044   32.9732   41.2532 H   0  0  0  0  0  0  0  0  0  0  0  0
   44.1063   33.2279   41.1709 H   0  0  0  0  0  0  0  0  0  0  0  0
   44.3469   32.1351   37.0569 H   0  0  0  0  0  0  0  0  0  0  0  0
   46.8191   34.7742   36.6741 H   0  0  0  0  0  0  0  0  0  0  0  0
   49.4162   34.9753   37.0686 H   0  0  0  0  0  0  0  0  0  0  0  0
   48.6837   34.1071   35.6879 H   0  0  0  0  0  0  0  0  0  0  0  0
   49.5655   32.1782   36.4842 H   0  0  0  0  0  0  0  0  0  0  0  0
   50.2304   32.9929   37.8874 H   0  0  0  0  0  0  0  0  0  0  0  0
   48.0054   31.2028   37.9876 H   0  0  0  0  0  0  0  0  0  0  0  0
   48.2793   32.3775   39.2449 H   0  0  0  0  0  0  0  0  0  0  0  0
   46.7442   32.5036   36.7420 H   0  0  0  0  0  0  0  0  0  0  0  0
   46.9441   35.7618   41.4754 H   0  0  0  0  0  0  0  0  0  0  0  0
   45.2752   35.1896   41.1401 H   0  0  0  0  0  0  0  0  0  0  0  0
   47.9901   33.3105   42.6367 H   0  0  0  0  0  0  0  0  0  0  0  0
   43.9550   36.5059   43.7555 H   0  0  0  0  0  0  0  0  0  0  0  0
   42.0932   35.7386   40.5054 H   0  0  0  0  0  0  0  0  0  0  0  0
   43.0172   37.0699   41.2514 H   0  0  0  0  0  0  0  0  0  0  0  0
  1 12  1  0
  2  3  2  0
  2  1  1  0
  4  3  1  0
  5  6  1  0
  5  4  2  0
  6  2  1  0
  7 11  1  0
  8  9  1  0
  8  7  1  0
  9 10  1  0
 11 10  1  0
 11  6  1  0
 12 14  1  0
 13 18  2  0
 14 13  1  0
 14 15  2  0
 15 16  1  0
 16 17  2  0
 17 24  1  0
 18 17  1  0
 19 15  1  0
 20 19  1  0
 21 20  2  0
 21 23  1  0
 22 20  1  0
 24 25  1  0
 24 27  1  0
 26 24  1  0
  1 28  1  0
  1 29  1  0
  3 30  1  0
  5 31  1  0
  7 32  1  0
  8 33  1  0
  8 34  1  0
  9 35  1  0
  9 36  1  0
 10 37  1  0
 10 38  1  0
 11 39  1  6
 12 40  1  0
 12 41  1  0
 13 42  1  0
 19 43  1  0
 22 44  1  0
 22 45  1  0
M  ISO  8  28   8  29   8  30  14  31  14  32   5  33  13  34  13  35  13
M  ISO  7  36  13  37  13  38  13  39  13  40   8  41   8  42  14
M  END
>  <minimizedAffinity>  (1) 
-5.65852833

>  <minimizedRMSD>  (1) 
0.563081026

$$$$
