
     RDKit          3D

 39 41  0  0  1  0  0  0  0  0999 V2000
   45.5050   33.7790   40.1610 C   0  0  0  0  0  0  0  0  0  0  0  0
   44.2050   33.8170   40.5730 C   0  0  0  0  0  0  0  0  0  0  0  0
   43.4510   33.3660   39.5550 N   0  0  0  0  0  0  0  0  0  0  0  0
   44.2390   33.0540   38.5380 C   0  0  0  0  0  0  0  0  0  0  0  0
   45.5060   33.3070   38.9100 N   0  0  0  0  0  0  0  0  0  0  0  0
   47.1470   34.2680   37.4050 N   0  0  0  0  0  0  0  0  0  0  0  0
   48.4520   33.8860   36.9510 C   0  0  0  0  0  0  0  0  0  0  0  0
   48.9680   32.8200   37.8560 C   0  0  0  0  0  0  0  0  0  0  0  0
   47.7940   32.5880   38.8540 C   0  0  0  0  0  0  0  0  0  0  0  0
   46.7250   33.1210   38.1520 C   0  0  1  0  0  0  0  0  0  0  0  0
   46.6160   34.2130   41.0060 C   0  0  0  0  0  0  0  0  0  0  0  0
   46.1540   35.2600   42.0020 C   0  0  0  0  0  0  0  0  0  0  0  0
   46.9640   33.6660   43.6120 C   0  0  0  0  0  0  0  0  0  0  0  0
   46.0680   34.6600   43.3120 C   0  0  0  0  0  0  0  0  0  0  0  0
   45.1130   35.0210   44.2750 C   0  0  0  0  0  0  0  0  0  0  0  0
   45.1310   34.3600   45.4630 N   0  0  0  0  0  0  0  0  0  0  0  0
   46.0150   33.3930   45.7310 C   0  0  0  0  0  0  0  0  0  0  0  0
   46.9420   33.0380   44.8040 N   0  0  0  0  0  0  0  0  0  0  0  0
   45.9350   32.7410   47.0590 C   0  0  0  0  0  0  0  0  0  0  0  0
   44.8890   33.2910   47.7820 F   0  0  0  0  0  0  0  0  0  0  0  0
   45.5670   31.4180   46.8020 F   0  0  0  0  0  0  0  0  0  0  0  0
   47.1420   32.8020   47.7270 F   0  0  0  0  0  0  0  0  0  0  0  0
   44.2270   36.0210   43.9480 O   0  0  0  0  0  0  0  0  0  0  0  0
   43.8413   34.1538   41.5550 H   0  0  0  0  0  0  0  0  0  0  0  0
   43.9154   32.6588   37.5638 H   0  0  0  0  0  0  0  0  0  0  0  0
   46.5154   34.4473   36.6114 H   0  0  0  0  0  0  0  0  0  0  0  0
   48.3905   33.5027   35.9218 H   0  0  0  0  0  0  0  0  0  0  0  0
   49.1273   34.7542   36.9638 H   0  0  0  0  0  0  0  0  0  0  0  0
   49.1927   31.9018   37.2935 H   0  0  0  0  0  0  0  0  0  0  0  0
   49.9061   33.1012   38.3569 H   0  0  0  0  0  0  0  0  0  0  0  0
   47.6464   31.5174   39.0588 H   0  0  0  0  0  0  0  0  0  0  0  0
   47.9509   33.0410   39.8440 H   0  0  0  0  0  0  0  0  0  0  0  0
   46.4084   32.3513   37.4328 H   0  0  0  0  0  0  0  0  0  0  0  0
   47.0145   33.3455   41.5525 H   0  0  0  0  0  0  0  0  0  0  0  0
   47.3962   34.6523   40.3670 H   0  0  0  0  0  0  0  0  0  0  0  0
   46.8745   36.0909   42.0239 H   0  0  0  0  0  0  0  0  0  0  0  0
   45.1671   35.6443   41.7048 H   0  0  0  0  0  0  0  0  0  0  0  0
   47.7163   33.3753   42.8640 H   0  0  0  0  0  0  0  0  0  0  0  0
   43.5381   36.3047   44.6000 H   0  0  0  0  0  0  0  0  0  0  0  0
  1  2  2  0
  1 11  1  0
  3  2  1  0
  4  5  1  0
  4  3  2  0
  5  1  1  0
  6 10  1  0
  7  6  1  0
  7  8  1  0
  8  9  1  0
 10  9  1  0
 10  5  1  0
 11 12  1  0
 12 14  1  0
 13 18  2  0
 14 13  1  0
 14 15  2  0
 15 16  1  0
 16 17  2  0
 17 19  1  0
 18 17  1  0
 19 22  1  0
 19 20  1  0
 21 19  1  0
 23 15  1  0
  2 24  1  0
  4 25  1  0
  6 26  1  0
  7 27  1  0
  7 28  1  0
  8 29  1  0
  8 30  1  0
  9 31  1  0
  9 32  1  0
 10 33  1  6
 11 34  1  0
 11 35  1  0
 12 36  1  0
 12 37  1  0
 13 38  1  0
 23 39  1  0
M  ISO  8  24  14  25  14  26   5  27  13  28  13  29  13  30  13  31  13
M  ISO  8  32  13  33  13  34   8  35   8  36   8  37   8  38  14  39   3
M  END
>  <minimizedAffinity>  (1) 
-5.69744968

>  <minimizedRMSD>  (1) 
0.174951211

$$$$
