
     RDKit          3D

 21 22  0  0  0  0  0  0  0  0999 V2000
   46.6870   34.7300   42.0420 C   0  0  0  0  0  0  0  0  0  0  0  0
   47.8800   35.3820   41.8760 C   0  0  0  0  0  0  0  0  0  0  0  0
   48.6370   35.2730   40.7090 C   0  0  0  0  0  0  0  0  0  0  0  0
   48.1740   34.4710   39.6600 C   0  0  0  0  0  0  0  0  0  0  0  0
   46.9690   33.8110   39.8230 C   0  0  0  0  0  0  0  0  0  0  0  0
   46.2570   33.9510   40.9960 C   0  0  0  0  0  0  0  0  0  0  0  0
   44.4930   36.0400   44.7950 C   0  0  0  0  0  0  0  0  0  0  0  0
   45.1330   35.9870   43.5530 C   0  0  0  0  0  0  0  0  0  0  0  0
   45.9680   34.9020   43.2880 C   0  0  0  0  0  0  0  0  0  0  0  0
   46.1250   33.9510   44.2330 N   0  0  0  0  0  0  0  0  0  0  0  0
   45.4870   34.0300   45.4330 C   0  0  0  0  0  0  0  0  0  0  0  0
   44.6770   35.0750   45.7010 N   0  0  0  0  0  0  0  0  0  0  0  0
   45.0260   33.2970   41.2050 O   0  0  0  0  0  0  0  0  0  0  0  0
   48.2554   36.0153   42.6933 H   0  0  0  0  0  0  0  0  0  0  0  0
   49.5904   35.8134   40.6143 H   0  0  0  0  0  0  0  0  0  0  0  0
   48.7528   34.3680   38.7303 H   0  0  0  0  0  0  0  0  0  0  0  0
   46.5782   33.1737   39.0160 H   0  0  0  0  0  0  0  0  0  0  0  0
   43.8302   36.8861   45.0291 H   0  0  0  0  0  0  0  0  0  0  0  0
   44.9820   36.7796   42.8053 H   0  0  0  0  0  0  0  0  0  0  0  0
   45.6322   33.2406   46.1852 H   0  0  0  0  0  0  0  0  0  0  0  0
   44.5396   33.4185   42.0587 H   0  0  0  0  0  0  0  0  0  0  0  0
  1  9  1  0
  2  1  2  0
  3  2  1  0
  4  5  1  0
  4  3  2  0
  5  6  2  0
  6 13  1  0
  6  1  1  0
  7 12  2  0
  8  7  1  0
  9  8  2  0
  9 10  1  0
 10 11  2  0
 11 12  1  0
  2 14  1  0
  3 15  1  0
  4 16  1  0
  5 17  1  0
  7 18  1  0
  8 19  1  0
 11 20  1  0
 13 21  1  0
M  ISO  8  14  14  15  14  16  14  17  14  18  14  19  14  20  14  21   3
M  END
>  <minimizedAffinity>  (1) 
-5.03968859

>  <minimizedRMSD>  (1) 
0.0527511723

$$$$
