
     RDKit          3D

 28 31  0  0  0  0  0  0  0  0999 V2000
   46.7870   34.7640   42.1380 C   0  0  0  0  0  0  0  0  0  0  0  0
   47.9630   35.4030   41.8350 C   0  0  0  0  0  0  0  0  0  0  0  0
   48.6150   35.1340   40.6750 C   0  0  0  0  0  0  0  0  0  0  0  0
   47.9420   34.1300   39.8360 C   0  0  0  0  0  0  0  0  0  0  0  0
   46.4690   33.7020   40.8060 S   0  0  0  0  0  0  0  0  0  0  0  0
   48.3730   33.6520   38.5920 N   0  0  0  0  0  0  0  0  0  0  0  0
   48.0890   34.2990   37.4480 C   0  0  0  0  0  0  0  0  0  0  0  0
   48.6360   33.5940   36.4520 N   0  0  0  0  0  0  0  0  0  0  0  0
   49.2470   32.5300   36.9740 C   0  0  0  0  0  0  0  0  0  0  0  0
   49.9710   31.4650   36.4370 C   0  0  0  0  0  0  0  0  0  0  0  0
   50.4800   30.5160   37.2330 N   0  0  0  0  0  0  0  0  0  0  0  0
   50.3010   30.5750   38.5850 C   0  0  0  0  0  0  0  0  0  0  0  0
   49.6030   31.5890   39.1670 N   0  0  0  0  0  0  0  0  0  0  0  0
   49.0840   32.5570   38.3560 C   0  0  0  0  0  0  0  0  0  0  0  0
   44.4470   36.0540   44.7750 C   0  0  0  0  0  0  0  0  0  0  0  0
   45.1330   36.0110   43.5510 C   0  0  0  0  0  0  0  0  0  0  0  0
   46.0030   34.9580   43.3270 C   0  0  0  0  0  0  0  0  0  0  0  0
   46.1540   34.0190   44.3030 N   0  0  0  0  0  0  0  0  0  0  0  0
   45.4820   34.0940   45.4620 C   0  0  0  0  0  0  0  0  0  0  0  0
   44.6360   35.0970   45.7040 N   0  0  0  0  0  0  0  0  0  0  0  0
   48.3807   36.1391   42.5376 H   0  0  0  0  0  0  0  0  0  0  0  0
   49.5587   35.6214   40.3889 H   0  0  0  0  0  0  0  0  0  0  0  0
   47.5150   35.2322   37.3499 H   0  0  0  0  0  0  0  0  0  0  0  0
   50.1251   31.4043   35.3495 H   0  0  0  0  0  0  0  0  0  0  0  0
   50.7305   29.7852   39.2189 H   0  0  0  0  0  0  0  0  0  0  0  0
   43.7474   36.8783   44.9778 H   0  0  0  0  0  0  0  0  0  0  0  0
   44.9833   36.7922   42.7912 H   0  0  0  0  0  0  0  0  0  0  0  0
   45.6310   33.3159   46.2251 H   0  0  0  0  0  0  0  0  0  0  0  0
  1 17  1  0
  2  1  2  0
  3  2  1  0
  4  3  2  0
  4  5  1  0
  5  1  1  0
  6  4  1  0
  7  6  1  0
  8  9  1  0
  8  7  2  0
  9 14  2  0
 10  9  1  0
 10 11  2  0
 11 12  1  0
 12 13  2  0
 14  6  1  0
 14 13  1  0
 15 20  2  0
 16 15  1  0
 17 16  2  0
 17 18  1  0
 18 19  2  0
 19 20  1  0
  2 21  1  0
  3 22  1  0
  7 23  1  0
 10 24  1  0
 12 25  1  0
 15 26  1  0
 16 27  1  0
 19 28  1  0
M  ISO  8  21  14  22  14  23  14  24  14  25  14  26  14  27  14  28  14
M  END
>  <minimizedAffinity>  (1) 
-5.76810122

>  <minimizedRMSD>  (1) 
0.730130434

$$$$
