
     RDKit          3D

 33 36  0  0  0  0  0  0  0  0999 V2000
   46.6190   34.5670   42.2180 C   0  0  0  0  0  0  0  0  0  0  0  0
   47.7350   35.2160   41.7590 C   0  0  0  0  0  0  0  0  0  0  0  0
   48.3180   34.8830   40.5800 C   0  0  0  0  0  0  0  0  0  0  0  0
   47.6560   33.8000   39.8750 C   0  0  0  0  0  0  0  0  0  0  0  0
   46.3030   33.4140   40.9920 S   0  0  0  0  0  0  0  0  0  0  0  0
   48.1890   33.3590   38.6070 C   0  0  0  0  0  0  0  0  0  0  0  0
   47.7500   33.8400   37.3960 C   0  0  0  0  0  0  0  0  0  0  0  0
   48.2780   33.3990   36.2330 C   0  0  0  0  0  0  0  0  0  0  0  0
   49.2610   32.4660   36.1540 C   0  0  0  0  0  0  0  0  0  0  0  0
   49.7150   31.9700   37.3480 C   0  0  0  0  0  0  0  0  0  0  0  0
   50.7140   31.0210   37.2980 C   0  0  0  0  0  0  0  0  0  0  0  0
   51.2420   30.4570   38.4340 C   0  0  0  0  0  0  0  0  0  0  0  0
   50.7240   30.8860   39.6610 C   0  0  0  0  0  0  0  0  0  0  0  0
   49.7300   31.8360   39.6420 C   0  0  0  0  0  0  0  0  0  0  0  0
   49.1830   32.4140   38.5410 C   0  0  0  0  0  0  0  0  0  0  0  0
   44.4470   36.0300   44.9030 C   0  0  0  0  0  0  0  0  0  0  0  0
   45.0720   35.9220   43.6370 C   0  0  0  0  0  0  0  0  0  0  0  0
   45.9060   34.8130   43.4260 C   0  0  0  0  0  0  0  0  0  0  0  0
   46.0650   33.9250   44.4190 N   0  0  0  0  0  0  0  0  0  0  0  0
   45.4660   34.0430   45.6060 C   0  0  0  0  0  0  0  0  0  0  0  0
   44.6540   35.0990   45.8510 N   0  0  0  0  0  0  0  0  0  0  0  0
   48.1692   36.0274   42.3615 H   0  0  0  0  0  0  0  0  0  0  0  0
   49.2141   35.3894   40.1920 H   0  0  0  0  0  0  0  0  0  0  0  0
   46.9536   34.5984   37.3735 H   0  0  0  0  0  0  0  0  0  0  0  0
   47.8883   33.8209   35.2948 H   0  0  0  0  0  0  0  0  0  0  0  0
   49.6685   32.1285   35.1896 H   0  0  0  0  0  0  0  0  0  0  0  0
   51.1004   30.7055   36.3176 H   0  0  0  0  0  0  0  0  0  0  0  0
   52.0384   29.7001   38.3812 H   0  0  0  0  0  0  0  0  0  0  0  0
   51.0998   30.4765   40.6102 H   0  0  0  0  0  0  0  0  0  0  0  0
   49.3381   32.1608   40.6171 H   0  0  0  0  0  0  0  0  0  0  0  0
   43.7858   36.8836   45.1130 H   0  0  0  0  0  0  0  0  0  0  0  0
   44.9107   36.6755   42.8520 H   0  0  0  0  0  0  0  0  0  0  0  0
   45.6316   33.2835   46.3843 H   0  0  0  0  0  0  0  0  0  0  0  0
  1 18  1  0
  2  1  2  0
  3  2  1  0
  4  3  2  0
  4  5  1  0
  5  1  1  0
  6  4  1  0
  7  6  2  0
  8  7  1  0
  9  8  2  0
  9 10  1  0
 10 15  2  0
 11 10  1  0
 11 12  2  0
 12 13  1  0
 14 13  2  0
 15  6  1  0
 15 14  1  0
 16 21  2  0
 17 16  1  0
 18 17  2  0
 18 19  1  0
 19 20  2  0
 20 21  1  0
  2 22  1  0
  3 23  1  0
  7 24  1  0
  8 25  1  0
  9 26  1  0
 11 27  1  0
 12 28  1  0
 13 29  1  0
 14 30  1  0
 16 31  1  0
 17 32  1  0
 20 33  1  0
M  ISO  8  22  14  23  14  24  14  25  14  26  14  27  14  28  14  29  14
M  ISO  4  30  14  31  14  32  14  33  14
M  END
>  <minimizedAffinity>  (1) 
-5.656147

>  <minimizedRMSD>  (1) 
0.769761026

$$$$
