
     RDKit          3D

 24 26  0  0  0  0  0  0  0  0999 V2000
   46.7620   34.7980   42.0650 C   0  0  0  0  0  0  0  0  0  0  0  0
   47.9890   35.3530   41.7880 C   0  0  0  0  0  0  0  0  0  0  0  0
   48.6060   35.1150   40.5860 C   0  0  0  0  0  0  0  0  0  0  0  0
   47.8530   34.2570   39.6910 C   0  0  0  0  0  0  0  0  0  0  0  0
   46.3570   33.8790   40.6420 S   0  0  0  0  0  0  0  0  0  0  0  0
   44.4680   35.9970   44.7700 C   0  0  0  0  0  0  0  0  0  0  0  0
   45.1260   35.9820   43.5290 C   0  0  0  0  0  0  0  0  0  0  0  0
   46.0110   34.9530   43.2630 C   0  0  0  0  0  0  0  0  0  0  0  0
   46.2030   34.0010   44.2170 N   0  0  0  0  0  0  0  0  0  0  0  0
   45.5680   34.0280   45.3950 C   0  0  0  0  0  0  0  0  0  0  0  0
   44.7040   35.0160   45.6810 N   0  0  0  0  0  0  0  0  0  0  0  0
   48.1550   33.7980   38.3980 C   0  0  0  0  0  0  0  0  0  0  0  0
   48.9650   32.7210   38.1190 C   0  0  0  0  0  0  0  0  0  0  0  0
   49.0140   32.5940   36.7660 N   0  0  0  0  0  0  0  0  0  0  0  0
   48.2390   33.5900   36.2700 C   0  0  0  0  0  0  0  0  0  0  0  0
   47.7040   34.3380   37.2580 N   0  0  0  0  0  0  0  0  0  0  0  0
   48.4798   35.9929   42.5360 H   0  0  0  0  0  0  0  0  0  0  0  0
   49.5869   35.5382   40.3236 H   0  0  0  0  0  0  0  0  0  0  0  0
   43.7596   36.8050   45.0053 H   0  0  0  0  0  0  0  0  0  0  0  0
   44.9415   36.7712   42.7853 H   0  0  0  0  0  0  0  0  0  0  0  0
   45.7550   33.2353   46.1343 H   0  0  0  0  0  0  0  0  0  0  0  0
   49.4772   32.0821   38.8534 H   0  0  0  0  0  0  0  0  0  0  0  0
   48.0679   33.7662   35.1978 H   0  0  0  0  0  0  0  0  0  0  0  0
   47.0808   35.1518   37.1568 H   0  0  0  0  0  0  0  0  0  0  0  0
  1  8  1  0
  2  1  2  0
  3  2  1  0
  4  3  2  0
  4  5  1  0
  5  1  1  0
  6 11  2  0
  7  6  1  0
  8  7  2  0
  8  9  1  0
  9 10  2  0
 10 11  1  0
 12  4  1  0
 13 12  2  0
 14 13  1  0
 15 14  2  0
 15 16  1  0
 16 12  1  0
  2 17  1  0
  3 18  1  0
  6 19  1  0
  7 20  1  0
 10 21  1  0
 13 22  1  0
 15 23  1  0
 16 24  1  0
M  ISO  8  17  14  18  14  19  14  20  14  21  14  22  14  23  14  24   9
M  END
>  <minimizedAffinity>  (1) 
-5.47057724

>  <minimizedRMSD>  (1) 
0.238328531

$$$$
