
     RDKit          3D

 27 29  0  0  0  0  0  0  0  0999 V2000
   46.7550   34.6940   42.1910 C   0  0  0  0  0  0  0  0  0  0  0  0
   47.9160   35.3430   41.8440 C   0  0  0  0  0  0  0  0  0  0  0  0
   48.5440   35.0530   40.6740 C   0  0  0  0  0  0  0  0  0  0  0  0
   47.8750   34.0230   39.8700 C   0  0  0  0  0  0  0  0  0  0  0  0
   46.4260   33.5900   40.8830 S   0  0  0  0  0  0  0  0  0  0  0  0
   44.4450   36.0230   44.8390 C   0  0  0  0  0  0  0  0  0  0  0  0
   45.1280   35.9550   43.6050 C   0  0  0  0  0  0  0  0  0  0  0  0
   45.9960   34.9010   43.3880 C   0  0  0  0  0  0  0  0  0  0  0  0
   46.1480   33.9920   44.3650 N   0  0  0  0  0  0  0  0  0  0  0  0
   45.4910   34.0710   45.5310 C   0  0  0  0  0  0  0  0  0  0  0  0
   44.6430   35.0750   45.7790 N   0  0  0  0  0  0  0  0  0  0  0  0
   48.2900   33.5090   38.6040 C   0  0  0  0  0  0  0  0  0  0  0  0
   48.0020   34.1090   37.3950 C   0  0  0  0  0  0  0  0  0  0  0  0
   48.4810   33.4780   36.2680 C   0  0  0  0  0  0  0  0  0  0  0  0
   49.2130   32.3080   36.3150 C   0  0  0  0  0  0  0  0  0  0  0  0
   49.4960   31.7160   37.5330 C   0  0  0  0  0  0  0  0  0  0  0  0
   49.0200   32.3410   38.6770 C   0  0  0  0  0  0  0  0  0  0  0  0
   48.3397   36.1022   42.5178 H   0  0  0  0  0  0  0  0  0  0  0  0
   49.4739   35.5477   40.3568 H   0  0  0  0  0  0  0  0  0  0  0  0
   43.7489   36.8518   45.0349 H   0  0  0  0  0  0  0  0  0  0  0  0
   44.9729   36.7236   42.8335 H   0  0  0  0  0  0  0  0  0  0  0  0
   45.6521   33.2974   46.2962 H   0  0  0  0  0  0  0  0  0  0  0  0
   47.4211   35.0411   37.3345 H   0  0  0  0  0  0  0  0  0  0  0  0
   48.2708   33.9266   35.2859 H   0  0  0  0  0  0  0  0  0  0  0  0
   49.5714   31.8463   35.3832 H   0  0  0  0  0  0  0  0  0  0  0  0
   50.0771   30.7839   37.5925 H   0  0  0  0  0  0  0  0  0  0  0  0
   49.2290   31.8962   39.6611 H   0  0  0  0  0  0  0  0  0  0  0  0
  1  8  1  0
  2  1  2  0
  3  2  1  0
  4  3  2  0
  4  5  1  0
  5  1  1  0
  6 11  2  0
  7  6  1  0
  8  7  2  0
  8  9  1  0
  9 10  2  0
 10 11  1  0
 12 17  1  0
 12  4  1  0
 13 12  2  0
 14 15  2  0
 14 13  1  0
 15 16  1  0
 16 17  2  0
  2 18  1  0
  3 19  1  0
  6 20  1  0
  7 21  1  0
 10 22  1  0
 13 23  1  0
 14 24  1  0
 15 25  1  0
 16 26  1  0
 17 27  1  0
M  ISO  8  18  14  19  14  20  14  21  14  22  14  23  14  24  14  25  14
M  ISO  2  26  14  27  14
M  END
>  <minimizedAffinity>  (1) 
-5.35126543

>  <minimizedRMSD>  (1) 
0.760641277

$$$$
