
     RDKit          3D

 33 35  0  0  0  0  0  0  0  0999 V2000
   46.8360   34.7910   42.0070 C   0  0  0  0  0  0  0  0  0  0  0  0
   48.0510   35.3740   41.7470 C   0  0  0  0  0  0  0  0  0  0  0  0
   48.6820   35.1600   40.5690 C   0  0  0  0  0  0  0  0  0  0  0  0
   47.9530   34.2800   39.6480 C   0  0  0  0  0  0  0  0  0  0  0  0
   46.4340   33.8580   40.5970 S   0  0  0  0  0  0  0  0  0  0  0  0
   44.4900   35.9420   44.7110 C   0  0  0  0  0  0  0  0  0  0  0  0
   45.1610   35.9470   43.4690 C   0  0  0  0  0  0  0  0  0  0  0  0
   46.0690   34.9360   43.2110 C   0  0  0  0  0  0  0  0  0  0  0  0
   46.2660   33.9960   44.1610 N   0  0  0  0  0  0  0  0  0  0  0  0
   45.6240   34.0010   45.3360 C   0  0  0  0  0  0  0  0  0  0  0  0
   44.7330   34.9730   45.6170 N   0  0  0  0  0  0  0  0  0  0  0  0
   48.3440   33.8410   38.2990 C   0  0  0  0  0  0  0  0  0  0  0  0
   47.2350   33.7840   37.3270 C   0  0  0  0  0  0  0  0  0  0  0  0
   46.8730   32.4600   36.7660 C   0  0  0  0  0  0  0  0  0  0  0  0
   47.9670   31.4500   36.6920 C   0  0  0  0  0  0  0  0  0  0  0  0
   49.3210   32.0200   37.0520 C   0  0  0  0  0  0  0  0  0  0  0  0
   49.1180   32.5580   38.4560 C   0  0  0  0  0  0  0  0  0  0  0  0
   48.5168   36.0220   42.5040 H   0  0  0  0  0  0  0  0  0  0  0  0
   49.6566   35.6068   40.3232 H   0  0  0  0  0  0  0  0  0  0  0  0
   43.7632   36.7348   44.9417 H   0  0  0  0  0  0  0  0  0  0  0  0
   44.9668   36.7344   42.7258 H   0  0  0  0  0  0  0  0  0  0  0  0
   45.8240   33.2101   46.0739 H   0  0  0  0  0  0  0  0  0  0  0  0
   48.9899   34.6004   37.8342 H   0  0  0  0  0  0  0  0  0  0  0  0
   46.3404   34.1841   37.8266 H   0  0  0  0  0  0  0  0  0  0  0  0
   47.5951   34.3613   36.4627 H   0  0  0  0  0  0  0  0  0  0  0  0
   46.0711   32.0397   37.3908 H   0  0  0  0  0  0  0  0  0  0  0  0
   46.5833   32.6540   35.7227 H   0  0  0  0  0  0  0  0  0  0  0  0
   47.7352   30.6302   37.3878 H   0  0  0  0  0  0  0  0  0  0  0  0
   48.0229   31.1002   35.6506 H   0  0  0  0  0  0  0  0  0  0  0  0
   50.0932   31.2367   37.0391 H   0  0  0  0  0  0  0  0  0  0  0  0
   49.6635   32.7892   36.3442 H   0  0  0  0  0  0  0  0  0  0  0  0
   50.0888   32.7531   38.9350 H   0  0  0  0  0  0  0  0  0  0  0  0
   48.5811   31.8377   39.0907 H   0  0  0  0  0  0  0  0  0  0  0  0
  1  8  1  0
  2  1  2  0
  3  2  1  0
  4  3  2  0
  4  5  1  0
  5  1  1  0
  6 11  2  0
  7  6  1  0
  8  7  2  0
  8  9  1  0
  9 10  2  0
 10 11  1  0
 12 17  1  0
 12  4  1  0
 13 12  1  0
 14 13  1  0
 15 14  1  0
 15 16  1  0
 16 17  1  0
  2 18  1  0
  3 19  1  0
  6 20  1  0
  7 21  1  0
 10 22  1  0
 12 23  1  0
 13 24  1  0
 13 25  1  0
 14 26  1  0
 14 27  1  0
 15 28  1  0
 15 29  1  0
 16 30  1  0
 16 31  1  0
 17 32  1  0
 17 33  1  0
M  ISO  8  18  14  19  14  20  14  21  14  22  14  23  13  24  13  25  13
M  ISO  8  26  13  27  13  28  13  29  13  30  13  31  13  32  13  33  13
M  END
>  <minimizedAffinity>  (1) 
-5.3187685

>  <minimizedRMSD>  (1) 
0.652496934

$$$$
