
     RDKit          3D

 24 26  0  0  0  0  0  0  0  0999 V2000
   46.7600   34.7570   42.1750 C   0  0  0  0  0  0  0  0  0  0  0  0
   47.9490   35.3710   41.8650 C   0  0  0  0  0  0  0  0  0  0  0  0
   48.5960   35.1420   40.6950 C   0  0  0  0  0  0  0  0  0  0  0  0
   47.9060   34.1950   39.8290 C   0  0  0  0  0  0  0  0  0  0  0  0
   46.4300   33.7650   40.8030 S   0  0  0  0  0  0  0  0  0  0  0  0
   44.4440   35.9940   44.8520 C   0  0  0  0  0  0  0  0  0  0  0  0
   45.1110   35.9890   43.5950 C   0  0  0  0  0  0  0  0  0  0  0  0
   45.9980   34.9310   43.3710 C   0  0  0  0  0  0  0  0  0  0  0  0
   46.1680   34.0040   44.3280 N   0  0  0  0  0  0  0  0  0  0  0  0
   45.5230   34.0420   45.4970 C   0  0  0  0  0  0  0  0  0  0  0  0
   44.6650   35.0280   45.7650 N   0  0  0  0  0  0  0  0  0  0  0  0
   48.2530   33.7050   38.5530 C   0  0  0  0  0  0  0  0  0  0  0  0
   48.0680   34.1760   37.3450 C   0  0  0  0  0  0  0  0  0  0  0  0
   48.5350   33.4440   36.2840 C   0  0  0  0  0  0  0  0  0  0  0  0
   49.1890   32.2260   36.5440 C   0  0  0  0  0  0  0  0  0  0  0  0
   49.1100   32.1660   38.3870 S   0  0  0  0  0  0  0  0  0  0  0  0
   48.3909   36.0712   42.5892 H   0  0  0  0  0  0  0  0  0  0  0  0
   49.5477   35.6237   40.4265 H   0  0  0  0  0  0  0  0  0  0  0  0
   43.7343   36.8021   45.0828 H   0  0  0  0  0  0  0  0  0  0  0  0
   44.9388   36.7725   42.8424 H   0  0  0  0  0  0  0  0  0  0  0  0
   45.7005   33.2546   46.2443 H   0  0  0  0  0  0  0  0  0  0  0  0
   47.5514   35.1340   37.1858 H   0  0  0  0  0  0  0  0  0  0  0  0
   48.4012   33.8012   35.2523 H   0  0  0  0  0  0  0  0  0  0  0  0
   49.6286   31.5045   35.8395 H   0  0  0  0  0  0  0  0  0  0  0  0
  1  8  1  0
  2  1  2  0
  3  2  1  0
  4  3  2  0
  4  5  1  0
  5  1  1  0
  6 11  2  0
  7  6  1  0
  8  7  2  0
  8  9  1  0
  9 10  2  0
 10 11  1  0
 12  4  1  0
 13 12  2  0
 14 15  2  0
 14 13  1  0
 15 16  1  0
 16 12  1  0
  2 17  1  0
  3 18  1  0
  6 19  1  0
  7 20  1  0
 10 21  1  0
 13 22  1  0
 14 23  1  0
 15 24  1  0
M  ISO  8  17  14  18  14  19  14  20  14  21  14  22  14  23  14  24  14
M  END
>  <minimizedAffinity>  (1) 
-5.33589125

>  <minimizedRMSD>  (1) 
0.241772369

$$$$
