
     RDKit          3D

 24 26  0  0  0  0  0  0  0  0999 V2000
   46.8300   34.7850   42.1320 C   0  0  0  0  0  0  0  0  0  0  0  0
   48.0090   35.4210   41.8300 C   0  0  0  0  0  0  0  0  0  0  0  0
   48.6590   35.1720   40.6630 C   0  0  0  0  0  0  0  0  0  0  0  0
   47.9870   34.1970   39.8070 C   0  0  0  0  0  0  0  0  0  0  0  0
   46.5160   33.7530   40.7690 S   0  0  0  0  0  0  0  0  0  0  0  0
   44.4580   35.9860   44.7730 C   0  0  0  0  0  0  0  0  0  0  0  0
   45.1430   35.9750   43.5510 C   0  0  0  0  0  0  0  0  0  0  0  0
   46.0410   34.9480   43.3190 C   0  0  0  0  0  0  0  0  0  0  0  0
   46.2050   34.0210   44.2740 N   0  0  0  0  0  0  0  0  0  0  0  0
   45.5510   34.0330   45.4360 C   0  0  0  0  0  0  0  0  0  0  0  0
   44.6670   35.0280   45.6870 N   0  0  0  0  0  0  0  0  0  0  0  0
   48.3580   33.6920   38.5310 C   0  0  0  0  0  0  0  0  0  0  0  0
   47.9970   34.2870   37.3430 C   0  0  0  0  0  0  0  0  0  0  0  0
   48.5700   33.4660   36.3640 C   0  0  0  0  0  0  0  0  0  0  0  0
   49.2220   32.4530   37.0480 C   0  0  0  0  0  0  0  0  0  0  0  0
   49.0770   32.6140   38.3620 O   0  0  0  0  0  0  0  0  0  0  0  0
   48.4335   36.1427   42.5434 H   0  0  0  0  0  0  0  0  0  0  0  0
   49.6055   35.6603   40.3876 H   0  0  0  0  0  0  0  0  0  0  0  0
   43.7393   36.7913   44.9852 H   0  0  0  0  0  0  0  0  0  0  0  0
   44.9722   36.7591   42.7986 H   0  0  0  0  0  0  0  0  0  0  0  0
   45.7274   33.2441   46.1820 H   0  0  0  0  0  0  0  0  0  0  0  0
   47.3969   35.1972   37.1967 H   0  0  0  0  0  0  0  0  0  0  0  0
   48.5138   33.5985   35.2735 H   0  0  0  0  0  0  0  0  0  0  0  0
   49.7800   31.6325   36.5733 H   0  0  0  0  0  0  0  0  0  0  0  0
  1  8  1  0
  2  1  2  0
  3  2  1  0
  4  3  2  0
  4  5  1  0
  5  1  1  0
  6 11  2  0
  7  6  1  0
  8  7  2  0
  8  9  1  0
  9 10  2  0
 10 11  1  0
 12  4  1  0
 13 12  2  0
 14 15  2  0
 14 13  1  0
 15 16  1  0
 16 12  1  0
  2 17  1  0
  3 18  1  0
  6 19  1  0
  7 20  1  0
 10 21  1  0
 13 22  1  0
 14 23  1  0
 15 24  1  0
M  ISO  8  17  14  18  14  19  14  20  14  21  14  22  14  23  14  24  14
M  END
>  <minimizedAffinity>  (1) 
-5.37410736

>  <minimizedRMSD>  (1) 
0.2302154

$$$$
