
     RDKit          3D

 20 21  0  0  0  0  0  0  0  0999 V2000
   46.8310   34.8110   42.1220 C   0  0  0  0  0  0  0  0  0  0  0  0
   48.0590   35.3710   41.8740 C   0  0  0  0  0  0  0  0  0  0  0  0
   48.6600   35.2170   40.6670 C   0  0  0  0  0  0  0  0  0  0  0  0
   47.8820   34.4240   39.7110 C   0  0  0  0  0  0  0  0  0  0  0  0
   46.3840   33.9930   40.6530 S   0  0  0  0  0  0  0  0  0  0  0  0
   44.4940   35.8150   44.8920 C   0  0  0  0  0  0  0  0  0  0  0  0
   45.1450   35.8790   43.6370 C   0  0  0  0  0  0  0  0  0  0  0  0
   46.0800   34.8910   43.3450 C   0  0  0  0  0  0  0  0  0  0  0  0
   46.3070   33.9420   44.2650 N   0  0  0  0  0  0  0  0  0  0  0  0
   45.6830   33.8970   45.4410 C   0  0  0  0  0  0  0  0  0  0  0  0
   44.7760   34.8330   45.7580 N   0  0  0  0  0  0  0  0  0  0  0  0
   48.2640   34.0990   38.3660 C   0  0  0  0  0  0  0  0  0  0  0  0
   47.9070   33.1210   37.6620 O   0  0  0  0  0  0  0  0  0  0  0  0
   49.1430   35.0030   37.7980 O   0  0  0  0  0  0  0  0  0  0  0  0
   48.5616   35.9510   42.6620 H   0  0  0  0  0  0  0  0  0  0  0  0
   49.6430   35.6487   40.4276 H   0  0  0  0  0  0  0  0  0  0  0  0
   43.7492   36.5792   45.1588 H   0  0  0  0  0  0  0  0  0  0  0  0
   44.9199   36.6809   42.9184 H   0  0  0  0  0  0  0  0  0  0  0  0
   45.9119   33.0908   46.1535 H   0  0  0  0  0  0  0  0  0  0  0  0
   49.4652   34.8652   36.8721 H   0  0  0  0  0  0  0  0  0  0  0  0
  1  8  1  0
  2  1  2  0
  3  2  1  0
  4  5  1  0
  4  3  2  0
  5  1  1  0
  6 11  2  0
  7  6  1  0
  8  7  2  0
  8  9  1  0
  9 10  2  0
 10 11  1  0
 12  4  1  0
 13 12  2  0
 14 12  1  0
  2 15  1  0
  3 16  1  0
  6 17  1  0
  7 18  1  0
 10 19  1  0
 14 20  1  0
M  ISO  6  15  14  16  14  17  14  18  14  19  14  20   3
M  END
>  <minimizedAffinity>  (1) 
-5.24788857

>  <minimizedRMSD>  (1) 
0.245515481

$$$$
