
     RDKit          3D

 20 21  0  0  0  0  0  0  0  0999 V2000
   44.4630   35.9220   44.8740 C   0  0  0  0  0  0  0  0  0  0  0  0
   45.1070   35.9410   43.6210 C   0  0  0  0  0  0  0  0  0  0  0  0
   46.0180   34.9080   43.3440 C   0  0  0  0  0  0  0  0  0  0  0  0
   46.2250   33.9660   44.2770 N   0  0  0  0  0  0  0  0  0  0  0  0
   45.6000   33.9700   45.4640 C   0  0  0  0  0  0  0  0  0  0  0  0
   44.7160   34.9510   45.7620 N   0  0  0  0  0  0  0  0  0  0  0  0
   46.7620   34.7790   42.1260 C   0  0  0  0  0  0  0  0  0  0  0  0
   47.9910   35.3310   41.8650 C   0  0  0  0  0  0  0  0  0  0  0  0
   48.6120   35.1510   40.6730 C   0  0  0  0  0  0  0  0  0  0  0  0
   47.8330   34.3260   39.7380 C   0  0  0  0  0  0  0  0  0  0  0  0
   46.3360   33.9290   40.6920 S   0  0  0  0  0  0  0  0  0  0  0  0
   48.2500   33.9600   38.3650 C   0  0  0  0  0  0  0  0  0  0  0  0
   43.7432   36.7145   45.1265 H   0  0  0  0  0  0  0  0  0  0  0  0
   44.9041   36.7349   42.8871 H   0  0  0  0  0  0  0  0  0  0  0  0
   45.8061   33.1752   46.1960 H   0  0  0  0  0  0  0  0  0  0  0  0
   48.4843   35.9341   42.6415 H   0  0  0  0  0  0  0  0  0  0  0  0
   49.5964   35.5779   40.4308 H   0  0  0  0  0  0  0  0  0  0  0  0
   49.0759   33.2351   38.4136 H   0  0  0  0  0  0  0  0  0  0  0  0
   47.3995   33.5115   37.8308 H   0  0  0  0  0  0  0  0  0  0  0  0
   48.5844   34.8615   37.8308 H   0  0  0  0  0  0  0  0  0  0  0  0
  1  6  2  0
  2  1  1  0
  3  2  2  0
  3  4  1  0
  4  5  2  0
  5  6  1  0
  7  3  1  0
  8  7  2  0
  9  8  1  0
 10  9  2  0
 10 11  1  0
 11  7  1  0
 12 10  1  0
  1 13  1  0
  2 14  1  0
  5 15  1  0
  8 16  1  0
  9 17  1  0
 12 18  1  0
 12 19  1  0
 12 20  1  0
M  ISO  8  13  14  14  14  15  14  16  14  17  14  18   8  19   8  20   8
M  END
>  <minimizedAffinity>  (1) 
-4.69262743

>  <minimizedRMSD>  (1) 
0.151221812

$$$$
