
     RDKit          3D

 23 24  0  0  0  0  0  0  0  0999 V2000
   46.7470   34.7250   42.1080 C   0  0  0  0  0  0  0  0  0  0  0  0
   47.9460   35.3120   41.7800 C   0  0  0  0  0  0  0  0  0  0  0  0
   48.5560   35.0160   40.6070 C   0  0  0  0  0  0  0  0  0  0  0  0
   47.8290   34.0570   39.7820 C   0  0  0  0  0  0  0  0  0  0  0  0
   46.3620   33.6810   40.7650 S   0  0  0  0  0  0  0  0  0  0  0  0
   44.4550   36.0710   44.7680 C   0  0  0  0  0  0  0  0  0  0  0  0
   45.1270   36.0030   43.5380 C   0  0  0  0  0  0  0  0  0  0  0  0
   45.9870   34.9370   43.3060 C   0  0  0  0  0  0  0  0  0  0  0  0
   46.1390   34.0060   44.2790 N   0  0  0  0  0  0  0  0  0  0  0  0
   45.4780   34.1030   45.4490 C   0  0  0  0  0  0  0  0  0  0  0  0
   44.6450   35.1210   45.6930 N   0  0  0  0  0  0  0  0  0  0  0  0
   48.2350   33.5430   38.4660 C   0  0  0  0  0  0  0  0  0  0  0  0
   48.4710   34.6350   37.4460 C   0  0  0  0  0  0  0  0  0  0  0  0
   48.4130   36.0263   42.4740 H   0  0  0  0  0  0  0  0  0  0  0  0
   49.5155   35.4599   40.3032 H   0  0  0  0  0  0  0  0  0  0  0  0
   43.7701   36.9070   44.9732 H   0  0  0  0  0  0  0  0  0  0  0  0
   44.9758   36.7785   42.7726 H   0  0  0  0  0  0  0  0  0  0  0  0
   45.6260   33.3306   46.2181 H   0  0  0  0  0  0  0  0  0  0  0  0
   49.1663   32.9702   38.5866 H   0  0  0  0  0  0  0  0  0  0  0  0
   47.4110   32.9182   38.0909 H   0  0  0  0  0  0  0  0  0  0  0  0
   48.6759   35.5831   37.9647 H   0  0  0  0  0  0  0  0  0  0  0  0
   49.3322   34.3682   36.8158 H   0  0  0  0  0  0  0  0  0  0  0  0
   47.5765   34.7477   36.8158 H   0  0  0  0  0  0  0  0  0  0  0  0
  1  8  1  0
  2  1  2  0
  3  2  1  0
  4  3  2  0
  4  5  1  0
  5  1  1  0
  6 11  2  0
  7  6  1  0
  8  7  2  0
  8  9  1  0
  9 10  2  0
 10 11  1  0
 12  4  1  0
 13 12  1  0
  2 14  1  0
  3 15  1  0
  6 16  1  0
  7 17  1  0
 10 18  1  0
 12 19  1  0
 12 20  1  0
 13 21  1  0
 13 22  1  0
 13 23  1  0
M  ISO  8  14  14  15  14  16  14  17  14  18  14  19   8  20   8  21   8
M  ISO  2  22   8  23   8
M  END
>  <minimizedAffinity>  (1) 
-4.80314159

>  <minimizedRMSD>  (1) 
0.328288406

$$$$
