
     RDKit          3D

 35 38  0  0  0  0  0  0  0  0999 V2000
   46.6060   34.6740   42.0480 C   0  0  0  0  0  0  0  0  0  0  0  0
   47.8670   35.0910   41.7470 C   0  0  0  0  0  0  0  0  0  0  0  0
   48.3800   34.8690   40.5110 C   0  0  0  0  0  0  0  0  0  0  0  0
   47.4830   34.1840   39.6140 C   0  0  0  0  0  0  0  0  0  0  0  0
   45.9830   33.9150   40.6210 S   0  0  0  0  0  0  0  0  0  0  0  0
   47.7750   33.8150   38.2140 C   0  0  0  0  0  0  0  0  0  0  0  0
   48.7270   34.3220   37.4350 N   0  0  0  0  0  0  0  0  0  0  0  0
   48.5940   33.6820   36.2880 O   0  0  0  0  0  0  0  0  0  0  0  0
   47.6010   32.8140   36.3570 C   0  0  0  0  0  0  0  0  0  0  0  0
   47.0550   32.8880   37.6060 N   0  0  0  0  0  0  0  0  0  0  0  0
   47.1420   31.9340   35.3350 N   0  0  0  0  0  0  0  0  0  0  0  0
   45.8570   31.5840   35.1380 C   0  0  0  0  0  0  0  0  0  0  0  0
   45.4790   30.7260   34.1290 C   0  0  0  0  0  0  0  0  0  0  0  0
   44.0580   30.3480   33.9230 C   0  0  0  0  0  0  0  0  0  0  0  0
   46.4540   30.2130   33.2960 C   0  0  0  0  0  0  0  0  0  0  0  0
   46.2060   29.4250   32.3500 O   0  0  0  0  0  0  0  0  0  0  0  0
   47.7490   30.5700   33.5000 N   0  0  0  0  0  0  0  0  0  0  0  0
   48.0840   31.4200   34.5070 C   0  0  0  0  0  0  0  0  0  0  0  0
   49.3190   31.7020   34.6280 O   0  0  0  0  0  0  0  0  0  0  0  0
   44.4890   35.8970   44.9200 C   0  0  0  0  0  0  0  0  0  0  0  0
   45.0700   35.8840   43.6300 C   0  0  0  0  0  0  0  0  0  0  0  0
   45.9310   34.8360   43.3150 C   0  0  0  0  0  0  0  0  0  0  0  0
   46.1490   33.9170   44.2510 N   0  0  0  0  0  0  0  0  0  0  0  0
   45.5930   33.9410   45.4670 C   0  0  0  0  0  0  0  0  0  0  0  0
   44.7630   34.9310   45.8030 N   0  0  0  0  0  0  0  0  0  0  0  0
   48.4704   35.6086   42.5072 H   0  0  0  0  0  0  0  0  0  0  0  0
   49.3925   35.1843   40.2185 H   0  0  0  0  0  0  0  0  0  0  0  0
   45.0846   31.9963   35.8039 H   0  0  0  0  0  0  0  0  0  0  0  0
   43.5680   30.2177   34.8992 H   0  0  0  0  0  0  0  0  0  0  0  0
   43.5457   31.1411   33.3586 H   0  0  0  0  0  0  0  0  0  0  0  0
   44.0075   29.4052   33.3586 H   0  0  0  0  0  0  0  0  0  0  0  0
   48.4845   30.1928   32.8855 H   0  0  0  0  0  0  0  0  0  0  0  0
   43.8041   36.7111   45.1997 H   0  0  0  0  0  0  0  0  0  0  0  0
   44.8487   36.6761   42.8996 H   0  0  0  0  0  0  0  0  0  0  0  0
   45.8198   33.1444   46.1909 H   0  0  0  0  0  0  0  0  0  0  0  0
  1 22  1  0
  2  1  2  0
  3  2  1  0
  4  3  2  0
  4  5  1  0
  5  1  1  0
  6  4  1  0
  7  6  2  0
  8  9  1  0
  8  7  1  0
  9 10  2  0
 10  6  1  0
 11  9  1  0
 12 11  1  0
 13 12  2  0
 14 13  1  0
 15 17  1  0
 15 13  1  0
 16 15  2  0
 17 18  1  0
 18 19  2  0
 18 11  1  0
 20 25  2  0
 21 20  1  0
 22 21  2  0
 22 23  1  0
 23 24  2  0
 24 25  1  0
  2 26  1  0
  3 27  1  0
 12 28  1  0
 14 29  1  0
 14 30  1  0
 14 31  1  0
 17 32  1  0
 20 33  1  0
 21 34  1  0
 24 35  1  0
M  ISO  8  26  14  27  14  28  14  29   8  30   8  31   8  32   9  33  14
M  ISO  2  34  14  35  14
M  END
>  <minimizedAffinity>  (1) 
-6.87112665

>  <minimizedRMSD>  (1) 
2.72767591

$$$$
