
     RDKit          3D

 38 41  0  0  0  0  0  0  0  0999 V2000
   46.6040   34.6980   42.0630 C   0  0  0  0  0  0  0  0  0  0  0  0
   47.8610   35.1300   41.7610 C   0  0  0  0  0  0  0  0  0  0  0  0
   48.3840   34.9000   40.5310 C   0  0  0  0  0  0  0  0  0  0  0  0
   47.5000   34.1880   39.6400 C   0  0  0  0  0  0  0  0  0  0  0  0
   45.9970   33.9110   40.6460 S   0  0  0  0  0  0  0  0  0  0  0  0
   44.4740   35.9340   44.9200 C   0  0  0  0  0  0  0  0  0  0  0  0
   45.0590   35.9210   43.6320 C   0  0  0  0  0  0  0  0  0  0  0  0
   45.9190   34.8680   43.3260 C   0  0  0  0  0  0  0  0  0  0  0  0
   46.1340   33.9410   44.2620 N   0  0  0  0  0  0  0  0  0  0  0  0
   45.5680   33.9760   45.4760 C   0  0  0  0  0  0  0  0  0  0  0  0
   44.7410   34.9620   45.8100 N   0  0  0  0  0  0  0  0  0  0  0  0
   47.8000   33.8020   38.2450 C   0  0  0  0  0  0  0  0  0  0  0  0
   48.7260   34.3170   37.4530 N   0  0  0  0  0  0  0  0  0  0  0  0
   48.6180   33.6600   36.3220 O   0  0  0  0  0  0  0  0  0  0  0  0
   47.6480   32.7580   36.4100 C   0  0  0  0  0  0  0  0  0  0  0  0
   47.1080   32.8410   37.6590 N   0  0  0  0  0  0  0  0  0  0  0  0
   47.1930   31.8030   35.3650 C   0  0  0  0  0  0  0  0  0  0  0  0
   45.7600   32.0520   35.0200 C   0  0  0  0  0  0  0  0  0  0  0  0
   45.2610   31.1020   33.9840 C   0  0  0  0  0  0  0  0  0  0  0  0
   46.3440   30.2500   33.3590 C   0  0  0  0  0  0  0  0  0  0  0  0
   47.5780   31.0360   33.0390 C   0  0  0  0  0  0  0  0  0  0  0  0
   48.0820   31.9000   34.1440 C   0  0  0  0  0  0  0  0  0  0  0  0
   48.4529   35.6667   42.5170 H   0  0  0  0  0  0  0  0  0  0  0  0
   49.3927   35.2272   40.2385 H   0  0  0  0  0  0  0  0  0  0  0  0
   43.7912   36.7506   45.1973 H   0  0  0  0  0  0  0  0  0  0  0  0
   44.8431   36.7126   42.8993 H   0  0  0  0  0  0  0  0  0  0  0  0
   45.7897   33.1812   46.2034 H   0  0  0  0  0  0  0  0  0  0  0  0
   47.2696   30.7784   35.7579 H   0  0  0  0  0  0  0  0  0  0  0  0
   45.1510   31.9381   35.9289 H   0  0  0  0  0  0  0  0  0  0  0  0
   45.6808   33.0708   34.6128 H   0  0  0  0  0  0  0  0  0  0  0  0
   44.5232   30.4346   34.4532 H   0  0  0  0  0  0  0  0  0  0  0  0
   44.8279   31.7101   33.1761 H   0  0  0  0  0  0  0  0  0  0  0  0
   46.6098   29.4461   34.0612 H   0  0  0  0  0  0  0  0  0  0  0  0
   45.9495   29.8474   32.4144 H   0  0  0  0  0  0  0  0  0  0  0  0
   48.3744   30.3259   32.7714 H   0  0  0  0  0  0  0  0  0  0  0  0
   47.3037   31.7163   32.2192 H   0  0  0  0  0  0  0  0  0  0  0  0
   49.0989   31.5795   34.4145 H   0  0  0  0  0  0  0  0  0  0  0  0
   48.0832   32.9437   33.7966 H   0  0  0  0  0  0  0  0  0  0  0  0
  1  8  1  0
  2  1  2  0
  3  2  1  0
  4  3  2  0
  4  5  1  0
  5  1  1  0
  6 11  2  0
  7  6  1  0
  8  7  2  0
  8  9  1  0
  9 10  2  0
 10 11  1  0
 12  4  1  0
 13 12  2  0
 14 15  1  0
 14 13  1  0
 15 16  2  0
 16 12  1  0
 17 15  1  0
 18 17  1  0
 19 18  1  0
 20 19  1  0
 21 20  1  0
 21 22  1  0
 22 17  1  0
  2 23  1  0
  3 24  1  0
  6 25  1  0
  7 26  1  0
 10 27  1  0
 17 28  1  0
 18 29  1  0
 18 30  1  0
 19 31  1  0
 19 32  1  0
 20 33  1  0
 20 34  1  0
 21 35  1  0
 21 36  1  0
 22 37  1  0
 22 38  1  0
M  ISO  8  23  14  24  14  25  14  26  14  27  14  28  13  29  13  30  13
M  ISO  8  31  13  32  13  33  13  34  13  35  13  36  13  37  13  38  13
M  END
>  <minimizedAffinity>  (1) 
-6.11460209

>  <minimizedRMSD>  (1) 
2.02242708

$$$$
