
     RDKit          3D

 35 38  0  0  0  0  0  0  0  0999 V2000
   46.6620   34.7110   42.0770 C   0  0  0  0  0  0  0  0  0  0  0  0
   47.9130   35.1630   41.7910 C   0  0  0  0  0  0  0  0  0  0  0  0
   48.4540   34.9670   40.5650 C   0  0  0  0  0  0  0  0  0  0  0  0
   47.5880   34.2590   39.6540 C   0  0  0  0  0  0  0  0  0  0  0  0
   46.0830   33.9470   40.6450 S   0  0  0  0  0  0  0  0  0  0  0  0
   44.4780   35.9010   44.9100 C   0  0  0  0  0  0  0  0  0  0  0  0
   45.0780   35.9140   43.6230 C   0  0  0  0  0  0  0  0  0  0  0  0
   45.9640   34.8520   43.3350 C   0  0  0  0  0  0  0  0  0  0  0  0
   46.1810   33.9260   44.2650 N   0  0  0  0  0  0  0  0  0  0  0  0
   45.5950   33.9430   45.4770 C   0  0  0  0  0  0  0  0  0  0  0  0
   44.7490   34.9240   45.7980 N   0  0  0  0  0  0  0  0  0  0  0  0
   47.9090   33.9020   38.2550 C   0  0  0  0  0  0  0  0  0  0  0  0
   48.7430   34.4860   37.4330 N   0  0  0  0  0  0  0  0  0  0  0  0
   48.6680   33.7880   36.3160 O   0  0  0  0  0  0  0  0  0  0  0  0
   47.8170   32.8010   36.4360 C   0  0  0  0  0  0  0  0  0  0  0  0
   47.3020   32.8460   37.6920 N   0  0  0  0  0  0  0  0  0  0  0  0
   46.8190   29.9770   33.5170 C   0  0  0  0  0  0  0  0  0  0  0  0
   46.3200   29.8030   34.7940 C   0  0  0  0  0  0  0  0  0  0  0  0
   46.6650   30.7590   35.7530 C   0  0  0  0  0  0  0  0  0  0  0  0
   47.4760   31.8220   35.4070 C   0  0  0  0  0  0  0  0  0  0  0  0
   47.9670   31.9800   34.1240 C   0  0  0  0  0  0  0  0  0  0  0  0
   47.6290   31.0390   33.1710 C   0  0  0  0  0  0  0  0  0  0  0  0
   46.4060   28.7940   32.2800 S   0  0  0  0  0  0  0  0  0  0  0  0
   46.9580   29.2280   30.9390 O   0  0  0  0  0  0  0  0  0  0  0  0
   44.8960   28.8040   32.1400 O   0  0  0  0  0  0  0  0  0  0  0  0
   48.4905   35.6927   42.5629 H   0  0  0  0  0  0  0  0  0  0  0  0
   49.4603   35.3153   40.2894 H   0  0  0  0  0  0  0  0  0  0  0  0
   43.7788   36.7036   45.1875 H   0  0  0  0  0  0  0  0  0  0  0  0
   44.8648   36.7069   42.8910 H   0  0  0  0  0  0  0  0  0  0  0  0
   45.8139   33.1470   46.2039 H   0  0  0  0  0  0  0  0  0  0  0  0
   45.6772   28.9465   35.0453 H   0  0  0  0  0  0  0  0  0  0  0  0
   46.2908   30.6649   36.7831 H   0  0  0  0  0  0  0  0  0  0  0  0
   48.6111   32.8343   33.8685 H   0  0  0  0  0  0  0  0  0  0  0  0
   48.0037   31.1358   32.1413 H   0  0  0  0  0  0  0  0  0  0  0  0
   46.9093   27.5688   32.6299 H   0  0  0  0  0  0  0  0  0  0  0  0
  1  8  1  0
  2  1  2  0
  3  2  1  0
  4  3  2  0
  4  5  1  0
  5  1  1  0
  6 11  2  0
  7  6  1  0
  8  7  2  0
  8  9  1  0
  9 10  2  0
 10 11  1  0
 12  4  1  0
 13 12  2  0
 14 15  1  0
 14 13  1  0
 15 16  2  0
 16 12  1  0
 17 18  2  0
 18 19  1  0
 20 19  2  0
 20 15  1  0
 21 20  1  0
 22 17  1  0
 22 21  2  0
 23 17  1  0
 24 23  2  0
 25 23  2  0
  2 26  1  0
  3 27  1  0
  6 28  1  0
  7 29  1  0
 10 30  1  0
 18 31  1  0
 19 32  1  0
 21 33  1  0
 22 34  1  0
 23 35  1  0
M  ISO  8  26  14  27  14  28  14  29  14  30  14  31  14  32  14  33  14
M  ISO  2  34  14  35  11
M  END
>  <minimizedAffinity>  (1) 
-6.25301218

>  <minimizedRMSD>  (1) 
2.66052175

$$$$
