
     RDKit          3D

 29 31  0  0  0  0  0  0  0  0999 V2000
   46.7750   34.7580   42.1240 C   0  0  0  0  0  0  0  0  0  0  0  0
   47.9820   35.3270   41.8510 C   0  0  0  0  0  0  0  0  0  0  0  0
   48.5830   35.1050   40.6590 C   0  0  0  0  0  0  0  0  0  0  0  0
   47.8410   34.2490   39.7710 C   0  0  0  0  0  0  0  0  0  0  0  0
   46.3380   33.8350   40.7260 S   0  0  0  0  0  0  0  0  0  0  0  0
   48.2510   33.8340   38.4130 C   0  0  0  0  0  0  0  0  0  0  0  0
   47.8710   34.3440   37.2640 N   0  0  0  0  0  0  0  0  0  0  0  0
   48.5130   33.6360   36.3520 O   0  0  0  0  0  0  0  0  0  0  0  0
   49.2620   32.7230   36.9090 C   0  0  0  0  0  0  0  0  0  0  0  0
   49.1030   32.8370   38.2500 N   0  0  0  0  0  0  0  0  0  0  0  0
   50.1000   31.7670   36.2740 N   0  0  0  0  0  0  0  0  0  0  0  0
   51.2730   31.3050   36.9330 C   0  0  0  0  0  0  0  0  0  0  0  0
   51.9360   32.0970   37.6980 N   0  0  0  0  0  0  0  0  0  0  0  0
   51.7280   29.9690   36.7570 N   0  0  0  0  0  0  0  0  0  0  0  0
   51.7280   33.0760   37.9140 H   0  0  0  0  0  0  0  0  0  0  0  0
   44.4560   35.9570   44.8460 C   0  0  0  0  0  0  0  0  0  0  0  0
   45.1170   35.9450   43.6050 C   0  0  0  0  0  0  0  0  0  0  0  0
   46.0180   34.9060   43.3470 C   0  0  0  0  0  0  0  0  0  0  0  0
   46.1900   33.9930   44.3000 N   0  0  0  0  0  0  0  0  0  0  0  0
   45.5580   34.0130   45.4730 C   0  0  0  0  0  0  0  0  0  0  0  0
   44.6880   35.0000   45.7470 N   0  0  0  0  0  0  0  0  0  0  0  0
   48.4690   35.9680   42.6006 H   0  0  0  0  0  0  0  0  0  0  0  0
   49.5564   35.5418   40.3913 H   0  0  0  0  0  0  0  0  0  0  0  0
   49.8586   31.4094   35.3387 H   0  0  0  0  0  0  0  0  0  0  0  0
   52.5789   29.6469   37.2399 H   0  0  0  0  0  0  0  0  0  0  0  0
   51.2066   29.3236   36.1467 H   0  0  0  0  0  0  0  0  0  0  0  0
   43.7420   36.7615   45.0761 H   0  0  0  0  0  0  0  0  0  0  0  0
   44.9310   36.7305   42.8578 H   0  0  0  0  0  0  0  0  0  0  0  0
   45.7479   33.2236   46.2152 H   0  0  0  0  0  0  0  0  0  0  0  0
  1 18  1  0
  2  1  2  0
  3  2  1  0
  4  3  2  0
  4  5  1  0
  5  1  1  0
  6  4  1  0
  7  6  2  0
  8  9  1  0
  8  7  1  0
  9 10  2  0
 10  6  1  0
 11  9  1  0
 11 12  1  0
 12 13  2  0
 13 15  1  0
 14 12  1  0
 16 21  2  0
 17 16  1  0
 18 17  2  0
 18 19  1  0
 19 20  2  0
 20 21  1  0
  2 22  1  0
  3 23  1  0
 11 24  1  0
 14 25  1  0
 14 26  1  0
 16 27  1  0
 17 28  1  0
 20 29  1  0
M  ISO  5  22  14  23  14  27  14  28  14  29  14
M  END
>  <minimizedAffinity>  (1) 
-6.50292826

>  <minimizedRMSD>  (1) 
0.429063827

$$$$
