
     RDKit          3D

 36 39  0  0  0  0  0  0  0  0999 V2000
   46.6960   34.7050   42.3440 C   0  0  0  0  0  0  0  0  0  0  0  0
   47.9370   35.2090   42.0970 C   0  0  0  0  0  0  0  0  0  0  0  0
   48.4890   35.0780   40.8660 C   0  0  0  0  0  0  0  0  0  0  0  0
   47.6550   34.3840   39.9130 C   0  0  0  0  0  0  0  0  0  0  0  0
   46.1480   33.9800   40.8720 S   0  0  0  0  0  0  0  0  0  0  0  0
   47.9980   34.1040   38.5060 C   0  0  0  0  0  0  0  0  0  0  0  0
   48.8850   34.7540   37.7560 N   0  0  0  0  0  0  0  0  0  0  0  0
   48.8420   34.1470   36.5870 O   0  0  0  0  0  0  0  0  0  0  0  0
   47.9590   33.1560   36.6150 C   0  0  0  0  0  0  0  0  0  0  0  0
   47.4040   33.1180   37.8580 N   0  0  0  0  0  0  0  0  0  0  0  0
   47.6240   32.2680   35.5550 N   0  0  0  0  0  0  0  0  0  0  0  0
   48.5900   31.9000   34.5390 C   0  0  0  0  0  0  0  0  0  0  0  0
   47.9080   32.0190   33.1920 C   0  0  0  0  0  0  0  0  0  0  0  0
   46.6960   32.8050   33.3150 N   0  0  0  0  0  0  0  0  0  0  0  0
   45.7090   32.1830   34.1590 C   0  0  0  0  0  0  0  0  0  0  0  0
   46.2820   31.7190   35.4920 C   0  0  0  0  0  0  0  0  0  0  0  0
   44.4490   35.6400   45.2270 C   0  0  0  0  0  0  0  0  0  0  0  0
   45.0450   35.7370   43.9400 C   0  0  0  0  0  0  0  0  0  0  0  0
   45.9860   34.7670   43.6040 C   0  0  0  0  0  0  0  0  0  0  0  0
   46.2680   33.8130   44.5060 N   0  0  0  0  0  0  0  0  0  0  0  0
   45.6870   33.7520   45.7120 C   0  0  0  0  0  0  0  0  0  0  0  0
   44.7790   34.6620   46.0730 N   0  0  0  0  0  0  0  0  0  0  0  0
   48.4913   35.7224   42.8965 H   0  0  0  0  0  0  0  0  0  0  0  0
   49.4867   35.4670   40.6145 H   0  0  0  0  0  0  0  0  0  0  0  0
   49.4556   32.5774   34.5820 H   0  0  0  0  0  0  0  0  0  0  0  0
   48.9475   30.8724   34.7009 H   0  0  0  0  0  0  0  0  0  0  0  0
   47.6542   31.0144   32.8227 H   0  0  0  0  0  0  0  0  0  0  0  0
   48.5895   32.5162   32.4861 H   0  0  0  0  0  0  0  0  0  0  0  0
   46.9385   33.7230   33.7142 H   0  0  0  0  0  0  0  0  0  0  0  0
   44.9060   32.9088   34.3549 H   0  0  0  0  0  0  0  0  0  0  0  0
   45.3343   31.2935   33.6313 H   0  0  0  0  0  0  0  0  0  0  0  0
   45.6724   32.0996   36.3248 H   0  0  0  0  0  0  0  0  0  0  0  0
   46.2880   30.6219   35.5715 H   0  0  0  0  0  0  0  0  0  0  0  0
   43.7006   36.3863   45.5318 H   0  0  0  0  0  0  0  0  0  0  0  0
   44.7750   36.5422   43.2409 H   0  0  0  0  0  0  0  0  0  0  0  0
   45.9601   32.9465   46.4096 H   0  0  0  0  0  0  0  0  0  0  0  0
  1 19  1  0
  2  1  2  0
  3  2  1  0
  4  3  2  0
  4  5  1  0
  5  1  1  0
  6  4  1  0
  7  6  2  0
  8  9  1  0
  8  7  1  0
  9 10  2  0
 10  6  1  0
 11  9  1  0
 12 11  1  0
 13 14  1  0
 13 12  1  0
 14 15  1  0
 15 16  1  0
 16 11  1  0
 17 22  2  0
 18 17  1  0
 19 18  2  0
 19 20  1  0
 20 21  2  0
 21 22  1  0
  2 23  1  0
  3 24  1  0
 12 25  1  0
 12 26  1  0
 13 27  1  0
 13 28  1  0
 14 29  1  0
 15 30  1  0
 15 31  1  0
 16 32  1  0
 16 33  1  0
 17 34  1  0
 18 35  1  0
 21 36  1  0
M  ISO  8  23  14  24  14  25  13  26  13  27  13  28  13  29   5  30  13
M  ISO  6  31  13  32  13  33  13  34  14  35  14  36  14
M  END
>  <minimizedAffinity>  (1) 
-6.64779711

>  <minimizedRMSD>  (1) 
1.7828331

$$$$
