
     RDKit          3D

 37 40  0  0  0  0  0  0  0  0999 V2000
   46.6980   34.7440   42.1360 C   0  0  0  0  0  0  0  0  0  0  0  0
   47.9380   35.2500   41.8600 C   0  0  0  0  0  0  0  0  0  0  0  0
   48.5070   35.0300   40.6490 C   0  0  0  0  0  0  0  0  0  0  0  0
   47.6830   34.2370   39.7370 C   0  0  0  0  0  0  0  0  0  0  0  0
   46.1930   33.8970   40.7150 S   0  0  0  0  0  0  0  0  0  0  0  0
   48.0580   33.8590   38.3740 C   0  0  0  0  0  0  0  0  0  0  0  0
   48.6360   34.6200   37.4490 N   0  0  0  0  0  0  0  0  0  0  0  0
   48.7680   33.8360   36.4010 O   0  0  0  0  0  0  0  0  0  0  0  0
   48.2940   32.6450   36.6590 C   0  0  0  0  0  0  0  0  0  0  0  0
   47.8260   32.6250   37.9290 N   0  0  0  0  0  0  0  0  0  0  0  0
   48.3850   31.7140   35.6010 N   0  0  0  0  0  0  0  0  0  0  0  0
   49.6360   31.4320   34.8820 C   0  0  0  0  0  0  0  0  0  0  0  0
   49.5600   31.9950   33.4770 C   0  0  0  0  0  0  0  0  0  0  0  0
   48.1270   32.2420   33.0560 C   0  0  0  0  0  0  0  0  0  0  0  0
   47.1720   31.1800   33.5470 C   0  0  0  0  0  0  0  0  0  0  0  0
   47.2790   30.9150   35.0350 C   0  0  0  0  0  0  0  0  0  0  0  0
   44.4470   35.9590   44.9120 C   0  0  0  0  0  0  0  0  0  0  0  0
   45.0780   35.9520   43.6470 C   0  0  0  0  0  0  0  0  0  0  0  0
   45.9740   34.8930   43.3690 C   0  0  0  0  0  0  0  0  0  0  0  0
   46.1690   33.9610   44.3220 N   0  0  0  0  0  0  0  0  0  0  0  0
   45.5520   34.0010   45.5100 C   0  0  0  0  0  0  0  0  0  0  0  0
   44.7040   34.9800   45.8070 N   0  0  0  0  0  0  0  0  0  0  0  0
   48.4743   35.8360   42.6209 H   0  0  0  0  0  0  0  0  0  0  0  0
   49.5010   35.4142   40.3764 H   0  0  0  0  0  0  0  0  0  0  0  0
   50.4771   31.8974   35.4167 H   0  0  0  0  0  0  0  0  0  0  0  0
   49.7865   30.3436   34.8290 H   0  0  0  0  0  0  0  0  0  0  0  0
   50.1118   32.9459   33.4425 H   0  0  0  0  0  0  0  0  0  0  0  0
   50.0014   31.2613   32.7864 H   0  0  0  0  0  0  0  0  0  0  0  0
   47.8066   33.2140   33.4593 H   0  0  0  0  0  0  0  0  0  0  0  0
   48.1010   32.2224   31.9565 H   0  0  0  0  0  0  0  0  0  0  0  0
   46.1450   31.5047   33.3238 H   0  0  0  0  0  0  0  0  0  0  0  0
   47.4341   30.2445   33.0312 H   0  0  0  0  0  0  0  0  0  0  0  0
   46.3356   31.1959   35.5259 H   0  0  0  0  0  0  0  0  0  0  0  0
   47.4766   29.8460   35.2030 H   0  0  0  0  0  0  0  0  0  0  0  0
   43.7438   36.7649   45.1688 H   0  0  0  0  0  0  0  0  0  0  0  0
   44.8797   36.7407   42.9063 H   0  0  0  0  0  0  0  0  0  0  0  0
   45.7501   33.2121   46.2505 H   0  0  0  0  0  0  0  0  0  0  0  0
  1 19  1  0
  2  1  2  0
  3  2  1  0
  4  3  2  0
  4  5  1  0
  5  1  1  0
  6  4  1  0
  7  6  2  0
  8  9  1  0
  8  7  1  0
  9 10  2  0
 10  6  1  0
 11  9  1  0
 12 11  1  0
 13 12  1  0
 14 13  1  0
 14 15  1  0
 15 16  1  0
 16 11  1  0
 17 22  2  0
 18 17  1  0
 19 18  2  0
 19 20  1  0
 20 21  2  0
 21 22  1  0
  2 23  1  0
  3 24  1  0
 12 25  1  0
 12 26  1  0
 13 27  1  0
 13 28  1  0
 14 29  1  0
 14 30  1  0
 15 31  1  0
 15 32  1  0
 16 33  1  0
 16 34  1  0
 17 35  1  0
 18 36  1  0
 21 37  1  0
M  ISO  8  23  14  24  14  25  13  26  13  27  13  28  13  29  13  30  13
M  ISO  7  31  13  32  13  33  13  34  13  35  14  36  14  37  14
M  END
>  <minimizedAffinity>  (1) 
-6.49508429

>  <minimizedRMSD>  (1) 
0.907435656

$$$$
