
     RDKit          3D

 28 31  0  0  0  0  0  0  0  0999 V2000
   46.7880   34.7650   42.1460 C   0  0  0  0  0  0  0  0  0  0  0  0
   47.9920   35.3420   41.8770 C   0  0  0  0  0  0  0  0  0  0  0  0
   48.5980   35.1260   40.6850 C   0  0  0  0  0  0  0  0  0  0  0  0
   47.8600   34.2660   39.7930 C   0  0  0  0  0  0  0  0  0  0  0  0
   46.3540   33.8420   40.7480 S   0  0  0  0  0  0  0  0  0  0  0  0
   48.2740   33.8570   38.4350 C   0  0  0  0  0  0  0  0  0  0  0  0
   48.0450   34.4760   37.3010 N   0  0  0  0  0  0  0  0  0  0  0  0
   48.6210   33.7120   36.3820 O   0  0  0  0  0  0  0  0  0  0  0  0
   49.1820   32.6660   36.9290 C   0  0  0  0  0  0  0  0  0  0  0  0
   48.9710   32.7340   38.2710 N   0  0  0  0  0  0  0  0  0  0  0  0
   49.8940   31.6200   36.2810 N   0  0  0  0  0  0  0  0  0  0  0  0
   49.6420   30.8960   35.1770 C   0  0  0  0  0  0  0  0  0  0  0  0
   50.6430   30.0190   34.9910 N   0  0  0  0  0  0  0  0  0  0  0  0
   51.5350   30.1780   35.9700 C   0  0  0  0  0  0  0  0  0  0  0  0
   51.0450   31.1660   36.7410 N   0  0  0  0  0  0  0  0  0  0  0  0
   44.4500   35.9520   44.8580 C   0  0  0  0  0  0  0  0  0  0  0  0
   45.1160   35.9560   43.6090 C   0  0  0  0  0  0  0  0  0  0  0  0
   46.0260   34.9050   43.3680 C   0  0  0  0  0  0  0  0  0  0  0  0
   46.1970   33.9890   44.3180 N   0  0  0  0  0  0  0  0  0  0  0  0
   45.5520   34.0120   45.4910 C   0  0  0  0  0  0  0  0  0  0  0  0
   44.6800   34.9940   45.7610 N   0  0  0  0  0  0  0  0  0  0  0  0
   48.4731   35.9846   42.6291 H   0  0  0  0  0  0  0  0  0  0  0  0
   49.5696   35.5685   40.4201 H   0  0  0  0  0  0  0  0  0  0  0  0
   48.7589   31.0039   34.5301 H   0  0  0  0  0  0  0  0  0  0  0  0
   52.4718   29.6202   36.1160 H   0  0  0  0  0  0  0  0  0  0  0  0
   43.7306   36.7513   45.0894 H   0  0  0  0  0  0  0  0  0  0  0  0
   44.9327   36.7417   42.8613 H   0  0  0  0  0  0  0  0  0  0  0  0
   45.7379   33.2234   46.2350 H   0  0  0  0  0  0  0  0  0  0  0  0
  1 18  1  0
  2  1  2  0
  3  2  1  0
  4  3  2  0
  4  5  1  0
  5  1  1  0
  6  4  1  0
  7  6  2  0
  8  9  1  0
  8  7  1  0
  9 10  2  0
 10  6  1  0
 11 15  1  0
 11  9  1  0
 12 11  1  0
 13 12  2  0
 13 14  1  0
 14 15  2  0
 16 21  2  0
 17 16  1  0
 18 17  2  0
 18 19  1  0
 19 20  2  0
 20 21  1  0
  2 22  1  0
  3 23  1  0
 12 24  1  0
 14 25  1  0
 16 26  1  0
 17 27  1  0
 20 28  1  0
M  ISO  7  22  14  23  14  24  14  25  14  26  14  27  14  28  14
M  END
>  <minimizedAffinity>  (1) 
-6.06177378

>  <minimizedRMSD>  (1) 
0.176844135

$$$$
