
     RDKit          3D

 30 33  0  0  0  0  0  0  0  0999 V2000
   46.6260   34.7070   42.0570 C   0  0  0  0  0  0  0  0  0  0  0  0
   47.8850   35.1440   41.7700 C   0  0  0  0  0  0  0  0  0  0  0  0
   48.4130   34.9220   40.5360 C   0  0  0  0  0  0  0  0  0  0  0  0
   47.5370   34.2170   39.6350 C   0  0  0  0  0  0  0  0  0  0  0  0
   46.0300   33.9310   40.6280 S   0  0  0  0  0  0  0  0  0  0  0  0
   44.4820   35.9090   44.9130 C   0  0  0  0  0  0  0  0  0  0  0  0
   45.0630   35.9230   43.6180 C   0  0  0  0  0  0  0  0  0  0  0  0
   45.9340   34.8660   43.3160 C   0  0  0  0  0  0  0  0  0  0  0  0
   46.1560   33.9260   44.2580 N   0  0  0  0  0  0  0  0  0  0  0  0
   45.5810   33.9550   45.4690 C   0  0  0  0  0  0  0  0  0  0  0  0
   44.7490   34.9400   45.7980 N   0  0  0  0  0  0  0  0  0  0  0  0
   47.8460   33.8430   38.2410 C   0  0  0  0  0  0  0  0  0  0  0  0
   48.7560   34.3970   37.4470 N   0  0  0  0  0  0  0  0  0  0  0  0
   48.6530   33.7200   36.3110 O   0  0  0  0  0  0  0  0  0  0  0  0
   47.7290   32.8010   36.4040 C   0  0  0  0  0  0  0  0  0  0  0  0
   47.1900   32.8610   37.6500 N   0  0  0  0  0  0  0  0  0  0  0  0
   47.3530   31.8750   35.3420 C   0  0  0  0  0  0  0  0  0  0  0  0
   47.9930   31.9750   34.1240 C   0  0  0  0  0  0  0  0  0  0  0  0
   47.6500   31.1080   33.1120 C   0  0  0  0  0  0  0  0  0  0  0  0
   46.6920   30.1570   33.2880 N   0  0  0  0  0  0  0  0  0  0  0  0
   46.0970   30.1040   34.4980 C   0  0  0  0  0  0  0  0  0  0  0  0
   46.4040   30.9410   35.5330 N   0  0  0  0  0  0  0  0  0  0  0  0
   48.4723   35.6746   42.5340 H   0  0  0  0  0  0  0  0  0  0  0  0
   49.4226   35.2525   40.2504 H   0  0  0  0  0  0  0  0  0  0  0  0
   43.7925   36.7174   45.1979 H   0  0  0  0  0  0  0  0  0  0  0  0
   44.8423   36.7189   42.8914 H   0  0  0  0  0  0  0  0  0  0  0  0
   45.7987   33.1586   46.1959 H   0  0  0  0  0  0  0  0  0  0  0  0
   48.7683   32.7387   33.9637 H   0  0  0  0  0  0  0  0  0  0  0  0
   48.1605   31.1850   32.1407 H   0  0  0  0  0  0  0  0  0  0  0  0
   45.3198   29.3427   34.6603 H   0  0  0  0  0  0  0  0  0  0  0  0
  1  8  1  0
  2  1  2  0
  3  2  1  0
  4  3  2  0
  4  5  1  0
  5  1  1  0
  6 11  2  0
  7  6  1  0
  8  7  2  0
  8  9  1  0
  9 10  2  0
 10 11  1  0
 12  4  1  0
 13 12  2  0
 14 15  1  0
 14 13  1  0
 15 16  2  0
 16 12  1  0
 17 22  1  0
 17 15  1  0
 18 17  2  0
 19 20  2  0
 19 18  1  0
 20 21  1  0
 21 22  2  0
  2 23  1  0
  3 24  1  0
  6 25  1  0
  7 26  1  0
 10 27  1  0
 18 28  1  0
 19 29  1  0
 21 30  1  0
M  ISO  8  23  14  24  14  25  14  26  14  27  14  28  14  29  14  30  14
M  END
>  <minimizedAffinity>  (1) 
-5.95846176

>  <minimizedRMSD>  (1) 
1.96234238

$$$$
