
     RDKit          3D

 25 27  0  0  0  0  0  0  0  0999 V2000
   46.7720   34.7770   42.1250 C   0  0  0  0  0  0  0  0  0  0  0  0
   47.9830   35.3410   41.8610 C   0  0  0  0  0  0  0  0  0  0  0  0
   48.5950   35.1180   40.6710 C   0  0  0  0  0  0  0  0  0  0  0  0
   47.8490   34.2630   39.7780 C   0  0  0  0  0  0  0  0  0  0  0  0
   46.3410   33.8590   40.7250 S   0  0  0  0  0  0  0  0  0  0  0  0
   44.4570   35.9470   44.8540 C   0  0  0  0  0  0  0  0  0  0  0  0
   45.1100   35.9610   43.6040 C   0  0  0  0  0  0  0  0  0  0  0  0
   46.0100   34.9280   43.3440 C   0  0  0  0  0  0  0  0  0  0  0  0
   46.1860   34.0080   44.2930 N   0  0  0  0  0  0  0  0  0  0  0  0
   45.5590   34.0080   45.4780 C   0  0  0  0  0  0  0  0  0  0  0  0
   44.6880   34.9920   45.7520 N   0  0  0  0  0  0  0  0  0  0  0  0
   48.2680   33.8510   38.4240 C   0  0  0  0  0  0  0  0  0  0  0  0
   48.1720   34.5540   37.3050 N   0  0  0  0  0  0  0  0  0  0  0  0
   48.6770   33.7630   36.3720 O   0  0  0  0  0  0  0  0  0  0  0  0
   49.0670   32.6200   36.8940 C   0  0  0  0  0  0  0  0  0  0  0  0
   48.8080   32.6610   38.2270 N   0  0  0  0  0  0  0  0  0  0  0  0
   49.6840   31.4620   36.1980 C   0  0  0  0  0  0  0  0  0  0  0  0
   49.7110   31.8080   34.8470 F   0  0  0  0  0  0  0  0  0  0  0  0
   51.0210   31.3790   36.6070 F   0  0  0  0  0  0  0  0  0  0  0  0
   49.0010   30.3070   36.4440 F   0  0  0  0  0  0  0  0  0  0  0  0
   48.4665   35.9794   42.6150 H   0  0  0  0  0  0  0  0  0  0  0  0
   49.5723   35.5500   40.4097 H   0  0  0  0  0  0  0  0  0  0  0  0
   43.7388   36.7453   45.0928 H   0  0  0  0  0  0  0  0  0  0  0  0
   44.9175   36.7532   42.8655 H   0  0  0  0  0  0  0  0  0  0  0  0
   45.7551   33.2144   46.2140 H   0  0  0  0  0  0  0  0  0  0  0  0
  1  8  1  0
  2  1  2  0
  3  2  1  0
  4  3  2  0
  4  5  1  0
  5  1  1  0
  6 11  2  0
  7  6  1  0
  8  7  2  0
  8  9  1  0
  9 10  2  0
 10 11  1  0
 12  4  1  0
 13 12  2  0
 14 15  1  0
 14 13  1  0
 15 16  2  0
 16 12  1  0
 17 20  1  0
 17 19  1  0
 17 15  1  0
 18 17  1  0
  2 21  1  0
  3 22  1  0
  6 23  1  0
  7 24  1  0
 10 25  1  0
M  ISO  5  21  14  22  14  23  14  24  14  25  14
M  END
>  <minimizedAffinity>  (1) 
-5.68696928

>  <minimizedRMSD>  (1) 
0.437435389

$$$$
