
     RDKit          3D

 31 33  0  0  0  0  0  0  0  0999 V2000
   46.7730   34.7680   42.1100 C   0  0  0  0  0  0  0  0  0  0  0  0
   47.9860   35.3310   41.8430 C   0  0  0  0  0  0  0  0  0  0  0  0
   48.5900   35.1040   40.6450 C   0  0  0  0  0  0  0  0  0  0  0  0
   47.8370   34.2520   39.7590 C   0  0  0  0  0  0  0  0  0  0  0  0
   46.3290   33.8510   40.7160 S   0  0  0  0  0  0  0  0  0  0  0  0
   44.4610   35.9540   44.8430 C   0  0  0  0  0  0  0  0  0  0  0  0
   45.1140   35.9620   43.5880 C   0  0  0  0  0  0  0  0  0  0  0  0
   46.0150   34.9190   43.3330 C   0  0  0  0  0  0  0  0  0  0  0  0
   46.2010   33.9900   44.2840 N   0  0  0  0  0  0  0  0  0  0  0  0
   45.5680   34.0050   45.4690 C   0  0  0  0  0  0  0  0  0  0  0  0
   44.6950   34.9940   45.7440 N   0  0  0  0  0  0  0  0  0  0  0  0
   48.2440   33.8360   38.4010 C   0  0  0  0  0  0  0  0  0  0  0  0
   48.2380   34.5560   37.3000 N   0  0  0  0  0  0  0  0  0  0  0  0
   48.6840   33.7650   36.3520 O   0  0  0  0  0  0  0  0  0  0  0  0
   48.9620   32.5780   36.8540 C   0  0  0  0  0  0  0  0  0  0  0  0
   48.6810   32.6090   38.1810 N   0  0  0  0  0  0  0  0  0  0  0  0
   49.4930   31.3520   36.1820 C   0  0  0  0  0  0  0  0  0  0  0  0
   50.9010   31.0720   36.6460 C   0  0  0  0  0  0  0  0  0  0  0  0
   49.5220   31.5080   34.6820 C   0  0  0  0  0  0  0  0  0  0  0  0
   48.4754   35.9676   42.5948 H   0  0  0  0  0  0  0  0  0  0  0  0
   49.5667   35.5328   40.3763 H   0  0  0  0  0  0  0  0  0  0  0  0
   43.7456   36.7545   45.0827 H   0  0  0  0  0  0  0  0  0  0  0  0
   44.9232   36.7511   42.8458 H   0  0  0  0  0  0  0  0  0  0  0  0
   45.7611   33.2151   46.2098 H   0  0  0  0  0  0  0  0  0  0  0  0
   48.8214   30.5228   36.4491 H   0  0  0  0  0  0  0  0  0  0  0  0
   50.9304   31.0662   37.7456 H   0  0  0  0  0  0  0  0  0  0  0  0
   51.2244   30.0919   36.2654 H   0  0  0  0  0  0  0  0  0  0  0  0
   51.5748   31.8537   36.2654 H   0  0  0  0  0  0  0  0  0  0  0  0
   49.7175   32.5599   34.4265 H   0  0  0  0  0  0  0  0  0  0  0  0
   50.3178   30.8748   34.2628 H   0  0  0  0  0  0  0  0  0  0  0  0
   48.5518   31.2031   34.2628 H   0  0  0  0  0  0  0  0  0  0  0  0
  1  8  1  0
  2  1  2  0
  3  2  1  0
  4  3  2  0
  4  5  1  0
  5  1  1  0
  6 11  2  0
  7  6  1  0
  8  7  2  0
  8  9  1  0
  9 10  2  0
 10 11  1  0
 12  4  1  0
 13 12  2  0
 14 15  1  0
 14 13  1  0
 15 16  2  0
 16 12  1  0
 17 18  1  0
 17 15  1  0
 19 17  1  0
  2 20  1  0
  3 21  1  0
  6 22  1  0
  7 23  1  0
 10 24  1  0
 17 25  1  0
 18 26  1  0
 18 27  1  0
 18 28  1  0
 19 29  1  0
 19 30  1  0
 19 31  1  0
M  ISO  8  20  14  21  14  22  14  23  14  24  14  25   8  26   8  27   8
M  ISO  4  28   8  29   8  30   8  31   8
M  END
>  <minimizedAffinity>  (1) 
-5.58990002

>  <minimizedRMSD>  (1) 
0.162856936

$$$$
