
     RDKit          3D

 24 26  0  0  0  0  0  0  0  0999 V2000
   46.7890   34.7580   42.1280 C   0  0  0  0  0  0  0  0  0  0  0  0
   47.9950   35.3360   41.8630 C   0  0  0  0  0  0  0  0  0  0  0  0
   48.6070   35.1270   40.6730 C   0  0  0  0  0  0  0  0  0  0  0  0
   47.8650   34.2700   39.7780 C   0  0  0  0  0  0  0  0  0  0  0  0
   46.3610   33.8450   40.7310 S   0  0  0  0  0  0  0  0  0  0  0  0
   44.4580   35.9480   44.8450 C   0  0  0  0  0  0  0  0  0  0  0  0
   45.1200   35.9550   43.5900 C   0  0  0  0  0  0  0  0  0  0  0  0
   46.0300   34.9000   43.3500 C   0  0  0  0  0  0  0  0  0  0  0  0
   46.2000   33.9860   44.3020 N   0  0  0  0  0  0  0  0  0  0  0  0
   45.5600   34.0100   45.4740 C   0  0  0  0  0  0  0  0  0  0  0  0
   44.6840   34.9960   45.7470 N   0  0  0  0  0  0  0  0  0  0  0  0
   48.2880   33.8680   38.4210 C   0  0  0  0  0  0  0  0  0  0  0  0
   48.0090   34.4480   37.2800 N   0  0  0  0  0  0  0  0  0  0  0  0
   48.6160   33.7210   36.3620 O   0  0  0  0  0  0  0  0  0  0  0  0
   49.2500   32.7210   36.9160 C   0  0  0  0  0  0  0  0  0  0  0  0
   49.0610   32.7820   38.2640 N   0  0  0  0  0  0  0  0  0  0  0  0
   50.0290   31.6990   36.2970 N   0  0  0  0  0  0  0  0  0  0  0  0
   48.4734   35.9753   42.6195 H   0  0  0  0  0  0  0  0  0  0  0  0
   49.5798   35.5693   40.4121 H   0  0  0  0  0  0  0  0  0  0  0  0
   43.7407   36.7488   45.0780 H   0  0  0  0  0  0  0  0  0  0  0  0
   44.9348   36.7405   42.8426 H   0  0  0  0  0  0  0  0  0  0  0  0
   45.7488   33.2224   46.2183 H   0  0  0  0  0  0  0  0  0  0  0  0
   50.4726   30.9694   36.8731 H   0  0  0  0  0  0  0  0  0  0  0  0
   50.1480   31.6906   35.2739 H   0  0  0  0  0  0  0  0  0  0  0  0
  1  8  1  0
  2  1  2  0
  3  2  1  0
  4  3  2  0
  4  5  1  0
  5  1  1  0
  6 11  2  0
  7  6  1  0
  8  7  2  0
  8  9  1  0
  9 10  2  0
 10 11  1  0
 12  4  1  0
 13 12  2  0
 14 15  1  0
 14 13  1  0
 15 16  2  0
 16 12  1  0
 17 15  1  0
  2 18  1  0
  3 19  1  0
  6 20  1  0
  7 21  1  0
 10 22  1  0
 17 23  1  0
 17 24  1  0
M  ISO  5  18  14  19  14  20  14  21  14  22  14
M  END
>  <minimizedAffinity>  (1) 
-5.68883801

>  <minimizedRMSD>  (1) 
0.116184063

$$$$
