
     RDKit          3D

 34 36  0  0  0  0  0  0  0  0999 V2000
   46.6400   34.7930   42.0620 C   0  0  0  0  0  0  0  0  0  0  0  0
   47.9380   35.2610   41.9950 C   0  0  0  0  0  0  0  0  0  0  0  0
   48.7230   35.1290   40.8460 C   0  0  0  0  0  0  0  0  0  0  0  0
   48.1730   34.4970   39.7140 C   0  0  0  0  0  0  0  0  0  0  0  0
   46.8830   34.0350   39.7930 C   0  0  0  0  0  0  0  0  0  0  0  0
   46.1480   34.1860   40.9420 C   0  0  0  0  0  0  0  0  0  0  0  0
   44.4520   36.1380   44.8060 C   0  0  0  0  0  0  0  0  0  0  0  0
   45.0920   36.0690   43.5590 C   0  0  0  0  0  0  0  0  0  0  0  0
   45.9240   34.9840   43.3000 C   0  0  0  0  0  0  0  0  0  0  0  0
   46.0890   34.0290   44.2620 N   0  0  0  0  0  0  0  0  0  0  0  0
   45.4390   34.1490   45.4580 C   0  0  0  0  0  0  0  0  0  0  0  0
   44.6320   35.1910   45.7220 N   0  0  0  0  0  0  0  0  0  0  0  0
   44.7980   33.6890   40.9860 N   0  0  0  0  0  0  0  0  0  0  0  0
   43.5810   34.4090   40.5980 C   0  0  0  0  0  0  0  0  0  0  0  0
   42.4260   34.0880   41.5080 C   0  0  0  0  0  0  0  0  0  0  0  0
   42.2270   32.6510   41.4890 N   0  0  0  0  0  0  0  0  0  0  0  0
   43.3830   32.0850   42.1980 C   0  0  0  0  0  0  0  0  0  0  0  0
   44.6770   32.3320   41.4720 C   0  0  0  0  0  0  0  0  0  0  0  0
   48.3694   35.7554   42.8778 H   0  0  0  0  0  0  0  0  0  0  0  0
   49.7538   35.5126   40.8263 H   0  0  0  0  0  0  0  0  0  0  0  0
   48.7610   34.3770   38.7921 H   0  0  0  0  0  0  0  0  0  0  0  0
   46.4317   33.5364   38.9226 H   0  0  0  0  0  0  0  0  0  0  0  0
   43.7912   36.9886   45.0292 H   0  0  0  0  0  0  0  0  0  0  0  0
   44.9396   36.8542   42.8039 H   0  0  0  0  0  0  0  0  0  0  0  0
   45.5798   33.3728   46.2246 H   0  0  0  0  0  0  0  0  0  0  0  0
   43.7782   35.4903   40.6413 H   0  0  0  0  0  0  0  0  0  0  0  0
   43.3097   34.0964   39.5788 H   0  0  0  0  0  0  0  0  0  0  0  0
   42.6537   34.4199   42.5317 H   0  0  0  0  0  0  0  0  0  0  0  0
   41.5163   34.6046   41.1680 H   0  0  0  0  0  0  0  0  0  0  0  0
   41.3517   32.4024   41.9717 H   0  0  0  0  0  0  0  0  0  0  0  0
   43.4446   32.5434   43.1960 H   0  0  0  0  0  0  0  0  0  0  0  0
   43.2370   30.9967   42.2632 H   0  0  0  0  0  0  0  0  0  0  0  0
   44.7354   31.6453   40.6146 H   0  0  0  0  0  0  0  0  0  0  0  0
   45.4952   32.1627   42.1875 H   0  0  0  0  0  0  0  0  0  0  0  0
  1  9  1  0
  2  1  2  0
  3  2  1  0
  4  5  1  0
  4  3  2  0
  5  6  2  0
  6 13  1  0
  6  1  1  0
  7 12  2  0
  8  7  1  0
  9  8  2  0
  9 10  1  0
 10 11  2  0
 11 12  1  0
 13 18  1  0
 14 13  1  0
 14 15  1  0
 16 15  1  0
 16 17  1  0
 18 17  1  0
  2 19  1  0
  3 20  1  0
  4 21  1  0
  5 22  1  0
  7 23  1  0
  8 24  1  0
 11 25  1  0
 14 26  1  0
 14 27  1  0
 15 28  1  0
 15 29  1  0
 16 30  1  0
 17 31  1  0
 17 32  1  0
 18 33  1  0
 18 34  1  0
M  ISO  8  19  14  20  14  21  14  22  14  23  14  24  14  25  14  26  13
M  ISO  8  27  13  28  13  29  13  30   5  31  13  32  13  33  13  34  13
M  END
>  <minimizedAffinity>  (1) 
-5.6528616

>  <minimizedRMSD>  (1) 
0.639927447

$$$$
