
     RDKit          3D

 23 25  0  0  0  0  0  0  0  0999 V2000
   46.7870   34.7700   42.1230 C   0  0  0  0  0  0  0  0  0  0  0  0
   47.9910   35.3430   41.8540 C   0  0  0  0  0  0  0  0  0  0  0  0
   48.5980   35.1210   40.6610 C   0  0  0  0  0  0  0  0  0  0  0  0
   47.8610   34.2600   39.7730 C   0  0  0  0  0  0  0  0  0  0  0  0
   46.3560   33.8410   40.7250 S   0  0  0  0  0  0  0  0  0  0  0  0
   44.4580   35.9550   44.8400 C   0  0  0  0  0  0  0  0  0  0  0  0
   45.1190   35.9570   43.5970 C   0  0  0  0  0  0  0  0  0  0  0  0
   46.0250   34.9150   43.3430 C   0  0  0  0  0  0  0  0  0  0  0  0
   46.1970   33.9990   44.2930 N   0  0  0  0  0  0  0  0  0  0  0  0
   45.5580   34.0140   45.4730 C   0  0  0  0  0  0  0  0  0  0  0  0
   44.6850   35.0020   45.7410 N   0  0  0  0  0  0  0  0  0  0  0  0
   48.2750   33.8440   38.4170 C   0  0  0  0  0  0  0  0  0  0  0  0
   48.1840   34.5310   37.3030 N   0  0  0  0  0  0  0  0  0  0  0  0
   48.6760   33.7570   36.3640 O   0  0  0  0  0  0  0  0  0  0  0  0
   49.0670   32.6060   36.8880 C   0  0  0  0  0  0  0  0  0  0  0  0
   48.8110   32.6520   38.2210 N   0  0  0  0  0  0  0  0  0  0  0  0
   49.6350   31.5420   36.2110 O   0  0  0  0  0  0  0  0  0  0  0  0
   48.4730   35.9869   42.6043 H   0  0  0  0  0  0  0  0  0  0  0  0
   49.5703   35.5613   40.3949 H   0  0  0  0  0  0  0  0  0  0  0  0
   43.7404   36.7561   45.0709 H   0  0  0  0  0  0  0  0  0  0  0  0
   44.9326   36.7453   42.8528 H   0  0  0  0  0  0  0  0  0  0  0  0
   45.7466   33.2245   46.2154 H   0  0  0  0  0  0  0  0  0  0  0  0
   49.8922   30.7225   36.7034 H   0  0  0  0  0  0  0  0  0  0  0  0
  1  8  1  0
  2  1  2  0
  3  2  1  0
  4  3  2  0
  4  5  1  0
  5  1  1  0
  6 11  2  0
  7  6  1  0
  8  7  2  0
  8  9  1  0
  9 10  2  0
 10 11  1  0
 12  4  1  0
 13 12  2  0
 14 15  1  0
 14 13  1  0
 15 16  2  0
 16 12  1  0
 17 15  1  0
  2 18  1  0
  3 19  1  0
  6 20  1  0
  7 21  1  0
 10 22  1  0
 17 23  1  0
M  ISO  6  18  14  19  14  20  14  21  14  22  14  23   3
M  END
>  <minimizedAffinity>  (1) 
-5.55614233

>  <minimizedRMSD>  (1) 
0.0281816889

$$$$
