
     RDKit          3D

 23 25  0  0  0  0  0  0  0  0999 V2000
   46.7720   34.7570   42.1180 C   0  0  0  0  0  0  0  0  0  0  0  0
   47.9820   35.3290   41.8510 C   0  0  0  0  0  0  0  0  0  0  0  0
   48.5890   35.1140   40.6590 C   0  0  0  0  0  0  0  0  0  0  0  0
   47.8440   34.2600   39.7670 C   0  0  0  0  0  0  0  0  0  0  0  0
   46.3480   33.8510   40.7230 S   0  0  0  0  0  0  0  0  0  0  0  0
   44.4610   35.9550   44.8450 C   0  0  0  0  0  0  0  0  0  0  0  0
   45.1120   35.9570   43.5930 C   0  0  0  0  0  0  0  0  0  0  0  0
   46.0170   34.9030   43.3420 C   0  0  0  0  0  0  0  0  0  0  0  0
   46.1930   33.9890   44.2940 N   0  0  0  0  0  0  0  0  0  0  0  0
   45.5620   34.0090   45.4760 C   0  0  0  0  0  0  0  0  0  0  0  0
   44.6920   35.0030   45.7450 N   0  0  0  0  0  0  0  0  0  0  0  0
   48.2600   33.8530   38.4090 C   0  0  0  0  0  0  0  0  0  0  0  0
   48.2030   34.5510   37.3020 N   0  0  0  0  0  0  0  0  0  0  0  0
   48.6890   33.7580   36.3670 O   0  0  0  0  0  0  0  0  0  0  0  0
   49.0370   32.6060   36.8760 C   0  0  0  0  0  0  0  0  0  0  0  0
   48.7700   32.6270   38.2190 N   0  0  0  0  0  0  0  0  0  0  0  0
   49.7440   31.1850   36.0480 S   0  0  0  0  0  0  0  0  0  0  0  0
   48.4658   35.9664   42.6057 H   0  0  0  0  0  0  0  0  0  0  0  0
   49.5631   35.5517   40.3951 H   0  0  0  0  0  0  0  0  0  0  0  0
   43.7473   36.7578   45.0818 H   0  0  0  0  0  0  0  0  0  0  0  0
   44.9231   36.7433   42.8473 H   0  0  0  0  0  0  0  0  0  0  0  0
   45.7522   33.2215   46.2200 H   0  0  0  0  0  0  0  0  0  0  0  0
   50.1905   30.2876   36.9820 H   0  0  0  0  0  0  0  0  0  0  0  0
  1  8  1  0
  2  1  2  0
  3  2  1  0
  4  3  2  0
  4  5  1  0
  5  1  1  0
  6 11  2  0
  7  6  1  0
  8  7  2  0
  8  9  1  0
  9 10  2  0
 10 11  1  0
 12  4  1  0
 13 12  2  0
 14 15  1  0
 14 13  1  0
 15 16  2  0
 16 12  1  0
 17 15  1  0
  2 18  1  0
  3 19  1  0
  6 20  1  0
  7 21  1  0
 10 22  1  0
 17 23  1  0
M  ISO  6  18  14  19  14  20  14  21  14  22  14  23  11
M  END
>  <minimizedAffinity>  (1) 
-5.560781

>  <minimizedRMSD>  (1) 
0.0497230552

$$$$
