
     RDKit          3D

 29 32  0  0  0  0  0  0  0  0999 V2000
   46.7870   34.7630   42.1290 C   0  0  0  0  0  0  0  0  0  0  0  0
   47.9940   35.3310   41.8580 C   0  0  0  0  0  0  0  0  0  0  0  0
   48.6010   35.1210   40.6650 C   0  0  0  0  0  0  0  0  0  0  0  0
   47.8520   34.2710   39.7710 C   0  0  0  0  0  0  0  0  0  0  0  0
   46.3520   33.8580   40.7270 S   0  0  0  0  0  0  0  0  0  0  0  0
   44.4580   35.9510   44.8460 C   0  0  0  0  0  0  0  0  0  0  0  0
   45.1190   35.9590   43.5920 C   0  0  0  0  0  0  0  0  0  0  0  0
   46.0290   34.9040   43.3510 C   0  0  0  0  0  0  0  0  0  0  0  0
   46.2050   33.9860   44.2980 N   0  0  0  0  0  0  0  0  0  0  0  0
   45.5630   34.0090   45.4730 C   0  0  0  0  0  0  0  0  0  0  0  0
   44.6950   34.9840   45.7480 N   0  0  0  0  0  0  0  0  0  0  0  0
   48.2670   33.8700   38.4130 C   0  0  0  0  0  0  0  0  0  0  0  0
   48.1250   34.5260   37.2880 N   0  0  0  0  0  0  0  0  0  0  0  0
   48.6570   33.7480   36.3660 O   0  0  0  0  0  0  0  0  0  0  0  0
   49.1170   32.6440   36.8930 C   0  0  0  0  0  0  0  0  0  0  0  0
   48.8780   32.6880   38.2330 N   0  0  0  0  0  0  0  0  0  0  0  0
   49.7790   31.5170   36.2450 C   0  0  0  0  0  0  0  0  0  0  0  0
   49.2970   30.6680   35.2800 C   0  0  0  0  0  0  0  0  0  0  0  0
   50.3310   29.7760   35.0160 C   0  0  0  0  0  0  0  0  0  0  0  0
   51.3850   30.1290   35.8350 C   0  0  0  0  0  0  0  0  0  0  0  0
   51.0240   31.1540   36.5420 O   0  0  0  0  0  0  0  0  0  0  0  0
   48.4804   35.9655   42.6135 H   0  0  0  0  0  0  0  0  0  0  0  0
   49.5754   35.5583   40.4020 H   0  0  0  0  0  0  0  0  0  0  0  0
   43.7396   36.7492   45.0843 H   0  0  0  0  0  0  0  0  0  0  0  0
   44.9336   36.7451   42.8452 H   0  0  0  0  0  0  0  0  0  0  0  0
   45.7524   33.2197   46.2154 H   0  0  0  0  0  0  0  0  0  0  0  0
   48.3012   30.6888   34.8131 H   0  0  0  0  0  0  0  0  0  0  0  0
   50.3126   28.9474   34.2927 H   0  0  0  0  0  0  0  0  0  0  0  0
   52.3627   29.6270   35.8799 H   0  0  0  0  0  0  0  0  0  0  0  0
  1  8  1  0
  2  1  2  0
  3  2  1  0
  4  3  2  0
  4  5  1  0
  5  1  1  0
  6 11  2  0
  7  6  1  0
  8  7  2  0
  8  9  1  0
  9 10  2  0
 10 11  1  0
 12  4  1  0
 13 12  2  0
 14 15  1  0
 14 13  1  0
 15 16  2  0
 16 12  1  0
 17 21  1  0
 17 15  1  0
 18 17  2  0
 19 18  1  0
 19 20  2  0
 20 21  1  0
  2 22  1  0
  3 23  1  0
  6 24  1  0
  7 25  1  0
 10 26  1  0
 18 27  1  0
 19 28  1  0
 20 29  1  0
M  ISO  8  22  14  23  14  24  14  25  14  26  14  27  14  28  14  29  14
M  END
>  <minimizedAffinity>  (1) 
-5.73790359

>  <minimizedRMSD>  (1) 
0.0571505688

$$$$
