
     RDKit          3D

 39 43  0  0  0  0  0  0  0  0999 V2000
   48.3110   33.6350   38.5250 C   0  0  0  0  0  0  0  0  0  0  0  0
   47.9590   34.0550   37.3400 N   0  0  0  0  0  0  0  0  0  0  0  0
   48.6160   33.3010   36.4870 O   0  0  0  0  0  0  0  0  0  0  0  0
   49.3630   32.4270   37.1260 C   0  0  0  0  0  0  0  0  0  0  0  0
   49.1890   32.6170   38.4640 N   0  0  0  0  0  0  0  0  0  0  0  0
   46.7750   34.7510   42.1510 C   0  0  0  0  0  0  0  0  0  0  0  0
   47.9370   35.3790   41.8390 C   0  0  0  0  0  0  0  0  0  0  0  0
   48.5530   35.0970   40.6590 C   0  0  0  0  0  0  0  0  0  0  0  0
   47.8740   34.1340   39.8540 C   0  0  0  0  0  0  0  0  0  0  0  0
   46.4050   33.6960   40.8390 S   0  0  0  0  0  0  0  0  0  0  0  0
   44.4330   36.0730   44.7970 C   0  0  0  0  0  0  0  0  0  0  0  0
   45.1200   36.0130   43.5760 C   0  0  0  0  0  0  0  0  0  0  0  0
   45.9960   34.9360   43.3640 C   0  0  0  0  0  0  0  0  0  0  0  0
   46.1270   34.0320   44.3260 N   0  0  0  0  0  0  0  0  0  0  0  0
   45.4550   34.1150   45.4870 C   0  0  0  0  0  0  0  0  0  0  0  0
   44.6170   35.1220   45.7230 N   0  0  0  0  0  0  0  0  0  0  0  0
   50.2430   31.4100   36.5740 C   0  0  0  0  0  0  0  0  0  0  0  0
   49.9700   30.3690   35.7420 C   0  0  0  0  0  0  0  0  0  0  0  0
   51.1840   29.7160   35.5350 C   0  0  0  0  0  0  0  0  0  0  0  0
   52.1320   30.3990   36.2550 C   0  0  0  0  0  0  0  0  0  0  0  0
   51.5550   31.3820   36.8510 O   0  0  0  0  0  0  0  0  0  0  0  0
   53.5490   30.0520   36.3210 C   0  0  0  0  0  0  0  0  0  0  0  0
   54.1390   29.1820   35.4270 C   0  0  0  0  0  0  0  0  0  0  0  0
   55.4920   28.8480   35.4880 C   0  0  0  0  0  0  0  0  0  0  0  0
   56.2570   29.4320   36.5020 C   0  0  0  0  0  0  0  0  0  0  0  0
   55.7140   30.3190   37.4350 C   0  0  0  0  0  0  0  0  0  0  0  0
   54.3670   30.5870   37.2950 C   0  0  0  0  0  0  0  0  0  0  0  0
   48.3769   36.1095   42.5339 H   0  0  0  0  0  0  0  0  0  0  0  0
   49.4962   35.5720   40.3511 H   0  0  0  0  0  0  0  0  0  0  0  0
   43.7402   36.9041   44.9955 H   0  0  0  0  0  0  0  0  0  0  0  0
   44.9770   36.7865   42.8071 H   0  0  0  0  0  0  0  0  0  0  0  0
   45.5996   33.3394   46.2535 H   0  0  0  0  0  0  0  0  0  0  0  0
   48.9914   30.0979   35.3191 H   0  0  0  0  0  0  0  0  0  0  0  0
   51.3504   28.8238   34.9134 H   0  0  0  0  0  0  0  0  0  0  0  0
   53.5188   28.7349   34.6362 H   0  0  0  0  0  0  0  0  0  0  0  0
   55.9405   28.1508   34.7649 H   0  0  0  0  0  0  0  0  0  0  0  0
   57.3266   29.1838   36.5678 H   0  0  0  0  0  0  0  0  0  0  0  0
   56.3214   30.7749   38.2308 H   0  0  0  0  0  0  0  0  0  0  0  0
   53.9103   31.2810   38.0160 H   0  0  0  0  0  0  0  0  0  0  0  0
  1  9  1  0
  2  1  2  0
  3  4  1  0
  3  2  1  0
  4  5  2  0
  5  1  1  0
  6 13  1  0
  7  6  2  0
  8  7  1  0
  9  8  2  0
  9 10  1  0
 10  6  1  0
 11 16  2  0
 12 11  1  0
 13 12  2  0
 13 14  1  0
 14 15  2  0
 15 16  1  0
 17 21  1  0
 17  4  1  0
 18 17  2  0
 19 18  1  0
 19 20  2  0
 20 22  1  0
 20 21  1  0
 22 27  2  0
 23 24  2  0
 23 22  1  0
 24 25  1  0
 25 26  2  0
 27 26  1  0
  7 28  1  0
  8 29  1  0
 11 30  1  0
 12 31  1  0
 15 32  1  0
 18 33  1  0
 19 34  1  0
 23 35  1  0
 24 36  1  0
 25 37  1  0
 26 38  1  0
 27 39  1  0
M  ISO  8  28  14  29  14  30  14  31  14  32  14  33  14  34  14  35  14
M  ISO  4  36  14  37  14  38  14  39  14
M  END
>  <minimizedAffinity>  (1) 
-6.17710829

>  <minimizedRMSD>  (1) 
0.777840018

$$$$
