
     RDKit          3D

 43 47  0  0  0  0  0  0  0  0999 V2000
   48.2850   33.7680   38.4600 C   0  0  0  0  0  0  0  0  0  0  0  0
   47.9760   34.2990   37.2940 N   0  0  0  0  0  0  0  0  0  0  0  0
   48.6090   33.5550   36.4070 O   0  0  0  0  0  0  0  0  0  0  0  0
   49.2880   32.5960   37.0030 C   0  0  0  0  0  0  0  0  0  0  0  0
   49.0960   32.7120   38.3400 N   0  0  0  0  0  0  0  0  0  0  0  0
   46.7980   34.7460   42.1450 C   0  0  0  0  0  0  0  0  0  0  0  0
   47.9740   35.3470   41.8550 C   0  0  0  0  0  0  0  0  0  0  0  0
   48.5730   35.1080   40.6660 C   0  0  0  0  0  0  0  0  0  0  0  0
   47.8570   34.2020   39.8120 C   0  0  0  0  0  0  0  0  0  0  0  0
   46.3790   33.7640   40.7810 S   0  0  0  0  0  0  0  0  0  0  0  0
   44.4490   35.9730   44.8400 C   0  0  0  0  0  0  0  0  0  0  0  0
   45.1190   35.9650   43.5930 C   0  0  0  0  0  0  0  0  0  0  0  0
   46.0290   34.8930   43.3680 C   0  0  0  0  0  0  0  0  0  0  0  0
   46.2020   33.9700   44.3260 N   0  0  0  0  0  0  0  0  0  0  0  0
   45.5320   34.0380   45.4880 C   0  0  0  0  0  0  0  0  0  0  0  0
   44.6680   35.0210   45.7480 N   0  0  0  0  0  0  0  0  0  0  0  0
   50.1250   31.5560   36.3920 C   0  0  0  0  0  0  0  0  0  0  0  0
   49.8180   30.6720   35.3900 C   0  0  0  0  0  0  0  0  0  0  0  0
   50.9660   29.9240   35.2090 C   0  0  0  0  0  0  0  0  0  0  0  0
   51.9130   30.3910   36.1110 C   0  0  0  0  0  0  0  0  0  0  0  0
   51.3830   31.3480   36.7870 O   0  0  0  0  0  0  0  0  0  0  0  0
   53.2190   29.8150   36.1690 N   0  0  0  0  0  0  0  0  0  0  0  0
   54.1280   29.3600   35.1390 C   0  0  0  0  0  0  0  0  0  0  0  0
   55.5340   29.5360   35.6410 C   0  0  0  0  0  0  0  0  0  0  0  0
   55.6990   30.7260   36.4270 N   0  0  0  0  0  0  0  0  0  0  0  0
   54.8550   30.7360   37.6110 C   0  0  0  0  0  0  0  0  0  0  0  0
   53.8230   29.6060   37.4910 C   0  0  0  0  0  0  0  0  0  0  0  0
   48.4413   36.0270   42.5825 H   0  0  0  0  0  0  0  0  0  0  0  0
   49.5290   35.5692   40.3772 H   0  0  0  0  0  0  0  0  0  0  0  0
   43.7348   36.7790   45.0641 H   0  0  0  0  0  0  0  0  0  0  0  0
   44.9458   36.7457   42.8377 H   0  0  0  0  0  0  0  0  0  0  0  0
   45.7005   33.2605   46.2477 H   0  0  0  0  0  0  0  0  0  0  0  0
   48.8653   30.5784   34.8481 H   0  0  0  0  0  0  0  0  0  0  0  0
   51.1042   29.1086   34.4837 H   0  0  0  0  0  0  0  0  0  0  0  0
   53.9821   29.9541   34.2248 H   0  0  0  0  0  0  0  0  0  0  0  0
   53.9380   28.3020   34.9053 H   0  0  0  0  0  0  0  0  0  0  0  0
   55.7975   28.6661   36.2606 H   0  0  0  0  0  0  0  0  0  0  0  0
   56.1905   29.6253   34.7629 H   0  0  0  0  0  0  0  0  0  0  0  0
   56.6833   30.7919   36.7231 H   0  0  0  0  0  0  0  0  0  0  0  0
   55.4731   30.5788   38.5072 H   0  0  0  0  0  0  0  0  0  0  0  0
   54.3410   31.7048   37.6960 H   0  0  0  0  0  0  0  0  0  0  0  0
   53.0646   29.6834   38.2840 H   0  0  0  0  0  0  0  0  0  0  0  0
   54.2736   28.6082   37.5975 H   0  0  0  0  0  0  0  0  0  0  0  0
  1  9  1  0
  2  1  2  0
  3  4  1  0
  3  2  1  0
  4  5  2  0
  5  1  1  0
  6 13  1  0
  7  6  2  0
  8  7  1  0
  9  8  2  0
  9 10  1  0
 10  6  1  0
 11 16  2  0
 12 11  1  0
 13 12  2  0
 13 14  1  0
 14 15  2  0
 15 16  1  0
 17 21  1  0
 17  4  1  0
 18 17  2  0
 19 18  1  0
 19 20  2  0
 20 22  1  0
 20 21  1  0
 22 27  1  0
 23 24  1  0
 23 22  1  0
 24 25  1  0
 25 26  1  0
 27 26  1  0
  7 28  1  0
  8 29  1  0
 11 30  1  0
 12 31  1  0
 15 32  1  0
 18 33  1  0
 19 34  1  0
 23 35  1  0
 23 36  1  0
 24 37  1  0
 24 38  1  0
 25 39  1  0
 26 40  1  0
 26 41  1  0
 27 42  1  0
 27 43  1  0
M  ISO  8  28  14  29  14  30  14  31  14  32  14  33  14  34  14  35  13
M  ISO  8  36  13  37  13  38  13  39   5  40  13  41  13  42  13  43  13
M  END
>  <minimizedAffinity>  (1) 
-6.26543903

>  <minimizedRMSD>  (1) 
0.650381207

$$$$
