
     RDKit          3D

 35 39  0  0  0  0  0  0  0  0999 V2000
   48.2710   33.8450   38.4280 C   0  0  0  0  0  0  0  0  0  0  0  0
   48.1460   34.5030   37.3100 N   0  0  0  0  0  0  0  0  0  0  0  0
   48.6630   33.7140   36.3890 O   0  0  0  0  0  0  0  0  0  0  0  0
   49.0970   32.5970   36.9210 C   0  0  0  0  0  0  0  0  0  0  0  0
   48.8590   32.6390   38.2630 N   0  0  0  0  0  0  0  0  0  0  0  0
   46.7970   34.7590   42.1390 C   0  0  0  0  0  0  0  0  0  0  0  0
   47.9880   35.3370   41.8670 C   0  0  0  0  0  0  0  0  0  0  0  0
   48.5840   35.1170   40.6750 C   0  0  0  0  0  0  0  0  0  0  0  0
   47.8590   34.2600   39.7940 C   0  0  0  0  0  0  0  0  0  0  0  0
   46.3650   33.8320   40.7500 S   0  0  0  0  0  0  0  0  0  0  0  0
   44.4530   35.9660   44.8400 C   0  0  0  0  0  0  0  0  0  0  0  0
   45.1200   35.9570   43.6010 C   0  0  0  0  0  0  0  0  0  0  0  0
   46.0310   34.8960   43.3680 C   0  0  0  0  0  0  0  0  0  0  0  0
   46.1990   33.9890   44.3130 N   0  0  0  0  0  0  0  0  0  0  0  0
   45.5520   34.0190   45.4830 C   0  0  0  0  0  0  0  0  0  0  0  0
   44.6790   35.0080   45.7460 N   0  0  0  0  0  0  0  0  0  0  0  0
   49.7360   31.4540   36.2690 C   0  0  0  0  0  0  0  0  0  0  0  0
   49.1720   30.3830   35.6390 C   0  0  0  0  0  0  0  0  0  0  0  0
   50.2480   29.6160   35.2120 C   0  0  0  0  0  0  0  0  0  0  0  0
   51.4200   30.2520   35.5990 C   0  0  0  0  0  0  0  0  0  0  0  0
   51.0440   31.3190   36.2120 O   0  0  0  0  0  0  0  0  0  0  0  0
   52.8100   29.8000   35.3590 C   0  0  0  0  0  0  0  0  0  0  0  0
   53.1670   29.2960   34.0720 C   0  0  0  0  0  0  0  0  0  0  0  0
   54.9370   28.9020   34.3360 S   0  0  0  0  0  0  0  0  0  0  0  0
   54.9040   29.4670   36.0920 C   0  0  0  0  0  0  0  0  0  0  0  0
   53.7430   29.8490   36.3060 N   0  0  0  0  0  0  0  0  0  0  0  0
   48.4705   35.9845   42.6140 H   0  0  0  0  0  0  0  0  0  0  0  0
   49.5523   35.5634   40.4046 H   0  0  0  0  0  0  0  0  0  0  0  0
   43.7374   36.7702   45.0662 H   0  0  0  0  0  0  0  0  0  0  0  0
   44.9425   36.7381   42.8471 H   0  0  0  0  0  0  0  0  0  0  0  0
   45.7340   33.2337   46.2315 H   0  0  0  0  0  0  0  0  0  0  0  0
   48.1011   30.1734   35.5000 H   0  0  0  0  0  0  0  0  0  0  0  0
   50.1829   28.6662   34.6609 H   0  0  0  0  0  0  0  0  0  0  0  0
   52.5493   29.1769   33.1697 H   0  0  0  0  0  0  0  0  0  0  0  0
   55.7425   29.4655   36.8040 H   0  0  0  0  0  0  0  0  0  0  0  0
  1  9  1  0
  2  1  2  0
  3  4  1  0
  3  2  1  0
  4  5  2  0
  5  1  1  0
  6 13  1  0
  7  6  2  0
  8  7  1  0
  9  8  2  0
  9 10  1  0
 10  6  1  0
 11 16  2  0
 12 11  1  0
 13 12  2  0
 13 14  1  0
 14 15  2  0
 15 16  1  0
 17  4  1  0
 18 17  2  0
 19 20  2  0
 19 18  1  0
 20 21  1  0
 21 17  1  0
 22 20  1  0
 22 26  1  0
 23 24  1  0
 23 22  2  0
 24 25  1  0
 25 26  2  0
  7 27  1  0
  8 28  1  0
 11 29  1  0
 12 30  1  0
 15 31  1  0
 18 32  1  0
 19 33  1  0
 23 34  1  0
 25 35  1  0
M  ISO  8  27  14  28  14  29  14  30  14  31  14  32  14  33  14  34  14
M  ISO  1  35  14
M  END
>  <minimizedAffinity>  (1) 
-5.98754025

>  <minimizedRMSD>  (1) 
0.627370656

$$$$
