
     RDKit          3D

 36 40  0  0  0  0  0  0  0  0999 V2000
   48.2880   33.7030   38.5090 C   0  0  0  0  0  0  0  0  0  0  0  0
   47.9220   34.1260   37.3360 N   0  0  0  0  0  0  0  0  0  0  0  0
   48.6020   33.3910   36.4770 O   0  0  0  0  0  0  0  0  0  0  0  0
   49.3750   32.5260   37.1010 C   0  0  0  0  0  0  0  0  0  0  0  0
   49.1930   32.7050   38.4300 N   0  0  0  0  0  0  0  0  0  0  0  0
   46.7750   34.7430   42.1690 C   0  0  0  0  0  0  0  0  0  0  0  0
   47.9350   35.3600   41.8550 C   0  0  0  0  0  0  0  0  0  0  0  0
   48.5430   35.1090   40.6740 C   0  0  0  0  0  0  0  0  0  0  0  0
   47.8510   34.1670   39.8500 C   0  0  0  0  0  0  0  0  0  0  0  0
   46.3790   33.7140   40.8320 S   0  0  0  0  0  0  0  0  0  0  0  0
   44.4320   36.0290   44.8370 C   0  0  0  0  0  0  0  0  0  0  0  0
   45.1120   35.9990   43.5940 C   0  0  0  0  0  0  0  0  0  0  0  0
   46.0040   34.9090   43.3920 C   0  0  0  0  0  0  0  0  0  0  0  0
   46.1470   34.0100   44.3460 N   0  0  0  0  0  0  0  0  0  0  0  0
   45.4900   34.0660   45.5100 C   0  0  0  0  0  0  0  0  0  0  0  0
   44.6410   35.0630   45.7590 N   0  0  0  0  0  0  0  0  0  0  0  0
   50.2750   31.5400   36.5270 C   0  0  0  0  0  0  0  0  0  0  0  0
   50.0740   30.6610   35.5080 C   0  0  0  0  0  0  0  0  0  0  0  0
   51.2750   29.9580   35.3820 C   0  0  0  0  0  0  0  0  0  0  0  0
   52.1430   30.4490   36.3330 C   0  0  0  0  0  0  0  0  0  0  0  0
   51.5230   31.3820   36.9920 O   0  0  0  0  0  0  0  0  0  0  0  0
   53.5190   30.0730   36.6370 C   0  0  0  0  0  0  0  0  0  0  0  0
   54.3280   30.8430   37.4700 C   0  0  0  0  0  0  0  0  0  0  0  0
   55.5820   30.2370   37.5720 C   0  0  0  0  0  0  0  0  0  0  0  0
   55.4430   29.1110   36.7730 C   0  0  0  0  0  0  0  0  0  0  0  0
   54.2370   29.0570   36.2540 O   0  0  0  0  0  0  0  0  0  0  0  0
   48.3869   36.0698   42.5635 H   0  0  0  0  0  0  0  0  0  0  0  0
   49.4869   35.5872   40.3733 H   0  0  0  0  0  0  0  0  0  0  0  0
   43.7277   36.8458   45.0534 H   0  0  0  0  0  0  0  0  0  0  0  0
   44.9589   36.7743   42.8288 H   0  0  0  0  0  0  0  0  0  0  0  0
   45.6515   33.2841   46.2667 H   0  0  0  0  0  0  0  0  0  0  0  0
   49.1598   30.5313   34.9101 H   0  0  0  0  0  0  0  0  0  0  0  0
   51.4884   29.1591   34.6566 H   0  0  0  0  0  0  0  0  0  0  0  0
   54.0275   31.7772   37.9670 H   0  0  0  0  0  0  0  0  0  0  0  0
   56.4611   30.5695   38.1435 H   0  0  0  0  0  0  0  0  0  0  0  0
   56.2334   28.3663   36.5982 H   0  0  0  0  0  0  0  0  0  0  0  0
  1  9  1  0
  2  1  2  0
  3  4  1  0
  3  2  1  0
  4  5  2  0
  5  1  1  0
  6 13  1  0
  7  6  2  0
  8  7  1  0
  9  8  2  0
  9 10  1  0
 10  6  1  0
 11 16  2  0
 12 11  1  0
 13 12  2  0
 13 14  1  0
 14 15  2  0
 15 16  1  0
 17 21  1  0
 17  4  1  0
 18 17  2  0
 19 18  1  0
 19 20  2  0
 20 22  1  0
 20 21  1  0
 22 23  2  0
 23 24  1  0
 25 24  2  0
 26 22  1  0
 26 25  1  0
  7 27  1  0
  8 28  1  0
 11 29  1  0
 12 30  1  0
 15 31  1  0
 18 32  1  0
 19 33  1  0
 23 34  1  0
 24 35  1  0
 25 36  1  0
M  ISO  8  27  14  28  14  29  14  30  14  31  14  32  14  33  14  34  14
M  ISO  2  35  14  36  14
M  END
>  <minimizedAffinity>  (1) 
-6.09026766

>  <minimizedRMSD>  (1) 
0.737489641

$$$$
