
     RDKit          3D

 35 39  0  0  0  0  0  0  0  0999 V2000
   48.2560   33.8380   38.4290 C   0  0  0  0  0  0  0  0  0  0  0  0
   48.0970   34.4750   37.3030 N   0  0  0  0  0  0  0  0  0  0  0  0
   48.6220   33.6970   36.3810 O   0  0  0  0  0  0  0  0  0  0  0  0
   49.0970   32.5990   36.9180 C   0  0  0  0  0  0  0  0  0  0  0  0
   48.8700   32.6670   38.2590 N   0  0  0  0  0  0  0  0  0  0  0  0
   46.8000   34.7670   42.1440 C   0  0  0  0  0  0  0  0  0  0  0  0
   47.9950   35.3390   41.8670 C   0  0  0  0  0  0  0  0  0  0  0  0
   48.5870   35.1120   40.6700 C   0  0  0  0  0  0  0  0  0  0  0  0
   47.8510   34.2570   39.7970 C   0  0  0  0  0  0  0  0  0  0  0  0
   46.3540   33.8360   40.7530 S   0  0  0  0  0  0  0  0  0  0  0  0
   44.4510   35.9670   44.8450 C   0  0  0  0  0  0  0  0  0  0  0  0
   45.1220   35.9680   43.5970 C   0  0  0  0  0  0  0  0  0  0  0  0
   46.0320   34.9050   43.3710 C   0  0  0  0  0  0  0  0  0  0  0  0
   46.1990   33.9930   44.3140 N   0  0  0  0  0  0  0  0  0  0  0  0
   45.5540   34.0150   45.4810 C   0  0  0  0  0  0  0  0  0  0  0  0
   44.6800   34.9990   45.7490 N   0  0  0  0  0  0  0  0  0  0  0  0
   49.7560   31.4750   36.2750 C   0  0  0  0  0  0  0  0  0  0  0  0
   49.2180   30.4100   35.6160 C   0  0  0  0  0  0  0  0  0  0  0  0
   50.3080   29.6390   35.2030 C   0  0  0  0  0  0  0  0  0  0  0  0
   51.4470   30.2740   35.6330 C   0  0  0  0  0  0  0  0  0  0  0  0
   51.0900   31.3470   36.2590 O   0  0  0  0  0  0  0  0  0  0  0  0
   52.7930   29.8830   35.4610 N   0  0  0  0  0  0  0  0  0  0  0  0
   53.7450   29.7030   36.3920 C   0  0  0  0  0  0  0  0  0  0  0  0
   54.8830   29.3290   35.7590 N   0  0  0  0  0  0  0  0  0  0  0  0
   54.6060   29.2860   34.4310 C   0  0  0  0  0  0  0  0  0  0  0  0
   53.3240   29.6280   34.2760 N   0  0  0  0  0  0  0  0  0  0  0  0
   48.4834   35.9856   42.6109 H   0  0  0  0  0  0  0  0  0  0  0  0
   49.5568   35.5514   40.3935 H   0  0  0  0  0  0  0  0  0  0  0  0
   43.7339   36.7682   45.0769 H   0  0  0  0  0  0  0  0  0  0  0  0
   44.9463   36.7510   42.8446 H   0  0  0  0  0  0  0  0  0  0  0  0
   45.7380   33.2261   46.2252 H   0  0  0  0  0  0  0  0  0  0  0  0
   48.1515   30.2015   35.4454 H   0  0  0  0  0  0  0  0  0  0  0  0
   50.2620   28.6967   34.6374 H   0  0  0  0  0  0  0  0  0  0  0  0
   53.6221   29.8359   37.4770 H   0  0  0  0  0  0  0  0  0  0  0  0
   55.3091   29.0183   33.6285 H   0  0  0  0  0  0  0  0  0  0  0  0
  1  9  1  0
  2  1  2  0
  3  4  1  0
  3  2  1  0
  4  5  2  0
  5  1  1  0
  6 13  1  0
  7  6  2  0
  8  7  1  0
  9  8  2  0
  9 10  1  0
 10  6  1  0
 11 16  2  0
 12 11  1  0
 13 12  2  0
 13 14  1  0
 14 15  2  0
 15 16  1  0
 17  4  1  0
 18 17  2  0
 19 18  1  0
 19 20  2  0
 20 21  1  0
 21 17  1  0
 22 20  1  0
 22 23  1  0
 24 23  2  0
 25 24  1  0
 26 25  2  0
 26 22  1  0
  7 27  1  0
  8 28  1  0
 11 29  1  0
 12 30  1  0
 15 31  1  0
 18 32  1  0
 19 33  1  0
 23 34  1  0
 25 35  1  0
M  ISO  8  27  14  28  14  29  14  30  14  31  14  32  14  33  14  34  14
M  ISO  1  35  14
M  END
>  <minimizedAffinity>  (1) 
-6.01766777

>  <minimizedRMSD>  (1) 
0.465679556

$$$$
