
     RDKit          3D

 37 41  0  0  0  0  0  0  0  0999 V2000
   48.2680   33.7040   38.5040 C   0  0  0  0  0  0  0  0  0  0  0  0
   47.8900   34.1170   37.3320 N   0  0  0  0  0  0  0  0  0  0  0  0
   48.5790   33.3810   36.4730 O   0  0  0  0  0  0  0  0  0  0  0  0
   49.3620   32.5350   37.0950 C   0  0  0  0  0  0  0  0  0  0  0  0
   49.1870   32.7150   38.4240 N   0  0  0  0  0  0  0  0  0  0  0  0
   46.7620   34.7360   42.1700 C   0  0  0  0  0  0  0  0  0  0  0  0
   47.9260   35.3500   41.8580 C   0  0  0  0  0  0  0  0  0  0  0  0
   48.5310   35.1000   40.6780 C   0  0  0  0  0  0  0  0  0  0  0  0
   47.8360   34.1660   39.8480 C   0  0  0  0  0  0  0  0  0  0  0  0
   46.3690   33.7210   40.8330 S   0  0  0  0  0  0  0  0  0  0  0  0
   44.4330   36.0300   44.8450 C   0  0  0  0  0  0  0  0  0  0  0  0
   45.1070   35.9970   43.5990 C   0  0  0  0  0  0  0  0  0  0  0  0
   45.9970   34.9050   43.3930 C   0  0  0  0  0  0  0  0  0  0  0  0
   46.1420   34.0050   44.3490 N   0  0  0  0  0  0  0  0  0  0  0  0
   45.4900   34.0650   45.5150 C   0  0  0  0  0  0  0  0  0  0  0  0
   44.6380   35.0720   45.7660 N   0  0  0  0  0  0  0  0  0  0  0  0
   50.2770   31.5540   36.5270 C   0  0  0  0  0  0  0  0  0  0  0  0
   50.0970   30.6760   35.5010 C   0  0  0  0  0  0  0  0  0  0  0  0
   51.2930   29.9810   35.3810 C   0  0  0  0  0  0  0  0  0  0  0  0
   52.1530   30.4730   36.3490 C   0  0  0  0  0  0  0  0  0  0  0  0
   51.5200   31.3970   37.0040 O   0  0  0  0  0  0  0  0  0  0  0  0
   53.5210   30.0030   36.5580 C   0  0  0  0  0  0  0  0  0  0  0  0
   54.4050   30.7160   37.3710 C   0  0  0  0  0  0  0  0  0  0  0  0
   55.6880   30.1900   37.5100 C   0  0  0  0  0  0  0  0  0  0  0  0
   56.0640   29.0560   36.8970 N   0  0  0  0  0  0  0  0  0  0  0  0
   55.1880   28.3870   36.1170 C   0  0  0  0  0  0  0  0  0  0  0  0
   53.9250   28.8730   35.9590 N   0  0  0  0  0  0  0  0  0  0  0  0
   48.3811   36.0556   42.5686 H   0  0  0  0  0  0  0  0  0  0  0  0
   49.4778   35.5742   40.3802 H   0  0  0  0  0  0  0  0  0  0  0  0
   43.7328   36.8502   45.0617 H   0  0  0  0  0  0  0  0  0  0  0  0
   44.9513   36.7717   42.8338 H   0  0  0  0  0  0  0  0  0  0  0  0
   45.6526   33.2847   46.2731 H   0  0  0  0  0  0  0  0  0  0  0  0
   49.1901   30.5446   34.8924 H   0  0  0  0  0  0  0  0  0  0  0  0
   51.5161   29.1874   34.6527 H   0  0  0  0  0  0  0  0  0  0  0  0
   54.1038   31.6456   37.8760 H   0  0  0  0  0  0  0  0  0  0  0  0
   56.4156   30.7205   38.1418 H   0  0  0  0  0  0  0  0  0  0  0  0
   55.4915   27.4574   35.6133 H   0  0  0  0  0  0  0  0  0  0  0  0
  1  9  1  0
  2  1  2  0
  3  4  1  0
  3  2  1  0
  4  5  2  0
  5  1  1  0
  6 13  1  0
  7  6  2  0
  8  7  1  0
  9  8  2  0
  9 10  1  0
 10  6  1  0
 11 16  2  0
 12 11  1  0
 13 12  2  0
 13 14  1  0
 14 15  2  0
 15 16  1  0
 17 21  1  0
 17  4  1  0
 18 17  2  0
 19 18  1  0
 19 20  2  0
 20 22  1  0
 20 21  1  0
 22 23  2  0
 23 24  1  0
 25 24  2  0
 26 25  1  0
 27 26  2  0
 27 22  1  0
  7 28  1  0
  8 29  1  0
 11 30  1  0
 12 31  1  0
 15 32  1  0
 18 33  1  0
 19 34  1  0
 23 35  1  0
 24 36  1  0
 26 37  1  0
M  ISO  8  28  14  29  14  30  14  31  14  32  14  33  14  34  14  35  14
M  ISO  2  36  14  37  14
M  END
>  <minimizedAffinity>  (1) 
-6.06223154

>  <minimizedRMSD>  (1) 
0.850572348

$$$$
