
     RDKit          3D

 32 35  0  0  0  0  0  0  0  0999 V2000
   46.8130   34.7750   42.1260 C   0  0  0  0  0  0  0  0  0  0  0  0
   48.0150   35.3360   41.8590 C   0  0  0  0  0  0  0  0  0  0  0  0
   48.6060   35.1140   40.6630 C   0  0  0  0  0  0  0  0  0  0  0  0
   47.8610   34.2770   39.7760 C   0  0  0  0  0  0  0  0  0  0  0  0
   46.3530   33.8610   40.7270 S   0  0  0  0  0  0  0  0  0  0  0  0
   44.4630   35.9310   44.8440 C   0  0  0  0  0  0  0  0  0  0  0  0
   45.1300   35.9460   43.5960 C   0  0  0  0  0  0  0  0  0  0  0  0
   46.0420   34.9080   43.3530 C   0  0  0  0  0  0  0  0  0  0  0  0
   46.2210   33.9860   44.2960 N   0  0  0  0  0  0  0  0  0  0  0  0
   45.5710   34.0030   45.4680 C   0  0  0  0  0  0  0  0  0  0  0  0
   44.6950   34.9720   45.7420 N   0  0  0  0  0  0  0  0  0  0  0  0
   48.2650   33.8680   38.4050 C   0  0  0  0  0  0  0  0  0  0  0  0
   48.0710   34.5010   37.2820 N   0  0  0  0  0  0  0  0  0  0  0  0
   48.6180   33.7250   36.3620 O   0  0  0  0  0  0  0  0  0  0  0  0
   49.1360   32.6470   36.9000 C   0  0  0  0  0  0  0  0  0  0  0  0
   48.9190   32.7160   38.2340 N   0  0  0  0  0  0  0  0  0  0  0  0
   49.8230   31.5530   36.2450 C   0  0  0  0  0  0  0  0  0  0  0  0
   49.3820   30.6720   35.3010 C   0  0  0  0  0  0  0  0  0  0  0  0
   50.4460   29.8310   35.0230 C   0  0  0  0  0  0  0  0  0  0  0  0
   51.4910   30.2410   35.8130 C   0  0  0  0  0  0  0  0  0  0  0  0
   51.0980   31.2520   36.5210 O   0  0  0  0  0  0  0  0  0  0  0  0
   52.8070   29.5500   35.7700 C   0  0  0  0  0  0  0  0  0  0  0  0
   48.5088   35.9693   42.6107 H   0  0  0  0  0  0  0  0  0  0  0  0
   49.5824   35.5435   40.3943 H   0  0  0  0  0  0  0  0  0  0  0  0
   43.7392   36.7255   45.0782 H   0  0  0  0  0  0  0  0  0  0  0  0
   44.9423   36.7340   42.8518 H   0  0  0  0  0  0  0  0  0  0  0  0
   45.7608   33.2128   46.2093 H   0  0  0  0  0  0  0  0  0  0  0  0
   48.3793   30.6369   34.8500 H   0  0  0  0  0  0  0  0  0  0  0  0
   50.4527   28.9957   34.3073 H   0  0  0  0  0  0  0  0  0  0  0  0
   53.1580   29.3657   36.7961 H   0  0  0  0  0  0  0  0  0  0  0  0
   52.7007   28.5914   35.2411 H   0  0  0  0  0  0  0  0  0  0  0  0
   53.5358   30.1818   35.2411 H   0  0  0  0  0  0  0  0  0  0  0  0
  1  8  1  0
  2  1  2  0
  3  2  1  0
  4  3  2  0
  4  5  1  0
  5  1  1  0
  6 11  2  0
  7  6  1  0
  8  7  2  0
  8  9  1  0
  9 10  2  0
 10 11  1  0
 12  4  1  0
 13 12  2  0
 14 15  1  0
 14 13  1  0
 15 16  2  0
 16 12  1  0
 17 21  1  0
 17 15  1  0
 18 17  2  0
 19 18  1  0
 19 20  2  0
 20 21  1  0
 22 20  1  0
  2 23  1  0
  3 24  1  0
  6 25  1  0
  7 26  1  0
 10 27  1  0
 18 28  1  0
 19 29  1  0
 22 30  1  0
 22 31  1  0
 22 32  1  0
M  ISO  8  23  14  24  14  25  14  26  14  27  14  28  14  29  14  30   8
M  ISO  2  31   8  32   8
M  END
>  <minimizedAffinity>  (1) 
-5.85881853

>  <minimizedRMSD>  (1) 
0.0745647475

$$$$
