
     RDKit          3D

 31 34  0  0  0  0  0  0  0  0999 V2000
   46.8020   34.7680   42.1400 C   0  0  0  0  0  0  0  0  0  0  0  0
   47.9990   35.3340   41.8700 C   0  0  0  0  0  0  0  0  0  0  0  0
   48.5950   35.1220   40.6750 C   0  0  0  0  0  0  0  0  0  0  0  0
   47.8540   34.2820   39.7880 C   0  0  0  0  0  0  0  0  0  0  0  0
   46.3510   33.8550   40.7350 S   0  0  0  0  0  0  0  0  0  0  0  0
   44.4550   35.9450   44.8490 C   0  0  0  0  0  0  0  0  0  0  0  0
   45.1280   35.9450   43.6060 C   0  0  0  0  0  0  0  0  0  0  0  0
   46.0370   34.9000   43.3690 C   0  0  0  0  0  0  0  0  0  0  0  0
   46.2060   33.9910   44.3100 N   0  0  0  0  0  0  0  0  0  0  0  0
   45.5590   34.0130   45.4770 C   0  0  0  0  0  0  0  0  0  0  0  0
   44.6900   34.9780   45.7520 N   0  0  0  0  0  0  0  0  0  0  0  0
   48.2640   33.8780   38.4180 C   0  0  0  0  0  0  0  0  0  0  0  0
   48.0720   34.5020   37.2940 N   0  0  0  0  0  0  0  0  0  0  0  0
   48.6300   33.7260   36.3750 O   0  0  0  0  0  0  0  0  0  0  0  0
   49.1480   32.6570   36.9170 C   0  0  0  0  0  0  0  0  0  0  0  0
   48.9320   32.7150   38.2570 N   0  0  0  0  0  0  0  0  0  0  0  0
   49.8510   31.5510   36.2730 C   0  0  0  0  0  0  0  0  0  0  0  0
   49.4380   30.7070   35.2860 C   0  0  0  0  0  0  0  0  0  0  0  0
   50.5090   29.8420   35.0550 C   0  0  0  0  0  0  0  0  0  0  0  0
   51.5150   30.2070   35.9120 C   0  0  0  0  0  0  0  0  0  0  0  0
   51.1010   31.2130   36.6160 O   0  0  0  0  0  0  0  0  0  0  0  0
   52.8100   29.5980   36.0310 N   0  0  0  0  0  0  0  0  0  0  0  0
   48.4892   35.9681   42.6234 H   0  0  0  0  0  0  0  0  0  0  0  0
   49.5684   35.5594   40.4082 H   0  0  0  0  0  0  0  0  0  0  0  0
   43.7333   36.7427   45.0789 H   0  0  0  0  0  0  0  0  0  0  0  0
   44.9478   36.7295   42.8563 H   0  0  0  0  0  0  0  0  0  0  0  0
   45.7478   33.2231   46.2189 H   0  0  0  0  0  0  0  0  0  0  0  0
   48.4629   30.7073   34.7769 H   0  0  0  0  0  0  0  0  0  0  0  0
   50.5400   29.0216   34.3229 H   0  0  0  0  0  0  0  0  0  0  0  0
   53.4888   29.9608   36.7155 H   0  0  0  0  0  0  0  0  0  0  0  0
   53.0601   28.7984   35.4318 H   0  0  0  0  0  0  0  0  0  0  0  0
  1  8  1  0
  2  1  2  0
  3  2  1  0
  4  3  2  0
  4  5  1  0
  5  1  1  0
  6 11  2  0
  7  6  1  0
  8  7  2  0
  8  9  1  0
  9 10  2  0
 10 11  1  0
 12  4  1  0
 13 12  2  0
 14 15  1  0
 14 13  1  0
 15 16  2  0
 16 12  1  0
 17 21  1  0
 17 15  1  0
 18 17  2  0
 19 18  1  0
 19 20  2  0
 20 22  1  0
 20 21  1  0
  2 23  1  0
  3 24  1  0
  6 25  1  0
  7 26  1  0
 10 27  1  0
 18 28  1  0
 19 29  1  0
 22 30  1  0
 22 31  1  0
M  ISO  7  23  14  24  14  25  14  26  14  27  14  28  14  29  14
M  END
>  <minimizedAffinity>  (1) 
-5.84517479

>  <minimizedRMSD>  (1) 
0.082402125

$$$$
