
     RDKit          3D

 30 33  0  0  0  0  0  0  0  0999 V2000
   46.7980   34.7660   42.1310 C   0  0  0  0  0  0  0  0  0  0  0  0
   48.0000   35.3280   41.8650 C   0  0  0  0  0  0  0  0  0  0  0  0
   48.5930   35.1050   40.6640 C   0  0  0  0  0  0  0  0  0  0  0  0
   47.8460   34.2650   39.7820 C   0  0  0  0  0  0  0  0  0  0  0  0
   46.3420   33.8510   40.7330 S   0  0  0  0  0  0  0  0  0  0  0  0
   44.4590   35.9390   44.8510 C   0  0  0  0  0  0  0  0  0  0  0  0
   45.1250   35.9480   43.5980 C   0  0  0  0  0  0  0  0  0  0  0  0
   46.0310   34.9040   43.3610 C   0  0  0  0  0  0  0  0  0  0  0  0
   46.2130   33.9830   44.3020 N   0  0  0  0  0  0  0  0  0  0  0  0
   45.5680   34.0030   45.4770 C   0  0  0  0  0  0  0  0  0  0  0  0
   44.6920   34.9810   45.7490 N   0  0  0  0  0  0  0  0  0  0  0  0
   48.2570   33.8580   38.4120 C   0  0  0  0  0  0  0  0  0  0  0  0
   48.0500   34.4840   37.2870 N   0  0  0  0  0  0  0  0  0  0  0  0
   48.6050   33.7220   36.3640 O   0  0  0  0  0  0  0  0  0  0  0  0
   49.1430   32.6500   36.9060 C   0  0  0  0  0  0  0  0  0  0  0  0
   48.9290   32.7120   38.2480 N   0  0  0  0  0  0  0  0  0  0  0  0
   49.8480   31.5610   36.2540 C   0  0  0  0  0  0  0  0  0  0  0  0
   49.4230   30.6760   35.3090 C   0  0  0  0  0  0  0  0  0  0  0  0
   50.5020   29.8520   35.0440 C   0  0  0  0  0  0  0  0  0  0  0  0
   51.5370   30.2720   35.8400 C   0  0  0  0  0  0  0  0  0  0  0  0
   51.1260   31.2790   36.5420 O   0  0  0  0  0  0  0  0  0  0  0  0
   52.8240   29.7580   35.9310 O   0  0  0  0  0  0  0  0  0  0  0  0
   48.4935   35.9614   42.6169 H   0  0  0  0  0  0  0  0  0  0  0  0
   49.5681   35.5356   40.3925 H   0  0  0  0  0  0  0  0  0  0  0  0
   43.7381   36.7360   45.0856 H   0  0  0  0  0  0  0  0  0  0  0  0
   44.9401   36.7337   42.8507 H   0  0  0  0  0  0  0  0  0  0  0  0
   45.7580   33.2147   46.2203 H   0  0  0  0  0  0  0  0  0  0  0  0
   48.4245   30.6268   34.8500 H   0  0  0  0  0  0  0  0  0  0  0  0
   50.5256   29.0165   34.3289 H   0  0  0  0  0  0  0  0  0  0  0  0
   53.4762   30.1641   36.5553 H   0  0  0  0  0  0  0  0  0  0  0  0
  1  8  1  0
  2  1  2  0
  3  2  1  0
  4  3  2  0
  4  5  1  0
  5  1  1  0
  6 11  2  0
  7  6  1  0
  8  7  2  0
  8  9  1  0
  9 10  2  0
 10 11  1  0
 12  4  1  0
 13 12  2  0
 14 15  1  0
 14 13  1  0
 15 16  2  0
 16 12  1  0
 17 21  1  0
 17 15  1  0
 18 17  2  0
 19 18  1  0
 19 20  2  0
 20 22  1  0
 20 21  1  0
  2 23  1  0
  3 24  1  0
  6 25  1  0
  7 26  1  0
 10 27  1  0
 18 28  1  0
 19 29  1  0
 22 30  1  0
M  ISO  8  23  14  24  14  25  14  26  14  27  14  28  14  29  14  30   3
M  END
>  <minimizedAffinity>  (1) 
-5.84449482

>  <minimizedRMSD>  (1) 
0.0986113995

$$$$
