
     RDKit          3D

 41 44  0  0  0  0  0  0  0  0999 V2000
   46.8060   34.7650   42.1470 C   0  0  0  0  0  0  0  0  0  0  0  0
   47.9810   35.3670   41.8550 C   0  0  0  0  0  0  0  0  0  0  0  0
   48.5770   35.1260   40.6650 C   0  0  0  0  0  0  0  0  0  0  0  0
   47.8730   34.2210   39.8140 C   0  0  0  0  0  0  0  0  0  0  0  0
   46.3910   33.7770   40.7830 S   0  0  0  0  0  0  0  0  0  0  0  0
   44.4460   35.9690   44.8320 C   0  0  0  0  0  0  0  0  0  0  0  0
   45.1270   35.9520   43.6010 C   0  0  0  0  0  0  0  0  0  0  0  0
   46.0320   34.9090   43.3680 C   0  0  0  0  0  0  0  0  0  0  0  0
   46.2050   33.9830   44.3220 N   0  0  0  0  0  0  0  0  0  0  0  0
   45.5410   34.0280   45.4830 C   0  0  0  0  0  0  0  0  0  0  0  0
   44.6700   35.0050   45.7440 N   0  0  0  0  0  0  0  0  0  0  0  0
   48.2870   33.7730   38.4580 C   0  0  0  0  0  0  0  0  0  0  0  0
   47.9430   34.2720   37.2970 N   0  0  0  0  0  0  0  0  0  0  0  0
   48.5670   33.5380   36.4030 O   0  0  0  0  0  0  0  0  0  0  0  0
   49.2770   32.6120   36.9860 C   0  0  0  0  0  0  0  0  0  0  0  0
   49.1160   32.7380   38.3300 N   0  0  0  0  0  0  0  0  0  0  0  0
   50.1210   31.5850   36.3850 C   0  0  0  0  0  0  0  0  0  0  0  0
   49.9050   30.8100   35.2850 C   0  0  0  0  0  0  0  0  0  0  0  0
   51.0350   29.9990   35.1590 C   0  0  0  0  0  0  0  0  0  0  0  0
   51.8780   30.3240   36.1910 C   0  0  0  0  0  0  0  0  0  0  0  0
   51.3170   31.2590   36.8960 O   0  0  0  0  0  0  0  0  0  0  0  0
   53.2060   29.7800   36.5400 C   0  0  0  0  0  0  0  0  0  0  0  0
   54.0690   29.5550   35.3150 C   0  0  0  0  0  0  0  0  0  0  0  0
   53.9780   30.7580   37.4240 C   0  0  0  0  0  0  0  0  0  0  0  0
   53.0440   28.4570   37.2360 C   0  0  0  0  0  0  0  0  0  0  0  0
   48.4492   36.0484   42.5806 H   0  0  0  0  0  0  0  0  0  0  0  0
   49.5306   35.5914   40.3751 H   0  0  0  0  0  0  0  0  0  0  0  0
   43.7278   36.7732   45.0498 H   0  0  0  0  0  0  0  0  0  0  0  0
   44.9541   36.7329   42.8458 H   0  0  0  0  0  0  0  0  0  0  0  0
   45.7163   33.2455   46.2360 H   0  0  0  0  0  0  0  0  0  0  0  0
   49.0212   30.8210   34.6302 H   0  0  0  0  0  0  0  0  0  0  0  0
   51.2148   29.2433   34.3802 H   0  0  0  0  0  0  0  0  0  0  0  0
   55.0891   29.2890   35.6290 H   0  0  0  0  0  0  0  0  0  0  0  0
   53.6456   28.7372   34.7134 H   0  0  0  0  0  0  0  0  0  0  0  0
   54.0988   30.4754   34.7134 H   0  0  0  0  0  0  0  0  0  0  0  0
   53.7915   30.5217   38.4820 H   0  0  0  0  0  0  0  0  0  0  0  0
   55.0542   30.6718   37.2133 H   0  0  0  0  0  0  0  0  0  0  0  0
   53.6442   31.7847   37.2133 H   0  0  0  0  0  0  0  0  0  0  0  0
   53.0628   28.6109   38.3250 H   0  0  0  0  0  0  0  0  0  0  0  0
   52.0838   28.0053   36.9461 H   0  0  0  0  0  0  0  0  0  0  0  0
   53.8668   27.7870   36.9461 H   0  0  0  0  0  0  0  0  0  0  0  0
  1  8  1  0
  2  1  2  0
  3  2  1  0
  4  3  2  0
  4  5  1  0
  5  1  1  0
  6 11  2  0
  7  6  1  0
  8  7  2  0
  8  9  1  0
  9 10  2  0
 10 11  1  0
 12  4  1  0
 13 12  2  0
 14 15  1  0
 14 13  1  0
 15 16  2  0
 16 12  1  0
 17 21  1  0
 17 15  1  0
 18 17  2  0
 19 18  1  0
 19 20  2  0
 20 22  1  0
 20 21  1  0
 22 25  1  0
 22 24  1  0
 23 22  1  0
  2 26  1  0
  3 27  1  0
  6 28  1  0
  7 29  1  0
 10 30  1  0
 18 31  1  0
 19 32  1  0
 23 33  1  0
 23 34  1  0
 23 35  1  0
 24 36  1  0
 24 37  1  0
 24 38  1  0
 25 39  1  0
 25 40  1  0
 25 41  1  0
M  ISO  8  26  14  27  14  28  14  29  14  30  14  31  14  32  14  33   8
M  ISO  8  34   8  35   8  36   8  37   8  38   8  39   8  40   8  41   8
M  END
>  <minimizedAffinity>  (1) 
-5.88462543

>  <minimizedRMSD>  (1) 
0.477703512

$$$$
