
     RDKit          3D

 38 41  0  0  0  0  0  0  0  0999 V2000
   46.7810   34.7800   42.1100 C   0  0  0  0  0  0  0  0  0  0  0  0
   47.9740   35.3560   41.8360 C   0  0  0  0  0  0  0  0  0  0  0  0
   48.5840   35.0990   40.6490 C   0  0  0  0  0  0  0  0  0  0  0  0
   47.8590   34.2120   39.7900 C   0  0  0  0  0  0  0  0  0  0  0  0
   46.3560   33.8060   40.7440 S   0  0  0  0  0  0  0  0  0  0  0  0
   44.4400   36.0470   44.7910 C   0  0  0  0  0  0  0  0  0  0  0  0
   45.1230   36.0220   43.5470 C   0  0  0  0  0  0  0  0  0  0  0  0
   46.0030   34.9500   43.3280 C   0  0  0  0  0  0  0  0  0  0  0  0
   46.1410   34.0410   44.2810 N   0  0  0  0  0  0  0  0  0  0  0  0
   45.4890   34.0780   45.4480 C   0  0  0  0  0  0  0  0  0  0  0  0
   44.6370   35.0850   45.7010 N   0  0  0  0  0  0  0  0  0  0  0  0
   48.2880   33.7630   38.4410 C   0  0  0  0  0  0  0  0  0  0  0  0
   47.9500   34.2500   37.2800 N   0  0  0  0  0  0  0  0  0  0  0  0
   48.5950   33.5110   36.3980 O   0  0  0  0  0  0  0  0  0  0  0  0
   49.3160   32.5870   36.9980 C   0  0  0  0  0  0  0  0  0  0  0  0
   49.1330   32.7290   38.3400 N   0  0  0  0  0  0  0  0  0  0  0  0
   50.1680   31.5750   36.4070 C   0  0  0  0  0  0  0  0  0  0  0  0
   49.9680   30.7790   35.3210 C   0  0  0  0  0  0  0  0  0  0  0  0
   51.1100   29.9910   35.2030 C   0  0  0  0  0  0  0  0  0  0  0  0
   51.9470   30.3520   36.2280 C   0  0  0  0  0  0  0  0  0  0  0  0
   51.3720   31.2800   36.9180 O   0  0  0  0  0  0  0  0  0  0  0  0
   53.2760   29.7340   36.4450 C   0  0  0  0  0  0  0  0  0  0  0  0
   53.8710   29.5190   35.0500 C   0  0  0  0  0  0  0  0  0  0  0  0
   54.1900   30.6220   37.2350 C   0  0  0  0  0  0  0  0  0  0  0  0
   48.4467   36.0271   42.5682 H   0  0  0  0  0  0  0  0  0  0  0  0
   49.5544   35.5362   40.3712 H   0  0  0  0  0  0  0  0  0  0  0  0
   43.7402   36.8669   45.0101 H   0  0  0  0  0  0  0  0  0  0  0  0
   44.9701   36.8055   42.7902 H   0  0  0  0  0  0  0  0  0  0  0  0
   45.6496   33.2881   46.1965 H   0  0  0  0  0  0  0  0  0  0  0  0
   49.0828   30.7617   34.6683 H   0  0  0  0  0  0  0  0  0  0  0  0
   51.3035   29.2267   34.4360 H   0  0  0  0  0  0  0  0  0  0  0  0
   53.1673   28.7996   37.0152 H   0  0  0  0  0  0  0  0  0  0  0  0
   54.9017   29.1466   35.1444 H   0  0  0  0  0  0  0  0  0  0  0  0
   53.2641   28.7833   34.5019 H   0  0  0  0  0  0  0  0  0  0  0  0
   53.8745   30.4727   34.5019 H   0  0  0  0  0  0  0  0  0  0  0  0
   54.0216   30.4584   38.3096 H   0  0  0  0  0  0  0  0  0  0  0  0
   55.2353   30.3854   36.9875 H   0  0  0  0  0  0  0  0  0  0  0  0
   53.9836   31.6737   36.9875 H   0  0  0  0  0  0  0  0  0  0  0  0
  1  8  1  0
  2  1  2  0
  3  2  1  0
  4  3  2  0
  4  5  1  0
  5  1  1  0
  6 11  2  0
  7  6  1  0
  8  7  2  0
  8  9  1  0
  9 10  2  0
 10 11  1  0
 12  4  1  0
 13 12  2  0
 14 15  1  0
 14 13  1  0
 15 16  2  0
 16 12  1  0
 17 21  1  0
 17 15  1  0
 18 17  2  0
 19 18  1  0
 19 20  2  0
 20 22  1  0
 20 21  1  0
 22 24  1  0
 23 22  1  0
  2 25  1  0
  3 26  1  0
  6 27  1  0
  7 28  1  0
 10 29  1  0
 18 30  1  0
 19 31  1  0
 22 32  1  0
 23 33  1  0
 23 34  1  0
 23 35  1  0
 24 36  1  0
 24 37  1  0
 24 38  1  0
M  ISO  8  25  14  26  14  27  14  28  14  29  14  30  14  31  14  32   8
M  ISO  6  33   8  34   8  35   8  36   8  37   8  38   8
M  END
>  <minimizedAffinity>  (1) 
-5.84396839

>  <minimizedRMSD>  (1) 
0.577592731

$$$$
