
     RDKit          3D

 37 41  0  0  0  0  0  0  0  0999 V2000
   48.2870   33.8480   38.3430 C   0  0  0  0  0  0  0  0  0  0  0  0
   48.2020   34.5310   37.2360 N   0  0  0  0  0  0  0  0  0  0  0  0
   48.6830   33.7250   36.3060 O   0  0  0  0  0  0  0  0  0  0  0  0
   49.0550   32.5700   36.8310 C   0  0  0  0  0  0  0  0  0  0  0  0
   48.8050   32.6270   38.1650 N   0  0  0  0  0  0  0  0  0  0  0  0
   46.8350   34.7790   42.0540 C   0  0  0  0  0  0  0  0  0  0  0  0
   48.0300   35.3390   41.8010 C   0  0  0  0  0  0  0  0  0  0  0  0
   48.6240   35.1060   40.5960 C   0  0  0  0  0  0  0  0  0  0  0  0
   47.8850   34.2720   39.7210 C   0  0  0  0  0  0  0  0  0  0  0  0
   46.3810   33.8620   40.6620 S   0  0  0  0  0  0  0  0  0  0  0  0
   44.4760   35.9620   44.7620 C   0  0  0  0  0  0  0  0  0  0  0  0
   45.1470   35.9640   43.5260 C   0  0  0  0  0  0  0  0  0  0  0  0
   46.0560   34.9200   43.2870 C   0  0  0  0  0  0  0  0  0  0  0  0
   46.2420   33.9860   44.2320 N   0  0  0  0  0  0  0  0  0  0  0  0
   45.5720   34.0380   45.3930 C   0  0  0  0  0  0  0  0  0  0  0  0
   44.7050   35.0030   45.6610 N   0  0  0  0  0  0  0  0  0  0  0  0
   49.6290   31.4220   36.1640 C   0  0  0  0  0  0  0  0  0  0  0  0
   49.0470   30.4380   35.4430 C   0  0  0  0  0  0  0  0  0  0  0  0
   50.0830   29.5930   35.0390 C   0  0  0  0  0  0  0  0  0  0  0  0
   51.2480   30.1110   35.5400 C   0  0  0  0  0  0  0  0  0  0  0  0
   50.9510   31.1770   36.1920 O   0  0  0  0  0  0  0  0  0  0  0  0
   52.9040   29.4800   35.3630 S   0  0  0  0  0  0  0  0  0  0  0  0
   53.4270   29.7940   33.6840 C   0  0  0  0  0  0  0  0  0  0  0  0
   54.7770   29.9000   33.3700 C   0  0  0  0  0  0  0  0  0  0  0  0
   54.8790   30.1440   31.9960 C   0  0  0  0  0  0  0  0  0  0  0  0
   53.5990   30.1770   31.5350 N   0  0  0  0  0  0  0  0  0  0  0  0
   52.7440   29.9720   32.5280 N   0  0  0  0  0  0  0  0  0  0  0  0
   48.5206   35.9744   42.5530 H   0  0  0  0  0  0  0  0  0  0  0  0
   49.6009   35.5324   40.3244 H   0  0  0  0  0  0  0  0  0  0  0  0
   43.7542   36.7601   44.9902 H   0  0  0  0  0  0  0  0  0  0  0  0
   44.9675   36.7501   42.7778 H   0  0  0  0  0  0  0  0  0  0  0  0
   45.7480   33.2553   46.1456 H   0  0  0  0  0  0  0  0  0  0  0  0
   47.9757   30.3256   35.2199 H   0  0  0  0  0  0  0  0  0  0  0  0
   49.9823   28.6814   34.4317 H   0  0  0  0  0  0  0  0  0  0  0  0
   55.6156   29.8084   34.0759 H   0  0  0  0  0  0  0  0  0  0  0  0
   55.8006   30.2805   31.4111 H   0  0  0  0  0  0  0  0  0  0  0  0
   53.3319   30.3384   30.5534 H   0  0  0  0  0  0  0  0  0  0  0  0
  1  9  1  0
  2  1  2  0
  3  4  1  0
  3  2  1  0
  4  5  2  0
  5  1  1  0
  6 13  1  0
  7  6  2  0
  8  7  1  0
  9  8  2  0
  9 10  1  0
 10  6  1  0
 11 16  2  0
 12 11  1  0
 13 12  2  0
 13 14  1  0
 14 15  2  0
 15 16  1  0
 17 21  1  0
 17  4  1  0
 18 17  2  0
 19 18  1  0
 19 20  2  0
 20 21  1  0
 22 20  1  0
 23 22  1  0
 24 23  1  0
 25 24  2  0
 26 25  1  0
 26 27  1  0
 27 23  2  0
  7 28  1  0
  8 29  1  0
 11 30  1  0
 12 31  1  0
 15 32  1  0
 18 33  1  0
 19 34  1  0
 24 35  1  0
 25 36  1  0
 26 37  1  0
M  ISO  8  28  14  29  14  30  14  31  14  32  14  33  14  34  14  35  14
M  ISO  2  36  14  37   9
M  END
>  <minimizedAffinity>  (1) 
-6.34326792

>  <minimizedRMSD>  (1) 
0.998226523

$$$$
