
     RDKit          3D

 39 43  0  0  0  0  0  0  0  0999 V2000
   48.2840   33.8750   38.3950 C   0  0  0  0  0  0  0  0  0  0  0  0
   48.1060   34.5310   37.2780 N   0  0  0  0  0  0  0  0  0  0  0  0
   48.6310   33.7510   36.3500 O   0  0  0  0  0  0  0  0  0  0  0  0
   49.1140   32.6540   36.8790 C   0  0  0  0  0  0  0  0  0  0  0  0
   48.9050   32.6970   38.2300 N   0  0  0  0  0  0  0  0  0  0  0  0
   46.8270   34.7830   42.1090 C   0  0  0  0  0  0  0  0  0  0  0  0
   48.0220   35.3460   41.8620 C   0  0  0  0  0  0  0  0  0  0  0  0
   48.6190   35.1210   40.6570 C   0  0  0  0  0  0  0  0  0  0  0  0
   47.8830   34.2930   39.7760 C   0  0  0  0  0  0  0  0  0  0  0  0
   46.3740   33.8750   40.7130 S   0  0  0  0  0  0  0  0  0  0  0  0
   44.4660   35.9310   44.8270 C   0  0  0  0  0  0  0  0  0  0  0  0
   45.1380   35.9440   43.5850 C   0  0  0  0  0  0  0  0  0  0  0  0
   46.0460   34.9170   43.3420 C   0  0  0  0  0  0  0  0  0  0  0  0
   46.2300   33.9860   44.2830 N   0  0  0  0  0  0  0  0  0  0  0  0
   45.5700   34.0130   45.4490 C   0  0  0  0  0  0  0  0  0  0  0  0
   44.6970   34.9720   45.7240 N   0  0  0  0  0  0  0  0  0  0  0  0
   49.7730   31.5380   36.2180 C   0  0  0  0  0  0  0  0  0  0  0  0
   49.5080   30.9460   35.0320 C   0  0  0  0  0  0  0  0  0  0  0  0
   50.4520   29.9240   34.8910 C   0  0  0  0  0  0  0  0  0  0  0  0
   51.2460   29.9490   36.0090 C   0  0  0  0  0  0  0  0  0  0  0  0
   50.8290   30.9010   36.7690 O   0  0  0  0  0  0  0  0  0  0  0  0
   52.6160   28.9000   36.4110 S   0  0  0  0  0  0  0  0  0  0  0  0
   54.1750   29.5720   35.9090 C   0  0  0  0  0  0  0  0  0  0  0  0
   54.6900   29.6560   34.6300 C   0  0  0  0  0  0  0  0  0  0  0  0
   55.9450   30.2270   34.4590 C   0  0  0  0  0  0  0  0  0  0  0  0
   56.6560   30.6940   35.5380 C   0  0  0  0  0  0  0  0  0  0  0  0
   56.1280   30.6020   36.8020 C   0  0  0  0  0  0  0  0  0  0  0  0
   54.9200   30.0480   36.9240 N   0  0  0  0  0  0  0  0  0  0  0  0
   48.5101   35.9775   42.6190 H   0  0  0  0  0  0  0  0  0  0  0  0
   49.5964   35.5495   40.3903 H   0  0  0  0  0  0  0  0  0  0  0  0
   43.7404   36.7248   45.0581 H   0  0  0  0  0  0  0  0  0  0  0  0
   44.9518   36.7324   42.8409 H   0  0  0  0  0  0  0  0  0  0  0  0
   45.7563   33.2240   46.1925 H   0  0  0  0  0  0  0  0  0  0  0  0
   48.7116   31.2138   34.3220 H   0  0  0  0  0  0  0  0  0  0  0  0
   50.5411   29.2299   34.0423 H   0  0  0  0  0  0  0  0  0  0  0  0
   54.1202   29.2798   33.7676 H   0  0  0  0  0  0  0  0  0  0  0  0
   56.3739   30.3060   33.4492 H   0  0  0  0  0  0  0  0  0  0  0  0
   57.6495   31.1421   35.3889 H   0  0  0  0  0  0  0  0  0  0  0  0
   56.6791   30.9705   37.6798 H   0  0  0  0  0  0  0  0  0  0  0  0
  1  9  1  0
  2  1  2  0
  3  4  1  0
  3  2  1  0
  4  5  2  0
  5  1  1  0
  6 13  1  0
  7  6  2  0
  8  7  1  0
  9  8  2  0
  9 10  1  0
 10  6  1  0
 11 16  2  0
 12 11  1  0
 13 12  2  0
 13 14  1  0
 14 15  2  0
 15 16  1  0
 17 21  1  0
 17  4  1  0
 18 17  2  0
 19 18  1  0
 19 20  2  0
 20 22  1  0
 20 21  1  0
 23 22  1  0
 23 28  1  0
 24 23  2  0
 25 24  1  0
 25 26  2  0
 26 27  1  0
 27 28  2  0
  7 29  1  0
  8 30  1  0
 11 31  1  0
 12 32  1  0
 15 33  1  0
 18 34  1  0
 19 35  1  0
 24 36  1  0
 25 37  1  0
 26 38  1  0
 27 39  1  0
M  ISO  8  29  14  30  14  31  14  32  14  33  14  34  14  35  14  36  14
M  ISO  3  37  14  38  14  39  14
M  END
>  <minimizedAffinity>  (1) 
-6.24152708

>  <minimizedRMSD>  (1) 
1.47712433

$$$$
