
     RDKit          3D

 37 41  0  0  0  0  0  0  0  0999 V2000
   48.2830   33.8530   38.3880 C   0  0  0  0  0  0  0  0  0  0  0  0
   48.2170   34.5490   37.2840 N   0  0  0  0  0  0  0  0  0  0  0  0
   48.6980   33.7400   36.3540 O   0  0  0  0  0  0  0  0  0  0  0  0
   49.0490   32.5790   36.8740 C   0  0  0  0  0  0  0  0  0  0  0  0
   48.7840   32.6360   38.1990 N   0  0  0  0  0  0  0  0  0  0  0  0
   46.8020   34.7670   42.0870 C   0  0  0  0  0  0  0  0  0  0  0  0
   47.9940   35.3370   41.8450 C   0  0  0  0  0  0  0  0  0  0  0  0
   48.6050   35.1120   40.6370 C   0  0  0  0  0  0  0  0  0  0  0  0
   47.8730   34.2740   39.7620 C   0  0  0  0  0  0  0  0  0  0  0  0
   46.3750   33.8620   40.7040 S   0  0  0  0  0  0  0  0  0  0  0  0
   44.4680   35.9550   44.8090 C   0  0  0  0  0  0  0  0  0  0  0  0
   45.1310   35.9460   43.5700 C   0  0  0  0  0  0  0  0  0  0  0  0
   46.0300   34.9110   43.3250 C   0  0  0  0  0  0  0  0  0  0  0  0
   46.2190   33.9810   44.2680 N   0  0  0  0  0  0  0  0  0  0  0  0
   45.5640   34.0240   45.4390 C   0  0  0  0  0  0  0  0  0  0  0  0
   44.6990   34.9940   45.7160 N   0  0  0  0  0  0  0  0  0  0  0  0
   49.6150   31.4220   36.2070 C   0  0  0  0  0  0  0  0  0  0  0  0
   49.0280   30.4280   35.5050 C   0  0  0  0  0  0  0  0  0  0  0  0
   50.0660   29.5830   35.0930 C   0  0  0  0  0  0  0  0  0  0  0  0
   51.2300   30.1140   35.5700 C   0  0  0  0  0  0  0  0  0  0  0  0
   50.9440   31.1860   36.2170 O   0  0  0  0  0  0  0  0  0  0  0  0
   52.8900   29.4890   35.3730 S   0  0  0  0  0  0  0  0  0  0  0  0
   53.4820   30.2130   31.5310 N   0  0  0  0  0  0  0  0  0  0  0  0
   52.6480   30.0140   32.5400 N   0  0  0  0  0  0  0  0  0  0  0  0
   53.3560   29.8100   33.6780 C   0  0  0  0  0  0  0  0  0  0  0  0
   54.7160   29.8850   33.3670 C   0  0  0  0  0  0  0  0  0  0  0  0
   54.7480   30.1410   31.9930 C   0  0  0  0  0  0  0  0  0  0  0  0
   48.4728   35.9741   42.6032 H   0  0  0  0  0  0  0  0  0  0  0  0
   49.5803   35.5458   40.3713 H   0  0  0  0  0  0  0  0  0  0  0  0
   43.7522   36.7584   45.0375 H   0  0  0  0  0  0  0  0  0  0  0  0
   44.9463   36.7291   42.8199 H   0  0  0  0  0  0  0  0  0  0  0  0
   45.7476   33.2381   46.1865 H   0  0  0  0  0  0  0  0  0  0  0  0
   47.9542   30.3071   35.2991 H   0  0  0  0  0  0  0  0  0  0  0  0
   49.9630   28.6642   34.4971 H   0  0  0  0  0  0  0  0  0  0  0  0
   53.2094   30.3931   30.5542 H   0  0  0  0  0  0  0  0  0  0  0  0
   55.5702   29.7687   34.0502 H   0  0  0  0  0  0  0  0  0  0  0  0
   55.6576   30.2638   31.3867 H   0  0  0  0  0  0  0  0  0  0  0  0
  1  9  1  0
  2  1  2  0
  3  4  1  0
  3  2  1  0
  4  5  2  0
  5  1  1  0
  6 13  1  0
  7  6  2  0
  8  7  1  0
  9  8  2  0
  9 10  1  0
 10  6  1  0
 11 16  2  0
 12 11  1  0
 13 12  2  0
 13 14  1  0
 14 15  2  0
 15 16  1  0
 17 21  1  0
 17  4  1  0
 18 17  2  0
 19 18  1  0
 19 20  2  0
 20 21  1  0
 22 20  1  0
 23 27  1  0
 23 24  1  0
 24 25  2  0
 25 22  1  0
 26 25  1  0
 27 26  2  0
  7 28  1  0
  8 29  1  0
 11 30  1  0
 12 31  1  0
 15 32  1  0
 18 33  1  0
 19 34  1  0
 23 35  1  0
 26 36  1  0
 27 37  1  0
M  ISO  8  28  14  29  14  30  14  31  14  32  14  33  14  34  14  35   9
M  ISO  2  36  14  37  14
M  END
>  <minimizedAffinity>  (1) 
-6.34280872

>  <minimizedRMSD>  (1) 
0.999119878

$$$$
