
     RDKit          3D

 33 35  0  0  0  0  0  0  0  0999 V2000
   44.4400   36.0190   44.4540 C   0  0  0  0  0  0  0  0  0  0  0  0
   44.3290   35.7380   43.0670 C   0  0  0  0  0  0  0  0  0  0  0  0
   44.7710   34.4710   42.6180 C   0  0  0  0  0  0  0  0  0  0  0  0
   45.2670   33.6150   43.5390 N   0  0  0  0  0  0  0  0  0  0  0  0
   45.3630   33.9000   44.8410 C   0  0  0  0  0  0  0  0  0  0  0  0
   44.9510   35.1000   45.3090 N   0  0  0  0  0  0  0  0  0  0  0  0
   45.8840   33.0110   45.8190 N   0  0  0  0  0  0  0  0  0  0  0  0
   45.6450   32.8480   47.1140 N   0  0  0  0  0  0  0  0  0  0  0  0
   46.4140   31.8530   47.5940 C   0  0  0  0  0  0  0  0  0  0  0  0
   47.1670   31.3710   46.5580 C   0  0  0  0  0  0  0  0  0  0  0  0
   46.8310   32.1130   45.4080 C   0  0  0  0  0  0  0  0  0  0  0  0
   47.5370   31.7500   44.1750 C   0  0  0  0  0  0  0  0  0  0  0  0
   46.6110   31.1330   43.1380 C   0  0  0  0  0  0  0  0  0  0  0  0
   47.5060   30.6170   42.0410 C   0  0  0  0  0  0  0  0  0  0  0  0
   48.0870   31.8340   41.3150 C   0  0  0  0  0  0  0  0  0  0  0  0
   48.8720   32.6610   42.2760 C   0  0  0  0  0  0  0  0  0  0  0  0
   48.0690   33.0070   43.4870 C   0  0  0  0  0  0  0  0  0  0  0  0
   44.1074   36.9941   44.8394 H   0  0  0  0  0  0  0  0  0  0  0  0
   43.9145   36.4782   42.3668 H   0  0  0  0  0  0  0  0  0  0  0  0
   44.7129   34.1922   41.5555 H   0  0  0  0  0  0  0  0  0  0  0  0
   46.4336   31.4920   48.6329 H   0  0  0  0  0  0  0  0  0  0  0  0
   47.9008   30.5534   46.6129 H   0  0  0  0  0  0  0  0  0  0  0  0
   48.3238   31.0459   44.4836 H   0  0  0  0  0  0  0  0  0  0  0  0
   46.0350   30.3077   43.5820 H   0  0  0  0  0  0  0  0  0  0  0  0
   45.8858   31.8667   42.7563 H   0  0  0  0  0  0  0  0  0  0  0  0
   48.3181   30.0125   42.4712 H   0  0  0  0  0  0  0  0  0  0  0  0
   46.9399   29.9819   41.3437 H   0  0  0  0  0  0  0  0  0  0  0  0
   48.7447   31.4953   40.5009 H   0  0  0  0  0  0  0  0  0  0  0  0
   47.2669   32.4372   40.8984 H   0  0  0  0  0  0  0  0  0  0  0  0
   49.7631   32.0965   42.5878 H   0  0  0  0  0  0  0  0  0  0  0  0
   49.1562   33.5968   41.7726 H   0  0  0  0  0  0  0  0  0  0  0  0
   48.7052   33.5606   44.1932 H   0  0  0  0  0  0  0  0  0  0  0  0
   47.2123   33.6214   43.1731 H   0  0  0  0  0  0  0  0  0  0  0  0
  1  6  2  0
  2  1  1  0
  3  2  2  0
  3  4  1  0
  4  5  2  0
  5  6  1  0
  5  7  1  0
  7  8  1  0
  8  9  2  0
 10  9  1  0
 11  7  1  0
 11 10  2  0
 12 11  1  0
 13 12  1  0
 14 13  1  0
 15 14  1  0
 15 16  1  0
 16 17  1  0
 17 12  1  0
  1 18  1  0
  2 19  1  0
  3 20  1  0
  9 21  1  0
 10 22  1  0
 12 23  1  0
 13 24  1  0
 13 25  1  0
 14 26  1  0
 14 27  1  0
 15 28  1  0
 15 29  1  0
 16 30  1  0
 16 31  1  0
 17 32  1  0
 17 33  1  0
M  ISO  8  18  14  19  14  20  14  21  14  22  14  23  13  24  13  25  13
M  ISO  8  26  13  27  13  28  13  29  13  30  13  31  13  32  13  33  13
M  END
>  <minimizedAffinity>  (1) 
-4.43397093

>  <minimizedRMSD>  (1) 
2.00849867

$$$$
