
     RDKit          3D

 17 18  0  0  0  0  0  0  0  0999 V2000
   44.5420   35.7730   44.6600 C   0  0  0  0  0  0  0  0  0  0  0  0
   45.2370   35.6010   43.4460 C   0  0  0  0  0  0  0  0  0  0  0  0
   46.1600   34.5440   43.3810 C   0  0  0  0  0  0  0  0  0  0  0  0
   46.3380   33.7490   44.4770 N   0  0  0  0  0  0  0  0  0  0  0  0
   45.6480   33.9560   45.6190 C   0  0  0  0  0  0  0  0  0  0  0  0
   44.7570   34.9540   45.7180 N   0  0  0  0  0  0  0  0  0  0  0  0
   45.8070   33.1470   46.7800 N   0  0  0  0  0  0  0  0  0  0  0  0
   45.0160   32.8530   47.7980 N   0  0  0  0  0  0  0  0  0  0  0  0
   45.6470   32.0260   48.6570 C   0  0  0  0  0  0  0  0  0  0  0  0
   46.9090   31.7820   48.1560 C   0  0  0  0  0  0  0  0  0  0  0  0
   46.9900   32.5030   46.9660 C   0  0  0  0  0  0  0  0  0  0  0  0
   43.8099   36.5890   44.7506 H   0  0  0  0  0  0  0  0  0  0  0  0
   45.0642   36.2656   42.5867 H   0  0  0  0  0  0  0  0  0  0  0  0
   46.7317   34.3592   42.4596 H   0  0  0  0  0  0  0  0  0  0  0  0
   45.2299   31.6191   49.5900 H   0  0  0  0  0  0  0  0  0  0  0  0
   47.6898   31.1493   48.6032 H   0  0  0  0  0  0  0  0  0  0  0  0
   47.8599   32.5439   46.2940 H   0  0  0  0  0  0  0  0  0  0  0  0
  1  6  2  0
  2  1  1  0
  3  2  2  0
  3  4  1  0
  4  5  2  0
  5  6  1  0
  5  7  1  0
  7 11  1  0
  7  8  1  0
  8  9  2  0
 10  9  1  0
 11 10  2  0
  1 12  1  0
  2 13  1  0
  3 14  1  0
  9 15  1  0
 10 16  1  0
 11 17  1  0
M  ISO  6  12  14  13  14  14  14  15  14  16  14  17  14
M  END
>  <minimizedAffinity>  (1) 
-4.37303877

>  <minimizedRMSD>  (1) 
0.365812778

$$$$
