
     RDKit          3D

 24 26  0  0  0  0  0  0  0  0999 V2000
   44.5570   36.0190   44.5010 C   0  0  0  0  0  0  0  0  0  0  0  0
   44.6930   35.5960   43.1660 C   0  0  0  0  0  0  0  0  0  0  0  0
   45.1400   34.2720   42.9610 C   0  0  0  0  0  0  0  0  0  0  0  0
   45.4160   33.4710   44.0300 N   0  0  0  0  0  0  0  0  0  0  0  0
   45.2620   33.9450   45.2940 C   0  0  0  0  0  0  0  0  0  0  0  0
   44.8380   35.2030   45.5490 N   0  0  0  0  0  0  0  0  0  0  0  0
   45.5410   33.1350   46.4420 N   0  0  0  0  0  0  0  0  0  0  0  0
   45.0630   33.1750   47.6890 N   0  0  0  0  0  0  0  0  0  0  0  0
   45.6100   32.2080   48.4330 C   0  0  0  0  0  0  0  0  0  0  0  0
   46.4720   31.5350   47.6070 C   0  0  0  0  0  0  0  0  0  0  0  0
   46.4400   32.1180   46.3200 C   0  0  0  0  0  0  0  0  0  0  0  0
   47.2900   31.5620   45.2450 C   0  0  0  0  0  0  0  0  0  0  0  0
   46.8530   30.3360   44.5120 C   0  0  0  0  0  0  0  0  0  0  0  0
   47.9020   30.2130   45.5600 C   0  0  0  0  0  0  0  0  0  0  0  0
   44.2119   37.0439   44.7021 H   0  0  0  0  0  0  0  0  0  0  0  0
   44.4624   36.2640   42.3230 H   0  0  0  0  0  0  0  0  0  0  0  0
   45.2657   33.8865   41.9385 H   0  0  0  0  0  0  0  0  0  0  0  0
   45.4089   31.9956   49.4934 H   0  0  0  0  0  0  0  0  0  0  0  0
   47.0921   30.6750   47.9001 H   0  0  0  0  0  0  0  0  0  0  0  0
   47.6339   32.5535   44.9153 H   0  0  0  0  0  0  0  0  0  0  0  0
   45.8503   29.9203   44.6902 H   0  0  0  0  0  0  0  0  0  0  0  0
   46.7857   30.0543   43.4508 H   0  0  0  0  0  0  0  0  0  0  0  0
   48.9430   30.0003   45.2752 H   0  0  0  0  0  0  0  0  0  0  0  0
   48.0284   29.6073   46.4695 H   0  0  0  0  0  0  0  0  0  0  0  0
  1  6  2  0
  2  1  1  0
  3  2  2  0
  3  4  1  0
  4  5  2  0
  5  6  1  0
  5  7  1  0
  7  8  1  0
  8  9  2  0
 10  9  1  0
 11  7  1  0
 11 10  2  0
 12 14  1  0
 12 11  1  0
 13 12  1  0
 13 14  1  0
  1 15  1  0
  2 16  1  0
  3 17  1  0
  9 18  1  0
 10 19  1  0
 12 20  1  0
 13 21  1  0
 13 22  1  0
 14 23  1  0
 14 24  1  0
M  ISO  8  15  14  16  14  17  14  18  14  19  14  20  13  21  13  22  13
M  ISO  2  23  13  24  13
M  END
>  <minimizedAffinity>  (1) 
-4.16945457

>  <minimizedRMSD>  (1) 
1.00112045

$$$$
