
     RDKit          3D

 31 33  0  0  0  0  0  0  0  0999 V2000
   44.8290   35.3020   45.0280 C   0  0  0  0  0  0  0  0  0  0  0  0
   44.8050   36.1980   43.9330 C   0  0  0  0  0  0  0  0  0  0  0  0
   45.5430   35.8360   42.8080 C   0  0  0  0  0  0  0  0  0  0  0  0
   46.2530   34.6630   42.7810 N   0  0  0  0  0  0  0  0  0  0  0  0
   46.2410   33.8410   43.8620 C   0  0  0  0  0  0  0  0  0  0  0  0
   45.5370   34.1460   44.9840 N   0  0  0  0  0  0  0  0  0  0  0  0
   46.9570   32.6120   43.8950 N   0  0  0  0  0  0  0  0  0  0  0  0
   46.7370   31.4680   44.5550 N   0  0  0  0  0  0  0  0  0  0  0  0
   47.7290   30.6010   44.2440 C   0  0  0  0  0  0  0  0  0  0  0  0
   48.6040   31.2250   43.3570 C   0  0  0  0  0  0  0  0  0  0  0  0
   48.0830   32.4990   43.1570 C   0  0  0  0  0  0  0  0  0  0  0  0
   48.8740   33.2590   42.2510 N   0  0  0  0  0  0  0  0  0  0  0  0
   48.9050   33.0420   40.7980 C   0  0  0  0  0  0  0  0  0  0  0  0
   48.2020   34.2630   40.2400 C   0  0  0  0  0  0  0  0  0  0  0  0
   48.6980   35.5060   40.6580 N   0  0  0  0  0  0  0  0  0  0  0  0
   49.2730   35.6600   41.9260 C   0  0  0  0  0  0  0  0  0  0  0  0
   49.7580   34.3930   42.5840 C   0  0  0  0  0  0  0  0  0  0  0  0
   44.2600   35.5489   45.9364 H   0  0  0  0  0  0  0  0  0  0  0  0
   44.2310   37.1357   43.9683 H   0  0  0  0  0  0  0  0  0  0  0  0
   45.5563   36.4993   41.9306 H   0  0  0  0  0  0  0  0  0  0  0  0
   47.8279   29.5748   44.6276 H   0  0  0  0  0  0  0  0  0  0  0  0
   49.5145   30.7998   42.9095 H   0  0  0  0  0  0  0  0  0  0  0  0
   49.9406   32.9835   40.4317 H   0  0  0  0  0  0  0  0  0  0  0  0
   48.4266   32.0985   40.4966 H   0  0  0  0  0  0  0  0  0  0  0  0
   47.1442   34.2064   40.5366 H   0  0  0  0  0  0  0  0  0  0  0  0
   48.3691   34.2289   39.1533 H   0  0  0  0  0  0  0  0  0  0  0  0
   49.4177   35.7800   39.9740 H   0  0  0  0  0  0  0  0  0  0  0  0
   50.1325   36.3393   41.8267 H   0  0  0  0  0  0  0  0  0  0  0  0
   48.4713   36.0452   42.5732 H   0  0  0  0  0  0  0  0  0  0  0  0
   49.7684   34.5341   43.6749 H   0  0  0  0  0  0  0  0  0  0  0  0
   50.7710   34.1704   42.2175 H   0  0  0  0  0  0  0  0  0  0  0  0
  2  1  2  0
  3  2  1  0
  4  3  2  0
  4  5  1  0
  5  7  1  0
  5  6  2  0
  6  1  1  0
  7  8  1  0
  9  8  2  0
 10  9  1  0
 11 10  2  0
 11  7  1  0
 12 17  1  0
 12 11  1  0
 13 12  1  0
 14 15  1  0
 14 13  1  0
 15 16  1  0
 16 17  1  0
  1 18  1  0
  2 19  1  0
  3 20  1  0
  9 21  1  0
 10 22  1  0
 13 23  1  0
 13 24  1  0
 14 25  1  0
 14 26  1  0
 15 27  1  0
 16 28  1  0
 16 29  1  0
 17 30  1  0
 17 31  1  0
M  ISO  8  18  14  19  14  20  14  21  14  22  14  23  13  24  13  25  13
M  ISO  6  26  13  27   5  28  13  29  13  30  13  31  13
M  END
>  <minimizedAffinity>  (1) 
-5.11728287

>  <minimizedRMSD>  (1) 
3.85352254

$$$$
