
     RDKit          3D

 20 21  0  0  0  0  0  0  0  0999 V2000
   44.5060   36.0110   44.4900 C   0  0  0  0  0  0  0  0  0  0  0  0
   44.6540   35.5830   43.1640 C   0  0  0  0  0  0  0  0  0  0  0  0
   45.1340   34.2860   42.9820 C   0  0  0  0  0  0  0  0  0  0  0  0
   45.4390   33.4870   44.0450 N   0  0  0  0  0  0  0  0  0  0  0  0
   45.2710   33.9660   45.3090 C   0  0  0  0  0  0  0  0  0  0  0  0
   44.8100   35.2130   45.5480 N   0  0  0  0  0  0  0  0  0  0  0  0
   45.5690   33.1830   46.4590 N   0  0  0  0  0  0  0  0  0  0  0  0
   45.0760   33.1910   47.6990 N   0  0  0  0  0  0  0  0  0  0  0  0
   45.7200   32.2230   48.4080 C   0  0  0  0  0  0  0  0  0  0  0  0
   46.6350   31.5900   47.6080 C   0  0  0  0  0  0  0  0  0  0  0  0
   46.5130   32.2210   46.3840 C   0  0  0  0  0  0  0  0  0  0  0  0
   47.3560   31.8190   45.2110 C   0  0  0  0  0  0  0  0  0  0  0  0
   44.1311   37.0272   44.6815 H   0  0  0  0  0  0  0  0  0  0  0  0
   44.4053   36.2342   42.3131 H   0  0  0  0  0  0  0  0  0  0  0  0
   45.2693   33.8997   41.9610 H   0  0  0  0  0  0  0  0  0  0  0  0
   45.5335   31.9847   49.4655 H   0  0  0  0  0  0  0  0  0  0  0  0
   47.3126   30.7668   47.8784 H   0  0  0  0  0  0  0  0  0  0  0  0
   48.2945   31.3715   45.5701 H   0  0  0  0  0  0  0  0  0  0  0  0
   46.8094   31.0846   44.6012 H   0  0  0  0  0  0  0  0  0  0  0  0
   47.5826   32.7060   44.6012 H   0  0  0  0  0  0  0  0  0  0  0  0
  1  6  2  0
  2  1  1  0
  3  2  2  0
  3  4  1  0
  4  5  2  0
  5  6  1  0
  5  7  1  0
  7  8  1  0
  8  9  2  0
 10  9  1  0
 11  7  1  0
 11 10  2  0
 12 11  1  0
  1 13  1  0
  2 14  1  0
  3 15  1  0
  9 16  1  0
 10 17  1  0
 12 18  1  0
 12 19  1  0
 12 20  1  0
M  ISO  8  13  14  14  14  15  14  16  14  17  14  18   8  19   8  20   8
M  END
>  <minimizedAffinity>  (1) 
-4.09556103

>  <minimizedRMSD>  (1) 
0.754068255

$$$$
