
     RDKit          3D

 26 27  0  0  0  0  0  0  0  0999 V2000
   44.4310   35.9830   44.4550 C   0  0  0  0  0  0  0  0  0  0  0  0
   44.3040   35.6980   43.0910 C   0  0  0  0  0  0  0  0  0  0  0  0
   44.7490   34.4320   42.6390 C   0  0  0  0  0  0  0  0  0  0  0  0
   45.2730   33.5570   43.5400 N   0  0  0  0  0  0  0  0  0  0  0  0
   45.3760   33.8750   44.8450 C   0  0  0  0  0  0  0  0  0  0  0  0
   44.9590   35.0760   45.2960 N   0  0  0  0  0  0  0  0  0  0  0  0
   45.9130   32.9860   45.8170 N   0  0  0  0  0  0  0  0  0  0  0  0
   45.6960   32.8560   47.1250 N   0  0  0  0  0  0  0  0  0  0  0  0
   46.4560   31.8460   47.5980 C   0  0  0  0  0  0  0  0  0  0  0  0
   47.1840   31.3170   46.5370 C   0  0  0  0  0  0  0  0  0  0  0  0
   46.8270   32.0510   45.4160 C   0  0  0  0  0  0  0  0  0  0  0  0
   47.4960   31.6560   44.1540 C   0  0  0  0  0  0  0  0  0  0  0  0
   48.0390   32.9170   43.4830 C   0  0  0  0  0  0  0  0  0  0  0  0
   46.4890   31.0580   43.1680 C   0  0  0  0  0  0  0  0  0  0  0  0
   44.0963   36.9566   44.8425 H   0  0  0  0  0  0  0  0  0  0  0  0
   43.8734   36.4320   42.3940 H   0  0  0  0  0  0  0  0  0  0  0  0
   44.6723   34.1600   41.5759 H   0  0  0  0  0  0  0  0  0  0  0  0
   46.4934   31.5008   48.6418 H   0  0  0  0  0  0  0  0  0  0  0  0
   47.8999   30.4829   46.5790 H   0  0  0  0  0  0  0  0  0  0  0  0
   48.2818   30.9251   44.3954 H   0  0  0  0  0  0  0  0  0  0  0  0
   48.3494   33.6378   44.2538 H   0  0  0  0  0  0  0  0  0  0  0  0
   48.9042   32.6552   42.8561 H   0  0  0  0  0  0  0  0  0  0  0  0
   47.2543   33.3657   42.8561 H   0  0  0  0  0  0  0  0  0  0  0  0
   45.6735   30.5737   43.7252 H   0  0  0  0  0  0  0  0  0  0  0  0
   46.0764   31.8575   42.5352 H   0  0  0  0  0  0  0  0  0  0  0  0
   46.9936   30.3131   42.5352 H   0  0  0  0  0  0  0  0  0  0  0  0
  1  6  2  0
  2  1  1  0
  3  2  2  0
  3  4  1  0
  4  5  2  0
  5  6  1  0
  5  7  1  0
  7  8  1  0
  8  9  2  0
 10  9  1  0
 11  7  1  0
 11 10  2  0
 12 11  1  0
 13 12  1  0
 14 12  1  0
  1 15  1  0
  2 16  1  0
  3 17  1  0
  9 18  1  0
 10 19  1  0
 12 20  1  0
 13 21  1  0
 13 22  1  0
 13 23  1  0
 14 24  1  0
 14 25  1  0
 14 26  1  0
M  ISO  8  15  14  16  14  17  14  18  14  19  14  20   8  21   8  22   8
M  ISO  4  23   8  24   8  25   8  26   8
M  END
>  <minimizedAffinity>  (1) 
-3.98965335

>  <minimizedRMSD>  (1) 
1.56823289

$$$$
