
     RDKit          3D

 28 29  0  0  1  0  0  0  0  0999 V2000
   44.5890   35.3940   45.5870 C   0  0  0  0  0  0  0  0  0  0  0  0
   44.5050   35.8890   44.2690 C   0  0  0  0  0  0  0  0  0  0  0  0
   45.1000   35.1370   43.2340 C   0  0  0  0  0  0  0  0  0  0  0  0
   45.7110   33.9880   43.5770 N   0  0  0  0  0  0  0  0  0  0  0  0
   45.7840   33.5200   44.8560 C   0  0  0  0  0  0  0  0  0  0  0  0
   45.2230   34.2310   45.8340 N   0  0  0  0  0  0  0  0  0  0  0  0
   46.4460   32.3150   45.1890 N   0  0  0  0  0  0  0  0  0  0  0  0
   47.3170   31.8350   44.2760 C   0  0  0  0  0  0  0  0  0  0  0  0
   47.8360   30.6720   44.8340 C   0  0  0  0  0  0  0  0  0  0  0  0
   47.2770   30.4760   46.0550 N   0  0  0  0  0  0  0  0  0  0  0  0
   46.4260   31.4910   46.2590 C   0  0  0  0  0  0  0  0  0  0  0  0
   45.5840   31.6880   47.4400 C   0  0  2  0  0  0  0  0  0  0  0  0
   46.5160   32.1790   48.5620 C   0  0  0  0  0  0  0  0  0  0  0  0
   44.9870   30.3810   47.8990 C   0  0  0  0  0  0  0  0  0  0  0  0
   45.3820   30.0470   49.2530 N   0  0  0  0  0  0  0  0  0  0  0  0
   44.1359   35.9587   46.4152 H   0  0  0  0  0  0  0  0  0  0  0  0
   43.9892   36.8364   44.0536 H   0  0  0  0  0  0  0  0  0  0  0  0
   45.0658   35.4764   42.1882 H   0  0  0  0  0  0  0  0  0  0  0  0
   47.5640   32.2718   43.2971 H   0  0  0  0  0  0  0  0  0  0  0  0
   48.5811   30.0153   44.3611 H   0  0  0  0  0  0  0  0  0  0  0  0
   44.7726   32.3929   47.2059 H   0  0  0  0  0  0  0  0  0  0  0  0
   46.0691   31.9436   49.5392 H   0  0  0  0  0  0  0  0  0  0  0  0
   47.4911   31.6776   48.4744 H   0  0  0  0  0  0  0  0  0  0  0  0
   46.6539   33.2668   48.4744 H   0  0  0  0  0  0  0  0  0  0  0  0
   43.8905   30.4581   47.8582 H   0  0  0  0  0  0  0  0  0  0  0  0
   45.3562   29.5874   47.2328 H   0  0  0  0  0  0  0  0  0  0  0  0
   44.7829   30.5536   49.9203 H   0  0  0  0  0  0  0  0  0  0  0  0
   45.2789   29.0328   49.4004 H   0  0  0  0  0  0  0  0  0  0  0  0
  1  6  2  0
  2  1  1  0
  3  4  1  0
  3  2  2  0
  4  5  2  0
  5  7  1  0
  5  6  1  0
  7 11  1  0
  8  9  2  0
  8  7  1  0
  9 10  1  0
 10 11  2  0
 11 12  1  0
 12 14  1  0
 12 13  1  0
 14 15  1  0
  1 16  1  0
  2 17  1  0
  3 18  1  0
  8 19  1  0
  9 20  1  0
 12 21  1  6
 13 22  1  0
 13 23  1  0
 13 24  1  0
 14 25  1  0
 14 26  1  0
 15 27  1  0
 15 28  1  0
M  ISO  8  16  14  17  14  18  14  19  14  20  14  21   8  22   8  23   8
M  ISO  5  24   8  25   8  26   8  27   5  28   5
M  END
>  <minimizedAffinity>  (1) 
-4.4348321

>  <minimizedRMSD>  (1) 
0.418235958

$$$$
