
     RDKit          3D

 31 33  0  0  1  0  0  0  0  0999 V2000
   45.0510   34.9630   44.9000 C   0  0  0  0  0  0  0  0  0  0  0  0
   44.5440   35.8060   43.9200 C   0  0  0  0  0  0  0  0  0  0  0  0
   45.0610   35.6980   42.6170 C   0  0  0  0  0  0  0  0  0  0  0  0
   46.0250   34.7670   42.4250 N   0  0  0  0  0  0  0  0  0  0  0  0
   46.5090   33.9650   43.3550 C   0  0  0  0  0  0  0  0  0  0  0  0
   46.0120   34.0720   44.5970 N   0  0  0  0  0  0  0  0  0  0  0  0
   47.5150   33.0050   43.1030 N   0  0  0  0  0  0  0  0  0  0  0  0
   47.7630   31.8380   43.7190 N   0  0  0  0  0  0  0  0  0  0  0  0
   48.8310   31.2680   43.1240 C   0  0  0  0  0  0  0  0  0  0  0  0
   49.2550   32.1050   42.1140 C   0  0  0  0  0  0  0  0  0  0  0  0
   48.4080   33.2170   42.1050 C   0  0  0  0  0  0  0  0  0  0  0  0
   48.6450   34.2650   41.0980 C   0  0  2  0  0  0  0  0  0  0  0  0
   48.7590   35.6040   41.8150 C   0  0  0  0  0  0  0  0  0  0  0  0
   47.5370   34.3500   40.0910 C   0  0  0  0  0  0  0  0  0  0  0  0
   48.2040   33.8330   38.7930 C   0  0  0  0  0  0  0  0  0  0  0  0
   48.3150   34.5920   37.6680 N   0  0  0  0  0  0  0  0  0  0  0  0
   48.9180   33.8360   36.8050 O   0  0  0  0  0  0  0  0  0  0  0  0
   49.2070   32.6640   37.2620 C   0  0  0  0  0  0  0  0  0  0  0  0
   48.7690   32.6170   38.5310 N   0  0  0  0  0  0  0  0  0  0  0  0
   44.6652   35.0241   45.9283 H   0  0  0  0  0  0  0  0  0  0  0  0
   43.7587   36.5389   44.1568 H   0  0  0  0  0  0  0  0  0  0  0  0
   44.7011   36.3364   41.7967 H   0  0  0  0  0  0  0  0  0  0  0  0
   49.2844   30.3037   43.3970 H   0  0  0  0  0  0  0  0  0  0  0  0
   50.1051   31.9297   41.4382 H   0  0  0  0  0  0  0  0  0  0  0  0
   49.5692   34.0139   40.5568 H   0  0  0  0  0  0  0  0  0  0  0  0
   48.7450   35.4399   42.9026 H   0  0  0  0  0  0  0  0  0  0  0  0
   49.7021   36.0934   41.5301 H   0  0  0  0  0  0  0  0  0  0  0  0
   47.9122   36.2457   41.5301 H   0  0  0  0  0  0  0  0  0  0  0  0
   46.6895   33.7116   40.3811 H   0  0  0  0  0  0  0  0  0  0  0  0
   47.1205   35.3631   39.9899 H   0  0  0  0  0  0  0  0  0  0  0  0
   49.7158   31.8563   36.7155 H   0  0  0  0  0  0  0  0  0  0  0  0
  2  1  2  0
  3  2  1  0
  4  3  2  0
  4  5  1  0
  5  6  2  0
  6  1  1  0
  7  5  1  0
  7  8  1  0
  9  8  2  0
 10  9  1  0
 11 10  2  0
 11  7  1  0
 12 13  1  0
 12 11  1  0
 14 12  1  0
 15 14  1  0
 16 15  2  0
 17 18  1  0
 17 16  1  0
 18 19  2  0
 19 15  1  0
  1 20  1  0
  2 21  1  0
  3 22  1  0
  9 23  1  0
 10 24  1  0
 12 25  1  6
 13 26  1  0
 13 27  1  0
 13 28  1  0
 14 29  1  0
 14 30  1  0
 18 31  1  0
M  ISO  8  20  14  21  14  22  14  23  14  24  14  25   8  26   8  27   8
M  ISO  4  28   8  29   8  30   8  31  14
M  END
>  <minimizedAffinity>  (1) 
-5.02150536

>  <minimizedRMSD>  (1) 
3.6641407

$$$$
