
     RDKit          3D

 33 35  0  0  1  0  0  0  0  0999 V2000
   45.0040   35.0540   45.2210 C   0  0  0  0  0  0  0  0  0  0  0  0
   44.6550   36.0050   44.2690 C   0  0  0  0  0  0  0  0  0  0  0  0
   45.2340   35.9000   42.9920 C   0  0  0  0  0  0  0  0  0  0  0  0
   46.0930   34.8730   42.7970 N   0  0  0  0  0  0  0  0  0  0  0  0
   46.4230   33.9710   43.7000 C   0  0  0  0  0  0  0  0  0  0  0  0
   45.8670   34.0740   44.9200 N   0  0  0  0  0  0  0  0  0  0  0  0
   47.3240   32.9090   43.4500 N   0  0  0  0  0  0  0  0  0  0  0  0
   47.4070   31.7040   44.0130 N   0  0  0  0  0  0  0  0  0  0  0  0
   48.4250   31.0310   43.4600 C   0  0  0  0  0  0  0  0  0  0  0  0
   48.9950   31.8510   42.5180 C   0  0  0  0  0  0  0  0  0  0  0  0
   48.2870   33.0570   42.5140 C   0  0  0  0  0  0  0  0  0  0  0  0
   48.6980   34.1120   41.5720 C   0  0  2  0  0  0  0  0  0  0  0  0
   49.1220   35.3390   42.3700 C   0  0  0  0  0  0  0  0  0  0  0  0
   47.5930   34.5060   40.6350 C   0  0  0  0  0  0  0  0  0  0  0  0
   48.0990   34.0090   39.2600 C   0  0  0  0  0  0  0  0  0  0  0  0
   48.3250   32.6890   38.9240 C   0  0  0  0  0  0  0  0  0  0  0  0
   48.7730   32.6910   37.5980 C   0  0  0  0  0  0  0  0  0  0  0  0
   48.7880   34.0240   37.2210 C   0  0  0  0  0  0  0  0  0  0  0  0
   48.3890   34.7650   38.2130 O   0  0  0  0  0  0  0  0  0  0  0  0
   44.5682   35.1064   46.2296 H   0  0  0  0  0  0  0  0  0  0  0  0
   43.9485   36.8138   44.5071 H   0  0  0  0  0  0  0  0  0  0  0  0
   45.0002   36.6171   42.1913 H   0  0  0  0  0  0  0  0  0  0  0  0
   48.7451   30.0097   43.7140 H   0  0  0  0  0  0  0  0  0  0  0  0
   49.8559   31.6034   41.8796 H   0  0  0  0  0  0  0  0  0  0  0  0
   49.5265   33.7170   40.9657 H   0  0  0  0  0  0  0  0  0  0  0  0
   49.0466   35.1209   43.4455 H   0  0  0  0  0  0  0  0  0  0  0  0
   50.1616   35.5976   42.1203 H   0  0  0  0  0  0  0  0  0  0  0  0
   48.4638   36.1842   42.1203 H   0  0  0  0  0  0  0  0  0  0  0  0
   46.6489   34.0127   40.9094 H   0  0  0  0  0  0  0  0  0  0  0  0
   47.3790   35.5849   40.6509 H   0  0  0  0  0  0  0  0  0  0  0  0
   48.1815   31.8104   39.5701 H   0  0  0  0  0  0  0  0  0  0  0  0
   49.0531   31.8207   36.9863 H   0  0  0  0  0  0  0  0  0  0  0  0
   49.0914   34.3991   36.2324 H   0  0  0  0  0  0  0  0  0  0  0  0
  2  1  2  0
  3  2  1  0
  4  3  2  0
  4  5  1  0
  5  6  2  0
  6  1  1  0
  7  5  1  0
  7  8  1  0
  9  8  2  0
 10  9  1  0
 11 10  2  0
 11  7  1  0
 12 13  1  0
 12 11  1  0
 14 12  1  0
 15 14  1  0
 16 15  2  0
 17 16  1  0
 18 17  2  0
 18 19  1  0
 19 15  1  0
  1 20  1  0
  2 21  1  0
  3 22  1  0
  9 23  1  0
 10 24  1  0
 12 25  1  6
 13 26  1  0
 13 27  1  0
 13 28  1  0
 14 29  1  0
 14 30  1  0
 16 31  1  0
 17 32  1  0
 18 33  1  0
M  ISO  8  20  14  21  14  22  14  23  14  24  14  25   8  26   8  27   8
M  ISO  6  28   8  29   8  30   8  31  14  32  14  33  14
M  END
>  <minimizedAffinity>  (1) 
-5.04977226

>  <minimizedRMSD>  (1) 
3.49407458

$$$$
