
     RDKit          3D

 33 35  0  0  1  0  0  0  0  0999 V2000
   44.9460   35.0930   45.2260 C   0  0  0  0  0  0  0  0  0  0  0  0
   44.6490   36.0390   44.2520 C   0  0  0  0  0  0  0  0  0  0  0  0
   45.2710   35.8820   43.0020 C   0  0  0  0  0  0  0  0  0  0  0  0
   46.1050   34.8260   42.8560 N   0  0  0  0  0  0  0  0  0  0  0  0
   46.3760   33.9360   43.7910 C   0  0  0  0  0  0  0  0  0  0  0  0
   45.7890   34.0750   44.9880 N   0  0  0  0  0  0  0  0  0  0  0  0
   47.2560   32.8380   43.5910 N   0  0  0  0  0  0  0  0  0  0  0  0
   47.2800   31.6450   44.1820 N   0  0  0  0  0  0  0  0  0  0  0  0
   48.2930   30.9310   43.6780 C   0  0  0  0  0  0  0  0  0  0  0  0
   48.9240   31.7140   42.7340 C   0  0  0  0  0  0  0  0  0  0  0  0
   48.2520   32.9440   42.6800 C   0  0  0  0  0  0  0  0  0  0  0  0
   48.7220   33.9630   41.7390 C   0  0  2  0  0  0  0  0  0  0  0  0
   49.1340   35.2010   42.5270 C   0  0  0  0  0  0  0  0  0  0  0  0
   47.6800   34.3510   40.7380 C   0  0  0  0  0  0  0  0  0  0  0  0
   48.1930   33.7880   39.3430 C   0  0  0  0  0  0  0  0  0  0  0  0
   48.3500   34.5670   38.2670 C   0  0  0  0  0  0  0  0  0  0  0  0
   48.7950   33.9500   37.1390 C   0  0  0  0  0  0  0  0  0  0  0  0
   49.0530   32.5130   37.2210 C   0  0  0  0  0  0  0  0  0  0  0  0
   48.5940   32.1950   39.0350 S   0  0  0  0  0  0  0  0  0  0  0  0
   44.4783   35.1804   46.2178 H   0  0  0  0  0  0  0  0  0  0  0  0
   43.9588   36.8722   44.4506 H   0  0  0  0  0  0  0  0  0  0  0  0
   45.0881   36.5869   42.1776 H   0  0  0  0  0  0  0  0  0  0  0  0
   48.5718   29.9062   43.9643 H   0  0  0  0  0  0  0  0  0  0  0  0
   49.7978   31.4255   42.1314 H   0  0  0  0  0  0  0  0  0  0  0  0
   49.5697   33.5367   41.1825 H   0  0  0  0  0  0  0  0  0  0  0  0
   49.0638   34.9901   43.6043 H   0  0  0  0  0  0  0  0  0  0  0  0
   50.1700   35.4696   42.2727 H   0  0  0  0  0  0  0  0  0  0  0  0
   48.4656   36.0368   42.2727 H   0  0  0  0  0  0  0  0  0  0  0  0
   46.7106   33.9018   40.9998 H   0  0  0  0  0  0  0  0  0  0  0  0
   47.5329   35.4407   40.7067 H   0  0  0  0  0  0  0  0  0  0  0  0
   48.1318   35.6448   38.2927 H   0  0  0  0  0  0  0  0  0  0  0  0
   48.9540   34.5086   36.2048 H   0  0  0  0  0  0  0  0  0  0  0  0
   49.4113   31.8147   36.4503 H   0  0  0  0  0  0  0  0  0  0  0  0
  2  1  2  0
  3  2  1  0
  4  3  2  0
  4  5  1  0
  5  6  2  0
  6  1  1  0
  7  5  1  0
  7  8  1  0
  9  8  2  0
 10  9  1  0
 11 10  2  0
 11  7  1  0
 12 13  1  0
 12 11  1  0
 14 12  1  0
 15 14  1  0
 16 15  2  0
 17 18  2  0
 17 16  1  0
 18 19  1  0
 19 15  1  0
  1 20  1  0
  2 21  1  0
  3 22  1  0
  9 23  1  0
 10 24  1  0
 12 25  1  6
 13 26  1  0
 13 27  1  0
 13 28  1  0
 14 29  1  0
 14 30  1  0
 16 31  1  0
 17 32  1  0
 18 33  1  0
M  ISO  8  20  14  21  14  22  14  23  14  24  14  25   8  26   8  27   8
M  ISO  6  28   8  29   8  30   8  31  14  32  14  33  14
M  END
>  <minimizedAffinity>  (1) 
-5.00839806

>  <minimizedRMSD>  (1) 
3.23815322

$$$$
