
     RDKit          3D

 35 37  0  0  1  0  0  0  0  0999 V2000
   44.5730   35.9060   44.3040 C   0  0  0  0  0  0  0  0  0  0  0  0
   44.5350   35.3460   43.0330 C   0  0  0  0  0  0  0  0  0  0  0  0
   44.8550   33.9670   42.9180 C   0  0  0  0  0  0  0  0  0  0  0  0
   45.1680   33.3170   44.0620 N   0  0  0  0  0  0  0  0  0  0  0  0
   45.2000   33.8600   45.2620 C   0  0  0  0  0  0  0  0  0  0  0  0
   44.8990   35.1690   45.3820 N   0  0  0  0  0  0  0  0  0  0  0  0
   45.5370   33.1420   46.4310 N   0  0  0  0  0  0  0  0  0  0  0  0
   45.1730   33.3370   47.7040 N   0  0  0  0  0  0  0  0  0  0  0  0
   45.7450   32.4060   48.4770 C   0  0  0  0  0  0  0  0  0  0  0  0
   46.4940   31.6010   47.6560 C   0  0  0  0  0  0  0  0  0  0  0  0
   46.3590   32.0740   46.3460 C   0  0  0  0  0  0  0  0  0  0  0  0
   47.0680   31.3550   45.2690 C   0  0  2  0  0  0  0  0  0  0  0  0
   47.6780   32.3870   44.3280 C   0  0  0  0  0  0  0  0  0  0  0  0
   46.1830   30.4740   44.4570 C   0  0  0  0  0  0  0  0  0  0  0  0
   45.6590   29.2900   45.1830 C   0  0  0  0  0  0  0  0  0  0  0  0
   44.2810   29.1450   45.1520 C   0  0  0  0  0  0  0  0  0  0  0  0
   43.7890   28.0270   45.8390 C   0  0  0  0  0  0  0  0  0  0  0  0
   44.6430   27.1560   46.4850 C   0  0  0  0  0  0  0  0  0  0  0  0
   46.0220   27.3730   46.4680 C   0  0  0  0  0  0  0  0  0  0  0  0
   46.4970   28.4590   45.8020 N   0  0  0  0  0  0  0  0  0  0  0  0
   44.3321   36.9717   44.4316 H   0  0  0  0  0  0  0  0  0  0  0  0
   44.2678   35.9467   42.1511 H   0  0  0  0  0  0  0  0  0  0  0  0
   44.8486   33.4526   41.9457 H   0  0  0  0  0  0  0  0  0  0  0  0
   45.6352   32.3050   49.5668 H   0  0  0  0  0  0  0  0  0  0  0  0
   47.0951   30.7357   47.9722 H   0  0  0  0  0  0  0  0  0  0  0  0
   47.8209   30.7153   45.7527 H   0  0  0  0  0  0  0  0  0  0  0  0
   48.1506   33.1865   44.9174 H   0  0  0  0  0  0  0  0  0  0  0  0
   48.4350   31.9027   43.6937 H   0  0  0  0  0  0  0  0  0  0  0  0
   46.8887   32.8167   43.6937 H   0  0  0  0  0  0  0  0  0  0  0  0
   46.7562   30.1182   43.5881 H   0  0  0  0  0  0  0  0  0  0  0  0
   45.3094   31.0810   44.1769 H   0  0  0  0  0  0  0  0  0  0  0  0
   43.6232   29.8539   44.6278 H   0  0  0  0  0  0  0  0  0  0  0  0
   42.7052   27.8406   45.8638 H   0  0  0  0  0  0  0  0  0  0  0  0
   44.2340   26.2845   47.0171 H   0  0  0  0  0  0  0  0  0  0  0  0
   46.7075   26.6823   46.9809 H   0  0  0  0  0  0  0  0  0  0  0  0
  1  6  2  0
  2  1  1  0
  3  2  2  0
  3  4  1  0
  4  5  2  0
  5  6  1  0
  5  7  1  0
  7  8  1  0
  8  9  2  0
 10  9  1  0
 11  7  1  0
 11 10  2  0
 12 11  1  0
 13 12  1  0
 14 15  1  0
 14 12  1  0
 15 20  1  0
 16 15  2  0
 16 17  1  0
 17 18  2  0
 19 18  1  0
 20 19  2  0
  1 21  1  0
  2 22  1  0
  3 23  1  0
  9 24  1  0
 10 25  1  0
 12 26  1  1
 13 27  1  0
 13 28  1  0
 13 29  1  0
 14 30  1  0
 14 31  1  0
 16 32  1  0
 17 33  1  0
 18 34  1  0
 19 35  1  0
M  ISO  8  21  14  22  14  23  14  24  14  25  14  26   8  27   8  28   8
M  ISO  7  29   8  30   8  31   8  32  14  33  14  34  14  35  14
M  END
>  <minimizedAffinity>  (1) 
-4.24880314

>  <minimizedRMSD>  (1) 
1.34630907

$$$$
