
     RDKit          3D

 37 39  0  0  1  0  0  0  0  0999 V2000
   47.5700   31.8410   43.9990 C   0  0  2  0  0  0  0  0  0  0  0  0
   44.4140   36.0050   44.7250 C   0  0  0  0  0  0  0  0  0  0  0  0
   44.3270   35.8710   43.3300 C   0  0  0  0  0  0  0  0  0  0  0  0
   44.8160   34.6790   42.7630 C   0  0  0  0  0  0  0  0  0  0  0  0
   45.3340   33.7540   43.6080 N   0  0  0  0  0  0  0  0  0  0  0  0
   45.4130   33.8870   44.9180 C   0  0  0  0  0  0  0  0  0  0  0  0
   44.9480   35.0210   45.4700 N   0  0  0  0  0  0  0  0  0  0  0  0
   45.9580   32.8950   45.7610 N   0  0  0  0  0  0  0  0  0  0  0  0
   45.6950   32.6170   47.0410 N   0  0  0  0  0  0  0  0  0  0  0  0
   46.4480   31.5840   47.4350 C   0  0  0  0  0  0  0  0  0  0  0  0
   47.2120   31.2050   46.3580 C   0  0  0  0  0  0  0  0  0  0  0  0
   46.8950   32.0460   45.2880 C   0  0  0  0  0  0  0  0  0  0  0  0
   48.1180   33.1680   43.5110 C   0  0  0  0  0  0  0  0  0  0  0  0
   46.6800   31.2850   42.9380 C   0  0  0  0  0  0  0  0  0  0  0  0
   47.2130   31.3880   41.5920 N   0  0  0  0  0  0  0  0  0  0  0  0
   46.8230   32.2760   40.6320 C   0  0  0  0  0  0  0  0  0  0  0  0
   47.3050   32.4150   39.3510 C   0  0  0  0  0  0  0  0  0  0  0  0
   48.3090   31.5490   38.9870 C   0  0  0  0  0  0  0  0  0  0  0  0
   48.8320   31.6620   37.6730 N   0  0  0  0  0  0  0  0  0  0  0  0
   48.7280   30.6530   39.8990 N   0  0  0  0  0  0  0  0  0  0  0  0
   48.1950   30.5900   41.1320 C   0  0  0  0  0  0  0  0  0  0  0  0
   48.7220   29.6890   41.8260 O   0  0  0  0  0  0  0  0  0  0  0  0
   48.3669   31.1041   44.1776 H   0  0  0  0  0  0  0  0  0  0  0  0
   44.0434   36.9196   45.2110 H   0  0  0  0  0  0  0  0  0  0  0  0
   43.8939   36.6659   42.7051 H   0  0  0  0  0  0  0  0  0  0  0  0
   44.7793   34.5050   41.6775 H   0  0  0  0  0  0  0  0  0  0  0  0
   46.4543   31.1241   48.4342 H   0  0  0  0  0  0  0  0  0  0  0  0
   47.9442   30.3842   46.3409 H   0  0  0  0  0  0  0  0  0  0  0  0
   48.3779   33.7974   44.3749 H   0  0  0  0  0  0  0  0  0  0  0  0
   49.0170   32.9918   42.9020 H   0  0  0  0  0  0  0  0  0  0  0  0
   47.3567   33.6775   42.9020 H   0  0  0  0  0  0  0  0  0  0  0  0
   46.5054   30.2215   43.1582 H   0  0  0  0  0  0  0  0  0  0  0  0
   45.7579   31.8845   42.9566 H   0  0  0  0  0  0  0  0  0  0  0  0
   46.0196   32.9702   40.9195 H   0  0  0  0  0  0  0  0  0  0  0  0
   46.9106   33.1738   38.6591 H   0  0  0  0  0  0  0  0  0  0  0  0
   49.5849   31.0315   37.3624 H   0  0  0  0  0  0  0  0  0  0  0  0
   48.4588   32.3746   37.0297 H   0  0  0  0  0  0  0  0  0  0  0  0
  1 12  1  0
  2  7  2  0
  3  2  1  0
  4  3  2  0
  4  5  1  0
  5  6  2  0
  6  7  1  0
  6  8  1  0
  8  9  1  0
  9 10  2  0
 11 10  1  0
 12  8  1  0
 12 11  2  0
 13  1  1  0
 14  1  1  0
 15 14  1  0
 16 15  1  0
 17 16  2  0
 18 17  1  0
 18 20  2  0
 19 18  1  0
 20 21  1  0
 21 15  1  0
 21 22  2  0
  1 23  1  1
  2 24  1  0
  3 25  1  0
  4 26  1  0
 10 27  1  0
 11 28  1  0
 13 29  1  0
 13 30  1  0
 13 31  1  0
 14 32  1  0
 14 33  1  0
 16 34  1  0
 17 35  1  0
 19 36  1  0
 19 37  1  0
M  ISO  8  23   8  24  14  25  14  26  14  27  14  28  14  29   8  30   8
M  ISO  5  31   8  32   8  33   8  34  14  35  14
M  END
>  <minimizedAffinity>  (1) 
-4.24775362

>  <minimizedRMSD>  (1) 
3.92136312

$$$$
