
     RDKit          3D

 48 52  0  0  1  0  0  0  0  0999 V2000
   44.7580   33.6160   40.9870 N   0  0  0  0  0  0  0  0  0  0  0  0
   43.5380   34.3110   40.5570 C   0  0  0  0  0  0  0  0  0  0  0  0
   42.3850   34.0310   41.4710 C   0  0  0  0  0  0  0  0  0  0  0  0
   42.2000   32.5950   41.5270 N   0  0  0  0  0  0  0  0  0  0  0  0
   43.3460   32.0910   42.2790 C   0  0  0  0  0  0  0  0  0  0  0  0
   44.6520   32.2920   41.5450 C   0  0  1  0  0  0  0  0  0  0  0  0
   46.6040   34.7560   42.0220 C   0  0  0  0  0  0  0  0  0  0  0  0
   47.8990   35.2340   41.9250 C   0  0  0  0  0  0  0  0  0  0  0  0
   48.6650   35.0880   40.7700 C   0  0  0  0  0  0  0  0  0  0  0  0
   48.1080   34.4320   39.6590 C   0  0  0  0  0  0  0  0  0  0  0  0
   46.8250   33.9590   39.7560 C   0  0  0  0  0  0  0  0  0  0  0  0
   46.1120   34.1260   40.9140 C   0  0  0  0  0  0  0  0  0  0  0  0
   44.4560   36.1230   44.7750 C   0  0  0  0  0  0  0  0  0  0  0  0
   45.0760   36.0480   43.5160 C   0  0  0  0  0  0  0  0  0  0  0  0
   45.9080   34.9610   43.2580 C   0  0  0  0  0  0  0  0  0  0  0  0
   46.0790   34.0290   44.2310 N   0  0  0  0  0  0  0  0  0  0  0  0
   45.4550   34.1470   45.4350 C   0  0  0  0  0  0  0  0  0  0  0  0
   44.6480   35.1930   45.6970 N   0  0  0  0  0  0  0  0  0  0  0  0
   44.8460   31.2130   40.5190 C   0  0  0  0  0  0  0  0  0  0  0  0
   45.6340   30.0920   40.5990 C   0  0  0  0  0  0  0  0  0  0  0  0
   45.5370   29.3660   39.4690 N   0  0  0  0  0  0  0  0  0  0  0  0
   44.6830   29.9910   38.6130 C   0  0  0  0  0  0  0  0  0  0  0  0
   44.2620   29.6550   37.3560 C   0  0  0  0  0  0  0  0  0  0  0  0
   43.3750   30.4720   36.6880 C   0  0  0  0  0  0  0  0  0  0  0  0
   42.9270   31.6290   37.3160 C   0  0  0  0  0  0  0  0  0  0  0  0
   43.3770   31.9320   38.5890 C   0  0  0  0  0  0  0  0  0  0  0  0
   44.2640   31.1130   39.2550 C   0  0  0  0  0  0  0  0  0  0  0  0
   43.7300   35.3941   40.5480 H   0  0  0  0  0  0  0  0  0  0  0  0
   43.2738   33.9471   39.5531 H   0  0  0  0  0  0  0  0  0  0  0  0
   42.6025   34.4194   42.4769 H   0  0  0  0  0  0  0  0  0  0  0  0
   41.4731   34.5207   41.0987 H   0  0  0  0  0  0  0  0  0  0  0  0
   41.3204   32.3626   42.0100 H   0  0  0  0  0  0  0  0  0  0  0  0
   43.3970   32.6206   43.2418 H   0  0  0  0  0  0  0  0  0  0  0  0
   43.2043   31.0093   42.4202 H   0  0  0  0  0  0  0  0  0  0  0  0
   45.4734   32.2082   42.2718 H   0  0  0  0  0  0  0  0  0  0  0  0
   48.3401   35.7482   42.7916 H   0  0  0  0  0  0  0  0  0  0  0  0
   49.6916   35.4809   40.7285 H   0  0  0  0  0  0  0  0  0  0  0  0
   48.6878   34.3012   38.7334 H   0  0  0  0  0  0  0  0  0  0  0  0
   46.3657   33.4429   38.9000 H   0  0  0  0  0  0  0  0  0  0  0  0
   43.7961   36.9740   44.9993 H   0  0  0  0  0  0  0  0  0  0  0  0
   44.9090   36.8255   42.7560 H   0  0  0  0  0  0  0  0  0  0  0  0
   45.6121   33.3772   46.2049 H   0  0  0  0  0  0  0  0  0  0  0  0
   46.2574   29.8242   41.4648 H   0  0  0  0  0  0  0  0  0  0  0  0
   46.0295   28.4808   39.2826 H   0  0  0  0  0  0  0  0  0  0  0  0
   44.6303   28.7348   36.8790 H   0  0  0  0  0  0  0  0  0  0  0  0
   43.0280   30.2134   35.6767 H   0  0  0  0  0  0  0  0  0  0  0  0
   42.2199   32.2986   36.8045 H   0  0  0  0  0  0  0  0  0  0  0  0
   43.0185   32.8480   39.0813 H   0  0  0  0  0  0  0  0  0  0  0  0
  1  6  1  0
  2  1  1  0
  2  3  1  0
  3  4  1  0
  4  5  1  0
  6  5  1  0
  7 15  1  0
  8  7  2  0
  9  8  1  0
 10 11  1  0
 10  9  2  0
 11 12  2  0
 12  1  1  0
 12  7  1  0
 13 18  2  0
 14 13  1  0
 15 14  2  0
 15 16  1  0
 16 17  2  0
 17 18  1  0
 19 20  2  0
 19  6  1  0
 21 20  1  0
 22 27  2  0
 22 21  1  0
 23 22  1  0
 24 25  1  0
 24 23  2  0
 25 26  2  0
 26 27  1  0
 27 19  1  0
  2 28  1  0
  2 29  1  0
  3 30  1  0
  3 31  1  0
  4 32  1  0
  5 33  1  0
  5 34  1  0
  6 35  1  1
  8 36  1  0
  9 37  1  0
 10 38  1  0
 11 39  1  0
 13 40  1  0
 14 41  1  0
 17 42  1  0
 20 43  1  0
 21 44  1  0
 23 45  1  0
 24 46  1  0
 25 47  1  0
 26 48  1  0
M  ISO  8  28  13  29  13  30  13  31  13  32   5  33  13  34  13  35  13
M  ISO  8  36  14  37  14  38  14  39  14  40  14  41  14  42  14  43  14
M  ISO  5  44   9  45  14  46  14  47  14  48  14
M  END
>  <minimizedAffinity>  (1) 
-6.01323462

>  <minimizedRMSD>  (1) 
0.811662257

$$$$
