
     RDKit          3D

 33 35  0  0  1  0  0  0  0  0999 V2000
   44.7170   36.0550   44.1890 C   0  0  0  0  0  0  0  0  0  0  0  0
   44.6000   35.5110   42.9170 C   0  0  0  0  0  0  0  0  0  0  0  0
   44.7830   34.1150   42.7840 C   0  0  0  0  0  0  0  0  0  0  0  0
   45.0590   33.4200   43.9110 N   0  0  0  0  0  0  0  0  0  0  0  0
   45.1690   33.9500   45.1190 C   0  0  0  0  0  0  0  0  0  0  0  0
   44.9960   35.2800   45.2560 N   0  0  0  0  0  0  0  0  0  0  0  0
   45.4580   33.1850   46.2750 N   0  0  0  0  0  0  0  0  0  0  0  0
   45.1250   33.3990   47.5550 N   0  0  0  0  0  0  0  0  0  0  0  0
   45.6210   32.4010   48.2990 C   0  0  0  0  0  0  0  0  0  0  0  0
   46.2860   31.5400   47.4530 C   0  0  0  0  0  0  0  0  0  0  0  0
   46.1780   32.0480   46.1580 C   0  0  0  0  0  0  0  0  0  0  0  0
   46.8080   31.2880   45.0580 C   0  0  2  0  0  0  0  0  0  0  0  0
   47.6810   32.2350   44.2580 C   0  0  0  0  0  0  0  0  0  0  0  0
   45.8140   30.6810   44.1330 C   0  0  0  0  0  0  0  0  0  0  0  0
   45.0950   29.5510   44.7050 N   0  0  0  0  0  0  0  0  0  0  0  0
   43.9210   29.3740   44.1320 N   0  0  0  0  0  0  0  0  0  0  0  0
   43.2770   28.3220   44.6800 C   0  0  0  0  0  0  0  0  0  0  0  0
   44.0960   27.8160   45.6480 C   0  0  0  0  0  0  0  0  0  0  0  0
   45.2310   28.5990   45.6480 C   0  0  0  0  0  0  0  0  0  0  0  0
   44.5796   37.1374   44.3285 H   0  0  0  0  0  0  0  0  0  0  0  0
   44.3734   36.1423   42.0452 H   0  0  0  0  0  0  0  0  0  0  0  0
   44.7043   33.6162   41.8067 H   0  0  0  0  0  0  0  0  0  0  0  0
   45.5163   32.2892   49.3883 H   0  0  0  0  0  0  0  0  0  0  0  0
   46.8084   30.6174   47.7462 H   0  0  0  0  0  0  0  0  0  0  0  0
   47.3882   30.4708   45.5113 H   0  0  0  0  0  0  0  0  0  0  0  0
   48.2630   32.8663   44.9455 H   0  0  0  0  0  0  0  0  0  0  0  0
   48.3670   31.6541   43.6240 H   0  0  0  0  0  0  0  0  0  0  0  0
   47.0463   32.8716   43.6240 H   0  0  0  0  0  0  0  0  0  0  0  0
   46.3432   30.3359   43.2325 H   0  0  0  0  0  0  0  0  0  0  0  0
   45.0672   31.4572   43.9097 H   0  0  0  0  0  0  0  0  0  0  0  0
   42.2824   27.9445   44.4002 H   0  0  0  0  0  0  0  0  0  0  0  0
   43.8909   26.9537   46.2995 H   0  0  0  0  0  0  0  0  0  0  0  0
   46.1015   28.4681   46.3076 H   0  0  0  0  0  0  0  0  0  0  0  0
  1  6  2  0
  2  1  1  0
  3  2  2  0
  3  4  1  0
  4  5  2  0
  5  6  1  0
  5  7  1  0
  7  8  1  0
  8  9  2  0
 10  9  1  0
 11  7  1  0
 11 10  2  0
 12 11  1  0
 13 12  1  0
 14 15  1  0
 14 12  1  0
 15 19  1  0
 16 17  2  0
 16 15  1  0
 17 18  1  0
 18 19  2  0
  1 20  1  0
  2 21  1  0
  3 22  1  0
  9 23  1  0
 10 24  1  0
 12 25  1  1
 13 26  1  0
 13 27  1  0
 13 28  1  0
 14 29  1  0
 14 30  1  0
 17 31  1  0
 18 32  1  0
 19 33  1  0
M  ISO  8  20  14  21  14  22  14  23  14  24  14  25   8  26   8  27   8
M  ISO  6  28   8  29   8  30   8  31  14  32  14  33  14
M  END
>  <minimizedAffinity>  (1) 
-3.9648695

>  <minimizedRMSD>  (1) 
1.11035419

$$$$
