
     RDKit          3D

 36 38  0  0  1  0  0  0  0  0999 V2000
   47.5750   31.8350   43.9820 C   0  0  2  0  0  0  0  0  0  0  0  0
   44.4040   35.9960   44.6880 C   0  0  0  0  0  0  0  0  0  0  0  0
   44.3190   35.8570   43.2990 C   0  0  0  0  0  0  0  0  0  0  0  0
   44.8260   34.6670   42.7410 C   0  0  0  0  0  0  0  0  0  0  0  0
   45.3510   33.7640   43.5970 N   0  0  0  0  0  0  0  0  0  0  0  0
   45.4290   33.8970   44.9060 C   0  0  0  0  0  0  0  0  0  0  0  0
   44.9490   35.0250   45.4350 N   0  0  0  0  0  0  0  0  0  0  0  0
   45.9740   32.9150   45.7660 N   0  0  0  0  0  0  0  0  0  0  0  0
   45.7170   32.6560   47.0510 N   0  0  0  0  0  0  0  0  0  0  0  0
   46.4740   31.6200   47.4400 C   0  0  0  0  0  0  0  0  0  0  0  0
   47.2260   31.2180   46.3650 C   0  0  0  0  0  0  0  0  0  0  0  0
   46.9020   32.0520   45.2930 C   0  0  0  0  0  0  0  0  0  0  0  0
   48.1360   33.1530   43.5190 C   0  0  0  0  0  0  0  0  0  0  0  0
   46.6370   31.2630   42.9650 C   0  0  0  0  0  0  0  0  0  0  0  0
   47.4210   31.1980   41.6480 C   0  0  0  0  0  0  0  0  0  0  0  0
   47.0250   31.8720   40.5340 C   0  0  0  0  0  0  0  0  0  0  0  0
   47.6630   31.9090   39.3200 C   0  0  0  0  0  0  0  0  0  0  0  0
   48.8290   31.1800   39.2390 C   0  0  0  0  0  0  0  0  0  0  0  0
   49.2980   30.4710   40.3240 C   0  0  0  0  0  0  0  0  0  0  0  0
   48.5920   30.4890   41.5060 C   0  0  0  0  0  0  0  0  0  0  0  0
   48.3852   31.1012   44.1045 H   0  0  0  0  0  0  0  0  0  0  0  0
   44.0214   36.9074   45.1706 H   0  0  0  0  0  0  0  0  0  0  0  0
   43.8756   36.6427   42.6696 H   0  0  0  0  0  0  0  0  0  0  0  0
   44.7956   34.4817   41.6571 H   0  0  0  0  0  0  0  0  0  0  0  0
   46.4895   31.1713   48.4442 H   0  0  0  0  0  0  0  0  0  0  0  0
   47.9509   30.3908   46.3504 H   0  0  0  0  0  0  0  0  0  0  0  0
   48.3976   33.7675   44.3931 H   0  0  0  0  0  0  0  0  0  0  0  0
   49.0366   32.9755   42.9128 H   0  0  0  0  0  0  0  0  0  0  0  0
   47.3838   33.6790   42.9128 H   0  0  0  0  0  0  0  0  0  0  0  0
   46.3152   30.2555   43.2672 H   0  0  0  0  0  0  0  0  0  0  0  0
   45.7321   31.8800   42.8627 H   0  0  0  0  0  0  0  0  0  0  0  0
   46.0924   32.4496   40.6158 H   0  0  0  0  0  0  0  0  0  0  0  0
   47.2696   32.4827   38.4679 H   0  0  0  0  0  0  0  0  0  0  0  0
   49.3937   31.1635   38.2952 H   0  0  0  0  0  0  0  0  0  0  0  0
   50.2312   29.8939   40.2460 H   0  0  0  0  0  0  0  0  0  0  0  0
   48.9763   29.9184   42.3643 H   0  0  0  0  0  0  0  0  0  0  0  0
  1 12  1  0
  2  7  2  0
  3  2  1  0
  4  3  2  0
  4  5  1  0
  5  6  2  0
  6  7  1  0
  6  8  1  0
  8  9  1  0
  9 10  2  0
 11 10  1  0
 12  8  1  0
 12 11  2  0
 13  1  1  0
 14  1  1  0
 15 14  1  0
 16 15  2  0
 17 16  1  0
 18 17  2  0
 18 19  1  0
 19 20  2  0
 20 15  1  0
  1 21  1  1
  2 22  1  0
  3 23  1  0
  4 24  1  0
 10 25  1  0
 11 26  1  0
 13 27  1  0
 13 28  1  0
 13 29  1  0
 14 30  1  0
 14 31  1  0
 16 32  1  0
 17 33  1  0
 18 34  1  0
 19 35  1  0
 20 36  1  0
M  ISO  8  21   8  22  14  23  14  24  14  25  14  26  14  27   8  28   8
M  ISO  8  29   8  30   8  31   8  32  14  33  14  34  14  35  14  36  14
M  END
>  <minimizedAffinity>  (1) 
-4.06623888

>  <minimizedRMSD>  (1) 
0.602483451

$$$$
