
     RDKit          3D

 36 38  0  0  1  0  0  0  0  0999 V2000
   47.4150   31.5040   44.3270 C   0  0  2  0  0  0  0  0  0  0  0  0
   44.4650   35.8670   44.3370 C   0  0  0  0  0  0  0  0  0  0  0  0
   44.2840   35.4700   43.0180 C   0  0  0  0  0  0  0  0  0  0  0  0
   44.6760   34.1620   42.6790 C   0  0  0  0  0  0  0  0  0  0  0  0
   45.1980   33.3960   43.6700 N   0  0  0  0  0  0  0  0  0  0  0  0
   45.3630   33.7880   44.9200 C   0  0  0  0  0  0  0  0  0  0  0  0
   44.9910   35.0390   45.2610 N   0  0  0  0  0  0  0  0  0  0  0  0
   45.9140   32.9590   45.9220 N   0  0  0  0  0  0  0  0  0  0  0  0
   45.7080   32.9490   47.2480 N   0  0  0  0  0  0  0  0  0  0  0  0
   46.4580   31.9820   47.7940 C   0  0  0  0  0  0  0  0  0  0  0  0
   47.1530   31.3690   46.7770 C   0  0  0  0  0  0  0  0  0  0  0  0
   46.8050   31.9960   45.5770 C   0  0  0  0  0  0  0  0  0  0  0  0
   48.0090   32.6800   43.5810 C   0  0  0  0  0  0  0  0  0  0  0  0
   46.4220   30.8380   43.4280 C   0  0  0  0  0  0  0  0  0  0  0  0
   45.8530   29.5890   44.0120 C   0  0  0  0  0  0  0  0  0  0  0  0
   46.4600   28.4440   44.4990 C   0  0  0  0  0  0  0  0  0  0  0  0
   45.6810   27.4250   44.9890 C   0  0  0  0  0  0  0  0  0  0  0  0
   44.3150   27.4890   45.0190 C   0  0  0  0  0  0  0  0  0  0  0  0
   43.6900   28.6320   44.5330 C   0  0  0  0  0  0  0  0  0  0  0  0
   44.4760   29.6760   44.0320 C   0  0  0  0  0  0  0  0  0  0  0  0
   48.1792   30.7621   44.6019 H   0  0  0  0  0  0  0  0  0  0  0  0
   44.1711   36.8843   44.6350 H   0  0  0  0  0  0  0  0  0  0  0  0
   43.8519   36.1504   42.2694 H   0  0  0  0  0  0  0  0  0  0  0  0
   44.5641   33.7769   41.6547 H   0  0  0  0  0  0  0  0  0  0  0  0
   46.5088   31.7248   48.8623 H   0  0  0  0  0  0  0  0  0  0  0  0
   47.8585   30.5325   46.8886 H   0  0  0  0  0  0  0  0  0  0  0  0
   48.3832   33.4209   44.3028 H   0  0  0  0  0  0  0  0  0  0  0  0
   48.8393   32.3318   42.9491 H   0  0  0  0  0  0  0  0  0  0  0  0
   47.2360   33.1417   42.9491 H   0  0  0  0  0  0  0  0  0  0  0  0
   46.9207   30.5863   42.4804 H   0  0  0  0  0  0  0  0  0  0  0  0
   45.5891   31.5410   43.2797 H   0  0  0  0  0  0  0  0  0  0  0  0
   47.5561   28.3515   44.4934 H   0  0  0  0  0  0  0  0  0  0  0  0
   46.1755   26.5205   45.3730 H   0  0  0  0  0  0  0  0  0  0  0  0
   43.7228   26.6530   45.4196 H   0  0  0  0  0  0  0  0  0  0  0  0
   42.5931   28.7146   44.5422 H   0  0  0  0  0  0  0  0  0  0  0  0
   43.9869   30.5829   43.6469 H   0  0  0  0  0  0  0  0  0  0  0  0
  1 12  1  0
  2  7  2  0
  3  2  1  0
  4  3  2  0
  4  5  1  0
  5  6  2  0
  6  7  1  0
  6  8  1  0
  8  9  1  0
  9 10  2  0
 11 10  1  0
 12  8  1  0
 12 11  2  0
 13  1  1  0
 14 15  1  0
 14  1  1  0
 15 20  1  0
 15 16  2  0
 16 17  1  0
 17 18  2  0
 19 18  1  0
 20 19  2  0
  1 21  1  1
  2 22  1  0
  3 23  1  0
  4 24  1  0
 10 25  1  0
 11 26  1  0
 13 27  1  0
 13 28  1  0
 13 29  1  0
 14 30  1  0
 14 31  1  0
 16 32  1  0
 17 33  1  0
 18 34  1  0
 19 35  1  0
 20 36  1  0
M  ISO  8  21   8  22  14  23  14  24  14  25  14  26  14  27   8  28   8
M  ISO  8  29   8  30   8  31   8  32  14  33  14  34  14  35  14  36  14
M  END
>  <minimizedAffinity>  (1) 
-3.96676493

>  <minimizedRMSD>  (1) 
0.728425026

$$$$
