
     RDKit          3D

 50 54  0  0  1  0  0  0  0  0999 V2000
   45.0180   33.5700   41.0180 N   0  0  0  0  0  0  0  0  0  0  0  0
   43.7830   34.1570   40.4920 C   0  0  0  0  0  0  0  0  0  0  0  0
   42.6010   33.8240   41.3450 C   0  0  0  0  0  0  0  0  0  0  0  0
   42.5170   32.3920   41.4550 N   0  0  0  0  0  0  0  0  0  0  0  0
   43.6510   31.9990   42.2900 C   0  0  0  0  0  0  0  0  0  0  0  0
   44.9950   32.2600   41.6480 C   0  0  1  0  0  0  0  0  0  0  0  0
   46.7530   34.8230   42.1210 C   0  0  0  0  0  0  0  0  0  0  0  0
   48.0100   35.3910   42.0770 C   0  0  0  0  0  0  0  0  0  0  0  0
   48.8170   35.3300   40.9380 C   0  0  0  0  0  0  0  0  0  0  0  0
   48.3400   34.6700   39.7950 C   0  0  0  0  0  0  0  0  0  0  0  0
   47.0970   34.1140   39.8570 C   0  0  0  0  0  0  0  0  0  0  0  0
   46.3310   34.1890   40.9820 C   0  0  0  0  0  0  0  0  0  0  0  0
   44.4310   35.9700   44.8400 C   0  0  0  0  0  0  0  0  0  0  0  0
   45.0960   35.9560   43.6060 C   0  0  0  0  0  0  0  0  0  0  0  0
   46.0110   34.9480   43.3420 C   0  0  0  0  0  0  0  0  0  0  0  0
   46.2180   34.0180   44.3020 N   0  0  0  0  0  0  0  0  0  0  0  0
   45.5560   34.0660   45.4840 C   0  0  0  0  0  0  0  0  0  0  0  0
   44.6670   35.0390   45.7470 N   0  0  0  0  0  0  0  0  0  0  0  0
   45.3320   31.1420   40.7820 C   0  0  0  0  0  0  0  0  0  0  0  0
   45.9950   30.0050   41.1420 C   0  0  0  0  0  0  0  0  0  0  0  0
   46.3100   28.9330   40.3340 C   0  0  0  0  0  0  0  0  0  0  0  0
   45.9220   28.9950   39.0110 C   0  0  0  0  0  0  0  0  0  0  0  0
   45.2480   30.1130   38.5710 C   0  0  0  0  0  0  0  0  0  0  0  0
   44.9000   30.1010   37.2360 C   0  0  0  0  0  0  0  0  0  0  0  0
   44.2270   31.1850   36.7140 C   0  0  0  0  0  0  0  0  0  0  0  0
   43.9170   32.2600   37.5410 C   0  0  0  0  0  0  0  0  0  0  0  0
   44.2930   32.2070   38.8600 C   0  0  0  0  0  0  0  0  0  0  0  0
   44.9600   31.1670   39.4430 C   0  0  0  0  0  0  0  0  0  0  0  0
   43.8971   35.2504   40.4533 H   0  0  0  0  0  0  0  0  0  0  0  0
   43.6078   33.7413   39.4888 H   0  0  0  0  0  0  0  0  0  0  0  0
   42.7254   34.2678   42.3438 H   0  0  0  0  0  0  0  0  0  0  0  0
   41.6813   34.2257   40.8946 H   0  0  0  0  0  0  0  0  0  0  0  0
   41.6297   32.1162   41.8994 H   0  0  0  0  0  0  0  0  0  0  0  0
   43.6006   32.5633   43.2329 H   0  0  0  0  0  0  0  0  0  0  0  0
   43.5744   30.9130   42.4476 H   0  0  0  0  0  0  0  0  0  0  0  0
   45.7945   32.3106   42.4018 H   0  0  0  0  0  0  0  0  0  0  0  0
   48.3897   35.9097   42.9696 H   0  0  0  0  0  0  0  0  0  0  0  0
   49.8144   35.7938   40.9372 H   0  0  0  0  0  0  0  0  0  0  0  0
   48.9481   34.6037   38.8808 H   0  0  0  0  0  0  0  0  0  0  0  0
   46.7010   33.5902   38.9745 H   0  0  0  0  0  0  0  0  0  0  0  0
   43.7035   36.7663   45.0558 H   0  0  0  0  0  0  0  0  0  0  0  0
   44.8944   36.7352   42.8562 H   0  0  0  0  0  0  0  0  0  0  0  0
   45.7502   33.2935   46.2426 H   0  0  0  0  0  0  0  0  0  0  0  0
   46.3133   29.9360   42.1927 H   0  0  0  0  0  0  0  0  0  0  0  0
   46.8507   28.0604   40.7294 H   0  0  0  0  0  0  0  0  0  0  0  0
   46.1465   28.1679   38.3214 H   0  0  0  0  0  0  0  0  0  0  0  0
   45.1552   29.2412   36.5991 H   0  0  0  0  0  0  0  0  0  0  0  0
   43.9376   31.1999   35.6529 H   0  0  0  0  0  0  0  0  0  0  0  0
   43.3810   33.1354   37.1455 H   0  0  0  0  0  0  0  0  0  0  0  0
   44.0379   33.0674   39.4961 H   0  0  0  0  0  0  0  0  0  0  0  0
  1  6  1  0
  2  1  1  0
  2  3  1  0
  3  4  1  0
  4  5  1  0
  6  5  1  0
  7 15  1  0
  8  7  2  0
  9  8  1  0
 10 11  1  0
 10  9  2  0
 11 12  2  0
 12  1  1  0
 12  7  1  0
 13 18  2  0
 14 13  1  0
 15 14  2  0
 15 16  1  0
 16 17  2  0
 17 18  1  0
 19 20  2  0
 19  6  1  0
 21 20  1  0
 22 21  2  0
 23 22  1  0
 23 28  2  0
 24 23  1  0
 25 24  2  0
 25 26  1  0
 26 27  2  0
 27 28  1  0
 28 19  1  0
  2 29  1  0
  2 30  1  0
  3 31  1  0
  3 32  1  0
  4 33  1  0
  5 34  1  0
  5 35  1  0
  6 36  1  1
  8 37  1  0
  9 38  1  0
 10 39  1  0
 11 40  1  0
 13 41  1  0
 14 42  1  0
 17 43  1  0
 20 44  1  0
 21 45  1  0
 22 46  1  0
 24 47  1  0
 25 48  1  0
 26 49  1  0
 27 50  1  0
M  ISO  8  29  13  30  13  31  13  32  13  33   5  34  13  35  13  36  13
M  ISO  8  37  14  38  14  39  14  40  14  41  14  42  14  43  14  44  14
M  ISO  6  45  14  46  14  47  14  48  14  49  14  50  14
M  END
>  <minimizedAffinity>  (1) 
-5.99764156

>  <minimizedRMSD>  (1) 
0.515928209

$$$$
