
     RDKit          3D

 42 44  0  0  1  0  0  0  0  0999 V2000
   47.3130   31.6550   44.5210 C   0  0  2  0  0  0  0  0  0  0  0  0
   44.5170   36.0990   44.0680 C   0  0  0  0  0  0  0  0  0  0  0  0
   44.4370   35.6220   42.7610 C   0  0  0  0  0  0  0  0  0  0  0  0
   44.8100   34.2690   42.5360 C   0  0  0  0  0  0  0  0  0  0  0  0
   45.2040   33.5960   43.6360 N   0  0  0  0  0  0  0  0  0  0  0  0
   45.2860   34.0160   44.8490 C   0  0  0  0  0  0  0  0  0  0  0  0
   44.9320   35.2970   45.0600 N   0  0  0  0  0  0  0  0  0  0  0  0
   45.7160   33.2120   45.9250 N   0  0  0  0  0  0  0  0  0  0  0  0
   45.3750   33.2820   47.2160 N   0  0  0  0  0  0  0  0  0  0  0  0
   46.0360   32.3210   47.8780 C   0  0  0  0  0  0  0  0  0  0  0  0
   46.7950   31.6530   46.9650 C   0  0  0  0  0  0  0  0  0  0  0  0
   46.6080   32.2070   45.7010 C   0  0  0  0  0  0  0  0  0  0  0  0
   47.9160   32.8020   43.7520 C   0  0  0  0  0  0  0  0  0  0  0  0
   46.4120   30.8790   43.6430 C   0  0  0  0  0  0  0  0  0  0  0  0
   45.0100   30.1130   44.4630 S   0  0  0  0  0  0  0  0  0  0  0  0
   46.2940   27.4820   47.8610 N   0  0  0  0  0  0  0  0  0  0  0  0
   45.2250   28.4370   47.7850 C   0  0  0  0  0  0  0  0  0  0  0  0
   44.4110   28.2870   46.5080 C   0  0  0  0  0  0  0  0  0  0  0  0
   45.2670   28.5970   45.3250 C   0  0  0  0  0  0  0  0  0  0  0  0
   46.7290   28.3220   45.6510 C   0  0  0  0  0  0  0  0  0  0  0  0
   46.8320   27.1270   46.5730 C   0  0  0  0  0  0  0  0  0  0  0  0
   48.0926   30.9624   44.8710 H   0  0  0  0  0  0  0  0  0  0  0  0
   44.2380   37.1401   44.2877 H   0  0  0  0  0  0  0  0  0  0  0  0
   44.0987   36.2668   41.9365 H   0  0  0  0  0  0  0  0  0  0  0  0
   44.7795   33.8055   41.5389 H   0  0  0  0  0  0  0  0  0  0  0  0
   45.9764   32.1114   48.9562 H   0  0  0  0  0  0  0  0  0  0  0  0
   47.4562   30.8037   47.1920 H   0  0  0  0  0  0  0  0  0  0  0  0
   48.3090   33.5496   44.4567 H   0  0  0  0  0  0  0  0  0  0  0  0
   48.7346   32.4289   43.1189 H   0  0  0  0  0  0  0  0  0  0  0  0
   47.1446   33.2648   43.1189 H   0  0  0  0  0  0  0  0  0  0  0  0
   47.0039   30.0828   43.1678 H   0  0  0  0  0  0  0  0  0  0  0  0
   45.9886   31.6007   42.9290 H   0  0  0  0  0  0  0  0  0  0  0  0
   47.0512   27.8833   48.4325 H   0  0  0  0  0  0  0  0  0  0  0  0
   44.5591   28.2931   48.6487 H   0  0  0  0  0  0  0  0  0  0  0  0
   45.6698   29.4431   47.7862 H   0  0  0  0  0  0  0  0  0  0  0  0
   44.0402   27.2543   46.4302 H   0  0  0  0  0  0  0  0  0  0  0  0
   43.5607   28.9844   46.5345 H   0  0  0  0  0  0  0  0  0  0  0  0
   44.9094   27.8962   44.5562 H   0  0  0  0  0  0  0  0  0  0  0  0
   47.2778   28.1139   44.7207 H   0  0  0  0  0  0  0  0  0  0  0  0
   47.1624   29.2026   46.1477 H   0  0  0  0  0  0  0  0  0  0  0  0
   46.2599   26.2866   46.1531 H   0  0  0  0  0  0  0  0  0  0  0  0
   47.8854   26.8287   46.6792 H   0  0  0  0  0  0  0  0  0  0  0  0
  1 12  1  0
  2  7  2  0
  3  2  1  0
  4  3  2  0
  4  5  1  0
  5  6  2  0
  6  7  1  0
  6  8  1  0
  8  9  1  0
  9 10  2  0
 11 10  1  0
 12  8  1  0
 12 11  2  0
 13  1  1  0
 14 15  1  0
 14  1  1  0
 15 19  1  0
 17 16  1  0
 18 17  1  0
 19 20  1  0
 19 18  1  0
 20 21  1  0
 21 16  1  0
  1 22  1  1
  2 23  1  0
  3 24  1  0
  4 25  1  0
 10 26  1  0
 11 27  1  0
 13 28  1  0
 13 29  1  0
 13 30  1  0
 14 31  1  0
 14 32  1  0
 16 33  1  0
 17 34  1  0
 17 35  1  0
 18 36  1  0
 18 37  1  0
 19 38  1  0
 20 39  1  0
 20 40  1  0
 21 41  1  0
 21 42  1  0
M  ISO  8  22   8  23  14  24  14  25  14  26  14  27  14  28   8  29   8
M  ISO  8  30   8  31   8  32   8  33   5  34  13  35  13  36  13  37  13
M  ISO  5  38  13  39  13  40  13  41  13  42  13
M  END
>  <minimizedAffinity>  (1) 
-4.32555103

>  <minimizedRMSD>  (1) 
1.38478482

$$$$
