
     RDKit          3D

 34 36  0  0  1  0  0  0  0  0999 V2000
   44.5790   35.9350   44.4910 C   0  0  0  0  0  0  0  0  0  0  0  0
   44.3620   35.5860   43.1610 C   0  0  0  0  0  0  0  0  0  0  0  0
   44.6500   34.2560   42.7740 C   0  0  0  0  0  0  0  0  0  0  0  0
   45.1130   33.4630   43.7720 N   0  0  0  0  0  0  0  0  0  0  0  0
   45.3220   33.7640   45.0070 C   0  0  0  0  0  0  0  0  0  0  0  0
   45.0460   35.0270   45.3660 N   0  0  0  0  0  0  0  0  0  0  0  0
   45.8050   32.8560   45.9580 N   0  0  0  0  0  0  0  0  0  0  0  0
   45.5910   32.8210   47.2850 N   0  0  0  0  0  0  0  0  0  0  0  0
   46.2460   31.7750   47.7950 C   0  0  0  0  0  0  0  0  0  0  0  0
   46.8800   31.1460   46.7650 C   0  0  0  0  0  0  0  0  0  0  0  0
   46.6090   31.8300   45.5700 C   0  0  0  0  0  0  0  0  0  0  0  0
   47.1620   31.3700   44.2780 C   0  0  2  0  0  0  0  0  0  0  0  0
   47.8940   32.5010   43.6230 C   0  0  0  0  0  0  0  0  0  0  0  0
   46.1610   30.8240   43.3700 C   0  0  0  0  0  0  0  0  0  0  0  0
   45.5710   29.1510   43.8170 S   0  0  0  0  0  0  0  0  0  0  0  0
   44.0000   28.9690   44.2330 C   0  0  0  0  0  0  0  0  0  0  0  0
   43.1590   28.4950   45.2420 C   0  0  0  0  0  0  0  0  0  0  0  0
   41.7970   28.5410   45.1810 C   0  0  0  0  0  0  0  0  0  0  0  0
   41.2080   29.1310   43.9650 C   0  0  0  0  0  0  0  0  0  0  0  0
   42.7680   29.5870   42.9780 S   0  0  0  0  0  0  0  0  0  0  0  0
   44.3671   36.9603   44.8284 H   0  0  0  0  0  0  0  0  0  0  0  0
   43.9796   36.3193   42.4357 H   0  0  0  0  0  0  0  0  0  0  0  0
   44.5095   33.8937   41.7449 H   0  0  0  0  0  0  0  0  0  0  0  0
   46.2697   31.4755   48.8532 H   0  0  0  0  0  0  0  0  0  0  0  0
   47.5048   30.2453   46.8561 H   0  0  0  0  0  0  0  0  0  0  0  0
   47.8485   30.5402   44.5018 H   0  0  0  0  0  0  0  0  0  0  0  0
   48.3196   33.1585   44.3954 H   0  0  0  0  0  0  0  0  0  0  0  0
   48.7040   32.0995   42.9963 H   0  0  0  0  0  0  0  0  0  0  0  0
   47.1960   33.0755   42.9963 H   0  0  0  0  0  0  0  0  0  0  0  0
   46.5994   30.7767   42.3622 H   0  0  0  0  0  0  0  0  0  0  0  0
   45.2881   31.4910   43.4259 H   0  0  0  0  0  0  0  0  0  0  0  0
   43.6223   28.0587   46.1392 H   0  0  0  0  0  0  0  0  0  0  0  0
   41.1693   28.1569   45.9986 H   0  0  0  0  0  0  0  0  0  0  0  0
   40.1496   29.2701   43.6998 H   0  0  0  0  0  0  0  0  0  0  0  0
  1  6  2  0
  2  1  1  0
  3  2  2  0
  3  4  1  0
  4  5  2  0
  5  6  1  0
  5  7  1  0
  7  8  1  0
  8  9  2  0
 10  9  1  0
 11  7  1  0
 11 10  2  0
 12 11  1  0
 13 12  1  0
 14 15  1  0
 14 12  1  0
 15 16  1  0
 16 17  2  0
 18 17  1  0
 19 18  2  0
 20 19  1  0
 20 16  1  0
  1 21  1  0
  2 22  1  0
  3 23  1  0
  9 24  1  0
 10 25  1  0
 12 26  1  1
 13 27  1  0
 13 28  1  0
 13 29  1  0
 14 30  1  0
 14 31  1  0
 17 32  1  0
 18 33  1  0
 19 34  1  0
M  ISO  8  21  14  22  14  23  14  24  14  25  14  26   8  27   8  28   8
M  ISO  6  29   8  30   8  31   8  32  14  33  14  34  14
M  END
>  <minimizedAffinity>  (1) 
-4.21741104

>  <minimizedRMSD>  (1) 
1.37580073

$$$$
