
     RDKit          3D

 40 42  0  0  1  0  0  0  0  0999 V2000
   44.5060   36.0600   44.0790 C   0  0  0  0  0  0  0  0  0  0  0  0
   44.3930   35.5640   42.7820 C   0  0  0  0  0  0  0  0  0  0  0  0
   44.7480   34.2060   42.5600 C   0  0  0  0  0  0  0  0  0  0  0  0
   45.1670   33.5410   43.6650 N   0  0  0  0  0  0  0  0  0  0  0  0
   45.2800   33.9740   44.8690 C   0  0  0  0  0  0  0  0  0  0  0  0
   44.9400   35.2670   45.0790 N   0  0  0  0  0  0  0  0  0  0  0  0
   45.7350   33.2010   45.9400 N   0  0  0  0  0  0  0  0  0  0  0  0
   45.4390   33.2790   47.2450 N   0  0  0  0  0  0  0  0  0  0  0  0
   46.1010   32.3320   47.9120 C   0  0  0  0  0  0  0  0  0  0  0  0
   46.8390   31.6470   46.9940 C   0  0  0  0  0  0  0  0  0  0  0  0
   46.6230   32.1830   45.7230 C   0  0  0  0  0  0  0  0  0  0  0  0
   47.2880   31.6110   44.5230 C   0  0  2  0  0  0  0  0  0  0  0  0
   47.9200   32.7420   43.7480 C   0  0  0  0  0  0  0  0  0  0  0  0
   46.3600   30.8530   43.6660 C   0  0  0  0  0  0  0  0  0  0  0  0
   45.1040   29.9220   44.5770 S   0  0  0  0  0  0  0  0  0  0  0  0
   45.6370   28.3580   45.2410 C   0  0  0  0  0  0  0  0  0  0  0  0
   44.6190   27.9230   46.3020 C   0  0  0  0  0  0  0  0  0  0  0  0
   45.4350   28.2780   47.5530 C   0  0  0  0  0  0  0  0  0  0  0  0
   46.7720   27.6670   47.2060 C   0  0  0  0  0  0  0  0  0  0  0  0
   46.9900   28.2360   45.7920 C   0  0  0  0  0  0  0  0  0  0  0  0
   44.2391   37.1064   44.2886 H   0  0  0  0  0  0  0  0  0  0  0  0
   44.0410   36.2018   41.9578 H   0  0  0  0  0  0  0  0  0  0  0  0
   44.6876   33.7315   41.5695 H   0  0  0  0  0  0  0  0  0  0  0  0
   46.0591   32.1410   48.9945 H   0  0  0  0  0  0  0  0  0  0  0  0
   47.5039   30.8003   47.2199 H   0  0  0  0  0  0  0  0  0  0  0  0
   48.0516   30.8929   44.8566 H   0  0  0  0  0  0  0  0  0  0  0  0
   48.3332   33.4814   44.4498 H   0  0  0  0  0  0  0  0  0  0  0  0
   48.7277   32.3462   43.1148 H   0  0  0  0  0  0  0  0  0  0  0  0
   47.1596   33.2224   43.1148 H   0  0  0  0  0  0  0  0  0  0  0  0
   45.8479   31.5626   42.9995 H   0  0  0  0  0  0  0  0  0  0  0  0
   46.9654   30.1158   43.1183 H   0  0  0  0  0  0  0  0  0  0  0  0
   45.6883   27.7067   44.3560 H   0  0  0  0  0  0  0  0  0  0  0  0
   43.6832   28.4978   46.2398 H   0  0  0  0  0  0  0  0  0  0  0  0
   44.2728   26.8810   46.2353 H   0  0  0  0  0  0  0  0  0  0  0  0
   45.5115   29.3667   47.6902 H   0  0  0  0  0  0  0  0  0  0  0  0
   45.0010   27.9150   48.4963 H   0  0  0  0  0  0  0  0  0  0  0  0
   47.5596   27.9950   47.9004 H   0  0  0  0  0  0  0  0  0  0  0  0
   46.8003   26.5689   47.2648 H   0  0  0  0  0  0  0  0  0  0  0  0
   47.5981   27.5495   45.1847 H   0  0  0  0  0  0  0  0  0  0  0  0
   47.5289   29.1949   45.8021 H   0  0  0  0  0  0  0  0  0  0  0  0
  1  6  2  0
  2  1  1  0
  3  2  2  0
  3  4  1  0
  4  5  2  0
  5  6  1  0
  5  7  1  0
  7  8  1  0
  8  9  2  0
 10  9  1  0
 11  7  1  0
 11 10  2  0
 12 11  1  0
 13 12  1  0
 14 12  1  0
 14 15  1  0
 15 16  1  0
 16 20  1  0
 16 17  1  0
 17 18  1  0
 19 18  1  0
 20 19  1  0
  1 21  1  0
  2 22  1  0
  3 23  1  0
  9 24  1  0
 10 25  1  0
 12 26  1  1
 13 27  1  0
 13 28  1  0
 13 29  1  0
 14 30  1  0
 14 31  1  0
 16 32  1  0
 17 33  1  0
 17 34  1  0
 18 35  1  0
 18 36  1  0
 19 37  1  0
 19 38  1  0
 20 39  1  0
 20 40  1  0
M  ISO  8  21  14  22  14  23  14  24  14  25  14  26   8  27   8  28   8
M  ISO  8  29   8  30   8  31   8  32  13  33  13  34  13  35  13  36  13
M  ISO  4  37  13  38  13  39  13  40  13
M  END
>  <minimizedAffinity>  (1) 
-4.0587492

>  <minimizedRMSD>  (1) 
1.64548039

$$$$
