
     RDKit          3D

 34 36  0  0  1  0  0  0  0  0999 V2000
   44.4610   35.8840   44.3280 C   0  0  0  0  0  0  0  0  0  0  0  0
   44.2680   35.4420   43.0040 C   0  0  0  0  0  0  0  0  0  0  0  0
   44.6620   34.1210   42.7010 C   0  0  0  0  0  0  0  0  0  0  0  0
   45.1870   33.4190   43.7250 N   0  0  0  0  0  0  0  0  0  0  0  0
   45.3750   33.8070   44.9480 C   0  0  0  0  0  0  0  0  0  0  0  0
   45.0040   35.0570   45.2530 N   0  0  0  0  0  0  0  0  0  0  0  0
   45.9440   32.9920   45.9370 N   0  0  0  0  0  0  0  0  0  0  0  0
   45.7310   33.0110   47.2610 N   0  0  0  0  0  0  0  0  0  0  0  0
   46.4900   32.0400   47.8140 C   0  0  0  0  0  0  0  0  0  0  0  0
   47.1740   31.4230   46.8120 C   0  0  0  0  0  0  0  0  0  0  0  0
   46.8380   32.0210   45.5990 C   0  0  0  0  0  0  0  0  0  0  0  0
   47.4120   31.5450   44.3150 C   0  0  2  0  0  0  0  0  0  0  0  0
   48.0210   32.7070   43.5910 C   0  0  0  0  0  0  0  0  0  0  0  0
   46.4330   30.8380   43.4580 C   0  0  0  0  0  0  0  0  0  0  0  0
   45.9280   29.2350   44.1010 S   0  0  0  0  0  0  0  0  0  0  0  0
   44.4100   29.0930   44.9650 C   0  0  0  0  0  0  0  0  0  0  0  0
   44.5110   29.0380   46.4970 C   0  0  0  0  0  0  0  0  0  0  0  0
   44.0270   27.8770   45.7250 C   0  0  0  0  0  0  0  0  0  0  0  0
   44.1692   36.9059   44.6118 H   0  0  0  0  0  0  0  0  0  0  0  0
   43.8287   36.0989   42.2388 H   0  0  0  0  0  0  0  0  0  0  0  0
   44.5480   33.6921   41.6945 H   0  0  0  0  0  0  0  0  0  0  0  0
   46.5454   31.7920   48.8842 H   0  0  0  0  0  0  0  0  0  0  0  0
   47.8781   30.5875   46.9391 H   0  0  0  0  0  0  0  0  0  0  0  0
   48.1850   30.7993   44.5527 H   0  0  0  0  0  0  0  0  0  0  0  0
   48.4026   33.4352   44.3218 H   0  0  0  0  0  0  0  0  0  0  0  0
   48.8492   32.3525   42.9598 H   0  0  0  0  0  0  0  0  0  0  0  0
   47.2582   33.1864   42.9598 H   0  0  0  0  0  0  0  0  0  0  0  0
   46.8854   30.6870   42.4668 H   0  0  0  0  0  0  0  0  0  0  0  0
   45.5305   31.4656   43.4182 H   0  0  0  0  0  0  0  0  0  0  0  0
   43.8967   29.6825   44.1910 H   0  0  0  0  0  0  0  0  0  0  0  0
   45.4962   29.0053   46.9852 H   0  0  0  0  0  0  0  0  0  0  0  0
   44.1225   29.6421   47.3301 H   0  0  0  0  0  0  0  0  0  0  0  0
   42.9677   27.5870   45.7874 H   0  0  0  0  0  0  0  0  0  0  0  0
   44.3241   26.8192   45.6716 H   0  0  0  0  0  0  0  0  0  0  0  0
  1  6  2  0
  2  1  1  0
  3  2  2  0
  3  4  1  0
  4  5  2  0
  5  6  1  0
  5  7  1  0
  7  8  1  0
  8  9  2  0
 10  9  1  0
 11  7  1  0
 11 10  2  0
 12 11  1  0
 13 12  1  0
 14 15  1  0
 14 12  1  0
 15 16  1  0
 16 18  1  0
 16 17  1  0
 18 17  1  0
  1 19  1  0
  2 20  1  0
  3 21  1  0
  9 22  1  0
 10 23  1  0
 12 24  1  1
 13 25  1  0
 13 26  1  0
 13 27  1  0
 14 28  1  0
 14 29  1  0
 16 30  1  0
 17 31  1  0
 17 32  1  0
 18 33  1  0
 18 34  1  0
M  ISO  8  19  14  20  14  21  14  22  14  23  14  24   8  25   8  26   8
M  ISO  8  27   8  28   8  29   8  30  13  31  13  32  13  33  13  34  13
M  END
>  <minimizedAffinity>  (1) 
-3.94093943

>  <minimizedRMSD>  (1) 
0.669916272

$$$$
