
     RDKit          3D

 45 48  0  0  1  0  0  0  0  0999 V2000
   44.7900   33.7590   40.9750 N   0  0  0  0  0  0  0  0  0  0  0  0
   43.5930   34.5490   40.6400 C   0  0  0  0  0  0  0  0  0  0  0  0
   42.4320   34.1960   41.5370 C   0  0  0  0  0  0  0  0  0  0  0  0
   42.1930   32.7770   41.4380 N   0  0  0  0  0  0  0  0  0  0  0  0
   43.3350   32.1290   42.0770 C   0  0  0  0  0  0  0  0  0  0  0  0
   44.6410   32.3770   41.3830 C   0  0  1  0  0  0  0  0  0  0  0  0
   46.6540   34.8050   42.0780 C   0  0  0  0  0  0  0  0  0  0  0  0
   47.9590   35.2540   42.0390 C   0  0  0  0  0  0  0  0  0  0  0  0
   48.7440   35.1280   40.8810 C   0  0  0  0  0  0  0  0  0  0  0  0
   48.1910   34.5330   39.7380 C   0  0  0  0  0  0  0  0  0  0  0  0
   46.8880   34.0930   39.8000 C   0  0  0  0  0  0  0  0  0  0  0  0
   46.1590   34.2330   40.9420 C   0  0  0  0  0  0  0  0  0  0  0  0
   44.4630   36.1140   44.8430 C   0  0  0  0  0  0  0  0  0  0  0  0
   45.1070   36.0600   43.5990 C   0  0  0  0  0  0  0  0  0  0  0  0
   45.9300   34.9840   43.3250 C   0  0  0  0  0  0  0  0  0  0  0  0
   46.0860   34.0210   44.2690 N   0  0  0  0  0  0  0  0  0  0  0  0
   45.4440   34.1060   45.4680 C   0  0  0  0  0  0  0  0  0  0  0  0
   44.6410   35.1490   45.7440 N   0  0  0  0  0  0  0  0  0  0  0  0
   44.7920   31.4370   40.2880 N   0  0  0  0  0  0  0  0  0  0  0  0
   45.5540   30.3350   40.4130 C   0  0  0  0  0  0  0  0  0  0  0  0
   45.7250   29.4170   39.4010 C   0  0  0  0  0  0  0  0  0  0  0  0
   45.0960   29.6190   38.2030 C   0  0  0  0  0  0  0  0  0  0  0  0
   45.2440   28.7040   37.1410 N   0  0  0  0  0  0  0  0  0  0  0  0
   44.3440   30.7060   38.0790 N   0  0  0  0  0  0  0  0  0  0  0  0
   44.2010   31.5770   39.0860 C   0  0  0  0  0  0  0  0  0  0  0  0
   43.4720   32.5840   38.8940 O   0  0  0  0  0  0  0  0  0  0  0  0
   43.8248   35.6178   40.7584 H   0  0  0  0  0  0  0  0  0  0  0  0
   43.3091   34.3241   39.6013 H   0  0  0  0  0  0  0  0  0  0  0  0
   42.6730   34.4601   42.5773 H   0  0  0  0  0  0  0  0  0  0  0  0
   41.5344   34.7521   41.2286 H   0  0  0  0  0  0  0  0  0  0  0  0
   41.3209   32.5264   41.9254 H   0  0  0  0  0  0  0  0  0  0  0  0
   43.4139   32.5043   43.1080 H   0  0  0  0  0  0  0  0  0  0  0  0
   43.1518   31.0452   42.0349 H   0  0  0  0  0  0  0  0  0  0  0  0
   45.4630   32.2027   42.0929 H   0  0  0  0  0  0  0  0  0  0  0  0
   48.3938   35.7210   42.9350 H   0  0  0  0  0  0  0  0  0  0  0  0
   49.7819   35.4923   40.8709 H   0  0  0  0  0  0  0  0  0  0  0  0
   48.7821   34.4209   38.8171 H   0  0  0  0  0  0  0  0  0  0  0  0
   46.4303   33.6229   38.9171 H   0  0  0  0  0  0  0  0  0  0  0  0
   43.8035   36.9625   45.0777 H   0  0  0  0  0  0  0  0  0  0  0  0
   44.9603   36.8578   42.8560 H   0  0  0  0  0  0  0  0  0  0  0  0
   45.5840   33.3134   46.2178 H   0  0  0  0  0  0  0  0  0  0  0  0
   46.0655   30.1588   41.3708 H   0  0  0  0  0  0  0  0  0  0  0  0
   46.3598   28.5318   39.5540 H   0  0  0  0  0  0  0  0  0  0  0  0
   44.7631   28.8719   36.2458 H   0  0  0  0  0  0  0  0  0  0  0  0
   45.8331   27.8675   37.2602 H   0  0  0  0  0  0  0  0  0  0  0  0
  1  6  1  0
  2  1  1  0
  2  3  1  0
  4  3  1  0
  4  5  1  0
  6  5  1  0
  7 15  1  0
  8  7  2  0
  9  8  1  0
 10 11  1  0
 10  9  2  0
 11 12  2  0
 12  1  1  0
 12  7  1  0
 13 18  2  0
 14 13  1  0
 15 14  2  0
 15 16  1  0
 16 17  2  0
 17 18  1  0
 19 20  1  0
 19  6  1  0
 21 20  2  0
 22 21  1  0
 23 22  1  0
 24 22  2  0
 24 25  1  0
 25 19  1  0
 26 25  2  0
  2 27  1  0
  2 28  1  0
  3 29  1  0
  3 30  1  0
  4 31  1  0
  5 32  1  0
  5 33  1  0
  6 34  1  1
  8 35  1  0
  9 36  1  0
 10 37  1  0
 11 38  1  0
 13 39  1  0
 14 40  1  0
 17 41  1  0
 20 42  1  0
 21 43  1  0
 23 44  1  0
 23 45  1  0
M  ISO  8  27  13  28  13  29  13  30  13  31   5  32  13  33  13  34  13
M  ISO  8  35  14  36  14  37  14  38  14  39  14  40  14  41  14  42  14
M  ISO  1  43  14
M  END
>  <minimizedAffinity>  (1) 
-5.79160547

>  <minimizedRMSD>  (1) 
0.510915458

$$$$
