
     RDKit          3D

 36 37  0  0  1  0  0  0  0  0999 V2000
   44.4690   35.8780   44.3750 C   0  0  0  0  0  0  0  0  0  0  0  0
   44.2860   35.4690   43.0330 C   0  0  0  0  0  0  0  0  0  0  0  0
   44.6800   34.1550   42.6950 C   0  0  0  0  0  0  0  0  0  0  0  0
   45.1960   33.4230   43.7160 N   0  0  0  0  0  0  0  0  0  0  0  0
   45.3680   33.7830   44.9410 C   0  0  0  0  0  0  0  0  0  0  0  0
   44.9970   35.0300   45.2710 N   0  0  0  0  0  0  0  0  0  0  0  0
   45.9270   32.9340   45.9290 N   0  0  0  0  0  0  0  0  0  0  0  0
   45.7140   32.9310   47.2490 N   0  0  0  0  0  0  0  0  0  0  0  0
   46.4550   31.9400   47.7990 C   0  0  0  0  0  0  0  0  0  0  0  0
   47.1330   31.3330   46.7790 C   0  0  0  0  0  0  0  0  0  0  0  0
   46.8040   31.9620   45.5690 C   0  0  0  0  0  0  0  0  0  0  0  0
   47.3960   31.5010   44.2890 C   0  0  2  0  0  0  0  0  0  0  0  0
   48.0080   32.6770   43.5800 C   0  0  0  0  0  0  0  0  0  0  0  0
   46.3990   30.8350   43.4200 C   0  0  0  0  0  0  0  0  0  0  0  0
   45.8780   29.2160   43.9850 S   0  0  0  0  0  0  0  0  0  0  0  0
   44.3240   29.0660   44.7860 C   0  0  0  0  0  0  0  0  0  0  0  0
   43.6330   27.7800   44.2880 C   0  0  0  0  0  0  0  0  0  0  0  0
   44.4370   28.8950   46.2980 C   0  0  0  0  0  0  0  0  0  0  0  0
   44.1780   36.8927   44.6844 H   0  0  0  0  0  0  0  0  0  0  0  0
   43.8540   36.1473   42.2824 H   0  0  0  0  0  0  0  0  0  0  0  0
   44.5761   33.7530   41.6764 H   0  0  0  0  0  0  0  0  0  0  0  0
   46.5024   31.6737   48.8652 H   0  0  0  0  0  0  0  0  0  0  0  0
   47.8262   30.4861   46.8894 H   0  0  0  0  0  0  0  0  0  0  0  0
   48.1697   30.7529   44.5167 H   0  0  0  0  0  0  0  0  0  0  0  0
   48.3830   33.3977   44.3216 H   0  0  0  0  0  0  0  0  0  0  0  0
   48.8411   32.3323   42.9498 H   0  0  0  0  0  0  0  0  0  0  0  0
   47.2477   33.1615   42.9498 H   0  0  0  0  0  0  0  0  0  0  0  0
   46.8380   30.7235   42.4176 H   0  0  0  0  0  0  0  0  0  0  0  0
   45.5021   31.4718   43.4305 H   0  0  0  0  0  0  0  0  0  0  0  0
   43.7738   29.9910   44.5585 H   0  0  0  0  0  0  0  0  0  0  0  0
   43.3103   27.1794   45.1512 H   0  0  0  0  0  0  0  0  0  0  0  0
   42.7568   28.0469   43.6788 H   0  0  0  0  0  0  0  0  0  0  0  0
   44.3391   27.1967   43.6788 H   0  0  0  0  0  0  0  0  0  0  0  0
   43.8976   29.7113   46.8007 H   0  0  0  0  0  0  0  0  0  0  0  0
   43.9981   27.9300   46.5917 H   0  0  0  0  0  0  0  0  0  0  0  0
   45.4968   28.9204   46.5917 H   0  0  0  0  0  0  0  0  0  0  0  0
  1  6  2  0
  2  1  1  0
  3  2  2  0
  3  4  1  0
  4  5  2  0
  5  6  1  0
  5  7  1  0
  7  8  1  0
  8  9  2  0
 10  9  1  0
 11  7  1  0
 11 10  2  0
 12 11  1  0
 13 12  1  0
 14 15  1  0
 14 12  1  0
 15 16  1  0
 16 18  1  0
 17 16  1  0
  1 19  1  0
  2 20  1  0
  3 21  1  0
  9 22  1  0
 10 23  1  0
 12 24  1  1
 13 25  1  0
 13 26  1  0
 13 27  1  0
 14 28  1  0
 14 29  1  0
 16 30  1  0
 17 31  1  0
 17 32  1  0
 17 33  1  0
 18 34  1  0
 18 35  1  0
 18 36  1  0
M  ISO  8  19  14  20  14  21  14  22  14  23  14  24   8  25   8  26   8
M  ISO  8  27   8  28   8  29   8  30   8  31   8  32   8  33   8  34   8
M  ISO  2  35   8  36   8
M  END
>  <minimizedAffinity>  (1) 
-3.84975433

>  <minimizedRMSD>  (1) 
0.969845653

$$$$
