
     RDKit          3D

 33 34  0  0  1  0  0  0  0  0999 V2000
   44.4330   35.9520   44.4160 C   0  0  0  0  0  0  0  0  0  0  0  0
   44.2580   35.6260   43.0620 C   0  0  0  0  0  0  0  0  0  0  0  0
   44.6780   34.3360   42.6380 C   0  0  0  0  0  0  0  0  0  0  0  0
   45.2070   33.5640   43.6230 N   0  0  0  0  0  0  0  0  0  0  0  0
   45.3720   33.8520   44.8680 C   0  0  0  0  0  0  0  0  0  0  0  0
   44.9730   35.0770   45.2660 N   0  0  0  0  0  0  0  0  0  0  0  0
   45.9350   32.9700   45.7950 N   0  0  0  0  0  0  0  0  0  0  0  0
   45.7040   32.8700   47.1240 N   0  0  0  0  0  0  0  0  0  0  0  0
   46.4640   31.8740   47.6090 C   0  0  0  0  0  0  0  0  0  0  0  0
   47.1740   31.3530   46.5700 C   0  0  0  0  0  0  0  0  0  0  0  0
   46.8470   32.0460   45.3900 C   0  0  0  0  0  0  0  0  0  0  0  0
   47.4610   31.6960   44.1010 C   0  0  2  0  0  0  0  0  0  0  0  0
   48.0820   32.9130   43.4900 C   0  0  0  0  0  0  0  0  0  0  0  0
   46.5200   31.0520   43.1650 C   0  0  0  0  0  0  0  0  0  0  0  0
   45.9470   29.4220   43.6530 S   0  0  0  0  0  0  0  0  0  0  0  0
   44.3640   29.2210   44.3510 C   0  0  0  0  0  0  0  0  0  0  0  0
   44.5080   28.9120   45.8480 C   0  0  0  0  0  0  0  0  0  0  0  0
   44.1209   36.9417   44.7809 H   0  0  0  0  0  0  0  0  0  0  0  0
   43.8126   36.3419   42.3556 H   0  0  0  0  0  0  0  0  0  0  0  0
   44.5826   33.9910   41.5979 H   0  0  0  0  0  0  0  0  0  0  0  0
   46.5054   31.5396   48.6561 H   0  0  0  0  0  0  0  0  0  0  0  0
   47.8903   30.5213   46.6421 H   0  0  0  0  0  0  0  0  0  0  0  0
   48.2412   30.9474   44.3030 H   0  0  0  0  0  0  0  0  0  0  0  0
   48.4266   33.5883   44.2871 H   0  0  0  0  0  0  0  0  0  0  0  0
   48.9379   32.6144   42.8669 H   0  0  0  0  0  0  0  0  0  0  0  0
   47.3379   33.4308   42.8669 H   0  0  0  0  0  0  0  0  0  0  0  0
   47.0210   30.9583   42.1902 H   0  0  0  0  0  0  0  0  0  0  0  0
   45.6270   31.6939   43.1418 H   0  0  0  0  0  0  0  0  0  0  0  0
   43.7841   30.1466   44.2205 H   0  0  0  0  0  0  0  0  0  0  0  0
   43.8421   28.3918   43.8510 H   0  0  0  0  0  0  0  0  0  0  0  0
   44.1153   29.7548   46.4358 H   0  0  0  0  0  0  0  0  0  0  0  0
   43.9419   28.0005   46.0904 H   0  0  0  0  0  0  0  0  0  0  0  0
   45.5700   28.7593   46.0904 H   0  0  0  0  0  0  0  0  0  0  0  0
  1  6  2  0
  2  1  1  0
  3  2  2  0
  3  4  1  0
  4  5  2  0
  5  6  1  0
  5  7  1  0
  7  8  1  0
  8  9  2  0
 10  9  1  0
 11  7  1  0
 11 10  2  0
 12 11  1  0
 13 12  1  0
 14 15  1  0
 14 12  1  0
 15 16  1  0
 16 17  1  0
  1 18  1  0
  2 19  1  0
  3 20  1  0
  9 21  1  0
 10 22  1  0
 12 23  1  1
 13 24  1  0
 13 25  1  0
 13 26  1  0
 14 27  1  0
 14 28  1  0
 16 29  1  0
 16 30  1  0
 17 31  1  0
 17 32  1  0
 17 33  1  0
M  ISO  8  18  14  19  14  20  14  21  14  22  14  23   8  24   8  25   8
M  ISO  8  26   8  27   8  28   8  29   8  30   8  31   8  32   8  33   8
M  END
>  <minimizedAffinity>  (1) 
-3.76676345

>  <minimizedRMSD>  (1) 
0.387005776

$$$$
