
     RDKit          3D

 44 47  0  0  1  0  0  0  0  0999 V2000
   46.8730   31.6130   44.7520 C   0  0  2  0  0  0  0  0  0  0  0  0
   44.6900   36.3440   44.0500 C   0  0  0  0  0  0  0  0  0  0  0  0
   44.6570   35.8510   42.7620 C   0  0  0  0  0  0  0  0  0  0  0  0
   44.8940   34.4610   42.5780 C   0  0  0  0  0  0  0  0  0  0  0  0
   45.1230   33.8240   43.7510 N   0  0  0  0  0  0  0  0  0  0  0  0
   45.1650   34.2170   44.9470 C   0  0  0  0  0  0  0  0  0  0  0  0
   44.9380   35.5240   45.0760 N   0  0  0  0  0  0  0  0  0  0  0  0
   45.4240   33.3990   46.0440 N   0  0  0  0  0  0  0  0  0  0  0  0
   45.0250   33.5440   47.3020 N   0  0  0  0  0  0  0  0  0  0  0  0
   45.4940   32.5290   48.0340 C   0  0  0  0  0  0  0  0  0  0  0  0
   46.2040   31.7350   47.2020 C   0  0  0  0  0  0  0  0  0  0  0  0
   46.1790   32.2740   45.9020 C   0  0  0  0  0  0  0  0  0  0  0  0
   47.7260   32.6490   44.0810 C   0  0  0  0  0  0  0  0  0  0  0  0
   45.9980   30.9570   43.8230 C   0  0  0  0  0  0  0  0  0  0  0  0
   45.9990   29.1640   43.8870 S   0  0  0  0  0  0  0  0  0  0  0  0
   45.6690   28.3930   45.3960 C   0  0  0  0  0  0  0  0  0  0  0  0
   44.3420   27.9890   45.4820 C   0  0  0  0  0  0  0  0  0  0  0  0
   43.7880   27.3150   46.5690 C   0  0  0  0  0  0  0  0  0  0  0  0
   44.6070   27.0450   47.6030 C   0  0  0  0  0  0  0  0  0  0  0  0
   45.8900   27.4300   47.5280 C   0  0  0  0  0  0  0  0  0  0  0  0
   46.4800   28.1060   46.4500 C   0  0  0  0  0  0  0  0  0  0  0  0
   47.8530   28.4600   46.6150 C   0  0  0  0  0  0  0  0  0  0  0  0
   48.7280   27.3430   46.3760 C   0  0  0  0  0  0  0  0  0  0  0  0
   50.0590   27.6490   46.3990 N   0  0  0  0  0  0  0  0  0  0  0  0
   50.1310   28.9670   46.6530 C   0  0  0  0  0  0  0  0  0  0  0  0
   48.8550   29.3070   46.7550 N   0  0  0  0  0  0  0  0  0  0  0  0
   47.4874   30.7916   45.1493 H   0  0  0  0  0  0  0  0  0  0  0  0
   44.5119   37.4139   44.2330 H   0  0  0  0  0  0  0  0  0  0  0  0
   44.4541   36.5111   41.9058 H   0  0  0  0  0  0  0  0  0  0  0  0
   44.8916   33.9617   41.5979 H   0  0  0  0  0  0  0  0  0  0  0  0
   45.3327   32.3698   49.1104 H   0  0  0  0  0  0  0  0  0  0  0  0
   46.7217   30.8099   47.4956 H   0  0  0  0  0  0  0  0  0  0  0  0
   48.2293   33.2602   44.8446 H   0  0  0  0  0  0  0  0  0  0  0  0
   48.4804   32.1523   43.4532 H   0  0  0  0  0  0  0  0  0  0  0  0
   47.0937   33.2940   43.4532 H   0  0  0  0  0  0  0  0  0  0  0  0
   46.2949   31.2592   42.8079 H   0  0  0  0  0  0  0  0  0  0  0  0
   44.9795   31.2665   44.1004 H   0  0  0  0  0  0  0  0  0  0  0  0
   43.6822   28.2173   44.6320 H   0  0  0  0  0  0  0  0  0  0  0  0
   42.7292   27.0170   46.5815 H   0  0  0  0  0  0  0  0  0  0  0  0
   44.2312   26.5185   48.4927 H   0  0  0  0  0  0  0  0  0  0  0  0
   46.5356   27.1950   48.3870 H   0  0  0  0  0  0  0  0  0  0  0  0
   48.3552   26.3250   46.1898 H   0  0  0  0  0  0  0  0  0  0  0  0
   51.0236   29.6023   46.7513 H   0  0  0  0  0  0  0  0  0  0  0  0
   48.6313   30.2922   46.9558 H   0  0  0  0  0  0  0  0  0  0  0  0
  1 12  1  0
  2  7  2  0
  3  2  1  0
  4  3  2  0
  4  5  1  0
  5  6  2  0
  6  7  1  0
  6  8  1  0
  8  9  1  0
  9 10  2  0
 11 10  1  0
 12  8  1  0
 12 11  2  0
 13  1  1  0
 14 15  1  0
 14  1  1  0
 15 16  1  0
 16 17  2  0
 16 21  1  0
 17 18  1  0
 18 19  2  0
 20 19  1  0
 21 22  1  0
 21 20  2  0
 22 26  1  0
 23 24  1  0
 23 22  2  0
 24 25  2  0
 25 26  1  0
  1 27  1  1
  2 28  1  0
  3 29  1  0
  4 30  1  0
 10 31  1  0
 11 32  1  0
 13 33  1  0
 13 34  1  0
 13 35  1  0
 14 36  1  0
 14 37  1  0
 17 38  1  0
 18 39  1  0
 19 40  1  0
 20 41  1  0
 23 42  1  0
 25 43  1  0
 26 44  1  0
M  ISO  8  27   8  28  14  29  14  30  14  31  14  32  14  33   8  34   8
M  ISO  8  35   8  36   8  37   8  38  14  39  14  40  14  41  14  42  14
M  ISO  2  43  14  44   9
M  END
>  <minimizedAffinity>  (1) 
-4.45721006

>  <minimizedRMSD>  (1) 
1.73331249

$$$$
