
     RDKit          3D

 53 56  0  0  1  0  0  0  0  0999 V2000
   47.2930   31.4970   44.6120 C   0  0  2  0  0  0  0  0  0  0  0  0
   44.4430   35.8900   44.3000 C   0  0  0  0  0  0  0  0  0  0  0  0
   44.3050   35.4000   43.0160 C   0  0  0  0  0  0  0  0  0  0  0  0
   44.6950   34.0490   42.7540 C   0  0  0  0  0  0  0  0  0  0  0  0
   45.1610   33.4430   43.8850 N   0  0  0  0  0  0  0  0  0  0  0  0
   45.3090   33.8310   45.0700 C   0  0  0  0  0  0  0  0  0  0  0  0
   44.9320   35.1050   45.2710 N   0  0  0  0  0  0  0  0  0  0  0  0
   45.8140   33.0490   46.1080 N   0  0  0  0  0  0  0  0  0  0  0  0
   45.5620   33.1350   47.4120 N   0  0  0  0  0  0  0  0  0  0  0  0
   46.2530   32.1940   48.0550 C   0  0  0  0  0  0  0  0  0  0  0  0
   46.9500   31.5090   47.1230 C   0  0  0  0  0  0  0  0  0  0  0  0
   46.6830   32.0440   45.8500 C   0  0  0  0  0  0  0  0  0  0  0  0
   47.9110   32.6350   43.8500 C   0  0  0  0  0  0  0  0  0  0  0  0
   46.4470   30.7190   43.7740 C   0  0  0  0  0  0  0  0  0  0  0  0
   45.2150   29.7350   44.6500 S   0  0  0  0  0  0  0  0  0  0  0  0
   45.6770   28.2320   45.3390 C   0  0  0  0  0  0  0  0  0  0  0  0
   47.0350   28.1820   45.6090 C   0  0  0  0  0  0  0  0  0  0  0  0
   47.6920   27.0820   46.1800 C   0  0  0  0  0  0  0  0  0  0  0  0
   46.9200   25.9890   46.4850 C   0  0  0  0  0  0  0  0  0  0  0  0
   45.5960   26.0340   46.2250 C   0  0  0  0  0  0  0  0  0  0  0  0
   44.9400   27.1280   45.6590 C   0  0  0  0  0  0  0  0  0  0  0  0
   43.4920   27.1660   45.4720 C   0  0  0  0  0  0  0  0  0  0  0  0
   43.2370   26.6290   44.0510 C   0  0  0  0  0  0  0  0  0  0  0  0
   41.7430   26.5720   43.8530 C   0  0  0  0  0  0  0  0  0  0  0  0
   41.0060   27.2760   44.9600 C   0  0  0  0  0  0  0  0  0  0  0  0
   41.2720   26.5620   46.2480 C   0  0  0  0  0  0  0  0  0  0  0  0
   42.7450   26.2020   46.3560 C   0  0  0  0  0  0  0  0  0  0  0  0
   48.0443   30.7652   44.9437 H   0  0  0  0  0  0  0  0  0  0  0  0
   44.1512   36.9261   44.5265 H   0  0  0  0  0  0  0  0  0  0  0  0
   43.9039   36.0350   42.2123 H   0  0  0  0  0  0  0  0  0  0  0  0
   44.6282   33.5621   41.7699 H   0  0  0  0  0  0  0  0  0  0  0  0
   46.2551   32.0102   49.1395 H   0  0  0  0  0  0  0  0  0  0  0  0
   47.6227   30.6632   47.3279 H   0  0  0  0  0  0  0  0  0  0  0  0
   48.3128   33.3749   44.5579 H   0  0  0  0  0  0  0  0  0  0  0  0
   48.7256   32.2530   43.2171 H   0  0  0  0  0  0  0  0  0  0  0  0
   47.1470   33.1102   43.2171 H   0  0  0  0  0  0  0  0  0  0  0  0
   45.9185   31.4018   43.0925 H   0  0  0  0  0  0  0  0  0  0  0  0
   47.1001   30.0047   43.2513 H   0  0  0  0  0  0  0  0  0  0  0  0
   47.6398   29.0660   45.3583 H   0  0  0  0  0  0  0  0  0  0  0  0
   48.7747   27.0948   46.3741 H   0  0  0  0  0  0  0  0  0  0  0  0
   47.3721   25.0921   46.9334 H   0  0  0  0  0  0  0  0  0  0  0  0
   44.9936   25.1486   46.4763 H   0  0  0  0  0  0  0  0  0  0  0  0
   43.1581   28.1928   45.6821 H   0  0  0  0  0  0  0  0  0  0  0  0
   43.6896   27.3019   43.3077 H   0  0  0  0  0  0  0  0  0  0  0  0
   43.6841   25.6318   43.9261 H   0  0  0  0  0  0  0  0  0  0  0  0
   41.4919   27.0527   42.8960 H   0  0  0  0  0  0  0  0  0  0  0  0
   41.4374   25.5153   43.8564 H   0  0  0  0  0  0  0  0  0  0  0  0
   41.3569   28.3159   45.0346 H   0  0  0  0  0  0  0  0  0  0  0  0
   39.9264   27.2756   44.7490 H   0  0  0  0  0  0  0  0  0  0  0  0
   40.9952   27.2149   47.0889 H   0  0  0  0  0  0  0  0  0  0  0  0
   40.6746   25.6388   46.2759 H   0  0  0  0  0  0  0  0  0  0  0  0
   42.9089   25.1693   46.0144 H   0  0  0  0  0  0  0  0  0  0  0  0
   43.0933   26.2686   47.3973 H   0  0  0  0  0  0  0  0  0  0  0  0
  1 12  1  0
  2  7  2  0
  3  2  1  0
  4  3  2  0
  4  5  1  0
  5  6  2  0
  6  7  1  0
  6  8  1  0
  8  9  1  0
  9 10  2  0
 11 10  1  0
 12  8  1  0
 12 11  2  0
 13  1  1  0
 14  1  1  0
 14 15  1  0
 15 16  1  0
 16 17  2  0
 16 21  1  0
 17 18  1  0
 18 19  2  0
 20 19  1  0
 21 20  2  0
 22 21  1  0
 22 27  1  0
 23 22  1  0
 24 23  1  0
 24 25  1  0
 25 26  1  0
 26 27  1  0
  1 28  1  1
  2 29  1  0
  3 30  1  0
  4 31  1  0
 10 32  1  0
 11 33  1  0
 13 34  1  0
 13 35  1  0
 13 36  1  0
 14 37  1  0
 14 38  1  0
 17 39  1  0
 18 40  1  0
 19 41  1  0
 20 42  1  0
 22 43  1  0
 23 44  1  0
 23 45  1  0
 24 46  1  0
 24 47  1  0
 25 48  1  0
 25 49  1  0
 26 50  1  0
 26 51  1  0
 27 52  1  0
 27 53  1  0
M  ISO  8  28   8  29  14  30  14  31  14  32  14  33  14  34   8  35   8
M  ISO  8  36   8  37   8  38   8  39  14  40  14  41  14  42  14  43  13
M  ISO  8  44  13  45  13  46  13  47  13  48  13  49  13  50  13  51  13
M  ISO  2  52  13  53  13
M  END
>  <minimizedAffinity>  (1) 
-4.64255142

>  <minimizedRMSD>  (1) 
3.46046233

$$$$
