
     RDKit          3D

 37 39  0  0  1  0  0  0  0  0999 V2000
   47.0820   31.4820   44.4640 C   0  0  2  0  0  0  0  0  0  0  0  0
   44.5590   36.1060   44.0840 C   0  0  0  0  0  0  0  0  0  0  0  0
   44.4190   35.6320   42.7860 C   0  0  0  0  0  0  0  0  0  0  0  0
   44.7200   34.2620   42.5370 C   0  0  0  0  0  0  0  0  0  0  0  0
   45.1160   33.5820   43.6390 N   0  0  0  0  0  0  0  0  0  0  0  0
   45.2580   33.9910   44.8540 C   0  0  0  0  0  0  0  0  0  0  0  0
   44.9690   35.2840   45.0620 N   0  0  0  0  0  0  0  0  0  0  0  0
   45.6810   33.1730   45.9210 N   0  0  0  0  0  0  0  0  0  0  0  0
   45.4100   33.2750   47.2210 N   0  0  0  0  0  0  0  0  0  0  0  0
   46.0140   32.2740   47.8710 C   0  0  0  0  0  0  0  0  0  0  0  0
   46.6750   31.5360   46.9380 C   0  0  0  0  0  0  0  0  0  0  0  0
   46.4740   32.0970   45.6760 C   0  0  0  0  0  0  0  0  0  0  0  0
   47.9500   32.5100   43.7940 C   0  0  0  0  0  0  0  0  0  0  0  0
   46.0660   30.9700   43.5220 C   0  0  0  0  0  0  0  0  0  0  0  0
   44.9100   29.7660   44.2110 S   0  0  0  0  0  0  0  0  0  0  0  0
   45.6350   28.5930   45.3230 C   0  0  0  0  0  0  0  0  0  0  0  0
   44.7220   28.5480   46.4160 C   0  0  0  0  0  0  0  0  0  0  0  0
   44.8790   27.7480   47.5570 C   0  0  0  0  0  0  0  0  0  0  0  0
   46.0130   26.9630   47.5830 C   0  0  0  0  0  0  0  0  0  0  0  0
   46.8870   27.0040   46.5410 C   0  0  0  0  0  0  0  0  0  0  0  0
   46.7330   27.7980   45.4070 C   0  0  0  0  0  0  0  0  0  0  0  0
   47.6819   30.6142   44.7757 H   0  0  0  0  0  0  0  0  0  0  0  0
   44.3331   37.1584   44.3109 H   0  0  0  0  0  0  0  0  0  0  0  0
   44.0855   36.2950   41.9741 H   0  0  0  0  0  0  0  0  0  0  0  0
   44.6383   33.7996   41.5422 H   0  0  0  0  0  0  0  0  0  0  0  0
   45.9824   32.0835   48.9539 H   0  0  0  0  0  0  0  0  0  0  0  0
   47.2743   30.6374   47.1461 H   0  0  0  0  0  0  0  0  0  0  0  0
   48.4600   33.1140   44.5589 H   0  0  0  0  0  0  0  0  0  0  0  0
   48.6989   32.0047   43.1664 H   0  0  0  0  0  0  0  0  0  0  0  0
   47.3264   33.1636   43.1664 H   0  0  0  0  0  0  0  0  0  0  0  0
   46.5917   30.4935   42.6814 H   0  0  0  0  0  0  0  0  0  0  0  0
   45.4595   31.8392   43.2276 H   0  0  0  0  0  0  0  0  0  0  0  0
   43.8287   29.1875   46.3608 H   0  0  0  0  0  0  0  0  0  0  0  0
   44.1461   27.7465   48.3773 H   0  0  0  0  0  0  0  0  0  0  0  0
   46.2100   26.3062   48.4431 H   0  0  0  0  0  0  0  0  0  0  0  0
   47.7797   26.3638   46.5983 H   0  0  0  0  0  0  0  0  0  0  0  0
   47.4810   27.7816   44.6006 H   0  0  0  0  0  0  0  0  0  0  0  0
  1 12  1  0
  2  7  2  0
  3  2  1  0
  4  3  2  0
  4  5  1  0
  5  6  2  0
  6  7  1  0
  6  8  1  0
  8  9  1  0
  9 10  2  0
 11 10  1  0
 12  8  1  0
 12 11  2  0
 13  1  1  0
 14 15  1  0
 14  1  1  0
 15 16  1  0
 16 21  1  0
 16 17  2  0
 17 18  1  0
 18 19  2  0
 20 19  1  0
 21 20  2  0
  1 22  1  1
  2 23  1  0
  3 24  1  0
  4 25  1  0
 10 26  1  0
 11 27  1  0
 13 28  1  0
 13 29  1  0
 13 30  1  0
 14 31  1  0
 14 32  1  0
 17 33  1  0
 18 34  1  0
 19 35  1  0
 20 36  1  0
 21 37  1  0
M  ISO  8  22   8  23  14  24  14  25  14  26  14  27  14  28   8  29   8
M  ISO  8  30   8  31   8  32   8  33  14  34  14  35  14  36  14  37  14
M  END
>  <minimizedAffinity>  (1) 
-4.14125586

>  <minimizedRMSD>  (1) 
2.18449831

$$$$
