
     RDKit          3D

 49 52  0  0  1  0  0  0  0  0999 V2000
   47.0080   31.6020   44.6560 C   0  0  2  0  0  0  0  0  0  0  0  0
   44.6160   36.2530   44.1390 C   0  0  0  0  0  0  0  0  0  0  0  0
   44.5600   35.7910   42.8400 C   0  0  0  0  0  0  0  0  0  0  0  0
   44.8420   34.4130   42.6060 C   0  0  0  0  0  0  0  0  0  0  0  0
   45.1350   33.7480   43.7530 N   0  0  0  0  0  0  0  0  0  0  0  0
   45.2000   34.1190   44.9570 C   0  0  0  0  0  0  0  0  0  0  0  0
   44.9280   35.4180   45.1350 N   0  0  0  0  0  0  0  0  0  0  0  0
   45.5220   33.2820   46.0280 N   0  0  0  0  0  0  0  0  0  0  0  0
   45.1440   33.3790   47.3040 N   0  0  0  0  0  0  0  0  0  0  0  0
   45.6780   32.3630   47.9940 C   0  0  0  0  0  0  0  0  0  0  0  0
   46.3990   31.6280   47.1200 C   0  0  0  0  0  0  0  0  0  0  0  0
   46.3210   32.1940   45.8340 C   0  0  0  0  0  0  0  0  0  0  0  0
   47.7950   32.6810   43.9740 C   0  0  0  0  0  0  0  0  0  0  0  0
   46.1470   30.9200   43.7270 C   0  0  0  0  0  0  0  0  0  0  0  0
   46.1660   29.1150   43.8130 S   0  0  0  0  0  0  0  0  0  0  0  0
   45.8260   28.3900   45.3400 C   0  0  0  0  0  0  0  0  0  0  0  0
   44.4780   28.1490   45.5160 C   0  0  0  0  0  0  0  0  0  0  0  0
   43.9180   27.5630   46.6540 C   0  0  0  0  0  0  0  0  0  0  0  0
   44.7850   27.2100   47.6540 C   0  0  0  0  0  0  0  0  0  0  0  0
   46.1090   27.4370   47.5000 C   0  0  0  0  0  0  0  0  0  0  0  0
   46.6300   28.0130   46.3710 C   0  0  0  0  0  0  0  0  0  0  0  0
   48.0370   28.1740   46.2770 N   0  0  0  0  0  0  0  0  0  0  0  0
   48.9290   27.0200   46.1220 C   0  0  0  0  0  0  0  0  0  0  0  0
   49.9840   27.2030   47.2040 C   0  0  0  0  0  0  0  0  0  0  0  0
   50.1260   28.7120   47.2560 C   0  0  0  0  0  0  0  0  0  0  0  0
   49.0690   29.2040   46.2930 C   0  0  0  0  0  0  0  0  0  0  0  0
   47.6685   30.8086   45.0359 H   0  0  0  0  0  0  0  0  0  0  0  0
   44.4035   37.3104   44.3553 H   0  0  0  0  0  0  0  0  0  0  0  0
   44.3053   36.4658   42.0095 H   0  0  0  0  0  0  0  0  0  0  0  0
   44.8242   33.9431   41.6116 H   0  0  0  0  0  0  0  0  0  0  0  0
   45.5531   32.1647   49.0687 H   0  0  0  0  0  0  0  0  0  0  0  0
   46.9645   30.7198   47.3759 H   0  0  0  0  0  0  0  0  0  0  0  0
   48.2654   33.3259   44.7309 H   0  0  0  0  0  0  0  0  0  0  0  0
   48.5741   32.2250   43.3454 H   0  0  0  0  0  0  0  0  0  0  0  0
   47.1228   33.2836   43.3454 H   0  0  0  0  0  0  0  0  0  0  0  0
   46.4491   31.2123   42.7105 H   0  0  0  0  0  0  0  0  0  0  0  0
   45.1231   31.2202   43.9944 H   0  0  0  0  0  0  0  0  0  0  0  0
   43.7966   28.4389   44.7026 H   0  0  0  0  0  0  0  0  0  0  0  0
   42.8347   27.3935   46.7425 H   0  0  0  0  0  0  0  0  0  0  0  0
   44.4066   26.7449   48.5762 H   0  0  0  0  0  0  0  0  0  0  0  0
   46.7935   27.1485   48.3113 H   0  0  0  0  0  0  0  0  0  0  0  0
   48.3777   26.0800   46.2720 H   0  0  0  0  0  0  0  0  0  0  0  0
   49.3688   26.9646   45.1153 H   0  0  0  0  0  0  0  0  0  0  0  0
   49.6409   26.8006   48.1686 H   0  0  0  0  0  0  0  0  0  0  0  0
   50.9271   26.6762   46.9966 H   0  0  0  0  0  0  0  0  0  0  0  0
   49.9373   29.0891   48.2720 H   0  0  0  0  0  0  0  0  0  0  0  0
   51.1371   29.0547   46.9912 H   0  0  0  0  0  0  0  0  0  0  0  0
   49.4968   29.3335   45.2879 H   0  0  0  0  0  0  0  0  0  0  0  0
   48.6634   30.1793   46.6002 H   0  0  0  0  0  0  0  0  0  0  0  0
  1 12  1  0
  2  7  2  0
  3  2  1  0
  4  3  2  0
  4  5  1  0
  5  6  2  0
  6  7  1  0
  6  8  1  0
  8  9  1  0
  9 10  2  0
 11 10  1  0
 12  8  1  0
 12 11  2  0
 13  1  1  0
 14 15  1  0
 14  1  1  0
 15 16  1  0
 16 17  2  0
 16 21  1  0
 17 18  1  0
 18 19  2  0
 20 19  1  0
 21 20  2  0
 22 26  1  0
 22 21  1  0
 23 22  1  0
 23 24  1  0
 24 25  1  0
 26 25  1  0
  1 27  1  1
  2 28  1  0
  3 29  1  0
  4 30  1  0
 10 31  1  0
 11 32  1  0
 13 33  1  0
 13 34  1  0
 13 35  1  0
 14 36  1  0
 14 37  1  0
 17 38  1  0
 18 39  1  0
 19 40  1  0
 20 41  1  0
 23 42  1  0
 23 43  1  0
 24 44  1  0
 24 45  1  0
 25 46  1  0
 25 47  1  0
 26 48  1  0
 26 49  1  0
M  ISO  8  27   8  28  14  29  14  30  14  31  14  32  14  33   8  34   8
M  ISO  8  35   8  36   8  37   8  38  14  39  14  40  14  41  14  42  13
M  ISO  7  43  13  44  13  45  13  46  13  47  13  48  13  49  13
M  END
>  <minimizedAffinity>  (1) 
-4.38871288

>  <minimizedRMSD>  (1) 
1.52283251

$$$$
