
     RDKit          3D

 45 48  0  0  1  0  0  0  0  0999 V2000
   46.9010   31.5540   44.7010 C   0  0  2  0  0  0  0  0  0  0  0  0
   44.6850   36.2850   44.0900 C   0  0  0  0  0  0  0  0  0  0  0  0
   44.6190   35.7990   42.8000 C   0  0  0  0  0  0  0  0  0  0  0  0
   44.8540   34.4140   42.6020 C   0  0  0  0  0  0  0  0  0  0  0  0
   45.1160   33.7680   43.7650 N   0  0  0  0  0  0  0  0  0  0  0  0
   45.1910   34.1500   44.9610 C   0  0  0  0  0  0  0  0  0  0  0  0
   44.9630   35.4570   45.1070 N   0  0  0  0  0  0  0  0  0  0  0  0
   45.4800   33.3220   46.0430 N   0  0  0  0  0  0  0  0  0  0  0  0
   45.1120   33.4550   47.3130 N   0  0  0  0  0  0  0  0  0  0  0  0
   45.6070   32.4310   48.0220 C   0  0  0  0  0  0  0  0  0  0  0  0
   46.3000   31.6460   47.1670 C   0  0  0  0  0  0  0  0  0  0  0  0
   46.2320   32.2030   45.8750 C   0  0  0  0  0  0  0  0  0  0  0  0
   47.7800   32.5790   44.0480 C   0  0  0  0  0  0  0  0  0  0  0  0
   46.0020   30.9500   43.7580 C   0  0  0  0  0  0  0  0  0  0  0  0
   45.8960   29.1560   43.8180 S   0  0  0  0  0  0  0  0  0  0  0  0
   45.7020   28.4010   45.3560 C   0  0  0  0  0  0  0  0  0  0  0  0
   44.3850   27.9960   45.5660 C   0  0  0  0  0  0  0  0  0  0  0  0
   43.9270   27.3340   46.7090 C   0  0  0  0  0  0  0  0  0  0  0  0
   44.8410   27.0790   47.6680 C   0  0  0  0  0  0  0  0  0  0  0  0
   46.1180   27.4660   47.4720 C   0  0  0  0  0  0  0  0  0  0  0  0
   46.5990   28.1260   46.3360 C   0  0  0  0  0  0  0  0  0  0  0  0
   48.0240   28.2550   46.3600 C   0  0  0  0  0  0  0  0  0  0  0  0
   48.9940   29.1430   46.6720 C   0  0  0  0  0  0  0  0  0  0  0  0
   50.3530   29.0210   46.6560 C   0  0  0  0  0  0  0  0  0  0  0  0
   50.8310   27.8050   46.2620 N   0  0  0  0  0  0  0  0  0  0  0  0
   49.9400   26.8570   45.9320 C   0  0  0  0  0  0  0  0  0  0  0  0
   48.6340   27.0860   45.9840 N   0  0  0  0  0  0  0  0  0  0  0  0
   47.4932   30.7067   45.0771 H   0  0  0  0  0  0  0  0  0  0  0  0
   44.5092   37.3534   44.2840 H   0  0  0  0  0  0  0  0  0  0  0  0
   44.3917   36.4635   41.9534 H   0  0  0  0  0  0  0  0  0  0  0  0
   44.8268   33.9213   41.6189 H   0  0  0  0  0  0  0  0  0  0  0  0
   45.4739   32.2607   49.1006 H   0  0  0  0  0  0  0  0  0  0  0  0
   46.8313   30.7214   47.4367 H   0  0  0  0  0  0  0  0  0  0  0  0
   48.2888   33.1723   44.8220 H   0  0  0  0  0  0  0  0  0  0  0  0
   48.5297   32.0735   43.4215 H   0  0  0  0  0  0  0  0  0  0  0  0
   47.1661   33.2429   43.4215 H   0  0  0  0  0  0  0  0  0  0  0  0
   46.3307   31.2352   42.7477 H   0  0  0  0  0  0  0  0  0  0  0  0
   44.9996   31.3179   44.0224 H   0  0  0  0  0  0  0  0  0  0  0  0
   43.6525   28.2131   44.7746 H   0  0  0  0  0  0  0  0  0  0  0  0
   42.8741   27.0359   46.8208 H   0  0  0  0  0  0  0  0  0  0  0  0
   44.5493   26.5637   48.5950 H   0  0  0  0  0  0  0  0  0  0  0  0
   46.8408   27.2445   48.2710 H   0  0  0  0  0  0  0  0  0  0  0  0
   48.6264   30.1290   46.9924 H   0  0  0  0  0  0  0  0  0  0  0  0
   51.0193   29.8483   46.9418 H   0  0  0  0  0  0  0  0  0  0  0  0
   50.3004   25.8684   45.6114 H   0  0  0  0  0  0  0  0  0  0  0  0
  1 12  1  0
  2  7  2  0
  3  2  1  0
  4  3  2  0
  4  5  1  0
  5  6  2  0
  6  7  1  0
  6  8  1  0
  8  9  1  0
  9 10  2  0
 11 10  1  0
 12  8  1  0
 12 11  2  0
 13  1  1  0
 14 15  1  0
 14  1  1  0
 15 16  1  0
 16 17  2  0
 16 21  1  0
 17 18  1  0
 18 19  2  0
 20 19  1  0
 21 22  1  0
 21 20  2  0
 22 23  2  0
 24 23  1  0
 25 24  2  0
 26 27  2  0
 26 25  1  0
 27 22  1  0
  1 28  1  1
  2 29  1  0
  3 30  1  0
  4 31  1  0
 10 32  1  0
 11 33  1  0
 13 34  1  0
 13 35  1  0
 13 36  1  0
 14 37  1  0
 14 38  1  0
 17 39  1  0
 18 40  1  0
 19 41  1  0
 20 42  1  0
 23 43  1  0
 24 44  1  0
 26 45  1  0
M  ISO  8  28   8  29  14  30  14  31  14  32  14  33  14  34   8  35   8
M  ISO  8  36   8  37   8  38   8  39  14  40  14  41  14  42  14  43  14
M  ISO  2  44  14  45  14
M  END
>  <minimizedAffinity>  (1) 
-4.43105412

>  <minimizedRMSD>  (1) 
1.95745862

$$$$
