
     RDKit          3D

 51 54  0  0  1  0  0  0  0  0999 V2000
   47.1250   31.3310   44.2070 C   0  0  2  0  0  0  0  0  0  0  0  0
   44.5940   35.9330   44.4850 C   0  0  0  0  0  0  0  0  0  0  0  0
   44.3730   35.5950   43.1660 C   0  0  0  0  0  0  0  0  0  0  0  0
   44.6520   34.2580   42.7570 C   0  0  0  0  0  0  0  0  0  0  0  0
   45.1130   33.4970   43.7820 N   0  0  0  0  0  0  0  0  0  0  0  0
   45.3330   33.7510   44.9980 C   0  0  0  0  0  0  0  0  0  0  0  0
   45.0580   35.0160   45.3350 N   0  0  0  0  0  0  0  0  0  0  0  0
   45.8140   32.8250   45.9240 N   0  0  0  0  0  0  0  0  0  0  0  0
   45.6140   32.7880   47.2450 N   0  0  0  0  0  0  0  0  0  0  0  0
   46.2510   31.7280   47.7530 C   0  0  0  0  0  0  0  0  0  0  0  0
   46.8550   31.1040   46.7190 C   0  0  0  0  0  0  0  0  0  0  0  0
   46.5960   31.7850   45.5190 C   0  0  0  0  0  0  0  0  0  0  0  0
   47.8910   32.4600   43.5860 C   0  0  0  0  0  0  0  0  0  0  0  0
   46.1400   30.8160   43.2960 C   0  0  0  0  0  0  0  0  0  0  0  0
   44.8310   29.8040   44.0390 S   0  0  0  0  0  0  0  0  0  0  0  0
   45.1620   28.1170   44.2390 C   0  0  0  0  0  0  0  0  0  0  0  0
   46.5250   27.8770   44.1930 C   0  0  0  0  0  0  0  0  0  0  0  0
   47.0970   26.5910   44.3410 C   0  0  0  0  0  0  0  0  0  0  0  0
   46.2250   25.5570   44.5350 C   0  0  0  0  0  0  0  0  0  0  0  0
   44.8940   25.7880   44.5790 C   0  0  0  0  0  0  0  0  0  0  0  0
   44.3640   27.0420   44.4360 C   0  0  0  0  0  0  0  0  0  0  0  0
   42.9640   27.2560   44.5220 N   0  0  0  0  0  0  0  0  0  0  0  0
   42.3310   26.9930   43.2180 C   0  0  0  0  0  0  0  0  0  0  0  0
   40.8420   27.0200   43.3020 C   0  0  0  0  0  0  0  0  0  0  0  0
   40.3670   28.2870   43.8060 N   0  0  0  0  0  0  0  0  0  0  0  0
   41.0680   28.7240   44.9790 C   0  0  0  0  0  0  0  0  0  0  0  0
   42.0030   27.6700   45.5280 C   0  0  0  0  0  0  0  0  0  0  0  0
   47.7777   30.4692   44.4101 H   0  0  0  0  0  0  0  0  0  0  0  0
   44.3882   36.9555   44.8346 H   0  0  0  0  0  0  0  0  0  0  0  0
   43.9918   36.3370   42.4490 H   0  0  0  0  0  0  0  0  0  0  0  0
   44.5103   33.8868   41.7313 H   0  0  0  0  0  0  0  0  0  0  0  0
   46.2779   31.4230   48.8095 H   0  0  0  0  0  0  0  0  0  0  0  0
   47.4635   30.1917   46.8048 H   0  0  0  0  0  0  0  0  0  0  0  0
   48.3196   33.0917   44.3780 H   0  0  0  0  0  0  0  0  0  0  0  0
   48.7010   32.0541   42.9621 H   0  0  0  0  0  0  0  0  0  0  0  0
   47.2145   33.0627   42.9621 H   0  0  0  0  0  0  0  0  0  0  0  0
   46.6609   30.1989   42.5491 H   0  0  0  0  0  0  0  0  0  0  0  0
   45.6338   31.6967   42.8739 H   0  0  0  0  0  0  0  0  0  0  0  0
   47.1990   28.7314   44.0329 H   0  0  0  0  0  0  0  0  0  0  0  0
   48.1848   26.4324   44.3020 H   0  0  0  0  0  0  0  0  0  0  0  0
   46.6077   24.5328   44.6558 H   0  0  0  0  0  0  0  0  0  0  0  0
   44.2128   24.9386   44.7352 H   0  0  0  0  0  0  0  0  0  0  0  0
   42.6484   26.0014   42.8631 H   0  0  0  0  0  0  0  0  0  0  0  0
   42.6457   27.7851   42.5226 H   0  0  0  0  0  0  0  0  0  0  0  0
   40.4236   26.8542   42.2983 H   0  0  0  0  0  0  0  0  0  0  0  0
   40.5193   26.2284   43.9943 H   0  0  0  0  0  0  0  0  0  0  0  0
   40.4848   28.9977   43.0698 H   0  0  0  0  0  0  0  0  0  0  0  0
   41.6563   29.6179   44.7245 H   0  0  0  0  0  0  0  0  0  0  0  0
   40.3171   28.9375   45.7540 H   0  0  0  0  0  0  0  0  0  0  0  0
   41.4146   26.7964   45.8452 H   0  0  0  0  0  0  0  0  0  0  0  0
   42.5497   28.0955   46.3825 H   0  0  0  0  0  0  0  0  0  0  0  0
  1 12  1  0
  2  7  2  0
  3  2  1  0
  4  3  2  0
  4  5  1  0
  5  6  2  0
  6  7  1  0
  6  8  1  0
  8  9  1  0
  9 10  2  0
 11 10  1  0
 12  8  1  0
 12 11  2  0
 13  1  1  0
 14 15  1  0
 14  1  1  0
 15 16  1  0
 16 21  1  0
 17 16  2  0
 17 18  1  0
 18 19  2  0
 19 20  1  0
 21 22  1  0
 21 20  2  0
 22 27  1  0
 23 24  1  0
 23 22  1  0
 24 25  1  0
 25 26  1  0
 26 27  1  0
  1 28  1  1
  2 29  1  0
  3 30  1  0
  4 31  1  0
 10 32  1  0
 11 33  1  0
 13 34  1  0
 13 35  1  0
 13 36  1  0
 14 37  1  0
 14 38  1  0
 17 39  1  0
 18 40  1  0
 19 41  1  0
 20 42  1  0
 23 43  1  0
 23 44  1  0
 24 45  1  0
 24 46  1  0
 25 47  1  0
 26 48  1  0
 26 49  1  0
 27 50  1  0
 27 51  1  0
M  ISO  8  28   8  29  14  30  14  31  14  32  14  33  14  34   8  35   8
M  ISO  8  36   8  37   8  38   8  39  14  40  14  41  14  42  14  43  13
M  ISO  8  44  13  45  13  46  13  47   5  48  13  49  13  50  13  51  13
M  END
>  <minimizedAffinity>  (1) 
-4.3421154

>  <minimizedRMSD>  (1) 
3.60149527

$$$$
