
     RDKit          3D

 44 47  0  0  1  0  0  0  0  0999 V2000
   46.9880   31.5790   44.6210 C   0  0  2  0  0  0  0  0  0  0  0  0
   44.6240   36.2430   44.1430 C   0  0  0  0  0  0  0  0  0  0  0  0
   44.5410   35.7800   42.8450 C   0  0  0  0  0  0  0  0  0  0  0  0
   44.8070   34.4000   42.6080 C   0  0  0  0  0  0  0  0  0  0  0  0
   45.1130   33.7300   43.7490 N   0  0  0  0  0  0  0  0  0  0  0  0
   45.2020   34.1010   44.9520 C   0  0  0  0  0  0  0  0  0  0  0  0
   44.9460   35.4050   45.1350 N   0  0  0  0  0  0  0  0  0  0  0  0
   45.5340   33.2620   46.0150 N   0  0  0  0  0  0  0  0  0  0  0  0
   45.1750   33.3610   47.2970 N   0  0  0  0  0  0  0  0  0  0  0  0
   45.7110   32.3430   47.9820 C   0  0  0  0  0  0  0  0  0  0  0  0
   46.4110   31.6090   47.0940 C   0  0  0  0  0  0  0  0  0  0  0  0
   46.3180   32.1740   45.8150 C   0  0  0  0  0  0  0  0  0  0  0  0
   47.8000   32.6440   43.9480 C   0  0  0  0  0  0  0  0  0  0  0  0
   46.1110   30.9320   43.6860 C   0  0  0  0  0  0  0  0  0  0  0  0
   46.0740   29.1220   43.7580 S   0  0  0  0  0  0  0  0  0  0  0  0
   45.9540   28.4030   45.3270 C   0  0  0  0  0  0  0  0  0  0  0  0
   44.6330   28.1410   45.6570 C   0  0  0  0  0  0  0  0  0  0  0  0
   44.2350   27.5420   46.8630 C   0  0  0  0  0  0  0  0  0  0  0  0
   45.2300   27.2100   47.7420 C   0  0  0  0  0  0  0  0  0  0  0  0
   46.5200   27.4630   47.4270 C   0  0  0  0  0  0  0  0  0  0  0  0
   46.9000   28.0470   46.2480 C   0  0  0  0  0  0  0  0  0  0  0  0
   48.2580   28.2880   45.9120 N   0  0  0  0  0  0  0  0  0  0  0  0
   48.8340   27.2530   45.2730 N   0  0  0  0  0  0  0  0  0  0  0  0
   50.1000   27.4940   44.9800 C   0  0  0  0  0  0  0  0  0  0  0  0
   50.3980   28.7590   45.4430 C   0  0  0  0  0  0  0  0  0  0  0  0
   49.2400   29.2370   46.0200 C   0  0  0  0  0  0  0  0  0  0  0  0
   47.6280   30.7650   44.9922 H   0  0  0  0  0  0  0  0  0  0  0  0
   44.4251   37.3025   44.3619 H   0  0  0  0  0  0  0  0  0  0  0  0
   44.2774   36.4561   42.0183 H   0  0  0  0  0  0  0  0  0  0  0  0
   44.7688   33.9309   41.6138 H   0  0  0  0  0  0  0  0  0  0  0  0
   45.6016   32.1445   49.0584 H   0  0  0  0  0  0  0  0  0  0  0  0
   46.9748   30.6967   47.3385 H   0  0  0  0  0  0  0  0  0  0  0  0
   48.2810   33.2748   44.7100 H   0  0  0  0  0  0  0  0  0  0  0  0
   48.5717   32.1748   43.3200 H   0  0  0  0  0  0  0  0  0  0  0  0
   47.1432   33.2639   43.3200 H   0  0  0  0  0  0  0  0  0  0  0  0
   46.4251   31.2226   42.6727 H   0  0  0  0  0  0  0  0  0  0  0  0
   45.0960   31.2614   43.9529 H   0  0  0  0  0  0  0  0  0  0  0  0
   43.8526   28.4181   44.9330 H   0  0  0  0  0  0  0  0  0  0  0  0
   43.1761   27.3492   47.0900 H   0  0  0  0  0  0  0  0  0  0  0  0
   44.9804   26.7379   48.7036 H   0  0  0  0  0  0  0  0  0  0  0  0
   47.3006   27.1870   48.1512 H   0  0  0  0  0  0  0  0  0  0  0  0
   50.7896   26.8112   44.4620 H   0  0  0  0  0  0  0  0  0  0  0  0
   51.3635   29.2807   45.3673 H   0  0  0  0  0  0  0  0  0  0  0  0
   49.1235   30.2237   46.4920 H   0  0  0  0  0  0  0  0  0  0  0  0
  1 12  1  0
  2  7  2  0
  3  2  1  0
  4  3  2  0
  4  5  1  0
  5  6  2  0
  6  7  1  0
  6  8  1  0
  8  9  1  0
  9 10  2  0
 11 10  1  0
 12  8  1  0
 12 11  2  0
 13  1  1  0
 14 15  1  0
 14  1  1  0
 15 16  1  0
 16 17  2  0
 16 21  1  0
 17 18  1  0
 18 19  2  0
 20 19  1  0
 21 20  2  0
 22 26  1  0
 22 21  1  0
 23 22  1  0
 24 23  2  0
 24 25  1  0
 25 26  2  0
  1 27  1  1
  2 28  1  0
  3 29  1  0
  4 30  1  0
 10 31  1  0
 11 32  1  0
 13 33  1  0
 13 34  1  0
 13 35  1  0
 14 36  1  0
 14 37  1  0
 17 38  1  0
 18 39  1  0
 19 40  1  0
 20 41  1  0
 24 42  1  0
 25 43  1  0
 26 44  1  0
M  ISO  8  27   8  28  14  29  14  30  14  31  14  32  14  33   8  34   8
M  ISO  8  35   8  36   8  37   8  38  14  39  14  40  14  41  14  42  14
M  ISO  2  43  14  44  14
M  END
>  <minimizedAffinity>  (1) 
-4.29874611

>  <minimizedRMSD>  (1) 
1.25030935

$$$$
