
     RDKit          3D

 24 26  0  0  0  0  0  0  0  0999 V2000
   47.1990   34.9210   41.8950 C   0  0  0  0  0  0  0  0  0  0  0  0
   48.2260   35.6750   41.8340 O   0  0  0  0  0  0  0  0  0  0  0  0
   44.5770   35.9150   44.3990 C   0  0  0  0  0  0  0  0  0  0  0  0
   45.3460   35.9700   43.2280 C   0  0  0  0  0  0  0  0  0  0  0  0
   46.3350   34.9770   43.0610 C   0  0  0  0  0  0  0  0  0  0  0  0
   46.4710   34.0410   44.0450 N   0  0  0  0  0  0  0  0  0  0  0  0
   45.7080   34.0330   45.1470 C   0  0  0  0  0  0  0  0  0  0  0  0
   44.7660   34.9580   45.3340 N   0  0  0  0  0  0  0  0  0  0  0  0
   46.9080   34.0540   40.8590 O   0  0  0  0  0  0  0  0  0  0  0  0
   49.6140   32.9750   37.3960 N   0  0  0  0  0  0  0  0  0  0  0  0
   48.8210   34.0170   37.0650 C   0  0  0  0  0  0  0  0  0  0  0  0
   48.0530   34.2740   38.1380 N   0  0  0  0  0  0  0  0  0  0  0  0
   48.3510   33.4070   39.1430 C   0  0  0  0  0  0  0  0  0  0  0  0
   47.9100   33.1920   40.4340 C   0  0  0  0  0  0  0  0  0  0  0  0
   48.4450   32.2020   41.1930 N   0  0  0  0  0  0  0  0  0  0  0  0
   49.4230   31.4010   40.7020 C   0  0  0  0  0  0  0  0  0  0  0  0
   49.8490   31.6150   39.4470 N   0  0  0  0  0  0  0  0  0  0  0  0
   49.3560   32.5800   38.6500 C   0  0  0  0  0  0  0  0  0  0  0  0
   43.7968   36.6733   44.5614 H   0  0  0  0  0  0  0  0  0  0  0  0
   45.1855   36.7530   42.4723 H   0  0  0  0  0  0  0  0  0  0  0  0
   45.8610   33.2529   45.9073 H   0  0  0  0  0  0  0  0  0  0  0  0
   50.3150   32.5464   36.7749 H   0  0  0  0  0  0  0  0  0  0  0  0
   48.8064   34.5517   36.1038 H   0  0  0  0  0  0  0  0  0  0  0  0
   49.8557   30.5973   41.3158 H   0  0  0  0  0  0  0  0  0  0  0  0
  1  5  1  0
  2  1  2  0
  3  8  2  0
  4  3  1  0
  5  4  2  0
  5  6  1  0
  6  7  2  0
  7  8  1  0
  9  1  1  0
 10 18  1  0
 11 10  1  0
 11 12  2  0
 12 13  1  0
 13 14  1  0
 14  9  1  0
 14 15  2  0
 16 15  1  0
 17 16  2  0
 18 13  2  0
 18 17  1  0
  3 19  1  0
  4 20  1  0
  7 21  1  0
 10 22  1  0
 11 23  1  0
 16 24  1  0
M  ISO  6  19  14  20  14  21  14  22   9  23  14  24  14
M  END
>  <minimizedAffinity>  (1) 
-4.83652639

>  <minimizedRMSD>  (1) 
2.53926778

$$$$
