
     RDKit          3D

 27 29  0  0  0  0  0  0  0  0999 V2000
   47.4500   33.4700   41.2890 O   0  0  0  0  0  0  0  0  0  0  0  0
   47.2600   33.5240   39.9130 C   0  0  0  0  0  0  0  0  0  0  0  0
   48.3090   33.9670   39.1770 N   0  0  0  0  0  0  0  0  0  0  0  0
   48.2820   34.0770   37.8360 C   0  0  0  0  0  0  0  0  0  0  0  0
   47.1560   33.7310   37.1860 N   0  0  0  0  0  0  0  0  0  0  0  0
   46.0860   33.2850   37.8710 C   0  0  0  0  0  0  0  0  0  0  0  0
   44.9100   32.9180   37.2560 C   0  0  0  0  0  0  0  0  0  0  0  0
   43.8300   32.4660   37.9880 C   0  0  0  0  0  0  0  0  0  0  0  0
   43.9050   32.3690   39.3650 C   0  0  0  0  0  0  0  0  0  0  0  0
   45.0690   32.7270   40.0410 C   0  0  0  0  0  0  0  0  0  0  0  0
   46.1120   33.1720   39.2440 C   0  0  0  0  0  0  0  0  0  0  0  0
   47.4030   34.6760   41.9920 C   0  0  0  0  0  0  0  0  0  0  0  0
   48.2120   35.6160   41.6640 O   0  0  0  0  0  0  0  0  0  0  0  0
   44.6390   35.9520   44.1680 C   0  0  0  0  0  0  0  0  0  0  0  0
   45.4970   35.9000   43.0610 C   0  0  0  0  0  0  0  0  0  0  0  0
   46.4540   34.8520   43.0680 C   0  0  0  0  0  0  0  0  0  0  0  0
   46.4820   33.9840   44.1160 N   0  0  0  0  0  0  0  0  0  0  0  0
   45.6240   34.0940   45.1490 C   0  0  0  0  0  0  0  0  0  0  0  0
   44.7090   35.0650   45.1840 N   0  0  0  0  0  0  0  0  0  0  0  0
   49.1607   34.4416   37.2838 H   0  0  0  0  0  0  0  0  0  0  0  0
   44.8294   32.9862   36.1611 H   0  0  0  0  0  0  0  0  0  0  0  0
   42.9019   32.1806   37.4710 H   0  0  0  0  0  0  0  0  0  0  0  0
   43.0360   32.0052   39.9329 H   0  0  0  0  0  0  0  0  0  0  0  0
   45.1549   32.6609   41.1356 H   0  0  0  0  0  0  0  0  0  0  0  0
   43.8791   36.7461   44.2110 H   0  0  0  0  0  0  0  0  0  0  0  0
   45.4326   36.6266   42.2376 H   0  0  0  0  0  0  0  0  0  0  0  0
   45.6785   33.3718   45.9769 H   0  0  0  0  0  0  0  0  0  0  0  0
  1 12  1  0
  2  1  1  0
  3  2  2  0
  4  3  1  0
  5  4  2  0
  5  6  1  0
  6 11  2  0
  7  6  1  0
  7  8  2  0
  8  9  1  0
  9 10  2  0
 11  2  1  0
 11 10  1  0
 12 16  1  0
 13 12  2  0
 14 19  2  0
 15 16  2  0
 15 14  1  0
 16 17  1  0
 17 18  2  0
 18 19  1  0
  4 20  1  0
  7 21  1  0
  8 22  1  0
  9 23  1  0
 10 24  1  0
 14 25  1  0
 15 26  1  0
 18 27  1  0
M  ISO  8  20  14  21  14  22  14  23  14  24  14  25  14  26  14  27  14
M  END
>  <minimizedAffinity>  (1) 
-4.5965929

>  <minimizedRMSD>  (1) 
1.51238883

$$$$
