
     RDKit          3D

 18 19  0  0  0  0  0  0  0  0999 V2000
   44.4870   36.0040   44.7770 C   0  0  0  0  0  0  0  0  0  0  0  0
   45.0650   36.0220   43.5000 C   0  0  0  0  0  0  0  0  0  0  0  0
   45.9250   34.9600   43.1780 C   0  0  0  0  0  0  0  0  0  0  0  0
   46.1370   34.0010   44.1050 N   0  0  0  0  0  0  0  0  0  0  0  0
   45.5620   34.0210   45.3210 C   0  0  0  0  0  0  0  0  0  0  0  0
   44.7410   35.0150   45.6600 N   0  0  0  0  0  0  0  0  0  0  0  0
   46.5850   34.8610   41.8960 C   0  0  0  0  0  0  0  0  0  0  0  0
   45.9640   34.3810   40.8810 O   0  0  0  0  0  0  0  0  0  0  0  0
   47.8880   35.2750   41.7260 O   0  0  0  0  0  0  0  0  0  0  0  0
   48.9000   34.3190   41.7160 C   0  0  0  0  0  0  0  0  0  0  0  0
   49.1550   33.1840   41.0800 N   0  0  0  0  0  0  0  0  0  0  0  0
   50.2940   32.6870   41.4760 O   0  0  0  0  0  0  0  0  0  0  0  0
   50.8250   33.4910   42.3930 C   0  0  0  0  0  0  0  0  0  0  0  0
   49.9520   34.5260   42.5520 N   0  0  0  0  0  0  0  0  0  0  0  0
   43.8074   36.8186   45.0677 H   0  0  0  0  0  0  0  0  0  0  0  0
   44.8547   36.8301   42.7840 H   0  0  0  0  0  0  0  0  0  0  0  0
   45.7702   33.2137   46.0386 H   0  0  0  0  0  0  0  0  0  0  0  0
   51.7804   33.3488   42.9194 H   0  0  0  0  0  0  0  0  0  0  0  0
  1  6  2  0
  2  1  1  0
  3  2  2  0
  3  4  1  0
  4  5  2  0
  5  6  1  0
  7  3  1  0
  8  7  2  0
  9  7  1  0
 10  9  1  0
 10 14  1  0
 11 12  1  0
 11 10  2  0
 12 13  1  0
 13 14  2  0
  1 15  1  0
  2 16  1  0
  5 17  1  0
 13 18  1  0
M  ISO  4  15  14  16  14  17  14  18  14
M  END
>  <minimizedAffinity>  (1) 
-4.42821312

>  <minimizedRMSD>  (1) 
2.82177567

$$$$
