
     RDKit          3D

 17 17  0  0  0  0  0  0  0  0999 V2000
   44.5360   36.0290   44.5300 C   0  0  0  0  0  0  0  0  0  0  0  0
   45.2200   36.0310   43.3130 C   0  0  0  0  0  0  0  0  0  0  0  0
   46.1350   34.9990   43.0510 C   0  0  0  0  0  0  0  0  0  0  0  0
   46.2920   34.0530   44.0230 N   0  0  0  0  0  0  0  0  0  0  0  0
   45.6180   34.0820   45.1860 C   0  0  0  0  0  0  0  0  0  0  0  0
   44.7460   35.0560   45.4460 N   0  0  0  0  0  0  0  0  0  0  0  0
   46.8950   34.9030   41.8260 C   0  0  0  0  0  0  0  0  0  0  0  0
   46.3830   34.3500   40.8020 O   0  0  0  0  0  0  0  0  0  0  0  0
   48.1840   35.4200   41.7740 O   0  0  0  0  0  0  0  0  0  0  0  0
   49.2860   34.6310   42.0860 C   0  0  0  0  0  0  0  0  0  0  0  0
   50.1990   35.1490   43.0670 N   0  0  0  0  0  0  0  0  0  0  0  0
   49.4710   33.5160   41.5340 O   0  0  0  0  0  0  0  0  0  0  0  0
   43.8152   36.8310   44.7474 H   0  0  0  0  0  0  0  0  0  0  0  0
   45.0453   36.8262   42.5733 H   0  0  0  0  0  0  0  0  0  0  0  0
   45.7883   33.2920   45.9323 H   0  0  0  0  0  0  0  0  0  0  0  0
   51.0313   34.6043   43.3342 H   0  0  0  0  0  0  0  0  0  0  0  0
   50.0212   36.0651   43.5030 H   0  0  0  0  0  0  0  0  0  0  0  0
  1  6  2  0
  2  1  1  0
  3  2  2  0
  3  4  1  0
  4  5  2  0
  5  6  1  0
  7  3  1  0
  8  7  2  0
  9  7  1  0
  9 10  1  0
 10 11  1  0
 12 10  2  0
  1 13  1  0
  2 14  1  0
  5 15  1  0
 11 16  1  0
 11 17  1  0
M  ISO  3  13  14  14  14  15  14
M  END
>  <minimizedAffinity>  (1) 
-4.55026674

>  <minimizedRMSD>  (1) 
2.54917574

$$$$
