
     RDKit          3D

 26 27  0  0  0  0  0  0  0  0999 V2000
   46.5420   34.7120   41.9870 C   0  0  0  0  0  0  0  0  0  0  0  0
   47.7190   35.1830   41.7860 O   0  0  0  0  0  0  0  0  0  0  0  0
   44.4810   35.9620   44.8620 C   0  0  0  0  0  0  0  0  0  0  0  0
   45.0430   35.9410   43.5720 C   0  0  0  0  0  0  0  0  0  0  0  0
   45.8950   34.8650   43.2680 C   0  0  0  0  0  0  0  0  0  0  0  0
   46.1100   33.9310   44.2400 N   0  0  0  0  0  0  0  0  0  0  0  0
   45.5570   33.9850   45.4550 C   0  0  0  0  0  0  0  0  0  0  0  0
   44.7340   35.0120   45.7690 N   0  0  0  0  0  0  0  0  0  0  0  0
   45.8860   34.0450   40.9490 O   0  0  0  0  0  0  0  0  0  0  0  0
   47.7470   33.1610   37.3190 C   0  0  0  0  0  0  0  0  0  0  0  0
   48.4100   33.9250   38.2720 C   0  0  0  0  0  0  0  0  0  0  0  0
   47.8370   34.2470   39.4940 C   0  0  0  0  0  0  0  0  0  0  0  0
   46.5460   33.7720   39.7450 C   0  0  0  0  0  0  0  0  0  0  0  0
   45.8940   33.0160   38.7990 C   0  0  0  0  0  0  0  0  0  0  0  0
   46.4740   32.6960   37.5760 C   0  0  0  0  0  0  0  0  0  0  0  0
   48.5410   32.7960   35.7960 S   0  0  0  0  0  0  0  0  0  0  0  0
   49.5760   31.7360   35.9970 O   0  0  0  0  0  0  0  0  0  0  0  0
   47.5130   32.2840   34.8260 O   0  0  0  0  0  0  0  0  0  0  0  0
   43.8094   36.7895   45.1343 H   0  0  0  0  0  0  0  0  0  0  0  0
   44.8258   36.7294   42.8363 H   0  0  0  0  0  0  0  0  0  0  0  0
   45.7694   33.1996   46.1953 H   0  0  0  0  0  0  0  0  0  0  0  0
   49.4246   34.2871   38.0497 H   0  0  0  0  0  0  0  0  0  0  0  0
   48.3774   34.8525   40.2365 H   0  0  0  0  0  0  0  0  0  0  0  0
   44.8791   32.6520   39.0171 H   0  0  0  0  0  0  0  0  0  0  0  0
   45.9330   32.0894   36.8348 H   0  0  0  0  0  0  0  0  0  0  0  0
   49.1393   33.9308   35.3153 H   0  0  0  0  0  0  0  0  0  0  0  0
  1  5  1  0
  2  1  2  0
  3  8  2  0
  4  3  1  0
  5  4  2  0
  5  6  1  0
  6  7  2  0
  7  8  1  0
  9  1  1  0
 10 15  2  0
 10 11  1  0
 11 12  2  0
 12 13  1  0
 13  9  1  0
 14 13  2  0
 15 14  1  0
 16 17  2  0
 16 10  1  0
 18 16  2  0
  3 19  1  0
  4 20  1  0
  7 21  1  0
 11 22  1  0
 12 23  1  0
 14 24  1  0
 15 25  1  0
 16 26  1  0
M  ISO  8  19  14  20  14  21  14  22  14  23  14  24  14  25  14  26  11
M  END
>  <minimizedAffinity>  (1) 
-4.61187077

>  <minimizedRMSD>  (1) 
0.739134669

$$$$
