
     RDKit          3D

 20 21  0  0  0  0  0  0  0  0999 V2000
   47.2070   34.7970   41.9290 C   0  0  0  0  0  0  0  0  0  0  0  0
   48.2210   35.5760   41.8210 O   0  0  0  0  0  0  0  0  0  0  0  0
   44.5700   35.9010   44.3630 C   0  0  0  0  0  0  0  0  0  0  0  0
   45.3530   35.9020   43.2000 C   0  0  0  0  0  0  0  0  0  0  0  0
   46.3390   34.9030   43.0730 C   0  0  0  0  0  0  0  0  0  0  0  0
   46.4590   34.0030   44.0950 N   0  0  0  0  0  0  0  0  0  0  0  0
   45.6840   34.0400   45.1930 C   0  0  0  0  0  0  0  0  0  0  0  0
   44.7460   34.9750   45.3370 N   0  0  0  0  0  0  0  0  0  0  0  0
   46.9580   33.8640   40.9480 O   0  0  0  0  0  0  0  0  0  0  0  0
   47.4820   34.0330   39.6720 C   0  0  0  0  0  0  0  0  0  0  0  0
   46.9350   33.3240   38.6210 C   0  0  0  0  0  0  0  0  0  0  0  0
   47.6280   33.6680   37.4710 C   0  0  0  0  0  0  0  0  0  0  0  0
   48.5730   34.5720   37.8510 N   0  0  0  0  0  0  0  0  0  0  0  0
   48.4860   34.7900   39.1680 N   0  0  0  0  0  0  0  0  0  0  0  0
   43.7939   36.6705   44.4881 H   0  0  0  0  0  0  0  0  0  0  0  0
   45.2029   36.6565   42.4137 H   0  0  0  0  0  0  0  0  0  0  0  0
   45.8263   33.2881   45.9831 H   0  0  0  0  0  0  0  0  0  0  0  0
   46.0983   32.6128   38.6850 H   0  0  0  0  0  0  0  0  0  0  0  0
   47.4502   33.2870   36.4545 H   0  0  0  0  0  0  0  0  0  0  0  0
   49.2522   35.0202   37.2196 H   0  0  0  0  0  0  0  0  0  0  0  0
  1  5  1  0
  2  1  2  0
  3  8  2  0
  4  3  1  0
  5  4  2  0
  5  6  1  0
  6  7  2  0
  7  8  1  0
  9  1  1  0
 10  9  1  0
 11 10  1  0
 12 13  1  0
 12 11  2  0
 13 14  1  0
 14 10  2  0
  3 15  1  0
  4 16  1  0
  7 17  1  0
 11 18  1  0
 12 19  1  0
 13 20  1  0
M  ISO  6  15  14  16  14  17  14  18  14  19  14  20   9
M  END
>  <minimizedAffinity>  (1) 
-4.28890705

>  <minimizedRMSD>  (1) 
0.655244768

$$$$
