
     RDKit          3D

 29 30  0  0  0  0  0  0  0  0999 V2000
   44.5750   35.9540   44.3970 C   0  0  0  0  0  0  0  0  0  0  0  0
   45.3480   35.9100   43.2320 C   0  0  0  0  0  0  0  0  0  0  0  0
   46.2940   34.8660   43.1390 C   0  0  0  0  0  0  0  0  0  0  0  0
   46.3810   33.9900   44.1810 N   0  0  0  0  0  0  0  0  0  0  0  0
   45.6120   34.0810   45.2780 C   0  0  0  0  0  0  0  0  0  0  0  0
   44.7070   35.0650   45.3860 N   0  0  0  0  0  0  0  0  0  0  0  0
   47.1730   34.6880   41.9900 C   0  0  0  0  0  0  0  0  0  0  0  0
   48.0710   35.5660   41.7370 O   0  0  0  0  0  0  0  0  0  0  0  0
   47.0240   33.5760   41.1870 O   0  0  0  0  0  0  0  0  0  0  0  0
   46.9620   33.7800   39.7910 C   0  0  0  0  0  0  0  0  0  0  0  0
   48.3370   33.5910   39.1550 C   0  0  0  0  0  0  0  0  0  0  0  0
   48.2060   34.2670   37.7880 C   0  0  0  0  0  0  0  0  0  0  0  0
   47.2960   33.3750   36.9780 C   0  0  0  0  0  0  0  0  0  0  0  0
   45.9580   33.2650   37.6370 C   0  0  0  0  0  0  0  0  0  0  0  0
   46.0230   32.8540   39.0930 C   0  0  0  0  0  0  0  0  0  0  0  0
   43.8273   36.7537   44.5035 H   0  0  0  0  0  0  0  0  0  0  0  0
   45.2250   36.6514   42.4288 H   0  0  0  0  0  0  0  0  0  0  0  0
   45.7245   33.3471   46.0896 H   0  0  0  0  0  0  0  0  0  0  0  0
   46.5966   34.8105   39.6702 H   0  0  0  0  0  0  0  0  0  0  0  0
   49.1176   34.0769   39.7587 H   0  0  0  0  0  0  0  0  0  0  0  0
   48.6276   32.5328   39.0790 H   0  0  0  0  0  0  0  0  0  0  0  0
   47.7646   35.2688   37.8960 H   0  0  0  0  0  0  0  0  0  0  0  0
   49.1848   34.3967   37.3032 H   0  0  0  0  0  0  0  0  0  0  0  0
   47.7452   32.3740   36.8989 H   0  0  0  0  0  0  0  0  0  0  0  0
   47.1672   33.8099   35.9759 H   0  0  0  0  0  0  0  0  0  0  0  0
   45.4601   34.2439   37.5754 H   0  0  0  0  0  0  0  0  0  0  0  0
   45.4049   32.4757   37.1068 H   0  0  0  0  0  0  0  0  0  0  0  0
   45.0231   32.9247   39.5460 H   0  0  0  0  0  0  0  0  0  0  0  0
   46.3735   31.8151   39.1820 H   0  0  0  0  0  0  0  0  0  0  0  0
  1  6  2  0
  2  1  1  0
  3  2  2  0
  3  4  1  0
  4  5  2  0
  5  6  1  0
  7  3  1  0
  8  7  2  0
  9  7  1  0
 10  9  1  0
 11 10  1  0
 12 11  1  0
 13 14  1  0
 13 12  1  0
 14 15  1  0
 15 10  1  0
  1 16  1  0
  2 17  1  0
  5 18  1  0
 10 19  1  0
 11 20  1  0
 11 21  1  0
 12 22  1  0
 12 23  1  0
 13 24  1  0
 13 25  1  0
 14 26  1  0
 14 27  1  0
 15 28  1  0
 15 29  1  0
M  ISO  8  16  14  17  14  18  14  19  13  20  13  21  13  22  13  23  13
M  ISO  6  24  13  25  13  26  13  27  13  28  13  29  13
M  END
>  <minimizedAffinity>  (1) 
-4.29893303

>  <minimizedRMSD>  (1) 
0.790831685

$$$$
