
     RDKit          3D

 21 22  0  0  0  0  0  0  0  0999 V2000
   47.8130   34.6210   41.4950 C   0  0  0  0  0  0  0  0  0  0  0  0
   48.4580   35.6940   41.7490 O   0  0  0  0  0  0  0  0  0  0  0  0
   46.2750   33.1290   38.4160 C   0  0  0  0  0  0  0  0  0  0  0  0
   46.4310   33.4390   39.7750 C   0  0  0  0  0  0  0  0  0  0  0  0
   47.5440   34.2340   40.1370 C   0  0  0  0  0  0  0  0  0  0  0  0
   48.3760   34.6390   39.1550 N   0  0  0  0  0  0  0  0  0  0  0  0
   48.1950   34.3210   37.8570 C   0  0  0  0  0  0  0  0  0  0  0  0
   47.1430   33.5660   37.4890 N   0  0  0  0  0  0  0  0  0  0  0  0
   47.3830   33.8460   42.5590 O   0  0  0  0  0  0  0  0  0  0  0  0
   46.4090   34.4420   43.3780 C   0  0  0  0  0  0  0  0  0  0  0  0
   45.6810   35.5410   42.9850 C   0  0  0  0  0  0  0  0  0  0  0  0
   44.7310   36.0820   43.8450 C   0  0  0  0  0  0  0  0  0  0  0  0
   44.5630   35.4920   45.0460 N   0  0  0  0  0  0  0  0  0  0  0  0
   45.2620   34.4190   45.4500 C   0  0  0  0  0  0  0  0  0  0  0  0
   46.1910   33.8990   44.5960 N   0  0  0  0  0  0  0  0  0  0  0  0
   45.4201   32.5124   38.1015 H   0  0  0  0  0  0  0  0  0  0  0  0
   45.7164   33.0783   40.5295 H   0  0  0  0  0  0  0  0  0  0  0  0
   48.9072   34.6786   37.0988 H   0  0  0  0  0  0  0  0  0  0  0  0
   45.8494   35.9900   41.9950 H   0  0  0  0  0  0  0  0  0  0  0  0
   44.1369   36.9613   43.5553 H   0  0  0  0  0  0  0  0  0  0  0  0
   45.0908   33.9721   46.4405 H   0  0  0  0  0  0  0  0  0  0  0  0
  1  2  2  0
  1  9  1  0
  3  4  2  0
  4  5  1  0
  5  1  1  0
  6  5  2  0
  7  6  1  0
  8  7  2  0
  8  3  1  0
  9 10  1  0
 10 15  1  0
 11 10  2  0
 11 12  1  0
 12 13  2  0
 13 14  1  0
 15 14  2  0
  3 16  1  0
  4 17  1  0
  7 18  1  0
 11 19  1  0
 12 20  1  0
 14 21  1  0
M  ISO  6  16  14  17  14  18  14  19  14  20  14  21  14
M  END
>  <minimizedAffinity>  (1) 
-4.30735159

>  <minimizedRMSD>  (1) 
5.88395691

$$$$
