
     RDKit          3D

 23 24  0  0  0  0  0  0  0  0999 V2000
   47.3890   34.0500   42.7390 C   0  0  0  0  0  0  0  0  0  0  0  0
   48.0730   32.9680   42.8170 O   0  0  0  0  0  0  0  0  0  0  0  0
   44.5970   35.6580   44.6630 C   0  0  0  0  0  0  0  0  0  0  0  0
   45.4940   35.4220   43.6040 C   0  0  0  0  0  0  0  0  0  0  0  0
   46.4260   34.3800   43.7570 C   0  0  0  0  0  0  0  0  0  0  0  0
   46.3970   33.6760   44.9110 N   0  0  0  0  0  0  0  0  0  0  0  0
   45.5200   33.9310   45.9080 C   0  0  0  0  0  0  0  0  0  0  0  0
   44.6210   34.9190   45.7880 N   0  0  0  0  0  0  0  0  0  0  0  0
   47.5930   34.8970   41.6570 O   0  0  0  0  0  0  0  0  0  0  0  0
   47.4070   34.3740   40.3620 C   0  0  0  0  0  0  0  0  0  0  0  0
   46.2280   33.6750   40.1710 C   0  0  0  0  0  0  0  0  0  0  0  0
   45.9910   33.1380   38.9220 C   0  0  0  0  0  0  0  0  0  0  0  0
   46.8700   33.2670   37.8630 C   0  0  0  0  0  0  0  0  0  0  0  0
   48.0350   33.9800   38.1170 C   0  0  0  0  0  0  0  0  0  0  0  0
   48.3310   34.5420   39.3490 C   0  0  0  0  0  0  0  0  0  0  0  0
   43.8576   36.4669   44.5688 H   0  0  0  0  0  0  0  0  0  0  0  0
   45.4669   36.0314   42.6887 H   0  0  0  0  0  0  0  0  0  0  0  0
   45.5440   33.3234   46.8247 H   0  0  0  0  0  0  0  0  0  0  0  0
   45.5028   33.5513   40.9888 H   0  0  0  0  0  0  0  0  0  0  0  0
   45.0568   32.5799   38.7613 H   0  0  0  0  0  0  0  0  0  0  0  0
   46.6591   32.8301   36.8757 H   0  0  0  0  0  0  0  0  0  0  0  0
   48.7594   34.1049   37.2987 H   0  0  0  0  0  0  0  0  0  0  0  0
   49.2647   35.0997   39.5135 H   0  0  0  0  0  0  0  0  0  0  0  0
  1  2  2  0
  1  5  1  0
  3  8  2  0
  4  5  2  0
  4  3  1  0
  5  6  1  0
  6  7  2  0
  8  7  1  0
  9  1  1  0
 10  9  1  0
 11 10  2  0
 12 11  1  0
 13 14  1  0
 13 12  2  0
 14 15  2  0
 15 10  1  0
  3 16  1  0
  4 17  1  0
  7 18  1  0
 11 19  1  0
 12 20  1  0
 13 21  1  0
 14 22  1  0
 15 23  1  0
M  ISO  8  16  14  17  14  18  14  19  14  20  14  21  14  22  14  23  14
M  END
>  <minimizedAffinity>  (1) 
-4.24212027

>  <minimizedRMSD>  (1) 
1.47426999

$$$$
