
     RDKit          3D

 25 26  0  0  1  0  0  0  0  0999 V2000
   44.4870   35.8010   45.0070 C   0  0  0  0  0  0  0  0  0  0  0  0
   45.0320   35.9340   43.7210 C   0  0  0  0  0  0  0  0  0  0  0  0
   45.9480   34.9580   43.3120 C   0  0  0  0  0  0  0  0  0  0  0  0
   46.2480   33.9510   44.1790 N   0  0  0  0  0  0  0  0  0  0  0  0
   45.7000   33.8660   45.4010 C   0  0  0  0  0  0  0  0  0  0  0  0
   44.8190   34.7870   45.8210 N   0  0  0  0  0  0  0  0  0  0  0  0
   46.5830   34.9730   42.0180 C   0  0  0  0  0  0  0  0  0  0  0  0
   47.7650   35.4110   41.8710 O   0  0  0  0  0  0  0  0  0  0  0  0
   45.9080   34.5050   40.8900 O   0  0  0  0  0  0  0  0  0  0  0  0
   47.6670   34.2110   39.3220 N   0  0  0  0  0  0  0  0  0  0  0  0
   48.4280   33.0960   38.8020 C   0  0  0  0  0  0  0  0  0  0  0  0
   48.1670   31.9220   39.7060 C   0  0  0  0  0  0  0  0  0  0  0  0
   47.3270   32.5230   40.8110 C   0  0  0  0  0  0  0  0  0  0  0  0
   46.5780   33.6050   40.0640 C   0  0  1  0  0  0  0  0  0  0  0  0
   43.7645   36.5519   45.3593 H   0  0  0  0  0  0  0  0  0  0  0  0
   44.7515   36.7693   43.0626 H   0  0  0  0  0  0  0  0  0  0  0  0
   45.9756   33.0333   46.0648 H   0  0  0  0  0  0  0  0  0  0  0  0
   47.3028   34.7914   38.5530 H   0  0  0  0  0  0  0  0  0  0  0  0
   48.1031   32.8627   37.7773 H   0  0  0  0  0  0  0  0  0  0  0  0
   49.5012   33.3351   38.7710 H   0  0  0  0  0  0  0  0  0  0  0  0
   47.6163   31.1304   39.1768 H   0  0  0  0  0  0  0  0  0  0  0  0
   49.0876   31.4443   40.0725 H   0  0  0  0  0  0  0  0  0  0  0  0
   46.6383   31.7811   41.2414 H   0  0  0  0  0  0  0  0  0  0  0  0
   47.9095   32.8904   41.6687 H   0  0  0  0  0  0  0  0  0  0  0  0
   45.7518   33.2284   39.4430 H   0  0  0  0  0  0  0  0  0  0  0  0
  1  6  2  0
  2  1  1  0
  3  2  2  0
  3  4  1  0
  4  5  2  0
  5  6  1  0
  7  3  1  0
  8  7  2  0
  9  7  1  0
 10 14  1  0
 11 10  1  0
 11 12  1  0
 12 13  1  0
 14 13  1  0
 14  9  1  0
  1 15  1  0
  2 16  1  0
  5 17  1  0
 10 18  1  0
 11 19  1  0
 11 20  1  0
 12 21  1  0
 12 22  1  0
 13 23  1  0
 13 24  1  0
 14 25  1  6
M  ISO  8  15  14  16  14  17  14  18   5  19  13  20  13  21  13  22  13
M  ISO  3  23  13  24  13  25  13
M  END
>  <minimizedAffinity>  (1) 
-3.97813272

>  <minimizedRMSD>  (1) 
0.990315676

$$$$
