
     RDKit          3D

 20 21  0  0  0  0  0  0  0  0999 V2000
   44.5900   35.8800   44.3300 C   0  0  0  0  0  0  0  0  0  0  0  0
   45.3690   35.8900   43.1690 C   0  0  0  0  0  0  0  0  0  0  0  0
   46.3630   34.8930   43.0490 C   0  0  0  0  0  0  0  0  0  0  0  0
   46.4870   34.0020   44.0630 N   0  0  0  0  0  0  0  0  0  0  0  0
   45.7230   34.0210   45.1620 C   0  0  0  0  0  0  0  0  0  0  0  0
   44.7690   34.9640   45.2980 N   0  0  0  0  0  0  0  0  0  0  0  0
   47.2390   34.7810   41.9100 C   0  0  0  0  0  0  0  0  0  0  0  0
   48.2190   35.5890   41.7570 O   0  0  0  0  0  0  0  0  0  0  0  0
   47.0340   33.8010   40.9640 O   0  0  0  0  0  0  0  0  0  0  0  0
   47.4980   33.9930   39.6660 C   0  0  0  0  0  0  0  0  0  0  0  0
   46.7290   33.3410   38.6930 C   0  0  0  0  0  0  0  0  0  0  0  0
   47.3020   33.6220   37.4910 N   0  0  0  0  0  0  0  0  0  0  0  0
   48.3840   34.4140   37.7020 C   0  0  0  0  0  0  0  0  0  0  0  0
   48.4780   34.6230   39.0350 N   0  0  0  0  0  0  0  0  0  0  0  0
   43.8081   36.6435   44.4552 H   0  0  0  0  0  0  0  0  0  0  0  0
   45.2145   36.6427   42.3818 H   0  0  0  0  0  0  0  0  0  0  0  0
   45.8730   33.2698   45.9515 H   0  0  0  0  0  0  0  0  0  0  0  0
   45.8361   32.7225   38.8668 H   0  0  0  0  0  0  0  0  0  0  0  0
   49.0598   34.8124   36.9310 H   0  0  0  0  0  0  0  0  0  0  0  0
   49.2059   35.1897   39.4931 H   0  0  0  0  0  0  0  0  0  0  0  0
  1  6  2  0
  2  1  1  0
  3  2  2  0
  3  4  1  0
  4  5  2  0
  5  6  1  0
  7  3  1  0
  8  7  2  0
  9  7  1  0
 10  9  1  0
 11 10  2  0
 12 13  2  0
 12 11  1  0
 13 14  1  0
 14 10  1  0
  1 15  1  0
  2 16  1  0
  5 17  1  0
 11 18  1  0
 13 19  1  0
 14 20  1  0
M  ISO  6  15  14  16  14  17  14  18  14  19  14  20   9
M  END
>  <minimizedAffinity>  (1) 
-4.43794537

>  <minimizedRMSD>  (1) 
0.741730452

$$$$
