
     RDKit          3D

 20 21  0  0  0  0  0  0  0  0999 V2000
   44.5490   35.9770   44.5560 C   0  0  0  0  0  0  0  0  0  0  0  0
   45.2580   35.6820   43.3870 C   0  0  0  0  0  0  0  0  0  0  0  0
   46.0760   34.5270   43.3980 C   0  0  0  0  0  0  0  0  0  0  0  0
   46.1050   33.8080   44.5350 N   0  0  0  0  0  0  0  0  0  0  0  0
   45.4190   34.1110   45.6380 C   0  0  0  0  0  0  0  0  0  0  0  0
   44.6300   35.2070   45.6530 N   0  0  0  0  0  0  0  0  0  0  0  0
   46.8520   34.1270   42.2530 C   0  0  0  0  0  0  0  0  0  0  0  0
   46.4720   34.4510   41.0730 O   0  0  0  0  0  0  0  0  0  0  0  0
   48.0120   33.3910   42.4090 O   0  0  0  0  0  0  0  0  0  0  0  0
   49.1980   33.8340   41.7400 C   0  0  0  0  0  0  0  0  0  0  0  0
   50.0510   34.8100   42.5590 C   0  0  0  0  0  0  0  0  0  0  0  0
   50.5190   33.4120   42.2630 C   0  0  0  0  0  0  0  0  0  0  0  0
   43.9045   36.8682   44.5774 H   0  0  0  0  0  0  0  0  0  0  0  0
   45.1829   36.3217   42.4953 H   0  0  0  0  0  0  0  0  0  0  0  0
   45.4954   33.4720   46.5301 H   0  0  0  0  0  0  0  0  0  0  0  0
   48.7407   33.8027   40.7401 H   0  0  0  0  0  0  0  0  0  0  0  0
   50.5317   35.6705   42.0707 H   0  0  0  0  0  0  0  0  0  0  0  0
   49.9029   35.4150   43.4657 H   0  0  0  0  0  0  0  0  0  0  0  0
   50.5725   32.6718   43.0750 H   0  0  0  0  0  0  0  0  0  0  0  0
   51.4248   32.9869   41.8060 H   0  0  0  0  0  0  0  0  0  0  0  0
  1  6  2  0
  2  3  2  0
  2  1  1  0
  3  4  1  0
  4  5  2  0
  5  6  1  0
  7  9  1  0
  7  3  1  0
  8  7  2  0
 10 12  1  0
 10  9  1  0
 10 11  1  0
 12 11  1  0
  1 13  1  0
  2 14  1  0
  5 15  1  0
 10 16  1  0
 11 17  1  0
 11 18  1  0
 12 19  1  0
 12 20  1  0
M  ISO  8  13  14  14  14  15  14  16  13  17  13  18  13  19  13  20  13
M  END
>  <minimizedAffinity>  (1) 
-4.00046062

>  <minimizedRMSD>  (1) 
2.2150681

$$$$
