
     RDKit          3D

 29 30  0  0  0  0  0  0  0  0999 V2000
   47.0620   34.5900   41.8320 C   0  0  0  0  0  0  0  0  0  0  0  0
   47.9440   35.4150   41.4700 O   0  0  0  0  0  0  0  0  0  0  0  0
   44.6240   36.0670   44.2470 C   0  0  0  0  0  0  0  0  0  0  0  0
   45.3750   35.9320   43.0690 C   0  0  0  0  0  0  0  0  0  0  0  0
   46.2370   34.8320   42.9750 C   0  0  0  0  0  0  0  0  0  0  0  0
   46.2610   34.0060   44.0300 N   0  0  0  0  0  0  0  0  0  0  0  0
   45.5470   34.1390   45.1440 C   0  0  0  0  0  0  0  0  0  0  0  0
   44.7190   35.1860   45.2460 N   0  0  0  0  0  0  0  0  0  0  0  0
   46.9560   33.4790   41.0720 O   0  0  0  0  0  0  0  0  0  0  0  0
   46.2080   33.3520   39.9480 C   0  0  0  0  0  0  0  0  0  0  0  0
   44.7950   33.3430   39.9260 C   0  0  0  0  0  0  0  0  0  0  0  0
   44.4340   33.2010   38.6440 N   0  0  0  0  0  0  0  0  0  0  0  0
   45.5310   33.1220   37.8660 C   0  0  0  0  0  0  0  0  0  0  0  0
   46.6230   33.2140   38.6870 N   0  0  0  0  0  0  0  0  0  0  0  0
   47.8760   33.1150   37.9700 C   0  0  0  0  0  0  0  0  0  0  0  0
   48.3740   34.5020   37.5820 C   0  0  0  0  0  0  0  0  0  0  0  0
   47.6690   32.4230   36.5950 C   0  0  0  0  0  0  0  0  0  0  0  0
   43.9388   36.9214   44.3501 H   0  0  0  0  0  0  0  0  0  0  0  0
   45.2899   36.6622   42.2508 H   0  0  0  0  0  0  0  0  0  0  0  0
   45.6345   33.4074   45.9608 H   0  0  0  0  0  0  0  0  0  0  0  0
   44.1232   33.4347   40.7922 H   0  0  0  0  0  0  0  0  0  0  0  0
   45.5466   33.0051   36.7723 H   0  0  0  0  0  0  0  0  0  0  0  0
   48.5653   32.5686   38.6306 H   0  0  0  0  0  0  0  0  0  0  0  0
   48.5831   35.0842   38.4916 H   0  0  0  0  0  0  0  0  0  0  0  0
   49.2945   34.4080   36.9872 H   0  0  0  0  0  0  0  0  0  0  0  0
   47.6039   35.0150   36.9872 H   0  0  0  0  0  0  0  0  0  0  0  0
   47.3570   31.3800   36.7527 H   0  0  0  0  0  0  0  0  0  0  0  0
   46.8912   32.9568   36.0292 H   0  0  0  0  0  0  0  0  0  0  0  0
   48.6122   32.4420   36.0292 H   0  0  0  0  0  0  0  0  0  0  0  0
  1  5  1  0
  2  1  2  0
  3  8  2  0
  4  3  1  0
  5  4  2  0
  5  6  1  0
  6  7  2  0
  7  8  1  0
  9  1  1  0
 10  9  1  0
 11 10  2  0
 12 11  1  0
 13 12  2  0
 13 14  1  0
 14 10  1  0
 15 14  1  0
 16 15  1  0
 17 15  1  0
  3 18  1  0
  4 19  1  0
  7 20  1  0
 11 21  1  0
 13 22  1  0
 15 23  1  0
 16 24  1  0
 16 25  1  0
 16 26  1  0
 17 27  1  0
 17 28  1  0
 17 29  1  0
M  ISO  8  18  14  19  14  20  14  21  14  22  14  23   8  24   8  25   8
M  ISO  4  26   8  27   8  28   8  29   8
M  END
>  <minimizedAffinity>  (1) 
-4.22658491

>  <minimizedRMSD>  (1) 
2.12114835

$$$$
