
     RDKit          3D

 47 50  0  0  1  0  0  0  0  0999 V2000
   44.7960   33.7130   40.9800 N   0  0  0  0  0  0  0  0  0  0  0  0
   43.5950   34.4550   40.6150 C   0  0  0  0  0  0  0  0  0  0  0  0
   42.4340   34.1300   41.5100 C   0  0  0  0  0  0  0  0  0  0  0  0
   42.2200   32.6910   41.4770 N   0  0  0  0  0  0  0  0  0  0  0  0
   43.3730   32.1090   42.1490 C   0  0  0  0  0  0  0  0  0  0  0  0
   44.6770   32.3450   41.4470 C   0  0  1  0  0  0  0  0  0  0  0  0
   46.6430   34.8030   42.0650 C   0  0  0  0  0  0  0  0  0  0  0  0
   47.9440   35.2610   42.0030 C   0  0  0  0  0  0  0  0  0  0  0  0
   48.7310   35.1350   40.8660 C   0  0  0  0  0  0  0  0  0  0  0  0
   48.1840   34.5170   39.7300 C   0  0  0  0  0  0  0  0  0  0  0  0
   46.8940   34.0640   39.7940 C   0  0  0  0  0  0  0  0  0  0  0  0
   46.1560   34.2080   40.9320 C   0  0  0  0  0  0  0  0  0  0  0  0
   44.4570   36.1330   44.8150 C   0  0  0  0  0  0  0  0  0  0  0  0
   45.1010   36.0640   43.5720 C   0  0  0  0  0  0  0  0  0  0  0  0
   45.9260   34.9910   43.3000 C   0  0  0  0  0  0  0  0  0  0  0  0
   46.0730   34.0490   44.2620 N   0  0  0  0  0  0  0  0  0  0  0  0
   45.4400   34.1340   45.4590 C   0  0  0  0  0  0  0  0  0  0  0  0
   44.6400   35.1700   45.7280 N   0  0  0  0  0  0  0  0  0  0  0  0
   44.9030   31.3150   40.5500 N   0  0  0  0  0  0  0  0  0  0  0  0
   44.2250   31.0890   39.3780 C   0  0  0  0  0  0  0  0  0  0  0  0
   45.0490   30.0680   38.5650 C   0  0  0  0  0  0  0  0  0  0  0  0
   46.3840   30.4680   38.6500 O   0  0  0  0  0  0  0  0  0  0  0  0
   46.9150   30.2220   39.9130 C   0  0  0  0  0  0  0  0  0  0  0  0
   45.8170   30.2860   40.9520 C   0  0  0  0  0  0  0  0  0  0  0  0
   43.8079   35.5317   40.6878 H   0  0  0  0  0  0  0  0  0  0  0  0
   43.3206   34.1698   39.5887 H   0  0  0  0  0  0  0  0  0  0  0  0
   42.6567   34.4494   42.5388 H   0  0  0  0  0  0  0  0  0  0  0  0
   41.5311   34.6553   41.1651 H   0  0  0  0  0  0  0  0  0  0  0  0
   41.3520   32.4450   41.9739 H   0  0  0  0  0  0  0  0  0  0  0  0
   43.4404   32.5435   43.1573 H   0  0  0  0  0  0  0  0  0  0  0  0
   43.2143   31.0206   42.1639 H   0  0  0  0  0  0  0  0  0  0  0  0
   45.5332   32.2877   42.1352 H   0  0  0  0  0  0  0  0  0  0  0  0
   48.3750   35.7459   42.8913 H   0  0  0  0  0  0  0  0  0  0  0  0
   49.7642   35.5124   40.8554 H   0  0  0  0  0  0  0  0  0  0  0  0
   48.7776   34.3998   38.8113 H   0  0  0  0  0  0  0  0  0  0  0  0
   46.4461   33.5769   38.9153 H   0  0  0  0  0  0  0  0  0  0  0  0
   43.7972   36.9833   45.0422 H   0  0  0  0  0  0  0  0  0  0  0  0
   44.9509   36.8550   42.8225 H   0  0  0  0  0  0  0  0  0  0  0  0
   45.5861   33.3458   46.2122 H   0  0  0  0  0  0  0  0  0  0  0  0
   43.2260   30.6818   39.5928 H   0  0  0  0  0  0  0  0  0  0  0  0
   44.0960   32.0247   38.8143 H   0  0  0  0  0  0  0  0  0  0  0  0
   44.7203   30.0661   37.5153 H   0  0  0  0  0  0  0  0  0  0  0  0
   44.9161   29.0498   38.9596 H   0  0  0  0  0  0  0  0  0  0  0  0
   47.3740   29.2224   39.9278 H   0  0  0  0  0  0  0  0  0  0  0  0
   47.6760   30.9827   40.1415 H   0  0  0  0  0  0  0  0  0  0  0  0
   46.2449   30.5272   41.9363 H   0  0  0  0  0  0  0  0  0  0  0  0
   45.3006   29.3179   41.0302 H   0  0  0  0  0  0  0  0  0  0  0  0
  1  6  1  0
  2  1  1  0
  2  3  1  0
  4  3  1  0
  4  5  1  0
  6  5  1  0
  7 15  1  0
  8  7  2  0
  9  8  1  0
 10 11  1  0
 10  9  2  0
 11 12  2  0
 12  1  1  0
 12  7  1  0
 13 18  2  0
 14 13  1  0
 15 14  2  0
 15 16  1  0
 16 17  2  0
 17 18  1  0
 19 24  1  0
 19  6  1  0
 20 19  1  0
 21 22  1  0
 21 20  1  0
 22 23  1  0
 23 24  1  0
  2 25  1  0
  2 26  1  0
  3 27  1  0
  3 28  1  0
  4 29  1  0
  5 30  1  0
  5 31  1  0
  6 32  1  1
  8 33  1  0
  9 34  1  0
 10 35  1  0
 11 36  1  0
 13 37  1  0
 14 38  1  0
 17 39  1  0
 20 40  1  0
 20 41  1  0
 21 42  1  0
 21 43  1  0
 23 44  1  0
 23 45  1  0
 24 46  1  0
 24 47  1  0
M  ISO  8  25  13  26  13  27  13  28  13  29   5  30  13  31  13  32  13
M  ISO  8  33  14  34  14  35  14  36  14  37  14  38  14  39  14  40  13
M  ISO  7  41  13  42  13  43  13  44  13  45  13  46  13  47  13
M  END
>  <minimizedAffinity>  (1) 
-5.67247009

>  <minimizedRMSD>  (1) 
0.0952775329

$$$$
