
     RDKit          3D

 33 35  0  0  0  0  0  0  0  0999 V2000
   46.4080   34.7060   41.3580 O   0  0  0  0  0  0  0  0  0  0  0  0
   47.6830   34.7590   41.8090 C   0  0  0  0  0  0  0  0  0  0  0  0
   48.6640   35.6820   41.3880 C   0  0  0  0  0  0  0  0  0  0  0  0
   49.7780   35.3960   42.0740 N   0  0  0  0  0  0  0  0  0  0  0  0
   49.5550   34.3510   42.8970 C   0  0  0  0  0  0  0  0  0  0  0  0
   48.2510   33.9750   42.7130 N   0  0  0  0  0  0  0  0  0  0  0  0
   47.8610   32.8230   43.5060 C   0  0  0  0  0  0  0  0  0  0  0  0
   47.0120   31.8490   42.7350 C   0  0  0  0  0  0  0  0  0  0  0  0
   46.1900   31.1870   43.8500 C   0  0  0  0  0  0  0  0  0  0  0  0
   45.7210   32.4060   44.5690 C   0  0  0  0  0  0  0  0  0  0  0  0
   46.9140   33.2770   44.6460 C   0  0  0  0  0  0  0  0  0  0  0  0
   45.3060   35.1280   42.0050 C   0  0  0  0  0  0  0  0  0  0  0  0
   45.5120   35.9850   42.9080 O   0  0  0  0  0  0  0  0  0  0  0  0
   41.6620   34.9270   41.2150 C   0  0  0  0  0  0  0  0  0  0  0  0
   42.9140   35.5150   41.4800 C   0  0  0  0  0  0  0  0  0  0  0  0
   43.9900   34.6560   41.7100 C   0  0  0  0  0  0  0  0  0  0  0  0
   43.7270   33.3440   41.6560 N   0  0  0  0  0  0  0  0  0  0  0  0
   42.5440   32.7910   41.4050 C   0  0  0  0  0  0  0  0  0  0  0  0
   41.5020   33.6010   41.1830 N   0  0  0  0  0  0  0  0  0  0  0  0
   48.5382   36.4805   40.6420 H   0  0  0  0  0  0  0  0  0  0  0  0
   50.2804   33.8898   43.5834 H   0  0  0  0  0  0  0  0  0  0  0  0
   48.8037   32.3665   43.8420 H   0  0  0  0  0  0  0  0  0  0  0  0
   46.3627   32.3682   42.0147 H   0  0  0  0  0  0  0  0  0  0  0  0
   47.5930   31.1368   42.1308 H   0  0  0  0  0  0  0  0  0  0  0  0
   45.3512   30.6000   43.4478 H   0  0  0  0  0  0  0  0  0  0  0  0
   46.7394   30.4618   44.4683 H   0  0  0  0  0  0  0  0  0  0  0  0
   44.9144   32.9011   44.0084 H   0  0  0  0  0  0  0  0  0  0  0  0
   45.3110   32.1720   45.5625 H   0  0  0  0  0  0  0  0  0  0  0  0
   47.4088   33.1592   45.6213 H   0  0  0  0  0  0  0  0  0  0  0  0
   46.6414   34.3374   44.5397 H   0  0  0  0  0  0  0  0  0  0  0  0
   40.7936   35.5762   41.0296 H   0  0  0  0  0  0  0  0  0  0  0  0
   43.0390   36.6076   41.5047 H   0  0  0  0  0  0  0  0  0  0  0  0
   42.4251   31.6977   41.3805 H   0  0  0  0  0  0  0  0  0  0  0  0
  1  2  1  0
  1 12  1  0
  2  6  1  0
  3  2  2  0
  3  4  1  0
  4  5  2  0
  6  5  1  0
  6  7  1  0
  7 11  1  0
  8  7  1  0
  8  9  1  0
  9 10  1  0
 10 11  1  0
 12 13  2  0
 14 15  2  0
 15 16  1  0
 16 12  1  0
 17 16  2  0
 18 17  1  0
 19 14  1  0
 19 18  2  0
  3 20  1  0
  5 21  1  0
  7 22  1  0
  8 23  1  0
  8 24  1  0
  9 25  1  0
  9 26  1  0
 10 27  1  0
 10 28  1  0
 11 29  1  0
 11 30  1  0
 14 31  1  0
 15 32  1  0
 18 33  1  0
M  ISO  8  20  14  21  14  22  13  23  13  24  13  25  13  26  13  27  13
M  ISO  6  28  13  29  13  30  13  31  14  32  14  33  14
M  END
>  <minimizedAffinity>  (1) 
-4.30417442

>  <minimizedRMSD>  (1) 
4.45703125

$$$$
