
     RDKit          3D

 34 36  0  0  1  0  0  0  0  0999 V2000
   47.0770   33.7240   40.2220 C   0  0  0  0  0  0  0  0  0  0  0  0
   48.3180   34.3550   40.0020 C   0  0  0  0  0  0  0  0  0  0  0  0
   48.4830   35.2680   40.9830 N   0  0  0  0  0  0  0  0  0  0  0  0
   47.4050   35.2300   41.7980 C   0  0  0  0  0  0  0  0  0  0  0  0
   46.5910   34.2870   41.2960 N   0  0  0  0  0  0  0  0  0  0  0  0
   45.3570   34.0690   42.0140 C   0  0  1  0  0  0  0  0  0  0  0  0
   44.8330   32.7430   42.3700 C   0  0  0  0  0  0  0  0  0  0  0  0
   45.5090   33.4440   43.4430 C   0  0  2  0  0  0  0  0  0  0  0  0
   44.6950   34.0490   44.4750 N   0  0  0  0  0  0  0  0  0  0  0  0
   45.2320   34.3100   45.7640 C   0  0  0  0  0  0  0  0  0  0  0  0
   46.3440   33.7260   46.0570 N   0  0  0  0  0  0  0  0  0  0  0  0
   44.4550   35.2030   46.5850 N   0  0  0  0  0  0  0  0  0  0  0  0
   46.7600   33.9020   46.9990 H   0  0  0  0  0  0  0  0  0  0  0  0
   46.6090   32.7510   39.4080 O   0  0  0  0  0  0  0  0  0  0  0  0
   45.8840   32.9380   38.2750 C   0  0  0  0  0  0  0  0  0  0  0  0
   44.7050   33.3490   38.4480 O   0  0  0  0  0  0  0  0  0  0  0  0
   46.2600   32.0550   34.6590 C   0  0  0  0  0  0  0  0  0  0  0  0
   45.6390   32.2660   35.8910 C   0  0  0  0  0  0  0  0  0  0  0  0
   46.4080   32.6910   36.9710 C   0  0  0  0  0  0  0  0  0  0  0  0
   47.7080   32.8610   36.7090 N   0  0  0  0  0  0  0  0  0  0  0  0
   48.3060   32.6630   35.5370 C   0  0  0  0  0  0  0  0  0  0  0  0
   47.5740   32.2520   34.4930 N   0  0  0  0  0  0  0  0  0  0  0  0
   49.0214   34.1430   39.1833 H   0  0  0  0  0  0  0  0  0  0  0  0
   47.2299   35.8469   42.6918 H   0  0  0  0  0  0  0  0  0  0  0  0
   44.9064   34.9403   41.5163 H   0  0  0  0  0  0  0  0  0  0  0  0
   43.7446   32.5951   42.4288 H   0  0  0  0  0  0  0  0  0  0  0  0
   44.9658   31.7438   41.9296 H   0  0  0  0  0  0  0  0  0  0  0  0
   46.3328   33.2003   44.1300 H   0  0  0  0  0  0  0  0  0  0  0  0
   43.7150   34.2932   44.2727 H   0  0  0  0  0  0  0  0  0  0  0  0
   44.7774   35.4423   47.5335 H   0  0  0  0  0  0  0  0  0  0  0  0
   43.5770   35.6022   46.2235 H   0  0  0  0  0  0  0  0  0  0  0  0
   45.6554   31.7188   33.8038 H   0  0  0  0  0  0  0  0  0  0  0  0
   44.5580   32.0990   36.0070 H   0  0  0  0  0  0  0  0  0  0  0  0
   49.3869   32.8345   35.4268 H   0  0  0  0  0  0  0  0  0  0  0  0
  1  5  1  0
  2  1  2  0
  2  3  1  0
  3  4  2  0
  5  4  1  0
  5  6  1  0
  6  7  1  0
  6  8  1  0
  7  8  1  0
  8  9  1  0
  9 10  1  0
 10 11  2  0
 10 12  1  0
 11 13  1  0
 14  1  1  0
 15 16  2  0
 15 14  1  0
 17 18  2  0
 18 19  1  0
 19 15  1  0
 20 19  2  0
 21 20  1  0
 22 17  1  0
 22 21  2  0
  2 23  1  0
  4 24  1  0
  6 25  1  1
  7 26  1  0
  7 27  1  0
  8 28  1  1
  9 29  1  0
 12 30  1  0
 12 31  1  0
 17 32  1  0
 18 33  1  0
 21 34  1  0
M  ISO  8  23  14  24  14  25  13  26  13  27  13  28  13  32  14  33  14
M  ISO  1  34  14
M  END
>  <minimizedAffinity>  (1) 
-5.05075216

>  <minimizedRMSD>  (1) 
7.47976971

$$$$
