
     RDKit          3D

 39 41  0  0  1  0  0  0  0  0999 V2000
   44.4460   33.4270   40.1630 C   0  0  0  0  0  0  0  0  0  0  0  0
   43.2060   34.0020   40.4670 C   0  0  0  0  0  0  0  0  0  0  0  0
   42.5020   34.0800   39.3120 N   0  0  0  0  0  0  0  0  0  0  0  0
   43.2500   33.5790   38.3130 C   0  0  0  0  0  0  0  0  0  0  0  0
   44.4280   33.1940   38.8790 N   0  0  0  0  0  0  0  0  0  0  0  0
   45.4220   32.6090   37.9920 C   0  0  1  0  0  0  0  0  0  0  0  0
   45.4100   32.8700   36.5300 C   0  0  0  0  0  0  0  0  0  0  0  0
   46.4040   33.6050   37.3450 C   0  0  2  0  0  0  0  0  0  0  0  0
   47.8610   33.2620   37.2040 C   0  0  0  0  0  0  0  0  0  0  0  0
   48.6550   34.5310   37.4190 C   0  0  0  0  0  0  0  0  0  0  0  0
   48.2960   32.2090   38.1680 C   0  0  0  0  0  0  0  0  0  0  0  0
   48.2050   32.7770   35.8100 C   0  0  0  0  0  0  0  0  0  0  0  0
   45.3810   33.2160   41.1110 O   0  0  0  0  0  0  0  0  0  0  0  0
   45.9840   34.1860   41.8480 C   0  0  0  0  0  0  0  0  0  0  0  0
   46.9780   34.7640   41.3060 O   0  0  0  0  0  0  0  0  0  0  0  0
   44.4740   35.9760   44.7560 C   0  0  0  0  0  0  0  0  0  0  0  0
   44.8450   35.7480   43.4250 C   0  0  0  0  0  0  0  0  0  0  0  0
   45.5420   34.5500   43.1580 C   0  0  0  0  0  0  0  0  0  0  0  0
   45.7760   33.7580   44.2070 N   0  0  0  0  0  0  0  0  0  0  0  0
   45.4160   33.9920   45.4680 C   0  0  0  0  0  0  0  0  0  0  0  0
   44.7550   35.1190   45.7450 N   0  0  0  0  0  0  0  0  0  0  0  0
   42.8661   34.3299   41.4604 H   0  0  0  0  0  0  0  0  0  0  0  0
   42.9678   33.4967   37.2530 H   0  0  0  0  0  0  0  0  0  0  0  0
   45.4627   31.6870   38.5905 H   0  0  0  0  0  0  0  0  0  0  0  0
   44.5654   33.4148   36.0830 H   0  0  0  0  0  0  0  0  0  0  0  0
   45.4797   32.2268   35.6404 H   0  0  0  0  0  0  0  0  0  0  0  0
   46.6651   34.6595   37.5176 H   0  0  0  0  0  0  0  0  0  0  0  0
   48.7693   34.7137   38.4977 H   0  0  0  0  0  0  0  0  0  0  0  0
   49.6480   34.4248   36.9579 H   0  0  0  0  0  0  0  0  0  0  0  0
   48.1252   35.3776   36.9579 H   0  0  0  0  0  0  0  0  0  0  0  0
   48.1471   32.5694   39.1966 H   0  0  0  0  0  0  0  0  0  0  0  0
   47.7007   31.2978   38.0090 H   0  0  0  0  0  0  0  0  0  0  0  0
   49.3609   31.9836   38.0090 H   0  0  0  0  0  0  0  0  0  0  0  0
   48.8401   31.8816   35.8796 H   0  0  0  0  0  0  0  0  0  0  0  0
   47.2797   32.5291   35.2693 H   0  0  0  0  0  0  0  0  0  0  0  0
   48.7449   33.5683   35.2693 H   0  0  0  0  0  0  0  0  0  0  0  0
   43.9280   36.8994   44.9992 H   0  0  0  0  0  0  0  0  0  0  0  0
   44.6052   36.4666   42.6275 H   0  0  0  0  0  0  0  0  0  0  0  0
   45.6579   33.2725   46.2641 H   0  0  0  0  0  0  0  0  0  0  0  0
  1  2  2  0
  1 13  1  0
  3  2  1  0
  4  5  1  0
  4  3  2  0
  5  1  1  0
  6  5  1  0
  7  8  1  0
  7  6  1  0
  8  6  1  0
  9  8  1  0
  9 10  1  0
  9 11  1  0
 12  9  1  0
 13 14  1  0
 14 18  1  0
 15 14  2  0
 16 21  2  0
 17 16  1  0
 18 17  2  0
 18 19  1  0
 19 20  2  0
 20 21  1  0
  2 22  1  0
  4 23  1  0
  6 24  1  6
  7 25  1  0
  7 26  1  0
  8 27  1  1
 10 28  1  0
 10 29  1  0
 10 30  1  0
 11 31  1  0
 11 32  1  0
 11 33  1  0
 12 34  1  0
 12 35  1  0
 12 36  1  0
 16 37  1  0
 17 38  1  0
 20 39  1  0
M  ISO  8  22  14  23  14  24  13  25  13  26  13  27  13  28   8  29   8
M  ISO  8  30   8  31   8  32   8  33   8  34   8  35   8  36   8  37  14
M  ISO  2  38  14  39  14
M  END
>  <minimizedAffinity>  (1) 
-4.532372

>  <minimizedRMSD>  (1) 
2.15048289

$$$$
