
     RDKit          3D

 29 31  0  0  1  0  0  0  0  0999 V2000
   46.0770   33.4040   40.1140 C   0  0  0  0  0  0  0  0  0  0  0  0
   44.6810   33.4920   40.2610 C   0  0  0  0  0  0  0  0  0  0  0  0
   44.1350   33.3110   39.0480 N   0  0  0  0  0  0  0  0  0  0  0  0
   45.1200   33.1140   38.1470 C   0  0  0  0  0  0  0  0  0  0  0  0
   46.2800   33.1810   38.8480 N   0  0  0  0  0  0  0  0  0  0  0  0
   47.4860   32.9960   38.0810 C   0  0  1  0  0  0  0  0  0  0  0  0
   47.5150   32.9750   36.6070 C   0  0  0  0  0  0  0  0  0  0  0  0
   47.9690   34.2090   37.2400 C   0  0  2  0  0  0  0  0  0  0  0  0
   49.4100   34.4680   37.3900 N   0  0  0  0  0  0  0  0  0  0  0  0
   46.9270   33.5440   41.1680 O   0  0  0  0  0  0  0  0  0  0  0  0
   47.0320   34.6390   41.9540 C   0  0  0  0  0  0  0  0  0  0  0  0
   47.9100   35.4740   41.5980 O   0  0  0  0  0  0  0  0  0  0  0  0
   44.5950   36.0170   44.4220 C   0  0  0  0  0  0  0  0  0  0  0  0
   45.3330   35.9240   43.2410 C   0  0  0  0  0  0  0  0  0  0  0  0
   46.2170   34.8560   43.1090 C   0  0  0  0  0  0  0  0  0  0  0  0
   46.2810   34.0050   44.1420 N   0  0  0  0  0  0  0  0  0  0  0  0
   45.5760   34.0950   45.2700 C   0  0  0  0  0  0  0  0  0  0  0  0
   44.7250   35.1110   45.4110 N   0  0  0  0  0  0  0  0  0  0  0  0
   44.1360   33.6756   41.1987 H   0  0  0  0  0  0  0  0  0  0  0  0
   45.0062   32.9359   37.0675 H   0  0  0  0  0  0  0  0  0  0  0  0
   47.8725   32.3125   38.8514 H   0  0  0  0  0  0  0  0  0  0  0  0
   46.5668   32.9727   36.0494 H   0  0  0  0  0  0  0  0  0  0  0  0
   47.9680   32.2940   35.8714 H   0  0  0  0  0  0  0  0  0  0  0  0
   47.7087   35.2668   37.0871 H   0  0  0  0  0  0  0  0  0  0  0  0
   49.6487   34.5109   38.3910 H   0  0  0  0  0  0  0  0  0  0  0  0
   49.9436   33.7094   36.9420 H   0  0  0  0  0  0  0  0  0  0  0  0
   43.8892   36.8512   44.5487 H   0  0  0  0  0  0  0  0  0  0  0  0
   45.2201   36.6700   42.4405 H   0  0  0  0  0  0  0  0  0  0  0  0
   45.6942   33.3466   46.0674 H   0  0  0  0  0  0  0  0  0  0  0  0
  1  2  2  0
  1 10  1  0
  3  2  1  0
  4  5  1  0
  4  3  2  0
  5  1  1  0
  6  5  1  0
  7  8  1  0
  7  6  1  0
  8  9  1  0
  8  6  1  0
 10 11  1  0
 11 15  1  0
 12 11  2  0
 13 18  2  0
 14 13  1  0
 15 14  2  0
 15 16  1  0
 16 17  2  0
 17 18  1  0
  2 19  1  0
  4 20  1  0
  6 21  1  1
  7 22  1  0
  7 23  1  0
  8 24  1  6
  9 25  1  0
  9 26  1  0
 13 27  1  0
 14 28  1  0
 17 29  1  0
M  ISO  8  19  14  20  14  21  13  22  13  23  13  24  13  25   5  26   5
M  ISO  3  27  14  28  14  29  14
M  END
>  <minimizedAffinity>  (1) 
-4.73310328

>  <minimizedRMSD>  (1) 
0.518532217

$$$$
