
     RDKit          3D

 46 49  0  0  1  0  0  0  0  0999 V2000
   45.0190   33.6200   40.9890 N   0  0  0  0  0  0  0  0  0  0  0  0
   43.7900   34.2000   40.4370 C   0  0  0  0  0  0  0  0  0  0  0  0
   42.5950   33.9020   41.2960 C   0  0  0  0  0  0  0  0  0  0  0  0
   42.4920   32.4580   41.4250 N   0  0  0  0  0  0  0  0  0  0  0  0
   43.6170   32.0620   42.2610 C   0  0  0  0  0  0  0  0  0  0  0  0
   44.9530   32.3290   41.6170 C   0  0  1  0  0  0  0  0  0  0  0  0
   46.7650   34.8320   42.1170 C   0  0  0  0  0  0  0  0  0  0  0  0
   48.0230   35.3890   42.0710 C   0  0  0  0  0  0  0  0  0  0  0  0
   48.8290   35.3360   40.9330 C   0  0  0  0  0  0  0  0  0  0  0  0
   48.3460   34.6950   39.7870 C   0  0  0  0  0  0  0  0  0  0  0  0
   47.0890   34.1370   39.8300 C   0  0  0  0  0  0  0  0  0  0  0  0
   46.3400   34.2170   40.9750 C   0  0  0  0  0  0  0  0  0  0  0  0
   44.4350   35.9400   44.8490 C   0  0  0  0  0  0  0  0  0  0  0  0
   45.0940   35.9530   43.6060 C   0  0  0  0  0  0  0  0  0  0  0  0
   46.0230   34.9430   43.3380 C   0  0  0  0  0  0  0  0  0  0  0  0
   46.2360   34.0080   44.2930 N   0  0  0  0  0  0  0  0  0  0  0  0
   45.5810   34.0300   45.4810 C   0  0  0  0  0  0  0  0  0  0  0  0
   44.6800   35.0010   45.7520 N   0  0  0  0  0  0  0  0  0  0  0  0
   45.4170   31.3330   40.7400 N   0  0  0  0  0  0  0  0  0  0  0  0
   46.7040   30.8050   40.9060 C   0  0  0  0  0  0  0  0  0  0  0  0
   46.7950   29.8240   39.7290 C   0  0  0  0  0  0  0  0  0  0  0  0
   45.7900   30.3030   38.7150 C   0  0  0  0  0  0  0  0  0  0  0  0
   45.0330   31.4160   39.3800 C   0  0  0  0  0  0  0  0  0  0  0  0
   43.9128   35.2907   40.3647 H   0  0  0  0  0  0  0  0  0  0  0  0
   43.6175   33.7537   39.4465 H   0  0  0  0  0  0  0  0  0  0  0  0
   42.7240   34.3585   42.2885 H   0  0  0  0  0  0  0  0  0  0  0  0
   41.6819   34.3141   40.8418 H   0  0  0  0  0  0  0  0  0  0  0  0
   41.6015   32.1990   41.8732 H   0  0  0  0  0  0  0  0  0  0  0  0
   43.5654   32.6223   43.2062 H   0  0  0  0  0  0  0  0  0  0  0  0
   43.5408   30.9765   42.4219 H   0  0  0  0  0  0  0  0  0  0  0  0
   45.6432   32.3119   42.4733 H   0  0  0  0  0  0  0  0  0  0  0  0
   48.4086   35.8964   42.9676 H   0  0  0  0  0  0  0  0  0  0  0  0
   49.8301   35.7918   40.9369 H   0  0  0  0  0  0  0  0  0  0  0  0
   48.9564   34.6385   38.8737 H   0  0  0  0  0  0  0  0  0  0  0  0
   46.6846   33.6258   38.9439 H   0  0  0  0  0  0  0  0  0  0  0  0
   43.7003   36.7264   45.0765 H   0  0  0  0  0  0  0  0  0  0  0  0
   44.8838   36.7375   42.8642 H   0  0  0  0  0  0  0  0  0  0  0  0
   45.7848   33.2509   46.2303 H   0  0  0  0  0  0  0  0  0  0  0  0
   47.4713   31.5898   40.8335 H   0  0  0  0  0  0  0  0  0  0  0  0
   46.8711   30.3390   41.8883 H   0  0  0  0  0  0  0  0  0  0  0  0
   47.8075   29.8348   39.2991 H   0  0  0  0  0  0  0  0  0  0  0  0
   46.5881   28.7914   40.0465 H   0  0  0  0  0  0  0  0  0  0  0  0
   45.1062   29.4868   38.4389 H   0  0  0  0  0  0  0  0  0  0  0  0
   46.2797   30.6435   37.7907 H   0  0  0  0  0  0  0  0  0  0  0  0
   45.3160   32.3896   38.9534 H   0  0  0  0  0  0  0  0  0  0  0  0
   43.9452   31.3263   39.2431 H   0  0  0  0  0  0  0  0  0  0  0  0
  1  6  1  0
  2  1  1  0
  2  3  1  0
  3  4  1  0
  4  5  1  0
  6  5  1  0
  7 15  1  0
  8  7  2  0
  9  8  1  0
 10 11  1  0
 10  9  2  0
 11 12  2  0
 12  1  1  0
 12  7  1  0
 13 18  2  0
 14 13  1  0
 15 14  2  0
 15 16  1  0
 16 17  2  0
 17 18  1  0
 19 20  1  0
 19  6  1  0
 21 20  1  0
 22 23  1  0
 22 21  1  0
 23 19  1  0
  2 24  1  0
  2 25  1  0
  3 26  1  0
  3 27  1  0
  4 28  1  0
  5 29  1  0
  5 30  1  0
  6 31  1  1
  8 32  1  0
  9 33  1  0
 10 34  1  0
 11 35  1  0
 13 36  1  0
 14 37  1  0
 17 38  1  0
 20 39  1  0
 20 40  1  0
 21 41  1  0
 21 42  1  0
 22 43  1  0
 22 44  1  0
 23 45  1  0
 23 46  1  0
M  ISO  8  24  13  25  13  26  13  27  13  28   5  29  13  30  13  31  13
M  ISO  8  32  14  33  14  34  14  35  14  36  14  37  14  38  14  39  13
M  ISO  7  40  13  41  13  42  13  43  13  44  13  45  13  46  13
M  END
>  <minimizedAffinity>  (1) 
-5.65207624

>  <minimizedRMSD>  (1) 
0.665171802

$$$$
