
     RDKit          3D

 29 31  0  0  1  0  0  0  0  0999 V2000
   45.5600   33.3020   40.2530 C   0  0  0  0  0  0  0  0  0  0  0  0
   44.3040   33.9520   40.2200 C   0  0  0  0  0  0  0  0  0  0  0  0
   43.7920   33.7520   39.0010 N   0  0  0  0  0  0  0  0  0  0  0  0
   44.6590   33.0140   38.2650 C   0  0  0  0  0  0  0  0  0  0  0  0
   45.7110   32.7690   39.0710 N   0  0  0  0  0  0  0  0  0  0  0  0
   46.7710   31.9890   38.4930 C   0  0  1  0  0  0  0  0  0  0  0  0
   47.2650   32.1570   37.1110 C   0  0  0  0  0  0  0  0  0  0  0  0
   48.0900   32.7550   38.1440 C   0  0  1  0  0  0  0  0  0  0  0  0
   48.0790   34.2290   38.3340 C   0  0  0  0  0  0  0  0  0  0  0  0
   48.5400   34.7610   37.3120 O   0  0  0  0  0  0  0  0  0  0  0  0
   46.3570   33.3070   41.3560 O   0  0  0  0  0  0  0  0  0  0  0  0
   46.6270   34.3890   42.1180 C   0  0  0  0  0  0  0  0  0  0  0  0
   47.5450   35.1540   41.6890 O   0  0  0  0  0  0  0  0  0  0  0  0
   44.4820   35.9550   44.7480 C   0  0  0  0  0  0  0  0  0  0  0  0
   45.1000   35.7830   43.5110 C   0  0  0  0  0  0  0  0  0  0  0  0
   45.9330   34.6790   43.3400 C   0  0  0  0  0  0  0  0  0  0  0  0
   46.0610   33.8740   44.4050 N   0  0  0  0  0  0  0  0  0  0  0  0
   45.4830   34.0240   45.5820 C   0  0  0  0  0  0  0  0  0  0  0  0
   44.6780   35.0840   45.7600 N   0  0  0  0  0  0  0  0  0  0  0  0
   43.8370   34.5152   41.0414 H   0  0  0  0  0  0  0  0  0  0  0  0
   44.5303   32.6831   37.2239 H   0  0  0  0  0  0  0  0  0  0  0  0
   46.4354   31.1148   39.0701 H   0  0  0  0  0  0  0  0  0  0  0  0
   46.7131   32.8105   36.4194 H   0  0  0  0  0  0  0  0  0  0  0  0
   47.4781   31.4459   36.2993 H   0  0  0  0  0  0  0  0  0  0  0  0
   49.1540   32.6875   38.4147 H   0  0  0  0  0  0  0  0  0  0  0  0
   47.7224   34.7590   39.2295 H   0  0  0  0  0  0  0  0  0  0  0  0
   43.8199   36.8196   44.9030 H   0  0  0  0  0  0  0  0  0  0  0  0
   44.9349   36.4988   42.6922 H   0  0  0  0  0  0  0  0  0  0  0  0
   45.6556   33.3018   46.3935 H   0  0  0  0  0  0  0  0  0  0  0  0
  1 11  1  0
  2  1  2  0
  3  2  1  0
  4  3  2  0
  4  5  1  0
  5  1  1  0
  6  5  1  0
  7  8  1  0
  7  6  1  0
  8  9  1  0
  8  6  1  0
 10  9  2  0
 11 12  1  0
 12 16  1  0
 13 12  2  0
 14 19  2  0
 15 14  1  0
 16 15  2  0
 16 17  1  0
 17 18  2  0
 18 19  1  0
  2 20  1  0
  4 21  1  0
  6 22  1  1
  7 23  1  0
  7 24  1  0
  8 25  1  1
  9 26  1  0
 14 27  1  0
 15 28  1  0
 18 29  1  0
M  ISO  8  20  14  21  14  22  13  23  13  24  13  25  13  26   6  27  14
M  ISO  2  28  14  29  14
M  END
>  <minimizedAffinity>  (1) 
-4.24668026

>  <minimizedRMSD>  (1) 
1.1614877

$$$$
