
     RDKit          3D

 44 48  0  0  1  0  0  0  0  0999 V2000
   44.7850   35.5320   44.9840 C   0  0  0  0  0  0  0  0  0  0  0  0
   44.1900   35.5000   43.7370 C   0  0  0  0  0  0  0  0  0  0  0  0
   44.3320   34.3480   42.9640 C   0  0  0  0  0  0  0  0  0  0  0  0
   45.0500   33.3650   43.5240 N   0  0  0  0  0  0  0  0  0  0  0  0
   45.6260   33.3800   44.7160 C   0  0  0  0  0  0  0  0  0  0  0  0
   45.4890   34.4930   45.4640 N   0  0  0  0  0  0  0  0  0  0  0  0
   46.3760   32.2870   45.2430 N   0  0  0  0  0  0  0  0  0  0  0  0
   47.2680   31.5400   44.5700 C   0  0  0  0  0  0  0  0  0  0  0  0
   47.7800   30.6010   45.3840 N   0  0  0  0  0  0  0  0  0  0  0  0
   47.2220   30.7330   46.5990 C   0  0  0  0  0  0  0  0  0  0  0  0
   47.3930   30.0300   47.7930 C   0  0  0  0  0  0  0  0  0  0  0  0
   48.1970   29.0660   47.8710 O   0  0  0  0  0  0  0  0  0  0  0  0
   46.6840   30.3920   48.8780 N   0  0  0  0  0  0  0  0  0  0  0  0
   45.8440   31.4280   48.7290 C   0  0  0  0  0  0  0  0  0  0  0  0
   45.0890   31.8230   49.8630 N   0  0  0  0  0  0  0  0  0  0  0  0
   45.6310   32.1480   47.6100 N   0  0  0  0  0  0  0  0  0  0  0  0
   46.3300   31.8070   46.5060 C   0  0  0  0  0  0  0  0  0  0  0  0
   43.7710   34.1790   41.6610 C   0  0  0  0  0  0  0  0  0  0  0  0
   44.4540   34.4220   40.6110 O   0  0  0  0  0  0  0  0  0  0  0  0
   42.5130   33.7610   41.4460 O   0  0  0  0  0  0  0  0  0  0  0  0
   41.4930   34.5250   40.9940 C   0  0  0  0  0  0  0  0  0  0  0  0
   41.3040   35.8520   41.4270 C   0  0  0  0  0  0  0  0  0  0  0  0
   40.2170   36.3360   40.8020 N   0  0  0  0  0  0  0  0  0  0  0  0
   39.7130   35.3740   39.9960 C   0  0  0  0  0  0  0  0  0  0  0  0
   40.5150   34.3080   40.1490 N   0  0  0  0  0  0  0  0  0  0  0  0
   40.1870   33.1230   39.3830 C   0  0  1  0  0  0  0  0  0  0  0  0
   39.5050   33.2170   38.0610 C   0  0  0  0  0  0  0  0  0  0  0  0
   40.9470   32.9400   38.0420 C   0  0  2  0  0  0  0  0  0  0  0  0
   41.3520   31.5010   37.7860 C   0  0  0  0  0  0  0  0  0  0  0  0
   42.3880   31.4520   36.8870 F   0  0  0  0  0  0  0  0  0  0  0  0
   41.5770   30.8410   38.9550 F   0  0  0  0  0  0  0  0  0  0  0  0
   40.2600   30.9130   37.1360 F   0  0  0  0  0  0  0  0  0  0  0  0
   44.6790   36.4355   45.6024 H   0  0  0  0  0  0  0  0  0  0  0  0
   43.6183   36.3623   43.3633 H   0  0  0  0  0  0  0  0  0  0  0  0
   47.5382   31.6766   43.5125 H   0  0  0  0  0  0  0  0  0  0  0  0
   46.7811   29.8990   49.7771 H   0  0  0  0  0  0  0  0  0  0  0  0
   44.4319   32.6132   49.7944 H   0  0  0  0  0  0  0  0  0  0  0  0
   45.1979   31.3197   50.7550 H   0  0  0  0  0  0  0  0  0  0  0  0
   41.9333   36.3949   42.1476 H   0  0  0  0  0  0  0  0  0  0  0  0
   38.8274   35.4494   39.3479 H   0  0  0  0  0  0  0  0  0  0  0  0
   39.9928   32.5495   40.3014 H   0  0  0  0  0  0  0  0  0  0  0  0
   38.7990   32.4291   37.7595 H   0  0  0  0  0  0  0  0  0  0  0  0
   38.8739   33.9828   37.5864 H   0  0  0  0  0  0  0  0  0  0  0  0
   41.8086   33.3994   37.5355 H   0  0  0  0  0  0  0  0  0  0  0  0
  1  6  2  0
  2  1  1  0
  3  4  1  0
  3  2  2  0
  4  5  2  0
  5  7  1  0
  5  6  1  0
  7 17  1  0
  8  7  1  0
  8  9  2  0
  9 10  1  0
 10 11  1  0
 11 12  2  0
 11 13  1  0
 14 13  1  0
 14 15  1  0
 16 14  2  0
 17 10  2  0
 17 16  1  0
 18  3  1  0
 19 18  2  0
 20 18  1  0
 21 22  2  0
 21 20  1  0
 23 22  1  0
 24 25  1  0
 24 23  2  0
 25 21  1  0
 26 25  1  0
 27 26  1  0
 28 27  1  0
 28 26  1  0
 29 28  1  0
 29 31  1  0
 30 29  1  0
 32 29  1  0
  1 33  1  0
  2 34  1  0
  8 35  1  0
 13 36  1  0
 15 37  1  0
 15 38  1  0
 22 39  1  0
 24 40  1  0
 26 41  1  1
 27 42  1  0
 27 43  1  0
 28 44  1  6
M  ISO  8  33  14  34  14  35  14  36   9  39  14  40  14  41  13  42  13
M  ISO  2  43  13  44  13
M  END
>  <minimizedAffinity>  (1) 
-7.19401789

>  <minimizedRMSD>  (1) 
4.46950626

$$$$
