
     RDKit          3D

 44 47  0  0  1  0  0  0  0  0999 V2000
   44.7970   33.7110   40.9830 N   0  0  0  0  0  0  0  0  0  0  0  0
   43.5890   34.4540   40.5990 C   0  0  0  0  0  0  0  0  0  0  0  0
   42.4300   34.1250   41.4910 C   0  0  0  0  0  0  0  0  0  0  0  0
   42.2060   32.7040   41.4800 N   0  0  0  0  0  0  0  0  0  0  0  0
   43.3550   32.1130   42.1530 C   0  0  0  0  0  0  0  0  0  0  0  0
   44.6640   32.3550   41.4570 C   0  0  1  0  0  0  0  0  0  0  0  0
   46.6450   34.7890   42.0690 C   0  0  0  0  0  0  0  0  0  0  0  0
   47.9420   35.2450   42.0090 C   0  0  0  0  0  0  0  0  0  0  0  0
   48.7280   35.1220   40.8580 C   0  0  0  0  0  0  0  0  0  0  0  0
   48.1760   34.5100   39.7200 C   0  0  0  0  0  0  0  0  0  0  0  0
   46.8780   34.0560   39.7860 C   0  0  0  0  0  0  0  0  0  0  0  0
   46.1510   34.2000   40.9380 C   0  0  0  0  0  0  0  0  0  0  0  0
   44.4570   36.1160   44.8170 C   0  0  0  0  0  0  0  0  0  0  0  0
   45.0950   36.0600   43.5680 C   0  0  0  0  0  0  0  0  0  0  0  0
   45.9340   34.9720   43.3010 C   0  0  0  0  0  0  0  0  0  0  0  0
   46.0890   34.0300   44.2610 N   0  0  0  0  0  0  0  0  0  0  0  0
   45.4550   34.1180   45.4600 C   0  0  0  0  0  0  0  0  0  0  0  0
   44.6390   35.1610   45.7390 N   0  0  0  0  0  0  0  0  0  0  0  0
   44.9150   31.3060   40.4750 C   0  0  0  0  0  0  0  0  0  0  0  0
   44.4090   31.3460   39.1680 C   0  0  0  0  0  0  0  0  0  0  0  0
   44.5970   30.3960   38.1850 C   0  0  0  0  0  0  0  0  0  0  0  0
   45.3610   29.2970   38.5160 C   0  0  0  0  0  0  0  0  0  0  0  0
   45.9070   29.1740   39.7980 C   0  0  0  0  0  0  0  0  0  0  0  0
   45.6590   30.1790   40.7110 C   0  0  0  0  0  0  0  0  0  0  0  0
   43.7966   35.5321   40.6670 H   0  0  0  0  0  0  0  0  0  0  0  0
   43.3227   34.1685   39.5706 H   0  0  0  0  0  0  0  0  0  0  0  0
   42.6520   34.4535   42.5171 H   0  0  0  0  0  0  0  0  0  0  0  0
   41.5292   34.6415   41.1280 H   0  0  0  0  0  0  0  0  0  0  0  0
   41.3380   32.4743   41.9847 H   0  0  0  0  0  0  0  0  0  0  0  0
   43.4184   32.5377   43.1657 H   0  0  0  0  0  0  0  0  0  0  0  0
   43.1947   31.0248   42.1583 H   0  0  0  0  0  0  0  0  0  0  0  0
   45.4848   32.2743   42.1849 H   0  0  0  0  0  0  0  0  0  0  0  0
   48.3768   35.7239   42.8987 H   0  0  0  0  0  0  0  0  0  0  0  0
   49.7615   35.4984   40.8442 H   0  0  0  0  0  0  0  0  0  0  0  0
   48.7665   34.3964   38.7989 H   0  0  0  0  0  0  0  0  0  0  0  0
   46.4219   33.5747   38.9083 H   0  0  0  0  0  0  0  0  0  0  0  0
   43.7927   36.9629   45.0440 H   0  0  0  0  0  0  0  0  0  0  0  0
   44.9397   36.8503   42.8188 H   0  0  0  0  0  0  0  0  0  0  0  0
   45.6071   33.3312   46.2135 H   0  0  0  0  0  0  0  0  0  0  0  0
   43.8012   32.2226   38.8993 H   0  0  0  0  0  0  0  0  0  0  0  0
   44.1574   30.5103   37.1831 H   0  0  0  0  0  0  0  0  0  0  0  0
   45.5423   28.5119   37.7672 H   0  0  0  0  0  0  0  0  0  0  0  0
   46.5172   28.3004   40.0710 H   0  0  0  0  0  0  0  0  0  0  0  0
   46.0959   30.0659   41.7142 H   0  0  0  0  0  0  0  0  0  0  0  0
  1  6  1  0
  2  1  1  0
  2  3  1  0
  4  3  1  0
  4  5  1  0
  6  5  1  0
  7 15  1  0
  8  7  2  0
  9  8  1  0
 10 11  1  0
 10  9  2  0
 11 12  2  0
 12  1  1  0
 12  7  1  0
 13 18  2  0
 14 13  1  0
 15 14  2  0
 15 16  1  0
 16 17  2  0
 17 18  1  0
 19 24  1  0
 19  6  1  0
 20 19  2  0
 21 22  2  0
 21 20  1  0
 22 23  1  0
 23 24  2  0
  2 25  1  0
  2 26  1  0
  3 27  1  0
  3 28  1  0
  4 29  1  0
  5 30  1  0
  5 31  1  0
  6 32  1  1
  8 33  1  0
  9 34  1  0
 10 35  1  0
 11 36  1  0
 13 37  1  0
 14 38  1  0
 17 39  1  0
 20 40  1  0
 21 41  1  0
 22 42  1  0
 23 43  1  0
 24 44  1  0
M  ISO  8  25  13  26  13  27  13  28  13  29   5  30  13  31  13  32  13
M  ISO  8  33  14  34  14  35  14  36  14  37  14  38  14  39  14  40  14
M  ISO  4  41  14  42  14  43  14  44  14
M  END
>  <minimizedAffinity>  (1) 
-5.64755821

>  <minimizedRMSD>  (1) 
0.249986619

$$$$
