
     RDKit          3D

 33 35  0  0  1  0  0  0  0  0999 V2000
   44.7510   34.9620   45.5880 C   0  0  0  0  0  0  0  0  0  0  0  0
   44.4460   36.0230   44.7360 C   0  0  0  0  0  0  0  0  0  0  0  0
   45.0880   36.0980   43.4910 C   0  0  0  0  0  0  0  0  0  0  0  0
   45.9720   35.1280   43.1900 N   0  0  0  0  0  0  0  0  0  0  0  0
   46.2660   34.0920   44.0270 C   0  0  0  0  0  0  0  0  0  0  0  0
   45.6510   34.0350   45.2000 N   0  0  0  0  0  0  0  0  0  0  0  0
   47.1980   33.0750   43.7140 N   0  0  0  0  0  0  0  0  0  0  0  0
   48.0810   33.3710   42.7140 C   0  0  0  0  0  0  0  0  0  0  0  0
   48.8830   32.2430   42.5970 C   0  0  0  0  0  0  0  0  0  0  0  0
   48.4800   31.3150   43.5030 N   0  0  0  0  0  0  0  0  0  0  0  0
   47.4610   31.8350   44.1680 C   0  0  0  0  0  0  0  0  0  0  0  0
   46.6930   31.1870   45.2420 C   0  0  2  0  0  0  0  0  0  0  0  0
   47.4380   31.4740   46.5550 C   0  0  0  0  0  0  0  0  0  0  0  0
   46.7000   29.6890   45.0540 C   0  0  0  0  0  0  0  0  0  0  0  0
   46.0550   29.0640   46.2370 C   0  0  0  0  0  0  0  0  0  0  0  0
   44.8560   29.1080   46.8780 C   0  0  0  0  0  0  0  0  0  0  0  0
   44.8770   28.2620   47.9580 C   0  0  0  0  0  0  0  0  0  0  0  0
   46.1150   27.7160   47.9420 N   0  0  0  0  0  0  0  0  0  0  0  0
   46.8150   28.1910   46.9220 N   0  0  0  0  0  0  0  0  0  0  0  0
   44.2611   34.8815   46.5696 H   0  0  0  0  0  0  0  0  0  0  0  0
   43.7144   36.7881   45.0351 H   0  0  0  0  0  0  0  0  0  0  0  0
   44.8774   36.9174   42.7880 H   0  0  0  0  0  0  0  0  0  0  0  0
   48.1431   34.3004   42.1289 H   0  0  0  0  0  0  0  0  0  0  0  0
   49.7120   32.1208   41.8844 H   0  0  0  0  0  0  0  0  0  0  0  0
   45.6582   31.5602   45.2423 H   0  0  0  0  0  0  0  0  0  0  0  0
   46.7889   31.2239   47.4071 H   0  0  0  0  0  0  0  0  0  0  0  0
   48.3521   30.8637   46.5989 H   0  0  0  0  0  0  0  0  0  0  0  0
   47.7063   32.5399   46.5989 H   0  0  0  0  0  0  0  0  0  0  0  0
   46.1406   29.4264   44.1440 H   0  0  0  0  0  0  0  0  0  0  0  0
   47.7334   29.3262   44.9518 H   0  0  0  0  0  0  0  0  0  0  0  0
   43.9991   29.7281   46.5761 H   0  0  0  0  0  0  0  0  0  0  0  0
   44.0671   28.0702   48.6773 H   0  0  0  0  0  0  0  0  0  0  0  0
   46.4637   27.0289   48.6255 H   0  0  0  0  0  0  0  0  0  0  0  0
  2  1  2  0
  3  2  1  0
  4  3  2  0
  4  5  1  0
  5  6  2  0
  6  1  1  0
  7  5  1  0
  7 11  1  0
  8  7  1  0
  9  8  2  0
  9 10  1  0
 10 11  2  0
 11 12  1  0
 12 13  1  0
 14 12  1  0
 14 15  1  0
 15 16  1  0
 15 19  2  0
 16 17  2  0
 18 17  1  0
 19 18  1  0
  1 20  1  0
  2 21  1  0
  3 22  1  0
  8 23  1  0
  9 24  1  0
 12 25  1  1
 13 26  1  0
 13 27  1  0
 13 28  1  0
 14 29  1  0
 14 30  1  0
 16 31  1  0
 17 32  1  0
 18 33  1  0
M  ISO  8  20  14  21  14  22  14  23  14  24  14  25   8  26   8  27   8
M  ISO  6  28   8  29   8  30   8  31  14  32  14  33   9
M  END
>  <minimizedAffinity>  (1) 
-4.38478136

>  <minimizedRMSD>  (1) 
3.05178857

$$$$
