
     RDKit          3D

 37 39  0  0  1  0  0  0  0  0999 V2000
   46.3580   33.4050   40.9470 O   0  0  0  0  0  0  0  0  0  0  0  0
   45.3450   33.3850   40.0300 C   0  0  0  0  0  0  0  0  0  0  0  0
   44.0380   33.7510   40.3640 C   0  0  0  0  0  0  0  0  0  0  0  0
   43.2860   33.6280   39.2620 N   0  0  0  0  0  0  0  0  0  0  0  0
   44.0680   33.1970   38.2430 C   0  0  0  0  0  0  0  0  0  0  0  0
   45.2980   33.0700   38.7660 N   0  0  0  0  0  0  0  0  0  0  0  0
   46.3470   32.6120   37.8650 C   0  0  1  0  0  0  0  0  0  0  0  0
   46.2030   32.6970   36.3870 C   0  0  0  0  0  0  0  0  0  0  0  0
   47.0580   33.7020   37.0240 C   0  0  2  0  0  0  0  0  0  0  0  0
   48.5620   33.4990   36.9180 C   0  0  0  0  0  0  0  0  0  0  0  0
   49.2300   34.6470   37.2460 F   0  0  0  0  0  0  0  0  0  0  0  0
   48.9510   32.3980   37.6290 F   0  0  0  0  0  0  0  0  0  0  0  0
   48.8140   33.2660   35.5590 F   0  0  0  0  0  0  0  0  0  0  0  0
   46.6570   34.4310   41.7450 C   0  0  0  0  0  0  0  0  0  0  0  0
   47.5810   35.2130   41.3180 O   0  0  0  0  0  0  0  0  0  0  0  0
   44.6480   35.9180   44.5290 C   0  0  0  0  0  0  0  0  0  0  0  0
   45.2130   35.8070   43.2600 C   0  0  0  0  0  0  0  0  0  0  0  0
   46.0130   34.6790   43.0020 C   0  0  0  0  0  0  0  0  0  0  0  0
   46.1510   33.8210   44.0100 N   0  0  0  0  0  0  0  0  0  0  0  0
   45.6180   33.9240   45.2080 C   0  0  0  0  0  0  0  0  0  0  0  0
   44.8590   34.9810   45.4760 N   0  0  0  0  0  0  0  0  0  0  0  0
   45.8410   32.9350   46.2080 N   0  0  0  0  0  0  0  0  0  0  0  0
   45.0130   32.8910   47.3790 C   0  0  0  0  0  0  0  0  0  0  0  0
   44.5910   34.0140   47.8520 N   0  0  0  0  0  0  0  0  0  0  0  0
   44.7110   31.5990   47.9450 N   0  0  0  0  0  0  0  0  0  0  0  0
   43.9850   33.9760   48.7090 H   0  0  0  0  0  0  0  0  0  0  0  0
   43.6894   34.0808   41.3538 H   0  0  0  0  0  0  0  0  0  0  0  0
   43.7603   32.9941   37.2066 H   0  0  0  0  0  0  0  0  0  0  0  0
   46.6171   31.8011   38.5574 H   0  0  0  0  0  0  0  0  0  0  0  0
   45.2390   33.0031   35.9544 H   0  0  0  0  0  0  0  0  0  0  0  0
   46.3581   31.9793   35.5679 H   0  0  0  0  0  0  0  0  0  0  0  0
   47.0968   34.8010   36.9963 H   0  0  0  0  0  0  0  0  0  0  0  0
   44.0168   36.7879   44.7633 H   0  0  0  0  0  0  0  0  0  0  0  0
   45.0400   36.5725   42.4892 H   0  0  0  0  0  0  0  0  0  0  0  0
   46.5997   32.2485   46.0902 H   0  0  0  0  0  0  0  0  0  0  0  0
   44.1196   31.5305   48.7855 H   0  0  0  0  0  0  0  0  0  0  0  0
   45.0868   30.7450   47.5087 H   0  0  0  0  0  0  0  0  0  0  0  0
  1 14  1  0
  2  3  2  0
  2  1  1  0
  4  3  1  0
  5  6  1  0
  5  4  2  0
  6  2  1  0
  7  6  1  0
  8  9  1  0
  8  7  1  0
  9  7  1  0
 10  9  1  0
 10 11  1  0
 10 12  1  0
 13 10  1  0
 14 18  1  0
 15 14  2  0
 16 21  2  0
 17 16  1  0
 18 17  2  0
 18 19  1  0
 19 20  2  0
 20 21  1  0
 20 22  1  0
 22 23  1  0
 23 24  2  0
 23 25  1  0
 24 26  1  0
  3 27  1  0
  5 28  1  0
  7 29  1  6
  8 30  1  0
  8 31  1  0
  9 32  1  1
 16 33  1  0
 17 34  1  0
 22 35  1  0
 25 36  1  0
 25 37  1  0
M  ISO  8  27  14  28  14  29  13  30  13  31  13  32  13  33  14  34  14
M  END
>  <minimizedAffinity>  (1) 
-6.24821091

>  <minimizedRMSD>  (1) 
0.304110974

$$$$
