
     RDKit          3D

 40 43  0  0  1  0  0  0  0  0999 V2000
   46.3060   33.3580   41.3430 O   0  0  0  0  0  0  0  0  0  0  0  0
   45.3570   33.3470   40.3720 C   0  0  0  0  0  0  0  0  0  0  0  0
   44.0170   33.6870   40.6290 C   0  0  0  0  0  0  0  0  0  0  0  0
   43.3340   33.5790   39.4740 N   0  0  0  0  0  0  0  0  0  0  0  0
   44.1890   33.1850   38.5010 C   0  0  0  0  0  0  0  0  0  0  0  0
   45.3870   33.0610   39.0910 N   0  0  0  0  0  0  0  0  0  0  0  0
   46.4970   32.6410   38.2440 C   0  0  1  0  0  0  0  0  0  0  0  0
   46.3120   32.4110   36.7870 C   0  0  0  0  0  0  0  0  0  0  0  0
   46.9770   33.6570   37.1890 C   0  0  2  0  0  0  0  0  0  0  0  0
   48.5010   33.6900   37.0490 C   0  0  0  0  0  0  0  0  0  0  0  0
   48.9750   34.9320   37.3860 F   0  0  0  0  0  0  0  0  0  0  0  0
   49.0720   32.6600   37.7360 F   0  0  0  0  0  0  0  0  0  0  0  0
   48.7500   33.5250   35.6840 F   0  0  0  0  0  0  0  0  0  0  0  0
   46.5810   34.3890   42.1430 C   0  0  0  0  0  0  0  0  0  0  0  0
   47.4740   35.2060   41.7180 O   0  0  0  0  0  0  0  0  0  0  0  0
   44.4950   35.7810   44.9170 C   0  0  0  0  0  0  0  0  0  0  0  0
   45.0540   35.6680   43.6620 C   0  0  0  0  0  0  0  0  0  0  0  0
   45.9410   34.6060   43.4050 C   0  0  0  0  0  0  0  0  0  0  0  0
   46.1620   33.7860   44.4230 N   0  0  0  0  0  0  0  0  0  0  0  0
   45.6340   33.8790   45.6350 C   0  0  0  0  0  0  0  0  0  0  0  0
   44.7850   34.8930   45.8890 N   0  0  0  0  0  0  0  0  0  0  0  0
   45.9430   32.9170   46.7030 C   0  0  0  0  0  0  0  0  0  0  0  0
   47.0860   32.1270   46.5440 C   0  0  0  0  0  0  0  0  0  0  0  0
   47.3920   31.2060   47.5520 C   0  0  0  0  0  0  0  0  0  0  0  0
   46.5560   31.1080   48.6700 C   0  0  0  0  0  0  0  0  0  0  0  0
   45.4290   31.9070   48.7980 C   0  0  0  0  0  0  0  0  0  0  0  0
   45.1220   32.8160   47.8070 C   0  0  0  0  0  0  0  0  0  0  0  0
   43.6006   33.9879   41.6016 H   0  0  0  0  0  0  0  0  0  0  0  0
   43.9499   33.0036   37.4427 H   0  0  0  0  0  0  0  0  0  0  0  0
   46.9296   32.0440   39.0603 H   0  0  0  0  0  0  0  0  0  0  0  0
   45.3007   32.4511   36.3562 H   0  0  0  0  0  0  0  0  0  0  0  0
   46.5821   31.5902   36.1063 H   0  0  0  0  0  0  0  0  0  0  0  0
   46.8115   34.7202   36.9606 H   0  0  0  0  0  0  0  0  0  0  0  0
   43.8017   36.6084   45.1286 H   0  0  0  0  0  0  0  0  0  0  0  0
   44.8107   36.3961   42.8742 H   0  0  0  0  0  0  0  0  0  0  0  0
   47.7247   32.2266   45.6540 H   0  0  0  0  0  0  0  0  0  0  0  0
   48.2817   30.5648   47.4664 H   0  0  0  0  0  0  0  0  0  0  0  0
   46.7969   30.3839   49.4622 H   0  0  0  0  0  0  0  0  0  0  0  0
   44.7841   31.8161   49.6845 H   0  0  0  0  0  0  0  0  0  0  0  0
   44.2307   33.4545   47.8962 H   0  0  0  0  0  0  0  0  0  0  0  0
  1 14  1  0
  2  3  2  0
  2  1  1  0
  4  3  1  0
  5  6  1  0
  5  4  2  0
  6  2  1  0
  7  6  1  0
  8  9  1  0
  8  7  1  0
  9  7  1  0
 10  9  1  0
 10 11  1  0
 10 12  1  0
 13 10  1  0
 14 18  1  0
 15 14  2  0
 16 21  2  0
 17 16  1  0
 18 17  2  0
 18 19  1  0
 19 20  2  0
 20 21  1  0
 20 22  1  0
 22 27  1  0
 23 22  2  0
 23 24  1  0
 24 25  2  0
 25 26  1  0
 27 26  2  0
  3 28  1  0
  5 29  1  0
  7 30  1  1
  8 31  1  0
  8 32  1  0
  9 33  1  1
 16 34  1  0
 17 35  1  0
 23 36  1  0
 24 37  1  0
 25 38  1  0
 26 39  1  0
 27 40  1  0
M  ISO  8  28  14  29  14  30  13  31  13  32  13  33  13  34  14  35  14
M  ISO  5  36  14  37  14  38  14  39  14  40  14
M  END
>  <minimizedAffinity>  (1) 
-6.22360945

>  <minimizedRMSD>  (1) 
0.364433974

$$$$
