
     RDKit          3D

 40 43  0  0  1  0  0  0  0  0999 V2000
   46.2750   33.3190   41.4980 O   0  0  0  0  0  0  0  0  0  0  0  0
   45.3530   33.3350   40.5000 C   0  0  0  0  0  0  0  0  0  0  0  0
   44.0130   33.6910   40.7340 C   0  0  0  0  0  0  0  0  0  0  0  0
   43.3570   33.6100   39.5580 N   0  0  0  0  0  0  0  0  0  0  0  0
   44.2300   33.2180   38.6040 C   0  0  0  0  0  0  0  0  0  0  0  0
   45.4190   33.0660   39.2270 N   0  0  0  0  0  0  0  0  0  0  0  0
   46.5410   32.6420   38.4040 C   0  0  1  0  0  0  0  0  0  0  0  0
   46.3630   32.2960   36.9660 C   0  0  0  0  0  0  0  0  0  0  0  0
   46.9440   33.6070   37.2620 C   0  0  2  0  0  0  0  0  0  0  0  0
   48.4640   33.7370   37.0980 C   0  0  0  0  0  0  0  0  0  0  0  0
   48.8610   35.0020   37.4130 F   0  0  0  0  0  0  0  0  0  0  0  0
   49.1000   32.7400   37.7830 F   0  0  0  0  0  0  0  0  0  0  0  0
   48.7080   33.5580   35.7330 F   0  0  0  0  0  0  0  0  0  0  0  0
   46.5520   34.3590   42.3130 C   0  0  0  0  0  0  0  0  0  0  0  0
   47.4260   35.1810   41.8910 O   0  0  0  0  0  0  0  0  0  0  0  0
   44.4660   35.6640   45.1210 C   0  0  0  0  0  0  0  0  0  0  0  0
   45.0170   35.5950   43.8440 C   0  0  0  0  0  0  0  0  0  0  0  0
   45.9150   34.5470   43.5830 C   0  0  0  0  0  0  0  0  0  0  0  0
   46.1610   33.7070   44.5920 N   0  0  0  0  0  0  0  0  0  0  0  0
   45.6330   33.7790   45.8080 C   0  0  0  0  0  0  0  0  0  0  0  0
   44.7790   34.7630   46.0790 N   0  0  0  0  0  0  0  0  0  0  0  0
   45.9790   32.8000   46.8370 C   0  0  0  0  0  0  0  0  0  0  0  0
   45.1710   32.6310   47.9430 C   0  0  0  0  0  0  0  0  0  0  0  0
   45.4370   31.7270   48.9500 C   0  0  0  0  0  0  0  0  0  0  0  0
   46.6080   30.9850   48.7520 C   0  0  0  0  0  0  0  0  0  0  0  0
   47.4500   31.1100   47.6690 C   0  0  0  0  0  0  0  0  0  0  0  0
   47.1270   32.0340   46.6960 C   0  0  0  0  0  0  0  0  0  0  0  0
   43.5781   33.9829   41.7013 H   0  0  0  0  0  0  0  0  0  0  0  0
   44.0161   33.0557   37.5373 H   0  0  0  0  0  0  0  0  0  0  0  0
   47.0134   32.1308   39.2558 H   0  0  0  0  0  0  0  0  0  0  0  0
   45.3482   32.2366   36.5456 H   0  0  0  0  0  0  0  0  0  0  0  0
   46.6843   31.4469   36.3449 H   0  0  0  0  0  0  0  0  0  0  0  0
   46.7047   34.6357   36.9546 H   0  0  0  0  0  0  0  0  0  0  0  0
   43.7580   36.4723   45.3562 H   0  0  0  0  0  0  0  0  0  0  0  0
   44.7590   36.3326   43.0698 H   0  0  0  0  0  0  0  0  0  0  0  0
   44.2660   33.2508   48.0258 H   0  0  0  0  0  0  0  0  0  0  0  0
   44.7881   31.6003   49.8291 H   0  0  0  0  0  0  0  0  0  0  0  0
   46.8762   30.2452   49.5206 H   0  0  0  0  0  0  0  0  0  0  0  0
   48.3548   30.4905   47.5821 H   0  0  0  0  0  0  0  0  0  0  0  0
   47.7745   32.1620   45.8160 H   0  0  0  0  0  0  0  0  0  0  0  0
  1 14  1  0
  2  3  2  0
  2  1  1  0
  4  3  1  0
  5  6  1  0
  5  4  2  0
  6  2  1  0
  7  6  1  0
  8  9  1  0
  8  7  1  0
  9  7  1  0
 10  9  1  0
 10 11  1  0
 10 12  1  0
 13 10  1  0
 14 18  1  0
 15 14  2  0
 16 21  2  0
 17 16  1  0
 18 17  2  0
 18 19  1  0
 19 20  2  0
 20 21  1  0
 20 22  1  0
 22 23  2  0
 23 24  1  0
 25 24  2  0
 26 25  1  0
 27 22  1  0
 27 26  2  0
  3 28  1  0
  5 29  1  0
  7 30  1  1
  8 31  1  0
  8 32  1  0
  9 33  1  1
 16 34  1  0
 17 35  1  0
 23 36  1  0
 24 37  1  0
 25 38  1  0
 26 39  1  0
 27 40  1  0
M  ISO  8  28  14  29  14  30  13  31  13  32  13  33  13  34  14  35  14
M  ISO  5  36  14  37  14  38  14  39  14  40  14
M  END
>  <minimizedAffinity>  (1) 
-6.24561357

>  <minimizedRMSD>  (1) 
0.529609263

$$$$
