
     RDKit          3D

 38 41  0  0  1  0  0  0  0  0999 V2000
   45.3780   33.3580   40.3830 C   0  0  0  0  0  0  0  0  0  0  0  0
   44.0450   33.6830   40.6550 C   0  0  0  0  0  0  0  0  0  0  0  0
   43.3550   33.5430   39.5080 N   0  0  0  0  0  0  0  0  0  0  0  0
   44.1930   33.1480   38.5380 C   0  0  0  0  0  0  0  0  0  0  0  0
   45.4050   33.0490   39.1110 N   0  0  0  0  0  0  0  0  0  0  0  0
   46.5110   32.6290   38.2520 C   0  0  1  0  0  0  0  0  0  0  0  0
   46.3110   32.4090   36.7980 C   0  0  0  0  0  0  0  0  0  0  0  0
   46.9740   33.6530   37.1930 C   0  0  2  0  0  0  0  0  0  0  0  0
   48.4910   33.6970   37.0400 C   0  0  0  0  0  0  0  0  0  0  0  0
   48.9670   34.9320   37.3920 F   0  0  0  0  0  0  0  0  0  0  0  0
   49.0770   32.6660   37.7160 F   0  0  0  0  0  0  0  0  0  0  0  0
   48.7410   33.5360   35.6760 F   0  0  0  0  0  0  0  0  0  0  0  0
   46.3570   33.3960   41.3380 O   0  0  0  0  0  0  0  0  0  0  0  0
   46.5970   34.4320   42.1470 C   0  0  0  0  0  0  0  0  0  0  0  0
   47.4620   35.2700   41.7170 O   0  0  0  0  0  0  0  0  0  0  0  0
   44.5060   35.7620   44.9420 C   0  0  0  0  0  0  0  0  0  0  0  0
   45.0700   35.6770   43.6780 C   0  0  0  0  0  0  0  0  0  0  0  0
   45.9530   34.6270   43.4080 C   0  0  0  0  0  0  0  0  0  0  0  0
   46.1730   33.7860   44.4220 N   0  0  0  0  0  0  0  0  0  0  0  0
   45.6400   33.8580   45.6330 C   0  0  0  0  0  0  0  0  0  0  0  0
   44.7970   34.8600   45.8930 N   0  0  0  0  0  0  0  0  0  0  0  0
   45.9590   32.8720   46.6710 C   0  0  0  0  0  0  0  0  0  0  0  0
   47.0130   31.9960   46.4770 C   0  0  0  0  0  0  0  0  0  0  0  0
   47.2490   31.1010   47.4950 C   0  0  0  0  0  0  0  0  0  0  0  0
   46.5050   31.0730   48.6140 N   0  0  0  0  0  0  0  0  0  0  0  0
   45.4700   31.9450   48.7860 C   0  0  0  0  0  0  0  0  0  0  0  0
   45.2260   32.8270   47.7990 N   0  0  0  0  0  0  0  0  0  0  0  0
   43.6360   33.9954   41.6272 H   0  0  0  0  0  0  0  0  0  0  0  0
   43.9398   32.9460   37.4868 H   0  0  0  0  0  0  0  0  0  0  0  0
   46.9541   32.0280   39.0597 H   0  0  0  0  0  0  0  0  0  0  0  0
   45.2943   32.4470   36.3799 H   0  0  0  0  0  0  0  0  0  0  0  0
   46.5772   31.5926   36.1105 H   0  0  0  0  0  0  0  0  0  0  0  0
   46.8009   34.7155   36.9670 H   0  0  0  0  0  0  0  0  0  0  0  0
   43.8088   36.5819   45.1692 H   0  0  0  0  0  0  0  0  0  0  0  0
   44.8278   36.4201   42.9039 H   0  0  0  0  0  0  0  0  0  0  0  0
   47.6254   32.0143   45.5634 H   0  0  0  0  0  0  0  0  0  0  0  0
   48.0757   30.3831   47.3893 H   0  0  0  0  0  0  0  0  0  0  0  0
   44.8566   31.9279   49.6990 H   0  0  0  0  0  0  0  0  0  0  0  0
  1  2  2  0
  1 13  1  0
  3  2  1  0
  4  5  1  0
  4  3  2  0
  5  1  1  0
  6  5  1  0
  7  8  1  0
  7  6  1  0
  8  6  1  0
  9  8  1  0
  9 10  1  0
  9 11  1  0
 12  9  1  0
 13 14  1  0
 14 18  1  0
 15 14  2  0
 16 21  2  0
 17 16  1  0
 18 17  2  0
 18 19  1  0
 19 20  2  0
 20 21  1  0
 20 22  1  0
 22 27  1  0
 23 22  2  0
 23 24  1  0
 24 25  2  0
 25 26  1  0
 27 26  2  0
  2 28  1  0
  4 29  1  0
  6 30  1  1
  7 31  1  0
  7 32  1  0
  8 33  1  1
 16 34  1  0
 17 35  1  0
 23 36  1  0
 24 37  1  0
 26 38  1  0
M  ISO  8  28  14  29  14  30  13  31  13  32  13  33  13  34  14  35  14
M  ISO  3  36  14  37  14  38  14
M  END
>  <minimizedAffinity>  (1) 
-6.01213074

>  <minimizedRMSD>  (1) 
0.49135837

$$$$
