
     RDKit          3D

 38 41  0  0  1  0  0  0  0  0999 V2000
   45.3440   33.3590   40.3470 C   0  0  0  0  0  0  0  0  0  0  0  0
   44.0190   33.7050   40.6110 C   0  0  0  0  0  0  0  0  0  0  0  0
   43.3340   33.5900   39.4550 N   0  0  0  0  0  0  0  0  0  0  0  0
   44.1700   33.1890   38.4870 C   0  0  0  0  0  0  0  0  0  0  0  0
   45.3840   33.0620   39.0820 N   0  0  0  0  0  0  0  0  0  0  0  0
   46.4850   32.6330   38.2340 C   0  0  1  0  0  0  0  0  0  0  0  0
   46.3050   32.3760   36.7860 C   0  0  0  0  0  0  0  0  0  0  0  0
   46.9620   33.6390   37.1630 C   0  0  2  0  0  0  0  0  0  0  0  0
   48.4830   33.6790   37.0260 C   0  0  0  0  0  0  0  0  0  0  0  0
   48.9470   34.9230   37.3720 F   0  0  0  0  0  0  0  0  0  0  0  0
   49.0550   32.6420   37.6870 F   0  0  0  0  0  0  0  0  0  0  0  0
   48.7370   33.5250   35.6550 F   0  0  0  0  0  0  0  0  0  0  0  0
   46.3070   33.3730   41.3210 O   0  0  0  0  0  0  0  0  0  0  0  0
   46.5770   34.4120   42.1230 C   0  0  0  0  0  0  0  0  0  0  0  0
   47.4680   35.2160   41.6890 O   0  0  0  0  0  0  0  0  0  0  0  0
   44.4940   35.7850   44.9090 C   0  0  0  0  0  0  0  0  0  0  0  0
   45.0500   35.6880   43.6410 C   0  0  0  0  0  0  0  0  0  0  0  0
   45.9300   34.6370   43.3840 C   0  0  0  0  0  0  0  0  0  0  0  0
   46.1640   33.8060   44.4000 N   0  0  0  0  0  0  0  0  0  0  0  0
   45.6370   33.8870   45.6250 C   0  0  0  0  0  0  0  0  0  0  0  0
   44.7940   34.8930   45.8690 N   0  0  0  0  0  0  0  0  0  0  0  0
   45.9580   32.9230   46.6740 C   0  0  0  0  0  0  0  0  0  0  0  0
   47.0540   32.0940   46.5530 C   0  0  0  0  0  0  0  0  0  0  0  0
   47.3160   31.1890   47.5880 C   0  0  0  0  0  0  0  0  0  0  0  0
   46.5200   31.1290   48.6700 N   0  0  0  0  0  0  0  0  0  0  0  0
   45.4570   31.9460   48.7650 C   0  0  0  0  0  0  0  0  0  0  0  0
   45.1760   32.8400   47.7710 N   0  0  0  0  0  0  0  0  0  0  0  0
   43.6082   34.0147   41.5833 H   0  0  0  0  0  0  0  0  0  0  0  0
   43.9240   33.0019   37.4313 H   0  0  0  0  0  0  0  0  0  0  0  0
   46.9170   32.0471   39.0587 H   0  0  0  0  0  0  0  0  0  0  0  0
   45.2938   32.3998   36.3536 H   0  0  0  0  0  0  0  0  0  0  0  0
   46.5829   31.5441   36.1221 H   0  0  0  0  0  0  0  0  0  0  0  0
   46.7902   34.6968   36.9150 H   0  0  0  0  0  0  0  0  0  0  0  0
   43.7962   36.6055   45.1322 H   0  0  0  0  0  0  0  0  0  0  0  0
   44.8030   36.4211   42.8590 H   0  0  0  0  0  0  0  0  0  0  0  0
   47.7043   32.1429   45.6672 H   0  0  0  0  0  0  0  0  0  0  0  0
   48.1846   30.5180   47.5153 H   0  0  0  0  0  0  0  0  0  0  0  0
   44.8074   31.8943   49.6512 H   0  0  0  0  0  0  0  0  0  0  0  0
  1  2  2  0
  1 13  1  0
  3  2  1  0
  4  5  1  0
  4  3  2  0
  5  1  1  0
  6  5  1  0
  7  8  1  0
  7  6  1  0
  8  6  1  0
  9  8  1  0
  9 10  1  0
  9 11  1  0
 12  9  1  0
 13 14  1  0
 14 18  1  0
 15 14  2  0
 16 21  2  0
 17 16  1  0
 18 17  2  0
 18 19  1  0
 19 20  2  0
 20 21  1  0
 20 22  1  0
 22 27  1  0
 23 22  2  0
 23 24  1  0
 24 25  2  0
 25 26  1  0
 27 26  2  0
  2 28  1  0
  4 29  1  0
  6 30  1  1
  7 31  1  0
  7 32  1  0
  8 33  1  1
 16 34  1  0
 17 35  1  0
 23 36  1  0
 24 37  1  0
 26 38  1  0
M  ISO  8  28  14  29  14  30  13  31  13  32  13  33  13  34  14  35  14
M  ISO  3  36  14  37  14  38  14
M  END
>  <minimizedAffinity>  (1) 
-6.03063154

>  <minimizedRMSD>  (1) 
0.413938195

$$$$
