
     RDKit          3D

 37 40  0  0  1  0  0  0  0  0999 V2000
   45.3490   33.3400   40.3960 C   0  0  0  0  0  0  0  0  0  0  0  0
   44.0050   33.6790   40.6470 C   0  0  0  0  0  0  0  0  0  0  0  0
   43.3240   33.5710   39.4890 N   0  0  0  0  0  0  0  0  0  0  0  0
   44.1910   33.1790   38.5250 C   0  0  0  0  0  0  0  0  0  0  0  0
   45.3790   33.0570   39.1250 N   0  0  0  0  0  0  0  0  0  0  0  0
   46.4940   32.6380   38.2790 C   0  0  1  0  0  0  0  0  0  0  0  0
   46.3170   32.3670   36.8390 C   0  0  0  0  0  0  0  0  0  0  0  0
   46.9550   33.6500   37.2000 C   0  0  2  0  0  0  0  0  0  0  0  0
   48.4740   33.7110   37.0560 C   0  0  0  0  0  0  0  0  0  0  0  0
   48.9200   34.9620   37.3820 F   0  0  0  0  0  0  0  0  0  0  0  0
   49.0720   32.6940   37.7430 F   0  0  0  0  0  0  0  0  0  0  0  0
   48.7310   33.5390   35.6870 F   0  0  0  0  0  0  0  0  0  0  0  0
   46.2840   33.3560   41.3770 O   0  0  0  0  0  0  0  0  0  0  0  0
   46.5810   34.4140   42.1600 C   0  0  0  0  0  0  0  0  0  0  0  0
   47.4980   35.1890   41.7370 O   0  0  0  0  0  0  0  0  0  0  0  0
   44.4910   35.9080   44.8820 C   0  0  0  0  0  0  0  0  0  0  0  0
   45.0810   35.7720   43.6340 C   0  0  0  0  0  0  0  0  0  0  0  0
   45.9100   34.6730   43.4070 C   0  0  0  0  0  0  0  0  0  0  0  0
   46.0650   33.8270   44.4420 N   0  0  0  0  0  0  0  0  0  0  0  0
   45.5060   33.9520   45.6320 C   0  0  0  0  0  0  0  0  0  0  0  0
   44.7040   35.0110   45.8600 N   0  0  0  0  0  0  0  0  0  0  0  0
   45.7870   32.9300   46.6480 C   0  0  0  0  0  0  0  0  0  0  0  0
   45.2000   32.7790   47.8810 C   0  0  0  0  0  0  0  0  0  0  0  0
   45.6390   31.7340   48.6580 C   0  0  0  0  0  0  0  0  0  0  0  0
   46.6240   30.9170   48.1630 C   0  0  0  0  0  0  0  0  0  0  0  0
   46.9870   31.6310   46.4920 S   0  0  0  0  0  0  0  0  0  0  0  0
   43.5848   33.9793   41.6182 H   0  0  0  0  0  0  0  0  0  0  0  0
   43.9636   32.9979   37.4641 H   0  0  0  0  0  0  0  0  0  0  0  0
   46.9375   32.0652   39.1068 H   0  0  0  0  0  0  0  0  0  0  0  0
   45.3046   32.3688   36.4089 H   0  0  0  0  0  0  0  0  0  0  0  0
   46.6087   31.5335   36.1831 H   0  0  0  0  0  0  0  0  0  0  0  0
   46.7662   34.7034   36.9456 H   0  0  0  0  0  0  0  0  0  0  0  0
   43.8343   36.7690   45.0755 H   0  0  0  0  0  0  0  0  0  0  0  0
   44.8995   36.5133   42.8418 H   0  0  0  0  0  0  0  0  0  0  0  0
   44.4136   33.4641   48.2307 H   0  0  0  0  0  0  0  0  0  0  0  0
   45.2100   31.5563   49.6552 H   0  0  0  0  0  0  0  0  0  0  0  0
   47.0886   30.0440   48.6446 H   0  0  0  0  0  0  0  0  0  0  0  0
  1  2  2  0
  1 13  1  0
  3  2  1  0
  4  5  1  0
  4  3  2  0
  5  1  1  0
  6  5  1  0
  7  8  1  0
  7  6  1  0
  8  6  1  0
  9  8  1  0
  9 10  1  0
  9 11  1  0
 12  9  1  0
 13 14  1  0
 14 18  1  0
 15 14  2  0
 16 21  2  0
 17 16  1  0
 18 17  2  0
 18 19  1  0
 19 20  2  0
 20 21  1  0
 20 22  1  0
 22 23  2  0
 23 24  1  0
 25 24  2  0
 26 22  1  0
 26 25  1  0
  2 27  1  0
  4 28  1  0
  6 29  1  1
  7 30  1  0
  7 31  1  0
  8 32  1  1
 16 33  1  0
 17 34  1  0
 23 35  1  0
 24 36  1  0
 25 37  1  0
M  ISO  8  27  14  28  14  29  13  30  13  31  13  32  13  33  14  34  14
M  ISO  3  35  14  36  14  37  14
M  END
>  <minimizedAffinity>  (1) 
-5.86682701

>  <minimizedRMSD>  (1) 
0.271697879

$$$$
