
     RDKit          3D

 43 46  0  0  1  0  0  0  0  0999 V2000
   46.5280   34.4760   42.4010 C   0  0  0  0  0  0  0  0  0  0  0  0
   47.1450   35.5160   41.9930 O   0  0  0  0  0  0  0  0  0  0  0  0
   44.6730   34.9280   45.6100 C   0  0  0  0  0  0  0  0  0  0  0  0
   45.0260   35.1260   44.2850 C   0  0  0  0  0  0  0  0  0  0  0  0
   46.0680   34.3690   43.7510 C   0  0  0  0  0  0  0  0  0  0  0  0
   46.6340   33.5090   44.5970 N   0  0  0  0  0  0  0  0  0  0  0  0
   46.3120   33.3090   45.8590 C   0  0  0  0  0  0  0  0  0  0  0  0
   45.3160   34.0270   46.3790 N   0  0  0  0  0  0  0  0  0  0  0  0
   48.3860   30.4710   48.0760 C   0  0  0  0  0  0  0  0  0  0  0  0
   48.1150   31.6750   48.7170 C   0  0  0  0  0  0  0  0  0  0  0  0
   47.4180   32.6130   47.9530 C   0  0  0  0  0  0  0  0  0  0  0  0
   47.0400   32.3210   46.6470 C   0  0  0  0  0  0  0  0  0  0  0  0
   47.3380   31.0990   46.0560 C   0  0  0  0  0  0  0  0  0  0  0  0
   48.0260   30.1490   46.7830 C   0  0  0  0  0  0  0  0  0  0  0  0
   49.2550   29.2920   49.0150 S   0  0  0  0  0  0  0  0  0  0  0  0
   50.5150   28.8500   48.3520 O   0  0  0  0  0  0  0  0  0  0  0  0
   49.5850   29.8910   50.3350 O   0  0  0  0  0  0  0  0  0  0  0  0
   46.3500   33.5110   41.4800 O   0  0  0  0  0  0  0  0  0  0  0  0
   45.3790   33.5010   40.5300 C   0  0  0  0  0  0  0  0  0  0  0  0
   44.0520   33.8790   40.8070 C   0  0  0  0  0  0  0  0  0  0  0  0
   43.3410   33.7610   39.6700 N   0  0  0  0  0  0  0  0  0  0  0  0
   44.1590   33.3260   38.6880 C   0  0  0  0  0  0  0  0  0  0  0  0
   45.3810   33.1850   39.2610 N   0  0  0  0  0  0  0  0  0  0  0  0
   46.4590   32.7210   38.4070 C   0  0  1  0  0  0  0  0  0  0  0  0
   46.2320   32.4100   36.9740 C   0  0  0  0  0  0  0  0  0  0  0  0
   46.9010   33.6870   37.2810 C   0  0  2  0  0  0  0  0  0  0  0  0
   48.4150   33.7190   37.0910 C   0  0  0  0  0  0  0  0  0  0  0  0
   48.8920   34.9680   37.4050 F   0  0  0  0  0  0  0  0  0  0  0  0
   49.0130   32.6940   37.7630 F   0  0  0  0  0  0  0  0  0  0  0  0
   48.6260   33.5450   35.7250 F   0  0  0  0  0  0  0  0  0  0  0  0
   43.8517   35.5178   46.0430 H   0  0  0  0  0  0  0  0  0  0  0  0
   44.4952   35.8652   43.6671 H   0  0  0  0  0  0  0  0  0  0  0  0
   48.4276   31.8742   49.7526 H   0  0  0  0  0  0  0  0  0  0  0  0
   47.1657   33.5914   48.3879 H   0  0  0  0  0  0  0  0  0  0  0  0
   47.0291   30.8915   45.0209 H   0  0  0  0  0  0  0  0  0  0  0  0
   48.2783   29.1707   46.3479 H   0  0  0  0  0  0  0  0  0  0  0  0
   48.4556   28.1878   49.1509 H   0  0  0  0  0  0  0  0  0  0  0  0
   43.6641   34.2122   41.7809 H   0  0  0  0  0  0  0  0  0  0  0  0
   43.8904   33.1270   37.6400 H   0  0  0  0  0  0  0  0  0  0  0  0
   46.9187   32.1679   39.2393 H   0  0  0  0  0  0  0  0  0  0  0  0
   45.2073   32.4183   36.5742 H   0  0  0  0  0  0  0  0  0  0  0  0
   46.4887   31.5535   36.3333 H   0  0  0  0  0  0  0  0  0  0  0  0
   46.7208   34.7350   36.9996 H   0  0  0  0  0  0  0  0  0  0  0  0
  1  5  1  0
  2  1  2  0
  3  8  2  0
  4  3  1  0
  5  4  2  0
  5  6  1  0
  6  7  2  0
  7  8  1  0
  7 12  1  0
  9 10  2  0
  9 15  1  0
 11 10  1  0
 12 11  2  0
 13 12  1  0
 13 14  2  0
 14  9  1  0
 15 17  2  0
 16 15  2  0
 18  1  1  0
 19 20  2  0
 19 18  1  0
 21 20  1  0
 22 23  1  0
 22 21  2  0
 23 19  1  0
 24 23  1  0
 25 26  1  0
 25 24  1  0
 26 24  1  0
 27 26  1  0
 27 28  1  0
 27 29  1  0
 30 27  1  0
  3 31  1  0
  4 32  1  0
 10 33  1  0
 11 34  1  0
 13 35  1  0
 14 36  1  0
 15 37  1  0
 20 38  1  0
 22 39  1  0
 24 40  1  1
 25 41  1  0
 25 42  1  0
 26 43  1  1
M  ISO  8  31  14  32  14  33  14  34  14  35  14  36  14  37  11  38  14
M  ISO  5  39  14  40  13  41  13  42  13  43  13
M  END
>  <minimizedAffinity>  (1) 
-5.75046206

>  <minimizedRMSD>  (1) 
1.60572755

$$$$
