
     RDKit          3D

 31 33  0  0  1  0  0  0  0  0999 V2000
   45.4370   33.4420   40.2750 C   0  0  0  0  0  0  0  0  0  0  0  0
   44.1210   33.8110   40.5760 C   0  0  0  0  0  0  0  0  0  0  0  0
   43.3890   33.6410   39.4670 N   0  0  0  0  0  0  0  0  0  0  0  0
   44.1840   33.1800   38.4790 C   0  0  0  0  0  0  0  0  0  0  0  0
   45.4120   33.0790   39.0230 N   0  0  0  0  0  0  0  0  0  0  0  0
   46.4790   32.5950   38.1530 C   0  0  1  0  0  0  0  0  0  0  0  0
   46.2580   32.3930   36.6950 C   0  0  0  0  0  0  0  0  0  0  0  0
   47.0110   33.6030   37.0930 C   0  0  2  0  0  0  0  0  0  0  0  0
   48.5200   33.5430   36.9220 C   0  0  0  0  0  0  0  0  0  0  0  0
   49.0780   34.7360   37.3180 F   0  0  0  0  0  0  0  0  0  0  0  0
   49.0330   32.4530   37.5450 F   0  0  0  0  0  0  0  0  0  0  0  0
   48.7460   33.4130   35.5530 F   0  0  0  0  0  0  0  0  0  0  0  0
   46.4460   33.4990   41.1960 O   0  0  0  0  0  0  0  0  0  0  0  0
   46.7290   34.5660   41.9630 C   0  0  0  0  0  0  0  0  0  0  0  0
   47.7050   35.2870   41.5870 O   0  0  0  0  0  0  0  0  0  0  0  0
   44.5900   36.2690   44.5210 C   0  0  0  0  0  0  0  0  0  0  0  0
   45.2670   36.0840   43.3190 C   0  0  0  0  0  0  0  0  0  0  0  0
   45.9800   34.8970   43.1530 C   0  0  0  0  0  0  0  0  0  0  0  0
   45.9410   34.0440   44.1860 N   0  0  0  0  0  0  0  0  0  0  0  0
   45.2980   34.2190   45.3280 C   0  0  0  0  0  0  0  0  0  0  0  0
   44.6150   35.3460   45.4970 N   0  0  0  0  0  0  0  0  0  0  0  0
   45.4040   33.1770   46.2700 O   0  0  0  0  0  0  0  0  0  0  0  0
   43.7542   34.1747   41.5472 H   0  0  0  0  0  0  0  0  0  0  0  0
   43.8910   32.9377   37.4468 H   0  0  0  0  0  0  0  0  0  0  0  0
   46.8840   31.9598   38.9545 H   0  0  0  0  0  0  0  0  0  0  0  0
   45.2439   32.4986   36.2820 H   0  0  0  0  0  0  0  0  0  0  0  0
   46.4672   31.5628   36.0043 H   0  0  0  0  0  0  0  0  0  0  0  0
   46.9095   34.6772   36.8792 H   0  0  0  0  0  0  0  0  0  0  0  0
   44.0189   37.1962   44.6761 H   0  0  0  0  0  0  0  0  0  0  0  0
   45.2406   36.8475   42.5275 H   0  0  0  0  0  0  0  0  0  0  0  0
   44.9443   33.2509   47.1437 H   0  0  0  0  0  0  0  0  0  0  0  0
  1  2  2  0
  1 13  1  0
  3  2  1  0
  4  5  1  0
  4  3  2  0
  5  1  1  0
  6  5  1  0
  7  8  1  0
  7  6  1  0
  8  6  1  0
  9  8  1  0
  9 10  1  0
  9 11  1  0
 12  9  1  0
 13 14  1  0
 14 18  1  0
 15 14  2  0
 16 21  2  0
 17 16  1  0
 18 17  2  0
 18 19  1  0
 19 20  2  0
 20 21  1  0
 20 22  1  0
  2 23  1  0
  4 24  1  0
  6 25  1  1
  7 26  1  0
  7 27  1  0
  8 28  1  1
 16 29  1  0
 17 30  1  0
 22 31  1  0
M  ISO  8  23  14  24  14  25  13  26  13  27  13  28  13  29  14  30  14
M  ISO  1  31   3
M  END
>  <minimizedAffinity>  (1) 
-5.16237879

>  <minimizedRMSD>  (1) 
0.123385042

$$$$
