
     RDKit          3D

 33 35  0  0  1  0  0  0  0  0999 V2000
   45.3270   33.3490   40.3310 C   0  0  0  0  0  0  0  0  0  0  0  0
   43.9970   33.6790   40.5840 C   0  0  0  0  0  0  0  0  0  0  0  0
   43.3140   33.5600   39.4310 N   0  0  0  0  0  0  0  0  0  0  0  0
   44.1790   33.1640   38.4620 C   0  0  0  0  0  0  0  0  0  0  0  0
   45.3760   33.0540   39.0640 N   0  0  0  0  0  0  0  0  0  0  0  0
   46.4890   32.6370   38.2240 C   0  0  1  0  0  0  0  0  0  0  0  0
   46.3380   32.4220   36.7720 C   0  0  0  0  0  0  0  0  0  0  0  0
   47.0020   33.6710   37.2020 C   0  0  2  0  0  0  0  0  0  0  0  0
   48.5270   33.6910   37.0870 C   0  0  0  0  0  0  0  0  0  0  0  0
   49.0010   34.9420   37.3940 F   0  0  0  0  0  0  0  0  0  0  0  0
   49.0820   32.6880   37.8230 F   0  0  0  0  0  0  0  0  0  0  0  0
   48.8030   33.4780   35.7350 F   0  0  0  0  0  0  0  0  0  0  0  0
   46.2790   33.3750   41.3170 O   0  0  0  0  0  0  0  0  0  0  0  0
   46.6040   34.4470   42.0540 C   0  0  0  0  0  0  0  0  0  0  0  0
   47.5860   35.1380   41.6290 O   0  0  0  0  0  0  0  0  0  0  0  0
   44.4900   36.2130   44.5860 C   0  0  0  0  0  0  0  0  0  0  0  0
   45.1180   35.9770   43.3660 C   0  0  0  0  0  0  0  0  0  0  0  0
   45.9030   34.8110   43.2510 C   0  0  0  0  0  0  0  0  0  0  0  0
   45.9670   34.0400   44.3330 N   0  0  0  0  0  0  0  0  0  0  0  0
   45.3670   34.2700   45.4900 C   0  0  0  0  0  0  0  0  0  0  0  0
   44.6200   35.3600   45.6350 N   0  0  0  0  0  0  0  0  0  0  0  0
   45.5450   33.3150   46.5790 C   0  0  0  0  0  0  0  0  0  0  0  0
   46.4420   32.4350   46.5080 O   0  0  0  0  0  0  0  0  0  0  0  0
   44.8020   33.2700   47.7330 O   0  0  0  0  0  0  0  0  0  0  0  0
   43.5793   33.9831   41.5551 H   0  0  0  0  0  0  0  0  0  0  0  0
   43.9481   32.9728   37.4036 H   0  0  0  0  0  0  0  0  0  0  0  0
   46.8957   32.0193   39.0383 H   0  0  0  0  0  0  0  0  0  0  0  0
   45.3369   32.4691   36.3186 H   0  0  0  0  0  0  0  0  0  0  0  0
   46.6212   31.6061   36.0908 H   0  0  0  0  0  0  0  0  0  0  0  0
   46.8489   34.7396   36.9908 H   0  0  0  0  0  0  0  0  0  0  0  0
   43.8716   37.1151   44.7036 H   0  0  0  0  0  0  0  0  0  0  0  0
   45.0060   36.6744   42.5227 H   0  0  0  0  0  0  0  0  0  0  0  0
   44.9953   32.5836   48.4197 H   0  0  0  0  0  0  0  0  0  0  0  0
  1  2  2  0
  1 13  1  0
  3  2  1  0
  4  5  1  0
  4  3  2  0
  5  1  1  0
  6  5  1  0
  7  8  1  0
  7  6  1  0
  8  6  1  0
  9  8  1  0
  9 10  1  0
  9 11  1  0
 12  9  1  0
 13 14  1  0
 14 18  1  0
 15 14  2  0
 16 21  2  0
 17 16  1  0
 18 17  2  0
 18 19  1  0
 19 20  2  0
 20 21  1  0
 20 22  1  0
 22 24  1  0
 23 22  2  0
  2 25  1  0
  4 26  1  0
  6 27  1  1
  7 28  1  0
  7 29  1  0
  8 30  1  1
 16 31  1  0
 17 32  1  0
 24 33  1  0
M  ISO  8  25  14  26  14  27  13  28  13  29  13  30  13  31  14  32  14
M  ISO  1  33   3
M  END
>  <minimizedAffinity>  (1) 
-5.61045837

>  <minimizedRMSD>  (1) 
0.214060545

$$$$
