
     RDKit          3D

 39 41  0  0  1  0  0  0  0  0999 V2000
   45.4870   33.4900   40.3650 C   0  0  0  0  0  0  0  0  0  0  0  0
   44.1750   33.8590   40.6470 C   0  0  0  0  0  0  0  0  0  0  0  0
   43.4480   33.7020   39.5290 N   0  0  0  0  0  0  0  0  0  0  0  0
   44.2690   33.2430   38.5500 C   0  0  0  0  0  0  0  0  0  0  0  0
   45.4840   33.1330   39.1100 N   0  0  0  0  0  0  0  0  0  0  0  0
   46.5460   32.6530   38.2440 C   0  0  1  0  0  0  0  0  0  0  0  0
   46.3510   32.4490   36.7970 C   0  0  0  0  0  0  0  0  0  0  0  0
   47.0830   33.6480   37.1960 C   0  0  2  0  0  0  0  0  0  0  0  0
   48.6060   33.5960   37.0510 C   0  0  0  0  0  0  0  0  0  0  0  0
   49.1500   34.8090   37.3520 F   0  0  0  0  0  0  0  0  0  0  0  0
   49.1320   32.5560   37.7560 F   0  0  0  0  0  0  0  0  0  0  0  0
   48.8430   33.3770   35.6850 F   0  0  0  0  0  0  0  0  0  0  0  0
   46.4880   33.5350   41.3010 O   0  0  0  0  0  0  0  0  0  0  0  0
   46.6900   34.5550   42.1590 C   0  0  0  0  0  0  0  0  0  0  0  0
   47.5010   35.4550   41.7650 O   0  0  0  0  0  0  0  0  0  0  0  0
   44.5400   35.6070   45.0360 C   0  0  0  0  0  0  0  0  0  0  0  0
   45.0930   35.6280   43.7610 C   0  0  0  0  0  0  0  0  0  0  0  0
   46.0440   34.6430   43.4360 C   0  0  0  0  0  0  0  0  0  0  0  0
   46.3260   33.7740   44.3950 N   0  0  0  0  0  0  0  0  0  0  0  0
   45.8050   33.7420   45.6160 C   0  0  0  0  0  0  0  0  0  0  0  0
   44.9010   34.6660   45.9460 N   0  0  0  0  0  0  0  0  0  0  0  0
   46.1800   32.7180   46.6480 C   0  0  0  0  0  0  0  0  0  0  0  0
   45.2390   32.6910   47.8120 C   0  0  0  0  0  0  0  0  0  0  0  0
   46.2140   31.3320   46.0380 C   0  0  0  0  0  0  0  0  0  0  0  0
   43.7991   34.2169   41.6168 H   0  0  0  0  0  0  0  0  0  0  0  0
   43.9947   33.0091   37.5107 H   0  0  0  0  0  0  0  0  0  0  0  0
   46.9371   32.0174   39.0521 H   0  0  0  0  0  0  0  0  0  0  0  0
   45.3430   32.5489   36.3682 H   0  0  0  0  0  0  0  0  0  0  0  0
   46.5749   31.6176   36.1124 H   0  0  0  0  0  0  0  0  0  0  0  0
   46.9791   34.7202   36.9732 H   0  0  0  0  0  0  0  0  0  0  0  0
   43.7953   36.3676   45.3133 H   0  0  0  0  0  0  0  0  0  0  0  0
   44.7960   36.3921   43.0276 H   0  0  0  0  0  0  0  0  0  0  0  0
   47.1761   33.0102   47.0118 H   0  0  0  0  0  0  0  0  0  0  0  0
   45.8146   32.7075   48.7493 H   0  0  0  0  0  0  0  0  0  0  0  0
   44.5797   33.5706   47.7710 H   0  0  0  0  0  0  0  0  0  0  0  0
   44.6313   31.7750   47.7710 H   0  0  0  0  0  0  0  0  0  0  0  0
   46.2325   30.5789   46.8396 H   0  0  0  0  0  0  0  0  0  0  0  0
   45.3192   31.1832   45.4157 H   0  0  0  0  0  0  0  0  0  0  0  0
   47.1150   31.2273   45.4157 H   0  0  0  0  0  0  0  0  0  0  0  0
  1  2  2  0
  1 13  1  0
  3  2  1  0
  4  5  1  0
  4  3  2  0
  5  1  1  0
  6  5  1  0
  7  8  1  0
  7  6  1  0
  8  6  1  0
  9  8  1  0
  9 10  1  0
  9 11  1  0
 12  9  1  0
 13 14  1  0
 14 18  1  0
 15 14  2  0
 16 21  2  0
 17 16  1  0
 18 17  2  0
 18 19  1  0
 19 20  2  0
 20 21  1  0
 20 22  1  0
 22 23  1  0
 24 22  1  0
  2 25  1  0
  4 26  1  0
  6 27  1  1
  7 28  1  0
  7 29  1  0
  8 30  1  1
 16 31  1  0
 17 32  1  0
 22 33  1  0
 23 34  1  0
 23 35  1  0
 23 36  1  0
 24 37  1  0
 24 38  1  0
 24 39  1  0
M  ISO  8  25  14  26  14  27  13  28  13  29  13  30  13  31  14  32  14
M  ISO  7  33   8  34   8  35   8  36   8  37   8  38   8  39   8
M  END
>  <minimizedAffinity>  (1) 
-5.3141036

>  <minimizedRMSD>  (1) 
0.426647455

$$$$
