
     RDKit          3D

 50 53  0  0  1  0  0  0  0  0999 V2000
   44.7960   33.7240   40.9840 N   0  0  0  0  0  0  0  0  0  0  0  0
   43.5860   34.4800   40.6080 C   0  0  0  0  0  0  0  0  0  0  0  0
   42.4250   34.1520   41.4990 C   0  0  0  0  0  0  0  0  0  0  0  0
   42.2010   32.7310   41.4530 N   0  0  0  0  0  0  0  0  0  0  0  0
   43.3430   32.1390   42.1460 C   0  0  0  0  0  0  0  0  0  0  0  0
   44.6600   32.3730   41.4490 C   0  0  1  0  0  0  0  0  0  0  0  0
   46.6510   34.7970   42.0760 C   0  0  0  0  0  0  0  0  0  0  0  0
   47.9500   35.2500   42.0070 C   0  0  0  0  0  0  0  0  0  0  0  0
   48.7320   35.1270   40.8580 C   0  0  0  0  0  0  0  0  0  0  0  0
   48.1790   34.5180   39.7210 C   0  0  0  0  0  0  0  0  0  0  0  0
   46.8890   34.0700   39.7930 C   0  0  0  0  0  0  0  0  0  0  0  0
   46.1560   34.2090   40.9350 C   0  0  0  0  0  0  0  0  0  0  0  0
   44.4600   36.1130   44.8220 C   0  0  0  0  0  0  0  0  0  0  0  0
   45.1010   36.0570   43.5730 C   0  0  0  0  0  0  0  0  0  0  0  0
   45.9370   34.9750   43.3080 C   0  0  0  0  0  0  0  0  0  0  0  0
   46.0970   34.0230   44.2630 N   0  0  0  0  0  0  0  0  0  0  0  0
   45.4530   34.1210   45.4590 C   0  0  0  0  0  0  0  0  0  0  0  0
   44.6370   35.1650   45.7330 N   0  0  0  0  0  0  0  0  0  0  0  0
   45.0010   31.3380   40.4180 C   0  0  0  0  0  0  0  0  0  0  0  0
   44.6450   29.9670   40.9250 C   0  0  0  0  0  0  0  0  0  0  0  0
   45.5360   29.0320   40.1110 C   0  0  0  0  0  0  0  0  0  0  0  0
   45.3360   29.1940   38.6420 C   0  0  0  0  0  0  0  0  0  0  0  0
   45.1370   30.5680   38.1370 C   0  0  0  0  0  0  0  0  0  0  0  0
   44.3750   31.4940   39.0960 C   0  0  0  0  0  0  0  0  0  0  0  0
   43.8005   35.5562   40.6843 H   0  0  0  0  0  0  0  0  0  0  0  0
   43.3158   34.2028   39.5784 H   0  0  0  0  0  0  0  0  0  0  0  0
   42.6510   34.4588   42.5309 H   0  0  0  0  0  0  0  0  0  0  0  0
   41.5259   34.6864   41.1585 H   0  0  0  0  0  0  0  0  0  0  0  0
   41.3224   32.4884   41.9326 H   0  0  0  0  0  0  0  0  0  0  0  0
   43.4013   32.5740   43.1547 H   0  0  0  0  0  0  0  0  0  0  0  0
   43.1785   31.0516   42.1681 H   0  0  0  0  0  0  0  0  0  0  0  0
   45.4333   32.2380   42.2196 H   0  0  0  0  0  0  0  0  0  0  0  0
   48.3891   35.7287   42.8947 H   0  0  0  0  0  0  0  0  0  0  0  0
   49.7661   35.5016   40.8436 H   0  0  0  0  0  0  0  0  0  0  0  0
   48.7666   34.4042   38.7981 H   0  0  0  0  0  0  0  0  0  0  0  0
   46.4343   33.5890   38.9144 H   0  0  0  0  0  0  0  0  0  0  0  0
   43.7972   36.9610   45.0493 H   0  0  0  0  0  0  0  0  0  0  0  0
   44.9466   36.8474   42.8237 H   0  0  0  0  0  0  0  0  0  0  0  0
   45.5989   33.3368   46.2164 H   0  0  0  0  0  0  0  0  0  0  0  0
   46.0813   31.4780   40.2655 H   0  0  0  0  0  0  0  0  0  0  0  0
   44.8629   29.8783   41.9995 H   0  0  0  0  0  0  0  0  0  0  0  0
   43.5750   29.7378   40.8129 H   0  0  0  0  0  0  0  0  0  0  0  0
   46.5876   29.2483   40.3506 H   0  0  0  0  0  0  0  0  0  0  0  0
   45.2677   27.9983   40.3746 H   0  0  0  0  0  0  0  0  0  0  0  0
   46.2233   28.7816   38.1394 H   0  0  0  0  0  0  0  0  0  0  0  0
   44.3928   28.6715   38.4241 H   0  0  0  0  0  0  0  0  0  0  0  0
   46.1257   31.0103   37.9453 H   0  0  0  0  0  0  0  0  0  0  0  0
   44.5214   30.4820   37.2295 H   0  0  0  0  0  0  0  0  0  0  0  0
   44.4551   32.5381   38.7591 H   0  0  0  0  0  0  0  0  0  0  0  0
   43.3062   31.2361   39.1306 H   0  0  0  0  0  0  0  0  0  0  0  0
  1  6  1  0
  2  1  1  0
  2  3  1  0
  4  3  1  0
  4  5  1  0
  6  5  1  0
  7 15  1  0
  8  7  2  0
  9  8  1  0
 10 11  1  0
 10  9  2  0
 11 12  2  0
 12  1  1  0
 12  7  1  0
 13 18  2  0
 14 13  1  0
 15 14  2  0
 15 16  1  0
 16 17  2  0
 17 18  1  0
 19 20  1  0
 19  6  1  0
 21 20  1  0
 22 21  1  0
 23 22  1  0
 23 24  1  0
 24 19  1  0
  2 25  1  0
  2 26  1  0
  3 27  1  0
  3 28  1  0
  4 29  1  0
  5 30  1  0
  5 31  1  0
  6 32  1  1
  8 33  1  0
  9 34  1  0
 10 35  1  0
 11 36  1  0
 13 37  1  0
 14 38  1  0
 17 39  1  0
 19 40  1  0
 20 41  1  0
 20 42  1  0
 21 43  1  0
 21 44  1  0
 22 45  1  0
 22 46  1  0
 23 47  1  0
 23 48  1  0
 24 49  1  0
 24 50  1  0
M  ISO  8  25  13  26  13  27  13  28  13  29   5  30  13  31  13  32  13
M  ISO  8  33  14  34  14  35  14  36  14  37  14  38  14  39  14  40  13
M  ISO  8  41  13  42  13  43  13  44  13  45  13  46  13  47  13  48  13
M  ISO  2  49  13  50  13
M  END
>  <minimizedAffinity>  (1) 
-5.64039993

>  <minimizedRMSD>  (1) 
0.116251729

$$$$
