
     RDKit          3D

 32 34  0  0  1  0  0  0  0  0999 V2000
   45.3230   33.3610   40.3890 C   0  0  0  0  0  0  0  0  0  0  0  0
   43.9910   33.6910   40.6260 C   0  0  0  0  0  0  0  0  0  0  0  0
   43.3200   33.5610   39.4610 N   0  0  0  0  0  0  0  0  0  0  0  0
   44.1820   33.1640   38.5110 C   0  0  0  0  0  0  0  0  0  0  0  0
   45.3820   33.0560   39.1180 N   0  0  0  0  0  0  0  0  0  0  0  0
   46.5130   32.6320   38.2890 C   0  0  1  0  0  0  0  0  0  0  0  0
   46.3360   32.3640   36.8400 C   0  0  0  0  0  0  0  0  0  0  0  0
   46.9640   33.6360   37.2010 C   0  0  2  0  0  0  0  0  0  0  0  0
   48.4710   33.7250   37.0620 C   0  0  0  0  0  0  0  0  0  0  0  0
   48.9090   34.9780   37.3880 F   0  0  0  0  0  0  0  0  0  0  0  0
   49.0820   32.7180   37.7580 F   0  0  0  0  0  0  0  0  0  0  0  0
   48.7470   33.5380   35.7000 F   0  0  0  0  0  0  0  0  0  0  0  0
   46.2670   33.3920   41.3700 O   0  0  0  0  0  0  0  0  0  0  0  0
   46.5860   34.4600   42.1190 C   0  0  0  0  0  0  0  0  0  0  0  0
   47.5610   35.1500   41.6930 O   0  0  0  0  0  0  0  0  0  0  0  0
   44.4860   36.2020   44.6700 C   0  0  0  0  0  0  0  0  0  0  0  0
   45.1190   35.9700   43.4610 C   0  0  0  0  0  0  0  0  0  0  0  0
   45.8860   34.8100   43.3170 C   0  0  0  0  0  0  0  0  0  0  0  0
   45.9270   34.0250   44.3920 N   0  0  0  0  0  0  0  0  0  0  0  0
   45.3320   34.2280   45.5540 C   0  0  0  0  0  0  0  0  0  0  0  0
   44.5960   35.3410   45.6930 N   0  0  0  0  0  0  0  0  0  0  0  0
   45.4450   33.3070   46.6590 N   0  0  0  0  0  0  0  0  0  0  0  0
   43.5619   34.0020   41.5899 H   0  0  0  0  0  0  0  0  0  0  0  0
   43.9557   32.9669   37.4527 H   0  0  0  0  0  0  0  0  0  0  0  0
   46.9606   32.0667   39.1198 H   0  0  0  0  0  0  0  0  0  0  0  0
   45.3235   32.3639   36.4100 H   0  0  0  0  0  0  0  0  0  0  0  0
   46.6305   31.5335   36.1815 H   0  0  0  0  0  0  0  0  0  0  0  0
   46.7671   34.6859   36.9386 H   0  0  0  0  0  0  0  0  0  0  0  0
   43.8800   37.1115   44.7946 H   0  0  0  0  0  0  0  0  0  0  0  0
   45.0205   36.6841   42.6301 H   0  0  0  0  0  0  0  0  0  0  0  0
   44.9631   33.5066   47.5472 H   0  0  0  0  0  0  0  0  0  0  0  0
   46.0075   32.4499   46.5596 H   0  0  0  0  0  0  0  0  0  0  0  0
  1  2  2  0
  1 13  1  0
  3  2  1  0
  4  5  1  0
  4  3  2  0
  5  1  1  0
  6  5  1  0
  7  8  1  0
  7  6  1  0
  8  6  1  0
  9  8  1  0
  9 10  1  0
  9 11  1  0
 12  9  1  0
 13 14  1  0
 14 18  1  0
 15 14  2  0
 16 21  2  0
 17 16  1  0
 18 17  2  0
 18 19  1  0
 19 20  2  0
 20 21  1  0
 20 22  1  0
  2 23  1  0
  4 24  1  0
  6 25  1  1
  7 26  1  0
  7 27  1  0
  8 28  1  1
 16 29  1  0
 17 30  1  0
 22 31  1  0
 22 32  1  0
M  ISO  8  23  14  24  14  25  13  26  13  27  13  28  13  29  14  30  14
M  END
>  <minimizedAffinity>  (1) 
-5.28764915

>  <minimizedRMSD>  (1) 
0.202736735

$$$$
