
     RDKit          3D

 42 44  0  0  1  0  0  0  0  0999 V2000
   45.3930   33.4060   40.6520 C   0  0  0  0  0  0  0  0  0  0  0  0
   44.0490   33.7610   40.8910 C   0  0  0  0  0  0  0  0  0  0  0  0
   43.3850   33.6630   39.7210 N   0  0  0  0  0  0  0  0  0  0  0  0
   44.2580   33.2630   38.7630 C   0  0  0  0  0  0  0  0  0  0  0  0
   45.4450   33.1230   39.3760 N   0  0  0  0  0  0  0  0  0  0  0  0
   46.5630   32.6970   38.5580 C   0  0  1  0  0  0  0  0  0  0  0  0
   46.3670   32.2610   37.1430 C   0  0  0  0  0  0  0  0  0  0  0  0
   46.9190   33.6020   37.3530 C   0  0  2  0  0  0  0  0  0  0  0  0
   48.4290   33.7550   37.1540 C   0  0  0  0  0  0  0  0  0  0  0  0
   48.8050   35.0340   37.4540 F   0  0  0  0  0  0  0  0  0  0  0  0
   49.1090   32.7840   37.8320 F   0  0  0  0  0  0  0  0  0  0  0  0
   48.6330   33.5750   35.7800 F   0  0  0  0  0  0  0  0  0  0  0  0
   46.3220   33.4060   41.6490 O   0  0  0  0  0  0  0  0  0  0  0  0
   46.5360   34.4260   42.5080 C   0  0  0  0  0  0  0  0  0  0  0  0
   47.3070   35.3460   42.1100 O   0  0  0  0  0  0  0  0  0  0  0  0
   44.5330   35.4180   45.5110 C   0  0  0  0  0  0  0  0  0  0  0  0
   45.0530   35.4830   44.2290 C   0  0  0  0  0  0  0  0  0  0  0  0
   45.9260   34.4760   43.8160 C   0  0  0  0  0  0  0  0  0  0  0  0
   46.1860   33.5260   44.7090 N   0  0  0  0  0  0  0  0  0  0  0  0
   45.6920   33.4540   45.9470 C   0  0  0  0  0  0  0  0  0  0  0  0
   44.8570   34.4060   46.3550 N   0  0  0  0  0  0  0  0  0  0  0  0
   46.0360   32.3470   46.8930 C   0  0  0  0  0  0  0  0  0  0  0  0
   46.0070   31.0060   46.1930 C   0  0  0  0  0  0  0  0  0  0  0  0
   45.0240   32.2720   48.0240 C   0  0  0  0  0  0  0  0  0  0  0  0
   47.3870   32.5080   47.5280 C   0  0  0  0  0  0  0  0  0  0  0  0
   43.6196   34.0634   41.8576 H   0  0  0  0  0  0  0  0  0  0  0  0
   44.0384   33.0886   37.6994 H   0  0  0  0  0  0  0  0  0  0  0  0
   47.0683   32.2565   39.4302 H   0  0  0  0  0  0  0  0  0  0  0  0
   45.3467   32.1517   36.7468 H   0  0  0  0  0  0  0  0  0  0  0  0
   46.6987   31.3854   36.5656 H   0  0  0  0  0  0  0  0  0  0  0  0
   46.6469   34.6046   36.9914 H   0  0  0  0  0  0  0  0  0  0  0  0
   43.8427   36.2034   45.8523 H   0  0  0  0  0  0  0  0  0  0  0  0
   44.7844   36.3082   43.5531 H   0  0  0  0  0  0  0  0  0  0  0  0
   45.9896   30.2013   46.9428 H   0  0  0  0  0  0  0  0  0  0  0  0
   45.1072   30.9403   45.5636 H   0  0  0  0  0  0  0  0  0  0  0  0
   46.9031   30.9014   45.5636 H   0  0  0  0  0  0  0  0  0  0  0  0
   45.5496   32.3110   48.9895 H   0  0  0  0  0  0  0  0  0  0  0  0
   44.3285   33.1211   47.9506 H   0  0  0  0  0  0  0  0  0  0  0  0
   44.4613   31.3297   47.9506 H   0  0  0  0  0  0  0  0  0  0  0  0
   47.2814   32.4954   48.6228 H   0  0  0  0  0  0  0  0  0  0  0  0
   48.0410   31.6814   47.2132 H   0  0  0  0  0  0  0  0  0  0  0  0
   47.8284   33.4651   47.2132 H   0  0  0  0  0  0  0  0  0  0  0  0
  1  2  2  0
  1 13  1  0
  3  2  1  0
  4  5  1  0
  4  3  2  0
  5  1  1  0
  6  5  1  0
  7  8  1  0
  7  6  1  0
  8  6  1  0
  9  8  1  0
  9 10  1  0
  9 11  1  0
 12  9  1  0
 13 14  1  0
 14 18  1  0
 15 14  2  0
 16 21  2  0
 17 16  1  0
 18 17  2  0
 18 19  1  0
 19 20  2  0
 20 21  1  0
 20 22  1  0
 22 25  1  0
 22 24  1  0
 23 22  1  0
  2 26  1  0
  4 27  1  0
  6 28  1  1
  7 29  1  0
  7 30  1  0
  8 31  1  1
 16 32  1  0
 17 33  1  0
 23 34  1  0
 23 35  1  0
 23 36  1  0
 24 37  1  0
 24 38  1  0
 24 39  1  0
 25 40  1  0
 25 41  1  0
 25 42  1  0
M  ISO  8  26  14  27  14  28  13  29  13  30  13  31  13  32  14  33  14
M  ISO  8  34   8  35   8  36   8  37   8  38   8  39   8  40   8  41   8
M  ISO  1  42   8
M  END
>  <minimizedAffinity>  (1) 
-5.38652611

>  <minimizedRMSD>  (1) 
0.761571884

$$$$
