
     RDKit          3D

 42 45  0  0  1  0  0  0  0  0999 V2000
   44.8100   33.6870   40.9980 N   0  0  0  0  0  0  0  0  0  0  0  0
   43.6030   34.4200   40.5730 C   0  0  0  0  0  0  0  0  0  0  0  0
   42.4320   34.1270   41.4570 C   0  0  0  0  0  0  0  0  0  0  0  0
   42.2220   32.6920   41.4760 N   0  0  0  0  0  0  0  0  0  0  0  0
   43.3530   32.1480   42.2080 C   0  0  0  0  0  0  0  0  0  0  0  0
   44.6810   32.3560   41.5120 C   0  0  1  0  0  0  0  0  0  0  0  0
   46.6540   34.7920   42.0780 C   0  0  0  0  0  0  0  0  0  0  0  0
   47.9440   35.2650   42.0110 C   0  0  0  0  0  0  0  0  0  0  0  0
   48.7260   35.1440   40.8520 C   0  0  0  0  0  0  0  0  0  0  0  0
   48.1780   34.5220   39.7220 C   0  0  0  0  0  0  0  0  0  0  0  0
   46.8920   34.0550   39.8010 C   0  0  0  0  0  0  0  0  0  0  0  0
   46.1670   34.1920   40.9470 C   0  0  0  0  0  0  0  0  0  0  0  0
   44.4500   36.1130   44.8190 C   0  0  0  0  0  0  0  0  0  0  0  0
   45.0930   36.0490   43.5730 C   0  0  0  0  0  0  0  0  0  0  0  0
   45.9400   34.9670   43.3140 C   0  0  0  0  0  0  0  0  0  0  0  0
   46.1010   34.0290   44.2770 N   0  0  0  0  0  0  0  0  0  0  0  0
   45.4520   34.1400   45.4690 C   0  0  0  0  0  0  0  0  0  0  0  0
   44.6380   35.1700   45.7320 N   0  0  0  0  0  0  0  0  0  0  0  0
   45.0190   31.2830   40.5410 C   0  0  0  0  0  0  0  0  0  0  0  0
   44.5130   31.2160   39.2580 C   0  0  0  0  0  0  0  0  0  0  0  0
   44.8330   30.2150   38.3630 C   0  0  0  0  0  0  0  0  0  0  0  0
   45.6810   29.2370   38.7290 N   0  0  0  0  0  0  0  0  0  0  0  0
   46.1830   29.2860   39.9730 C   0  0  0  0  0  0  0  0  0  0  0  0
   45.8670   30.2520   40.8220 N   0  0  0  0  0  0  0  0  0  0  0  0
   43.8123   35.4994   40.6062 H   0  0  0  0  0  0  0  0  0  0  0  0
   43.3493   34.0964   39.5528 H   0  0  0  0  0  0  0  0  0  0  0  0
   42.6367   34.4863   42.4763 H   0  0  0  0  0  0  0  0  0  0  0  0
   41.5340   34.6359   41.0767 H   0  0  0  0  0  0  0  0  0  0  0  0
   41.3390   32.4630   41.9543 H   0  0  0  0  0  0  0  0  0  0  0  0
   43.3965   32.6352   43.1933 H   0  0  0  0  0  0  0  0  0  0  0  0
   43.1955   31.0621   42.2852 H   0  0  0  0  0  0  0  0  0  0  0  0
   45.4610   32.2590   42.2816 H   0  0  0  0  0  0  0  0  0  0  0  0
   48.3772   35.7546   42.8957 H   0  0  0  0  0  0  0  0  0  0  0  0
   49.7551   35.5321   40.8308 H   0  0  0  0  0  0  0  0  0  0  0  0
   48.7637   34.4117   38.7975 H   0  0  0  0  0  0  0  0  0  0  0  0
   46.4388   33.5630   38.9278 H   0  0  0  0  0  0  0  0  0  0  0  0
   43.7808   36.9573   45.0412 H   0  0  0  0  0  0  0  0  0  0  0  0
   44.9342   36.8324   42.8173 H   0  0  0  0  0  0  0  0  0  0  0  0
   45.6002   33.3643   46.2347 H   0  0  0  0  0  0  0  0  0  0  0  0
   43.8172   32.0029   38.9314 H   0  0  0  0  0  0  0  0  0  0  0  0
   44.3959   30.2170   37.3536 H   0  0  0  0  0  0  0  0  0  0  0  0
   46.8791   28.4986   40.2976 H   0  0  0  0  0  0  0  0  0  0  0  0
  1  6  1  0
  2  1  1  0
  2  3  1  0
  3  4  1  0
  4  5  1  0
  6  5  1  0
  7 15  1  0
  8  7  2  0
  9  8  1  0
 10 11  1  0
 10  9  2  0
 11 12  2  0
 12  1  1  0
 12  7  1  0
 13 18  2  0
 14 13  1  0
 15 14  2  0
 15 16  1  0
 16 17  2  0
 17 18  1  0
 19 24  1  0
 19  6  1  0
 20 19  2  0
 21 22  2  0
 21 20  1  0
 22 23  1  0
 23 24  2  0
  2 25  1  0
  2 26  1  0
  3 27  1  0
  3 28  1  0
  4 29  1  0
  5 30  1  0
  5 31  1  0
  6 32  1  1
  8 33  1  0
  9 34  1  0
 10 35  1  0
 11 36  1  0
 13 37  1  0
 14 38  1  0
 17 39  1  0
 20 40  1  0
 21 41  1  0
 23 42  1  0
M  ISO  8  25  13  26  13  27  13  28  13  29   5  30  13  31  13  32  13
M  ISO  8  33  14  34  14  35  14  36  14  37  14  38  14  39  14  40  14
M  ISO  2  41  14  42  14
M  END
>  <minimizedAffinity>  (1) 
-5.63153601

>  <minimizedRMSD>  (1) 
0.215730503

$$$$
