
     RDKit          3D

 31 33  0  0  1  0  0  0  0  0999 V2000
   45.4550   33.4680   40.3050 C   0  0  0  0  0  0  0  0  0  0  0  0
   44.1380   33.8560   40.6090 C   0  0  0  0  0  0  0  0  0  0  0  0
   43.3990   33.7000   39.4890 N   0  0  0  0  0  0  0  0  0  0  0  0
   44.2080   33.2310   38.5040 C   0  0  0  0  0  0  0  0  0  0  0  0
   45.4250   33.1130   39.0570 N   0  0  0  0  0  0  0  0  0  0  0  0
   46.4860   32.6190   38.1790 C   0  0  1  0  0  0  0  0  0  0  0  0
   46.2630   32.4090   36.7260 C   0  0  0  0  0  0  0  0  0  0  0  0
   47.0120   33.6060   37.1130 C   0  0  2  0  0  0  0  0  0  0  0  0
   48.5260   33.5510   36.9460 C   0  0  0  0  0  0  0  0  0  0  0  0
   49.0840   34.7390   37.3160 F   0  0  0  0  0  0  0  0  0  0  0  0
   49.0400   32.4570   37.5880 F   0  0  0  0  0  0  0  0  0  0  0  0
   48.7410   33.4100   35.5720 F   0  0  0  0  0  0  0  0  0  0  0  0
   46.4520   33.5080   41.2330 O   0  0  0  0  0  0  0  0  0  0  0  0
   46.7010   34.5570   42.0450 C   0  0  0  0  0  0  0  0  0  0  0  0
   47.5950   35.3750   41.6570 O   0  0  0  0  0  0  0  0  0  0  0  0
   44.5210   35.9170   44.7590 C   0  0  0  0  0  0  0  0  0  0  0  0
   45.1260   35.8370   43.5210 C   0  0  0  0  0  0  0  0  0  0  0  0
   46.0020   34.7620   43.2890 C   0  0  0  0  0  0  0  0  0  0  0  0
   46.1650   33.9170   44.2980 N   0  0  0  0  0  0  0  0  0  0  0  0
   45.5850   33.9900   45.4920 C   0  0  0  0  0  0  0  0  0  0  0  0
   44.7520   35.0040   45.7240 N   0  0  0  0  0  0  0  0  0  0  0  0
   45.9490   32.7340   46.7160 S   0  0  0  0  0  0  0  0  0  0  0  0
   43.7756   34.2202   41.5816 H   0  0  0  0  0  0  0  0  0  0  0  0
   43.9243   32.9964   37.4674 H   0  0  0  0  0  0  0  0  0  0  0  0
   46.8897   31.9889   38.9852 H   0  0  0  0  0  0  0  0  0  0  0  0
   45.2489   32.5153   36.3134 H   0  0  0  0  0  0  0  0  0  0  0  0
   46.4688   31.5743   36.0398 H   0  0  0  0  0  0  0  0  0  0  0  0
   46.9105   34.6775   36.8861 H   0  0  0  0  0  0  0  0  0  0  0  0
   43.8311   36.7488   44.9641 H   0  0  0  0  0  0  0  0  0  0  0  0
   44.9295   36.5887   42.7423 H   0  0  0  0  0  0  0  0  0  0  0  0
   45.7961   33.2616   47.9711 H   0  0  0  0  0  0  0  0  0  0  0  0
  1  2  2  0
  1 13  1  0
  3  2  1  0
  4  5  1  0
  4  3  2  0
  5  1  1  0
  6  5  1  0
  7  8  1  0
  7  6  1  0
  8  6  1  0
  9  8  1  0
  9 10  1  0
  9 11  1  0
 12  9  1  0
 13 14  1  0
 14 18  1  0
 15 14  2  0
 16 21  2  0
 17 16  1  0
 18 17  2  0
 18 19  1  0
 19 20  2  0
 20 21  1  0
 20 22  1  0
  2 23  1  0
  4 24  1  0
  6 25  1  1
  7 26  1  0
  7 27  1  0
  8 28  1  1
 16 29  1  0
 17 30  1  0
 22 31  1  0
M  ISO  8  23  14  24  14  25  13  26  13  27  13  28  13  29  14  30  14
M  ISO  1  31  11
M  END
>  <minimizedAffinity>  (1) 
-5.04665327

>  <minimizedRMSD>  (1) 
0.110450462

$$$$
