
     RDKit          3D

 37 40  0  0  1  0  0  0  0  0999 V2000
   45.2970   33.3770   40.1960 C   0  0  0  0  0  0  0  0  0  0  0  0
   43.9650   33.7150   40.4820 C   0  0  0  0  0  0  0  0  0  0  0  0
   43.2740   33.6050   39.3370 N   0  0  0  0  0  0  0  0  0  0  0  0
   44.0970   33.2160   38.3510 C   0  0  0  0  0  0  0  0  0  0  0  0
   45.3180   33.0890   38.9180 N   0  0  0  0  0  0  0  0  0  0  0  0
   46.4070   32.6720   38.0520 C   0  0  1  0  0  0  0  0  0  0  0  0
   46.2830   32.7040   36.5780 C   0  0  0  0  0  0  0  0  0  0  0  0
   47.0680   33.7870   37.1990 C   0  0  2  0  0  0  0  0  0  0  0  0
   48.5820   33.6520   37.1140 C   0  0  0  0  0  0  0  0  0  0  0  0
   49.1690   34.8610   37.3960 F   0  0  0  0  0  0  0  0  0  0  0  0
   49.0140   32.6150   37.8800 F   0  0  0  0  0  0  0  0  0  0  0  0
   48.8540   33.3650   35.7720 F   0  0  0  0  0  0  0  0  0  0  0  0
   46.2790   33.3840   41.1440 O   0  0  0  0  0  0  0  0  0  0  0  0
   46.6060   34.4520   41.8900 C   0  0  0  0  0  0  0  0  0  0  0  0
   47.5820   35.1620   41.4610 O   0  0  0  0  0  0  0  0  0  0  0  0
   44.5190   36.1730   44.4760 C   0  0  0  0  0  0  0  0  0  0  0  0
   45.1220   35.9470   43.2470 C   0  0  0  0  0  0  0  0  0  0  0  0
   45.9250   34.8060   43.1000 C   0  0  0  0  0  0  0  0  0  0  0  0
   46.0370   34.0210   44.1850 N   0  0  0  0  0  0  0  0  0  0  0  0
   45.4550   34.2450   45.3580 C   0  0  0  0  0  0  0  0  0  0  0  0
   44.6910   35.3210   45.5180 N   0  0  0  0  0  0  0  0  0  0  0  0
   45.6570   33.3120   46.4650 C   0  0  0  0  0  0  0  0  0  0  0  0
   46.5980   32.3140   46.5700 C   0  0  0  0  0  0  0  0  0  0  0  0
   46.4060   31.7140   47.7590 N   0  0  0  0  0  0  0  0  0  0  0  0
   45.3920   32.2720   48.4280 C   0  0  0  0  0  0  0  0  0  0  0  0
   44.9540   33.2460   47.6100 N   0  0  0  0  0  0  0  0  0  0  0  0
   43.5629   34.0140   41.4613 H   0  0  0  0  0  0  0  0  0  0  0  0
   43.8328   33.0373   37.2983 H   0  0  0  0  0  0  0  0  0  0  0  0
   46.7147   31.8965   38.7689 H   0  0  0  0  0  0  0  0  0  0  0  0
   45.3088   32.9354   36.1225 H   0  0  0  0  0  0  0  0  0  0  0  0
   46.4963   31.9733   35.7839 H   0  0  0  0  0  0  0  0  0  0  0  0
   47.0422   34.8855   37.1471 H   0  0  0  0  0  0  0  0  0  0  0  0
   43.8869   37.0634   44.6087 H   0  0  0  0  0  0  0  0  0  0  0  0
   44.9742   36.6445   42.4094 H   0  0  0  0  0  0  0  0  0  0  0  0
   47.3629   32.0553   45.8230 H   0  0  0  0  0  0  0  0  0  0  0  0
   45.0045   31.9975   49.4202 H   0  0  0  0  0  0  0  0  0  0  0  0
   44.1676   33.8718   47.8354 H   0  0  0  0  0  0  0  0  0  0  0  0
  1  2  2  0
  1 13  1  0
  3  2  1  0
  4  5  1  0
  4  3  2  0
  5  1  1  0
  6  5  1  0
  7  8  1  0
  7  6  1  0
  8  6  1  0
  9  8  1  0
  9 10  1  0
  9 11  1  0
 12  9  1  0
 13 14  1  0
 14 18  1  0
 15 14  2  0
 16 21  2  0
 17 16  1  0
 18 17  2  0
 18 19  1  0
 19 20  2  0
 20 21  1  0
 20 22  1  0
 22 23  2  0
 22 26  1  0
 23 24  1  0
 24 25  2  0
 26 25  1  0
  2 27  1  0
  4 28  1  0
  6 29  1  1
  7 30  1  0
  7 31  1  0
  8 32  1  1
 16 33  1  0
 17 34  1  0
 23 35  1  0
 25 36  1  0
 26 37  1  0
M  ISO  8  27  14  28  14  29  13  30  13  31  13  32  13  33  14  34  14
M  ISO  3  35  14  36  14  37   9
M  END
>  <minimizedAffinity>  (1) 
-6.15436363

>  <minimizedRMSD>  (1) 
0.566616178

$$$$
