
     RDKit          3D

 40 43  0  0  1  0  0  0  0  0999 V2000
   44.8030   33.6900   40.9990 N   0  0  0  0  0  0  0  0  0  0  0  0
   43.5860   34.3920   40.5540 C   0  0  0  0  0  0  0  0  0  0  0  0
   42.4250   34.0980   41.4500 C   0  0  0  0  0  0  0  0  0  0  0  0
   42.2360   32.6600   41.4860 N   0  0  0  0  0  0  0  0  0  0  0  0
   43.3650   32.1370   42.2450 C   0  0  0  0  0  0  0  0  0  0  0  0
   44.6930   32.3460   41.5500 C   0  0  1  0  0  0  0  0  0  0  0  0
   46.6430   34.7950   42.0700 C   0  0  0  0  0  0  0  0  0  0  0  0
   47.9370   35.2630   41.9950 C   0  0  0  0  0  0  0  0  0  0  0  0
   48.7210   35.1370   40.8540 C   0  0  0  0  0  0  0  0  0  0  0  0
   48.1710   34.5050   39.7230 C   0  0  0  0  0  0  0  0  0  0  0  0
   46.8830   34.0400   39.7950 C   0  0  0  0  0  0  0  0  0  0  0  0
   46.1620   34.1940   40.9540 C   0  0  0  0  0  0  0  0  0  0  0  0
   44.4510   36.0800   44.8350 C   0  0  0  0  0  0  0  0  0  0  0  0
   45.0790   36.0410   43.5800 C   0  0  0  0  0  0  0  0  0  0  0  0
   45.9230   34.9810   43.3120 C   0  0  0  0  0  0  0  0  0  0  0  0
   46.1060   34.0250   44.2750 N   0  0  0  0  0  0  0  0  0  0  0  0
   45.4720   34.1150   45.4740 C   0  0  0  0  0  0  0  0  0  0  0  0
   44.6470   35.1430   45.7460 N   0  0  0  0  0  0  0  0  0  0  0  0
   44.9400   31.3130   40.5080 C   0  0  0  0  0  0  0  0  0  0  0  0
   46.0480   30.4570   40.5290 C   0  0  0  0  0  0  0  0  0  0  0  0
   45.7990   29.4060   38.9760 S   0  0  0  0  0  0  0  0  0  0  0  0
   44.2330   30.3530   38.6160 C   0  0  0  0  0  0  0  0  0  0  0  0
   44.1620   31.0890   39.4640 N   0  0  0  0  0  0  0  0  0  0  0  0
   43.7762   35.4754   40.5593 H   0  0  0  0  0  0  0  0  0  0  0  0
   43.3372   34.0430   39.5409 H   0  0  0  0  0  0  0  0  0  0  0  0
   42.6320   34.4723   42.4634 H   0  0  0  0  0  0  0  0  0  0  0  0
   41.5177   34.5922   41.0725 H   0  0  0  0  0  0  0  0  0  0  0  0
   41.3486   32.4253   41.9533 H   0  0  0  0  0  0  0  0  0  0  0  0
   43.3964   32.6441   43.2206 H   0  0  0  0  0  0  0  0  0  0  0  0
   43.2161   31.0522   42.3504 H   0  0  0  0  0  0  0  0  0  0  0  0
   45.4770   32.2347   42.3135 H   0  0  0  0  0  0  0  0  0  0  0  0
   48.3687   35.7583   42.8772 H   0  0  0  0  0  0  0  0  0  0  0  0
   49.7507   35.5235   40.8354 H   0  0  0  0  0  0  0  0  0  0  0  0
   48.7610   34.3868   38.8022 H   0  0  0  0  0  0  0  0  0  0  0  0
   46.4275   33.5440   38.9252 H   0  0  0  0  0  0  0  0  0  0  0  0
   43.7750   36.9162   45.0671 H   0  0  0  0  0  0  0  0  0  0  0  0
   44.9044   36.8299   42.8335 H   0  0  0  0  0  0  0  0  0  0  0  0
   45.6356   33.3361   46.2333 H   0  0  0  0  0  0  0  0  0  0  0  0
   46.8624   30.4078   41.2667 H   0  0  0  0  0  0  0  0  0  0  0  0
   43.5403   30.2224   37.7715 H   0  0  0  0  0  0  0  0  0  0  0  0
  1  6  1  0
  2  1  1  0
  2  3  1  0
  3  4  1  0
  4  5  1  0
  6  5  1  0
  7 15  1  0
  8  7  2  0
  9  8  1  0
 10 11  1  0
 10  9  2  0
 11 12  2  0
 12  1  1  0
 12  7  1  0
 13 18  2  0
 14 13  1  0
 15 14  2  0
 15 16  1  0
 16 17  2  0
 17 18  1  0
 19 20  2  0
 19  6  1  0
 21 20  1  0
 22 21  1  0
 22 23  2  0
 23 19  1  0
  2 24  1  0
  2 25  1  0
  3 26  1  0
  3 27  1  0
  4 28  1  0
  5 29  1  0
  5 30  1  0
  6 31  1  1
  8 32  1  0
  9 33  1  0
 10 34  1  0
 11 35  1  0
 13 36  1  0
 14 37  1  0
 17 38  1  0
 20 39  1  0
 22 40  1  0
M  ISO  8  24  13  25  13  26  13  27  13  28   5  29  13  30  13  31  13
M  ISO  8  32  14  33  14  34  14  35  14  36  14  37  14  38  14  39  14
M  ISO  1  40  14
M  END
>  <minimizedAffinity>  (1) 
-5.62888384

>  <minimizedRMSD>  (1) 
0.191940233

$$$$
