
     RDKit          3D

 32 35  0  0  0  0  0  0  0  0999 V2000
   46.1470   32.7060   46.9310 C   0  0  0  0  0  0  0  0  0  0  0  0
   45.2040   32.5910   47.9450 C   0  0  0  0  0  0  0  0  0  0  0  0
   45.3920   31.7600   49.0370 C   0  0  0  0  0  0  0  0  0  0  0  0
   46.5940   31.0600   49.0310 C   0  0  0  0  0  0  0  0  0  0  0  0
   47.5470   31.1450   48.0520 C   0  0  0  0  0  0  0  0  0  0  0  0
   47.2490   31.9780   47.0540 N   0  0  0  0  0  0  0  0  0  0  0  0
   48.7590   30.4020   48.1010 N   0  0  0  0  0  0  0  0  0  0  0  0
   49.2540   29.3810   47.3800 C   0  0  0  0  0  0  0  0  0  0  0  0
   50.4720   29.0360   47.8450 N   0  0  0  0  0  0  0  0  0  0  0  0
   50.7530   29.8510   48.8730 C   0  0  0  0  0  0  0  0  0  0  0  0
   51.8750   29.8990   49.6760 C   0  0  0  0  0  0  0  0  0  0  0  0
   51.8960   30.8370   50.6590 N   0  0  0  0  0  0  0  0  0  0  0  0
   50.8600   31.6850   50.8370 C   0  0  0  0  0  0  0  0  0  0  0  0
   49.7760   31.6290   50.0500 N   0  0  0  0  0  0  0  0  0  0  0  0
   49.6900   30.7110   49.0460 C   0  0  0  0  0  0  0  0  0  0  0  0
   44.7060   35.3550   44.8660 C   0  0  0  0  0  0  0  0  0  0  0  0
   45.4470   35.2560   43.6730 C   0  0  0  0  0  0  0  0  0  0  0  0
   46.4490   34.2700   43.5830 C   0  0  0  0  0  0  0  0  0  0  0  0
   46.6510   33.4610   44.6580 N   0  0  0  0  0  0  0  0  0  0  0  0
   45.9070   33.5910   45.7990 C   0  0  0  0  0  0  0  0  0  0  0  0
   44.9550   34.5310   45.8770 N   0  0  0  0  0  0  0  0  0  0  0  0
   52.9930   29.0420   49.5450 N   0  0  0  0  0  0  0  0  0  0  0  0
   44.2771   33.1796   47.8782 H   0  0  0  0  0  0  0  0  0  0  0  0
   44.6507   31.6616   49.8437 H   0  0  0  0  0  0  0  0  0  0  0  0
   46.7940   30.3867   49.8776 H   0  0  0  0  0  0  0  0  0  0  0  0
   48.7411   28.8981   46.5352 H   0  0  0  0  0  0  0  0  0  0  0  0
   50.9064   32.4342   51.6411 H   0  0  0  0  0  0  0  0  0  0  0  0
   43.9185   36.1172   44.9608 H   0  0  0  0  0  0  0  0  0  0  0  0
   45.2479   35.9337   42.8297 H   0  0  0  0  0  0  0  0  0  0  0  0
   47.0511   34.1573   42.6693 H   0  0  0  0  0  0  0  0  0  0  0  0
   53.7947   29.1399   50.1842 H   0  0  0  0  0  0  0  0  0  0  0  0
   53.0053   28.3201   48.8104 H   0  0  0  0  0  0  0  0  0  0  0  0
  1  6  1  0
  1  2  2  0
  2  3  1  0
  4  3  2  0
  5  7  1  0
  5  4  1  0
  6  5  2  0
  7 15  1  0
  8  9  2  0
  8  7  1  0
  9 10  1  0
 10 15  2  0
 10 11  1  0
 11 12  2  0
 12 13  1  0
 14 13  2  0
 15 14  1  0
 16 21  2  0
 17 16  1  0
 18 17  2  0
 18 19  1  0
 19 20  2  0
 20 21  1  0
 20  1  1  0
 22 11  1  0
  2 23  1  0
  3 24  1  0
  4 25  1  0
  8 26  1  0
 13 27  1  0
 16 28  1  0
 17 29  1  0
 18 30  1  0
 22 31  1  0
 22 32  1  0
M  ISO  8  23  14  24  14  25  14  26  14  27  14  28  14  29  14  30  14
M  END
>  <minimizedAffinity>  (1) 
-6.363204

>  <minimizedRMSD>  (1) 
0.316350847

$$$$
