
     RDKit          3D

 19 20  0  0  0  0  0  0  0  0999 V2000
   44.5480   35.5140   45.0010 C   0  0  0  0  0  0  0  0  0  0  0  0
   45.2020   35.4340   43.7470 C   0  0  0  0  0  0  0  0  0  0  0  0
   46.1700   34.4400   43.5800 C   0  0  0  0  0  0  0  0  0  0  0  0
   46.4290   33.6070   44.6320 N   0  0  0  0  0  0  0  0  0  0  0  0
   45.7750   33.7190   45.8230 C   0  0  0  0  0  0  0  0  0  0  0  0
   44.8470   34.6680   45.9910 N   0  0  0  0  0  0  0  0  0  0  0  0
   46.0720   32.8160   46.9280 C   0  0  0  0  0  0  0  0  0  0  0  0
   45.1500   32.5770   47.9310 C   0  0  0  0  0  0  0  0  0  0  0  0
   45.4010   31.7240   48.9950 C   0  0  0  0  0  0  0  0  0  0  0  0
   46.6460   31.1280   48.9770 C   0  0  0  0  0  0  0  0  0  0  0  0
   47.5960   31.3360   47.9990 C   0  0  0  0  0  0  0  0  0  0  0  0
   47.2470   32.1820   47.0150 N   0  0  0  0  0  0  0  0  0  0  0  0
   43.7810   36.2857   45.1625 H   0  0  0  0  0  0  0  0  0  0  0  0
   44.9562   36.1308   42.9321 H   0  0  0  0  0  0  0  0  0  0  0  0
   46.7090   34.3310   42.6273 H   0  0  0  0  0  0  0  0  0  0  0  0
   44.1758   33.0855   47.8825 H   0  0  0  0  0  0  0  0  0  0  0  0
   44.6655   31.5369   49.7912 H   0  0  0  0  0  0  0  0  0  0  0  0
   46.8974   30.4407   49.7982 H   0  0  0  0  0  0  0  0  0  0  0  0
   48.5778   30.8405   48.0230 H   0  0  0  0  0  0  0  0  0  0  0  0
  1  6  2  0
  2  1  1  0
  3  2  2  0
  3  4  1  0
  4  5  2  0
  5  6  1  0
  5  7  1  0
  7 12  1  0
  7  8  2  0
  8  9  1  0
 10  9  2  0
 11 10  1  0
 12 11  2  0
  1 13  1  0
  2 14  1  0
  3 15  1  0
  8 16  1  0
  9 17  1  0
 10 18  1  0
 11 19  1  0
M  ISO  7  13  14  14  14  15  14  16  14  17  14  18  14  19  14
M  END
>  <minimizedAffinity>  (1) 
-4.52207756

>  <minimizedRMSD>  (1) 
0.957011342

$$$$
