
     RDKit          3D

 33 36  0  0  0  0  0  0  0  0999 V2000
   46.1330   32.6080   47.0690 C   0  0  0  0  0  0  0  0  0  0  0  0
   45.0910   32.4250   47.9340 C   0  0  0  0  0  0  0  0  0  0  0  0
   45.2220   31.6400   49.0710 C   0  0  0  0  0  0  0  0  0  0  0  0
   46.4520   31.0690   49.2640 C   0  0  0  0  0  0  0  0  0  0  0  0
   47.5190   31.2170   48.4370 C   0  0  0  0  0  0  0  0  0  0  0  0
   47.2640   31.9920   47.3850 N   0  0  0  0  0  0  0  0  0  0  0  0
   48.8540   30.6920   48.5450 C   0  0  0  0  0  0  0  0  0  0  0  0
   49.2230   29.4570   48.0140 C   0  0  0  0  0  0  0  0  0  0  0  0
   50.5090   29.1870   48.2590 N   0  0  0  0  0  0  0  0  0  0  0  0
   51.0620   30.1960   48.9500 C   0  0  0  0  0  0  0  0  0  0  0  0
   52.3100   30.4590   49.4730 C   0  0  0  0  0  0  0  0  0  0  0  0
   52.5900   31.6340   50.1820 C   0  0  0  0  0  0  0  0  0  0  0  0
   51.5230   32.5270   50.3270 C   0  0  0  0  0  0  0  0  0  0  0  0
   50.3030   32.2420   49.8010 C   0  0  0  0  0  0  0  0  0  0  0  0
   50.0340   31.0920   49.1080 C   0  0  0  0  0  0  0  0  0  0  0  0
   44.9430   35.1360   44.7400 C   0  0  0  0  0  0  0  0  0  0  0  0
   45.7740   34.9830   43.6150 C   0  0  0  0  0  0  0  0  0  0  0  0
   46.7500   33.9990   43.6670 C   0  0  0  0  0  0  0  0  0  0  0  0
   46.8460   33.2450   44.7950 N   0  0  0  0  0  0  0  0  0  0  0  0
   46.0170   33.4260   45.8680 C   0  0  0  0  0  0  0  0  0  0  0  0
   45.0780   34.3660   45.8280 N   0  0  0  0  0  0  0  0  0  0  0  0
   44.1266   32.9109   47.7244 H   0  0  0  0  0  0  0  0  0  0  0  0
   44.3897   31.4859   49.7736 H   0  0  0  0  0  0  0  0  0  0  0  0
   46.5859   30.4421   50.1579 H   0  0  0  0  0  0  0  0  0  0  0  0
   48.5429   28.7901   47.4638 H   0  0  0  0  0  0  0  0  0  0  0  0
   51.0017   28.3326   47.9620 H   0  0  0  0  0  0  0  0  0  0  0  0
   53.1130   29.7212   49.3287 H   0  0  0  0  0  0  0  0  0  0  0  0
   53.5866   31.8416   50.5988 H   0  0  0  0  0  0  0  0  0  0  0  0
   51.6733   33.4702   50.8728 H   0  0  0  0  0  0  0  0  0  0  0  0
   49.4911   32.9713   49.9387 H   0  0  0  0  0  0  0  0  0  0  0  0
   44.1608   35.9093   44.7258 H   0  0  0  0  0  0  0  0  0  0  0  0
   45.6540   35.6205   42.7267 H   0  0  0  0  0  0  0  0  0  0  0  0
   47.4291   33.8326   42.8178 H   0  0  0  0  0  0  0  0  0  0  0  0
  1  6  1  0
  1  2  2  0
  2  3  1  0
  3  4  2  0
  5  7  1  0
  5  4  1  0
  6  5  2  0
  7 15  1  0
  8  9  1  0
  8  7  2  0
  9 10  1  0
 10 15  2  0
 10 11  1  0
 11 12  2  0
 12 13  1  0
 14 13  2  0
 15 14  1  0
 16 21  2  0
 17 18  2  0
 17 16  1  0
 18 19  1  0
 19 20  2  0
 20  1  1  0
 21 20  1  0
  2 22  1  0
  3 23  1  0
  4 24  1  0
  8 25  1  0
  9 26  1  0
 11 27  1  0
 12 28  1  0
 13 29  1  0
 14 30  1  0
 16 31  1  0
 17 32  1  0
 18 33  1  0
M  ISO  8  22  14  23  14  24  14  25  14  26   9  27  14  28  14  29  14
M  ISO  4  30  14  31  14  32  14  33  14
M  END
>  <minimizedAffinity>  (1) 
-6.04367971

>  <minimizedRMSD>  (1) 
0.758570135

$$$$
