
     RDKit          3D

 29 31  0  0  0  0  0  0  0  0999 V2000
   46.0710   32.7070   47.0820 C   0  0  0  0  0  0  0  0  0  0  0  0
   45.0100   32.3280   47.8710 C   0  0  0  0  0  0  0  0  0  0  0  0
   45.1370   31.5380   48.9960 C   0  0  0  0  0  0  0  0  0  0  0  0
   46.4260   31.1560   49.2710 C   0  0  0  0  0  0  0  0  0  0  0  0
   47.5270   31.5070   48.5150 C   0  0  0  0  0  0  0  0  0  0  0  0
   47.2930   32.2750   47.4440 N   0  0  0  0  0  0  0  0  0  0  0  0
   48.8570   31.0990   48.8160 N   0  0  0  0  0  0  0  0  0  0  0  0
   49.7550   31.8640   49.4800 C   0  0  0  0  0  0  0  0  0  0  0  0
   51.0340   31.3850   49.7310 C   0  0  0  0  0  0  0  0  0  0  0  0
   51.3190   30.1130   49.2700 C   0  0  0  0  0  0  0  0  0  0  0  0
   52.4760   29.6340   49.4770 O   0  0  0  0  0  0  0  0  0  0  0  0
   50.4240   29.3380   48.6020 N   0  0  0  0  0  0  0  0  0  0  0  0
   49.1950   29.8560   48.3870 C   0  0  0  0  0  0  0  0  0  0  0  0
   48.3520   29.1280   47.7590 O   0  0  0  0  0  0  0  0  0  0  0  0
   44.7770   35.2790   44.8570 C   0  0  0  0  0  0  0  0  0  0  0  0
   45.5700   35.1290   43.6860 C   0  0  0  0  0  0  0  0  0  0  0  0
   46.5450   34.1410   43.6750 C   0  0  0  0  0  0  0  0  0  0  0  0
   46.6890   33.3680   44.7870 N   0  0  0  0  0  0  0  0  0  0  0  0
   45.9040   33.5440   45.8970 C   0  0  0  0  0  0  0  0  0  0  0  0
   44.9550   34.4960   45.9260 N   0  0  0  0  0  0  0  0  0  0  0  0
   44.0042   32.6736   47.5899 H   0  0  0  0  0  0  0  0  0  0  0  0
   44.2797   31.2407   49.6178 H   0  0  0  0  0  0  0  0  0  0  0  0
   46.5942   30.5254   50.1565 H   0  0  0  0  0  0  0  0  0  0  0  0
   49.4702   32.8698   49.8223 H   0  0  0  0  0  0  0  0  0  0  0  0
   51.7817   31.9864   50.2688 H   0  0  0  0  0  0  0  0  0  0  0  0
   50.6728   28.3942   48.2731 H   0  0  0  0  0  0  0  0  0  0  0  0
   43.9996   36.0568   44.8838 H   0  0  0  0  0  0  0  0  0  0  0  0
   45.4148   35.7787   42.8121 H   0  0  0  0  0  0  0  0  0  0  0  0
   47.1835   33.9867   42.7927 H   0  0  0  0  0  0  0  0  0  0  0  0
  1  6  1  0
  1  2  2  0
  2  3  1  0
  3  4  2  0
  5  7  1  0
  5  4  1  0
  6  5  2  0
  7  8  1  0
  8  9  2  0
 10 11  2  0
 10  9  1  0
 12 10  1  0
 13 12  1  0
 13  7  1  0
 14 13  2  0
 15 20  2  0
 16 15  1  0
 17 16  2  0
 17 18  1  0
 18 19  2  0
 19 20  1  0
 19  1  1  0
  2 21  1  0
  3 22  1  0
  4 23  1  0
  8 24  1  0
  9 25  1  0
 12 26  1  0
 15 27  1  0
 16 28  1  0
 17 29  1  0
M  ISO  8  21  14  22  14  23  14  24  14  25  14  26   9  27  14  28  14
M  ISO  1  29  14
M  END
>  <minimizedAffinity>  (1) 
-6.05221987

>  <minimizedRMSD>  (1) 
0.883384943

$$$$
