
     RDKit          3D

 35 37  0  0  0  0  0  0  0  0999 V2000
   46.0960   32.7760   47.0060 C   0  0  0  0  0  0  0  0  0  0  0  0
   45.0640   32.4610   47.8810 C   0  0  0  0  0  0  0  0  0  0  0  0
   45.2470   31.6470   48.9910 C   0  0  0  0  0  0  0  0  0  0  0  0
   46.5230   31.1730   49.1670 C   0  0  0  0  0  0  0  0  0  0  0  0
   47.5640   31.4630   48.3240 C   0  0  0  0  0  0  0  0  0  0  0  0
   47.2930   32.2550   47.2800 N   0  0  0  0  0  0  0  0  0  0  0  0
   44.6900   35.3650   44.8650 C   0  0  0  0  0  0  0  0  0  0  0  0
   45.4410   35.2360   43.6650 C   0  0  0  0  0  0  0  0  0  0  0  0
   46.4230   34.2520   43.6150 C   0  0  0  0  0  0  0  0  0  0  0  0
   46.6100   33.4700   44.7160 N   0  0  0  0  0  0  0  0  0  0  0  0
   45.8620   33.6290   45.8570 C   0  0  0  0  0  0  0  0  0  0  0  0
   44.9220   34.5660   45.9170 N   0  0  0  0  0  0  0  0  0  0  0  0
   48.9610   30.9620   48.4880 C   0  0  0  0  0  0  0  0  0  0  0  0
   48.9980   29.4410   48.4320 C   0  0  0  0  0  0  0  0  0  0  0  0
   50.3940   29.0110   48.8300 C   0  0  0  0  0  0  0  0  0  0  0  0
   51.3940   30.1480   48.6880 C   0  0  0  0  0  0  0  0  0  0  0  0
   51.0860   31.2530   49.6540 C   0  0  0  0  0  0  0  0  0  0  0  0
   49.5890   31.3820   49.7910 C   0  0  0  0  0  0  0  0  0  0  0  0
   44.0625   32.8726   47.6869 H   0  0  0  0  0  0  0  0  0  0  0  0
   44.4268   31.3994   49.6809 H   0  0  0  0  0  0  0  0  0  0  0  0
   46.7212   30.5242   50.0329 H   0  0  0  0  0  0  0  0  0  0  0  0
   43.9054   36.1330   44.9319 H   0  0  0  0  0  0  0  0  0  0  0  0
   45.2517   35.8933   42.8035 H   0  0  0  0  0  0  0  0  0  0  0  0
   47.0327   34.1086   42.7107 H   0  0  0  0  0  0  0  0  0  0  0  0
   49.5315   31.4059   47.6588 H   0  0  0  0  0  0  0  0  0  0  0  0
   48.2605   29.0203   49.1314 H   0  0  0  0  0  0  0  0  0  0  0  0
   48.7525   29.0819   47.4217 H   0  0  0  0  0  0  0  0  0  0  0  0
   50.3793   28.6779   49.8782 H   0  0  0  0  0  0  0  0  0  0  0  0
   50.7053   28.1947   48.1616 H   0  0  0  0  0  0  0  0  0  0  0  0
   52.4057   29.7654   48.8885 H   0  0  0  0  0  0  0  0  0  0  0  0
   51.3308   30.5469   47.6648 H   0  0  0  0  0  0  0  0  0  0  0  0
   51.5274   31.0198   50.6342 H   0  0  0  0  0  0  0  0  0  0  0  0
   51.5084   32.1989   49.2840 H   0  0  0  0  0  0  0  0  0  0  0  0
   49.3237   32.4262   50.0131 H   0  0  0  0  0  0  0  0  0  0  0  0
   49.2256   30.7456   50.6113 H   0  0  0  0  0  0  0  0  0  0  0  0
  1  6  1  0
  1  2  2  0
  2  3  1  0
  3  4  2  0
  5 13  1  0
  5  4  1  0
  6  5  2  0
  7 12  2  0
  8  7  1  0
  9  8  2  0
  9 10  1  0
 10 11  2  0
 11 12  1  0
 11  1  1  0
 13 18  1  0
 14 13  1  0
 14 15  1  0
 16 15  1  0
 16 17  1  0
 17 18  1  0
  2 19  1  0
  3 20  1  0
  4 21  1  0
  7 22  1  0
  8 23  1  0
  9 24  1  0
 13 25  1  0
 14 26  1  0
 14 27  1  0
 15 28  1  0
 15 29  1  0
 16 30  1  0
 16 31  1  0
 17 32  1  0
 17 33  1  0
 18 34  1  0
 18 35  1  0
M  ISO  8  19  14  20  14  21  14  22  14  23  14  24  14  25  13  26  13
M  ISO  8  27  13  28  13  29  13  30  13  31  13  32  13  33  13  34  13
M  ISO  1  35  13
M  END
>  <minimizedAffinity>  (1) 
-5.62071657

>  <minimizedRMSD>  (1) 
0.895444512

$$$$
