
     RDKit          3D

 25 27  0  0  0  0  0  0  0  0999 V2000
   46.1410   32.7040   47.0570 C   0  0  0  0  0  0  0  0  0  0  0  0
   45.0400   32.3010   47.7960 C   0  0  0  0  0  0  0  0  0  0  0  0
   45.1500   31.5440   48.9450 C   0  0  0  0  0  0  0  0  0  0  0  0
   46.4300   31.2130   49.3110 C   0  0  0  0  0  0  0  0  0  0  0  0
   47.5450   31.5920   48.6070 C   0  0  0  0  0  0  0  0  0  0  0  0
   47.3610   32.3330   47.4930 N   0  0  0  0  0  0  0  0  0  0  0  0
   48.8890   31.2730   48.9490 N   0  0  0  0  0  0  0  0  0  0  0  0
   49.4000   30.0350   48.6850 C   0  0  0  0  0  0  0  0  0  0  0  0
   50.6860   29.9720   49.0970 N   0  0  0  0  0  0  0  0  0  0  0  0
   50.9530   31.1990   49.6220 C   0  0  0  0  0  0  0  0  0  0  0  0
   49.8530   31.9900   49.5290 N   0  0  0  0  0  0  0  0  0  0  0  0
   44.8850   35.1990   44.7230 C   0  0  0  0  0  0  0  0  0  0  0  0
   45.7160   35.0370   43.5860 C   0  0  0  0  0  0  0  0  0  0  0  0
   46.7090   34.0610   43.6350 C   0  0  0  0  0  0  0  0  0  0  0  0
   46.8350   33.3070   44.7750 N   0  0  0  0  0  0  0  0  0  0  0  0
   46.0070   33.5040   45.8450 C   0  0  0  0  0  0  0  0  0  0  0  0
   45.0420   34.4420   45.8180 N   0  0  0  0  0  0  0  0  0  0  0  0
   44.0375   32.5965   47.4529 H   0  0  0  0  0  0  0  0  0  0  0  0
   44.2718   31.2279   49.5271 H   0  0  0  0  0  0  0  0  0  0  0  0
   46.5703   30.6098   50.2201 H   0  0  0  0  0  0  0  0  0  0  0  0
   48.8479   29.2117   48.2083 H   0  0  0  0  0  0  0  0  0  0  0  0
   51.9162   31.5044   50.0568 H   0  0  0  0  0  0  0  0  0  0  0  0
   44.0937   35.9629   44.7063 H   0  0  0  0  0  0  0  0  0  0  0  0
   45.5808   35.6632   42.6918 H   0  0  0  0  0  0  0  0  0  0  0  0
   47.3784   33.8980   42.7775 H   0  0  0  0  0  0  0  0  0  0  0  0
  1  6  1  0
  1  2  2  0
  2  3  1  0
  3  4  2  0
  5  7  1  0
  5  4  1  0
  6  5  2  0
  7 11  1  0
  8  7  1  0
  8  9  2  0
  9 10  1  0
 11 10  2  0
 12 17  2  0
 13 14  2  0
 13 12  1  0
 14 15  1  0
 15 16  2  0
 16  1  1  0
 17 16  1  0
  2 18  1  0
  3 19  1  0
  4 20  1  0
  8 21  1  0
 10 22  1  0
 12 23  1  0
 13 24  1  0
 14 25  1  0
M  ISO  8  18  14  19  14  20  14  21  14  22  14  23  14  24  14  25  14
M  END
>  <minimizedAffinity>  (1) 
-5.57849884

>  <minimizedRMSD>  (1) 
0.921566963

$$$$
