
     RDKit          3D

 26 28  0  0  0  0  0  0  0  0999 V2000
   46.0860   32.7190   47.0640 C   0  0  0  0  0  0  0  0  0  0  0  0
   45.0210   32.3310   47.8500 C   0  0  0  0  0  0  0  0  0  0  0  0
   45.1510   31.5360   48.9810 C   0  0  0  0  0  0  0  0  0  0  0  0
   46.4560   31.1570   49.2630 C   0  0  0  0  0  0  0  0  0  0  0  0
   47.5420   31.5250   48.5020 C   0  0  0  0  0  0  0  0  0  0  0  0
   47.2850   32.2910   47.4410 N   0  0  0  0  0  0  0  0  0  0  0  0
   44.7650   35.2860   44.8500 C   0  0  0  0  0  0  0  0  0  0  0  0
   45.5410   35.1480   43.6760 C   0  0  0  0  0  0  0  0  0  0  0  0
   46.5170   34.1620   43.6640 C   0  0  0  0  0  0  0  0  0  0  0  0
   46.6790   33.3830   44.7790 N   0  0  0  0  0  0  0  0  0  0  0  0
   45.9050   33.5540   45.8870 C   0  0  0  0  0  0  0  0  0  0  0  0
   44.9520   34.5070   45.9130 N   0  0  0  0  0  0  0  0  0  0  0  0
   48.8560   31.1350   48.7980 C   0  0  0  0  0  0  0  0  0  0  0  0
   49.8000   31.7880   49.5320 C   0  0  0  0  0  0  0  0  0  0  0  0
   51.0410   31.2930   49.7400 C   0  0  0  0  0  0  0  0  0  0  0  0
   51.2710   29.9870   49.1010 C   0  0  0  0  0  0  0  0  0  0  0  0
   49.6120   29.6560   48.2670 S   0  0  0  0  0  0  0  0  0  0  0  0
   44.0139   32.6698   47.5654 H   0  0  0  0  0  0  0  0  0  0  0  0
   44.2937   31.2328   49.6000 H   0  0  0  0  0  0  0  0  0  0  0  0
   46.6326   30.5256   50.1463 H   0  0  0  0  0  0  0  0  0  0  0  0
   43.9840   36.0597   44.8859 H   0  0  0  0  0  0  0  0  0  0  0  0
   45.3769   35.7985   42.8043 H   0  0  0  0  0  0  0  0  0  0  0  0
   47.1484   34.0088   42.7764 H   0  0  0  0  0  0  0  0  0  0  0  0
   49.5411   32.7610   49.9750 H   0  0  0  0  0  0  0  0  0  0  0  0
   51.8066   31.8169   50.3311 H   0  0  0  0  0  0  0  0  0  0  0  0
   52.1776   29.3641   49.1081 H   0  0  0  0  0  0  0  0  0  0  0  0
  1  6  1  0
  1  2  2  0
  2  3  1  0
  3  4  2  0
  5 13  1  0
  5  4  1  0
  6  5  2  0
  7 12  2  0
  8  7  1  0
  9  8  2  0
  9 10  1  0
 10 11  2  0
 11 12  1  0
 11  1  1  0
 13 14  2  0
 14 15  1  0
 16 15  2  0
 17 13  1  0
 17 16  1  0
  2 18  1  0
  3 19  1  0
  4 20  1  0
  7 21  1  0
  8 22  1  0
  9 23  1  0
 14 24  1  0
 15 25  1  0
 16 26  1  0
M  ISO  8  18  14  19  14  20  14  21  14  22  14  23  14  24  14  25  14
M  ISO  1  26  14
M  END
>  <minimizedAffinity>  (1) 
-5.40735149

>  <minimizedRMSD>  (1) 
0.784247994

$$$$
