
     RDKit          3D

 26 28  0  0  0  0  0  0  0  0999 V2000
   46.0410   32.7380   47.0970 C   0  0  0  0  0  0  0  0  0  0  0  0
   44.9540   32.2270   47.7740 C   0  0  0  0  0  0  0  0  0  0  0  0
   45.1150   31.4300   48.8980 C   0  0  0  0  0  0  0  0  0  0  0  0
   46.4120   31.1890   49.2820 C   0  0  0  0  0  0  0  0  0  0  0  0
   47.5130   31.6810   48.6310 C   0  0  0  0  0  0  0  0  0  0  0  0
   47.2590   32.4370   47.5610 N   0  0  0  0  0  0  0  0  0  0  0  0
   44.7440   35.3180   44.8590 C   0  0  0  0  0  0  0  0  0  0  0  0
   45.5230   35.1660   43.6960 C   0  0  0  0  0  0  0  0  0  0  0  0
   46.4900   34.1720   43.6960 C   0  0  0  0  0  0  0  0  0  0  0  0
   46.6490   33.3870   44.8100 N   0  0  0  0  0  0  0  0  0  0  0  0
   45.8660   33.5770   45.9140 C   0  0  0  0  0  0  0  0  0  0  0  0
   44.9280   34.5350   45.9240 N   0  0  0  0  0  0  0  0  0  0  0  0
   48.8720   31.4010   49.0710 C   0  0  0  0  0  0  0  0  0  0  0  0
   49.4100   30.1360   49.1900 C   0  0  0  0  0  0  0  0  0  0  0  0
   50.6990   30.3090   49.6280 C   0  0  0  0  0  0  0  0  0  0  0  0
   50.8960   31.6850   49.7580 C   0  0  0  0  0  0  0  0  0  0  0  0
   49.7690   32.2860   49.4120 O   0  0  0  0  0  0  0  0  0  0  0  0
   43.9394   32.4557   47.4159 H   0  0  0  0  0  0  0  0  0  0  0  0
   44.2569   31.0164   49.4481 H   0  0  0  0  0  0  0  0  0  0  0  0
   46.5774   30.5604   50.1694 H   0  0  0  0  0  0  0  0  0  0  0  0
   43.9685   36.0975   44.8904 H   0  0  0  0  0  0  0  0  0  0  0  0
   45.3701   35.8123   42.8191 H   0  0  0  0  0  0  0  0  0  0  0  0
   47.1238   34.0143   42.8109 H   0  0  0  0  0  0  0  0  0  0  0  0
   48.9070   29.1812   48.9768 H   0  0  0  0  0  0  0  0  0  0  0  0
   51.4340   29.5175   49.8362 H   0  0  0  0  0  0  0  0  0  0  0  0
   51.8210   32.1802   50.0884 H   0  0  0  0  0  0  0  0  0  0  0  0
  1  6  1  0
  1  2  2  0
  2  3  1  0
  3  4  2  0
  5 13  1  0
  5  4  1  0
  6  5  2  0
  7 12  2  0
  8  9  2  0
  8  7  1  0
  9 10  1  0
 10 11  2  0
 11 12  1  0
 11  1  1  0
 13 14  2  0
 13 17  1  0
 14 15  1  0
 15 16  2  0
 17 16  1  0
  2 18  1  0
  3 19  1  0
  4 20  1  0
  7 21  1  0
  8 22  1  0
  9 23  1  0
 14 24  1  0
 15 25  1  0
 16 26  1  0
M  ISO  8  18  14  19  14  20  14  21  14  22  14  23  14  24  14  25  14
M  ISO  1  26  14
M  END
>  <minimizedAffinity>  (1) 
-5.43743944

>  <minimizedRMSD>  (1) 
1.09065342

$$$$
