
     RDKit          3D

 25 26  0  0  0  0  0  0  0  0999 V2000
   46.1040   32.7020   47.0310 C   0  0  0  0  0  0  0  0  0  0  0  0
   45.0810   32.4320   47.9270 C   0  0  0  0  0  0  0  0  0  0  0  0
   45.2300   31.6280   49.0350 C   0  0  0  0  0  0  0  0  0  0  0  0
   46.4910   31.1090   49.1810 C   0  0  0  0  0  0  0  0  0  0  0  0
   47.5580   31.3390   48.3230 C   0  0  0  0  0  0  0  0  0  0  0  0
   47.2880   32.1420   47.2760 N   0  0  0  0  0  0  0  0  0  0  0  0
   44.7390   35.3080   44.8890 C   0  0  0  0  0  0  0  0  0  0  0  0
   45.5030   35.1810   43.6900 C   0  0  0  0  0  0  0  0  0  0  0  0
   46.4780   34.1950   43.6410 C   0  0  0  0  0  0  0  0  0  0  0  0
   46.6440   33.4150   44.7370 N   0  0  0  0  0  0  0  0  0  0  0  0
   45.8950   33.5610   45.8730 C   0  0  0  0  0  0  0  0  0  0  0  0
   44.9430   34.5110   45.9430 N   0  0  0  0  0  0  0  0  0  0  0  0
   48.9010   30.7400   48.5450 C   0  0  0  0  0  0  0  0  0  0  0  0
   49.6700   31.5620   49.5770 C   0  0  0  0  0  0  0  0  0  0  0  0
   44.0958   32.8851   47.7426 H   0  0  0  0  0  0  0  0  0  0  0  0
   44.4112   31.4207   49.7397 H   0  0  0  0  0  0  0  0  0  0  0  0
   46.6718   30.4574   50.0486 H   0  0  0  0  0  0  0  0  0  0  0  0
   43.9607   36.0832   44.9475 H   0  0  0  0  0  0  0  0  0  0  0  0
   45.3243   35.8445   42.8311 H   0  0  0  0  0  0  0  0  0  0  0  0
   47.0958   34.0511   42.7424 H   0  0  0  0  0  0  0  0  0  0  0  0
   48.7851   29.7095   48.9119 H   0  0  0  0  0  0  0  0  0  0  0  0
   49.4579   30.7354   47.5964 H   0  0  0  0  0  0  0  0  0  0  0  0
   49.3758   31.2476   50.5892 H   0  0  0  0  0  0  0  0  0  0  0  0
   50.7499   31.4017   49.4426 H   0  0  0  0  0  0  0  0  0  0  0  0
   49.4382   32.6289   49.4426 H   0  0  0  0  0  0  0  0  0  0  0  0
  1  6  1  0
  1  2  2  0
  2  3  1  0
  3  4  2  0
  5 13  1  0
  5  4  1  0
  6  5  2  0
  7 12  2  0
  8  7  1  0
  9  8  2  0
  9 10  1  0
 10 11  2  0
 11 12  1  0
 11  1  1  0
 13 14  1  0
  2 15  1  0
  3 16  1  0
  4 17  1  0
  7 18  1  0
  8 19  1  0
  9 20  1  0
 13 21  1  0
 13 22  1  0
 14 23  1  0
 14 24  1  0
 14 25  1  0
M  ISO  8  15  14  16  14  17  14  18  14  19  14  20  14  21   8  22   8
M  ISO  3  23   8  24   8  25   8
M  END
>  <minimizedAffinity>  (1) 
-4.88048649

>  <minimizedRMSD>  (1) 
0.659475982

$$$$
