
     RDKit          3D

 41 44  0  0  1  0  0  0  0  0999 V2000
   46.6390   34.7920   42.0680 C   0  0  0  0  0  0  0  0  0  0  0  0
   47.9390   35.2560   42.0030 C   0  0  0  0  0  0  0  0  0  0  0  0
   48.7190   35.1240   40.8500 C   0  0  0  0  0  0  0  0  0  0  0  0
   48.1660   34.5000   39.7180 C   0  0  0  0  0  0  0  0  0  0  0  0
   46.8780   34.0460   39.7980 C   0  0  0  0  0  0  0  0  0  0  0  0
   46.1520   34.1960   40.9450 C   0  0  0  0  0  0  0  0  0  0  0  0
   44.7960   33.7030   40.9930 N   0  0  0  0  0  0  0  0  0  0  0  0
   43.5830   34.4240   40.5840 C   0  0  0  0  0  0  0  0  0  0  0  0
   42.4210   34.1200   41.4730 C   0  0  0  0  0  0  0  0  0  0  0  0
   42.2170   32.6890   41.4760 N   0  0  0  0  0  0  0  0  0  0  0  0
   43.3490   32.1310   42.2050 C   0  0  0  0  0  0  0  0  0  0  0  0
   44.6720   32.3460   41.5080 C   0  0  1  0  0  0  0  0  0  0  0  0
   44.9440   31.3380   40.4690 C   0  0  0  0  0  0  0  0  0  0  0  0
   45.7830   30.2360   40.5090 C   0  0  0  0  0  0  0  0  0  0  0  0
   45.8490   29.4570   39.3900 C   0  0  0  0  0  0  0  0  0  0  0  0
   45.0890   29.8040   38.2970 C   0  0  0  0  0  0  0  0  0  0  0  0
   44.2440   31.2950   38.8730 S   0  0  0  0  0  0  0  0  0  0  0  0
   44.4520   36.1040   44.8260 C   0  0  0  0  0  0  0  0  0  0  0  0
   45.0880   36.0450   43.5770 C   0  0  0  0  0  0  0  0  0  0  0  0
   45.9230   34.9800   43.3070 C   0  0  0  0  0  0  0  0  0  0  0  0
   46.1030   34.0170   44.2700 N   0  0  0  0  0  0  0  0  0  0  0  0
   45.4590   34.1270   45.4660 C   0  0  0  0  0  0  0  0  0  0  0  0
   44.6450   35.1590   45.7360 N   0  0  0  0  0  0  0  0  0  0  0  0
   48.3743   35.7450   42.8869 H   0  0  0  0  0  0  0  0  0  0  0  0
   49.7513   35.5033   40.8289 H   0  0  0  0  0  0  0  0  0  0  0  0
   48.7520   34.3803   38.7948 H   0  0  0  0  0  0  0  0  0  0  0  0
   46.4210   33.5536   38.9270 H   0  0  0  0  0  0  0  0  0  0  0  0
   43.7838   35.5049   40.6201 H   0  0  0  0  0  0  0  0  0  0  0  0
   43.3238   34.0997   39.5653 H   0  0  0  0  0  0  0  0  0  0  0  0
   42.6328   34.4681   42.4948 H   0  0  0  0  0  0  0  0  0  0  0  0
   41.5186   34.6317   41.1072 H   0  0  0  0  0  0  0  0  0  0  0  0
   41.3333   32.4532   41.9497 H   0  0  0  0  0  0  0  0  0  0  0  0
   43.3949   32.6063   43.1959 H   0  0  0  0  0  0  0  0  0  0  0  0
   43.1893   31.0448   42.2739 H   0  0  0  0  0  0  0  0  0  0  0  0
   45.4493   32.2114   42.2746 H   0  0  0  0  0  0  0  0  0  0  0  0
   46.3725   29.9983   41.4068 H   0  0  0  0  0  0  0  0  0  0  0  0
   46.4974   28.5688   39.3627 H   0  0  0  0  0  0  0  0  0  0  0  0
   45.0144   29.3021   37.3210 H   0  0  0  0  0  0  0  0  0  0  0  0
   43.7831   36.9470   45.0539 H   0  0  0  0  0  0  0  0  0  0  0  0
   44.9242   36.8328   42.8270 H   0  0  0  0  0  0  0  0  0  0  0  0
   45.6104   33.3498   46.2296 H   0  0  0  0  0  0  0  0  0  0  0  0
  1 20  1  0
  2  1  2  0
  3  2  1  0
  4  5  1  0
  4  3  2  0
  5  6  2  0
  6  7  1  0
  6  1  1  0
  7 12  1  0
  8  7  1  0
  8  9  1  0
  9 10  1  0
 10 11  1  0
 12 11  1  0
 13 14  2  0
 13 12  1  0
 15 14  1  0
 16 17  1  0
 16 15  2  0
 17 13  1  0
 18 23  2  0
 19 18  1  0
 20 19  2  0
 20 21  1  0
 21 22  2  0
 22 23  1  0
  2 24  1  0
  3 25  1  0
  4 26  1  0
  5 27  1  0
  8 28  1  0
  8 29  1  0
  9 30  1  0
  9 31  1  0
 10 32  1  0
 11 33  1  0
 11 34  1  0
 12 35  1  1
 14 36  1  0
 15 37  1  0
 16 38  1  0
 18 39  1  0
 19 40  1  0
 22 41  1  0
M  ISO  8  24  14  25  14  26  14  27  14  28  13  29  13  30  13  31  13
M  ISO  8  32   5  33  13  34  13  35  13  36  14  37  14  38  14  39  14
M  ISO  2  40  14  41  14
M  END
>  <minimizedAffinity>  (1) 
-5.61655474

>  <minimizedRMSD>  (1) 
0.293521881

$$$$
