
     RDKit          3D

 22 23  0  0  0  0  0  0  0  0999 V2000
   46.0680   32.7220   47.0800 C   0  0  0  0  0  0  0  0  0  0  0  0
   44.9980   32.2750   47.8310 C   0  0  0  0  0  0  0  0  0  0  0  0
   45.1290   31.4970   48.9590 C   0  0  0  0  0  0  0  0  0  0  0  0
   46.4280   31.1970   49.2790 C   0  0  0  0  0  0  0  0  0  0  0  0
   47.5460   31.6160   48.5660 C   0  0  0  0  0  0  0  0  0  0  0  0
   47.3050   32.3670   47.4890 N   0  0  0  0  0  0  0  0  0  0  0  0
   44.7690   35.2880   44.8580 C   0  0  0  0  0  0  0  0  0  0  0  0
   45.5660   35.1310   43.6850 C   0  0  0  0  0  0  0  0  0  0  0  0
   46.5410   34.1450   43.6680 C   0  0  0  0  0  0  0  0  0  0  0  0
   46.6780   33.3810   44.7800 N   0  0  0  0  0  0  0  0  0  0  0  0
   45.9000   33.5520   45.8930 C   0  0  0  0  0  0  0  0  0  0  0  0
   44.9510   34.5030   45.9260 N   0  0  0  0  0  0  0  0  0  0  0  0
   48.9020   31.2190   49.0240 C   0  0  0  0  0  0  0  0  0  0  0  0
   49.5500   30.3910   48.1040 F   0  0  0  0  0  0  0  0  0  0  0  0
   48.8350   30.4490   50.1840 F   0  0  0  0  0  0  0  0  0  0  0  0
   49.6910   32.3130   49.3060 F   0  0  0  0  0  0  0  0  0  0  0  0
   43.9844   32.5566   47.5095 H   0  0  0  0  0  0  0  0  0  0  0  0
   44.2695   31.1477   49.5500 H   0  0  0  0  0  0  0  0  0  0  0  0
   46.5994   30.5756   50.1704 H   0  0  0  0  0  0  0  0  0  0  0  0
   43.9926   36.0668   44.8847 H   0  0  0  0  0  0  0  0  0  0  0  0
   45.4100   35.7799   42.8106 H   0  0  0  0  0  0  0  0  0  0  0  0
   47.1792   33.9885   42.7858 H   0  0  0  0  0  0  0  0  0  0  0  0
  1  6  1  0
  1  2  2  0
  2  3  1  0
  3  4  2  0
  5 13  1  0
  5  4  1  0
  6  5  2  0
  7 12  2  0
  8  7  1  0
  9  8  2  0
  9 10  1  0
 10 11  2  0
 11 12  1  0
 11  1  1  0
 13 16  1  0
 13 15  1  0
 14 13  1  0
  2 17  1  0
  3 18  1  0
  4 19  1  0
  7 20  1  0
  8 21  1  0
  9 22  1  0
M  ISO  6  17  14  18  14  19  14  20  14  21  14  22  14
M  END
>  <minimizedAffinity>  (1) 
-5.42825079

>  <minimizedRMSD>  (1) 
0.745663106

$$$$
