
     RDKit          3D

 25 27  0  0  0  0  0  0  0  0999 V2000
   46.5620   32.5470   45.1340 C   0  0  0  0  0  0  0  0  0  0  0  0
   47.5440   32.0340   44.3400 N   0  0  0  0  0  0  0  0  0  0  0  0
   47.9860   32.5970   43.2180 C   0  0  0  0  0  0  0  0  0  0  0  0
   47.4790   33.7530   42.7700 N   0  0  0  0  0  0  0  0  0  0  0  0
   46.5160   34.3340   43.4710 C   0  0  0  0  0  0  0  0  0  0  0  0
   46.0010   35.5270   42.9980 C   0  0  0  0  0  0  0  0  0  0  0  0
   45.0030   36.1800   43.6760 C   0  0  0  0  0  0  0  0  0  0  0  0
   44.5400   35.5860   44.8540 C   0  0  0  0  0  0  0  0  0  0  0  0
   45.0910   34.3950   45.2790 C   0  0  0  0  0  0  0  0  0  0  0  0
   46.0750   33.7320   44.6290 C   0  0  0  0  0  0  0  0  0  0  0  0
   45.1840   29.8890   47.1020 C   0  0  0  0  0  0  0  0  0  0  0  0
   45.1200   30.3260   48.4330 C   0  0  0  0  0  0  0  0  0  0  0  0
   45.5790   31.6110   48.6600 C   0  0  0  0  0  0  0  0  0  0  0  0
   46.0330   32.3050   47.6100 N   0  0  0  0  0  0  0  0  0  0  0  0
   46.0990   31.9090   46.3550 C   0  0  0  0  0  0  0  0  0  0  0  0
   45.6560   30.6730   46.1490 N   0  0  0  0  0  0  0  0  0  0  0  0
   45.6070   32.2420   49.8960 O   0  0  0  0  0  0  0  0  0  0  0  0
   48.7849   32.1023   42.6462 H   0  0  0  0  0  0  0  0  0  0  0  0
   46.3965   35.9578   42.0664 H   0  0  0  0  0  0  0  0  0  0  0  0
   44.5854   37.1292   43.3090 H   0  0  0  0  0  0  0  0  0  0  0  0
   43.7410   36.0656   45.4384 H   0  0  0  0  0  0  0  0  0  0  0  0
   44.7040   33.9544   46.2096 H   0  0  0  0  0  0  0  0  0  0  0  0
   44.8356   28.8772   46.8473 H   0  0  0  0  0  0  0  0  0  0  0  0
   44.7311   29.6899   49.2418 H   0  0  0  0  0  0  0  0  0  0  0  0
   45.9526   33.1666   49.9720 H   0  0  0  0  0  0  0  0  0  0  0  0
  1 15  1  0
  2  1  2  0
  3  2  1  0
  4  3  2  0
  4  5  1  0
  5 10  2  0
  6  5  1  0
  6  7  2  0
  7  8  1  0
  8  9  2  0
 10  1  1  0
 10  9  1  0
 11 12  2  0
 12 13  1  0
 13 17  1  0
 14 13  2  0
 15 14  1  0
 16 15  2  0
 16 11  1  0
  3 18  1  0
  6 19  1  0
  7 20  1  0
  8 21  1  0
  9 22  1  0
 11 23  1  0
 12 24  1  0
 17 25  1  0
M  ISO  8  18  14  19  14  20  14  21  14  22  14  23  14  24  14  25   3
M  END
>  <minimizedAffinity>  (1) 
-5.83875704

>  <minimizedRMSD>  (1) 
0.52198875

$$$$
