
     RDKit          3D

 26 28  0  0  0  0  0  0  0  0999 V2000
   46.5730   32.5200   45.0920 C   0  0  0  0  0  0  0  0  0  0  0  0
   47.5610   32.0200   44.3010 N   0  0  0  0  0  0  0  0  0  0  0  0
   48.0110   32.6040   43.1910 C   0  0  0  0  0  0  0  0  0  0  0  0
   47.5080   33.7600   42.7610 N   0  0  0  0  0  0  0  0  0  0  0  0
   46.5310   34.3360   43.4690 C   0  0  0  0  0  0  0  0  0  0  0  0
   46.0210   35.5310   43.0120 C   0  0  0  0  0  0  0  0  0  0  0  0
   45.0130   36.1730   43.6960 C   0  0  0  0  0  0  0  0  0  0  0  0
   44.5420   35.5580   44.8610 C   0  0  0  0  0  0  0  0  0  0  0  0
   45.0870   34.3670   45.2700 C   0  0  0  0  0  0  0  0  0  0  0  0
   46.0750   33.7130   44.6210 C   0  0  0  0  0  0  0  0  0  0  0  0
   45.1670   29.8350   47.0160 C   0  0  0  0  0  0  0  0  0  0  0  0
   45.1110   30.2500   48.3470 C   0  0  0  0  0  0  0  0  0  0  0  0
   45.5830   31.5270   48.6100 C   0  0  0  0  0  0  0  0  0  0  0  0
   46.0420   32.2320   47.5670 N   0  0  0  0  0  0  0  0  0  0  0  0
   46.1040   31.8590   46.2970 C   0  0  0  0  0  0  0  0  0  0  0  0
   45.6480   30.6370   46.0730 N   0  0  0  0  0  0  0  0  0  0  0  0
   45.6350   32.1710   49.8510 N   0  0  0  0  0  0  0  0  0  0  0  0
   48.8155   32.1208   42.6172 H   0  0  0  0  0  0  0  0  0  0  0  0
   46.4233   35.9774   42.0906 H   0  0  0  0  0  0  0  0  0  0  0  0
   44.5964   37.1275   43.3420 H   0  0  0  0  0  0  0  0  0  0  0  0
   43.7379   36.0274   45.4468 H   0  0  0  0  0  0  0  0  0  0  0  0
   44.6918   33.9130   46.1907 H   0  0  0  0  0  0  0  0  0  0  0  0
   44.8083   28.8312   46.7444 H   0  0  0  0  0  0  0  0  0  0  0  0
   44.7151   29.6012   49.1422 H   0  0  0  0  0  0  0  0  0  0  0  0
   46.0102   33.1278   49.9194 H   0  0  0  0  0  0  0  0  0  0  0  0
   45.2980   31.6883   50.6962 H   0  0  0  0  0  0  0  0  0  0  0  0
  1 15  1  0
  2  1  2  0
  3  2  1  0
  4  3  2  0
  4  5  1  0
  5 10  2  0
  6  5  1  0
  6  7  2  0
  7  8  1  0
  8  9  2  0
 10  1  1  0
 10  9  1  0
 11 12  2  0
 12 13  1  0
 13 17  1  0
 14 13  2  0
 15 14  1  0
 16 15  2  0
 16 11  1  0
  3 18  1  0
  6 19  1  0
  7 20  1  0
  8 21  1  0
  9 22  1  0
 11 23  1  0
 12 24  1  0
 17 25  1  0
 17 26  1  0
M  ISO  7  18  14  19  14  20  14  21  14  22  14  23  14  24  14
M  END
>  <minimizedAffinity>  (1) 
-5.74864626

>  <minimizedRMSD>  (1) 
0.577617943

$$$$
