
     RDKit          3D

 27 29  0  0  0  0  0  0  0  0999 V2000
   46.8300   32.7180   44.3630 C   0  0  0  0  0  0  0  0  0  0  0  0
   47.8020   32.4640   43.4490 N   0  0  0  0  0  0  0  0  0  0  0  0
   48.1330   33.2640   42.4360 C   0  0  0  0  0  0  0  0  0  0  0  0
   47.5050   34.4270   42.2400 N   0  0  0  0  0  0  0  0  0  0  0  0
   46.5360   34.7720   43.0780 C   0  0  0  0  0  0  0  0  0  0  0  0
   45.8960   35.9750   42.8630 C   0  0  0  0  0  0  0  0  0  0  0  0
   44.8820   36.3870   43.7010 C   0  0  0  0  0  0  0  0  0  0  0  0
   44.5380   35.5470   44.7590 C   0  0  0  0  0  0  0  0  0  0  0  0
   45.2110   34.3590   44.9240 C   0  0  0  0  0  0  0  0  0  0  0  0
   46.2200   33.9170   44.1160 C   0  0  0  0  0  0  0  0  0  0  0  0
   45.3820   29.8080   45.8720 C   0  0  0  0  0  0  0  0  0  0  0  0
   45.6480   29.8440   47.2340 C   0  0  0  0  0  0  0  0  0  0  0  0
   46.3710   30.9370   47.6640 C   0  0  0  0  0  0  0  0  0  0  0  0
   46.7370   31.8370   46.7510 N   0  0  0  0  0  0  0  0  0  0  0  0
   46.4950   31.8200   45.4550 C   0  0  0  0  0  0  0  0  0  0  0  0
   45.7980   30.7620   45.0480 N   0  0  0  0  0  0  0  0  0  0  0  0
   46.7620   31.1810   49.0500 C   0  0  0  0  0  0  0  0  0  0  0  0
   47.8740   30.8630   49.5470 O   0  0  0  0  0  0  0  0  0  0  0  0
   45.8440   31.8150   49.9070 O   0  0  0  0  0  0  0  0  0  0  0  0
   48.9373   32.9617   41.7492 H   0  0  0  0  0  0  0  0  0  0  0  0
   46.1970   36.6101   42.0168 H   0  0  0  0  0  0  0  0  0  0  0  0
   44.3632   37.3437   43.5407 H   0  0  0  0  0  0  0  0  0  0  0  0
   43.7356   35.8317   45.4555 H   0  0  0  0  0  0  0  0  0  0  0  0
   44.9154   33.7182   45.7678 H   0  0  0  0  0  0  0  0  0  0  0  0
   44.8088   28.9629   45.4630 H   0  0  0  0  0  0  0  0  0  0  0  0
   45.3063   29.0564   47.9217 H   0  0  0  0  0  0  0  0  0  0  0  0
   46.0874   31.9906   50.8504 H   0  0  0  0  0  0  0  0  0  0  0  0
  1 15  1  0
  2  1  2  0
  3  2  1  0
  4  3  2  0
  4  5  1  0
  5 10  2  0
  6  5  1  0
  6  7  2  0
  7  8  1  0
  8  9  2  0
 10  1  1  0
 10  9  1  0
 11 12  2  0
 12 13  1  0
 13 17  1  0
 14 13  2  0
 15 14  1  0
 16 15  2  0
 16 11  1  0
 17 18  2  0
 17 19  1  0
  3 20  1  0
  6 21  1  0
  7 22  1  0
  8 23  1  0
  9 24  1  0
 11 25  1  0
 12 26  1  0
 19 27  1  0
M  ISO  8  20  14  21  14  22  14  23  14  24  14  25  14  26  14  27   3
M  END
>  <minimizedAffinity>  (1) 
-5.47100401

>  <minimizedRMSD>  (1) 
1.55938017

$$$$
