
     RDKit          3D

 31 33  0  0  0  0  0  0  0  0999 V2000
   47.8880   29.5980   45.5240 C   0  0  0  0  0  0  0  0  0  0  0  0
   47.7370   29.6580   46.8950 C   0  0  0  0  0  0  0  0  0  0  0  0
   47.3480   30.8880   47.3830 C   0  0  0  0  0  0  0  0  0  0  0  0
   47.1590   31.8770   46.5070 N   0  0  0  0  0  0  0  0  0  0  0  0
   47.2930   31.8510   45.2100 C   0  0  0  0  0  0  0  0  0  0  0  0
   47.6730   30.6530   44.7430 N   0  0  0  0  0  0  0  0  0  0  0  0
   47.1270   32.8300   44.1600 C   0  0  0  0  0  0  0  0  0  0  0  0
   47.8050   32.7840   42.9740 N   0  0  0  0  0  0  0  0  0  0  0  0
   47.6690   33.6800   41.9910 C   0  0  0  0  0  0  0  0  0  0  0  0
   46.8400   34.7060   42.1060 N   0  0  0  0  0  0  0  0  0  0  0  0
   46.1370   34.8470   43.2080 C   0  0  0  0  0  0  0  0  0  0  0  0
   45.2620   35.9210   43.3390 C   0  0  0  0  0  0  0  0  0  0  0  0
   44.5120   36.1130   44.4560 C   0  0  0  0  0  0  0  0  0  0  0  0
   44.6510   35.1830   45.4780 C   0  0  0  0  0  0  0  0  0  0  0  0
   45.5230   34.1320   45.3180 C   0  0  0  0  0  0  0  0  0  0  0  0
   46.2820   33.9140   44.2220 C   0  0  0  0  0  0  0  0  0  0  0  0
   47.1120   31.2330   48.8090 C   0  0  0  0  0  0  0  0  0  0  0  0
   45.6960   30.9000   49.2400 C   0  0  0  0  0  0  0  0  0  0  0  0
   45.2810   31.9470   50.0800 O   0  0  0  0  0  0  0  0  0  0  0  0
   48.1958   28.6479   45.0630 H   0  0  0  0  0  0  0  0  0  0  0  0
   47.9135   28.7909   47.5484 H   0  0  0  0  0  0  0  0  0  0  0  0
   48.2572   33.5625   41.0689 H   0  0  0  0  0  0  0  0  0  0  0  0
   45.1744   36.6390   42.5103 H   0  0  0  0  0  0  0  0  0  0  0  0
   43.8251   36.9674   44.5466 H   0  0  0  0  0  0  0  0  0  0  0  0
   44.0694   35.2861   46.4060 H   0  0  0  0  0  0  0  0  0  0  0  0
   45.6092   33.4133   46.1463 H   0  0  0  0  0  0  0  0  0  0  0  0
   47.8175   30.6663   49.4343 H   0  0  0  0  0  0  0  0  0  0  0  0
   47.2611   32.3162   48.9289 H   0  0  0  0  0  0  0  0  0  0  0  0
   45.0369   30.8326   48.3619 H   0  0  0  0  0  0  0  0  0  0  0  0
   45.6544   29.9313   49.7595 H   0  0  0  0  0  0  0  0  0  0  0  0
   45.3892   31.6741   51.0255 H   0  0  0  0  0  0  0  0  0  0  0  0
  1  2  2  0
  2  3  1  0
  3 17  1  0
  4  3  2  0
  5  4  1  0
  6  5  2  0
  6  1  1  0
  7 16  1  0
  7  5  1  0
  8  7  2  0
  9 10  2  0
  9  8  1  0
 10 11  1  0
 11 12  1  0
 11 16  2  0
 12 13  2  0
 13 14  1  0
 15 14  2  0
 16 15  1  0
 17 18  1  0
 18 19  1  0
  1 20  1  0
  2 21  1  0
  9 22  1  0
 12 23  1  0
 13 24  1  0
 14 25  1  0
 15 26  1  0
 17 27  1  0
 17 28  1  0
 18 29  1  0
 18 30  1  0
 19 31  1  0
M  ISO  8  20  14  21  14  22  14  23  14  24  14  25  14  26  14  27   8
M  ISO  4  28   8  29   8  30   8  31   3
M  END
>  <minimizedAffinity>  (1) 
-5.521492

>  <minimizedRMSD>  (1) 
0.372323066

$$$$
