
     RDKit          3D

 37 40  0  0  0  0  0  0  0  0999 V2000
   45.1870   30.4950   42.8950 C   0  0  0  0  0  0  0  0  0  0  0  0
   46.1240   31.4060   43.3470 C   0  0  0  0  0  0  0  0  0  0  0  0
   45.7280   32.7330   43.2740 C   0  0  0  0  0  0  0  0  0  0  0  0
   44.5150   32.9880   42.7880 N   0  0  0  0  0  0  0  0  0  0  0  0
   43.6160   32.1450   42.3590 C   0  0  0  0  0  0  0  0  0  0  0  0
   44.0010   30.8630   42.4300 N   0  0  0  0  0  0  0  0  0  0  0  0
   42.2790   32.2830   41.8120 C   0  0  0  0  0  0  0  0  0  0  0  0
   41.2350   31.4720   42.1520 N   0  0  0  0  0  0  0  0  0  0  0  0
   39.9950   31.5760   41.6620 C   0  0  0  0  0  0  0  0  0  0  0  0
   39.6900   32.5130   40.7800 N   0  0  0  0  0  0  0  0  0  0  0  0
   40.6230   33.3550   40.3780 C   0  0  0  0  0  0  0  0  0  0  0  0
   40.2920   34.3340   39.4500 C   0  0  0  0  0  0  0  0  0  0  0  0
   41.2310   35.2330   39.0020 C   0  0  0  0  0  0  0  0  0  0  0  0
   42.5230   35.1230   39.5130 C   0  0  0  0  0  0  0  0  0  0  0  0
   42.7940   34.1340   40.4300 C   0  0  0  0  0  0  0  0  0  0  0  0
   41.8970   33.2350   40.8920 C   0  0  0  0  0  0  0  0  0  0  0  0
   46.5240   33.8980   43.6840 C   0  0  0  0  0  0  0  0  0  0  0  0
   47.2050   34.5720   42.5090 C   0  0  0  0  0  0  0  0  0  0  0  0
   48.6620   34.2910   42.4890 C   0  0  0  0  0  0  0  0  0  0  0  0
   49.2990   33.0910   42.2600 C   0  0  0  0  0  0  0  0  0  0  0  0
   50.6830   33.2800   42.3370 C   0  0  0  0  0  0  0  0  0  0  0  0
   50.8000   34.6020   42.6110 N   0  0  0  0  0  0  0  0  0  0  0  0
   49.6380   35.1960   42.7010 N   0  0  0  0  0  0  0  0  0  0  0  0
   45.4351   29.4237   42.9222 H   0  0  0  0  0  0  0  0  0  0  0  0
   47.1075   31.1016   43.7345 H   0  0  0  0  0  0  0  0  0  0  0  0
   39.2184   30.8727   41.9971 H   0  0  0  0  0  0  0  0  0  0  0  0
   39.2623   34.3910   39.0674 H   0  0  0  0  0  0  0  0  0  0  0  0
   40.9721   36.0100   38.2677 H   0  0  0  0  0  0  0  0  0  0  0  0
   43.3133   35.8158   39.1883 H   0  0  0  0  0  0  0  0  0  0  0  0
   43.8215   34.0699   40.8176 H   0  0  0  0  0  0  0  0  0  0  0  0
   45.8598   34.6258   44.1730 H   0  0  0  0  0  0  0  0  0  0  0  0
   47.3080   33.5452   44.3702 H   0  0  0  0  0  0  0  0  0  0  0  0
   46.7568   34.2010   41.5755 H   0  0  0  0  0  0  0  0  0  0  0  0
   47.0649   35.6587   42.6065 H   0  0  0  0  0  0  0  0  0  0  0  0
   48.7980   32.1345   42.0497 H   0  0  0  0  0  0  0  0  0  0  0  0
   51.4825   32.5358   42.2067 H   0  0  0  0  0  0  0  0  0  0  0  0
   51.7016   35.0844   42.7344 H   0  0  0  0  0  0  0  0  0  0  0  0
  1  2  2  0
  3  2  1  0
  3 17  1  0
  4  3  2  0
  5  6  2  0
  5  4  1  0
  6  1  1  0
  7  8  2  0
  7  5  1  0
  9  8  1  0
 10  9  2  0
 11 10  1  0
 11 16  2  0
 12 11  1  0
 13 12  2  0
 13 14  1  0
 14 15  2  0
 15 16  1  0
 16  7  1  0
 18 17  1  0
 19 18  1  0
 19 23  2  0
 20 21  2  0
 20 19  1  0
 21 22  1  0
 22 23  1  0
  1 24  1  0
  2 25  1  0
  9 26  1  0
 12 27  1  0
 13 28  1  0
 14 29  1  0
 15 30  1  0
 17 31  1  0
 17 32  1  0
 18 33  1  0
 18 34  1  0
 20 35  1  0
 21 36  1  0
 22 37  1  0
M  ISO  8  24  14  25  14  26  14  27  14  28  14  29  14  30  14  31   8
M  ISO  6  32   8  33   8  34   8  35  14  36  14  37   9
M  END
>  <minimizedAffinity>  (1) 
-5.39742947

>  <minimizedRMSD>  (1) 
7.31575823

$$$$
