
     RDKit          3D

 36 39  0  0  0  0  0  0  0  0999 V2000
   45.5290   29.4730   44.1870 C   0  0  0  0  0  0  0  0  0  0  0  0
   46.3900   29.0590   45.1760 C   0  0  0  0  0  0  0  0  0  0  0  0
   47.3620   29.9680   45.5200 C   0  0  0  0  0  0  0  0  0  0  0  0
   47.3740   31.1450   44.8730 N   0  0  0  0  0  0  0  0  0  0  0  0
   46.5710   31.5610   43.9330 C   0  0  0  0  0  0  0  0  0  0  0  0
   45.6280   30.6670   43.6070 N   0  0  0  0  0  0  0  0  0  0  0  0
   46.4620   32.7800   43.1550 C   0  0  0  0  0  0  0  0  0  0  0  0
   46.9360   32.9130   41.8860 N   0  0  0  0  0  0  0  0  0  0  0  0
   46.8420   34.0300   41.1630 C   0  0  0  0  0  0  0  0  0  0  0  0
   46.2680   35.1150   41.6430 N   0  0  0  0  0  0  0  0  0  0  0  0
   45.7720   35.0970   42.8670 C   0  0  0  0  0  0  0  0  0  0  0  0
   45.1620   36.2410   43.3780 C   0  0  0  0  0  0  0  0  0  0  0  0
   44.6350   36.2730   44.6280 C   0  0  0  0  0  0  0  0  0  0  0  0
   44.7290   35.1180   45.3810 C   0  0  0  0  0  0  0  0  0  0  0  0
   45.3390   34.0010   44.8510 C   0  0  0  0  0  0  0  0  0  0  0  0
   45.8710   33.9410   43.6090 C   0  0  0  0  0  0  0  0  0  0  0  0
   48.4260   29.8060   46.5480 C   0  0  0  0  0  0  0  0  0  0  0  0
   47.8690   29.6230   47.9200 C   0  0  0  0  0  0  0  0  0  0  0  0
   46.9520   30.6360   48.3660 N   0  0  0  0  0  0  0  0  0  0  0  0
   47.0380   31.9620   48.5610 C   0  0  0  0  0  0  0  0  0  0  0  0
   45.8620   32.3760   49.0080 N   0  0  0  0  0  0  0  0  0  0  0  0
   45.0050   31.3470   49.1110 C   0  0  0  0  0  0  0  0  0  0  0  0
   45.7200   30.2910   48.7030 N   0  0  0  0  0  0  0  0  0  0  0  0
   44.7283   28.7919   43.8630 H   0  0  0  0  0  0  0  0  0  0  0  0
   46.3070   28.0730   45.6565 H   0  0  0  0  0  0  0  0  0  0  0  0
   47.2530   34.0460   40.1428 H   0  0  0  0  0  0  0  0  0  0  0  0
   45.1062   37.1429   42.7508 H   0  0  0  0  0  0  0  0  0  0  0  0
   44.1538   37.1791   45.0248 H   0  0  0  0  0  0  0  0  0  0  0  0
   44.3180   35.0900   46.4010 H   0  0  0  0  0  0  0  0  0  0  0  0
   45.3968   33.0999   45.4792 H   0  0  0  0  0  0  0  0  0  0  0  0
   49.0325   28.9246   46.2926 H   0  0  0  0  0  0  0  0  0  0  0  0
   49.0310   30.7246   46.5517 H   0  0  0  0  0  0  0  0  0  0  0  0
   47.3423   28.6576   47.9438 H   0  0  0  0  0  0  0  0  0  0  0  0
   48.7308   29.6812   48.6011 H   0  0  0  0  0  0  0  0  0  0  0  0
   47.9235   32.5896   48.3821 H   0  0  0  0  0  0  0  0  0  0  0  0
   43.9592   31.3671   49.4513 H   0  0  0  0  0  0  0  0  0  0  0  0
  1  2  2  0
  2  3  1  0
  3 17  1  0
  4  3  2  0
  5  4  1  0
  6  5  2  0
  6  1  1  0
  7 16  1  0
  7  5  1  0
  8  7  2  0
  9 10  2  0
  9  8  1  0
 10 11  1  0
 11 12  1  0
 11 16  2  0
 12 13  2  0
 13 14  1  0
 15 14  2  0
 16 15  1  0
 17 18  1  0
 18 19  1  0
 19 20  1  0
 19 23  1  0
 20 21  2  0
 21 22  1  0
 23 22  2  0
  1 24  1  0
  2 25  1  0
  9 26  1  0
 12 27  1  0
 13 28  1  0
 14 29  1  0
 15 30  1  0
 17 31  1  0
 17 32  1  0
 18 33  1  0
 18 34  1  0
 20 35  1  0
 22 36  1  0
M  ISO  8  24  14  25  14  26  14  27  14  28  14  29  14  30  14  31   8
M  ISO  5  32   8  33   8  34   8  35  14  36  14
M  END
>  <minimizedAffinity>  (1) 
-5.0356102

>  <minimizedRMSD>  (1) 
2.12100744

$$$$
