
     RDKit          3D

 44 47  0  0  0  0  0  0  0  0999 V2000
   49.6770   29.0500   42.6030 C   0  0  0  0  0  0  0  0  0  0  0  0
   49.2370   28.9040   43.9200 C   0  0  0  0  0  0  0  0  0  0  0  0
   48.3800   29.8800   44.3770 C   0  0  0  0  0  0  0  0  0  0  0  0
   48.0580   30.8580   43.5240 N   0  0  0  0  0  0  0  0  0  0  0  0
   48.4460   31.0290   42.2930 C   0  0  0  0  0  0  0  0  0  0  0  0
   49.2740   30.0800   41.8620 N   0  0  0  0  0  0  0  0  0  0  0  0
   48.1810   32.0290   41.2720 C   0  0  0  0  0  0  0  0  0  0  0  0
   47.5250   31.7650   40.1030 N   0  0  0  0  0  0  0  0  0  0  0  0
   47.2750   32.6690   39.1530 C   0  0  0  0  0  0  0  0  0  0  0  0
   47.6640   33.9220   39.2940 N   0  0  0  0  0  0  0  0  0  0  0  0
   48.3100   34.2970   40.3880 C   0  0  0  0  0  0  0  0  0  0  0  0
   48.7090   35.6220   40.5140 C   0  0  0  0  0  0  0  0  0  0  0  0
   49.3820   36.0470   41.6350 C   0  0  0  0  0  0  0  0  0  0  0  0
   49.6430   35.1080   42.6270 C   0  0  0  0  0  0  0  0  0  0  0  0
   49.2260   33.8120   42.4500 C   0  0  0  0  0  0  0  0  0  0  0  0
   48.5620   33.3510   41.3630 C   0  0  0  0  0  0  0  0  0  0  0  0
   47.7800   29.9530   45.7190 C   0  0  0  0  0  0  0  0  0  0  0  0
   47.2560   31.3380   46.0330 C   0  0  0  0  0  0  0  0  0  0  0  0
   46.2230   31.3270   47.0260 N   0  0  0  0  0  0  0  0  0  0  0  0
   46.3510   32.4930   47.8780 C   0  0  0  0  0  0  0  0  0  0  0  0
   45.7790   32.1860   49.2470 C   0  0  0  0  0  0  0  0  0  0  0  0
   44.6730   31.2500   49.1270 N   0  0  0  0  0  0  0  0  0  0  0  0
   45.1010   29.9650   48.6300 C   0  0  0  0  0  0  0  0  0  0  0  0
   46.3980   30.1630   47.8720 C   0  0  0  0  0  0  0  0  0  0  0  0
   50.3639   28.3061   42.1731 H   0  0  0  0  0  0  0  0  0  0  0  0
   49.5550   28.0622   44.5527 H   0  0  0  0  0  0  0  0  0  0  0  0
   46.7384   32.3658   38.2419 H   0  0  0  0  0  0  0  0  0  0  0  0
   48.4843   36.3376   39.7093 H   0  0  0  0  0  0  0  0  0  0  0  0
   49.7029   37.0935   41.7435 H   0  0  0  0  0  0  0  0  0  0  0  0
   50.1774   35.4003   43.5430 H   0  0  0  0  0  0  0  0  0  0  0  0
   49.4481   33.0929   43.2523 H   0  0  0  0  0  0  0  0  0  0  0  0
   46.9465   29.2373   45.7745 H   0  0  0  0  0  0  0  0  0  0  0  0
   48.5623   29.7118   46.4538 H   0  0  0  0  0  0  0  0  0  0  0  0
   48.0898   31.9549   46.3995 H   0  0  0  0  0  0  0  0  0  0  0  0
   46.8231   31.7468   45.1081 H   0  0  0  0  0  0  0  0  0  0  0  0
   47.4136   32.7599   47.9764 H   0  0  0  0  0  0  0  0  0  0  0  0
   45.8004   33.3343   47.4318 H   0  0  0  0  0  0  0  0  0  0  0  0
   46.5635   31.7434   49.8784 H   0  0  0  0  0  0  0  0  0  0  0  0
   45.4142   33.1184   49.7025 H   0  0  0  0  0  0  0  0  0  0  0  0
   44.2446   31.1213   50.0548 H   0  0  0  0  0  0  0  0  0  0  0  0
   45.2621   29.2745   49.4710 H   0  0  0  0  0  0  0  0  0  0  0  0
   44.3337   29.5370   47.9681 H   0  0  0  0  0  0  0  0  0  0  0  0
   46.6141   29.2777   47.2559 H   0  0  0  0  0  0  0  0  0  0  0  0
   47.2395   30.3059   48.5659 H   0  0  0  0  0  0  0  0  0  0  0  0
  1  2  2  0
  2  3  1  0
  3 17  1  0
  4  3  2  0
  5  4  1  0
  6  5  2  0
  6  1  1  0
  7 16  1  0
  7  5  1  0
  8  7  2  0
  9 10  2  0
  9  8  1  0
 10 11  1  0
 11 12  1  0
 11 16  2  0
 12 13  2  0
 13 14  1  0
 15 14  2  0
 16 15  1  0
 17 18  1  0
 18 19  1  0
 19 24  1  0
 19 20  1  0
 20 21  1  0
 22 21  1  0
 23 22  1  0
 24 23  1  0
  1 25  1  0
  2 26  1  0
  9 27  1  0
 12 28  1  0
 13 29  1  0
 14 30  1  0
 15 31  1  0
 17 32  1  0
 17 33  1  0
 18 34  1  0
 18 35  1  0
 20 36  1  0
 20 37  1  0
 21 38  1  0
 21 39  1  0
 22 40  1  0
 23 41  1  0
 23 42  1  0
 24 43  1  0
 24 44  1  0
M  ISO  8  25  14  26  14  27  14  28  14  29  14  30  14  31  14  32   8
M  ISO  8  33   8  34   8  35   8  36  13  37  13  38  13  39  13  40   5
M  ISO  4  41  13  42  13  43  13  44  13
M  END
>  <minimizedAffinity>  (1) 
-5.11844254

>  <minimizedRMSD>  (1) 
4.02424574

$$$$
