
     RDKit          3D

 43 45  0  0  1  0  0  0  0  0999 V2000
   46.7820   34.8140   42.0780 C   0  0  0  0  0  0  0  0  0  0  0  0
   48.0300   35.3870   42.0440 C   0  0  0  0  0  0  0  0  0  0  0  0
   48.8360   35.3360   40.9040 C   0  0  0  0  0  0  0  0  0  0  0  0
   48.3570   34.6840   39.7640 C   0  0  0  0  0  0  0  0  0  0  0  0
   47.1150   34.1220   39.8210 C   0  0  0  0  0  0  0  0  0  0  0  0
   46.3470   34.1840   40.9470 C   0  0  0  0  0  0  0  0  0  0  0  0
   45.0320   33.5750   40.9680 N   0  0  0  0  0  0  0  0  0  0  0  0
   43.8170   34.1200   40.3690 C   0  0  0  0  0  0  0  0  0  0  0  0
   42.6090   33.8390   41.2230 C   0  0  0  0  0  0  0  0  0  0  0  0
   42.5270   32.3960   41.4270 N   0  0  0  0  0  0  0  0  0  0  0  0
   43.6410   32.0780   42.3130 C   0  0  0  0  0  0  0  0  0  0  0  0
   44.9880   32.3040   41.6690 C   0  0  1  0  0  0  0  0  0  0  0  0
   45.4000   31.1840   40.7600 C   0  0  0  0  0  0  0  0  0  0  0  0
   45.0810   31.4430   39.3000 C   0  0  0  0  0  0  0  0  0  0  0  0
   46.8430   30.7790   40.9130 C   0  0  0  0  0  0  0  0  0  0  0  0
   44.4400   35.9390   44.8040 C   0  0  0  0  0  0  0  0  0  0  0  0
   45.1020   35.9300   43.5710 C   0  0  0  0  0  0  0  0  0  0  0  0
   46.0340   34.9270   43.3170 C   0  0  0  0  0  0  0  0  0  0  0  0
   46.2670   33.9930   44.2790 N   0  0  0  0  0  0  0  0  0  0  0  0
   45.5910   34.0530   45.4620 C   0  0  0  0  0  0  0  0  0  0  0  0
   44.6950   35.0100   45.7160 N   0  0  0  0  0  0  0  0  0  0  0  0
   48.4059   35.9012   42.9409 H   0  0  0  0  0  0  0  0  0  0  0  0
   49.8325   35.8019   40.9035 H   0  0  0  0  0  0  0  0  0  0  0  0
   48.9634   34.6258   38.8481 H   0  0  0  0  0  0  0  0  0  0  0  0
   46.7216   33.6041   38.9338 H   0  0  0  0  0  0  0  0  0  0  0  0
   43.9305   35.2084   40.2568 H   0  0  0  0  0  0  0  0  0  0  0  0
   43.6682   33.6399   39.3906 H   0  0  0  0  0  0  0  0  0  0  0  0
   42.7108   34.3480   42.1928 H   0  0  0  0  0  0  0  0  0  0  0  0
   41.6977   34.2077   40.7293 H   0  0  0  0  0  0  0  0  0  0  0  0
   41.6307   32.1426   41.8666 H   0  0  0  0  0  0  0  0  0  0  0  0
   43.5693   32.7128   43.2085 H   0  0  0  0  0  0  0  0  0  0  0  0
   43.5697   31.0089   42.5618 H   0  0  0  0  0  0  0  0  0  0  0  0
   45.7175   32.3301   42.4919 H   0  0  0  0  0  0  0  0  0  0  0  0
   44.7824   30.3369   41.0932 H   0  0  0  0  0  0  0  0  0  0  0  0
   44.2289   32.1349   39.2280 H   0  0  0  0  0  0  0  0  0  0  0  0
   45.9575   31.8883   38.8066 H   0  0  0  0  0  0  0  0  0  0  0  0
   44.8253   30.4937   38.8066 H   0  0  0  0  0  0  0  0  0  0  0  0
   47.0928   30.7089   41.9820 H   0  0  0  0  0  0  0  0  0  0  0  0
   47.0022   29.8015   40.4344 H   0  0  0  0  0  0  0  0  0  0  0  0
   47.4876   31.5309   40.4344 H   0  0  0  0  0  0  0  0  0  0  0  0
   43.7006   36.7245   45.0191 H   0  0  0  0  0  0  0  0  0  0  0  0
   44.8899   36.7014   42.8160 H   0  0  0  0  0  0  0  0  0  0  0  0
   45.7897   33.2905   46.2296 H   0  0  0  0  0  0  0  0  0  0  0  0
  1 18  1  0
  2  1  2  0
  3  2  1  0
  4  5  1  0
  4  3  2  0
  5  6  2  0
  6  7  1  0
  6  1  1  0
  7 12  1  0
  8  7  1  0
  8  9  1  0
  9 10  1  0
 10 11  1  0
 12 11  1  0
 13 15  1  0
 13 12  1  0
 14 13  1  0
 16 21  2  0
 17 16  1  0
 18 17  2  0
 18 19  1  0
 19 20  2  0
 20 21  1  0
  2 22  1  0
  3 23  1  0
  4 24  1  0
  5 25  1  0
  8 26  1  0
  8 27  1  0
  9 28  1  0
  9 29  1  0
 10 30  1  0
 11 31  1  0
 11 32  1  0
 12 33  1  1
 13 34  1  0
 14 35  1  0
 14 36  1  0
 14 37  1  0
 15 38  1  0
 15 39  1  0
 15 40  1  0
 16 41  1  0
 17 42  1  0
 20 43  1  0
M  ISO  8  22  14  23  14  24  14  25  14  26  13  27  13  28  13  29  13
M  ISO  8  30   5  31  13  32  13  33  13  34   8  35   8  36   8  37   8
M  ISO  6  38   8  39   8  40   8  41  14  42  14  43  14
M  END
>  <minimizedAffinity>  (1) 
-5.56421661

>  <minimizedRMSD>  (1) 
0.49983412

$$$$
