
     RDKit          3D

 40 44  0  0  0  0  0  0  0  0999 V2000
   44.5600   35.9000   44.3300 C   0  0  0  0  0  0  0  0  0  0  0  0
   45.3740   35.9330   43.1740 C   0  0  0  0  0  0  0  0  0  0  0  0
   46.3570   34.9620   43.0880 C   0  0  0  0  0  0  0  0  0  0  0  0
   46.4400   34.0850   44.1120 N   0  0  0  0  0  0  0  0  0  0  0  0
   45.6770   34.0550   45.1970 C   0  0  0  0  0  0  0  0  0  0  0  0
   44.7220   34.9790   45.3050 N   0  0  0  0  0  0  0  0  0  0  0  0
   47.2310   34.9410   41.9220 C   0  0  0  0  0  0  0  0  0  0  0  0
   48.4740   35.5570   41.7990 C   0  0  0  0  0  0  0  0  0  0  0  0
   48.9620   35.3220   40.5790 N   0  0  0  0  0  0  0  0  0  0  0  0
   48.0690   34.5770   39.9220 C   0  0  0  0  0  0  0  0  0  0  0  0
   48.1090   34.0730   38.6250 C   0  0  0  0  0  0  0  0  0  0  0  0
   47.0290   33.3230   38.1990 C   0  0  0  0  0  0  0  0  0  0  0  0
   45.9010   33.0260   38.9560 C   0  0  0  0  0  0  0  0  0  0  0  0
   45.9380   33.5600   40.2300 C   0  0  0  0  0  0  0  0  0  0  0  0
   46.9620   34.3130   40.7360 C   0  0  0  0  0  0  0  0  0  0  0  0
   46.0630   32.9630   46.0830 C   0  0  0  0  0  0  0  0  0  0  0  0
   45.6790   32.8900   47.3880 C   0  0  0  0  0  0  0  0  0  0  0  0
   46.0240   31.8760   48.2550 C   0  0  0  0  0  0  0  0  0  0  0  0
   46.8070   30.8410   47.8280 C   0  0  0  0  0  0  0  0  0  0  0  0
   47.2230   30.8590   46.5270 C   0  0  0  0  0  0  0  0  0  0  0  0
   48.0130   29.8070   46.1150 C   0  0  0  0  0  0  0  0  0  0  0  0
   48.4760   29.7470   44.8170 C   0  0  0  0  0  0  0  0  0  0  0  0
   48.1110   30.7890   43.9570 C   0  0  0  0  0  0  0  0  0  0  0  0
   47.3210   31.8140   44.4270 C   0  0  0  0  0  0  0  0  0  0  0  0
   46.8480   31.8970   45.7070 C   0  0  0  0  0  0  0  0  0  0  0  0
   43.7651   36.6525   44.4394 H   0  0  0  0  0  0  0  0  0  0  0  0
   45.2338   36.6884   42.3868 H   0  0  0  0  0  0  0  0  0  0  0  0
   48.9744   36.1442   42.5831 H   0  0  0  0  0  0  0  0  0  0  0  0
   49.8644   35.6551   40.2107 H   0  0  0  0  0  0  0  0  0  0  0  0
   48.9674   34.2643   37.9643 H   0  0  0  0  0  0  0  0  0  0  0  0
   47.0649   32.9272   37.1733 H   0  0  0  0  0  0  0  0  0  0  0  0
   45.0612   32.4247   38.5776 H   0  0  0  0  0  0  0  0  0  0  0  0
   45.0782   33.3646   40.8877 H   0  0  0  0  0  0  0  0  0  0  0  0
   45.0465   33.7008   47.7787 H   0  0  0  0  0  0  0  0  0  0  0  0
   45.6675   31.9000   49.2953 H   0  0  0  0  0  0  0  0  0  0  0  0
   47.0919   30.0235   48.5067 H   0  0  0  0  0  0  0  0  0  0  0  0
   48.2759   29.0100   46.8262 H   0  0  0  0  0  0  0  0  0  0  0  0
   49.1064   28.9142   44.4720 H   0  0  0  0  0  0  0  0  0  0  0  0
   48.4533   30.7891   42.9116 H   0  0  0  0  0  0  0  0  0  0  0  0
   47.0529   32.6188   43.7268 H   0  0  0  0  0  0  0  0  0  0  0  0
  1  6  2  0
  2  1  1  0
  3  2  2  0
  3  4  1  0
  4  5  2  0
  5  6  1  0
  5 16  1  0
  7  3  1  0
  8  7  2  0
  9  8  1  0
 10  9  1  0
 10 15  2  0
 11 10  1  0
 12 11  2  0
 12 13  1  0
 13 14  2  0
 14 15  1  0
 15  7  1  0
 16 17  2  0
 17 18  1  0
 19 18  2  0
 20 19  1  0
 21 20  2  0
 22 21  1  0
 23 24  1  0
 23 22  2  0
 24 25  2  0
 25 16  1  0
 25 20  1  0
  1 26  1  0
  2 27  1  0
  8 28  1  0
  9 29  1  0
 11 30  1  0
 12 31  1  0
 13 32  1  0
 14 33  1  0
 17 34  1  0
 18 35  1  0
 19 36  1  0
 21 37  1  0
 22 38  1  0
 23 39  1  0
 24 40  1  0
M  ISO  8  26  14  27  14  28  14  29   9  30  14  31  14  32  14  33  14
M  ISO  7  34  14  35  14  36  14  37  14  38  14  39  14  40  14
M  END
>  <minimizedAffinity>  (1) 
-7.67771196

>  <minimizedRMSD>  (1) 
0.0719854757

$$$$
