
     RDKit          3D

 35 38  0  0  0  0  0  0  0  0999 V2000
   44.5470   35.8670   44.3320 C   0  0  0  0  0  0  0  0  0  0  0  0
   45.3660   35.8790   43.1820 C   0  0  0  0  0  0  0  0  0  0  0  0
   46.3750   34.9270   43.1040 C   0  0  0  0  0  0  0  0  0  0  0  0
   46.5290   34.0280   44.1350 N   0  0  0  0  0  0  0  0  0  0  0  0
   45.7180   34.0580   45.2140 C   0  0  0  0  0  0  0  0  0  0  0  0
   44.7310   34.9690   45.3220 N   0  0  0  0  0  0  0  0  0  0  0  0
   45.9240   33.1020   46.2540 N   0  0  0  0  0  0  0  0  0  0  0  0
   45.2200   33.2810   47.3850 C   0  0  0  0  0  0  0  0  0  0  0  0
   45.4280   32.3490   48.3800 C   0  0  0  0  0  0  0  0  0  0  0  0
   46.3270   31.3280   48.1370 C   0  0  0  0  0  0  0  0  0  0  0  0
   46.5680   30.3510   49.1350 N   0  0  0  0  0  0  0  0  0  0  0  0
   46.9940   31.2180   46.9760 N   0  0  0  0  0  0  0  0  0  0  0  0
   46.8060   32.1250   45.9780 C   0  0  0  0  0  0  0  0  0  0  0  0
   47.4010   32.0640   44.8810 O   0  0  0  0  0  0  0  0  0  0  0  0
   47.2350   34.9190   41.9260 C   0  0  0  0  0  0  0  0  0  0  0  0
   48.4790   35.5230   41.8010 C   0  0  0  0  0  0  0  0  0  0  0  0
   48.9610   35.2930   40.5680 N   0  0  0  0  0  0  0  0  0  0  0  0
   48.0490   34.5550   39.9080 C   0  0  0  0  0  0  0  0  0  0  0  0
   48.0840   34.0680   38.6190 C   0  0  0  0  0  0  0  0  0  0  0  0
   47.0080   33.3320   38.1860 C   0  0  0  0  0  0  0  0  0  0  0  0
   45.8790   33.0360   38.9450 C   0  0  0  0  0  0  0  0  0  0  0  0
   45.9170   33.5590   40.2300 C   0  0  0  0  0  0  0  0  0  0  0  0
   46.9550   34.3010   40.7280 C   0  0  0  0  0  0  0  0  0  0  0  0
   43.7391   36.6079   44.4231 H   0  0  0  0  0  0  0  0  0  0  0  0
   45.2112   36.6140   42.3784 H   0  0  0  0  0  0  0  0  0  0  0  0
   44.5201   34.1204   47.5094 H   0  0  0  0  0  0  0  0  0  0  0  0
   44.8938   32.4164   49.3392 H   0  0  0  0  0  0  0  0  0  0  0  0
   47.2372   29.5883   48.9581 H   0  0  0  0  0  0  0  0  0  0  0  0
   46.0739   30.4037   50.0372 H   0  0  0  0  0  0  0  0  0  0  0  0
   48.9893   36.0988   42.5872 H   0  0  0  0  0  0  0  0  0  0  0  0
   49.8635   35.6214   40.1958 H   0  0  0  0  0  0  0  0  0  0  0  0
   48.9433   34.2619   37.9602 H   0  0  0  0  0  0  0  0  0  0  0  0
   47.0410   32.9454   37.1567 H   0  0  0  0  0  0  0  0  0  0  0  0
   45.0355   32.4429   38.5619 H   0  0  0  0  0  0  0  0  0  0  0  0
   45.0590   33.3653   40.8905 H   0  0  0  0  0  0  0  0  0  0  0  0
  1  6  2  0
  2  1  1  0
  3  2  2  0
  3  4  1  0
  4  5  2  0
  5  6  1  0
  5  7  1  0
  7  8  1  0
  8  9  2  0
 10  9  1  0
 10 11  1  0
 12 10  2  0
 13  7  1  0
 13 12  1  0
 14 13  2  0
 15  3  1  0
 16 15  2  0
 17 16  1  0
 18 17  1  0
 18 23  2  0
 19 18  1  0
 20 19  2  0
 20 21  1  0
 21 22  2  0
 22 23  1  0
 23 15  1  0
  1 24  1  0
  2 25  1  0
  8 26  1  0
  9 27  1  0
 11 28  1  0
 11 29  1  0
 16 30  1  0
 17 31  1  0
 19 32  1  0
 20 33  1  0
 21 34  1  0
 22 35  1  0
M  ISO  8  24  14  25  14  26  14  27  14  30  14  31   9  32  14  33  14
M  ISO  2  34  14  35  14
M  END
>  <minimizedAffinity>  (1) 
-7.97078323

>  <minimizedRMSD>  (1) 
0.0980437919

$$$$
