
     RDKit          3D

 37 39  0  0  1  0  0  0  0  0999 V2000
   46.6470   34.7850   42.0650 C   0  0  0  0  0  0  0  0  0  0  0  0
   47.9460   35.2600   42.0010 C   0  0  0  0  0  0  0  0  0  0  0  0
   48.7240   35.1370   40.8490 C   0  0  0  0  0  0  0  0  0  0  0  0
   48.1750   34.5120   39.7190 C   0  0  0  0  0  0  0  0  0  0  0  0
   46.8960   34.0520   39.8020 C   0  0  0  0  0  0  0  0  0  0  0  0
   46.1480   34.1810   40.9370 C   0  0  0  0  0  0  0  0  0  0  0  0
   44.8060   33.6770   40.9870 N   0  0  0  0  0  0  0  0  0  0  0  0
   43.5870   34.4020   40.5750 C   0  0  0  0  0  0  0  0  0  0  0  0
   42.4290   34.0960   41.4830 C   0  0  0  0  0  0  0  0  0  0  0  0
   42.2310   32.6640   41.4830 N   0  0  0  0  0  0  0  0  0  0  0  0
   43.3730   32.1120   42.2050 C   0  0  0  0  0  0  0  0  0  0  0  0
   44.6910   32.3410   41.4950 C   0  0  1  0  0  0  0  0  0  0  0  0
   44.8760   31.2770   40.4780 C   0  0  0  0  0  0  0  0  0  0  0  0
   44.6490   31.2070   39.2460 O   0  0  0  0  0  0  0  0  0  0  0  0
   45.4170   30.1140   41.0230 O   0  0  0  0  0  0  0  0  0  0  0  0
   44.4470   36.1220   44.8150 C   0  0  0  0  0  0  0  0  0  0  0  0
   45.0880   36.0540   43.5670 C   0  0  0  0  0  0  0  0  0  0  0  0
   45.9310   34.9690   43.3080 C   0  0  0  0  0  0  0  0  0  0  0  0
   46.1020   34.0230   44.2640 N   0  0  0  0  0  0  0  0  0  0  0  0
   45.4570   34.1320   45.4600 C   0  0  0  0  0  0  0  0  0  0  0  0
   44.6470   35.1610   45.7280 N   0  0  0  0  0  0  0  0  0  0  0  0
   48.3783   35.7497   42.8860 H   0  0  0  0  0  0  0  0  0  0  0  0
   49.7532   35.5246   40.8271 H   0  0  0  0  0  0  0  0  0  0  0  0
   48.7598   34.3971   38.7945 H   0  0  0  0  0  0  0  0  0  0  0  0
   46.4503   33.5598   38.9250 H   0  0  0  0  0  0  0  0  0  0  0  0
   43.7875   35.4832   40.6039 H   0  0  0  0  0  0  0  0  0  0  0  0
   43.3216   34.0793   39.5575 H   0  0  0  0  0  0  0  0  0  0  0  0
   42.6520   34.4425   42.5029 H   0  0  0  0  0  0  0  0  0  0  0  0
   41.5211   34.6085   41.1322 H   0  0  0  0  0  0  0  0  0  0  0  0
   41.3516   32.4223   41.9617 H   0  0  0  0  0  0  0  0  0  0  0  0
   43.4225   32.5855   43.1966 H   0  0  0  0  0  0  0  0  0  0  0  0
   43.2225   31.0246   42.2752 H   0  0  0  0  0  0  0  0  0  0  0  0
   45.5236   32.2619   42.2095 H   0  0  0  0  0  0  0  0  0  0  0  0
   45.5884   29.3293   40.4442 H   0  0  0  0  0  0  0  0  0  0  0  0
   43.7794   36.9658   45.0437 H   0  0  0  0  0  0  0  0  0  0  0  0
   44.9303   36.8368   42.8104 H   0  0  0  0  0  0  0  0  0  0  0  0
   45.6068   33.3541   46.2232 H   0  0  0  0  0  0  0  0  0  0  0  0
  1 18  1  0
  2  1  2  0
  3  2  1  0
  4  5  1  0
  4  3  2  0
  5  6  2  0
  6  7  1  0
  6  1  1  0
  7 12  1  0
  8  7  1  0
  8  9  1  0
 10  9  1  0
 10 11  1  0
 12 11  1  0
 13 15  1  0
 13 12  1  0
 14 13  2  0
 16 21  2  0
 17 16  1  0
 18 17  2  0
 18 19  1  0
 19 20  2  0
 20 21  1  0
  2 22  1  0
  3 23  1  0
  4 24  1  0
  5 25  1  0
  8 26  1  0
  8 27  1  0
  9 28  1  0
  9 29  1  0
 10 30  1  0
 11 31  1  0
 11 32  1  0
 12 33  1  1
 15 34  1  0
 16 35  1  0
 17 36  1  0
 20 37  1  0
M  ISO  8  22  14  23  14  24  14  25  14  26  13  27  13  28  13  29  13
M  ISO  8  30   5  31  13  32  13  33  13  34   3  35  14  36  14  37  14
M  END
>  <minimizedAffinity>  (1) 
-5.53453445

>  <minimizedRMSD>  (1) 
0.174560025

$$$$
