
     RDKit          3D

 31 33  0  0  0  0  0  0  0  0999 V2000
   44.6240   35.8230   44.3400 C   0  0  0  0  0  0  0  0  0  0  0  0
   45.4330   35.8330   43.1960 C   0  0  0  0  0  0  0  0  0  0  0  0
   46.4510   34.8900   43.0690 C   0  0  0  0  0  0  0  0  0  0  0  0
   46.6080   33.9920   44.0800 N   0  0  0  0  0  0  0  0  0  0  0  0
   45.8150   33.9970   45.1830 C   0  0  0  0  0  0  0  0  0  0  0  0
   44.8280   34.9130   45.3040 N   0  0  0  0  0  0  0  0  0  0  0  0
   46.0150   33.0390   46.2160 N   0  0  0  0  0  0  0  0  0  0  0  0
   45.4170   33.2280   47.4930 C   0  0  0  0  0  0  0  0  0  0  0  0
   44.3780   33.9760   47.6260 N   0  0  0  0  0  0  0  0  0  0  0  0
   45.9910   32.5720   48.6170 N   0  0  0  0  0  0  0  0  0  0  0  0
   43.9580   34.1010   48.5630 H   0  0  0  0  0  0  0  0  0  0  0  0
   47.2840   34.9050   41.8840 C   0  0  0  0  0  0  0  0  0  0  0  0
   48.5140   35.5250   41.7320 C   0  0  0  0  0  0  0  0  0  0  0  0
   48.9750   35.3180   40.4960 N   0  0  0  0  0  0  0  0  0  0  0  0
   48.0680   34.5760   39.8450 C   0  0  0  0  0  0  0  0  0  0  0  0
   48.0630   34.0860   38.5400 C   0  0  0  0  0  0  0  0  0  0  0  0
   46.9910   33.3410   38.1240 C   0  0  0  0  0  0  0  0  0  0  0  0
   45.8880   33.0270   38.9100 C   0  0  0  0  0  0  0  0  0  0  0  0
   45.9460   33.5370   40.1890 C   0  0  0  0  0  0  0  0  0  0  0  0
   46.9780   34.2880   40.6810 C   0  0  0  0  0  0  0  0  0  0  0  0
   43.8185   36.5643   44.4479 H   0  0  0  0  0  0  0  0  0  0  0  0
   45.2659   36.5789   42.4049 H   0  0  0  0  0  0  0  0  0  0  0  0
   46.5945   32.2062   46.0387 H   0  0  0  0  0  0  0  0  0  0  0  0
   45.5758   32.6936   49.5517 H   0  0  0  0  0  0  0  0  0  0  0  0
   46.8219   31.9754   48.4962 H   0  0  0  0  0  0  0  0  0  0  0  0
   49.0327   36.1012   42.5124 H   0  0  0  0  0  0  0  0  0  0  0  0
   49.8656   35.6653   40.1125 H   0  0  0  0  0  0  0  0  0  0  0  0
   48.9016   34.2930   37.8589 H   0  0  0  0  0  0  0  0  0  0  0  0
   47.0040   32.9631   37.0910 H   0  0  0  0  0  0  0  0  0  0  0  0
   45.0437   32.4247   38.5434 H   0  0  0  0  0  0  0  0  0  0  0  0
   45.1023   33.3250   40.8622 H   0  0  0  0  0  0  0  0  0  0  0  0
  1  6  2  0
  2  1  1  0
  3  2  2  0
  3  4  1  0
  4  5  2  0
  5  6  1  0
  5  7  1  0
  7  8  1  0
  8  9  2  0
  8 10  1  0
  9 11  1  0
 12  3  1  0
 13 12  2  0
 14 13  1  0
 15 14  1  0
 15 20  2  0
 16 15  1  0
 17 16  2  0
 17 18  1  0
 18 19  2  0
 19 20  1  0
 20 12  1  0
  1 21  1  0
  2 22  1  0
  7 23  1  0
 10 24  1  0
 10 25  1  0
 13 26  1  0
 14 27  1  0
 16 28  1  0
 17 29  1  0
 18 30  1  0
 19 31  1  0
M  ISO  8  21  14  22  14  26  14  27   9  28  14  29  14  30  14  31  14
M  END
>  <minimizedAffinity>  (1) 
-7.54490423

>  <minimizedRMSD>  (1) 
0.0932634771

$$$$
