
     RDKit          3D

 33 36  0  0  0  0  0  0  0  0999 V2000
   47.2670   34.9020   41.9380 C   0  0  0  0  0  0  0  0  0  0  0  0
   48.5000   35.5280   41.8000 C   0  0  0  0  0  0  0  0  0  0  0  0
   48.9630   35.3150   40.5550 N   0  0  0  0  0  0  0  0  0  0  0  0
   48.0450   34.5630   39.8980 C   0  0  0  0  0  0  0  0  0  0  0  0
   48.0790   34.0940   38.6060 C   0  0  0  0  0  0  0  0  0  0  0  0
   47.0120   33.3470   38.1840 C   0  0  0  0  0  0  0  0  0  0  0  0
   45.8980   33.0240   38.9570 C   0  0  0  0  0  0  0  0  0  0  0  0
   45.9390   33.5320   40.2440 C   0  0  0  0  0  0  0  0  0  0  0  0
   46.9680   34.2840   40.7360 C   0  0  0  0  0  0  0  0  0  0  0  0
   44.5770   35.7730   44.3730 C   0  0  0  0  0  0  0  0  0  0  0  0
   45.3860   35.7970   43.2230 C   0  0  0  0  0  0  0  0  0  0  0  0
   46.4270   34.8840   43.1220 C   0  0  0  0  0  0  0  0  0  0  0  0
   46.6200   33.9960   44.1550 N   0  0  0  0  0  0  0  0  0  0  0  0
   45.8230   33.9990   45.2480 C   0  0  0  0  0  0  0  0  0  0  0  0
   44.8110   34.8740   45.3660 N   0  0  0  0  0  0  0  0  0  0  0  0
   46.0670   33.0350   46.3200 C   0  0  0  0  0  0  0  0  0  0  0  0
   45.2530   33.0190   47.4340 C   0  0  0  0  0  0  0  0  0  0  0  0
   45.4230   32.1380   48.4870 C   0  0  0  0  0  0  0  0  0  0  0  0
   46.4880   31.2750   48.3120 C   0  0  0  0  0  0  0  0  0  0  0  0
   47.3290   31.2530   47.2180 C   0  0  0  0  0  0  0  0  0  0  0  0
   47.0910   32.1540   46.2280 N   0  0  0  0  0  0  0  0  0  0  0  0
   49.0145   36.1048   42.5827 H   0  0  0  0  0  0  0  0  0  0  0  0
   49.8537   35.6606   40.1702 H   0  0  0  0  0  0  0  0  0  0  0  0
   48.9273   34.3097   37.9398 H   0  0  0  0  0  0  0  0  0  0  0  0
   47.0358   32.9710   37.1505 H   0  0  0  0  0  0  0  0  0  0  0  0
   45.0609   32.4193   38.5781 H   0  0  0  0  0  0  0  0  0  0  0  0
   45.0913   33.3171   40.9113 H   0  0  0  0  0  0  0  0  0  0  0  0
   43.7470   36.4883   44.4702 H   0  0  0  0  0  0  0  0  0  0  0  0
   45.1978   36.5245   42.4197 H   0  0  0  0  0  0  0  0  0  0  0  0
   44.4270   33.7435   47.4875 H   0  0  0  0  0  0  0  0  0  0  0  0
   44.7747   32.1257   49.3755 H   0  0  0  0  0  0  0  0  0  0  0  0
   46.6816   30.5446   49.1114 H   0  0  0  0  0  0  0  0  0  0  0  0
   48.1593   30.5347   47.1497 H   0  0  0  0  0  0  0  0  0  0  0  0
  1 12  1  0
  2  1  2  0
  3  2  1  0
  4  3  1  0
  4  9  2  0
  5  4  1  0
  6  5  2  0
  6  7  1  0
  7  8  2  0
  8  9  1  0
  9  1  1  0
 10 15  2  0
 11 10  1  0
 12 11  2  0
 12 13  1  0
 13 14  2  0
 14 15  1  0
 14 16  1  0
 16 17  2  0
 17 18  1  0
 19 18  2  0
 20 19  1  0
 21 16  1  0
 21 20  2  0
  2 22  1  0
  3 23  1  0
  5 24  1  0
  6 25  1  0
  7 26  1  0
  8 27  1  0
 10 28  1  0
 11 29  1  0
 17 30  1  0
 18 31  1  0
 19 32  1  0
 20 33  1  0
M  ISO  8  22  14  23   9  24  14  25  14  26  14  27  14  28  14  29  14
M  ISO  4  30  14  31  14  32  14  33  14
M  END
>  <minimizedAffinity>  (1) 
-7.09846497

>  <minimizedRMSD>  (1) 
0.215900987

$$$$
