
     RDKit          3D

 34 37  0  0  0  0  0  0  0  0999 V2000
   47.2440   34.9160   41.9350 C   0  0  0  0  0  0  0  0  0  0  0  0
   48.4870   35.5100   41.8010 C   0  0  0  0  0  0  0  0  0  0  0  0
   48.9500   35.2680   40.5640 N   0  0  0  0  0  0  0  0  0  0  0  0
   48.0360   34.5400   39.9170 C   0  0  0  0  0  0  0  0  0  0  0  0
   48.0390   34.0360   38.6220 C   0  0  0  0  0  0  0  0  0  0  0  0
   46.9480   33.3050   38.2030 C   0  0  0  0  0  0  0  0  0  0  0  0
   45.8290   33.0260   38.9780 C   0  0  0  0  0  0  0  0  0  0  0  0
   45.8880   33.5550   40.2540 C   0  0  0  0  0  0  0  0  0  0  0  0
   46.9280   34.2860   40.7400 C   0  0  0  0  0  0  0  0  0  0  0  0
   44.5330   35.8770   44.3330 C   0  0  0  0  0  0  0  0  0  0  0  0
   45.3570   35.8660   43.1930 C   0  0  0  0  0  0  0  0  0  0  0  0
   46.3880   34.9320   43.1160 C   0  0  0  0  0  0  0  0  0  0  0  0
   46.5500   34.0560   44.1680 N   0  0  0  0  0  0  0  0  0  0  0  0
   45.7450   34.0920   45.2450 C   0  0  0  0  0  0  0  0  0  0  0  0
   44.7370   34.9940   45.3390 N   0  0  0  0  0  0  0  0  0  0  0  0
   45.9780   33.1510   46.2950 N   0  0  0  0  0  0  0  0  0  0  0  0
   45.1620   33.1160   47.4920 C   0  0  0  0  0  0  0  0  0  0  0  0
   45.6980   32.0200   48.3420 C   0  0  0  0  0  0  0  0  0  0  0  0
   46.8140   31.3840   47.5740 C   0  0  0  0  0  0  0  0  0  0  0  0
   47.0070   32.1580   46.3050 C   0  0  0  0  0  0  0  0  0  0  0  0
   49.0094   36.0854   42.5795 H   0  0  0  0  0  0  0  0  0  0  0  0
   49.8513   35.5875   40.1814 H   0  0  0  0  0  0  0  0  0  0  0  0
   48.8900   34.2157   37.9486 H   0  0  0  0  0  0  0  0  0  0  0  0
   46.9646   32.9122   37.1757 H   0  0  0  0  0  0  0  0  0  0  0  0
   44.9749   32.4384   38.6102 H   0  0  0  0  0  0  0  0  0  0  0  0
   45.0345   33.3722   40.9234 H   0  0  0  0  0  0  0  0  0  0  0  0
   43.7157   36.6094   44.4079 H   0  0  0  0  0  0  0  0  0  0  0  0
   45.1901   36.5831   42.3757 H   0  0  0  0  0  0  0  0  0  0  0  0
   44.3112   33.7727   47.7263 H   0  0  0  0  0  0  0  0  0  0  0  0
   45.3427   31.7322   49.3425 H   0  0  0  0  0  0  0  0  0  0  0  0
   47.7382   31.4089   48.1700 H   0  0  0  0  0  0  0  0  0  0  0  0
   46.5711   30.3354   47.3473 H   0  0  0  0  0  0  0  0  0  0  0  0
   46.9081   31.4949   45.4329 H   0  0  0  0  0  0  0  0  0  0  0  0
   48.0080   32.6112   46.2550 H   0  0  0  0  0  0  0  0  0  0  0  0
  1 12  1  0
  2  1  2  0
  3  2  1  0
  4  3  1  0
  4  9  2  0
  5  4  1  0
  6  5  2  0
  6  7  1  0
  7  8  2  0
  8  9  1  0
  9  1  1  0
 10 15  2  0
 11 10  1  0
 12 11  2  0
 12 13  1  0
 13 14  2  0
 14 15  1  0
 14 16  1  0
 16 20  1  0
 16 17  1  0
 17 18  2  0
 19 18  1  0
 20 19  1  0
  2 21  1  0
  3 22  1  0
  5 23  1  0
  6 24  1  0
  7 25  1  0
  8 26  1  0
 10 27  1  0
 11 28  1  0
 17 29  1  0
 18 30  1  0
 19 31  1  0
 19 32  1  0
 20 33  1  0
 20 34  1  0
M  ISO  8  21  14  22   9  23  14  24  14  25  14  26  14  27  14  28  14
M  ISO  6  29  13  30  13  31  13  32  13  33  13  34  13
M  END
>  <minimizedAffinity>  (1) 
-7.06770039

>  <minimizedRMSD>  (1) 
0.149886712

$$$$
