
     RDKit          3D

 31 34  0  0  0  0  0  0  0  0999 V2000
   47.2150   34.9420   41.9210 C   0  0  0  0  0  0  0  0  0  0  0  0
   48.4830   35.4760   41.8020 C   0  0  0  0  0  0  0  0  0  0  0  0
   48.9770   35.1870   40.5820 N   0  0  0  0  0  0  0  0  0  0  0  0
   48.0340   34.4760   39.9260 C   0  0  0  0  0  0  0  0  0  0  0  0
   48.0560   33.9440   38.6440 C   0  0  0  0  0  0  0  0  0  0  0  0
   46.9520   33.2540   38.2170 C   0  0  0  0  0  0  0  0  0  0  0  0
   45.8050   33.0460   38.9730 C   0  0  0  0  0  0  0  0  0  0  0  0
   45.8470   33.5980   40.2320 C   0  0  0  0  0  0  0  0  0  0  0  0
   46.9050   34.2970   40.7340 C   0  0  0  0  0  0  0  0  0  0  0  0
   44.5110   36.0690   44.2350 C   0  0  0  0  0  0  0  0  0  0  0  0
   45.3530   36.0150   43.1000 C   0  0  0  0  0  0  0  0  0  0  0  0
   46.3270   35.0240   43.0830 C   0  0  0  0  0  0  0  0  0  0  0  0
   46.4290   34.1560   44.1470 N   0  0  0  0  0  0  0  0  0  0  0  0
   45.5990   34.2570   45.2000 C   0  0  0  0  0  0  0  0  0  0  0  0
   44.6430   35.1940   45.2660 N   0  0  0  0  0  0  0  0  0  0  0  0
   45.9180   33.2240   46.1850 C   0  0  0  0  0  0  0  0  0  0  0  0
   46.9260   32.2890   46.1430 C   0  0  0  0  0  0  0  0  0  0  0  0
   46.8710   31.5020   47.2790 C   0  0  0  0  0  0  0  0  0  0  0  0
   45.7980   32.0110   47.9810 C   0  0  0  0  0  0  0  0  0  0  0  0
   45.2570   33.0240   47.3120 O   0  0  0  0  0  0  0  0  0  0  0  0
   49.0078   36.0480   42.5814 H   0  0  0  0  0  0  0  0  0  0  0  0
   49.9015   35.4578   40.2175 H   0  0  0  0  0  0  0  0  0  0  0  0
   48.9322   34.0724   37.9915 H   0  0  0  0  0  0  0  0  0  0  0  0
   46.9755   32.8337   37.2007 H   0  0  0  0  0  0  0  0  0  0  0  0
   44.9360   32.4866   38.5961 H   0  0  0  0  0  0  0  0  0  0  0  0
   44.9668   33.4667   40.8785 H   0  0  0  0  0  0  0  0  0  0  0  0
   43.7282   36.8402   44.2844 H   0  0  0  0  0  0  0  0  0  0  0  0
   45.2419   36.7257   42.2678 H   0  0  0  0  0  0  0  0  0  0  0  0
   47.6616   32.1836   45.3319 H   0  0  0  0  0  0  0  0  0  0  0  0
   47.5290   30.6657   47.5576 H   0  0  0  0  0  0  0  0  0  0  0  0
   45.4426   31.6340   48.9514 H   0  0  0  0  0  0  0  0  0  0  0  0
  1 12  1  0
  2  1  2  0
  3  2  1  0
  4  3  1  0
  4  9  2  0
  5  4  1  0
  6  5  2  0
  6  7  1  0
  7  8  2  0
  8  9  1  0
  9  1  1  0
 10 15  2  0
 11 10  1  0
 12 11  2  0
 12 13  1  0
 13 14  2  0
 14 15  1  0
 14 16  1  0
 16 20  1  0
 17 16  2  0
 17 18  1  0
 18 19  2  0
 20 19  1  0
  2 21  1  0
  3 22  1  0
  5 23  1  0
  6 24  1  0
  7 25  1  0
  8 26  1  0
 10 27  1  0
 11 28  1  0
 17 29  1  0
 18 30  1  0
 19 31  1  0
M  ISO  8  21  14  22   9  23  14  24  14  25  14  26  14  27  14  28  14
M  ISO  3  29  14  30  14  31  14
M  END
>  <minimizedAffinity>  (1) 
-6.7192111

>  <minimizedRMSD>  (1) 
0.403569043

$$$$
