
     RDKit          3D

 31 34  0  0  0  0  0  0  0  0999 V2000
   47.2300   34.9150   41.9560 C   0  0  0  0  0  0  0  0  0  0  0  0
   48.4750   35.5000   41.8150 C   0  0  0  0  0  0  0  0  0  0  0  0
   48.9530   35.2640   40.5920 N   0  0  0  0  0  0  0  0  0  0  0  0
   48.0250   34.5280   39.9350 C   0  0  0  0  0  0  0  0  0  0  0  0
   48.0390   34.0240   38.6410 C   0  0  0  0  0  0  0  0  0  0  0  0
   46.9530   33.3030   38.2260 C   0  0  0  0  0  0  0  0  0  0  0  0
   45.8290   33.0280   38.9970 C   0  0  0  0  0  0  0  0  0  0  0  0
   45.8850   33.5590   40.2700 C   0  0  0  0  0  0  0  0  0  0  0  0
   46.9280   34.2910   40.7680 C   0  0  0  0  0  0  0  0  0  0  0  0
   44.5810   35.9770   44.3780 C   0  0  0  0  0  0  0  0  0  0  0  0
   45.4100   35.9630   43.2290 C   0  0  0  0  0  0  0  0  0  0  0  0
   46.3730   34.9400   43.1310 C   0  0  0  0  0  0  0  0  0  0  0  0
   46.4560   34.0240   44.1430 N   0  0  0  0  0  0  0  0  0  0  0  0
   45.6420   34.0860   45.2100 C   0  0  0  0  0  0  0  0  0  0  0  0
   44.7070   35.0470   45.3420 N   0  0  0  0  0  0  0  0  0  0  0  0
   45.8810   33.0020   46.2060 C   0  0  0  0  0  0  0  0  0  0  0  0
   45.3040   32.9190   47.4900 C   0  0  0  0  0  0  0  0  0  0  0  0
   45.6700   31.8290   48.2320 C   0  0  0  0  0  0  0  0  0  0  0  0
   46.5180   30.9310   47.7380 C   0  0  0  0  0  0  0  0  0  0  0  0
   46.9500   31.4840   46.1050 S   0  0  0  0  0  0  0  0  0  0  0  0
   48.9945   36.0749   42.5958 H   0  0  0  0  0  0  0  0  0  0  0  0
   49.8583   35.5820   40.2175 H   0  0  0  0  0  0  0  0  0  0  0  0
   48.8947   34.1987   37.9722 H   0  0  0  0  0  0  0  0  0  0  0  0
   46.9704   32.9089   37.1992 H   0  0  0  0  0  0  0  0  0  0  0  0
   44.9748   32.4419   38.6270 H   0  0  0  0  0  0  0  0  0  0  0  0
   45.0264   33.3801   40.9339 H   0  0  0  0  0  0  0  0  0  0  0  0
   43.8195   36.7637   44.4839 H   0  0  0  0  0  0  0  0  0  0  0  0
   45.3052   36.7240   42.4416 H   0  0  0  0  0  0  0  0  0  0  0  0
   44.6062   33.6798   47.8699 H   0  0  0  0  0  0  0  0  0  0  0  0
   45.2602   31.6945   49.2439 H   0  0  0  0  0  0  0  0  0  0  0  0
   46.8811   30.0231   48.2419 H   0  0  0  0  0  0  0  0  0  0  0  0
  1 12  1  0
  2  1  2  0
  3  2  1  0
  4  3  1  0
  4  9  2  0
  5  4  1  0
  6  5  2  0
  6  7  1  0
  7  8  2  0
  8  9  1  0
  9  1  1  0
 10 15  2  0
 11 10  1  0
 12 11  2  0
 12 13  1  0
 13 14  2  0
 14 15  1  0
 14 16  1  0
 16 17  2  0
 17 18  1  0
 19 18  2  0
 20 16  1  0
 20 19  1  0
  2 21  1  0
  3 22  1  0
  5 23  1  0
  6 24  1  0
  7 25  1  0
  8 26  1  0
 10 27  1  0
 11 28  1  0
 17 29  1  0
 18 30  1  0
 19 31  1  0
M  ISO  8  21  14  22   9  23  14  24  14  25  14  26  14  27  14  28  14
M  ISO  3  29  14  30  14  31  14
M  END
>  <minimizedAffinity>  (1) 
-6.70835733

>  <minimizedRMSD>  (1) 
0.361965835

$$$$
