
     RDKit          3D

 41 44  0  0  1  0  0  0  0  0999 V2000
   46.6500   34.7880   42.0770 C   0  0  0  0  0  0  0  0  0  0  0  0
   47.9420   35.2540   41.9980 C   0  0  0  0  0  0  0  0  0  0  0  0
   48.7240   35.1380   40.8560 C   0  0  0  0  0  0  0  0  0  0  0  0
   48.1750   34.5140   39.7210 C   0  0  0  0  0  0  0  0  0  0  0  0
   46.8800   34.0430   39.7910 C   0  0  0  0  0  0  0  0  0  0  0  0
   46.1600   34.1900   40.9510 C   0  0  0  0  0  0  0  0  0  0  0  0
   44.8060   33.6850   40.9970 N   0  0  0  0  0  0  0  0  0  0  0  0
   43.5900   34.3990   40.5610 C   0  0  0  0  0  0  0  0  0  0  0  0
   42.4250   34.1050   41.4510 C   0  0  0  0  0  0  0  0  0  0  0  0
   42.2290   32.6720   41.4810 N   0  0  0  0  0  0  0  0  0  0  0  0
   43.3670   32.1450   42.2270 C   0  0  0  0  0  0  0  0  0  0  0  0
   44.6890   32.3530   41.5270 C   0  0  1  0  0  0  0  0  0  0  0  0
   44.9720   31.3360   40.4720 C   0  0  0  0  0  0  0  0  0  0  0  0
   44.8310   29.8880   40.6260 C   0  0  0  0  0  0  0  0  0  0  0  0
   46.2030   30.4230   40.6780 C   0  0  0  0  0  0  0  0  0  0  0  0
   44.4460   36.1020   44.8220 C   0  0  0  0  0  0  0  0  0  0  0  0
   45.0860   36.0410   43.5770 C   0  0  0  0  0  0  0  0  0  0  0  0
   45.9390   34.9650   43.3100 C   0  0  0  0  0  0  0  0  0  0  0  0
   46.1130   34.0210   44.2720 N   0  0  0  0  0  0  0  0  0  0  0  0
   45.4640   34.1320   45.4670 C   0  0  0  0  0  0  0  0  0  0  0  0
   44.6410   35.1600   45.7390 N   0  0  0  0  0  0  0  0  0  0  0  0
   48.3770   35.7423   42.8825 H   0  0  0  0  0  0  0  0  0  0  0  0
   49.7529   35.5266   40.8394 H   0  0  0  0  0  0  0  0  0  0  0  0
   48.7646   34.4041   38.7989 H   0  0  0  0  0  0  0  0  0  0  0  0
   46.4251   33.5505   38.9189 H   0  0  0  0  0  0  0  0  0  0  0  0
   43.7870   35.4811   40.5779 H   0  0  0  0  0  0  0  0  0  0  0  0
   43.3391   34.0590   39.5454 H   0  0  0  0  0  0  0  0  0  0  0  0
   42.6300   34.4741   42.4668 H   0  0  0  0  0  0  0  0  0  0  0  0
   41.5213   34.6041   41.0711 H   0  0  0  0  0  0  0  0  0  0  0  0
   41.3459   32.4382   41.9568 H   0  0  0  0  0  0  0  0  0  0  0  0
   43.4067   32.6480   43.2045 H   0  0  0  0  0  0  0  0  0  0  0  0
   43.2177   31.0596   42.3248 H   0  0  0  0  0  0  0  0  0  0  0  0
   45.4561   32.2173   42.3036 H   0  0  0  0  0  0  0  0  0  0  0  0
   44.5714   32.0419   39.7295 H   0  0  0  0  0  0  0  0  0  0  0  0
   44.3738   29.4844   41.5415 H   0  0  0  0  0  0  0  0  0  0  0  0
   44.3462   29.1068   40.0220 H   0  0  0  0  0  0  0  0  0  0  0  0
   46.9031   30.2388   39.8498 H   0  0  0  0  0  0  0  0  0  0  0  0
   47.0425   30.3769   41.3873 H   0  0  0  0  0  0  0  0  0  0  0  0
   43.7718   36.9424   45.0438 H   0  0  0  0  0  0  0  0  0  0  0  0
   44.9207   36.8250   42.8233 H   0  0  0  0  0  0  0  0  0  0  0  0
   45.6188   33.3565   46.2316 H   0  0  0  0  0  0  0  0  0  0  0  0
  1 18  1  0
  2  1  2  0
  3  2  1  0
  4  5  1  0
  4  3  2  0
  5  6  2  0
  6  7  1  0
  6  1  1  0
  7 12  1  0
  8  7  1  0
  8  9  1  0
  9 10  1  0
 10 11  1  0
 12 11  1  0
 13 14  1  0
 13 15  1  0
 13 12  1  0
 14 15  1  0
 16 21  2  0
 17 16  1  0
 18 17  2  0
 18 19  1  0
 19 20  2  0
 20 21  1  0
  2 22  1  0
  3 23  1  0
  4 24  1  0
  5 25  1  0
  8 26  1  0
  8 27  1  0
  9 28  1  0
  9 29  1  0
 10 30  1  0
 11 31  1  0
 11 32  1  0
 12 33  1  1
 13 34  1  0
 14 35  1  0
 14 36  1  0
 15 37  1  0
 15 38  1  0
 16 39  1  0
 17 40  1  0
 20 41  1  0
M  ISO  8  22  14  23  14  24  14  25  14  26  13  27  13  28  13  29  13
M  ISO  8  30   5  31  13  32  13  33  13  34  13  35  13  36  13  37  13
M  ISO  4  38  13  39  14  40  14  41  14
M  END
>  <minimizedAffinity>  (1) 
-5.51142168

>  <minimizedRMSD>  (1) 
0.0735005662

$$$$
