
     RDKit          3D

 33 35  0  0  1  0  0  0  0  0999 V2000
   44.7410   35.1280   45.4980 C   0  0  0  0  0  0  0  0  0  0  0  0
   44.5050   36.0840   44.5120 C   0  0  0  0  0  0  0  0  0  0  0  0
   45.1630   35.9470   43.2830 C   0  0  0  0  0  0  0  0  0  0  0  0
   45.9940   34.8900   43.1230 N   0  0  0  0  0  0  0  0  0  0  0  0
   46.2120   33.9670   44.0930 C   0  0  0  0  0  0  0  0  0  0  0  0
   45.5830   34.1030   45.2600 N   0  0  0  0  0  0  0  0  0  0  0  0
   47.0820   32.8610   43.9370 N   0  0  0  0  0  0  0  0  0  0  0  0
   47.9810   32.9680   42.9150 C   0  0  0  0  0  0  0  0  0  0  0  0
   48.7200   31.7860   42.9610 C   0  0  0  0  0  0  0  0  0  0  0  0
   48.2640   31.0130   43.9820 N   0  0  0  0  0  0  0  0  0  0  0  0
   47.2640   31.6840   44.5670 C   0  0  0  0  0  0  0  0  0  0  0  0
   46.4640   31.2400   45.6980 C   0  0  2  0  0  0  0  0  0  0  0  0
   47.2320   31.6380   46.9730 C   0  0  0  0  0  0  0  0  0  0  0  0
   46.3730   29.7370   45.7330 C   0  0  0  0  0  0  0  0  0  0  0  0
   45.0500   29.3000   45.3570 C   0  0  0  0  0  0  0  0  0  0  0  0
   44.0390   28.6950   46.0950 C   0  0  0  0  0  0  0  0  0  0  0  0
   42.8770   28.3970   45.4390 C   0  0  0  0  0  0  0  0  0  0  0  0
   42.7500   28.6980   44.1010 C   0  0  0  0  0  0  0  0  0  0  0  0
   44.3390   29.4510   43.6880 S   0  0  0  0  0  0  0  0  0  0  0  0
   44.2387   35.2102   46.4732 H   0  0  0  0  0  0  0  0  0  0  0  0
   43.8195   36.9248   44.6941 H   0  0  0  0  0  0  0  0  0  0  0  0
   45.0094   36.6754   42.4731 H   0  0  0  0  0  0  0  0  0  0  0  0
   48.0971   33.8039   42.2094 H   0  0  0  0  0  0  0  0  0  0  0  0
   49.5416   31.5213   42.2792 H   0  0  0  0  0  0  0  0  0  0  0  0
   45.4593   31.6817   45.6234 H   0  0  0  0  0  0  0  0  0  0  0  0
   46.6528   31.3378   47.8587 H   0  0  0  0  0  0  0  0  0  0  0  0
   48.2090   31.1327   46.9853 H   0  0  0  0  0  0  0  0  0  0  0  0
   47.3825   32.7276   46.9853 H   0  0  0  0  0  0  0  0  0  0  0  0
   47.1067   29.3138   45.0312 H   0  0  0  0  0  0  0  0  0  0  0  0
   46.5831   29.3924   46.7563 H   0  0  0  0  0  0  0  0  0  0  0  0
   44.1686   28.4655   47.1629 H   0  0  0  0  0  0  0  0  0  0  0  0
   42.0462   27.9184   45.9781 H   0  0  0  0  0  0  0  0  0  0  0  0
   41.8873   28.5219   43.4417 H   0  0  0  0  0  0  0  0  0  0  0  0
  2  1  2  0
  3  2  1  0
  4  3  2  0
  4  5  1  0
  5  6  2  0
  6  1  1  0
  7  5  1  0
  7 11  1  0
  8  9  2  0
  8  7  1  0
  9 10  1  0
 10 11  2  0
 11 12  1  0
 12 14  1  0
 12 13  1  0
 15 14  1  0
 15 16  2  0
 17 16  1  0
 18 17  2  0
 19 18  1  0
 19 15  1  0
  1 20  1  0
  2 21  1  0
  3 22  1  0
  8 23  1  0
  9 24  1  0
 12 25  1  1
 13 26  1  0
 13 27  1  0
 13 28  1  0
 14 29  1  0
 14 30  1  0
 16 31  1  0
 17 32  1  0
 18 33  1  0
M  ISO  8  20  14  21  14  22  14  23  14  24  14  25   8  26   8  27   8
M  ISO  6  28   8  29   8  30   8  31  14  32  14  33  14
M  END
>  <minimizedAffinity>  (1) 
-4.3489399

>  <minimizedRMSD>  (1) 
1.7444458

$$$$
