
     RDKit          3D

 36 38  0  0  0  0  0  0  0  0999 V2000
   47.2120   34.8150   42.1690 C   0  0  0  0  0  0  0  0  0  0  0  0
   48.4440   35.4290   42.0330 C   0  0  0  0  0  0  0  0  0  0  0  0
   48.9050   35.2520   40.7910 N   0  0  0  0  0  0  0  0  0  0  0  0
   47.9880   34.5300   40.1240 C   0  0  0  0  0  0  0  0  0  0  0  0
   47.9750   34.0760   38.8110 C   0  0  0  0  0  0  0  0  0  0  0  0
   46.8930   33.3480   38.3840 C   0  0  0  0  0  0  0  0  0  0  0  0
   45.7900   33.0220   39.1640 C   0  0  0  0  0  0  0  0  0  0  0  0
   45.8650   33.5040   40.4560 C   0  0  0  0  0  0  0  0  0  0  0  0
   46.9000   34.2330   40.9630 C   0  0  0  0  0  0  0  0  0  0  0  0
   44.6000   35.7420   44.6840 C   0  0  0  0  0  0  0  0  0  0  0  0
   45.4080   35.7860   43.5210 C   0  0  0  0  0  0  0  0  0  0  0  0
   46.3780   34.7760   43.3590 C   0  0  0  0  0  0  0  0  0  0  0  0
   46.4910   33.8100   44.3250 N   0  0  0  0  0  0  0  0  0  0  0  0
   45.6930   33.8210   45.4080 C   0  0  0  0  0  0  0  0  0  0  0  0
   44.7570   34.7570   45.6090 N   0  0  0  0  0  0  0  0  0  0  0  0
   45.9420   32.6910   46.3730 C   0  0  0  0  0  0  0  0  0  0  0  0
   45.8170   31.3770   45.6730 C   0  0  0  0  0  0  0  0  0  0  0  0
   47.3750   32.7810   46.9090 C   0  0  0  0  0  0  0  0  0  0  0  0
   45.0010   32.8800   47.5280 C   0  0  0  0  0  0  0  0  0  0  0  0
   48.9664   35.9807   42.8284 H   0  0  0  0  0  0  0  0  0  0  0  0
   49.7971   35.6035   40.4148 H   0  0  0  0  0  0  0  0  0  0  0  0
   48.8112   34.2947   38.1307 H   0  0  0  0  0  0  0  0  0  0  0  0
   46.8992   32.9947   37.3423 H   0  0  0  0  0  0  0  0  0  0  0  0
   44.9384   32.4359   38.7881 H   0  0  0  0  0  0  0  0  0  0  0  0
   45.0237   33.2825   41.1291 H   0  0  0  0  0  0  0  0  0  0  0  0
   43.8343   36.5159   44.8413 H   0  0  0  0  0  0  0  0  0  0  0  0
   45.2828   36.5805   42.7707 H   0  0  0  0  0  0  0  0  0  0  0  0
   45.7403   30.5708   46.4174 H   0  0  0  0  0  0  0  0  0  0  0  0
   44.9152   31.3814   45.0431 H   0  0  0  0  0  0  0  0  0  0  0  0
   46.7034   31.2113   45.0431 H   0  0  0  0  0  0  0  0  0  0  0  0
   47.3558   32.7798   48.0088 H   0  0  0  0  0  0  0  0  0  0  0  0
   47.9551   31.9175   46.5514 H   0  0  0  0  0  0  0  0  0  0  0  0
   47.8425   33.7103   46.5514 H   0  0  0  0  0  0  0  0  0  0  0  0
   45.5533   32.7691   48.4728 H   0  0  0  0  0  0  0  0  0  0  0  0
   44.5571   33.8852   47.4786 H   0  0  0  0  0  0  0  0  0  0  0  0
   44.2034   32.1241   47.4786 H   0  0  0  0  0  0  0  0  0  0  0  0
  1 12  1  0
  2  1  2  0
  3  2  1  0
  4  3  1  0
  4  9  2  0
  5  4  1  0
  6  5  2  0
  6  7  1  0
  7  8  2  0
  8  9  1  0
  9  1  1  0
 10 15  2  0
 11 10  1  0
 12 11  2  0
 12 13  1  0
 13 14  2  0
 14 15  1  0
 14 16  1  0
 16 18  1  0
 16 19  1  0
 17 16  1  0
  2 20  1  0
  3 21  1  0
  5 22  1  0
  6 23  1  0
  7 24  1  0
  8 25  1  0
 10 26  1  0
 11 27  1  0
 17 28  1  0
 17 29  1  0
 17 30  1  0
 18 31  1  0
 18 32  1  0
 18 33  1  0
 19 34  1  0
 19 35  1  0
 19 36  1  0
M  ISO  8  20  14  21   9  22  14  23  14  24  14  25  14  26  14  27  14
M  ISO  8  28   8  29   8  30   8  31   8  32   8  33   8  34   8  35   8
M  ISO  1  36   8
M  END
>  <minimizedAffinity>  (1) 
-5.65572548

>  <minimizedRMSD>  (1) 
0.29319331

$$$$
