
     RDKit          3D

 30 32  0  0  0  0  0  0  0  0999 V2000
   47.2380   34.9250   41.9130 C   0  0  0  0  0  0  0  0  0  0  0  0
   48.4890   35.5330   41.7930 C   0  0  0  0  0  0  0  0  0  0  0  0
   48.9660   35.2940   40.5580 N   0  0  0  0  0  0  0  0  0  0  0  0
   48.0530   34.5560   39.9000 C   0  0  0  0  0  0  0  0  0  0  0  0
   48.0850   34.0610   38.6120 C   0  0  0  0  0  0  0  0  0  0  0  0
   47.0050   33.3270   38.1870 C   0  0  0  0  0  0  0  0  0  0  0  0
   45.8690   33.0360   38.9490 C   0  0  0  0  0  0  0  0  0  0  0  0
   45.9120   33.5640   40.2240 C   0  0  0  0  0  0  0  0  0  0  0  0
   46.9410   34.3000   40.7220 C   0  0  0  0  0  0  0  0  0  0  0  0
   44.5650   35.8980   44.3240 C   0  0  0  0  0  0  0  0  0  0  0  0
   45.3810   35.8980   43.1830 C   0  0  0  0  0  0  0  0  0  0  0  0
   46.3790   34.9380   43.0960 C   0  0  0  0  0  0  0  0  0  0  0  0
   46.5280   34.0310   44.1210 N   0  0  0  0  0  0  0  0  0  0  0  0
   45.7190   34.0620   45.2120 C   0  0  0  0  0  0  0  0  0  0  0  0
   44.7380   34.9890   45.3210 N   0  0  0  0  0  0  0  0  0  0  0  0
   45.8890   33.0800   46.3140 C   0  0  0  0  0  0  0  0  0  0  0  0
   46.9410   32.0640   45.9510 C   0  0  0  0  0  0  0  0  0  0  0  0
   48.9995   36.1110   42.5774 H   0  0  0  0  0  0  0  0  0  0  0  0
   49.8689   35.6180   40.1830 H   0  0  0  0  0  0  0  0  0  0  0  0
   48.9438   34.2475   37.9504 H   0  0  0  0  0  0  0  0  0  0  0  0
   47.0361   32.9346   37.1599 H   0  0  0  0  0  0  0  0  0  0  0  0
   45.0233   32.4439   38.5694 H   0  0  0  0  0  0  0  0  0  0  0  0
   45.0524   33.3758   40.8840 H   0  0  0  0  0  0  0  0  0  0  0  0
   43.7673   36.6500   44.4145 H   0  0  0  0  0  0  0  0  0  0  0  0
   45.2341   36.6368   42.3814 H   0  0  0  0  0  0  0  0  0  0  0  0
   46.1960   33.6096   47.2279 H   0  0  0  0  0  0  0  0  0  0  0  0
   44.9335   32.5615   46.4820 H   0  0  0  0  0  0  0  0  0  0  0  0
   47.3767   31.6432   46.8692 H   0  0  0  0  0  0  0  0  0  0  0  0
   46.4832   31.2575   45.3594 H   0  0  0  0  0  0  0  0  0  0  0  0
   47.7311   32.5496   45.3594 H   0  0  0  0  0  0  0  0  0  0  0  0
  1 12  1  0
  2  1  2  0
  3  2  1  0
  4  3  1  0
  4  9  2  0
  5  4  1  0
  6  5  2  0
  6  7  1  0
  7  8  2  0
  8  9  1  0
  9  1  1  0
 10 15  2  0
 11 10  1  0
 12 11  2  0
 12 13  1  0
 13 14  2  0
 14 15  1  0
 14 16  1  0
 17 16  1  0
  2 18  1  0
  3 19  1  0
  5 20  1  0
  6 21  1  0
  7 22  1  0
  8 23  1  0
 10 24  1  0
 11 25  1  0
 16 26  1  0
 16 27  1  0
 17 28  1  0
 17 29  1  0
 17 30  1  0
M  ISO  8  18  14  19   9  20  14  21  14  22  14  23  14  24  14  25  14
M  ISO  5  26   8  27   8  28   8  29   8  30   8
M  END
>  <minimizedAffinity>  (1) 
-5.91869068

>  <minimizedRMSD>  (1) 
0.0971697196

$$$$
