
     RDKit          3D

 46 50  0  0  1  0  0  0  0  0999 V2000
   44.7570   35.3880   45.0970 C   0  0  0  0  0  0  0  0  0  0  0  0
   44.3070   35.5030   43.7610 C   0  0  0  0  0  0  0  0  0  0  0  0
   44.4810   34.4050   42.9300 C   0  0  0  0  0  0  0  0  0  0  0  0
   45.0680   33.2900   43.4290 N   0  0  0  0  0  0  0  0  0  0  0  0
   45.4860   33.2050   44.7020 C   0  0  0  0  0  0  0  0  0  0  0  0
   45.3370   34.2400   45.5380 N   0  0  0  0  0  0  0  0  0  0  0  0
   46.0920   32.0180   45.1760 N   0  0  0  0  0  0  0  0  0  0  0  0
   46.3000   30.8390   44.3380 C   0  0  0  0  0  0  0  0  0  0  0  0
   45.4570   29.7460   45.0010 C   0  0  0  0  0  0  0  0  0  0  0  0
   46.1590   29.4030   46.2880 C   0  0  0  0  0  0  0  0  0  0  0  0
   47.0200   30.4870   46.8350 C   0  0  0  0  0  0  0  0  0  0  0  0
   46.5590   31.8790   46.5360 C   0  0  2  0  0  0  0  0  0  0  0  0
   44.0270   34.5020   41.5560 C   0  0  0  0  0  0  0  0  0  0  0  0
   44.7320   34.1540   40.3990 C   0  0  0  0  0  0  0  0  0  0  0  0
   43.9790   34.3870   39.3240 N   0  0  0  0  0  0  0  0  0  0  0  0
   42.8040   34.8750   39.7410 C   0  0  0  0  0  0  0  0  0  0  0  0
   41.6860   35.2720   39.0180 C   0  0  0  0  0  0  0  0  0  0  0  0
   40.5900   35.7460   39.7210 C   0  0  0  0  0  0  0  0  0  0  0  0
   40.5280   35.8540   41.0960 C   0  0  0  0  0  0  0  0  0  0  0  0
   41.6580   35.4480   41.7580 C   0  0  0  0  0  0  0  0  0  0  0  0
   42.7900   34.9640   41.1310 C   0  0  0  0  0  0  0  0  0  0  0  0
   45.4900   32.3570   47.4890 C   0  0  0  0  0  0  0  0  0  0  0  0
   44.8910   31.4560   48.4960 C   0  0  0  0  0  0  0  0  0  0  0  0
   45.8620   32.4970   48.9590 C   0  0  0  0  0  0  0  0  0  0  0  0
   44.6364   36.2364   45.7867 H   0  0  0  0  0  0  0  0  0  0  0  0
   43.8370   36.4275   43.3945 H   0  0  0  0  0  0  0  0  0  0  0  0
   47.3626   30.5552   44.3225 H   0  0  0  0  0  0  0  0  0  0  0  0
   46.0117   31.0131   43.2908 H   0  0  0  0  0  0  0  0  0  0  0  0
   44.4424   30.1179   45.2065 H   0  0  0  0  0  0  0  0  0  0  0  0
   45.3561   28.8649   44.3502 H   0  0  0  0  0  0  0  0  0  0  0  0
   45.3948   29.1597   47.0408 H   0  0  0  0  0  0  0  0  0  0  0  0
   46.8278   28.5594   46.0618 H   0  0  0  0  0  0  0  0  0  0  0  0
   47.0616   30.3697   47.9279 H   0  0  0  0  0  0  0  0  0  0  0  0
   47.9980   30.3772   46.3437 H   0  0  0  0  0  0  0  0  0  0  0  0
   47.4469   32.5141   46.6715 H   0  0  0  0  0  0  0  0  0  0  0  0
   45.7545   33.7488   40.3792 H   0  0  0  0  0  0  0  0  0  0  0  0
   44.2528   34.2209   38.3451 H   0  0  0  0  0  0  0  0  0  0  0  0
   41.6713   35.2118   37.9197 H   0  0  0  0  0  0  0  0  0  0  0  0
   39.7076   36.0581   39.1431 H   0  0  0  0  0  0  0  0  0  0  0  0
   39.6399   36.2365   41.6204 H   0  0  0  0  0  0  0  0  0  0  0  0
   41.6636   35.5116   42.8561 H   0  0  0  0  0  0  0  0  0  0  0  0
   45.0673   33.0017   46.7043 H   0  0  0  0  0  0  0  0  0  0  0  0
   43.8250   31.5530   48.7495 H   0  0  0  0  0  0  0  0  0  0  0  0
   44.8245   30.3636   48.6070 H   0  0  0  0  0  0  0  0  0  0  0  0
   46.8636   32.2043   49.3071 H   0  0  0  0  0  0  0  0  0  0  0  0
   45.8484   33.3107   49.6991 H   0  0  0  0  0  0  0  0  0  0  0  0
  1  6  2  0
  2  1  1  0
  3  4  1  0
  3  2  2  0
  4  5  2  0
  5  7  1  0
  5  6  1  0
  7 12  1  0
  8  9  1  0
  8  7  1  0
  9 10  1  0
 10 11  1  0
 12 11  1  0
 12 22  1  0
 13  3  1  0
 14 13  2  0
 15 16  1  0
 15 14  1  0
 16 21  2  0
 17 18  2  0
 17 16  1  0
 18 19  1  0
 19 20  2  0
 21 13  1  0
 21 20  1  0
 22 23  1  0
 22 24  1  0
 23 24  1  0
  1 25  1  0
  2 26  1  0
  8 27  1  0
  8 28  1  0
  9 29  1  0
  9 30  1  0
 10 31  1  0
 10 32  1  0
 11 33  1  0
 11 34  1  0
 12 35  1  6
 14 36  1  0
 15 37  1  0
 17 38  1  0
 18 39  1  0
 19 40  1  0
 20 41  1  0
 22 42  1  0
 23 43  1  0
 23 44  1  0
 24 45  1  0
 24 46  1  0
M  ISO  8  25  14  26  14  27  13  28  13  29  13  30  13  31  13  32  13
M  ISO  8  33  13  34  13  35  13  36  14  37   9  38  14  39  14  40  14
M  ISO  6  41  14  42  13  43  13  44  13  45  13  46  13
M  END
>  <minimizedAffinity>  (1) 
-7.04243708

>  <minimizedRMSD>  (1) 
3.62720561

$$$$
