
     RDKit          3D

 42 45  0  0  1  0  0  0  0  0999 V2000
   45.0490   34.9170   44.7190 C   0  0  0  0  0  0  0  0  0  0  0  0
   45.7630   35.2340   43.5380 C   0  0  0  0  0  0  0  0  0  0  0  0
   46.7380   34.3390   43.1320 C   0  0  0  0  0  0  0  0  0  0  0  0
   46.9630   33.2190   43.8650 N   0  0  0  0  0  0  0  0  0  0  0  0
   46.2720   32.9400   44.9800 C   0  0  0  0  0  0  0  0  0  0  0  0
   45.3130   33.7870   45.4130 N   0  0  0  0  0  0  0  0  0  0  0  0
   46.5440   31.7590   45.7090 N   0  0  0  0  0  0  0  0  0  0  0  0
   47.5280   30.7750   45.3190 C   0  0  0  0  0  0  0  0  0  0  0  0
   46.7670   29.5060   45.0250 C   0  0  0  0  0  0  0  0  0  0  0  0
   46.2010   29.0030   46.3240 C   0  0  0  0  0  0  0  0  0  0  0  0
   46.0680   30.0290   47.3830 C   0  0  0  0  0  0  0  0  0  0  0  0
   45.8500   31.4390   46.9230 C   0  0  1  0  0  0  0  0  0  0  0  0
   47.4850   34.6430   41.9190 C   0  0  0  0  0  0  0  0  0  0  0  0
   48.5860   35.4980   41.7910 C   0  0  0  0  0  0  0  0  0  0  0  0
   48.9930   35.5140   40.5110 N   0  0  0  0  0  0  0  0  0  0  0  0
   48.2010   34.7050   39.8130 C   0  0  0  0  0  0  0  0  0  0  0  0
   48.1980   34.3730   38.4660 C   0  0  0  0  0  0  0  0  0  0  0  0
   47.2470   33.4960   38.0110 C   0  0  0  0  0  0  0  0  0  0  0  0
   46.2710   32.9000   38.7910 C   0  0  0  0  0  0  0  0  0  0  0  0
   46.3210   33.2660   40.1170 C   0  0  0  0  0  0  0  0  0  0  0  0
   47.2340   34.1320   40.6520 C   0  0  0  0  0  0  0  0  0  0  0  0
   46.3670   32.3200   48.0530 C   0  0  0  0  0  0  0  0  0  0  0  0
   47.5790   32.9030   47.7510 F   0  0  0  0  0  0  0  0  0  0  0  0
   46.6200   31.4260   49.1050 F   0  0  0  0  0  0  0  0  0  0  0  0
   45.4490   33.1990   48.5350 F   0  0  0  0  0  0  0  0  0  0  0  0
   44.2664   35.6016   45.0779 H   0  0  0  0  0  0  0  0  0  0  0  0
   45.5522   36.1510   42.9682 H   0  0  0  0  0  0  0  0  0  0  0  0
   48.0678   31.1116   44.4216 H   0  0  0  0  0  0  0  0  0  0  0  0
   48.2727   30.6188   46.1133 H   0  0  0  0  0  0  0  0  0  0  0  0
   45.9518   29.7133   44.3161 H   0  0  0  0  0  0  0  0  0  0  0  0
   47.4312   28.7529   44.5760 H   0  0  0  0  0  0  0  0  0  0  0  0
   45.2027   28.5868   46.1237 H   0  0  0  0  0  0  0  0  0  0  0  0
   46.9145   28.2570   46.7040 H   0  0  0  0  0  0  0  0  0  0  0  0
   45.2133   29.7477   48.0157 H   0  0  0  0  0  0  0  0  0  0  0  0
   47.0371   30.0385   47.9033 H   0  0  0  0  0  0  0  0  0  0  0  0
   44.7837   31.5922   46.7002 H   0  0  0  0  0  0  0  0  0  0  0  0
   49.0464   36.0682   42.6113 H   0  0  0  0  0  0  0  0  0  0  0  0
   49.7822   36.0587   40.1350 H   0  0  0  0  0  0  0  0  0  0  0  0
   48.9413   34.8033   37.7788 H   0  0  0  0  0  0  0  0  0  0  0  0
   47.2609   33.2460   36.9399 H   0  0  0  0  0  0  0  0  0  0  0  0
   45.5248   32.1991   38.3886 H   0  0  0  0  0  0  0  0  0  0  0  0
   45.5725   32.8304   40.7952 H   0  0  0  0  0  0  0  0  0  0  0  0
  1  6  2  0
  2  1  1  0
  3  2  2  0
  3  4  1  0
  4  5  2  0
  5  6  1  0
  5  7  1  0
  7 12  1  0
  8  7  1  0
  9  8  1  0
  9 10  1  0
 10 11  1  0
 12 11  1  0
 12 22  1  0
 13  3  1  0
 14 13  2  0
 15 14  1  0
 16 15  1  0
 16 21  2  0
 17 16  1  0
 18 17  2  0
 18 19  1  0
 19 20  2  0
 20 21  1  0
 21 13  1  0
 22 25  1  0
 22 24  1  0
 23 22  1  0
  1 26  1  0
  2 27  1  0
  8 28  1  0
  8 29  1  0
  9 30  1  0
  9 31  1  0
 10 32  1  0
 10 33  1  0
 11 34  1  0
 11 35  1  0
 12 36  1  6
 14 37  1  0
 15 38  1  0
 17 39  1  0
 18 40  1  0
 19 41  1  0
 20 42  1  0
M  ISO  8  26  14  27  14  28  13  29  13  30  13  31  13  32  13  33  13
M  ISO  8  34  13  35  13  36  13  37  14  38   9  39  14  40  14  41  14
M  ISO  1  42  14
M  END
>  <minimizedAffinity>  (1) 
-7.0172348

>  <minimizedRMSD>  (1) 
1.47244489

$$$$
