
     RDKit          3D

 27 29  0  0  0  0  0  0  0  0999 V2000
   45.5970   34.8500   44.1380 C   0  0  0  0  0  0  0  0  0  0  0  0
   46.6730   34.0750   43.6470 C   0  0  0  0  0  0  0  0  0  0  0  0
   47.1440   33.0620   44.4690 C   0  0  0  0  0  0  0  0  0  0  0  0
   46.5580   32.8690   45.6830 N   0  0  0  0  0  0  0  0  0  0  0  0
   45.5390   33.6180   46.1230 C   0  0  0  0  0  0  0  0  0  0  0  0
   45.0520   34.6140   45.3550 N   0  0  0  0  0  0  0  0  0  0  0  0
   47.2330   34.3480   42.3510 C   0  0  0  0  0  0  0  0  0  0  0  0
   48.2880   35.2260   42.1200 C   0  0  0  0  0  0  0  0  0  0  0  0
   48.7560   35.4170   40.8160 C   0  0  0  0  0  0  0  0  0  0  0  0
   48.1980   34.7520   39.7360 C   0  0  0  0  0  0  0  0  0  0  0  0
   47.1450   33.8830   40.0050 C   0  0  0  0  0  0  0  0  0  0  0  0
   46.5740   33.2100   38.9310 C   0  0  0  0  0  0  0  0  0  0  0  0
   45.5260   32.3310   39.1120 C   0  0  0  0  0  0  0  0  0  0  0  0
   45.0410   32.1200   40.3880 C   0  0  0  0  0  0  0  0  0  0  0  0
   45.5940   32.7800   41.4770 C   0  0  0  0  0  0  0  0  0  0  0  0
   46.6570   33.6680   41.2720 C   0  0  0  0  0  0  0  0  0  0  0  0
   44.9140   36.1950   43.1390 S   0  0  0  0  0  0  0  0  0  0  0  0
   47.9791   32.4235   44.1449 H   0  0  0  0  0  0  0  0  0  0  0  0
   45.0988   33.4208   47.1116 H   0  0  0  0  0  0  0  0  0  0  0  0
   48.7512   35.7667   42.9585 H   0  0  0  0  0  0  0  0  0  0  0  0
   49.5894   36.1138   40.6431 H   0  0  0  0  0  0  0  0  0  0  0  0
   48.5706   34.9042   38.7123 H   0  0  0  0  0  0  0  0  0  0  0  0
   46.9652   33.3815   37.9173 H   0  0  0  0  0  0  0  0  0  0  0  0
   45.0832   31.8060   38.2528 H   0  0  0  0  0  0  0  0  0  0  0  0
   44.2064   31.4205   40.5432 H   0  0  0  0  0  0  0  0  0  0  0  0
   45.2013   32.6072   42.4899 H   0  0  0  0  0  0  0  0  0  0  0  0
   44.4187   37.1704   43.9638 H   0  0  0  0  0  0  0  0  0  0  0  0
  1  6  2  0
  2  1  1  0
  2  3  2  0
  3  4  1  0
  4  5  2  0
  6  5  1  0
  7  2  1  0
  8  7  2  0
  9  8  1  0
 10 11  1  0
 10  9  2  0
 11 16  2  0
 12 13  2  0
 12 11  1  0
 13 14  1  0
 14 15  2  0
 16 15  1  0
 16  7  1  0
 17  1  1  0
  3 18  1  0
  5 19  1  0
  8 20  1  0
  9 21  1  0
 10 22  1  0
 12 23  1  0
 13 24  1  0
 14 25  1  0
 15 26  1  0
 17 27  1  0
M  ISO  8  18  14  19  14  20  14  21  14  22  14  23  14  24  14  25  14
M  ISO  2  26  14  27  11
M  END
>  <minimizedAffinity>  (1) 
-5.20443964

>  <minimizedRMSD>  (1) 
1.28895259

$$$$
