
     RDKit          3D

 25 27  0  0  0  0  0  0  0  0999 V2000
   45.8230   34.7960   43.8320 C   0  0  0  0  0  0  0  0  0  0  0  0
   46.9520   34.0800   43.4230 C   0  0  0  0  0  0  0  0  0  0  0  0
   47.4480   33.0720   44.2380 C   0  0  0  0  0  0  0  0  0  0  0  0
   46.7930   32.8350   45.4130 N   0  0  0  0  0  0  0  0  0  0  0  0
   45.7120   33.5280   45.7950 C   0  0  0  0  0  0  0  0  0  0  0  0
   45.2080   34.5180   45.0150 N   0  0  0  0  0  0  0  0  0  0  0  0
   47.5680   34.4290   42.1370 C   0  0  0  0  0  0  0  0  0  0  0  0
   48.6130   35.3550   42.0510 C   0  0  0  0  0  0  0  0  0  0  0  0
   48.9390   35.4420   40.7630 N   0  0  0  0  0  0  0  0  0  0  0  0
   48.1590   34.6240   40.0350 C   0  0  0  0  0  0  0  0  0  0  0  0
   48.0570   34.3180   38.6930 C   0  0  0  0  0  0  0  0  0  0  0  0
   47.1300   33.4070   38.2030 C   0  0  0  0  0  0  0  0  0  0  0  0
   46.2640   32.7700   39.0920 C   0  0  0  0  0  0  0  0  0  0  0  0
   46.3340   33.0500   40.4550 C   0  0  0  0  0  0  0  0  0  0  0  0
   47.2820   33.9670   40.8520 C   0  0  0  0  0  0  0  0  0  0  0  0
   45.1180   36.1210   42.8240 S   0  0  0  0  0  0  0  0  0  0  0  0
   48.3336   32.4870   43.9491 H   0  0  0  0  0  0  0  0  0  0  0  0
   45.2265   33.2916   46.7533 H   0  0  0  0  0  0  0  0  0  0  0  0
   49.0751   35.9040   42.8847 H   0  0  0  0  0  0  0  0  0  0  0  0
   49.6798   36.0470   40.3806 H   0  0  0  0  0  0  0  0  0  0  0  0
   48.7359   34.8147   37.9842 H   0  0  0  0  0  0  0  0  0  0  0  0
   47.0793   33.1902   37.1258 H   0  0  0  0  0  0  0  0  0  0  0  0
   45.5255   32.0463   38.7167 H   0  0  0  0  0  0  0  0  0  0  0  0
   45.6646   32.5624   41.1790 H   0  0  0  0  0  0  0  0  0  0  0  0
   44.6017   37.0914   43.6417 H   0  0  0  0  0  0  0  0  0  0  0  0
  1  6  2  0
  2  1  1  0
  2  3  2  0
  3  4  1  0
  4  5  2  0
  6  5  1  0
  7  2  1  0
  8  7  2  0
  9  8  1  0
 10  9  1  0
 10 15  2  0
 11 10  1  0
 12 11  2  0
 12 13  1  0
 13 14  2  0
 14 15  1  0
 15  7  1  0
 16  1  1  0
  3 17  1  0
  5 18  1  0
  8 19  1  0
  9 20  1  0
 11 21  1  0
 12 22  1  0
 13 23  1  0
 14 24  1  0
 16 25  1  0
M  ISO  8  17  14  18  14  19  14  20   9  21  14  22  14  23  14  24  14
M  ISO  1  25  11
M  END
>  <minimizedAffinity>  (1) 
-5.0304966

>  <minimizedRMSD>  (1) 
1.28491771

$$$$
