
     RDKit          3D

 16 16  0  0  0  0  0  0  0  0999 V2000
   44.5520   36.0390   44.4800 C   0  0  0  0  0  0  0  0  0  0  0  0
   45.1940   35.9890   43.2340 C   0  0  0  0  0  0  0  0  0  0  0  0
   46.0670   34.9280   42.9900 C   0  0  0  0  0  0  0  0  0  0  0  0
   46.2550   33.9860   43.9780 N   0  0  0  0  0  0  0  0  0  0  0  0
   45.6120   34.0780   45.1630 C   0  0  0  0  0  0  0  0  0  0  0  0
   44.7730   35.0920   45.4080 N   0  0  0  0  0  0  0  0  0  0  0  0
   46.8170   34.7570   41.6970 C   0  0  0  0  0  0  0  0  0  0  0  0
   48.2260   35.3430   41.8410 C   0  0  0  0  0  0  0  0  0  0  0  0
   43.8586   36.8639   44.7007 H   0  0  0  0  0  0  0  0  0  0  0  0
   45.0149   36.7624   42.4725 H   0  0  0  0  0  0  0  0  0  0  0  0
   45.7797   33.3118   45.9342 H   0  0  0  0  0  0  0  0  0  0  0  0
   46.2826   35.2815   40.8912 H   0  0  0  0  0  0  0  0  0  0  0  0
   46.8886   33.6866   41.4540 H   0  0  0  0  0  0  0  0  0  0  0  0
   48.4731   35.4458   42.9080 H   0  0  0  0  0  0  0  0  0  0  0  0
   48.9529   34.6726   41.3592 H   0  0  0  0  0  0  0  0  0  0  0  0
   48.2631   36.3312   41.3592 H   0  0  0  0  0  0  0  0  0  0  0  0
  1  6  2  0
  2  1  1  0
  3  2  2  0
  3  4  1  0
  4  5  2  0
  5  6  1  0
  7  8  1  0
  7  3  1  0
  1  9  1  0
  2 10  1  0
  5 11  1  0
  7 12  1  0
  7 13  1  0
  8 14  1  0
  8 15  1  0
  8 16  1  0
M  ISO  8   9  14  10  14  11  14  12   8  13   8  14   8  15   8  16   8
M  END
>  <minimizedAffinity>  (1) 
-3.40016627

>  <minimizedRMSD>  (1) 
0.529869914

$$$$
