
     RDKit          3D

 27 28  0  0  0  0  0  0  0  0999 V2000
   45.5970   34.3660   44.9200 C   0  0  0  0  0  0  0  0  0  0  0  0
   46.6020   33.8000   44.1040 C   0  0  0  0  0  0  0  0  0  0  0  0
   47.2530   32.6850   44.6120 C   0  0  0  0  0  0  0  0  0  0  0  0
   46.8970   32.2070   45.8380 N   0  0  0  0  0  0  0  0  0  0  0  0
   45.9390   32.7720   46.5820 C   0  0  0  0  0  0  0  0  0  0  0  0
   45.2880   33.8490   46.1270 N   0  0  0  0  0  0  0  0  0  0  0  0
   46.8640   34.4250   42.8230 C   0  0  0  0  0  0  0  0  0  0  0  0
   48.3710   34.5740   42.6830 C   0  0  0  0  0  0  0  0  0  0  0  0
   48.5760   35.4880   41.4910 C   0  0  0  0  0  0  0  0  0  0  0  0
   48.2120   34.6390   40.2930 C   0  0  0  0  0  0  0  0  0  0  0  0
   46.8240   34.1140   40.3330 C   0  0  0  0  0  0  0  0  0  0  0  0
   46.2700   33.7210   41.6460 C   0  0  0  0  0  0  0  0  0  0  0  0
   44.6900   35.8250   44.3450 S   0  0  0  0  0  0  0  0  0  0  0  0
   48.0473   32.1923   44.0321 H   0  0  0  0  0  0  0  0  0  0  0  0
   45.6868   32.3516   47.5667 H   0  0  0  0  0  0  0  0  0  0  0  0
   46.3618   35.4037   42.8177 H   0  0  0  0  0  0  0  0  0  0  0  0
   48.7993   35.0237   43.5909 H   0  0  0  0  0  0  0  0  0  0  0  0
   48.8670   33.6021   42.5435 H   0  0  0  0  0  0  0  0  0  0  0  0
   47.9185   36.3673   41.5581 H   0  0  0  0  0  0  0  0  0  0  0  0
   49.6046   35.8734   41.4325 H   0  0  0  0  0  0  0  0  0  0  0  0
   48.9048   33.7858   40.2487 H   0  0  0  0  0  0  0  0  0  0  0  0
   48.2855   35.2859   39.4064 H   0  0  0  0  0  0  0  0  0  0  0  0
   46.1669   34.8938   39.9205 H   0  0  0  0  0  0  0  0  0  0  0  0
   46.8677   33.1758   39.7604 H   0  0  0  0  0  0  0  0  0  0  0  0
   45.1896   33.9277   41.6353 H   0  0  0  0  0  0  0  0  0  0  0  0
   46.5119   32.6555   41.7732 H   0  0  0  0  0  0  0  0  0  0  0  0
   44.2449   36.5409   45.4249 H   0  0  0  0  0  0  0  0  0  0  0  0
  1  6  2  0
  2  3  2  0
  2  1  1  0
  3  4  1  0
  4  5  2  0
  6  5  1  0
  7  2  1  0
  8  7  1  0
  9  8  1  0
 10 11  1  0
 10  9  1  0
 11 12  1  0
 12  7  1  0
 13  1  1  0
  3 14  1  0
  5 15  1  0
  7 16  1  0
  8 17  1  0
  8 18  1  0
  9 19  1  0
  9 20  1  0
 10 21  1  0
 10 22  1  0
 11 23  1  0
 11 24  1  0
 12 25  1  0
 12 26  1  0
 13 27  1  0
M  ISO  8  14  14  15  14  16  13  17  13  18  13  19  13  20  13  21  13
M  ISO  6  22  13  23  13  24  13  25  13  26  13  27  11
M  END
>  <minimizedAffinity>  (1) 
-4.75147676

>  <minimizedRMSD>  (1) 
0.886263013

$$$$
