
     RDKit          3D

 21 22  0  0  0  0  0  0  0  0999 V2000
   46.2960   33.9900   43.9000 C   0  0  0  0  0  0  0  0  0  0  0  0
   45.6410   34.2580   45.1160 C   0  0  0  0  0  0  0  0  0  0  0  0
   44.7640   35.3340   45.1610 C   0  0  0  0  0  0  0  0  0  0  0  0
   44.5870   36.0740   44.0250 N   0  0  0  0  0  0  0  0  0  0  0  0
   45.2250   35.7950   42.8820 C   0  0  0  0  0  0  0  0  0  0  0  0
   46.0830   34.7600   42.7950 N   0  0  0  0  0  0  0  0  0  0  0  0
   45.9530   33.3800   46.1870 N   0  0  0  0  0  0  0  0  0  0  0  0
   46.9290   32.4700   46.1690 C   0  0  0  0  0  0  0  0  0  0  0  0
   47.1740   31.6430   47.2610 C   0  0  0  0  0  0  0  0  0  0  0  0
   46.3700   31.7970   48.3660 C   0  0  0  0  0  0  0  0  0  0  0  0
   46.5800   31.0550   49.3640 O   0  0  0  0  0  0  0  0  0  0  0  0
   45.4050   32.7220   48.3370 N   0  0  0  0  0  0  0  0  0  0  0  0
   45.1710   33.5230   47.2740 C   0  0  0  0  0  0  0  0  0  0  0  0
   44.2420   34.3630   47.3410 O   0  0  0  0  0  0  0  0  0  0  0  0
   47.4470   32.6150   43.7560 S   0  0  0  0  0  0  0  0  0  0  0  0
   44.2256   35.5845   46.0869 H   0  0  0  0  0  0  0  0  0  0  0  0
   45.0454   36.4228   41.9968 H   0  0  0  0  0  0  0  0  0  0  0  0
   47.5546   32.3713   45.2696 H   0  0  0  0  0  0  0  0  0  0  0  0
   47.9800   30.8947   47.2411 H   0  0  0  0  0  0  0  0  0  0  0  0
   44.8080   32.8299   49.1694 H   0  0  0  0  0  0  0  0  0  0  0  0
   47.8055   32.1867   45.0070 H   0  0  0  0  0  0  0  0  0  0  0  0
  1  2  2  0
  2  3  1  0
  2  7  1  0
  4  3  2  0
  5  4  1  0
  6  5  2  0
  6  1  1  0
  7 13  1  0
  8  7  1  0
  8  9  2  0
  9 10  1  0
 10 11  2  0
 12 10  1  0
 13 14  2  0
 13 12  1  0
 15  1  1  0
  3 16  1  0
  5 17  1  0
  8 18  1  0
  9 19  1  0
 12 20  1  0
 15 21  1  0
M  ISO  6  16  14  17  14  18  14  19  14  20   9  21  11
M  END
>  <minimizedAffinity>  (1) 
-4.80065346

>  <minimizedRMSD>  (1) 
6.17457533

$$$$
