
     RDKit          3D

 24 25  0  0  0  0  0  0  0  0999 V2000
   45.3520   34.3000   45.2940 C   0  0  0  0  0  0  0  0  0  0  0  0
   46.3230   33.4390   44.7390 C   0  0  0  0  0  0  0  0  0  0  0  0
   46.7910   32.4040   45.5400 C   0  0  0  0  0  0  0  0  0  0  0  0
   46.2950   32.2790   46.7950 N   0  0  0  0  0  0  0  0  0  0  0  0
   45.3740   33.1070   47.3020 C   0  0  0  0  0  0  0  0  0  0  0  0
   44.8900   34.1250   46.5650 N   0  0  0  0  0  0  0  0  0  0  0  0
   46.7120   33.7410   43.4030 N   0  0  0  0  0  0  0  0  0  0  0  0
   47.6790   34.6100   43.0680 C   0  0  0  0  0  0  0  0  0  0  0  0
   47.9230   34.7780   41.7260 C   0  0  0  0  0  0  0  0  0  0  0  0
   48.9920   35.7380   41.2990 C   0  0  0  0  0  0  0  0  0  0  0  0
   47.2060   34.0820   40.7480 C   0  0  0  0  0  0  0  0  0  0  0  0
   47.4770   34.2800   39.5150 O   0  0  0  0  0  0  0  0  0  0  0  0
   46.2620   33.2360   41.1690 N   0  0  0  0  0  0  0  0  0  0  0  0
   46.0060   33.0580   42.4790 C   0  0  0  0  0  0  0  0  0  0  0  0
   45.0910   32.2290   42.6960 O   0  0  0  0  0  0  0  0  0  0  0  0
   44.6670   35.6850   44.3450 S   0  0  0  0  0  0  0  0  0  0  0  0
   47.5483   31.7009   45.1631 H   0  0  0  0  0  0  0  0  0  0  0  0
   45.0095   32.9549   48.3286 H   0  0  0  0  0  0  0  0  0  0  0  0
   48.2486   35.1610   43.8309 H   0  0  0  0  0  0  0  0  0  0  0  0
   49.4733   36.1702   42.1887 H   0  0  0  0  0  0  0  0  0  0  0  0
   49.7437   35.2059   40.6975 H   0  0  0  0  0  0  0  0  0  0  0  0
   48.5435   36.5424   40.6975 H   0  0  0  0  0  0  0  0  0  0  0  0
   45.7162   32.7065   40.4743 H   0  0  0  0  0  0  0  0  0  0  0  0
   44.1948   36.6397   45.2066 H   0  0  0  0  0  0  0  0  0  0  0  0
  1  6  2  0
  2  1  1  0
  2  3  2  0
  3  4  1  0
  4  5  2  0
  6  5  1  0
  7  2  1  0
  8  7  1  0
  9  8  2  0
 10  9  1  0
 11 13  1  0
 11  9  1  0
 12 11  2  0
 13 14  1  0
 14 15  2  0
 14  7  1  0
 16  1  1  0
  3 17  1  0
  5 18  1  0
  8 19  1  0
 10 20  1  0
 10 21  1  0
 10 22  1  0
 13 23  1  0
 16 24  1  0
M  ISO  8  17  14  18  14  19  14  20   8  21   8  22   8  23   9  24  11
M  END
>  <minimizedAffinity>  (1) 
-4.70032692

>  <minimizedRMSD>  (1) 
1.35731053

$$$$
