
     RDKit          3D

 19 20  0  0  0  0  0  0  0  0999 V2000
   45.6060   34.7680   44.1950 C   0  0  0  0  0  0  0  0  0  0  0  0
   46.6590   33.9690   43.7490 C   0  0  0  0  0  0  0  0  0  0  0  0
   47.1420   32.9700   44.5770 C   0  0  0  0  0  0  0  0  0  0  0  0
   46.5460   32.8270   45.8030 N   0  0  0  0  0  0  0  0  0  0  0  0
   45.5370   33.6010   46.2170 C   0  0  0  0  0  0  0  0  0  0  0  0
   45.0520   34.5800   45.4230 N   0  0  0  0  0  0  0  0  0  0  0  0
   47.1820   34.2490   42.4190 C   0  0  0  0  0  0  0  0  0  0  0  0
   48.2300   35.0930   42.1780 C   0  0  0  0  0  0  0  0  0  0  0  0
   48.7370   35.3680   40.9240 C   0  0  0  0  0  0  0  0  0  0  0  0
   48.1730   34.7730   39.8430 N   0  0  0  0  0  0  0  0  0  0  0  0
   47.1460   33.9470   40.0760 C   0  0  0  0  0  0  0  0  0  0  0  0
   46.6670   33.6900   41.3000 N   0  0  0  0  0  0  0  0  0  0  0  0
   44.9240   36.0890   43.1680 S   0  0  0  0  0  0  0  0  0  0  0  0
   47.9704   32.3176   44.2637 H   0  0  0  0  0  0  0  0  0  0  0  0
   45.0984   33.4389   47.2127 H   0  0  0  0  0  0  0  0  0  0  0  0
   48.7008   35.5860   43.0413 H   0  0  0  0  0  0  0  0  0  0  0  0
   49.5847   36.0585   40.8030 H   0  0  0  0  0  0  0  0  0  0  0  0
   46.6699   33.4528   39.2163 H   0  0  0  0  0  0  0  0  0  0  0  0
   44.4149   37.0752   43.9712 H   0  0  0  0  0  0  0  0  0  0  0  0
  1  6  2  0
  2  1  1  0
  2  3  2  0
  3  4  1  0
  4  5  2  0
  6  5  1  0
  7  2  1  0
  8  7  2  0
  9  8  1  0
 10 11  1  0
 10  9  2  0
 11 12  2  0
 12  7  1  0
 13  1  1  0
  3 14  1  0
  5 15  1  0
  8 16  1  0
  9 17  1  0
 11 18  1  0
 13 19  1  0
M  ISO  6  14  14  15  14  16  14  17  14  18  14  19  11
M  END
>  <minimizedAffinity>  (1) 
-4.13899422

>  <minimizedRMSD>  (1) 
0.679464936

$$$$
