
     RDKit          3D

 24 25  0  0  0  0  0  0  0  0999 V2000
   45.7740   34.6660   44.1580 C   0  0  0  0  0  0  0  0  0  0  0  0
   46.8340   33.7860   43.8830 C   0  0  0  0  0  0  0  0  0  0  0  0
   47.1380   32.8410   44.8700 C   0  0  0  0  0  0  0  0  0  0  0  0
   46.4010   32.8260   46.0260 N   0  0  0  0  0  0  0  0  0  0  0  0
   45.4000   33.6860   46.2410 C   0  0  0  0  0  0  0  0  0  0  0  0
   45.0850   34.6050   45.3120 N   0  0  0  0  0  0  0  0  0  0  0  0
   47.4780   33.9430   42.6510 N   0  0  0  0  0  0  0  0  0  0  0  0
   48.8390   34.4420   42.5730 C   0  0  0  0  0  0  0  0  0  0  0  0
   48.7400   35.6760   41.6750 C   0  0  0  0  0  0  0  0  0  0  0  0
   48.5050   35.1140   40.2890 C   0  0  0  0  0  0  0  0  0  0  0  0
   47.3620   34.1760   40.1790 C   0  0  0  0  0  0  0  0  0  0  0  0
   46.8070   33.6120   41.4240 C   0  0  0  0  0  0  0  0  0  0  0  0
   45.3140   35.9170   42.9430 S   0  0  0  0  0  0  0  0  0  0  0  0
   47.9561   32.1211   44.7203 H   0  0  0  0  0  0  0  0  0  0  0  0
   44.8320   33.6413   47.1819 H   0  0  0  0  0  0  0  0  0  0  0  0
   49.2112   34.7157   43.5713 H   0  0  0  0  0  0  0  0  0  0  0  0
   49.5393   33.6910   42.1784 H   0  0  0  0  0  0  0  0  0  0  0  0
   47.8999   36.3157   41.9834 H   0  0  0  0  0  0  0  0  0  0  0  0
   49.6409   36.3052   41.7255 H   0  0  0  0  0  0  0  0  0  0  0  0
   48.3222   35.9564   39.6056 H   0  0  0  0  0  0  0  0  0  0  0  0
   49.4045   34.5337   40.0358 H   0  0  0  0  0  0  0  0  0  0  0  0
   46.9406   33.9088   39.1987 H   0  0  0  0  0  0  0  0  0  0  0  0
   45.9172   32.9654   41.4136 H   0  0  0  0  0  0  0  0  0  0  0  0
   44.8972   37.0504   43.5899 H   0  0  0  0  0  0  0  0  0  0  0  0
  1  6  2  0
  2  1  1  0
  2  3  2  0
  3  4  1  0
  4  5  2  0
  6  5  1  0
  7  2  1  0
  8  7  1  0
  9  8  1  0
 10  9  1  0
 11 10  1  0
 11 12  2  0
 12  7  1  0
 13  1  1  0
  3 14  1  0
  5 15  1  0
  8 16  1  0
  8 17  1  0
  9 18  1  0
  9 19  1  0
 10 20  1  0
 10 21  1  0
 11 22  1  0
 12 23  1  0
 13 24  1  0
M  ISO  8  14  14  15  14  16  13  17  13  18  13  19  13  20  13  21  13
M  ISO  3  22  13  23  13  24  11
M  END
>  <minimizedAffinity>  (1) 
-4.39419842

>  <minimizedRMSD>  (1) 
0.817482412

$$$$
