
     RDKit          3D

 24 25  0  0  0  0  0  0  0  0999 V2000
   46.1190   33.9500   44.3110 C   0  0  0  0  0  0  0  0  0  0  0  0
   45.8790   34.9060   43.3240 C   0  0  0  0  0  0  0  0  0  0  0  0
   45.0070   35.9480   43.6130 C   0  0  0  0  0  0  0  0  0  0  0  0
   44.4340   35.9710   44.8510 N   0  0  0  0  0  0  0  0  0  0  0  0
   44.6820   35.0410   45.7810 C   0  0  0  0  0  0  0  0  0  0  0  0
   45.5190   34.0210   45.5360 N   0  0  0  0  0  0  0  0  0  0  0  0
   46.5160   34.8050   42.0640 N   0  0  0  0  0  0  0  0  0  0  0  0
   47.8900   35.2580   41.8320 C   0  0  0  0  0  0  0  0  0  0  0  0
   48.4900   34.5530   40.6330 C   0  0  0  0  0  0  0  0  0  0  0  0
   48.0880   33.2330   40.5190 O   0  0  0  0  0  0  0  0  0  0  0  0
   46.7290   33.0300   40.4740 C   0  0  0  0  0  0  0  0  0  0  0  0
   45.9240   34.2520   40.8360 C   0  0  0  0  0  0  0  0  0  0  0  0
   47.2370   32.5670   44.0210 S   0  0  0  0  0  0  0  0  0  0  0  0
   44.7861   36.7278   42.8693 H   0  0  0  0  0  0  0  0  0  0  0  0
   44.1914   35.1140   46.7628 H   0  0  0  0  0  0  0  0  0  0  0  0
   47.8867   36.3427   41.6490 H   0  0  0  0  0  0  0  0  0  0  0  0
   48.4950   35.0231   42.7202 H   0  0  0  0  0  0  0  0  0  0  0  0
   48.1860   35.0909   39.7229 H   0  0  0  0  0  0  0  0  0  0  0  0
   49.5818   34.5518   40.7670 H   0  0  0  0  0  0  0  0  0  0  0  0
   46.4567   32.7241   39.4531 H   0  0  0  0  0  0  0  0  0  0  0  0
   46.4936   32.2561   41.2195 H   0  0  0  0  0  0  0  0  0  0  0  0
   45.9752   34.9928   40.0245 H   0  0  0  0  0  0  0  0  0  0  0  0
   44.8656   33.9950   40.9901 H   0  0  0  0  0  0  0  0  0  0  0  0
   47.6510   32.0548   45.2223 H   0  0  0  0  0  0  0  0  0  0  0  0
  1  6  2  0
  2  3  2  0
  2  1  1  0
  3  4  1  0
  4  5  2  0
  6  5  1  0
  7  2  1  0
  8  7  1  0
  9  8  1  0
 10  9  1  0
 11 10  1  0
 11 12  1  0
 12  7  1  0
 13  1  1  0
  3 14  1  0
  5 15  1  0
  8 16  1  0
  8 17  1  0
  9 18  1  0
  9 19  1  0
 11 20  1  0
 11 21  1  0
 12 22  1  0
 12 23  1  0
 13 24  1  0
M  ISO  8  14  14  15  14  16  13  17  13  18  13  19  13  20  13  21  13
M  ISO  3  22  13  23  13  24  11
M  END
>  <minimizedAffinity>  (1) 
-4.01475

>  <minimizedRMSD>  (1) 
2.65342903

$$$$
