
     RDKit          3D

 14 14  0  0  0  0  0  0  0  0999 V2000
   46.4360   34.1430   43.9350 C   0  0  0  0  0  0  0  0  0  0  0  0
   45.8130   34.0540   45.1820 C   0  0  0  0  0  0  0  0  0  0  0  0
   44.8080   34.9600   45.4870 C   0  0  0  0  0  0  0  0  0  0  0  0
   44.4870   35.8870   44.5470 N   0  0  0  0  0  0  0  0  0  0  0  0
   45.1020   35.9580   43.3430 C   0  0  0  0  0  0  0  0  0  0  0  0
   46.0770   35.0940   43.0230 N   0  0  0  0  0  0  0  0  0  0  0  0
   47.7530   33.0060   43.4520 S   0  0  0  0  0  0  0  0  0  0  0  0
   46.2530   33.0200   46.0860 C   0  0  0  0  0  0  0  0  0  0  0  0
   45.7430   31.8780   45.9500 O   0  0  0  0  0  0  0  0  0  0  0  0
   47.2030   33.2710   47.0700 O   0  0  0  0  0  0  0  0  0  0  0  0
   44.2889   34.9291   46.4563 H   0  0  0  0  0  0  0  0  0  0  0  0
   44.7996   36.7308   42.6210 H   0  0  0  0  0  0  0  0  0  0  0  0
   48.3476   32.4927   44.5744 H   0  0  0  0  0  0  0  0  0  0  0  0
   47.4890   32.5445   47.6788 H   0  0  0  0  0  0  0  0  0  0  0  0
  1  2  2  0
  2  3  1  0
  2  8  1  0
  4  3  2  0
  5  4  1  0
  6  5  2  0
  6  1  1  0
  7  1  1  0
  8 10  1  0
  9  8  2  0
  3 11  1  0
  5 12  1  0
  7 13  1  0
 10 14  1  0
M  ISO  4  11  14  12  14  13  11  14   3
M  END
>  <minimizedAffinity>  (1) 
-3.92605209

>  <minimizedRMSD>  (1) 
3.84454203

$$$$
