
     RDKit          3D

 17 18  0  0  0  0  0  0  0  0999 V2000
   46.1140   33.4740   44.6700 C   0  0  0  0  0  0  0  0  0  0  0  0
   45.6300   33.7020   45.9740 C   0  0  0  0  0  0  0  0  0  0  0  0
   44.7740   34.7840   46.1170 C   0  0  0  0  0  0  0  0  0  0  0  0
   44.4520   35.5450   45.0390 N   0  0  0  0  0  0  0  0  0  0  0  0
   44.9380   35.2890   43.8170 C   0  0  0  0  0  0  0  0  0  0  0  0
   45.7790   34.2460   43.6140 N   0  0  0  0  0  0  0  0  0  0  0  0
   46.0420   32.8190   47.0620 C   0  0  0  0  0  0  0  0  0  0  0  0
   45.0700   32.0770   47.7060 C   0  0  0  0  0  0  0  0  0  0  0  0
   46.0330   31.1110   49.0020 S   0  0  0  0  0  0  0  0  0  0  0  0
   47.6210   31.9450   48.3810 C   0  0  0  0  0  0  0  0  0  0  0  0
   47.2440   32.6030   47.5550 N   0  0  0  0  0  0  0  0  0  0  0  0
   47.2400   32.0910   44.3500 S   0  0  0  0  0  0  0  0  0  0  0  0
   44.3553   35.0262   47.1049 H   0  0  0  0  0  0  0  0  0  0  0  0
   44.6518   35.9312   42.9710 H   0  0  0  0  0  0  0  0  0  0  0  0
   43.9882   32.0561   47.5076 H   0  0  0  0  0  0  0  0  0  0  0  0
   48.6523   31.8154   48.7411 H   0  0  0  0  0  0  0  0  0  0  0  0
   47.6678   31.5655   45.5407 H   0  0  0  0  0  0  0  0  0  0  0  0
  1  2  2  0
  2  3  1  0
  2  7  1  0
  4  3  2  0
  5  4  1  0
  6  5  2  0
  6  1  1  0
  7 11  1  0
  7  8  2  0
  8  9  1  0
 10  9  1  0
 11 10  2  0
 12  1  1  0
  3 13  1  0
  5 14  1  0
  8 15  1  0
 10 16  1  0
 12 17  1  0
M  ISO  5  13  14  14  14  15  14  16  14  17  11
M  END
>  <minimizedAffinity>  (1) 
-3.80350327

>  <minimizedRMSD>  (1) 
5.45329475

$$$$
