
     RDKit          3D

 17 18  0  0  0  0  0  0  0  0999 V2000
   46.0630   33.5730   44.4070 C   0  0  0  0  0  0  0  0  0  0  0  0
   45.6000   33.9140   45.6800 C   0  0  0  0  0  0  0  0  0  0  0  0
   44.7500   35.0110   45.7820 C   0  0  0  0  0  0  0  0  0  0  0  0
   44.4210   35.6840   44.6370 N   0  0  0  0  0  0  0  0  0  0  0  0
   44.8820   35.3320   43.4280 C   0  0  0  0  0  0  0  0  0  0  0  0
   45.7020   34.2810   43.2990 N   0  0  0  0  0  0  0  0  0  0  0  0
   46.0160   33.1330   46.7970 N   0  0  0  0  0  0  0  0  0  0  0  0
   45.0770   32.6940   47.6830 C   0  0  0  0  0  0  0  0  0  0  0  0
   45.6820   31.9790   48.6540 N   0  0  0  0  0  0  0  0  0  0  0  0
   47.0070   31.9750   48.3680 C   0  0  0  0  0  0  0  0  0  0  0  0
   47.1950   32.6780   47.2380 N   0  0  0  0  0  0  0  0  0  0  0  0
   47.1720   32.1650   44.1540 S   0  0  0  0  0  0  0  0  0  0  0  0
   44.3530   35.3288   46.7574 H   0  0  0  0  0  0  0  0  0  0  0  0
   44.5857   35.9084   42.5392 H   0  0  0  0  0  0  0  0  0  0  0  0
   43.9969   32.8916   47.6165 H   0  0  0  0  0  0  0  0  0  0  0  0
   47.7928   31.4815   48.9588 H   0  0  0  0  0  0  0  0  0  0  0  0
   47.5635   31.6679   45.3691 H   0  0  0  0  0  0  0  0  0  0  0  0
  1  2  2  0
  2  3  1  0
  2  7  1  0
  4  3  2  0
  5  4  1  0
  6  5  2  0
  6  1  1  0
  7 11  1  0
  7  8  1  0
  8  9  2  0
 10  9  1  0
 11 10  2  0
 12  1  1  0
  3 13  1  0
  5 14  1  0
  8 15  1  0
 10 16  1  0
 12 17  1  0
M  ISO  5  13  14  14  14  15  14  16  14  17  11
M  END
>  <minimizedAffinity>  (1) 
-3.81535149

>  <minimizedRMSD>  (1) 
5.30778313

$$$$
