
     RDKit          3D

 12 12  0  0  0  0  0  0  0  0999 V2000
   45.6610   34.6500   44.0730 C   0  0  0  0  0  0  0  0  0  0  0  0
   46.7130   33.8920   43.5150 C   0  0  0  0  0  0  0  0  0  0  0  0
   47.2600   32.9000   44.3130 C   0  0  0  0  0  0  0  0  0  0  0  0
   46.7690   32.7130   45.5580 N   0  0  0  0  0  0  0  0  0  0  0  0
   45.7660   33.4520   46.0600 C   0  0  0  0  0  0  0  0  0  0  0  0
   45.2130   34.4180   45.3170 N   0  0  0  0  0  0  0  0  0  0  0  0
   44.8650   35.9720   43.1260 S   0  0  0  0  0  0  0  0  0  0  0  0
   47.0550   34.2450   42.2410 O   0  0  0  0  0  0  0  0  0  0  0  0
   48.0827   32.2733   43.9382 H   0  0  0  0  0  0  0  0  0  0  0  0
   45.3998   33.2635   47.0800 H   0  0  0  0  0  0  0  0  0  0  0  0
   44.3157   36.8842   43.9880 H   0  0  0  0  0  0  0  0  0  0  0  0
   47.7834   33.7649   41.7730 H   0  0  0  0  0  0  0  0  0  0  0  0
  1  6  2  0
  2  1  1  0
  2  3  2  0
  3  4  1  0
  4  5  2  0
  6  5  1  0
  7  1  1  0
  8  2  1  0
  3  9  1  0
  5 10  1  0
  7 11  1  0
  8 12  1  0
M  ISO  4   9  14  10  14  11  11  12   3
M  END
>  <minimizedAffinity>  (1) 
-2.60156608

>  <minimizedRMSD>  (1) 
0.032413505

$$$$
