
     RDKit          3D

 12 12  0  0  0  0  0  0  0  0999 V2000
   45.7450   34.7540   44.0160 C   0  0  0  0  0  0  0  0  0  0  0  0
   46.8420   34.1180   43.4150 C   0  0  0  0  0  0  0  0  0  0  0  0
   47.4460   33.0590   44.0820 C   0  0  0  0  0  0  0  0  0  0  0  0
   46.9420   32.6950   45.2830 N   0  0  0  0  0  0  0  0  0  0  0  0
   45.8940   33.3070   45.8510 C   0  0  0  0  0  0  0  0  0  0  0  0
   45.2920   34.3370   45.2220 N   0  0  0  0  0  0  0  0  0  0  0  0
   44.9030   36.1300   43.2260 S   0  0  0  0  0  0  0  0  0  0  0  0
   47.4170   34.6980   41.8130 S   0  0  0  0  0  0  0  0  0  0  0  0
   48.3080   32.5327   43.6462 H   0  0  0  0  0  0  0  0  0  0  0  0
   45.5246   32.9693   46.8305 H   0  0  0  0  0  0  0  0  0  0  0  0
   44.3924   36.9644   44.1852 H   0  0  0  0  0  0  0  0  0  0  0  0
   48.3732   35.6625   41.9928 H   0  0  0  0  0  0  0  0  0  0  0  0
  1  6  2  0
  2  1  1  0
  2  3  2  0
  3  4  1  0
  4  5  2  0
  6  5  1  0
  7  1  1  0
  8  2  1  0
  3  9  1  0
  5 10  1  0
  7 11  1  0
  8 12  1  0
M  ISO  4   9  14  10  14  11  11  12  11
M  END
>  <minimizedAffinity>  (1) 
-2.67700243

>  <minimizedRMSD>  (1) 
0.319390893

$$$$
