
     RDKit          3D

 34 36  0  0  0  0  0  0  0  0999 V2000
   45.3820   34.7310   43.6890 C   0  0  0  0  0  0  0  0  0  0  0  0
   46.5310   34.0490   43.3200 C   0  0  0  0  0  0  0  0  0  0  0  0
   47.1720   33.2760   44.3080 C   0  0  0  0  0  0  0  0  0  0  0  0
   46.6070   33.2540   45.5650 N   0  0  0  0  0  0  0  0  0  0  0  0
   45.4950   33.9280   45.8750 C   0  0  0  0  0  0  0  0  0  0  0  0
   44.8500   34.6850   44.9470 N   0  0  0  0  0  0  0  0  0  0  0  0
   47.8730   34.0210   39.3110 C   0  0  0  0  0  0  0  0  0  0  0  0
   48.3930   34.9980   40.1640 C   0  0  0  0  0  0  0  0  0  0  0  0
   47.9710   35.0290   41.4770 C   0  0  0  0  0  0  0  0  0  0  0  0
   47.0510   34.1290   41.9800 C   0  0  0  0  0  0  0  0  0  0  0  0
   46.5440   33.1750   41.1420 C   0  0  0  0  0  0  0  0  0  0  0  0
   46.9500   33.1160   39.8100 C   0  0  0  0  0  0  0  0  0  0  0  0
   48.4530   34.0420   37.6650 S   0  0  0  0  0  0  0  0  0  0  0  0
   49.5130   33.0050   37.4430 O   0  0  0  0  0  0  0  0  0  0  0  0
   47.3420   33.7380   36.6750 O   0  0  0  0  0  0  0  0  0  0  0  0
   44.5100   35.7590   42.4950 S   0  0  0  0  0  0  0  0  0  0  0  0
   43.0650   34.8910   41.8570 C   0  0  0  0  0  0  0  0  0  0  0  0
   43.0420   33.5450   41.5130 C   0  0  0  0  0  0  0  0  0  0  0  0
   41.8650   33.0010   41.0350 C   0  0  0  0  0  0  0  0  0  0  0  0
   40.6940   33.7320   40.8770 C   0  0  0  0  0  0  0  0  0  0  0  0
   40.7230   35.0570   41.2180 C   0  0  0  0  0  0  0  0  0  0  0  0
   41.8870   35.6220   41.6990 C   0  0  0  0  0  0  0  0  0  0  0  0
   48.0891   32.7111   44.0847 H   0  0  0  0  0  0  0  0  0  0  0  0
   45.0948   33.8695   46.8979 H   0  0  0  0  0  0  0  0  0  0  0  0
   49.1264   35.7300   39.7948 H   0  0  0  0  0  0  0  0  0  0  0  0
   48.3817   35.7980   42.1478 H   0  0  0  0  0  0  0  0  0  0  0  0
   45.8103   32.4487   41.5218 H   0  0  0  0  0  0  0  0  0  0  0  0
   46.5333   32.3428   39.1478 H   0  0  0  0  0  0  0  0  0  0  0  0
   48.9508   35.3026   37.4652 H   0  0  0  0  0  0  0  0  0  0  0  0
   43.9438   32.9241   41.6192 H   0  0  0  0  0  0  0  0  0  0  0  0
   41.8547   31.9345   40.7658 H   0  0  0  0  0  0  0  0  0  0  0  0
   39.7768   33.2626   40.4917 H   0  0  0  0  0  0  0  0  0  0  0  0
   39.8178   35.6724   41.1087 H   0  0  0  0  0  0  0  0  0  0  0  0
   41.8859   36.6886   41.9679 H   0  0  0  0  0  0  0  0  0  0  0  0
  1  6  2  0
  2  1  1  0
  2  3  2  0
  3  4  1  0
  4  5  2  0
  6  5  1  0
  7 12  2  0
  7  8  1  0
  8  9  2  0
  9 10  1  0
 10  2  1  0
 11 10  2  0
 12 11  1  0
 13  7  1  0
 14 13  2  0
 15 13  2  0
 16  1  1  0
 17 16  1  0
 18 17  2  0
 19 18  1  0
 20 19  2  0
 20 21  1  0
 21 22  2  0
 22 17  1  0
  3 23  1  0
  5 24  1  0
  8 25  1  0
  9 26  1  0
 11 27  1  0
 12 28  1  0
 13 29  1  0
 18 30  1  0
 19 31  1  0
 20 32  1  0
 21 33  1  0
 22 34  1  0
M  ISO  8  23  14  24  14  25  14  26  14  27  14  28  14  29  11  30  14
M  ISO  4  31  14  32  14  33  14  34  14
M  END
>  <minimizedAffinity>  (1) 
-5.51459503

>  <minimizedRMSD>  (1) 
0.46262306

$$$$
