
     RDKit          3D

 36 38  0  0  1  0  0  0  0  0999 V2000
   45.3520   34.8330   43.9610 C   0  0  0  0  0  0  0  0  0  0  0  0
   46.4590   34.0650   43.5540 C   0  0  0  0  0  0  0  0  0  0  0  0
   47.0510   33.2260   44.5000 C   0  0  0  0  0  0  0  0  0  0  0  0
   46.5210   33.1980   45.7670 N   0  0  0  0  0  0  0  0  0  0  0  0
   45.4640   33.9450   46.1180 C   0  0  0  0  0  0  0  0  0  0  0  0
   44.8630   34.7740   45.2240 N   0  0  0  0  0  0  0  0  0  0  0  0
   47.7200   34.0500   39.5220 C   0  0  0  0  0  0  0  0  0  0  0  0
   48.3040   34.9850   40.3750 C   0  0  0  0  0  0  0  0  0  0  0  0
   47.9040   35.0050   41.6970 C   0  0  0  0  0  0  0  0  0  0  0  0
   46.9620   34.1490   42.2110 C   0  0  0  0  0  0  0  0  0  0  0  0
   46.3940   33.2290   41.3500 C   0  0  0  0  0  0  0  0  0  0  0  0
   46.7730   33.1820   40.0160 C   0  0  0  0  0  0  0  0  0  0  0  0
   48.2860   34.0960   37.8610 S   0  0  0  0  0  0  0  0  0  0  0  0
   49.3310   33.0640   37.6050 O   0  0  0  0  0  0  0  0  0  0  0  0
   47.1570   33.7990   36.8860 O   0  0  0  0  0  0  0  0  0  0  0  0
   44.5270   35.9340   42.7930 S   0  0  0  0  0  0  0  0  0  0  0  0
   41.9890   35.3680   42.4720 N   0  0  0  0  0  0  0  0  0  0  0  0
   41.2710   35.9380   41.3370 C   0  0  0  0  0  0  0  0  0  0  0  0
   41.7610   35.0280   40.2070 C   0  0  0  0  0  0  0  0  0  0  0  0
   43.2610   35.1050   40.4660 C   0  0  0  0  0  0  0  0  0  0  0  0
   43.2770   34.9540   41.9660 C   0  0  1  0  0  0  0  0  0  0  0  0
   47.9192   32.6036   44.2376 H   0  0  0  0  0  0  0  0  0  0  0  0
   45.0771   33.8859   47.1460 H   0  0  0  0  0  0  0  0  0  0  0  0
   49.0639   35.6889   40.0049 H   0  0  0  0  0  0  0  0  0  0  0  0
   48.3629   35.7432   42.3711 H   0  0  0  0  0  0  0  0  0  0  0  0
   45.6345   32.5276   41.7257 H   0  0  0  0  0  0  0  0  0  0  0  0
   46.3112   32.4424   39.3455 H   0  0  0  0  0  0  0  0  0  0  0  0
   48.7881   35.3573   37.6767 H   0  0  0  0  0  0  0  0  0  0  0  0
   42.1063   36.0748   43.2120 H   0  0  0  0  0  0  0  0  0  0  0  0
   40.1813   35.8685   41.4701 H   0  0  0  0  0  0  0  0  0  0  0  0
   41.4536   37.0102   41.1723 H   0  0  0  0  0  0  0  0  0  0  0  0
   41.4936   35.4223   39.2155 H   0  0  0  0  0  0  0  0  0  0  0  0
   41.3353   34.0137   40.2004 H   0  0  0  0  0  0  0  0  0  0  0  0
   43.8035   34.2880   39.9679 H   0  0  0  0  0  0  0  0  0  0  0  0
   43.7500   36.0146   40.0871 H   0  0  0  0  0  0  0  0  0  0  0  0
   43.5079   33.8985   42.1726 H   0  0  0  0  0  0  0  0  0  0  0  0
  1  6  2  0
  2  1  1  0
  2  3  2  0
  3  4  1  0
  4  5  2  0
  6  5  1  0
  7 12  2  0
  7  8  1  0
  8  9  2  0
  9 10  1  0
 10  2  1  0
 11 10  2  0
 12 11  1  0
 13  7  1  0
 14 13  2  0
 15 13  2  0
 16  1  1  0
 18 17  1  0
 19 20  1  0
 19 18  1  0
 20 21  1  0
 21 17  1  0
 21 16  1  0
  3 22  1  0
  5 23  1  0
  8 24  1  0
  9 25  1  0
 11 26  1  0
 12 27  1  0
 13 28  1  0
 17 29  1  0
 18 30  1  0
 18 31  1  0
 19 32  1  0
 19 33  1  0
 20 34  1  0
 20 35  1  0
 21 36  1  6
M  ISO  8  22  14  23  14  24  14  25  14  26  14  27  14  28  11  29   5
M  ISO  7  30  13  31  13  32  13  33  13  34  13  35  13  36  13
M  END
>  <minimizedAffinity>  (1) 
-5.86108971

>  <minimizedRMSD>  (1) 
0.279812515

$$$$
