
     RDKit          3D

 34 36  0  0  0  0  0  0  0  0999 V2000
   45.3930   34.7070   43.7370 C   0  0  0  0  0  0  0  0  0  0  0  0
   46.5470   34.0080   43.3660 C   0  0  0  0  0  0  0  0  0  0  0  0
   47.1920   33.2300   44.3370 C   0  0  0  0  0  0  0  0  0  0  0  0
   46.6480   33.2030   45.6030 N   0  0  0  0  0  0  0  0  0  0  0  0
   45.5340   33.8870   45.9330 C   0  0  0  0  0  0  0  0  0  0  0  0
   44.8970   34.6420   45.0160 N   0  0  0  0  0  0  0  0  0  0  0  0
   47.8490   34.0130   39.3460 C   0  0  0  0  0  0  0  0  0  0  0  0
   48.3690   34.9820   40.1900 C   0  0  0  0  0  0  0  0  0  0  0  0
   47.9610   35.0020   41.5080 C   0  0  0  0  0  0  0  0  0  0  0  0
   47.0480   34.0930   42.0300 C   0  0  0  0  0  0  0  0  0  0  0  0
   46.5470   33.1450   41.1820 C   0  0  0  0  0  0  0  0  0  0  0  0
   46.9490   33.1090   39.8450 C   0  0  0  0  0  0  0  0  0  0  0  0
   48.4140   34.0530   37.6900 S   0  0  0  0  0  0  0  0  0  0  0  0
   49.4750   33.0340   37.4450 O   0  0  0  0  0  0  0  0  0  0  0  0
   47.2960   33.7560   36.7030 O   0  0  0  0  0  0  0  0  0  0  0  0
   44.4920   35.7310   42.5680 S   0  0  0  0  0  0  0  0  0  0  0  0
   43.1360   34.8630   41.8090 C   0  0  0  0  0  0  0  0  0  0  0  0
   42.0530   35.7300   41.6100 C   0  0  0  0  0  0  0  0  0  0  0  0
   40.8670   35.2750   41.0220 C   0  0  0  0  0  0  0  0  0  0  0  0
   40.7490   33.9580   40.6290 C   0  0  0  0  0  0  0  0  0  0  0  0
   41.8310   33.1310   40.8380 C   0  0  0  0  0  0  0  0  0  0  0  0
   42.9950   33.5510   41.4080 C   0  0  0  0  0  0  0  0  0  0  0  0
   48.1017   32.6602   44.0968 H   0  0  0  0  0  0  0  0  0  0  0  0
   45.1418   33.8284   46.9590 H   0  0  0  0  0  0  0  0  0  0  0  0
   49.0931   35.7209   39.8161 H   0  0  0  0  0  0  0  0  0  0  0  0
   48.3767   35.7714   42.1752 H   0  0  0  0  0  0  0  0  0  0  0  0
   45.8227   32.4059   41.5550 H   0  0  0  0  0  0  0  0  0  0  0  0
   46.5341   32.3384   39.1786 H   0  0  0  0  0  0  0  0  0  0  0  0
   48.9011   35.3198   37.5033 H   0  0  0  0  0  0  0  0  0  0  0  0
   42.1361   36.7821   41.9200 H   0  0  0  0  0  0  0  0  0  0  0  0
   40.0270   35.9694   40.8729 H   0  0  0  0  0  0  0  0  0  0  0  0
   39.8249   33.5818   40.1657 H   0  0  0  0  0  0  0  0  0  0  0  0
   41.7510   32.0783   40.5290 H   0  0  0  0  0  0  0  0  0  0  0  0
   43.8242   32.8420   41.5487 H   0  0  0  0  0  0  0  0  0  0  0  0
  1  6  2  0
  2  1  1  0
  2  3  2  0
  3  4  1  0
  4  5  2  0
  6  5  1  0
  7 12  2  0
  7  8  1  0
  8  9  2  0
  9 10  1  0
 10  2  1  0
 11 10  2  0
 12 11  1  0
 13  7  1  0
 14 13  2  0
 15 13  2  0
 16  1  1  0
 17 16  1  0
 18 17  2  0
 19 18  1  0
 20 21  1  0
 20 19  2  0
 21 22  2  0
 22 17  1  0
  3 23  1  0
  5 24  1  0
  8 25  1  0
  9 26  1  0
 11 27  1  0
 12 28  1  0
 13 29  1  0
 18 30  1  0
 19 31  1  0
 20 32  1  0
 21 33  1  0
 22 34  1  0
M  ISO  8  23  14  24  14  25  14  26  14  27  14  28  14  29  11  30  14
M  ISO  4  31  14  32  14  33  14  34  14
M  END
>  <minimizedAffinity>  (1) 
-5.51172686

>  <minimizedRMSD>  (1) 
0.447636902

$$$$
