
     RDKit          3D

 27 28  0  0  0  0  0  0  0  0999 V2000
   47.7480   34.0440   39.5320 C   0  0  0  0  0  0  0  0  0  0  0  0
   48.3360   34.9450   40.4050 C   0  0  0  0  0  0  0  0  0  0  0  0
   47.9620   34.9300   41.7350 C   0  0  0  0  0  0  0  0  0  0  0  0
   47.0250   34.0510   42.2330 C   0  0  0  0  0  0  0  0  0  0  0  0
   46.4570   33.1680   41.3530 C   0  0  0  0  0  0  0  0  0  0  0  0
   46.8000   33.1440   40.0050 C   0  0  0  0  0  0  0  0  0  0  0  0
   45.5240   34.7400   44.0590 C   0  0  0  0  0  0  0  0  0  0  0  0
   46.5500   33.9260   43.5730 C   0  0  0  0  0  0  0  0  0  0  0  0
   47.0830   32.9900   44.4660 C   0  0  0  0  0  0  0  0  0  0  0  0
   46.5700   32.9370   45.7360 N   0  0  0  0  0  0  0  0  0  0  0  0
   45.5880   33.7340   46.1600 C   0  0  0  0  0  0  0  0  0  0  0  0
   45.0410   34.6570   45.3270 N   0  0  0  0  0  0  0  0  0  0  0  0
   44.7640   35.9900   42.9870 S   0  0  0  0  0  0  0  0  0  0  0  0
   43.4460   35.2430   41.9920 C   0  0  0  0  0  0  0  0  0  0  0  0
   48.2750   34.1250   37.8600 S   0  0  0  0  0  0  0  0  0  0  0  0
   49.3380   33.1200   37.5740 O   0  0  0  0  0  0  0  0  0  0  0  0
   47.1410   33.8370   36.8960 O   0  0  0  0  0  0  0  0  0  0  0  0
   49.0891   35.6613   40.0447 H   0  0  0  0  0  0  0  0  0  0  0  0
   48.4309   35.6483   42.4236 H   0  0  0  0  0  0  0  0  0  0  0  0
   45.7058   32.4553   41.7241 H   0  0  0  0  0  0  0  0  0  0  0  0
   46.3273   32.4224   39.3224 H   0  0  0  0  0  0  0  0  0  0  0  0
   47.8934   32.3136   44.1566 H   0  0  0  0  0  0  0  0  0  0  0  0
   45.2184   33.6431   47.1920 H   0  0  0  0  0  0  0  0  0  0  0  0
   42.6841   34.8112   42.6576 H   0  0  0  0  0  0  0  0  0  0  0  0
   42.9842   36.0136   41.3573 H   0  0  0  0  0  0  0  0  0  0  0  0
   43.8699   34.4509   41.3573 H   0  0  0  0  0  0  0  0  0  0  0  0
   48.7445   35.4001   37.6850 H   0  0  0  0  0  0  0  0  0  0  0  0
  1  6  2  0
  1  2  1  0
  2  3  2  0
  3  4  1  0
  4  8  1  0
  5  4  2  0
  6  5  1  0
  7 12  2  0
  8  7  1  0
  8  9  2  0
  9 10  1  0
 10 11  2  0
 12 11  1  0
 13  7  1  0
 14 13  1  0
 15  1  1  0
 16 15  2  0
 17 15  2  0
  2 18  1  0
  3 19  1  0
  5 20  1  0
  6 21  1  0
  9 22  1  0
 11 23  1  0
 14 24  1  0
 14 25  1  0
 14 26  1  0
 15 27  1  0
M  ISO  8  18  14  19  14  20  14  21  14  22  14  23  14  24   8  25   8
M  ISO  2  26   8  27  11
M  END
>  <minimizedAffinity>  (1) 
-4.76438475

>  <minimizedRMSD>  (1) 
0.0486481749

$$$$
