
     RDKit          3D

 26 28  0  0  0  0  0  0  0  0999 V2000
   45.5080   33.1210   46.5610 C   0  0  0  0  0  0  0  0  0  0  0  0
   44.9430   33.3910   47.6450 O   0  0  0  0  0  0  0  0  0  0  0  0
   46.1810   31.8260   46.4700 C   0  0  0  0  0  0  0  0  0  0  0  0
   46.0010   30.7390   45.6320 C   0  0  0  0  0  0  0  0  0  0  0  0
   46.8910   29.7920   45.9690 N   0  0  0  0  0  0  0  0  0  0  0  0
   47.6670   30.2060   47.0090 C   0  0  0  0  0  0  0  0  0  0  0  0
   48.7080   29.6480   47.7340 C   0  0  0  0  0  0  0  0  0  0  0  0
   49.3150   30.3350   48.7660 C   0  0  0  0  0  0  0  0  0  0  0  0
   48.8830   31.6120   49.0940 C   0  0  0  0  0  0  0  0  0  0  0  0
   47.8590   32.1340   48.3640 C   0  0  0  0  0  0  0  0  0  0  0  0
   47.2200   31.4780   47.3190 C   0  0  0  0  0  0  0  0  0  0  0  0
   44.6900   35.9530   44.3710 C   0  0  0  0  0  0  0  0  0  0  0  0
   45.5350   35.7400   43.2700 C   0  0  0  0  0  0  0  0  0  0  0  0
   46.3670   34.6250   43.3070 C   0  0  0  0  0  0  0  0  0  0  0  0
   46.3330   33.7960   44.3900 N   0  0  0  0  0  0  0  0  0  0  0  0
   45.5070   34.0380   45.4240 C   0  0  0  0  0  0  0  0  0  0  0  0
   44.6980   35.0980   45.4170 N   0  0  0  0  0  0  0  0  0  0  0  0
   45.2554   30.6639   44.8267 H   0  0  0  0  0  0  0  0  0  0  0  0
   46.9755   28.8767   45.5042 H   0  0  0  0  0  0  0  0  0  0  0  0
   49.0580   28.6361   47.4817 H   0  0  0  0  0  0  0  0  0  0  0  0
   50.1395   29.8710   49.3272 H   0  0  0  0  0  0  0  0  0  0  0  0
   49.3496   32.1806   49.9119 H   0  0  0  0  0  0  0  0  0  0  0  0
   47.5132   33.1465   48.6196 H   0  0  0  0  0  0  0  0  0  0  0  0
   44.0164   36.8226   44.3819 H   0  0  0  0  0  0  0  0  0  0  0  0
   45.5392   36.4278   42.4115 H   0  0  0  0  0  0  0  0  0  0  0  0
   47.0473   34.4136   42.4689 H   0  0  0  0  0  0  0  0  0  0  0  0
  1  2  2  0
  3  1  1  0
  3 11  1  0
  4  5  1  0
  4  3  2  0
  5  6  1  0
  6 11  2  0
  6  7  1  0
  7  8  2  0
  8  9  1  0
 10  9  2  0
 11 10  1  0
 12 17  2  0
 13 14  2  0
 13 12  1  0
 14 15  1  0
 15 16  2  0
 16  1  1  0
 17 16  1  0
  4 18  1  0
  5 19  1  0
  7 20  1  0
  8 21  1  0
  9 22  1  0
 10 23  1  0
 12 24  1  0
 13 25  1  0
 14 26  1  0
M  ISO  8  18  14  19   9  20  14  21  14  22  14  23  14  24  14  25  14
M  ISO  1  26  14
M  END
>  <minimizedAffinity>  (1) 
-5.10091972

>  <minimizedRMSD>  (1) 
1.55440974

$$$$
