
     RDKit          3D

 39 41  0  0  0  0  0  0  0  0999 V2000
   47.4660   32.0020   44.4550 C   0  0  0  0  0  0  0  0  0  0  0  0
   48.2050   31.0840   43.7060 C   0  0  0  0  0  0  0  0  0  0  0  0
   48.5450   29.8710   44.3120 C   0  0  0  0  0  0  0  0  0  0  0  0
   48.1220   29.6680   45.6130 N   0  0  0  0  0  0  0  0  0  0  0  0
   47.4100   30.5800   46.3000 C   0  0  0  0  0  0  0  0  0  0  0  0
   47.0680   31.7620   45.7370 N   0  0  0  0  0  0  0  0  0  0  0  0
   49.1120   31.8350   39.6510 C   0  0  0  0  0  0  0  0  0  0  0  0
   50.0440   32.2240   40.5990 C   0  0  0  0  0  0  0  0  0  0  0  0
   49.7850   31.9970   41.9420 C   0  0  0  0  0  0  0  0  0  0  0  0
   48.6030   31.3840   42.3510 C   0  0  0  0  0  0  0  0  0  0  0  0
   47.6880   31.0040   41.4030 C   0  0  0  0  0  0  0  0  0  0  0  0
   47.9490   31.2320   40.0500 C   0  0  0  0  0  0  0  0  0  0  0  0
   49.5340   32.1630   37.9840 S   0  0  0  0  0  0  0  0  0  0  0  0
   49.6350   30.9240   37.1690 O   0  0  0  0  0  0  0  0  0  0  0  0
   48.5000   33.0390   37.2940 O   0  0  0  0  0  0  0  0  0  0  0  0
   46.9830   33.5960   43.7350 S   0  0  0  0  0  0  0  0  0  0  0  0
   44.8470   36.7000   43.7640 N   0  0  0  0  0  0  0  0  0  0  0  0
   45.4000   35.8670   42.7400 C   0  0  0  0  0  0  0  0  0  0  0  0
   44.6470   34.5290   42.7740 C   0  0  0  0  0  0  0  0  0  0  0  0
   45.2040   33.8250   44.0190 C   0  0  0  0  0  0  0  0  0  0  0  0
   45.0640   34.7210   45.2120 C   0  0  0  0  0  0  0  0  0  0  0  0
   44.4150   36.0350   44.9480 C   0  0  0  0  0  0  0  0  0  0  0  0
   49.1266   29.1074   43.7748 H   0  0  0  0  0  0  0  0  0  0  0  0
   47.1018   30.3617   47.3332 H   0  0  0  0  0  0  0  0  0  0  0  0
   50.9815   32.7088   40.2890 H   0  0  0  0  0  0  0  0  0  0  0  0
   50.5241   32.3057   42.6959 H   0  0  0  0  0  0  0  0  0  0  0  0
   46.7486   30.5197   41.7081 H   0  0  0  0  0  0  0  0  0  0  0  0
   47.2109   30.9232   39.2951 H   0  0  0  0  0  0  0  0  0  0  0  0
   50.7471   32.7956   38.0548 H   0  0  0  0  0  0  0  0  0  0  0  0
   44.0346   37.1917   43.3651 H   0  0  0  0  0  0  0  0  0  0  0  0
   46.4706   35.7000   42.9296 H   0  0  0  0  0  0  0  0  0  0  0  0
   45.2955   36.3446   41.7546 H   0  0  0  0  0  0  0  0  0  0  0  0
   43.5632   34.6919   42.8682 H   0  0  0  0  0  0  0  0  0  0  0  0
   44.7857   33.9401   41.8553 H   0  0  0  0  0  0  0  0  0  0  0  0
   44.6716   32.8784   44.1934 H   0  0  0  0  0  0  0  0  0  0  0  0
   44.4641   34.1911   45.9665 H   0  0  0  0  0  0  0  0  0  0  0  0
   46.0879   34.9485   45.5435 H   0  0  0  0  0  0  0  0  0  0  0  0
   44.6226   36.6947   45.8034 H   0  0  0  0  0  0  0  0  0  0  0  0
   43.3452   35.8229   44.8049 H   0  0  0  0  0  0  0  0  0  0  0  0
  1  6  2  0
  2  3  2  0
  2  1  1  0
  3  4  1  0
  4  5  2  0
  6  5  1  0
  7 12  2  0
  7  8  1  0
  8  9  2  0
  9 10  1  0
 10  2  1  0
 11 10  2  0
 12 11  1  0
 13  7  1  0
 14 13  2  0
 15 13  2  0
 16 20  1  0
 16  1  1  0
 17 22  1  0
 18 19  1  0
 18 17  1  0
 19 20  1  0
 20 21  1  0
 22 21  1  0
  3 23  1  0
  5 24  1  0
  8 25  1  0
  9 26  1  0
 11 27  1  0
 12 28  1  0
 13 29  1  0
 17 30  1  0
 18 31  1  0
 18 32  1  0
 19 33  1  0
 19 34  1  0
 20 35  1  0
 21 36  1  0
 21 37  1  0
 22 38  1  0
 22 39  1  0
M  ISO  8  23  14  24  14  25  14  26  14  27  14  28  14  29  11  30   5
M  ISO  8  31  13  32  13  33  13  34  13  35  13  36  13  37  13  38  13
M  ISO  1  39  13
M  END
>  <minimizedAffinity>  (1) 
-4.36899948

>  <minimizedRMSD>  (1) 
3.22736573

$$$$
