
     RDKit          3D

 32 34  0  0  0  0  0  0  0  0999 V2000
   47.4040   35.2640   41.9870 C   0  0  0  0  0  0  0  0  0  0  0  0
   47.8100   34.2100   41.0400 C   0  0  0  0  0  0  0  0  0  0  0  0
   46.9760   33.9170   39.9900 C   0  0  0  0  0  0  0  0  0  0  0  0
   47.2700   32.9360   39.0700 C   0  0  0  0  0  0  0  0  0  0  0  0
   48.4380   32.2170   39.1980 C   0  0  0  0  0  0  0  0  0  0  0  0
   49.2700   32.5020   40.2370 C   0  0  0  0  0  0  0  0  0  0  0  0
   50.4320   31.7690   40.3370 C   0  0  0  0  0  0  0  0  0  0  0  0
   51.3020   32.0300   41.3720 C   0  0  0  0  0  0  0  0  0  0  0  0
   50.9870   33.0300   42.2940 C   0  0  0  0  0  0  0  0  0  0  0  0
   49.8360   33.7630   42.2050 C   0  0  0  0  0  0  0  0  0  0  0  0
   48.9760   33.4890   41.1630 C   0  0  0  0  0  0  0  0  0  0  0  0
   45.8980   35.2550   42.2030 C   0  0  0  0  0  0  0  0  0  0  0  0
   44.5210   35.2450   45.7620 C   0  0  0  0  0  0  0  0  0  0  0  0
   44.7120   35.6680   44.4230 C   0  0  0  0  0  0  0  0  0  0  0  0
   45.5920   34.9300   43.6490 C   0  0  0  0  0  0  0  0  0  0  0  0
   46.2360   33.8340   44.1970 N   0  0  0  0  0  0  0  0  0  0  0  0
   46.0190   33.4740   45.4710 C   0  0  0  0  0  0  0  0  0  0  0  0
   45.1720   34.1760   46.2360 N   0  0  0  0  0  0  0  0  0  0  0  0
   47.7035   36.2431   41.5850 H   0  0  0  0  0  0  0  0  0  0  0  0
   47.8968   35.0755   42.9522 H   0  0  0  0  0  0  0  0  0  0  0  0
   46.0407   34.4855   39.8799 H   0  0  0  0  0  0  0  0  0  0  0  0
   46.5785   32.7282   38.2402 H   0  0  0  0  0  0  0  0  0  0  0  0
   48.6933   31.4283   38.4750 H   0  0  0  0  0  0  0  0  0  0  0  0
   50.6619   30.9856   39.5999 H   0  0  0  0  0  0  0  0  0  0  0  0
   52.2354   31.4566   41.4713 H   0  0  0  0  0  0  0  0  0  0  0  0
   51.6866   33.2347   43.1178 H   0  0  0  0  0  0  0  0  0  0  0  0
   49.6037   34.5464   42.9415 H   0  0  0  0  0  0  0  0  0  0  0  0
   45.4873   36.2451   41.9559 H   0  0  0  0  0  0  0  0  0  0  0  0
   45.4415   34.4932   41.5539 H   0  0  0  0  0  0  0  0  0  0  0  0
   43.8325   35.7994   46.4167 H   0  0  0  0  0  0  0  0  0  0  0  0
   44.1847   36.5436   44.0165 H   0  0  0  0  0  0  0  0  0  0  0  0
   46.5384   32.5992   45.8892 H   0  0  0  0  0  0  0  0  0  0  0  0
  1 12  1  0
  2 11  1  0
  2  1  1  0
  3  2  2  0
  4  5  2  0
  4  3  1  0
  5  6  1  0
  6  7  1  0
  6 11  2  0
  7  8  2  0
  8  9  1  0
 10  9  2  0
 11 10  1  0
 12 15  1  0
 13 18  2  0
 14 13  1  0
 15 16  1  0
 15 14  2  0
 16 17  2  0
 17 18  1  0
  1 19  1  0
  1 20  1  0
  3 21  1  0
  4 22  1  0
  5 23  1  0
  7 24  1  0
  8 25  1  0
  9 26  1  0
 10 27  1  0
 12 28  1  0
 12 29  1  0
 13 30  1  0
 14 31  1  0
 17 32  1  0
M  ISO  8  19   8  20   8  21  14  22  14  23  14  24  14  25  14  26  14
M  ISO  6  27  14  28   8  29   8  30  14  31  14  32  14
M  END
>  <minimizedAffinity>  (1) 
-5.12698555

>  <minimizedRMSD>  (1) 
2.40217137

$$$$
