
     RDKit          3D

 26 27  0  0  0  0  0  0  0  0999 V2000
   45.3680   35.3420   43.5410 C   0  0  0  0  0  0  0  0  0  0  0  0
   46.4780   34.8080   42.8630 C   0  0  0  0  0  0  0  0  0  0  0  0
   47.2070   33.7970   43.4880 C   0  0  0  0  0  0  0  0  0  0  0  0
   46.8120   33.3830   44.7110 N   0  0  0  0  0  0  0  0  0  0  0  0
   45.7430   33.9070   45.3470 C   0  0  0  0  0  0  0  0  0  0  0  0
   45.0300   34.8710   44.7750 N   0  0  0  0  0  0  0  0  0  0  0  0
   45.3480   33.4370   46.6610 C   0  0  0  0  0  0  0  0  0  0  0  0
   44.5430   34.0610   47.4180 O   0  0  0  0  0  0  0  0  0  0  0  0
   45.7920   32.2370   47.2820 N   0  0  0  0  0  0  0  0  0  0  0  0
   47.2150   31.9600   47.1990 C   0  0  0  0  0  0  0  0  0  0  0  0
   47.7310   31.8990   48.6370 C   0  0  0  0  0  0  0  0  0  0  0  0
   47.0760   30.8410   49.3380 N   0  0  0  0  0  0  0  0  0  0  0  0
   45.6530   30.9550   49.3910 C   0  0  0  0  0  0  0  0  0  0  0  0
   45.0860   31.1970   48.0060 C   0  0  0  0  0  0  0  0  0  0  0  0
   44.7717   36.1405   43.0754 H   0  0  0  0  0  0  0  0  0  0  0  0
   46.7634   35.1776   41.8670 H   0  0  0  0  0  0  0  0  0  0  0  0
   48.0826   33.3476   42.9967 H   0  0  0  0  0  0  0  0  0  0  0  0
   47.3859   30.9984   46.6930 H   0  0  0  0  0  0  0  0  0  0  0  0
   47.7380   32.7367   46.6217 H   0  0  0  0  0  0  0  0  0  0  0  0
   48.8156   31.7160   48.6290 H   0  0  0  0  0  0  0  0  0  0  0  0
   47.5217   32.8544   49.1404 H   0  0  0  0  0  0  0  0  0  0  0  0
   47.3101   29.9531   48.8714 H   0  0  0  0  0  0  0  0  0  0  0  0
   45.2305   30.0242   49.7972 H   0  0  0  0  0  0  0  0  0  0  0  0
   45.3888   31.8057   50.0364 H   0  0  0  0  0  0  0  0  0  0  0  0
   44.0310   31.4923   48.1051 H   0  0  0  0  0  0  0  0  0  0  0  0
   45.1972   30.2632   47.4354 H   0  0  0  0  0  0  0  0  0  0  0  0
  1  6  2  0
  2  3  2  0
  2  1  1  0
  3  4  1  0
  4  5  2  0
  5  7  1  0
  6  5  1  0
  7  9  1  0
  7  8  2  0
  9 14  1  0
 10  9  1  0
 10 11  1  0
 11 12  1  0
 12 13  1  0
 14 13  1  0
  1 15  1  0
  2 16  1  0
  3 17  1  0
 10 18  1  0
 10 19  1  0
 11 20  1  0
 11 21  1  0
 12 22  1  0
 13 23  1  0
 13 24  1  0
 14 25  1  0
 14 26  1  0
M  ISO  8  15  14  16  14  17  14  18  13  19  13  20  13  21  13  22   5
M  ISO  4  23  13  24  13  25  13  26  13
M  END
>  <minimizedAffinity>  (1) 
-4.83913565

>  <minimizedRMSD>  (1) 
1.6711657

$$$$
