
     RDKit          3D

 25 26  0  0  0  0  0  0  0  0999 V2000
   44.6200   35.8920   44.4330 C   0  0  0  0  0  0  0  0  0  0  0  0
   45.4230   35.6540   43.3050 C   0  0  0  0  0  0  0  0  0  0  0  0
   46.3000   34.5710   43.3330 C   0  0  0  0  0  0  0  0  0  0  0  0
   46.3170   33.8170   44.4540 N   0  0  0  0  0  0  0  0  0  0  0  0
   45.5440   34.0600   45.5200 C   0  0  0  0  0  0  0  0  0  0  0  0
   44.6920   35.0870   45.5330 N   0  0  0  0  0  0  0  0  0  0  0  0
   45.6140   33.2080   46.6940 C   0  0  0  0  0  0  0  0  0  0  0  0
   44.8530   33.2780   47.6860 O   0  0  0  0  0  0  0  0  0  0  0  0
   46.5580   32.1620   46.8970 N   0  0  0  0  0  0  0  0  0  0  0  0
   46.5320   31.1040   45.9170 C   0  0  0  0  0  0  0  0  0  0  0  0
   47.7290   30.1970   46.1580 C   0  0  0  0  0  0  0  0  0  0  0  0
   47.8380   29.9370   47.5080 O   0  0  0  0  0  0  0  0  0  0  0  0
   48.2970   31.0430   48.2110 C   0  0  0  0  0  0  0  0  0  0  0  0
   47.4370   32.2520   48.0410 C   0  0  0  0  0  0  0  0  0  0  0  0
   43.9213   36.7416   44.4297 H   0  0  0  0  0  0  0  0  0  0  0  0
   45.3611   36.3063   42.4214 H   0  0  0  0  0  0  0  0  0  0  0  0
   46.9516   34.3397   42.4775 H   0  0  0  0  0  0  0  0  0  0  0  0
   46.5885   31.5329   44.9056 H   0  0  0  0  0  0  0  0  0  0  0  0
   45.5983   30.5293   46.0059 H   0  0  0  0  0  0  0  0  0  0  0  0
   47.5904   29.2524   45.6117 H   0  0  0  0  0  0  0  0  0  0  0  0
   48.6447   30.6922   45.8025 H   0  0  0  0  0  0  0  0  0  0  0  0
   48.3314   30.7870   49.2802 H   0  0  0  0  0  0  0  0  0  0  0  0
   49.2910   31.2925   47.8113 H   0  0  0  0  0  0  0  0  0  0  0  0
   48.0873   33.1302   47.9154 H   0  0  0  0  0  0  0  0  0  0  0  0
   46.8044   32.3351   48.9370 H   0  0  0  0  0  0  0  0  0  0  0  0
  1  6  2  0
  2  3  2  0
  2  1  1  0
  3  4  1  0
  4  5  2  0
  5  6  1  0
  5  7  1  0
  7  9  1  0
  7  8  2  0
  9 14  1  0
 10 11  1  0
 10  9  1  0
 11 12  1  0
 12 13  1  0
 14 13  1  0
  1 15  1  0
  2 16  1  0
  3 17  1  0
 10 18  1  0
 10 19  1  0
 11 20  1  0
 11 21  1  0
 13 22  1  0
 13 23  1  0
 14 24  1  0
 14 25  1  0
M  ISO  8  15  14  16  14  17  14  18  13  19  13  20  13  21  13  22  13
M  ISO  3  23  13  24  13  25  13
M  END
>  <minimizedAffinity>  (1) 
-4.46762896

>  <minimizedRMSD>  (1) 
0.526560426

$$$$
