
     RDKit          3D

 28 29  0  0  0  0  0  0  0  0999 V2000
   44.6390   35.9590   44.3950 C   0  0  0  0  0  0  0  0  0  0  0  0
   45.4400   35.6720   43.2580 C   0  0  0  0  0  0  0  0  0  0  0  0
   46.2700   34.5550   43.3120 C   0  0  0  0  0  0  0  0  0  0  0  0
   46.2790   33.7990   44.4310 N   0  0  0  0  0  0  0  0  0  0  0  0
   45.5000   34.1020   45.4980 C   0  0  0  0  0  0  0  0  0  0  0  0
   44.6880   35.1620   45.4980 N   0  0  0  0  0  0  0  0  0  0  0  0
   45.5430   33.2610   46.6810 C   0  0  0  0  0  0  0  0  0  0  0  0
   44.7900   33.4150   47.6910 O   0  0  0  0  0  0  0  0  0  0  0  0
   46.5260   32.1480   46.7190 C   0  0  0  0  0  0  0  0  0  0  0  0
   45.8730   30.8010   46.7470 C   0  0  0  0  0  0  0  0  0  0  0  0
   46.8770   29.7950   46.2100 C   0  0  0  0  0  0  0  0  0  0  0  0
   48.1850   30.0960   46.8740 C   0  0  0  0  0  0  0  0  0  0  0  0
   48.0220   30.8740   48.1590 C   0  0  0  0  0  0  0  0  0  0  0  0
   47.4300   32.2440   47.9410 C   0  0  0  0  0  0  0  0  0  0  0  0
   43.9723   36.8339   44.3846 H   0  0  0  0  0  0  0  0  0  0  0  0
   45.4060   36.3113   42.3635 H   0  0  0  0  0  0  0  0  0  0  0  0
   46.9088   34.2924   42.4559 H   0  0  0  0  0  0  0  0  0  0  0  0
   47.1125   32.2496   45.7940 H   0  0  0  0  0  0  0  0  0  0  0  0
   45.5950   30.5399   47.7788 H   0  0  0  0  0  0  0  0  0  0  0  0
   44.9593   30.8008   46.1346 H   0  0  0  0  0  0  0  0  0  0  0  0
   46.5552   28.7716   46.4530 H   0  0  0  0  0  0  0  0  0  0  0  0
   46.9629   29.8673   45.1157 H   0  0  0  0  0  0  0  0  0  0  0  0
   48.6917   29.1461   47.0997 H   0  0  0  0  0  0  0  0  0  0  0  0
   48.7733   30.7169   46.1823 H   0  0  0  0  0  0  0  0  0  0  0  0
   47.3603   30.3080   48.8312 H   0  0  0  0  0  0  0  0  0  0  0  0
   49.0235   31.0109   48.5929 H   0  0  0  0  0  0  0  0  0  0  0  0
   48.2301   32.9774   47.7625 H   0  0  0  0  0  0  0  0  0  0  0  0
   46.8629   32.5722   48.8246 H   0  0  0  0  0  0  0  0  0  0  0  0
  1  6  2  0
  2  3  2  0
  2  1  1  0
  3  4  1  0
  4  5  2  0
  5  6  1  0
  5  7  1  0
  7  9  1  0
  7  8  2  0
  9 10  1  0
  9 14  1  0
 11 10  1  0
 11 12  1  0
 12 13  1  0
 14 13  1  0
  1 15  1  0
  2 16  1  0
  3 17  1  0
  9 18  1  0
 10 19  1  0
 10 20  1  0
 11 21  1  0
 11 22  1  0
 12 23  1  0
 12 24  1  0
 13 25  1  0
 13 26  1  0
 14 27  1  0
 14 28  1  0
M  ISO  8  15  14  16  14  17  14  18  13  19  13  20  13  21  13  22  13
M  ISO  6  23  13  24  13  25  13  26  13  27  13  28  13
M  END
>  <minimizedAffinity>  (1) 
-4.45425034

>  <minimizedRMSD>  (1) 
1.10732615

$$$$
