
     RDKit          3D

 22 23  0  0  0  0  0  0  0  0999 V2000
   45.7330   33.0110   46.8350 C   0  0  0  0  0  0  0  0  0  0  0  0
   44.8140   33.1990   47.6960 O   0  0  0  0  0  0  0  0  0  0  0  0
   45.0020   35.3930   44.1720 C   0  0  0  0  0  0  0  0  0  0  0  0
   45.9760   35.0980   43.2050 C   0  0  0  0  0  0  0  0  0  0  0  0
   46.8870   34.0650   43.4910 C   0  0  0  0  0  0  0  0  0  0  0  0
   46.7800   33.4130   44.6680 N   0  0  0  0  0  0  0  0  0  0  0  0
   45.8230   33.7310   45.5740 C   0  0  0  0  0  0  0  0  0  0  0  0
   44.9280   34.7090   45.3520 N   0  0  0  0  0  0  0  0  0  0  0  0
   46.7000   31.9800   47.2610 C   0  0  0  0  0  0  0  0  0  0  0  0
   46.6380   30.7130   46.7030 C   0  0  0  0  0  0  0  0  0  0  0  0
   47.5970   29.8070   47.1750 C   0  0  0  0  0  0  0  0  0  0  0  0
   48.5490   30.1480   48.1380 C   0  0  0  0  0  0  0  0  0  0  0  0
   48.5150   31.4400   48.6220 C   0  0  0  0  0  0  0  0  0  0  0  0
   47.6060   32.3940   48.2120 C   0  0  0  0  0  0  0  0  0  0  0  0
   44.2783   36.1974   43.9739 H   0  0  0  0  0  0  0  0  0  0  0  0
   46.0251   35.6547   42.2575 H   0  0  0  0  0  0  0  0  0  0  0  0
   47.6716   33.7938   42.7693 H   0  0  0  0  0  0  0  0  0  0  0  0
   45.8901   30.4385   45.9445 H   0  0  0  0  0  0  0  0  0  0  0  0
   47.6001   28.7843   46.7700 H   0  0  0  0  0  0  0  0  0  0  0  0
   49.2923   29.4198   48.4947 H   0  0  0  0  0  0  0  0  0  0  0  0
   49.2578   31.7269   49.3809 H   0  0  0  0  0  0  0  0  0  0  0  0
   47.6052   33.4165   48.6176 H   0  0  0  0  0  0  0  0  0  0  0  0
  1  9  1  0
  1  2  2  0
  3  8  2  0
  4  5  2  0
  4  3  1  0
  5  6  1  0
  6  7  2  0
  7  1  1  0
  8  7  1  0
  9 14  2  0
 10 11  2  0
 10  9  1  0
 11 12  1  0
 12 13  2  0
 14 13  1  0
  3 15  1  0
  4 16  1  0
  5 17  1  0
 10 18  1  0
 11 19  1  0
 12 20  1  0
 13 21  1  0
 14 22  1  0
M  ISO  8  15  14  16  14  17  14  18  14  19  14  20  14  21  14  22  14
M  END
>  <minimizedAffinity>  (1) 
-4.36735964

>  <minimizedRMSD>  (1) 
1.11147225

$$$$
