
     RDKit          3D

 25 26  0  0  0  0  0  0  0  0999 V2000
   44.5240   35.5850   45.0660 C   0  0  0  0  0  0  0  0  0  0  0  0
   45.0650   35.7290   43.7680 C   0  0  0  0  0  0  0  0  0  0  0  0
   46.0370   34.8120   43.3570 C   0  0  0  0  0  0  0  0  0  0  0  0
   46.3980   33.8420   44.2270 N   0  0  0  0  0  0  0  0  0  0  0  0
   45.8680   33.7220   45.4640 C   0  0  0  0  0  0  0  0  0  0  0  0
   44.9410   34.5890   45.8700 N   0  0  0  0  0  0  0  0  0  0  0  0
   46.3110   32.6460   46.3460 C   0  0  0  0  0  0  0  0  0  0  0  0
   47.4430   32.1200   46.2560 O   0  0  0  0  0  0  0  0  0  0  0  0
   45.3880   32.1300   47.4140 C   0  0  0  0  0  0  0  0  0  0  0  0
   45.4500   30.6210   47.2900 C   0  0  0  0  0  0  0  0  0  0  0  0
   45.0340   30.1570   48.6460 C   0  0  0  0  0  0  0  0  0  0  0  0
   45.2680   31.3090   49.6200 C   0  0  0  0  0  0  0  0  0  0  0  0
   45.8860   32.4150   48.7830 C   0  0  0  0  0  0  0  0  0  0  0  0
   43.7583   36.2905   45.4210 H   0  0  0  0  0  0  0  0  0  0  0  0
   44.7313   36.5380   43.1015 H   0  0  0  0  0  0  0  0  0  0  0  0
   46.4933   34.8775   42.3582 H   0  0  0  0  0  0  0  0  0  0  0  0
   44.3975   32.5905   47.2842 H   0  0  0  0  0  0  0  0  0  0  0  0
   44.7557   30.2586   46.5176 H   0  0  0  0  0  0  0  0  0  0  0  0
   46.4412   30.2505   46.9895 H   0  0  0  0  0  0  0  0  0  0  0  0
   43.9687   29.8829   48.6382 H   0  0  0  0  0  0  0  0  0  0  0  0
   45.6150   29.2727   48.9468 H   0  0  0  0  0  0  0  0  0  0  0  0
   44.3163   31.6428   50.0591 H   0  0  0  0  0  0  0  0  0  0  0  0
   45.9168   31.0148   50.4582 H   0  0  0  0  0  0  0  0  0  0  0  0
   46.9844   32.3693   48.8197 H   0  0  0  0  0  0  0  0  0  0  0  0
   45.6180   33.4216   49.1364 H   0  0  0  0  0  0  0  0  0  0  0  0
  1  6  2  0
  2  1  1  0
  3  2  2  0
  3  4  1  0
  4  5  2  0
  5  6  1  0
  5  7  1  0
  7  9  1  0
  8  7  2  0
  9 13  1  0
 10  9  1  0
 10 11  1  0
 11 12  1  0
 13 12  1  0
  1 14  1  0
  2 15  1  0
  3 16  1  0
  9 17  1  0
 10 18  1  0
 10 19  1  0
 11 20  1  0
 11 21  1  0
 12 22  1  0
 12 23  1  0
 13 24  1  0
 13 25  1  0
M  ISO  8  14  14  15  14  16  14  17  13  18  13  19  13  20  13  21  13
M  ISO  4  22  13  23  13  24  13  25  13
M  END
>  <minimizedAffinity>  (1) 
-4.66288424

>  <minimizedRMSD>  (1) 
2.61197114

$$$$
