
     RDKit          3D

 24 25  0  0  0  0  0  0  0  0999 V2000
   44.5610   35.8500   44.5440 C   0  0  0  0  0  0  0  0  0  0  0  0
   45.3050   35.6310   43.3730 C   0  0  0  0  0  0  0  0  0  0  0  0
   46.1960   34.5370   43.3950 C   0  0  0  0  0  0  0  0  0  0  0  0
   46.2880   33.7690   44.5250 N   0  0  0  0  0  0  0  0  0  0  0  0
   45.5400   34.0400   45.6180 C   0  0  0  0  0  0  0  0  0  0  0  0
   44.6830   35.0600   45.6490 N   0  0  0  0  0  0  0  0  0  0  0  0
   45.6780   33.1940   46.7870 C   0  0  0  0  0  0  0  0  0  0  0  0
   44.8110   33.1290   47.7130 O   0  0  0  0  0  0  0  0  0  0  0  0
   46.7620   32.3300   47.0760 N   0  0  0  0  0  0  0  0  0  0  0  0
   47.1160   31.2470   46.1780 C   0  0  0  0  0  0  0  0  0  0  0  0
   47.1940   30.0940   47.1900 C   0  0  0  0  0  0  0  0  0  0  0  0
   47.8800   30.7600   48.3500 C   0  0  0  0  0  0  0  0  0  0  0  0
   47.7180   32.2510   48.1700 C   0  0  0  0  0  0  0  0  0  0  0  0
   43.8526   36.6911   44.5709 H   0  0  0  0  0  0  0  0  0  0  0  0
   45.1991   36.2761   42.4884 H   0  0  0  0  0  0  0  0  0  0  0  0
   46.8106   34.3034   42.5131 H   0  0  0  0  0  0  0  0  0  0  0  0
   46.3400   31.0740   45.4178 H   0  0  0  0  0  0  0  0  0  0  0  0
   48.0268   31.4105   45.5833 H   0  0  0  0  0  0  0  0  0  0  0  0
   46.1922   29.7347   47.4679 H   0  0  0  0  0  0  0  0  0  0  0  0
   47.7144   29.2010   46.8135 H   0  0  0  0  0  0  0  0  0  0  0  0
   47.4158   30.4421   49.2952 H   0  0  0  0  0  0  0  0  0  0  0  0
   48.9444   30.4846   48.3841 H   0  0  0  0  0  0  0  0  0  0  0  0
   48.6728   32.7255   47.8995 H   0  0  0  0  0  0  0  0  0  0  0  0
   47.3879   32.7711   49.0814 H   0  0  0  0  0  0  0  0  0  0  0  0
  1  6  2  0
  2  3  2  0
  2  1  1  0
  3  4  1  0
  4  5  2  0
  5  6  1  0
  5  7  1  0
  7  9  1  0
  7  8  2  0
  9 13  1  0
 10  9  1  0
 10 11  1  0
 11 12  1  0
 13 12  1  0
  1 14  1  0
  2 15  1  0
  3 16  1  0
 10 17  1  0
 10 18  1  0
 11 19  1  0
 11 20  1  0
 12 21  1  0
 12 22  1  0
 13 23  1  0
 13 24  1  0
M  ISO  8  14  14  15  14  16  14  17  13  18  13  19  13  20  13  21  13
M  ISO  3  22  13  23  13  24  13
M  END
>  <minimizedAffinity>  (1) 
-4.45397329

>  <minimizedRMSD>  (1) 
0.465261966

$$$$
