
     RDKit          3D

 30 32  0  0  0  0  0  0  0  0999 V2000
   44.5580   35.6080   42.7060 C   0  0  0  0  0  0  0  0  0  0  0  0
   45.6490   34.7920   43.2720 C   0  0  0  0  0  0  0  0  0  0  0  0
   45.7340   33.9220   44.3370 C   0  0  0  0  0  0  0  0  0  0  0  0
   46.9880   33.4390   44.4130 N   0  0  0  0  0  0  0  0  0  0  0  0
   47.7140   33.9790   43.4180 C   0  0  0  0  0  0  0  0  0  0  0  0
   49.0480   33.7700   43.1140 C   0  0  0  0  0  0  0  0  0  0  0  0
   49.5730   34.4480   42.0300 C   0  0  0  0  0  0  0  0  0  0  0  0
   48.8030   35.3060   41.2720 C   0  0  0  0  0  0  0  0  0  0  0  0
   47.4820   35.4810   41.6160 C   0  0  0  0  0  0  0  0  0  0  0  0
   46.9100   34.8280   42.6890 C   0  0  0  0  0  0  0  0  0  0  0  0
   44.1320   35.1030   41.3240 C   0  0  0  0  0  0  0  0  0  0  0  0
   40.3560   34.6600   41.5920 C   0  0  0  0  0  0  0  0  0  0  0  0
   41.5890   35.3140   41.5290 C   0  0  0  0  0  0  0  0  0  0  0  0
   42.7310   34.5380   41.4040 C   0  0  0  0  0  0  0  0  0  0  0  0
   42.6050   33.1640   41.3470 N   0  0  0  0  0  0  0  0  0  0  0  0
   41.3970   32.5760   41.4110 C   0  0  0  0  0  0  0  0  0  0  0  0
   40.2750   33.3110   41.5330 N   0  0  0  0  0  0  0  0  0  0  0  0
   43.6925   35.5655   43.3836 H   0  0  0  0  0  0  0  0  0  0  0  0
   44.9225   36.6401   42.5969 H   0  0  0  0  0  0  0  0  0  0  0  0
   44.9087   33.6634   45.0167 H   0  0  0  0  0  0  0  0  0  0  0  0
   47.3334   32.7689   45.1148 H   0  0  0  0  0  0  0  0  0  0  0  0
   49.6686   33.0882   43.7140 H   0  0  0  0  0  0  0  0  0  0  0  0
   50.6303   34.3000   41.7652 H   0  0  0  0  0  0  0  0  0  0  0  0
   49.2353   35.8383   40.4119 H   0  0  0  0  0  0  0  0  0  0  0  0
   46.8619   36.1635   41.0163 H   0  0  0  0  0  0  0  0  0  0  0  0
   44.8259   34.3172   40.9907 H   0  0  0  0  0  0  0  0  0  0  0  0
   44.1509   35.9368   40.6068 H   0  0  0  0  0  0  0  0  0  0  0  0
   39.4346   35.2526   41.6914 H   0  0  0  0  0  0  0  0  0  0  0  0
   41.6517   36.4112   41.5771 H   0  0  0  0  0  0  0  0  0  0  0  0
   41.3244   31.4794   41.3630 H   0  0  0  0  0  0  0  0  0  0  0  0
  1  2  1  0
  2  3  2  0
  3  4  1  0
  5  4  1  0
  6  5  2  0
  7  6  1  0
  8  9  1  0
  8  7  2  0
  9 10  2  0
 10  2  1  0
 10  5  1  0
 11 14  1  0
 11  1  1  0
 13 12  2  0
 14 13  1  0
 15 14  2  0
 15 16  1  0
 16 17  2  0
 17 12  1  0
  1 18  1  0
  1 19  1  0
  3 20  1  0
  4 21  1  0
  6 22  1  0
  7 23  1  0
  8 24  1  0
  9 25  1  0
 11 26  1  0
 11 27  1  0
 12 28  1  0
 13 29  1  0
 16 30  1  0
M  ISO  8  18   8  19   8  20  14  21   9  22  14  23  14  24  14  25  14
M  ISO  5  26   8  27   8  28  14  29  14  30  14
M  END
>  <minimizedAffinity>  (1) 
-5.08829021

>  <minimizedRMSD>  (1) 
4.90435839

$$$$
