
     RDKit          3D

 19 20  0  0  0  0  0  0  0  0999 V2000
   45.1930   35.3030   43.8780 C   0  0  0  0  0  0  0  0  0  0  0  0
   46.2520   34.8850   43.0580 C   0  0  0  0  0  0  0  0  0  0  0  0
   47.0700   33.8780   43.5630 C   0  0  0  0  0  0  0  0  0  0  0  0
   46.8110   33.3660   44.7840 N   0  0  0  0  0  0  0  0  0  0  0  0
   45.7970   33.7780   45.5490 C   0  0  0  0  0  0  0  0  0  0  0  0
   44.9900   34.7390   45.1060 N   0  0  0  0  0  0  0  0  0  0  0  0
   45.5230   33.2270   46.8580 C   0  0  0  0  0  0  0  0  0  0  0  0
   44.6440   33.5850   47.6520 O   0  0  0  0  0  0  0  0  0  0  0  0
   46.4150   32.0970   47.2820 C   0  0  0  0  0  0  0  0  0  0  0  0
   47.5590   32.2650   48.1400 C   0  0  0  0  0  0  0  0  0  0  0  0
   48.2260   31.1050   48.3960 C   0  0  0  0  0  0  0  0  0  0  0  0
   47.8240   29.8300   47.8570 C   0  0  0  0  0  0  0  0  0  0  0  0
   46.3040   30.3940   46.8700 S   0  0  0  0  0  0  0  0  0  0  0  0
   44.5164   36.0962   43.5273 H   0  0  0  0  0  0  0  0  0  0  0  0
   46.4269   35.3299   42.0673 H   0  0  0  0  0  0  0  0  0  0  0  0
   47.9191   33.5035   42.9723 H   0  0  0  0  0  0  0  0  0  0  0  0
   47.8656   33.2385   48.5502 H   0  0  0  0  0  0  0  0  0  0  0  0
   49.1135   31.1432   49.0448 H   0  0  0  0  0  0  0  0  0  0  0  0
   48.2656   28.8302   47.9806 H   0  0  0  0  0  0  0  0  0  0  0  0
  1  6  2  0
  2  3  2  0
  2  1  1  0
  3  4  1  0
  4  5  2  0
  5  7  1  0
  6  5  1  0
  7  9  1  0
  7  8  2  0
  9 10  2  0
 10 11  1  0
 12 11  2  0
 13  9  1  0
 13 12  1  0
  1 14  1  0
  2 15  1  0
  3 16  1  0
 10 17  1  0
 11 18  1  0
 12 19  1  0
M  ISO  6  14  14  15  14  16  14  17  14  18  14  19  14
M  END
>  <minimizedAffinity>  (1) 
-3.88898301

>  <minimizedRMSD>  (1) 
1.3715086

$$$$
