
     RDKit          3D

 19 20  0  0  0  0  0  0  0  0999 V2000
   44.8140   35.9610   43.8560 C   0  0  0  0  0  0  0  0  0  0  0  0
   45.7520   35.5410   42.8900 C   0  0  0  0  0  0  0  0  0  0  0  0
   46.5390   34.4410   43.2230 C   0  0  0  0  0  0  0  0  0  0  0  0
   46.3650   33.8480   44.4240 N   0  0  0  0  0  0  0  0  0  0  0  0
   45.4620   34.2780   45.3160 C   0  0  0  0  0  0  0  0  0  0  0  0
   44.6890   35.3280   45.0360 N   0  0  0  0  0  0  0  0  0  0  0  0
   45.3160   33.6020   46.5970 C   0  0  0  0  0  0  0  0  0  0  0  0
   44.5320   33.9750   47.4990 O   0  0  0  0  0  0  0  0  0  0  0  0
   46.1310   32.4120   46.8610 C   0  0  0  0  0  0  0  0  0  0  0  0
   47.2660   32.3340   47.6430 C   0  0  0  0  0  0  0  0  0  0  0  0
   47.7480   31.0360   47.6440 C   0  0  0  0  0  0  0  0  0  0  0  0
   46.8320   30.3660   46.8240 C   0  0  0  0  0  0  0  0  0  0  0  0
   45.9180   31.1850   46.3920 O   0  0  0  0  0  0  0  0  0  0  0  0
   44.1700   36.8260   43.6393 H   0  0  0  0  0  0  0  0  0  0  0  0
   45.8566   36.0556   41.9234 H   0  0  0  0  0  0  0  0  0  0  0  0
   47.2921   34.0604   42.5173 H   0  0  0  0  0  0  0  0  0  0  0  0
   47.7197   33.1772   48.1845 H   0  0  0  0  0  0  0  0  0  0  0  0
   48.6310   30.6317   48.1606 H   0  0  0  0  0  0  0  0  0  0  0  0
   46.8787   29.2947   46.5788 H   0  0  0  0  0  0  0  0  0  0  0  0
  1  6  2  0
  2  3  2  0
  2  1  1  0
  3  4  1  0
  4  5  2  0
  5  7  1  0
  6  5  1  0
  7  9  1  0
  7  8  2  0
  9 10  2  0
 10 11  1  0
 12 11  2  0
 13 12  1  0
 13  9  1  0
  1 14  1  0
  2 15  1  0
  3 16  1  0
 10 17  1  0
 11 18  1  0
 12 19  1  0
M  ISO  6  14  14  15  14  16  14  17  14  18  14  19  14
M  END
>  <minimizedAffinity>  (1) 
-3.93172193

>  <minimizedRMSD>  (1) 
1.06537342

$$$$
