
     RDKit          3D

 19 20  0  0  0  0  0  0  0  0999 V2000
   44.9610   35.4500   44.1300 C   0  0  0  0  0  0  0  0  0  0  0  0
   45.9460   35.1100   43.1700 C   0  0  0  0  0  0  0  0  0  0  0  0
   46.8380   34.0860   43.4840 C   0  0  0  0  0  0  0  0  0  0  0  0
   46.7010   33.4840   44.6860 N   0  0  0  0  0  0  0  0  0  0  0  0
   45.7680   33.8120   45.5870 C   0  0  0  0  0  0  0  0  0  0  0  0
   44.8970   34.7950   45.3080 N   0  0  0  0  0  0  0  0  0  0  0  0
   45.6730   33.1270   46.8600 C   0  0  0  0  0  0  0  0  0  0  0  0
   44.7310   33.3210   47.6910 O   0  0  0  0  0  0  0  0  0  0  0  0
   48.4300   31.3230   48.3280 N   0  0  0  0  0  0  0  0  0  0  0  0
   47.6770   32.3970   48.1450 N   0  0  0  0  0  0  0  0  0  0  0  0
   46.6770   32.1520   47.2760 C   0  0  0  0  0  0  0  0  0  0  0  0
   46.8640   30.8310   46.9270 C   0  0  0  0  0  0  0  0  0  0  0  0
   47.9590   30.3040   47.5800 C   0  0  0  0  0  0  0  0  0  0  0  0
   44.2427   36.2544   43.9133 H   0  0  0  0  0  0  0  0  0  0  0  0
   46.0050   35.6378   42.2067 H   0  0  0  0  0  0  0  0  0  0  0  0
   47.6247   33.7791   42.7791 H   0  0  0  0  0  0  0  0  0  0  0  0
   49.2512   31.2733   48.9478 H   0  0  0  0  0  0  0  0  0  0  0  0
   46.2272   30.2738   46.2241 H   0  0  0  0  0  0  0  0  0  0  0  0
   48.3586   29.2817   47.5071 H   0  0  0  0  0  0  0  0  0  0  0  0
  1  6  2  0
  2  3  2  0
  2  1  1  0
  3  4  1  0
  4  5  2  0
  5  7  1  0
  6  5  1  0
  7 11  1  0
  7  8  2  0
 10  9  1  0
 11 10  2  0
 12 11  1  0
 12 13  2  0
 13  9  1  0
  1 14  1  0
  2 15  1  0
  3 16  1  0
  9 17  1  0
 12 18  1  0
 13 19  1  0
M  ISO  6  14  14  15  14  16  14  17   9  18  14  19  14
M  END
>  <minimizedAffinity>  (1) 
-3.93450761

>  <minimizedRMSD>  (1) 
0.965717196

$$$$
