
     RDKit          3D

 13 13  0  0  0  0  0  0  0  0999 V2000
   44.5060   35.9460   44.5510 C   0  0  0  0  0  0  0  0  0  0  0  0
   45.2110   35.8020   43.3440 C   0  0  0  0  0  0  0  0  0  0  0  0
   46.1380   34.7580   43.2150 C   0  0  0  0  0  0  0  0  0  0  0  0
   46.3080   33.9340   44.2710 N   0  0  0  0  0  0  0  0  0  0  0  0
   45.6090   34.1020   45.4250 C   0  0  0  0  0  0  0  0  0  0  0  0
   44.7260   35.0880   45.5640 N   0  0  0  0  0  0  0  0  0  0  0  0
   45.8580   33.1680   46.5110 C   0  0  0  0  0  0  0  0  0  0  0  0
   45.0800   33.0430   47.5080 O   0  0  0  0  0  0  0  0  0  0  0  0
   46.9850   32.3400   46.5130 O   0  0  0  0  0  0  0  0  0  0  0  0
   43.7748   36.7595   44.6677 H   0  0  0  0  0  0  0  0  0  0  0  0
   45.0378   36.4993   42.5111 H   0  0  0  0  0  0  0  0  0  0  0  0
   46.7076   34.6151   42.2848 H   0  0  0  0  0  0  0  0  0  0  0  0
   47.1357   31.7109   47.2624 H   0  0  0  0  0  0  0  0  0  0  0  0
  1  6  2  0
  2  1  1  0
  3  2  2  0
  3  4  1  0
  4  5  2  0
  5  6  1  0
  5  7  1  0
  7  9  1  0
  7  8  2  0
  1 10  1  0
  2 11  1  0
  3 12  1  0
  9 13  1  0
M  ISO  4  10  14  11  14  12  14  13   3
M  END
>  <minimizedAffinity>  (1) 
-3.44065046

>  <minimizedRMSD>  (1) 
0.0737292916

$$$$
