
     RDKit          3D

 26 27  0  0  0  0  0  0  0  0999 V2000
   46.6210   34.7620   41.6450 C   0  0  0  0  0  0  0  0  0  0  0  0
   44.5440   36.0660   44.5510 C   0  0  0  0  0  0  0  0  0  0  0  0
   45.1260   36.0100   43.2860 C   0  0  0  0  0  0  0  0  0  0  0  0
   45.9460   34.9130   42.9870 C   0  0  0  0  0  0  0  0  0  0  0  0
   46.1440   33.9460   43.9420 N   0  0  0  0  0  0  0  0  0  0  0  0
   45.5480   34.0620   45.1570 C   0  0  0  0  0  0  0  0  0  0  0  0
   44.7640   35.1030   45.4500 N   0  0  0  0  0  0  0  0  0  0  0  0
   48.0200   35.4000   41.7130 C   0  0  0  0  0  0  0  0  0  0  0  0
   49.0370   34.3160   41.6830 C   0  0  0  0  0  0  0  0  0  0  0  0
   50.1580   34.3210   42.4850 C   0  0  0  0  0  0  0  0  0  0  0  0
   51.0210   33.2470   42.3540 C   0  0  0  0  0  0  0  0  0  0  0  0
   50.7660   32.2140   41.4550 C   0  0  0  0  0  0  0  0  0  0  0  0
   49.6420   32.2220   40.6610 C   0  0  0  0  0  0  0  0  0  0  0  0
   48.7900   33.2890   40.7960 C   0  0  0  0  0  0  0  0  0  0  0  0
   46.0226   35.2669   40.8723 H   0  0  0  0  0  0  0  0  0  0  0  0
   46.7110   33.6952   41.3923 H   0  0  0  0  0  0  0  0  0  0  0  0
   43.8948   36.9146   44.8126 H   0  0  0  0  0  0  0  0  0  0  0  0
   44.9474   36.8026   42.5445 H   0  0  0  0  0  0  0  0  0  0  0  0
   45.7144   33.2827   45.9153 H   0  0  0  0  0  0  0  0  0  0  0  0
   48.1650   36.0682   40.8513 H   0  0  0  0  0  0  0  0  0  0  0  0
   48.1217   35.9855   42.6387 H   0  0  0  0  0  0  0  0  0  0  0  0
   50.3568   35.1381   43.1940 H   0  0  0  0  0  0  0  0  0  0  0  0
   51.9289   33.2082   42.9739 H   0  0  0  0  0  0  0  0  0  0  0  0
   51.4756   31.3770   41.3784 H   0  0  0  0  0  0  0  0  0  0  0  0
   49.4357   31.4088   39.9495 H   0  0  0  0  0  0  0  0  0  0  0  0
   47.8813   33.3266   40.1773 H   0  0  0  0  0  0  0  0  0  0  0  0
  1  8  1  0
  1  4  1  0
  2  7  2  0
  3  2  1  0
  4  3  2  0
  4  5  1  0
  5  6  2  0
  6  7  1  0
  9  8  1  0
  9 10  2  0
 11 10  1  0
 12 11  2  0
 13 14  2  0
 13 12  1  0
 14  9  1  0
  1 15  1  0
  1 16  1  0
  2 17  1  0
  3 18  1  0
  6 19  1  0
  8 20  1  0
  8 21  1  0
 10 22  1  0
 11 23  1  0
 12 24  1  0
 13 25  1  0
 14 26  1  0
M  ISO  8  15   8  16   8  17  14  18  14  19  14  20   8  21   8  22  14
M  ISO  4  23  14  24  14  25  14  26  14
M  END
>  <minimizedAffinity>  (1) 
-4.8953352

>  <minimizedRMSD>  (1) 
2.32703829

$$$$
