
     RDKit          3D

 21 22  0  0  0  0  0  0  0  0999 V2000
   45.1010   35.4980   43.8010 C   0  0  0  0  0  0  0  0  0  0  0  0
   46.1390   35.0770   42.9560 C   0  0  0  0  0  0  0  0  0  0  0  0
   46.9480   34.0480   43.4300 C   0  0  0  0  0  0  0  0  0  0  0  0
   46.7030   33.5100   44.6620 N   0  0  0  0  0  0  0  0  0  0  0  0
   45.6980   33.9420   45.4410 C   0  0  0  0  0  0  0  0  0  0  0  0
   44.9130   34.9260   45.0050 N   0  0  0  0  0  0  0  0  0  0  0  0
   45.4880   33.3320   46.7380 C   0  0  0  0  0  0  0  0  0  0  0  0
   44.6250   33.7450   47.5550 O   0  0  0  0  0  0  0  0  0  0  0  0
   46.2830   32.1870   47.1660 C   0  0  0  0  0  0  0  0  0  0  0  0
   47.3830   32.4120   47.9880 C   0  0  0  0  0  0  0  0  0  0  0  0
   48.1710   31.3400   48.4180 C   0  0  0  0  0  0  0  0  0  0  0  0
   47.8430   30.0450   48.0150 C   0  0  0  0  0  0  0  0  0  0  0  0
   46.7430   29.8550   47.1970 C   0  0  0  0  0  0  0  0  0  0  0  0
   46.0240   30.9200   46.8150 N   0  0  0  0  0  0  0  0  0  0  0  0
   44.4311   36.3072   43.4749 H   0  0  0  0  0  0  0  0  0  0  0  0
   46.3049   35.5361   41.9703 H   0  0  0  0  0  0  0  0  0  0  0  0
   47.7793   33.6703   42.8166 H   0  0  0  0  0  0  0  0  0  0  0  0
   47.6334   33.4365   48.3005 H   0  0  0  0  0  0  0  0  0  0  0  0
   49.0411   31.5158   49.0677 H   0  0  0  0  0  0  0  0  0  0  0  0
   48.4497   29.1879   48.3426 H   0  0  0  0  0  0  0  0  0  0  0  0
   46.4626   28.8445   46.8650 H   0  0  0  0  0  0  0  0  0  0  0  0
  1  6  2  0
  2  3  2  0
  2  1  1  0
  3  4  1  0
  4  5  2  0
  5  7  1  0
  6  5  1  0
  7  9  1  0
  7  8  2  0
  9 10  2  0
 10 11  1  0
 12 11  2  0
 13 12  1  0
 14  9  1  0
 14 13  2  0
  1 15  1  0
  2 16  1  0
  3 17  1  0
 10 18  1  0
 11 19  1  0
 12 20  1  0
 13 21  1  0
M  ISO  7  15  14  16  14  17  14  18  14  19  14  20  14  21  14
M  END
>  <minimizedAffinity>  (1) 
-4.19897604

>  <minimizedRMSD>  (1) 
1.41496038

$$$$
