
     RDKit          3D

 37 40  0  0  0  0  0  0  0  0999 V2000
   46.0720   31.9980   47.1310 C   0  0  0  0  0  0  0  0  0  0  0  0
   47.3580   31.9900   47.6140 C   0  0  0  0  0  0  0  0  0  0  0  0
   48.0070   30.8050   47.9400 C   0  0  0  0  0  0  0  0  0  0  0  0
   47.3260   29.6130   47.7680 C   0  0  0  0  0  0  0  0  0  0  0  0
   46.0440   29.6050   47.2850 C   0  0  0  0  0  0  0  0  0  0  0  0
   45.5210   30.7980   47.0070 N   0  0  0  0  0  0  0  0  0  0  0  0
   45.1330   28.5010   47.0950 C   0  0  0  0  0  0  0  0  0  0  0  0
   44.9870   27.5740   48.1400 C   0  0  0  0  0  0  0  0  0  0  0  0
   44.1540   26.4810   48.1200 C   0  0  0  0  0  0  0  0  0  0  0  0
   43.3880   26.2440   47.0110 C   0  0  0  0  0  0  0  0  0  0  0  0
   43.4740   27.1080   45.9510 C   0  0  0  0  0  0  0  0  0  0  0  0
   42.6870   26.9060   44.8440 C   0  0  0  0  0  0  0  0  0  0  0  0
   42.6980   27.7670   43.7490 C   0  0  0  0  0  0  0  0  0  0  0  0
   43.5700   28.8540   43.8610 C   0  0  0  0  0  0  0  0  0  0  0  0
   44.3360   29.0230   44.9710 C   0  0  0  0  0  0  0  0  0  0  0  0
   44.3250   28.1780   46.0370 C   0  0  0  0  0  0  0  0  0  0  0  0
   45.4140   33.2550   46.7980 C   0  0  0  0  0  0  0  0  0  0  0  0
   44.6660   33.7330   47.6840 O   0  0  0  0  0  0  0  0  0  0  0  0
   45.0490   35.5110   43.9380 C   0  0  0  0  0  0  0  0  0  0  0  0
   46.0690   35.0870   43.0700 C   0  0  0  0  0  0  0  0  0  0  0  0
   46.8580   34.0220   43.5060 C   0  0  0  0  0  0  0  0  0  0  0  0
   46.6080   33.4590   44.7230 N   0  0  0  0  0  0  0  0  0  0  0  0
   45.6210   33.8950   45.5240 C   0  0  0  0  0  0  0  0  0  0  0  0
   44.8580   34.9090   45.1260 N   0  0  0  0  0  0  0  0  0  0  0  0
   47.8873   32.9452   47.7460 H   0  0  0  0  0  0  0  0  0  0  0  0
   49.0372   30.8146   48.3255 H   0  0  0  0  0  0  0  0  0  0  0  0
   47.8186   28.6627   48.0215 H   0  0  0  0  0  0  0  0  0  0  0  0
   45.5876   27.7358   49.0473 H   0  0  0  0  0  0  0  0  0  0  0  0
   44.1036   25.8043   48.9857 H   0  0  0  0  0  0  0  0  0  0  0  0
   42.7149   25.3749   46.9712 H   0  0  0  0  0  0  0  0  0  0  0  0
   42.0219   26.0301   44.8210 H   0  0  0  0  0  0  0  0  0  0  0  0
   42.0677   27.6038   42.8624 H   0  0  0  0  0  0  0  0  0  0  0  0
   43.6371   29.5825   43.0395 H   0  0  0  0  0  0  0  0  0  0  0  0
   45.0049   29.8954   45.0096 H   0  0  0  0  0  0  0  0  0  0  0  0
   44.3976   36.3466   43.6423 H   0  0  0  0  0  0  0  0  0  0  0  0
   46.2371   35.5701   42.0961 H   0  0  0  0  0  0  0  0  0  0  0  0
   47.6737   33.6401   42.8745 H   0  0  0  0  0  0  0  0  0  0  0  0
  1  2  2  0
  2  3  1  0
  4  3  2  0
  5  4  1  0
  6  1  1  0
  6  5  2  0
  7  5  1  0
  7  8  2  0
  9  8  1  0
 10  9  2  0
 11 16  2  0
 11 10  1  0
 12 11  1  0
 13 14  1  0
 13 12  2  0
 14 15  2  0
 15 16  1  0
 16  7  1  0
 17  1  1  0
 17 18  2  0
 19 24  2  0
 20 21  2  0
 20 19  1  0
 21 22  1  0
 22 23  2  0
 23 17  1  0
 24 23  1  0
  2 25  1  0
  3 26  1  0
  4 27  1  0
  8 28  1  0
  9 29  1  0
 10 30  1  0
 12 31  1  0
 13 32  1  0
 14 33  1  0
 15 34  1  0
 19 35  1  0
 20 36  1  0
 21 37  1  0
M  ISO  8  25  14  26  14  27  14  28  14  29  14  30  14  31  14  32  14
M  ISO  5  33  14  34  14  35  14  36  14  37  14
M  END
>  <minimizedAffinity>  (1) 
-5.64618206

>  <minimizedRMSD>  (1) 
0.982965231

$$$$
