
     RDKit          3D

 35 38  0  0  0  0  0  0  0  0999 V2000
   46.1540   32.1490   47.1500 C   0  0  0  0  0  0  0  0  0  0  0  0
   47.3830   32.2980   47.7960 C   0  0  0  0  0  0  0  0  0  0  0  0
   48.0720   31.1590   48.2540 C   0  0  0  0  0  0  0  0  0  0  0  0
   47.5160   29.9020   48.0520 C   0  0  0  0  0  0  0  0  0  0  0  0
   46.3070   29.7960   47.4110 C   0  0  0  0  0  0  0  0  0  0  0  0
   45.6940   30.9090   46.9980 N   0  0  0  0  0  0  0  0  0  0  0  0
   45.7310   28.4840   47.2040 C   0  0  0  0  0  0  0  0  0  0  0  0
   46.2430   27.2660   47.6160 C   0  0  0  0  0  0  0  0  0  0  0  0
   45.4210   26.2700   47.2370 N   0  0  0  0  0  0  0  0  0  0  0  0
   44.3580   26.7630   46.5740 C   0  0  0  0  0  0  0  0  0  0  0  0
   43.2610   26.1700   45.9960 C   0  0  0  0  0  0  0  0  0  0  0  0
   42.3140   26.9590   45.3720 C   0  0  0  0  0  0  0  0  0  0  0  0
   42.4740   28.3330   45.3340 C   0  0  0  0  0  0  0  0  0  0  0  0
   43.5950   28.8870   45.9290 C   0  0  0  0  0  0  0  0  0  0  0  0
   44.5610   28.1310   46.5610 C   0  0  0  0  0  0  0  0  0  0  0  0
   45.4640   33.3410   46.6870 C   0  0  0  0  0  0  0  0  0  0  0  0
   44.6300   33.8440   47.4970 O   0  0  0  0  0  0  0  0  0  0  0  0
   45.2160   35.4060   43.6680 C   0  0  0  0  0  0  0  0  0  0  0  0
   46.2820   34.9270   42.8760 C   0  0  0  0  0  0  0  0  0  0  0  0
   47.0450   33.9070   43.4170 C   0  0  0  0  0  0  0  0  0  0  0  0
   46.7460   33.4200   44.6590 N   0  0  0  0  0  0  0  0  0  0  0  0
   45.7190   33.9020   45.3890 C   0  0  0  0  0  0  0  0  0  0  0  0
   44.9780   34.8820   44.8800 N   0  0  0  0  0  0  0  0  0  0  0  0
   47.8106   33.3003   47.9462 H   0  0  0  0  0  0  0  0  0  0  0  0
   49.0399   31.2631   48.7662 H   0  0  0  0  0  0  0  0  0  0  0  0
   48.0397   29.0003   48.4024 H   0  0  0  0  0  0  0  0  0  0  0  0
   47.1830   27.1318   48.1713 H   0  0  0  0  0  0  0  0  0  0  0  0
   45.5825   25.2707   47.4275 H   0  0  0  0  0  0  0  0  0  0  0  0
   43.1382   25.0774   46.0299 H   0  0  0  0  0  0  0  0  0  0  0  0
   41.4326   26.4949   44.9053 H   0  0  0  0  0  0  0  0  0  0  0  0
   41.7262   28.9719   44.8414 H   0  0  0  0  0  0  0  0  0  0  0  0
   43.7211   29.9793   45.8964 H   0  0  0  0  0  0  0  0  0  0  0  0
   44.5753   36.2155   43.2883 H   0  0  0  0  0  0  0  0  0  0  0  0
   46.4951   35.3430   41.8803 H   0  0  0  0  0  0  0  0  0  0  0  0
   47.8896   33.4893   42.8494 H   0  0  0  0  0  0  0  0  0  0  0  0
  1  2  2  0
  2  3  1  0
  4  3  2  0
  5  4  1  0
  6  1  1  0
  6  5  2  0
  7  5  1  0
  7  8  2  0
  9  8  1  0
 10  9  1  0
 11 10  2  0
 12 11  1  0
 13 12  2  0
 13 14  1  0
 14 15  2  0
 15 10  1  0
 15  7  1  0
 16  1  1  0
 16 17  2  0
 18 23  2  0
 19 20  2  0
 19 18  1  0
 20 21  1  0
 21 22  2  0
 22 16  1  0
 23 22  1  0
  2 24  1  0
  3 25  1  0
  4 26  1  0
  8 27  1  0
  9 28  1  0
 11 29  1  0
 12 30  1  0
 13 31  1  0
 14 32  1  0
 18 33  1  0
 19 34  1  0
 20 35  1  0
M  ISO  8  24  14  25  14  26  14  27  14  28   9  29  14  30  14  31  14
M  ISO  4  32  14  33  14  34  14  35  14
M  END
>  <minimizedAffinity>  (1) 
-5.43037415

>  <minimizedRMSD>  (1) 
0.975539386

$$$$
