
     RDKit          3D

 32 35  0  0  0  0  0  0  0  0999 V2000
   46.3040   32.2250   47.2110 C   0  0  0  0  0  0  0  0  0  0  0  0
   47.4000   32.4880   48.0090 C   0  0  0  0  0  0  0  0  0  0  0  0
   48.1600   31.4390   48.5150 C   0  0  0  0  0  0  0  0  0  0  0  0
   47.8210   30.1290   48.2170 C   0  0  0  0  0  0  0  0  0  0  0  0
   46.7210   29.9010   47.4180 C   0  0  0  0  0  0  0  0  0  0  0  0
   46.0010   30.9380   46.9400 N   0  0  0  0  0  0  0  0  0  0  0  0
   46.4020   28.5430   47.1340 N   0  0  0  0  0  0  0  0  0  0  0  0
   47.0600   27.3800   47.2910 C   0  0  0  0  0  0  0  0  0  0  0  0
   46.2970   26.3580   46.8520 N   0  0  0  0  0  0  0  0  0  0  0  0
   45.1300   26.8530   46.4030 C   0  0  0  0  0  0  0  0  0  0  0  0
   44.0410   26.2000   45.8640 C   0  0  0  0  0  0  0  0  0  0  0  0
   42.9970   27.0030   45.5010 N   0  0  0  0  0  0  0  0  0  0  0  0
   43.0450   28.3370   45.6660 C   0  0  0  0  0  0  0  0  0  0  0  0
   44.1260   28.9310   46.1950 N   0  0  0  0  0  0  0  0  0  0  0  0
   45.2000   28.2100   46.5800 C   0  0  0  0  0  0  0  0  0  0  0  0
   45.5210   33.3460   46.6930 C   0  0  0  0  0  0  0  0  0  0  0  0
   44.6250   33.8030   47.4560 O   0  0  0  0  0  0  0  0  0  0  0  0
   45.2410   35.3540   43.6330 C   0  0  0  0  0  0  0  0  0  0  0  0
   46.3150   34.8890   42.8510 C   0  0  0  0  0  0  0  0  0  0  0  0
   47.0980   33.8930   43.4150 C   0  0  0  0  0  0  0  0  0  0  0  0
   46.8010   33.4270   44.6640 N   0  0  0  0  0  0  0  0  0  0  0  0
   45.7720   33.8920   45.3780 C   0  0  0  0  0  0  0  0  0  0  0  0
   44.9970   34.8500   44.8680 N   0  0  0  0  0  0  0  0  0  0  0  0
   47.6719   33.5275   48.2445 H   0  0  0  0  0  0  0  0  0  0  0  0
   49.0313   31.6495   49.1526 H   0  0  0  0  0  0  0  0  0  0  0  0
   48.4157   29.2906   48.6088 H   0  0  0  0  0  0  0  0  0  0  0  0
   48.0701   27.2778   47.7144 H   0  0  0  0  0  0  0  0  0  0  0  0
   44.0150   25.1079   45.7353 H   0  0  0  0  0  0  0  0  0  0  0  0
   42.1843   28.9511   45.3625 H   0  0  0  0  0  0  0  0  0  0  0  0
   44.5860   36.1426   43.2340 H   0  0  0  0  0  0  0  0  0  0  0  0
   46.5216   35.2929   41.8489 H   0  0  0  0  0  0  0  0  0  0  0  0
   47.9533   33.4807   42.8596 H   0  0  0  0  0  0  0  0  0  0  0  0
  1  2  2  0
  2  3  1  0
  4  3  2  0
  5  4  1  0
  6  1  1  0
  6  5  2  0
  7  8  1  0
  7  5  1  0
  9  8  2  0
 10 15  2  0
 10  9  1  0
 11 10  1  0
 12 13  1  0
 12 11  2  0
 13 14  2  0
 14 15  1  0
 15  7  1  0
 16  1  1  0
 16 17  2  0
 18 23  2  0
 19 20  2  0
 19 18  1  0
 20 21  1  0
 21 22  2  0
 22 16  1  0
 23 22  1  0
  2 24  1  0
  3 25  1  0
  4 26  1  0
  8 27  1  0
 11 28  1  0
 13 29  1  0
 18 30  1  0
 19 31  1  0
 20 32  1  0
M  ISO  8  24  14  25  14  26  14  27  14  28  14  29  14  30  14  31  14
M  ISO  1  32  14
M  END
>  <minimizedAffinity>  (1) 
-5.41434431

>  <minimizedRMSD>  (1) 
0.276560754

$$$$
