
     RDKit          3D

 32 34  0  0  0  0  0  0  0  0999 V2000
   46.1880   32.2900   47.1770 C   0  0  0  0  0  0  0  0  0  0  0  0
   47.3600   32.5010   47.8820 C   0  0  0  0  0  0  0  0  0  0  0  0
   48.0760   31.4320   48.4040 C   0  0  0  0  0  0  0  0  0  0  0  0
   47.6090   30.1390   48.2140 C   0  0  0  0  0  0  0  0  0  0  0  0
   46.4370   29.9560   47.5050 C   0  0  0  0  0  0  0  0  0  0  0  0
   45.7660   31.0190   47.0120 N   0  0  0  0  0  0  0  0  0  0  0  0
   45.9950   28.6140   47.3350 N   0  0  0  0  0  0  0  0  0  0  0  0
   44.7090   28.3270   47.1370 C   0  0  0  0  0  0  0  0  0  0  0  0
   44.4220   26.9680   46.9850 C   0  0  0  0  0  0  0  0  0  0  0  0
   45.3980   25.9870   47.0360 C   0  0  0  0  0  0  0  0  0  0  0  0
   45.1100   24.6130   46.8840 N   0  0  0  0  0  0  0  0  0  0  0  0
   46.6530   26.3800   47.2400 N   0  0  0  0  0  0  0  0  0  0  0  0
   46.9540   27.6690   47.3880 C   0  0  0  0  0  0  0  0  0  0  0  0
   48.1770   27.9630   47.5770 O   0  0  0  0  0  0  0  0  0  0  0  0
   45.4700   33.4400   46.6460 C   0  0  0  0  0  0  0  0  0  0  0  0
   44.6020   33.9500   47.4100 O   0  0  0  0  0  0  0  0  0  0  0  0
   45.2520   35.3970   43.5500 C   0  0  0  0  0  0  0  0  0  0  0  0
   46.3230   34.8960   42.7860 C   0  0  0  0  0  0  0  0  0  0  0  0
   47.0830   33.8980   43.3690 C   0  0  0  0  0  0  0  0  0  0  0  0
   46.7810   33.4490   44.6200 N   0  0  0  0  0  0  0  0  0  0  0  0
   45.7440   33.9530   45.3260 C   0  0  0  0  0  0  0  0  0  0  0  0
   45.0070   34.9130   44.7730 N   0  0  0  0  0  0  0  0  0  0  0  0
   47.7284   33.5268   48.0305 H   0  0  0  0  0  0  0  0  0  0  0  0
   49.0063   31.6086   48.9639 H   0  0  0  0  0  0  0  0  0  0  0  0
   48.1603   29.2777   48.6193 H   0  0  0  0  0  0  0  0  0  0  0  0
   43.9304   29.1030   47.0962 H   0  0  0  0  0  0  0  0  0  0  0  0
   43.3778   26.6649   46.8180 H   0  0  0  0  0  0  0  0  0  0  0  0
   45.8701   23.9194   46.9295 H   0  0  0  0  0  0  0  0  0  0  0  0
   44.1398   24.3044   46.7276 H   0  0  0  0  0  0  0  0  0  0  0  0
   44.6123   36.1917   43.1387 H   0  0  0  0  0  0  0  0  0  0  0  0
   46.5439   35.2780   41.7784 H   0  0  0  0  0  0  0  0  0  0  0  0
   47.9334   33.4656   42.8215 H   0  0  0  0  0  0  0  0  0  0  0  0
  1  2  2  0
  2  3  1  0
  4  3  2  0
  5  4  1  0
  6  1  1  0
  6  5  2  0
  7 13  1  0
  7  5  1  0
  8  7  1  0
  9 10  1  0
  9  8  2  0
 10 12  2  0
 11 10  1  0
 12 13  1  0
 13 14  2  0
 15  1  1  0
 15 16  2  0
 17 22  2  0
 18 19  2  0
 18 17  1  0
 19 20  1  0
 20 21  2  0
 21 15  1  0
 22 21  1  0
  2 23  1  0
  3 24  1  0
  4 25  1  0
  8 26  1  0
  9 27  1  0
 11 28  1  0
 11 29  1  0
 17 30  1  0
 18 31  1  0
 19 32  1  0
M  ISO  8  23  14  24  14  25  14  26  14  27  14  30  14  31  14  32  14
M  END
>  <minimizedAffinity>  (1) 
-5.32701874

>  <minimizedRMSD>  (1) 
0.630585849

$$$$
