
     RDKit          3D

 31 33  0  0  0  0  0  0  0  0999 V2000
   45.9110   32.3500   47.0360 C   0  0  0  0  0  0  0  0  0  0  0  0
   47.1390   32.4080   47.6650 C   0  0  0  0  0  0  0  0  0  0  0  0
   47.7150   31.2290   48.1710 C   0  0  0  0  0  0  0  0  0  0  0  0
   47.0230   30.0160   48.0220 C   0  0  0  0  0  0  0  0  0  0  0  0
   45.8040   30.0100   47.3880 C   0  0  0  0  0  0  0  0  0  0  0  0
   45.3040   31.1540   46.9280 N   0  0  0  0  0  0  0  0  0  0  0  0
   45.0150   28.7980   47.1880 C   0  0  0  0  0  0  0  0  0  0  0  0
   44.1530   28.7340   46.1120 C   0  0  0  0  0  0  0  0  0  0  0  0
   43.3570   27.6450   45.8180 C   0  0  0  0  0  0  0  0  0  0  0  0
   43.4280   26.5470   46.6590 C   0  0  0  0  0  0  0  0  0  0  0  0
   44.2790   26.5840   47.7420 C   0  0  0  0  0  0  0  0  0  0  0  0
   45.0590   27.6870   48.0030 C   0  0  0  0  0  0  0  0  0  0  0  0
   45.3440   33.5940   46.5190 C   0  0  0  0  0  0  0  0  0  0  0  0
   44.5560   34.2110   47.2610 O   0  0  0  0  0  0  0  0  0  0  0  0
   45.3220   35.4950   43.3700 C   0  0  0  0  0  0  0  0  0  0  0  0
   46.4100   34.9550   42.6660 C   0  0  0  0  0  0  0  0  0  0  0  0
   47.1240   33.9460   43.2980 C   0  0  0  0  0  0  0  0  0  0  0  0
   46.7430   33.5340   44.5480 N   0  0  0  0  0  0  0  0  0  0  0  0
   45.6930   34.0790   45.1900 C   0  0  0  0  0  0  0  0  0  0  0  0
   45.0000   35.0460   44.5960 N   0  0  0  0  0  0  0  0  0  0  0  0
   47.6629   33.3695   47.7695 H   0  0  0  0  0  0  0  0  0  0  0  0
   48.6921   31.2565   48.6755 H   0  0  0  0  0  0  0  0  0  0  0  0
   47.4526   29.0802   48.4090 H   0  0  0  0  0  0  0  0  0  0  0  0
   44.0966   29.6073   45.4455 H   0  0  0  0  0  0  0  0  0  0  0  0
   42.6884   27.6493   44.9445 H   0  0  0  0  0  0  0  0  0  0  0  0
   42.8125   25.6562   46.4648 H   0  0  0  0  0  0  0  0  0  0  0  0
   44.3360   25.7135   48.4120 H   0  0  0  0  0  0  0  0  0  0  0  0
   45.7284   27.6822   48.8759 H   0  0  0  0  0  0  0  0  0  0  0  0
   44.7243   36.2969   42.9121 H   0  0  0  0  0  0  0  0  0  0  0  0
   46.6834   35.3138   41.6627 H   0  0  0  0  0  0  0  0  0  0  0  0
   47.9877   33.4815   42.7998 H   0  0  0  0  0  0  0  0  0  0  0  0
  1  2  2  0
  2  3  1  0
  4  3  2  0
  5  4  1  0
  6  1  1  0
  6  5  2  0
  7  5  1  0
  7 12  1  0
  8  7  2  0
  9  8  1  0
  9 10  2  0
 10 11  1  0
 11 12  2  0
 13  1  1  0
 13 14  2  0
 15 20  2  0
 16 17  2  0
 16 15  1  0
 17 18  1  0
 18 19  2  0
 19 13  1  0
 20 19  1  0
  2 21  1  0
  3 22  1  0
  4 23  1  0
  8 24  1  0
  9 25  1  0
 10 26  1  0
 11 27  1  0
 12 28  1  0
 15 29  1  0
 16 30  1  0
 17 31  1  0
M  ISO  8  21  14  22  14  23  14  24  14  25  14  26  14  27  14  28  14
M  ISO  3  29  14  30  14  31  14
M  END
>  <minimizedAffinity>  (1) 
-5.26649857

>  <minimizedRMSD>  (1) 
1.19476938

$$$$
