
     RDKit          3D

 37 39  0  0  0  0  0  0  0  0999 V2000
   46.0550   32.3090   46.9800 C   0  0  0  0  0  0  0  0  0  0  0  0
   47.1650   32.4170   47.8190 C   0  0  0  0  0  0  0  0  0  0  0  0
   47.8020   31.2650   48.2930 C   0  0  0  0  0  0  0  0  0  0  0  0
   47.3080   30.0140   47.9130 C   0  0  0  0  0  0  0  0  0  0  0  0
   46.2120   29.9490   47.0840 C   0  0  0  0  0  0  0  0  0  0  0  0
   45.6380   31.0740   46.6580 N   0  0  0  0  0  0  0  0  0  0  0  0
   45.6830   28.6210   46.6760 C   0  0  0  0  0  0  0  0  0  0  0  0
   44.6060   28.8020   45.6300 C   0  0  0  0  0  0  0  0  0  0  0  0
   44.0690   27.4270   45.2620 C   0  0  0  0  0  0  0  0  0  0  0  0
   43.3690   26.8710   46.4610 C   0  0  0  0  0  0  0  0  0  0  0  0
   44.3910   26.6660   47.5620 C   0  0  0  0  0  0  0  0  0  0  0  0
   45.0320   27.9930   47.8900 C   0  0  0  0  0  0  0  0  0  0  0  0
   45.4140   33.5350   46.5030 C   0  0  0  0  0  0  0  0  0  0  0  0
   44.6050   34.0770   47.2920 O   0  0  0  0  0  0  0  0  0  0  0  0
   45.2690   35.5250   43.4270 C   0  0  0  0  0  0  0  0  0  0  0  0
   46.3460   35.0490   42.6790 C   0  0  0  0  0  0  0  0  0  0  0  0
   47.1020   34.0450   43.2570 C   0  0  0  0  0  0  0  0  0  0  0  0
   46.7740   33.5740   44.5020 N   0  0  0  0  0  0  0  0  0  0  0  0
   45.7220   34.0660   45.1900 C   0  0  0  0  0  0  0  0  0  0  0  0
   44.9850   35.0320   44.6450 N   0  0  0  0  0  0  0  0  0  0  0  0
   47.5399   33.4099   48.1082 H   0  0  0  0  0  0  0  0  0  0  0  0
   48.6777   31.3426   48.9542 H   0  0  0  0  0  0  0  0  0  0  0  0
   47.7896   29.0927   48.2724 H   0  0  0  0  0  0  0  0  0  0  0  0
   46.4988   28.0004   46.2769 H   0  0  0  0  0  0  0  0  0  0  0  0
   43.7937   29.4235   46.0349 H   0  0  0  0  0  0  0  0  0  0  0  0
   45.0185   29.3007   44.7405 H   0  0  0  0  0  0  0  0  0  0  0  0
   43.3623   27.5139   44.4235 H   0  0  0  0  0  0  0  0  0  0  0  0
   44.8915   26.7635   44.9565 H   0  0  0  0  0  0  0  0  0  0  0  0
   42.5954   27.5761   46.7993 H   0  0  0  0  0  0  0  0  0  0  0  0
   42.8902   25.9136   46.2079 H   0  0  0  0  0  0  0  0  0  0  0  0
   43.8933   26.2654   48.4574 H   0  0  0  0  0  0  0  0  0  0  0  0
   45.1600   25.9540   47.2278 H   0  0  0  0  0  0  0  0  0  0  0  0
   45.7984   27.8362   48.6633 H   0  0  0  0  0  0  0  0  0  0  0  0
   44.2441   28.6737   48.2447 H   0  0  0  0  0  0  0  0  0  0  0  0
   44.6369   36.3229   43.0102 H   0  0  0  0  0  0  0  0  0  0  0  0
   46.5816   35.4507   41.6824 H   0  0  0  0  0  0  0  0  0  0  0  0
   47.9646   33.6254   42.7187 H   0  0  0  0  0  0  0  0  0  0  0  0
  1  2  2  0
  2  3  1  0
  4  3  2  0
  5  4  1  0
  6  1  1  0
  6  5  2  0
  7  5  1  0
  7 12  1  0
  8  7  1  0
  9  8  1  0
  9 10  1  0
 10 11  1  0
 11 12  1  0
 13  1  1  0
 13 14  2  0
 15 20  2  0
 16 17  2  0
 16 15  1  0
 17 18  1  0
 18 19  2  0
 19 13  1  0
 20 19  1  0
  2 21  1  0
  3 22  1  0
  4 23  1  0
  7 24  1  0
  8 25  1  0
  8 26  1  0
  9 27  1  0
  9 28  1  0
 10 29  1  0
 10 30  1  0
 11 31  1  0
 11 32  1  0
 12 33  1  0
 12 34  1  0
 15 35  1  0
 16 36  1  0
 17 37  1  0
M  ISO  8  21  14  22  14  23  14  24  13  25  13  26  13  27  13  28  13
M  ISO  8  29  13  30  13  31  13  32  13  33  13  34  13  35  14  36  14
M  ISO  1  37  14
M  END
>  <minimizedAffinity>  (1) 
-5.10205603

>  <minimizedRMSD>  (1) 
0.979406953

$$$$
