
     RDKit          3D

 35 37  0  0  0  0  0  0  0  0999 V2000
   46.2660   32.2380   47.2560 C   0  0  0  0  0  0  0  0  0  0  0  0
   47.4440   32.5040   47.9660 C   0  0  0  0  0  0  0  0  0  0  0  0
   48.2080   31.4450   48.4770 C   0  0  0  0  0  0  0  0  0  0  0  0
   47.7770   30.1240   48.2680 C   0  0  0  0  0  0  0  0  0  0  0  0
   46.6050   29.8950   47.5600 C   0  0  0  0  0  0  0  0  0  0  0  0
   45.9420   30.9580   47.1100 N   0  0  0  0  0  0  0  0  0  0  0  0
   46.1960   28.5710   47.3640 N   0  0  0  0  0  0  0  0  0  0  0  0
   47.1280   27.4900   47.2690 C   0  0  0  0  0  0  0  0  0  0  0  0
   46.4800   26.3570   46.5040 C   0  0  0  0  0  0  0  0  0  0  0  0
   45.2840   25.8720   47.1530 N   0  0  0  0  0  0  0  0  0  0  0  0
   44.6810   26.8720   48.0160 C   0  0  0  0  0  0  0  0  0  0  0  0
   44.8010   28.1910   47.2420 C   0  0  0  0  0  0  0  0  0  0  0  0
   45.4930   33.3480   46.7370 C   0  0  0  0  0  0  0  0  0  0  0  0
   44.5970   33.8030   47.5050 O   0  0  0  0  0  0  0  0  0  0  0  0
   45.2270   35.3520   43.6800 C   0  0  0  0  0  0  0  0  0  0  0  0
   46.2920   34.8780   42.8950 C   0  0  0  0  0  0  0  0  0  0  0  0
   47.0730   33.8720   43.4540 C   0  0  0  0  0  0  0  0  0  0  0  0
   46.7740   33.4060   44.7040 N   0  0  0  0  0  0  0  0  0  0  0  0
   45.7470   33.8890   45.4200 C   0  0  0  0  0  0  0  0  0  0  0  0
   45.0000   34.8450   44.8960 N   0  0  0  0  0  0  0  0  0  0  0  0
   47.7695   33.5430   48.1226 H   0  0  0  0  0  0  0  0  0  0  0  0
   49.1343   31.6461   49.0352 H   0  0  0  0  0  0  0  0  0  0  0  0
   48.3623   29.2798   48.6614 H   0  0  0  0  0  0  0  0  0  0  0  0
   48.0314   27.8256   46.7387 H   0  0  0  0  0  0  0  0  0  0  0  0
   47.4106   27.1491   48.2759 H   0  0  0  0  0  0  0  0  0  0  0  0
   47.1990   25.5285   46.4221 H   0  0  0  0  0  0  0  0  0  0  0  0
   46.1941   26.7396   45.5131 H   0  0  0  0  0  0  0  0  0  0  0  0
   44.6011   25.6028   46.4305 H   0  0  0  0  0  0  0  0  0  0  0  0
   43.6249   26.6310   48.2074 H   0  0  0  0  0  0  0  0  0  0  0  0
   45.1759   26.9228   48.9971 H   0  0  0  0  0  0  0  0  0  0  0  0
   44.1505   28.9598   47.6846 H   0  0  0  0  0  0  0  0  0  0  0  0
   44.4917   28.0840   46.1918 H   0  0  0  0  0  0  0  0  0  0  0  0
   44.5744   36.1472   43.2904 H   0  0  0  0  0  0  0  0  0  0  0  0
   46.4969   35.2810   41.8922 H   0  0  0  0  0  0  0  0  0  0  0  0
   47.9238   33.4550   42.8952 H   0  0  0  0  0  0  0  0  0  0  0  0
  1  2  2  0
  2  3  1  0
  4  3  2  0
  5  4  1  0
  6  1  1  0
  6  5  2  0
  7  5  1  0
  8  7  1  0
  9 10  1  0
  9  8  1  0
 10 11  1  0
 12  7  1  0
 12 11  1  0
 13  1  1  0
 13 14  2  0
 15 20  2  0
 16 17  2  0
 16 15  1  0
 17 18  1  0
 18 19  2  0
 19 13  1  0
 20 19  1  0
  2 21  1  0
  3 22  1  0
  4 23  1  0
  8 24  1  0
  8 25  1  0
  9 26  1  0
  9 27  1  0
 10 28  1  0
 11 29  1  0
 11 30  1  0
 12 31  1  0
 12 32  1  0
 15 33  1  0
 16 34  1  0
 17 35  1  0
M  ISO  8  21  14  22  14  23  14  24  13  25  13  26  13  27  13  28   5
M  ISO  7  29  13  30  13  31  13  32  13  33  14  34  14  35  14
M  END
>  <minimizedAffinity>  (1) 
-5.03472567

>  <minimizedRMSD>  (1) 
0.488726348

$$$$
