
     RDKit          3D

 28 30  0  0  0  0  0  0  0  0999 V2000
   46.0710   32.4110   47.0670 C   0  0  0  0  0  0  0  0  0  0  0  0
   47.2520   32.5820   47.7960 C   0  0  0  0  0  0  0  0  0  0  0  0
   47.9010   31.4750   48.3330 C   0  0  0  0  0  0  0  0  0  0  0  0
   47.3820   30.2040   48.1470 C   0  0  0  0  0  0  0  0  0  0  0  0
   46.2190   30.0610   47.4270 C   0  0  0  0  0  0  0  0  0  0  0  0
   45.6260   31.1640   46.9260 N   0  0  0  0  0  0  0  0  0  0  0  0
   45.6470   28.7760   47.2090 N   0  0  0  0  0  0  0  0  0  0  0  0
   45.9440   27.4900   47.4720 C   0  0  0  0  0  0  0  0  0  0  0  0
   44.9060   26.7380   46.9560 C   0  0  0  0  0  0  0  0  0  0  0  0
   44.0020   27.5620   46.3950 N   0  0  0  0  0  0  0  0  0  0  0  0
   44.4570   28.8190   46.5480 C   0  0  0  0  0  0  0  0  0  0  0  0
   45.4120   33.5830   46.5180 C   0  0  0  0  0  0  0  0  0  0  0  0
   44.5580   34.1400   47.2630 O   0  0  0  0  0  0  0  0  0  0  0  0
   45.3240   35.4740   43.3730 C   0  0  0  0  0  0  0  0  0  0  0  0
   46.4050   34.9470   42.6560 C   0  0  0  0  0  0  0  0  0  0  0  0
   47.1340   33.9490   43.2800 C   0  0  0  0  0  0  0  0  0  0  0  0
   46.7820   33.5330   44.5310 N   0  0  0  0  0  0  0  0  0  0  0  0
   45.7320   34.0670   45.1920 C   0  0  0  0  0  0  0  0  0  0  0  0
   45.0170   35.0270   44.6110 N   0  0  0  0  0  0  0  0  0  0  0  0
   47.6670   33.5898   47.9445 H   0  0  0  0  0  0  0  0  0  0  0  0
   48.8295   31.6092   48.9073 H   0  0  0  0  0  0  0  0  0  0  0  0
   47.8913   29.3245   48.5679 H   0  0  0  0  0  0  0  0  0  0  0  0
   46.8357   27.1126   47.9939 H   0  0  0  0  0  0  0  0  0  0  0  0
   44.8307   25.6414   46.9972 H   0  0  0  0  0  0  0  0  0  0  0  0
   43.9514   29.7307   46.1972 H   0  0  0  0  0  0  0  0  0  0  0  0
   44.7123   36.2678   42.9196 H   0  0  0  0  0  0  0  0  0  0  0  0
   46.6618   35.3073   41.6489 H   0  0  0  0  0  0  0  0  0  0  0  0
   47.9945   33.4927   42.7688 H   0  0  0  0  0  0  0  0  0  0  0  0
  1  2  2  0
  2  3  1  0
  4  3  2  0
  5  4  1  0
  6  1  1  0
  6  5  2  0
  7  5  1  0
  7  8  1  0
  9  8  2  0
 10 11  2  0
 10  9  1  0
 11  7  1  0
 12  1  1  0
 12 13  2  0
 14 19  2  0
 15 16  2  0
 15 14  1  0
 16 17  1  0
 17 18  2  0
 18 12  1  0
 19 18  1  0
  2 20  1  0
  3 21  1  0
  4 22  1  0
  8 23  1  0
  9 24  1  0
 11 25  1  0
 14 26  1  0
 15 27  1  0
 16 28  1  0
M  ISO  8  20  14  21  14  22  14  23  14  24  14  25  14  26  14  27  14
M  ISO  1  28  14
M  END
>  <minimizedAffinity>  (1) 
-4.97296619

>  <minimizedRMSD>  (1) 
0.664231896

$$$$
