
     RDKit          3D

 30 32  0  0  0  0  0  0  0  0999 V2000
   45.8700   32.3600   46.9540 C   0  0  0  0  0  0  0  0  0  0  0  0
   47.1180   32.3440   47.5600 C   0  0  0  0  0  0  0  0  0  0  0  0
   47.6600   31.1530   48.0310 C   0  0  0  0  0  0  0  0  0  0  0  0
   46.9430   29.9740   47.8920 C   0  0  0  0  0  0  0  0  0  0  0  0
   45.7030   30.0120   47.2860 C   0  0  0  0  0  0  0  0  0  0  0  0
   45.2260   31.1860   46.8500 N   0  0  0  0  0  0  0  0  0  0  0  0
   44.9550   28.7660   47.1440 C   0  0  0  0  0  0  0  0  0  0  0  0
   45.1090   27.7360   48.0470 C   0  0  0  0  0  0  0  0  0  0  0  0
   44.3580   26.6020   47.8250 C   0  0  0  0  0  0  0  0  0  0  0  0
   43.5020   26.5320   46.7410 C   0  0  0  0  0  0  0  0  0  0  0  0
   43.3560   27.5770   45.8390 C   0  0  0  0  0  0  0  0  0  0  0  0
   44.1090   28.6480   46.1050 N   0  0  0  0  0  0  0  0  0  0  0  0
   45.3370   33.6210   46.4750 C   0  0  0  0  0  0  0  0  0  0  0  0
   44.5720   34.2450   47.2680 O   0  0  0  0  0  0  0  0  0  0  0  0
   45.2750   35.5690   43.3700 C   0  0  0  0  0  0  0  0  0  0  0  0
   46.3590   35.0470   42.6470 C   0  0  0  0  0  0  0  0  0  0  0  0
   47.0810   34.0320   43.2600 C   0  0  0  0  0  0  0  0  0  0  0  0
   46.7190   33.5960   44.5030 N   0  0  0  0  0  0  0  0  0  0  0  0
   45.6670   34.1280   45.1620 C   0  0  0  0  0  0  0  0  0  0  0  0
   44.9700   35.0990   44.5850 N   0  0  0  0  0  0  0  0  0  0  0  0
   47.6835   33.2812   47.6688 H   0  0  0  0  0  0  0  0  0  0  0  0
   48.6501   31.1461   48.5103 H   0  0  0  0  0  0  0  0  0  0  0  0
   47.3560   29.0229   48.2591 H   0  0  0  0  0  0  0  0  0  0  0  0
   45.7967   27.8152   48.9018 H   0  0  0  0  0  0  0  0  0  0  0  0
   44.4398   25.7481   48.5136 H   0  0  0  0  0  0  0  0  0  0  0  0
   42.9152   25.6143   46.5879 H   0  0  0  0  0  0  0  0  0  0  0  0
   42.6759   27.5273   44.9758 H   0  0  0  0  0  0  0  0  0  0  0  0
   44.6682   36.3752   42.9319 H   0  0  0  0  0  0  0  0  0  0  0  0
   46.6226   35.4224   41.6472 H   0  0  0  0  0  0  0  0  0  0  0  0
   47.9423   33.5801   42.7462 H   0  0  0  0  0  0  0  0  0  0  0  0
  1  2  2  0
  2  3  1  0
  4  3  2  0
  5  4  1  0
  6  1  1  0
  6  5  2  0
  7  5  1  0
  7  8  2  0
  9  8  1  0
 10  9  2  0
 11 12  2  0
 11 10  1  0
 12  7  1  0
 13  1  1  0
 13 14  2  0
 15 20  2  0
 16 17  2  0
 16 15  1  0
 17 18  1  0
 18 19  2  0
 19 13  1  0
 20 19  1  0
  2 21  1  0
  3 22  1  0
  4 23  1  0
  8 24  1  0
  9 25  1  0
 10 26  1  0
 11 27  1  0
 15 28  1  0
 16 29  1  0
 17 30  1  0
M  ISO  8  21  14  22  14  23  14  24  14  25  14  26  14  27  14  28  14
M  ISO  2  29  14  30  14
M  END
>  <minimizedAffinity>  (1) 
-4.95873213

>  <minimizedRMSD>  (1) 
1.22117949

$$$$
