
     RDKit          3D

 34 36  0  0  0  0  0  0  0  0999 V2000
   46.2840   32.2080   47.2100 C   0  0  0  0  0  0  0  0  0  0  0  0
   47.4000   32.4670   47.9790 C   0  0  0  0  0  0  0  0  0  0  0  0
   48.1800   31.3950   48.4370 C   0  0  0  0  0  0  0  0  0  0  0  0
   47.8200   30.0990   48.1120 C   0  0  0  0  0  0  0  0  0  0  0  0
   46.6990   29.8780   47.3440 C   0  0  0  0  0  0  0  0  0  0  0  0
   45.9970   30.9390   46.9360 N   0  0  0  0  0  0  0  0  0  0  0  0
   46.2020   28.5970   46.9290 N   0  0  0  0  0  0  0  0  0  0  0  0
   47.0540   27.5450   46.4010 C   0  0  0  0  0  0  0  0  0  0  0  0
   46.4460   26.2260   46.8220 C   0  0  0  0  0  0  0  0  0  0  0  0
   45.9240   26.3720   48.0890 O   0  0  0  0  0  0  0  0  0  0  0  0
   44.7170   27.0780   48.0250 C   0  0  0  0  0  0  0  0  0  0  0  0
   44.8250   28.1910   46.9770 C   0  0  0  0  0  0  0  0  0  0  0  0
   45.4860   33.3490   46.7440 C   0  0  0  0  0  0  0  0  0  0  0  0
   44.6080   33.7770   47.5510 O   0  0  0  0  0  0  0  0  0  0  0  0
   45.1300   35.4590   43.7700 C   0  0  0  0  0  0  0  0  0  0  0  0
   46.1720   35.0060   42.9390 C   0  0  0  0  0  0  0  0  0  0  0  0
   46.9630   33.9860   43.4380 C   0  0  0  0  0  0  0  0  0  0  0  0
   46.7030   33.4770   44.6800 N   0  0  0  0  0  0  0  0  0  0  0  0
   45.7070   33.9290   45.4420 C   0  0  0  0  0  0  0  0  0  0  0  0
   44.9220   34.9140   44.9950 N   0  0  0  0  0  0  0  0  0  0  0  0
   47.6748   33.5021   48.2299 H   0  0  0  0  0  0  0  0  0  0  0  0
   49.0729   31.5835   49.0511 H   0  0  0  0  0  0  0  0  0  0  0  0
   48.4254   29.2511   48.4649 H   0  0  0  0  0  0  0  0  0  0  0  0
   48.0698   27.6404   46.8121 H   0  0  0  0  0  0  0  0  0  0  0  0
   47.1241   27.6114   45.3052 H   0  0  0  0  0  0  0  0  0  0  0  0
   45.6463   25.9450   46.1209 H   0  0  0  0  0  0  0  0  0  0  0  0
   47.2134   25.4379   46.8180 H   0  0  0  0  0  0  0  0  0  0  0  0
   43.9053   26.3901   47.7456 H   0  0  0  0  0  0  0  0  0  0  0  0
   44.5023   27.5226   49.0080 H   0  0  0  0  0  0  0  0  0  0  0  0
   44.1908   29.0425   47.2648 H   0  0  0  0  0  0  0  0  0  0  0  0
   44.4885   27.8342   45.9924 H   0  0  0  0  0  0  0  0  0  0  0  0
   44.4730   36.2689   43.4202 H   0  0  0  0  0  0  0  0  0  0  0  0
   46.3485   35.4405   41.9440 H   0  0  0  0  0  0  0  0  0  0  0  0
   47.7953   33.5874   42.8394 H   0  0  0  0  0  0  0  0  0  0  0  0
  1  2  2  0
  2  3  1  0
  4  3  2  0
  5  4  1  0
  6  1  1  0
  6  5  2  0
  7 12  1  0
  7  5  1  0
  8  9  1  0
  8  7  1  0
  9 10  1  0
 11 10  1  0
 12 11  1  0
 13  1  1  0
 13 14  2  0
 15 20  2  0
 16 17  2  0
 16 15  1  0
 17 18  1  0
 18 19  2  0
 19 13  1  0
 20 19  1  0
  2 21  1  0
  3 22  1  0
  4 23  1  0
  8 24  1  0
  8 25  1  0
  9 26  1  0
  9 27  1  0
 11 28  1  0
 11 29  1  0
 12 30  1  0
 12 31  1  0
 15 32  1  0
 16 33  1  0
 17 34  1  0
M  ISO  8  21  14  22  14  23  14  24  13  25  13  26  13  27  13  28  13
M  ISO  6  29  13  30  13  31  13  32  14  33  14  34  14
M  END
>  <minimizedAffinity>  (1) 
-5.04545975

>  <minimizedRMSD>  (1) 
0.198210284

$$$$
