
     RDKit          3D

 27 29  0  0  0  0  0  0  0  0999 V2000
   46.1380   32.3740   47.0930 C   0  0  0  0  0  0  0  0  0  0  0  0
   47.2800   32.5690   47.8400 C   0  0  0  0  0  0  0  0  0  0  0  0
   47.9850   31.5060   48.3890 C   0  0  0  0  0  0  0  0  0  0  0  0
   47.5160   30.2220   48.1740 C   0  0  0  0  0  0  0  0  0  0  0  0
   46.3610   30.0170   47.4190 C   0  0  0  0  0  0  0  0  0  0  0  0
   45.7700   31.1110   46.9430 N   0  0  0  0  0  0  0  0  0  0  0  0
   45.8460   28.6450   47.1810 C   0  0  0  0  0  0  0  0  0  0  0  0
   46.2130   27.9260   46.0770 C   0  0  0  0  0  0  0  0  0  0  0  0
   45.3370   26.3580   46.2510 S   0  0  0  0  0  0  0  0  0  0  0  0
   44.5650   26.9520   47.8850 C   0  0  0  0  0  0  0  0  0  0  0  0
   45.0200   28.0330   47.9950 N   0  0  0  0  0  0  0  0  0  0  0  0
   45.4410   33.5270   46.5430 C   0  0  0  0  0  0  0  0  0  0  0  0
   44.5630   34.0540   47.2910 O   0  0  0  0  0  0  0  0  0  0  0  0
   45.2950   35.4390   43.4300 C   0  0  0  0  0  0  0  0  0  0  0  0
   46.3850   34.9260   42.6910 C   0  0  0  0  0  0  0  0  0  0  0  0
   47.1310   33.9360   43.3010 C   0  0  0  0  0  0  0  0  0  0  0  0
   46.7920   33.5080   44.5510 N   0  0  0  0  0  0  0  0  0  0  0  0
   45.7520   34.0200   45.2180 C   0  0  0  0  0  0  0  0  0  0  0  0
   45.0020   34.9800   44.6680 N   0  0  0  0  0  0  0  0  0  0  0  0
   47.6426   33.5942   48.0057 H   0  0  0  0  0  0  0  0  0  0  0  0
   48.8954   31.6806   48.9812 H   0  0  0  0  0  0  0  0  0  0  0  0
   48.0545   29.3621   48.5989 H   0  0  0  0  0  0  0  0  0  0  0  0
   46.8894   28.2340   45.2661 H   0  0  0  0  0  0  0  0  0  0  0  0
   43.8718   26.4222   48.5550 H   0  0  0  0  0  0  0  0  0  0  0  0
   44.6707   36.2296   42.9882 H   0  0  0  0  0  0  0  0  0  0  0  0
   46.6266   35.2954   41.6835 H   0  0  0  0  0  0  0  0  0  0  0  0
   47.9943   33.4950   42.7811 H   0  0  0  0  0  0  0  0  0  0  0  0
  1  2  2  0
  2  3  1  0
  4  3  2  0
  5  4  1  0
  6  1  1  0
  6  5  2  0
  7  5  1  0
  7 11  1  0
  8  9  1  0
  8  7  2  0
  9 10  1  0
 10 11  2  0
 12  1  1  0
 12 13  2  0
 14 19  2  0
 15 16  2  0
 15 14  1  0
 16 17  1  0
 17 18  2  0
 18 12  1  0
 19 18  1  0
  2 20  1  0
  3 21  1  0
  4 22  1  0
  8 23  1  0
 10 24  1  0
 14 25  1  0
 15 26  1  0
 16 27  1  0
M  ISO  8  20  14  21  14  22  14  23  14  24  14  25  14  26  14  27  14
M  END
>  <minimizedAffinity>  (1) 
-4.70950651

>  <minimizedRMSD>  (1) 
0.574493825

$$$$
