
     RDKit          3D

 28 30  0  0  0  0  0  0  0  0999 V2000
   45.9840   32.4550   47.1140 C   0  0  0  0  0  0  0  0  0  0  0  0
   47.2290   32.6010   47.7280 C   0  0  0  0  0  0  0  0  0  0  0  0
   47.8470   31.4770   48.2970 C   0  0  0  0  0  0  0  0  0  0  0  0
   47.2280   30.2350   48.2490 C   0  0  0  0  0  0  0  0  0  0  0  0
   46.0030   30.1430   47.6350 C   0  0  0  0  0  0  0  0  0  0  0  0
   45.4390   31.2270   47.1030 N   0  0  0  0  0  0  0  0  0  0  0  0
   45.3170   28.8560   47.5630 C   0  0  0  0  0  0  0  0  0  0  0  0
   44.4700   28.4350   46.5580 C   0  0  0  0  0  0  0  0  0  0  0  0
   44.0280   27.2090   46.8210 N   0  0  0  0  0  0  0  0  0  0  0  0
   44.5920   26.8380   48.0030 C   0  0  0  0  0  0  0  0  0  0  0  0
   45.3700   27.8410   48.4430 N   0  0  0  0  0  0  0  0  0  0  0  0
   45.3570   33.6310   46.5300 C   0  0  0  0  0  0  0  0  0  0  0  0
   44.5080   34.2260   47.2240 O   0  0  0  0  0  0  0  0  0  0  0  0
   45.3690   35.4490   43.3340 C   0  0  0  0  0  0  0  0  0  0  0  0
   46.4450   34.8770   42.6460 C   0  0  0  0  0  0  0  0  0  0  0  0
   47.1440   33.8730   43.3050 C   0  0  0  0  0  0  0  0  0  0  0  0
   46.7570   33.4980   44.5650 N   0  0  0  0  0  0  0  0  0  0  0  0
   45.7260   34.0660   45.1920 C   0  0  0  0  0  0  0  0  0  0  0  0
   45.0430   35.0300   44.5760 N   0  0  0  0  0  0  0  0  0  0  0  0
   47.7195   33.5849   47.7654 H   0  0  0  0  0  0  0  0  0  0  0  0
   48.8279   31.5804   48.7841 H   0  0  0  0  0  0  0  0  0  0  0  0
   47.7061   29.3484   48.6910 H   0  0  0  0  0  0  0  0  0  0  0  0
   44.2004   29.0264   45.6705 H   0  0  0  0  0  0  0  0  0  0  0  0
   44.4365   25.8761   48.5135 H   0  0  0  0  0  0  0  0  0  0  0  0
   45.9189   27.8335   49.3145 H   0  0  0  0  0  0  0  0  0  0  0  0
   44.7823   36.2486   42.8581 H   0  0  0  0  0  0  0  0  0  0  0  0
   46.7236   35.2058   41.6339 H   0  0  0  0  0  0  0  0  0  0  0  0
   48.0009   33.3833   42.8193 H   0  0  0  0  0  0  0  0  0  0  0  0
  1  2  2  0
  2  3  1  0
  4  3  2  0
  5  4  1  0
  6  1  1  0
  6  5  2  0
  7  5  1  0
  7 11  1  0
  8  9  1  0
  8  7  2  0
  9 10  2  0
 10 11  1  0
 12  1  1  0
 12 13  2  0
 14 19  2  0
 15 16  2  0
 15 14  1  0
 16 17  1  0
 17 18  2  0
 18 12  1  0
 19 18  1  0
  2 20  1  0
  3 21  1  0
  4 22  1  0
  8 23  1  0
 10 24  1  0
 11 25  1  0
 14 26  1  0
 15 27  1  0
 16 28  1  0
M  ISO  8  20  14  21  14  22  14  23  14  24  14  25   9  26  14  27  14
M  ISO  1  28  14
M  END
>  <minimizedAffinity>  (1) 
-4.95184517

>  <minimizedRMSD>  (1) 
1.02323854

$$$$
