
     RDKit          3D

 28 30  0  0  0  0  0  0  0  0999 V2000
   46.0140   32.4250   47.0710 C   0  0  0  0  0  0  0  0  0  0  0  0
   47.2240   32.5680   47.7520 C   0  0  0  0  0  0  0  0  0  0  0  0
   47.8630   31.4460   48.2970 C   0  0  0  0  0  0  0  0  0  0  0  0
   47.2760   30.1990   48.1470 C   0  0  0  0  0  0  0  0  0  0  0  0
   46.0830   30.0860   47.4700 C   0  0  0  0  0  0  0  0  0  0  0  0
   45.5180   31.1930   46.9720 N   0  0  0  0  0  0  0  0  0  0  0  0
   45.3790   28.8210   47.2550 C   0  0  0  0  0  0  0  0  0  0  0  0
   44.3350   28.7170   46.3320 C   0  0  0  0  0  0  0  0  0  0  0  0
   43.9500   27.3950   46.4300 C   0  0  0  0  0  0  0  0  0  0  0  0
   44.7440   26.7720   47.3710 C   0  0  0  0  0  0  0  0  0  0  0  0
   45.5770   27.6610   47.8320 O   0  0  0  0  0  0  0  0  0  0  0  0
   45.3790   33.6120   46.5180 C   0  0  0  0  0  0  0  0  0  0  0  0
   44.5390   34.1880   47.2620 O   0  0  0  0  0  0  0  0  0  0  0  0
   45.3060   35.4920   43.3720 C   0  0  0  0  0  0  0  0  0  0  0  0
   46.3920   34.9460   42.6490 C   0  0  0  0  0  0  0  0  0  0  0  0
   47.1070   33.9430   43.2840 C   0  0  0  0  0  0  0  0  0  0  0  0
   46.7480   33.5390   44.5370 N   0  0  0  0  0  0  0  0  0  0  0  0
   45.7080   34.0870   45.1900 C   0  0  0  0  0  0  0  0  0  0  0  0
   45.0050   35.0490   44.6040 N   0  0  0  0  0  0  0  0  0  0  0  0
   47.6774   33.5643   47.8612 H   0  0  0  0  0  0  0  0  0  0  0  0
   48.8160   31.5532   48.8357 H   0  0  0  0  0  0  0  0  0  0  0  0
   47.7608   29.3052   48.5666 H   0  0  0  0  0  0  0  0  0  0  0  0
   43.9192   29.5013   45.6824 H   0  0  0  0  0  0  0  0  0  0  0  0
   43.1440   26.9174   45.8536 H   0  0  0  0  0  0  0  0  0  0  0  0
   44.6844   25.7169   47.6762 H   0  0  0  0  0  0  0  0  0  0  0  0
   44.6995   36.2903   42.9193 H   0  0  0  0  0  0  0  0  0  0  0  0
   46.6542   35.2974   41.6402 H   0  0  0  0  0  0  0  0  0  0  0  0
   47.9633   33.4729   42.7784 H   0  0  0  0  0  0  0  0  0  0  0  0
  1  2  2  0
  2  3  1  0
  4  3  2  0
  5  4  1  0
  6  1  1  0
  6  5  2  0
  7  5  1  0
  7 11  1  0
  8  9  1  0
  8  7  2  0
  9 10  2  0
 10 11  1  0
 12  1  1  0
 12 13  2  0
 14 19  2  0
 15 16  2  0
 15 14  1  0
 16 17  1  0
 17 18  2  0
 18 12  1  0
 19 18  1  0
  2 20  1  0
  3 21  1  0
  4 22  1  0
  8 23  1  0
  9 24  1  0
 10 25  1  0
 14 26  1  0
 15 27  1  0
 16 28  1  0
M  ISO  8  20  14  21  14  22  14  23  14  24  14  25  14  26  14  27  14
M  ISO  1  28  14
M  END
>  <minimizedAffinity>  (1) 
-4.89497614

>  <minimizedRMSD>  (1) 
0.824072242

$$$$
