
     RDKit          3D

 29 31  0  0  0  0  0  0  0  0999 V2000
   46.1620   32.3620   47.1150 C   0  0  0  0  0  0  0  0  0  0  0  0
   47.3210   32.6050   47.8620 C   0  0  0  0  0  0  0  0  0  0  0  0
   48.0180   31.5200   48.4100 C   0  0  0  0  0  0  0  0  0  0  0  0
   47.5630   30.2280   48.2110 C   0  0  0  0  0  0  0  0  0  0  0  0
   46.4210   30.0370   47.4710 C   0  0  0  0  0  0  0  0  0  0  0  0
   45.7750   31.0820   46.9610 N   0  0  0  0  0  0  0  0  0  0  0  0
   45.9720   28.6610   47.2830 C   0  0  0  0  0  0  0  0  0  0  0  0
   44.6760   28.3120   46.9640 C   0  0  0  0  0  0  0  0  0  0  0  0
   44.3410   26.9740   46.8050 C   0  0  0  0  0  0  0  0  0  0  0  0
   45.2690   26.0020   46.9580 N   0  0  0  0  0  0  0  0  0  0  0  0
   46.5420   26.3560   47.2730 C   0  0  0  0  0  0  0  0  0  0  0  0
   46.8600   27.6610   47.4260 N   0  0  0  0  0  0  0  0  0  0  0  0
   45.4540   33.5120   46.5550 C   0  0  0  0  0  0  0  0  0  0  0  0
   44.5790   34.0310   47.2920 O   0  0  0  0  0  0  0  0  0  0  0  0
   45.3020   35.4140   43.4260 C   0  0  0  0  0  0  0  0  0  0  0  0
   46.3890   34.9040   42.6910 C   0  0  0  0  0  0  0  0  0  0  0  0
   47.1450   33.9090   43.3100 C   0  0  0  0  0  0  0  0  0  0  0  0
   46.8000   33.4940   44.5650 N   0  0  0  0  0  0  0  0  0  0  0  0
   45.7600   34.0000   45.2340 C   0  0  0  0  0  0  0  0  0  0  0  0
   45.0400   34.9440   44.6490 N   0  0  0  0  0  0  0  0  0  0  0  0
   47.6794   33.6334   48.0165 H   0  0  0  0  0  0  0  0  0  0  0  0
   48.9295   31.6955   49.0001 H   0  0  0  0  0  0  0  0  0  0  0  0
   48.1050   29.3708   48.6369 H   0  0  0  0  0  0  0  0  0  0  0  0
   43.9104   29.0914   46.8360 H   0  0  0  0  0  0  0  0  0  0  0  0
   43.3062   26.7006   46.5510 H   0  0  0  0  0  0  0  0  0  0  0  0
   47.3128   25.5821   47.4034 H   0  0  0  0  0  0  0  0  0  0  0  0
   44.6672   36.2009   42.9926 H   0  0  0  0  0  0  0  0  0  0  0  0
   46.6292   35.2708   41.6822 H   0  0  0  0  0  0  0  0  0  0  0  0
   48.0085   33.4638   42.7941 H   0  0  0  0  0  0  0  0  0  0  0  0
  1  2  2  0
  2  3  1  0
  4  3  2  0
  5  4  1  0
  6  1  1  0
  6  5  2  0
  7 12  1  0
  7  5  1  0
  8  7  2  0
  9 10  2  0
  9  8  1  0
 10 11  1  0
 11 12  2  0
 13  1  1  0
 13 14  2  0
 15 20  2  0
 16 17  2  0
 16 15  1  0
 17 18  1  0
 18 19  2  0
 19 13  1  0
 20 19  1  0
  2 21  1  0
  3 22  1  0
  4 23  1  0
  8 24  1  0
  9 25  1  0
 11 26  1  0
 15 27  1  0
 16 28  1  0
 17 29  1  0
M  ISO  8  21  14  22  14  23  14  24  14  25  14  26  14  27  14  28  14
M  ISO  1  29  14
M  END
>  <minimizedAffinity>  (1) 
-4.86822701

>  <minimizedRMSD>  (1) 
0.651294172

$$$$
