
     RDKit          3D

 28 30  0  0  0  0  0  0  0  0999 V2000
   46.1020   32.3310   47.0300 C   0  0  0  0  0  0  0  0  0  0  0  0
   47.2430   32.4860   47.8010 C   0  0  0  0  0  0  0  0  0  0  0  0
   47.9370   31.3640   48.2460 C   0  0  0  0  0  0  0  0  0  0  0  0
   47.4760   30.0900   47.9120 C   0  0  0  0  0  0  0  0  0  0  0  0
   46.3410   29.9710   47.1470 C   0  0  0  0  0  0  0  0  0  0  0  0
   45.6960   31.0800   46.7330 N   0  0  0  0  0  0  0  0  0  0  0  0
   45.8610   28.6060   46.7980 C   0  0  0  0  0  0  0  0  0  0  0  0
   44.4440   28.3150   46.5240 C   0  0  0  0  0  0  0  0  0  0  0  0
   44.9330   28.0020   47.8900 C   0  0  0  0  0  0  0  0  0  0  0  0
   45.3990   33.5380   46.5790 C   0  0  0  0  0  0  0  0  0  0  0  0
   44.5810   34.0370   47.3860 O   0  0  0  0  0  0  0  0  0  0  0  0
   45.1430   35.5970   43.5520 C   0  0  0  0  0  0  0  0  0  0  0  0
   46.1900   35.1350   42.7550 C   0  0  0  0  0  0  0  0  0  0  0  0
   46.9690   34.1110   43.2870 C   0  0  0  0  0  0  0  0  0  0  0  0
   46.6770   33.6240   44.5300 N   0  0  0  0  0  0  0  0  0  0  0  0
   45.6590   34.0970   45.2650 C   0  0  0  0  0  0  0  0  0  0  0  0
   44.9060   35.0750   44.7720 N   0  0  0  0  0  0  0  0  0  0  0  0
   47.5997   33.4936   48.0609 H   0  0  0  0  0  0  0  0  0  0  0  0
   48.8438   31.4812   48.8576 H   0  0  0  0  0  0  0  0  0  0  0  0
   48.0135   29.1941   48.2562 H   0  0  0  0  0  0  0  0  0  0  0  0
   46.7777   28.3606   46.2417 H   0  0  0  0  0  0  0  0  0  0  0  0
   43.7397   29.1476   46.3800 H   0  0  0  0  0  0  0  0  0  0  0  0
   43.9280   27.7261   45.7514 H   0  0  0  0  0  0  0  0  0  0  0  0
   45.0580   26.9569   48.2097 H   0  0  0  0  0  0  0  0  0  0  0  0
   44.6398   28.2720   48.9152 H   0  0  0  0  0  0  0  0  0  0  0  0
   44.4969   36.4045   43.1771 H   0  0  0  0  0  0  0  0  0  0  0  0
   46.3897   35.5571   41.7591 H   0  0  0  0  0  0  0  0  0  0  0  0
   47.8112   33.6980   42.7124 H   0  0  0  0  0  0  0  0  0  0  0  0
  1  2  2  0
  2  3  1  0
  4  3  2  0
  5  4  1  0
  6  1  1  0
  6  5  2  0
  7  5  1  0
  7  9  1  0
  8  7  1  0
  8  9  1  0
 10  1  1  0
 10 11  2  0
 12 17  2  0
 13 14  2  0
 13 12  1  0
 14 15  1  0
 15 16  2  0
 16 10  1  0
 17 16  1  0
  2 18  1  0
  3 19  1  0
  4 20  1  0
  7 21  1  0
  8 22  1  0
  8 23  1  0
  9 24  1  0
  9 25  1  0
 12 26  1  0
 13 27  1  0
 14 28  1  0
M  ISO  8  18  14  19  14  20  14  21  13  22  13  23  13  24  13  25  13
M  ISO  3  26  14  27  14  28  14
M  END
>  <minimizedAffinity>  (1) 
-4.61465073

>  <minimizedRMSD>  (1) 
0.608548701

$$$$
