
     RDKit          3D

 23 24  0  0  0  0  0  0  0  0999 V2000
   46.2720   32.2060   47.2010 C   0  0  0  0  0  0  0  0  0  0  0  0
   47.3900   32.4280   47.9810 C   0  0  0  0  0  0  0  0  0  0  0  0
   48.1840   31.3660   48.4210 C   0  0  0  0  0  0  0  0  0  0  0  0
   47.8430   30.0670   48.0690 C   0  0  0  0  0  0  0  0  0  0  0  0
   46.7100   29.8680   47.2810 C   0  0  0  0  0  0  0  0  0  0  0  0
   45.9950   30.9210   46.8940 N   0  0  0  0  0  0  0  0  0  0  0  0
   46.3400   28.5440   46.9070 N   0  0  0  0  0  0  0  0  0  0  0  0
   45.4730   33.3390   46.7630 C   0  0  0  0  0  0  0  0  0  0  0  0
   44.6080   33.7510   47.5660 O   0  0  0  0  0  0  0  0  0  0  0  0
   45.0990   35.4880   43.8130 C   0  0  0  0  0  0  0  0  0  0  0  0
   46.1440   35.0430   42.9710 C   0  0  0  0  0  0  0  0  0  0  0  0
   46.9510   34.0140   43.4430 C   0  0  0  0  0  0  0  0  0  0  0  0
   46.7000   33.4890   44.6780 N   0  0  0  0  0  0  0  0  0  0  0  0
   45.6910   33.9410   45.4530 C   0  0  0  0  0  0  0  0  0  0  0  0
   44.9180   34.9210   45.0110 N   0  0  0  0  0  0  0  0  0  0  0  0
   47.6595   33.4573   48.2602 H   0  0  0  0  0  0  0  0  0  0  0  0
   49.0721   31.5575   49.0412 H   0  0  0  0  0  0  0  0  0  0  0  0
   48.4524   29.2147   48.4039 H   0  0  0  0  0  0  0  0  0  0  0  0
   45.5046   28.3877   46.3251 H   0  0  0  0  0  0  0  0  0  0  0  0
   46.9079   27.7431   47.2185 H   0  0  0  0  0  0  0  0  0  0  0  0
   44.4349   36.3004   43.4830 H   0  0  0  0  0  0  0  0  0  0  0  0
   46.3119   35.4932   41.9815 H   0  0  0  0  0  0  0  0  0  0  0  0
   47.7794   33.6286   42.8305 H   0  0  0  0  0  0  0  0  0  0  0  0
  1  2  2  0
  2  3  1  0
  4  3  2  0
  5  4  1  0
  6  1  1  0
  6  5  2  0
  7  5  1  0
  8  1  1  0
  8  9  2  0
 10 15  2  0
 11 12  2  0
 11 10  1  0
 12 13  1  0
 13 14  2  0
 14  8  1  0
 15 14  1  0
  2 16  1  0
  3 17  1  0
  4 18  1  0
  7 19  1  0
  7 20  1  0
 10 21  1  0
 11 22  1  0
 12 23  1  0
M  ISO  6  16  14  17  14  18  14  21  14  22  14  23  14
M  END
>  <minimizedAffinity>  (1) 
-4.34064627

>  <minimizedRMSD>  (1) 
0.0622831173

$$$$
