
     RDKit          3D

 22 23  0  0  0  0  0  0  0  0999 V2000
   45.4810   33.3310   46.7520 C   0  0  0  0  0  0  0  0  0  0  0  0
   44.6090   33.7510   47.5650 O   0  0  0  0  0  0  0  0  0  0  0  0
   45.1070   35.4770   43.8060 C   0  0  0  0  0  0  0  0  0  0  0  0
   46.1440   35.0440   42.9700 C   0  0  0  0  0  0  0  0  0  0  0  0
   46.9490   34.0150   43.4530 C   0  0  0  0  0  0  0  0  0  0  0  0
   46.7040   33.4840   44.6840 N   0  0  0  0  0  0  0  0  0  0  0  0
   45.6990   33.9280   45.4540 C   0  0  0  0  0  0  0  0  0  0  0  0
   44.9240   34.9100   45.0040 N   0  0  0  0  0  0  0  0  0  0  0  0
   46.2710   32.1960   47.1940 C   0  0  0  0  0  0  0  0  0  0  0  0
   47.3970   32.4330   47.9910 C   0  0  0  0  0  0  0  0  0  0  0  0
   48.1960   31.3820   48.4470 C   0  0  0  0  0  0  0  0  0  0  0  0
   47.8460   30.0820   48.0880 C   0  0  0  0  0  0  0  0  0  0  0  0
   46.7220   29.8680   47.2940 C   0  0  0  0  0  0  0  0  0  0  0  0
   46.0010   30.9290   46.8930 N   0  0  0  0  0  0  0  0  0  0  0  0
   46.3370   28.5860   46.9120 O   0  0  0  0  0  0  0  0  0  0  0  0
   44.4399   36.2870   43.4761 H   0  0  0  0  0  0  0  0  0  0  0  0
   46.3143   35.4943   41.9809 H   0  0  0  0  0  0  0  0  0  0  0  0
   47.7801   33.6321   42.8426 H   0  0  0  0  0  0  0  0  0  0  0  0
   47.6575   33.4664   48.2633 H   0  0  0  0  0  0  0  0  0  0  0  0
   49.0791   31.5757   49.0736 H   0  0  0  0  0  0  0  0  0  0  0  0
   48.4532   29.2307   48.4293 H   0  0  0  0  0  0  0  0  0  0  0  0
   45.5341   28.4580   46.3471 H   0  0  0  0  0  0  0  0  0  0  0  0
  1  9  1  0
  1  2  2  0
  3  8  2  0
  4  5  2  0
  4  3  1  0
  5  6  1  0
  6  7  2  0
  7  1  1  0
  8  7  1  0
  9 10  2  0
 10 11  1  0
 12 11  2  0
 13 12  1  0
 14  9  1  0
 14 13  2  0
 15 13  1  0
  3 16  1  0
  4 17  1  0
  5 18  1  0
 10 19  1  0
 11 20  1  0
 12 21  1  0
 15 22  1  0
M  ISO  7  16  14  17  14  18  14  19  14  20  14  21  14  22   3
M  END
>  <minimizedAffinity>  (1) 
-4.33641291

>  <minimizedRMSD>  (1) 
0.0582134314

$$$$
