
     RDKit          3D

 40 44  0  0  0  0  0  0  0  0999 V2000
   45.2070   35.0930   42.9910 C   0  0  0  0  0  0  0  0  0  0  0  0
   46.4960   34.8390   42.4670 C   0  0  0  0  0  0  0  0  0  0  0  0
   47.3710   34.1740   43.2900 C   0  0  0  0  0  0  0  0  0  0  0  0
   46.9630   33.8010   44.5400 N   0  0  0  0  0  0  0  0  0  0  0  0
   45.7380   34.0500   45.0170 C   0  0  0  0  0  0  0  0  0  0  0  0
   44.8640   34.6940   44.2450 N   0  0  0  0  0  0  0  0  0  0  0  0
   48.7280   33.8630   42.8440 C   0  0  0  0  0  0  0  0  0  0  0  0
   49.7550   34.7770   42.7280 C   0  0  0  0  0  0  0  0  0  0  0  0
   50.8450   34.0880   42.2860 N   0  0  0  0  0  0  0  0  0  0  0  0
   50.4990   32.7840   42.1330 C   0  0  0  0  0  0  0  0  0  0  0  0
   51.2890   31.7310   41.7060 C   0  0  0  0  0  0  0  0  0  0  0  0
   50.7510   30.4520   41.6140 C   0  0  0  0  0  0  0  0  0  0  0  0
   49.4220   30.3180   41.9660 C   0  0  0  0  0  0  0  0  0  0  0  0
   48.6230   31.3510   42.3920 C   0  0  0  0  0  0  0  0  0  0  0  0
   49.1800   32.6130   42.4750 C   0  0  0  0  0  0  0  0  0  0  0  0
   45.4130   33.6140   46.3450 C   0  0  0  0  0  0  0  0  0  0  0  0
   44.5760   34.2420   47.0760 O   0  0  0  0  0  0  0  0  0  0  0  0
   46.0130   32.4280   46.9450 C   0  0  0  0  0  0  0  0  0  0  0  0
   47.1990   32.5480   47.6220 C   0  0  0  0  0  0  0  0  0  0  0  0
   47.7720   31.4090   48.1960 C   0  0  0  0  0  0  0  0  0  0  0  0
   47.1590   30.1670   48.0880 C   0  0  0  0  0  0  0  0  0  0  0  0
   45.9720   30.0900   47.4010 C   0  0  0  0  0  0  0  0  0  0  0  0
   45.4360   31.2010   46.8550 N   0  0  0  0  0  0  0  0  0  0  0  0
   45.2400   28.8460   47.2240 C   0  0  0  0  0  0  0  0  0  0  0  0
   44.2340   28.7220   46.3320 N   0  0  0  0  0  0  0  0  0  0  0  0
   43.7660   27.5170   46.3850 O   0  0  0  0  0  0  0  0  0  0  0  0
   44.4040   26.8020   47.2750 C   0  0  0  0  0  0  0  0  0  0  0  0
   45.3480   27.6240   47.8240 N   0  0  0  0  0  0  0  0  0  0  0  0
   44.4680   35.6233   42.3725 H   0  0  0  0  0  0  0  0  0  0  0  0
   46.7823   35.1574   41.4538 H   0  0  0  0  0  0  0  0  0  0  0  0
   49.7041   35.8533   42.9493 H   0  0  0  0  0  0  0  0  0  0  0  0
   51.7751   34.4893   42.0994 H   0  0  0  0  0  0  0  0  0  0  0  0
   52.3419   31.9056   41.4395 H   0  0  0  0  0  0  0  0  0  0  0  0
   51.3514   29.5933   41.2790 H   0  0  0  0  0  0  0  0  0  0  0  0
   48.9730   29.3159   41.9007 H   0  0  0  0  0  0  0  0  0  0  0  0
   47.5700   31.1786   42.6594 H   0  0  0  0  0  0  0  0  0  0  0  0
   47.6930   33.5267   47.7124 H   0  0  0  0  0  0  0  0  0  0  0  0
   48.7230   31.4978   48.7416 H   0  0  0  0  0  0  0  0  0  0  0  0
   47.6109   29.2715   48.5394 H   0  0  0  0  0  0  0  0  0  0  0  0
   44.2179   25.7485   47.5309 H   0  0  0  0  0  0  0  0  0  0  0  0
  1  6  2  0
  2  1  1  0
  2  3  2  0
  3  4  1  0
  4  5  2  0
  5 16  1  0
  6  5  1  0
  7  3  1  0
  8  7  2  0
  9  8  1  0
 10  9  1  0
 10 15  2  0
 11 10  1  0
 12 11  2  0
 12 13  1  0
 13 14  2  0
 14 15  1  0
 15  7  1  0
 16 18  1  0
 16 17  2  0
 18 19  2  0
 19 20  1  0
 21 20  2  0
 22 21  1  0
 23 18  1  0
 23 22  2  0
 24 22  1  0
 24 28  1  0
 25 26  1  0
 25 24  2  0
 26 27  1  0
 27 28  2  0
  1 29  1  0
  2 30  1  0
  8 31  1  0
  9 32  1  0
 11 33  1  0
 12 34  1  0
 13 35  1  0
 14 36  1  0
 19 37  1  0
 20 38  1  0
 21 39  1  0
 27 40  1  0
M  ISO  8  29  14  30  14  31  14  32   9  33  14  34  14  35  14  36  14
M  ISO  4  37  14  38  14  39  14  40  14
M  END
>  <minimizedAffinity>  (1) 
-6.5018568

>  <minimizedRMSD>  (1) 
1.08129871

$$$$
