
     RDKit          3D

 26 28  0  0  0  0  0  0  0  0999 V2000
   46.2110   32.2650   47.2150 C   0  0  0  0  0  0  0  0  0  0  0  0
   47.4010   32.4880   47.8780 C   0  0  0  0  0  0  0  0  0  0  0  0
   48.1070   31.3880   48.3790 C   0  0  0  0  0  0  0  0  0  0  0  0
   47.6290   30.0980   48.2160 C   0  0  0  0  0  0  0  0  0  0  0  0
   46.4400   29.9240   47.5500 C   0  0  0  0  0  0  0  0  0  0  0  0
   45.7750   30.9960   47.0750 N   0  0  0  0  0  0  0  0  0  0  0  0
   45.8430   28.6100   47.3220 C   0  0  0  0  0  0  0  0  0  0  0  0
   44.5810   28.4690   46.8760 N   0  0  0  0  0  0  0  0  0  0  0  0
   44.3110   27.2030   46.7640 O   0  0  0  0  0  0  0  0  0  0  0  0
   45.3460   26.4680   47.1180 C   0  0  0  0  0  0  0  0  0  0  0  0
   46.3230   27.3420   47.4740 N   0  0  0  0  0  0  0  0  0  0  0  0
   45.4700   33.4140   46.6890 C   0  0  0  0  0  0  0  0  0  0  0  0
   44.5950   33.9070   47.4630 O   0  0  0  0  0  0  0  0  0  0  0  0
   45.2320   35.3990   43.6180 C   0  0  0  0  0  0  0  0  0  0  0  0
   46.2900   34.9020   42.8360 C   0  0  0  0  0  0  0  0  0  0  0  0
   47.0510   33.8960   43.4010 C   0  0  0  0  0  0  0  0  0  0  0  0
   46.7500   33.4410   44.6580 N   0  0  0  0  0  0  0  0  0  0  0  0
   45.7280   33.9430   45.3750 C   0  0  0  0  0  0  0  0  0  0  0  0
   44.9760   34.9140   44.8580 N   0  0  0  0  0  0  0  0  0  0  0  0
   47.7868   33.5096   48.0100 H   0  0  0  0  0  0  0  0  0  0  0  0
   49.0563   31.5504   48.9105 H   0  0  0  0  0  0  0  0  0  0  0  0
   48.1869   29.2355   48.6095 H   0  0  0  0  0  0  0  0  0  0  0  0
   45.4065   25.3697   47.1240 H   0  0  0  0  0  0  0  0  0  0  0  0
   44.5966   36.2008   43.2138 H   0  0  0  0  0  0  0  0  0  0  0  0
   46.5004   35.2926   41.8295 H   0  0  0  0  0  0  0  0  0  0  0  0
   47.8947   33.4625   42.8440 H   0  0  0  0  0  0  0  0  0  0  0  0
  1  2  2  0
  2  3  1  0
  4  3  2  0
  5  4  1  0
  6  1  1  0
  6  5  2  0
  7 11  1  0
  7  5  1  0
  8  7  2  0
  9  8  1  0
  9 10  1  0
 10 11  2  0
 12  1  1  0
 12 13  2  0
 14 19  2  0
 15 16  2  0
 15 14  1  0
 16 17  1  0
 17 18  2  0
 18 12  1  0
 19 18  1  0
  2 20  1  0
  3 21  1  0
  4 22  1  0
 10 23  1  0
 14 24  1  0
 15 25  1  0
 16 26  1  0
M  ISO  7  20  14  21  14  22  14  23  14  24  14  25  14  26  14
M  END
>  <minimizedAffinity>  (1) 
-4.67883348

>  <minimizedRMSD>  (1) 
0.562906384

$$$$
