
     RDKit          3D

 36 39  0  0  0  0  0  0  0  0999 V2000
   45.5010   33.6340   46.3010 C   0  0  0  0  0  0  0  0  0  0  0  0
   44.6330   34.2470   46.9840 O   0  0  0  0  0  0  0  0  0  0  0  0
   46.1110   32.4650   46.9400 C   0  0  0  0  0  0  0  0  0  0  0  0
   47.2610   32.6270   47.6770 C   0  0  0  0  0  0  0  0  0  0  0  0
   47.8320   31.5080   48.2800 C   0  0  0  0  0  0  0  0  0  0  0  0
   47.2670   30.2490   48.1490 C   0  0  0  0  0  0  0  0  0  0  0  0
   46.1180   30.1370   47.4020 C   0  0  0  0  0  0  0  0  0  0  0  0
   45.5790   31.2240   46.8270 N   0  0  0  0  0  0  0  0  0  0  0  0
   45.4380   28.8590   47.1990 C   0  0  0  0  0  0  0  0  0  0  0  0
   44.3210   28.7570   46.4580 N   0  0  0  0  0  0  0  0  0  0  0  0
   43.9140   27.5340   46.4280 O   0  0  0  0  0  0  0  0  0  0  0  0
   44.7300   26.7670   47.1390 C   0  0  0  0  0  0  0  0  0  0  0  0
   45.6790   27.5950   47.6180 N   0  0  0  0  0  0  0  0  0  0  0  0
   45.5090   35.2910   43.0330 C   0  0  0  0  0  0  0  0  0  0  0  0
   46.6740   34.8040   42.4210 C   0  0  0  0  0  0  0  0  0  0  0  0
   47.4160   33.9130   43.1740 C   0  0  0  0  0  0  0  0  0  0  0  0
   46.9970   33.5650   44.4240 N   0  0  0  0  0  0  0  0  0  0  0  0
   45.8740   34.0550   44.9720 C   0  0  0  0  0  0  0  0  0  0  0  0
   45.1380   34.9150   44.2720 N   0  0  0  0  0  0  0  0  0  0  0  0
   48.6150   33.3720   42.6240 N   0  0  0  0  0  0  0  0  0  0  0  0
   48.5240   32.0800   42.2080 C   0  0  0  0  0  0  0  0  0  0  0  0
   49.6280   31.4480   41.6550 C   0  0  0  0  0  0  0  0  0  0  0  0
   50.8120   32.1680   41.5430 C   0  0  0  0  0  0  0  0  0  0  0  0
   51.8140   31.6260   41.0540 O   0  0  0  0  0  0  0  0  0  0  0  0
   50.8520   33.4390   41.9680 N   0  0  0  0  0  0  0  0  0  0  0  0
   49.7750   34.0420   42.5030 C   0  0  0  0  0  0  0  0  0  0  0  0
   49.6950   35.2220   42.9330 O   0  0  0  0  0  0  0  0  0  0  0  0
   47.7208   33.6201   47.7882 H   0  0  0  0  0  0  0  0  0  0  0  0
   48.7510   31.6263   48.8728 H   0  0  0  0  0  0  0  0  0  0  0  0
   47.7225   29.3690   48.6266 H   0  0  0  0  0  0  0  0  0  0  0  0
   44.6489   25.6823   47.3032 H   0  0  0  0  0  0  0  0  0  0  0  0
   44.8775   36.0038   42.4824 H   0  0  0  0  0  0  0  0  0  0  0  0
   46.9769   35.1108   41.4090 H   0  0  0  0  0  0  0  0  0  0  0  0
   47.5736   31.5357   42.3103 H   0  0  0  0  0  0  0  0  0  0  0  0
   49.5682   30.4040   41.3138 H   0  0  0  0  0  0  0  0  0  0  0  0
   51.7315   33.9683   41.8825 H   0  0  0  0  0  0  0  0  0  0  0  0
  1  3  1  0
  1  2  2  0
  3  4  2  0
  4  5  1  0
  6  5  2  0
  7  6  1  0
  8  3  1  0
  8  7  2  0
  9  7  1  0
  9 13  1  0
 10  9  2  0
 11 10  1  0
 11 12  1  0
 12 13  2  0
 14 19  2  0
 15 14  1  0
 15 16  2  0
 16 17  1  0
 17 18  2  0
 18  1  1  0
 19 18  1  0
 20 16  1  0
 21 20  1  0
 22 21  2  0
 23 22  1  0
 23 25  1  0
 24 23  2  0
 25 26  1  0
 26 20  1  0
 26 27  2  0
  4 28  1  0
  5 29  1  0
  6 30  1  0
 12 31  1  0
 14 32  1  0
 15 33  1  0
 21 34  1  0
 22 35  1  0
 25 36  1  0
M  ISO  8  28  14  29  14  30  14  31  14  32  14  33  14  34  14  35  14
M  ISO  1  36   9
M  END
>  <minimizedAffinity>  (1) 
-6.30234623

>  <minimizedRMSD>  (1) 
1.07692385

$$$$
