
     RDKit          3D

 39 42  0  0  0  0  0  0  0  0999 V2000
   45.5930   35.4530   42.9590 C   0  0  0  0  0  0  0  0  0  0  0  0
   46.6880   34.8430   42.3110 C   0  0  0  0  0  0  0  0  0  0  0  0
   47.3470   33.8570   43.0160 C   0  0  0  0  0  0  0  0  0  0  0  0
   46.9140   33.5280   44.2860 N   0  0  0  0  0  0  0  0  0  0  0  0
   45.8700   34.1270   44.8720 C   0  0  0  0  0  0  0  0  0  0  0  0
   45.2320   35.0740   44.2040 N   0  0  0  0  0  0  0  0  0  0  0  0
   48.4660   33.1650   42.4740 N   0  0  0  0  0  0  0  0  0  0  0  0
   48.5150   31.9100   42.0010 C   0  0  0  0  0  0  0  0  0  0  0  0
   49.6940   31.3920   41.5070 C   0  0  0  0  0  0  0  0  0  0  0  0
   49.7360   30.0180   40.9930 C   0  0  0  0  0  0  0  0  0  0  0  0
   50.8470   32.1560   41.4900 C   0  0  0  0  0  0  0  0  0  0  0  0
   51.9410   31.7140   41.0450 O   0  0  0  0  0  0  0  0  0  0  0  0
   50.7430   33.4150   41.9780 N   0  0  0  0  0  0  0  0  0  0  0  0
   49.5930   33.9290   42.4640 C   0  0  0  0  0  0  0  0  0  0  0  0
   49.6580   35.1310   42.8870 O   0  0  0  0  0  0  0  0  0  0  0  0
   45.4780   33.7300   46.1960 C   0  0  0  0  0  0  0  0  0  0  0  0
   44.6220   34.3670   46.8770 O   0  0  0  0  0  0  0  0  0  0  0  0
   46.0570   32.5460   46.8390 C   0  0  0  0  0  0  0  0  0  0  0  0
   47.2360   32.6770   47.5500 C   0  0  0  0  0  0  0  0  0  0  0  0
   47.7830   31.5420   48.1620 C   0  0  0  0  0  0  0  0  0  0  0  0
   47.1590   30.3010   48.0620 C   0  0  0  0  0  0  0  0  0  0  0  0
   45.9950   30.2190   47.3480 C   0  0  0  0  0  0  0  0  0  0  0  0
   45.4860   31.3250   46.7670 N   0  0  0  0  0  0  0  0  0  0  0  0
   45.2510   28.9660   47.1750 C   0  0  0  0  0  0  0  0  0  0  0  0
   44.2340   28.8530   46.2950 N   0  0  0  0  0  0  0  0  0  0  0  0
   43.7640   27.6430   46.3530 O   0  0  0  0  0  0  0  0  0  0  0  0
   44.4160   26.9280   47.2330 C   0  0  0  0  0  0  0  0  0  0  0  0
   45.3640   27.7450   47.7680 N   0  0  0  0  0  0  0  0  0  0  0  0
   45.0280   36.2448   42.4452 H   0  0  0  0  0  0  0  0  0  0  0  0
   46.9995   35.1378   41.2981 H   0  0  0  0  0  0  0  0  0  0  0  0
   47.6070   31.2891   42.0073 H   0  0  0  0  0  0  0  0  0  0  0  0
   49.7576   29.3117   41.8360 H   0  0  0  0  0  0  0  0  0  0  0  0
   48.8432   29.8288   40.3789 H   0  0  0  0  0  0  0  0  0  0  0  0
   50.6387   29.8837   40.3789 H   0  0  0  0  0  0  0  0  0  0  0  0
   51.5835   34.0104   41.9784 H   0  0  0  0  0  0  0  0  0  0  0  0
   47.7347   33.6539   47.6333 H   0  0  0  0  0  0  0  0  0  0  0  0
   48.7203   31.6323   48.7306 H   0  0  0  0  0  0  0  0  0  0  0  0
   47.5902   29.4112   48.5439 H   0  0  0  0  0  0  0  0  0  0  0  0
   44.2340   25.8741   47.4900 H   0  0  0  0  0  0  0  0  0  0  0  0
  1  6  2  0
  2  1  1  0
  2  3  2  0
  3  4  1  0
  4  5  2  0
  5 16  1  0
  6  5  1  0
  7  3  1  0
  8  7  1  0
  9  8  2  0
 10  9  1  0
 11  9  1  0
 11 13  1  0
 12 11  2  0
 13 14  1  0
 14  7  1  0
 14 15  2  0
 16 18  1  0
 16 17  2  0
 18 19  2  0
 19 20  1  0
 21 20  2  0
 22 21  1  0
 23 18  1  0
 23 22  2  0
 24 22  1  0
 24 28  1  0
 25 26  1  0
 25 24  2  0
 26 27  1  0
 27 28  2  0
  1 29  1  0
  2 30  1  0
  8 31  1  0
 10 32  1  0
 10 33  1  0
 10 34  1  0
 13 35  1  0
 19 36  1  0
 20 37  1  0
 21 38  1  0
 27 39  1  0
M  ISO  8  29  14  30  14  31  14  32   8  33   8  34   8  35   9  36  14
M  ISO  3  37  14  38  14  39  14
M  END
>  <minimizedAffinity>  (1) 
-6.33627033

>  <minimizedRMSD>  (1) 
1.25615776

$$$$
