
     RDKit          3D

 41 44  0  0  0  0  0  0  0  0999 V2000
   45.4070   33.5300   46.5880 C   0  0  0  0  0  0  0  0  0  0  0  0
   44.5630   34.0580   47.3750 O   0  0  0  0  0  0  0  0  0  0  0  0
   46.0790   32.3340   47.0840 C   0  0  0  0  0  0  0  0  0  0  0  0
   47.2900   32.4750   47.7250 C   0  0  0  0  0  0  0  0  0  0  0  0
   47.9430   31.3250   48.2050 C   0  0  0  0  0  0  0  0  0  0  0  0
   47.3760   30.0750   48.0350 C   0  0  0  0  0  0  0  0  0  0  0  0
   46.1610   29.9840   47.3860 C   0  0  0  0  0  0  0  0  0  0  0  0
   45.5620   31.0970   46.9390 N   0  0  0  0  0  0  0  0  0  0  0  0
   45.4870   28.7120   47.1590 C   0  0  0  0  0  0  0  0  0  0  0  0
   44.3320   28.6310   46.4960 N   0  0  0  0  0  0  0  0  0  0  0  0
   43.9470   27.4000   46.4330 O   0  0  0  0  0  0  0  0  0  0  0  0
   44.8150   26.6060   47.0430 C   0  0  0  0  0  0  0  0  0  0  0  0
   45.7960   27.4350   47.5060 N   0  0  0  0  0  0  0  0  0  0  0  0
   45.1740   35.4830   43.4910 C   0  0  0  0  0  0  0  0  0  0  0  0
   46.2980   35.0760   42.7710 C   0  0  0  0  0  0  0  0  0  0  0  0
   47.1080   34.1280   43.3870 C   0  0  0  0  0  0  0  0  0  0  0  0
   46.7690   33.6640   44.6240 N   0  0  0  0  0  0  0  0  0  0  0  0
   45.6830   34.0760   45.2870 C   0  0  0  0  0  0  0  0  0  0  0  0
   44.9050   34.9790   44.7100 N   0  0  0  0  0  0  0  0  0  0  0  0
   48.3100   33.5800   42.8110 N   0  0  0  0  0  0  0  0  0  0  0  0
   49.3410   34.4180   42.2140 C   0  0  0  0  0  0  0  0  0  0  0  0
   50.7080   33.8250   42.4670 C   0  0  0  0  0  0  0  0  0  0  0  0
   50.8240   32.4100   42.0050 C   0  0  0  0  0  0  0  0  0  0  0  0
   49.4690   31.8330   41.6440 C   0  0  0  0  0  0  0  0  0  0  0  0
   48.5260   32.1460   42.8130 C   0  0  0  0  0  0  0  0  0  0  0  0
   47.7390   33.4701   47.8594 H   0  0  0  0  0  0  0  0  0  0  0  0
   48.9109   31.4206   48.7189 H   0  0  0  0  0  0  0  0  0  0  0  0
   47.8823   29.1728   48.4089 H   0  0  0  0  0  0  0  0  0  0  0  0
   44.7575   25.5130   47.1528 H   0  0  0  0  0  0  0  0  0  0  0  0
   44.4948   36.2299   43.0541 H   0  0  0  0  0  0  0  0  0  0  0  0
   46.5297   35.4811   41.7749 H   0  0  0  0  0  0  0  0  0  0  0  0
   49.2936   35.4236   42.6574 H   0  0  0  0  0  0  0  0  0  0  0  0
   49.1711   34.4773   41.1288 H   0  0  0  0  0  0  0  0  0  0  0  0
   51.4567   34.4301   41.9348 H   0  0  0  0  0  0  0  0  0  0  0  0
   50.8734   33.8310   43.5545 H   0  0  0  0  0  0  0  0  0  0  0  0
   51.4754   32.3750   41.1193 H   0  0  0  0  0  0  0  0  0  0  0  0
   51.2477   31.8117   42.8251 H   0  0  0  0  0  0  0  0  0  0  0  0
   49.0938   32.2978   40.7203 H   0  0  0  0  0  0  0  0  0  0  0  0
   49.5359   30.7487   41.4714 H   0  0  0  0  0  0  0  0  0  0  0  0
   48.9853   31.8344   43.7627 H   0  0  0  0  0  0  0  0  0  0  0  0
   47.5741   31.6054   42.7052 H   0  0  0  0  0  0  0  0  0  0  0  0
  1  3  1  0
  1  2  2  0
  3  4  2  0
  4  5  1  0
  6  5  2  0
  7  6  1  0
  8  3  1  0
  8  7  2  0
  9  7  1  0
  9 13  1  0
 10  9  2  0
 11 10  1  0
 11 12  1  0
 12 13  2  0
 14 19  2  0
 15 16  2  0
 15 14  1  0
 16 17  1  0
 17 18  2  0
 18  1  1  0
 19 18  1  0
 20 25  1  0
 20 16  1  0
 21 22  1  0
 21 20  1  0
 23 22  1  0
 24 23  1  0
 24 25  1  0
  4 26  1  0
  5 27  1  0
  6 28  1  0
 12 29  1  0
 14 30  1  0
 15 31  1  0
 21 32  1  0
 21 33  1  0
 22 34  1  0
 22 35  1  0
 23 36  1  0
 23 37  1  0
 24 38  1  0
 24 39  1  0
 25 40  1  0
 25 41  1  0
M  ISO  8  26  14  27  14  28  14  29  14  30  14  31  14  32  13  33  13
M  ISO  8  34  13  35  13  36  13  37  13  38  13  39  13  40  13  41  13
M  END
>  <minimizedAffinity>  (1) 
-5.95085716

>  <minimizedRMSD>  (1) 
0.636735857

$$$$
