
     RDKit          3D

 40 43  0  0  0  0  0  0  0  0999 V2000
   45.3900   33.6150   46.4860 C   0  0  0  0  0  0  0  0  0  0  0  0
   44.5200   34.2370   47.1730 O   0  0  0  0  0  0  0  0  0  0  0  0
   45.9690   32.4220   47.1080 C   0  0  0  0  0  0  0  0  0  0  0  0
   47.1230   32.5530   47.8440 C   0  0  0  0  0  0  0  0  0  0  0  0
   47.6740   31.4150   48.4370 C   0  0  0  0  0  0  0  0  0  0  0  0
   47.0690   30.1710   48.2890 C   0  0  0  0  0  0  0  0  0  0  0  0
   45.9170   30.0920   47.5450 C   0  0  0  0  0  0  0  0  0  0  0  0
   45.4010   31.2020   46.9800 N   0  0  0  0  0  0  0  0  0  0  0  0
   45.2050   28.8400   47.3280 C   0  0  0  0  0  0  0  0  0  0  0  0
   44.2550   28.7180   46.3810 N   0  0  0  0  0  0  0  0  0  0  0  0
   43.7850   27.5040   46.4010 O   0  0  0  0  0  0  0  0  0  0  0  0
   44.3910   26.7910   47.3400 C   0  0  0  0  0  0  0  0  0  0  0  0
   45.2840   27.6120   47.9320 N   0  0  0  0  0  0  0  0  0  0  0  0
   45.5030   35.4060   43.2810 C   0  0  0  0  0  0  0  0  0  0  0  0
   46.6230   34.8270   42.6360 C   0  0  0  0  0  0  0  0  0  0  0  0
   47.2760   33.8500   43.3450 C   0  0  0  0  0  0  0  0  0  0  0  0
   46.8610   33.4740   44.5860 N   0  0  0  0  0  0  0  0  0  0  0  0
   45.7840   34.0510   45.1720 C   0  0  0  0  0  0  0  0  0  0  0  0
   45.1200   35.0060   44.5150 N   0  0  0  0  0  0  0  0  0  0  0  0
   48.4090   33.2390   42.7370 N   0  0  0  0  0  0  0  0  0  0  0  0
   49.6470   33.9930   42.7200 C   0  0  0  0  0  0  0  0  0  0  0  0
   50.6650   33.1840   41.9520 C   0  0  0  0  0  0  0  0  0  0  0  0
   50.1090   32.8310   40.6810 N   0  0  0  0  0  0  0  0  0  0  0  0
   49.0550   31.8580   40.8180 C   0  0  0  0  0  0  0  0  0  0  0  0
   48.3680   31.9110   42.1450 C   0  0  0  0  0  0  0  0  0  0  0  0
   47.6031   33.5355   47.9634 H   0  0  0  0  0  0  0  0  0  0  0  0
   48.5974   31.5033   49.0282 H   0  0  0  0  0  0  0  0  0  0  0  0
   47.5019   29.2739   48.7557 H   0  0  0  0  0  0  0  0  0  0  0  0
   44.2028   25.7360   47.5883 H   0  0  0  0  0  0  0  0  0  0  0  0
   44.9339   36.1958   42.7688 H   0  0  0  0  0  0  0  0  0  0  0  0
   46.9482   35.1398   41.6328 H   0  0  0  0  0  0  0  0  0  0  0  0
   49.4886   34.9628   42.2256 H   0  0  0  0  0  0  0  0  0  0  0  0
   49.9980   34.1817   43.7453 H   0  0  0  0  0  0  0  0  0  0  0  0
   51.5766   33.7815   41.8038 H   0  0  0  0  0  0  0  0  0  0  0  0
   50.9207   32.2738   42.5142 H   0  0  0  0  0  0  0  0  0  0  0  0
   50.8532   32.4371   40.0878 H   0  0  0  0  0  0  0  0  0  0  0  0
   48.3082   32.0395   40.0310 H   0  0  0  0  0  0  0  0  0  0  0  0
   49.5171   30.8636   40.7306 H   0  0  0  0  0  0  0  0  0  0  0  0
   47.3168   31.6162   42.0108 H   0  0  0  0  0  0  0  0  0  0  0  0
   48.8952   31.2244   42.8237 H   0  0  0  0  0  0  0  0  0  0  0  0
  1  3  1  0
  1  2  2  0
  3  4  2  0
  4  5  1  0
  6  5  2  0
  7  6  1  0
  8  3  1  0
  8  7  2  0
  9  7  1  0
  9 13  1  0
 10 11  1  0
 10  9  2  0
 11 12  1  0
 12 13  2  0
 14 19  2  0
 15 14  1  0
 15 16  2  0
 16 17  1  0
 17 18  2  0
 18  1  1  0
 19 18  1  0
 20 16  1  0
 21 20  1  0
 22 21  1  0
 23 24  1  0
 23 22  1  0
 24 25  1  0
 25 20  1  0
  4 26  1  0
  5 27  1  0
  6 28  1  0
 12 29  1  0
 14 30  1  0
 15 31  1  0
 21 32  1  0
 21 33  1  0
 22 34  1  0
 22 35  1  0
 23 36  1  0
 24 37  1  0
 24 38  1  0
 25 39  1  0
 25 40  1  0
M  ISO  8  26  14  27  14  28  14  29  14  30  14  31  14  32  13  33  13
M  ISO  7  34  13  35  13  36   5  37  13  38  13  39  13  40  13
M  END
>  <minimizedAffinity>  (1) 
-5.79645681

>  <minimizedRMSD>  (1) 
0.540567756

$$$$
