
     RDKit          3D

 35 38  0  0  0  0  0  0  0  0999 V2000
   45.4130   33.5830   46.4900 C   0  0  0  0  0  0  0  0  0  0  0  0
   44.5400   34.1700   47.1900 O   0  0  0  0  0  0  0  0  0  0  0  0
   46.0300   32.3970   47.1010 C   0  0  0  0  0  0  0  0  0  0  0  0
   47.1710   32.5640   47.8690 C   0  0  0  0  0  0  0  0  0  0  0  0
   47.7610   31.4450   48.4500 C   0  0  0  0  0  0  0  0  0  0  0  0
   47.2190   30.1820   48.2660 C   0  0  0  0  0  0  0  0  0  0  0  0
   46.0800   30.0610   47.4930 C   0  0  0  0  0  0  0  0  0  0  0  0
   45.5310   31.1630   46.9420 N   0  0  0  0  0  0  0  0  0  0  0  0
   45.4260   28.7800   47.2350 C   0  0  0  0  0  0  0  0  0  0  0  0
   44.3070   28.6860   46.4950 N   0  0  0  0  0  0  0  0  0  0  0  0
   43.9420   27.4500   46.4240 O   0  0  0  0  0  0  0  0  0  0  0  0
   44.7760   26.6780   47.0940 C   0  0  0  0  0  0  0  0  0  0  0  0
   45.7330   27.5000   47.6220 N   0  0  0  0  0  0  0  0  0  0  0  0
   45.4130   35.3060   43.2600 C   0  0  0  0  0  0  0  0  0  0  0  0
   46.5940   34.8570   42.6560 C   0  0  0  0  0  0  0  0  0  0  0  0
   47.3500   33.9740   43.3880 C   0  0  0  0  0  0  0  0  0  0  0  0
   46.9320   33.5840   44.6310 N   0  0  0  0  0  0  0  0  0  0  0  0
   45.7880   34.0390   45.1780 C   0  0  0  0  0  0  0  0  0  0  0  0
   45.0280   34.8940   44.5030 N   0  0  0  0  0  0  0  0  0  0  0  0
   48.6050   33.4390   42.8570 C   0  0  0  0  0  0  0  0  0  0  0  0
   49.7020   34.2430   42.7410 C   0  0  0  0  0  0  0  0  0  0  0  0
   50.8280   33.5990   42.2180 C   0  0  0  0  0  0  0  0  0  0  0  0
   50.8420   32.2620   41.8460 C   0  0  0  0  0  0  0  0  0  0  0  0
   49.6750   31.5130   41.9980 C   0  0  0  0  0  0  0  0  0  0  0  0
   48.6140   32.1430   42.4970 N   0  0  0  0  0  0  0  0  0  0  0  0
   47.6036   33.5644   48.0172 H   0  0  0  0  0  0  0  0  0  0  0  0
   48.6673   31.5640   49.0619 H   0  0  0  0  0  0  0  0  0  0  0  0
   47.6848   29.2972   48.7246 H   0  0  0  0  0  0  0  0  0  0  0  0
   44.7137   25.5855   47.2062 H   0  0  0  0  0  0  0  0  0  0  0  0
   44.7736   36.0152   42.7139 H   0  0  0  0  0  0  0  0  0  0  0  0
   46.8986   35.1920   41.6535 H   0  0  0  0  0  0  0  0  0  0  0  0
   49.7006   35.3035   43.0330 H   0  0  0  0  0  0  0  0  0  0  0  0
   51.7518   34.1834   42.0949 H   0  0  0  0  0  0  0  0  0  0  0  0
   51.7549   31.8022   41.4395 H   0  0  0  0  0  0  0  0  0  0  0  0
   49.6335   30.4500   41.7182 H   0  0  0  0  0  0  0  0  0  0  0  0
  1  3  1  0
  1  2  2  0
  3  4  2  0
  4  5  1  0
  6  5  2  0
  7  6  1  0
  8  3  1  0
  8  7  2  0
  9  7  1  0
  9 13  1  0
 10  9  2  0
 11 10  1  0
 11 12  1  0
 12 13  2  0
 14 19  2  0
 15 14  1  0
 15 16  2  0
 16 17  1  0
 17 18  2  0
 18  1  1  0
 19 18  1  0
 20 16  1  0
 21 20  2  0
 22 21  1  0
 23 24  1  0
 23 22  2  0
 24 25  2  0
 25 20  1  0
  4 26  1  0
  5 27  1  0
  6 28  1  0
 12 29  1  0
 14 30  1  0
 15 31  1  0
 21 32  1  0
 22 33  1  0
 23 34  1  0
 24 35  1  0
M  ISO  8  26  14  27  14  28  14  29  14  30  14  31  14  32  14  33  14
M  ISO  2  34  14  35  14
M  END
>  <minimizedAffinity>  (1) 
-5.94443798

>  <minimizedRMSD>  (1) 
0.727824986

$$$$
