
     RDKit          3D

 33 36  0  0  0  0  0  0  0  0999 V2000
   46.0200   32.4440   47.0460 C   0  0  0  0  0  0  0  0  0  0  0  0
   47.2200   32.5990   47.7320 C   0  0  0  0  0  0  0  0  0  0  0  0
   47.8350   31.4570   48.2660 C   0  0  0  0  0  0  0  0  0  0  0  0
   47.2730   30.2070   48.1240 C   0  0  0  0  0  0  0  0  0  0  0  0
   46.0840   30.1010   47.4390 C   0  0  0  0  0  0  0  0  0  0  0  0
   45.5100   31.2100   46.9330 N   0  0  0  0  0  0  0  0  0  0  0  0
   45.3980   28.8240   47.2260 C   0  0  0  0  0  0  0  0  0  0  0  0
   44.3050   28.7270   46.4630 N   0  0  0  0  0  0  0  0  0  0  0  0
   43.9020   27.5020   46.4410 O   0  0  0  0  0  0  0  0  0  0  0  0
   44.6880   26.7320   47.1750 C   0  0  0  0  0  0  0  0  0  0  0  0
   45.6440   27.5640   47.6800 N   0  0  0  0  0  0  0  0  0  0  0  0
   45.3730   33.6370   46.4850 C   0  0  0  0  0  0  0  0  0  0  0  0
   44.5120   34.1930   47.2160 O   0  0  0  0  0  0  0  0  0  0  0  0
   45.2730   35.4420   43.3000 C   0  0  0  0  0  0  0  0  0  0  0  0
   46.4410   35.0190   42.6620 C   0  0  0  0  0  0  0  0  0  0  0  0
   47.2250   34.1260   43.3490 C   0  0  0  0  0  0  0  0  0  0  0  0
   46.8510   33.6950   44.5900 N   0  0  0  0  0  0  0  0  0  0  0  0
   45.7240   34.1190   45.1780 C   0  0  0  0  0  0  0  0  0  0  0  0
   44.9570   34.9820   44.5250 N   0  0  0  0  0  0  0  0  0  0  0  0
   48.5030   33.5370   42.8830 C   0  0  0  0  0  0  0  0  0  0  0  0
   49.6840   34.2500   42.7190 C   0  0  0  0  0  0  0  0  0  0  0  0
   50.7820   33.5700   42.2820 C   0  0  0  0  0  0  0  0  0  0  0  0
   50.6490   32.2050   42.0270 C   0  0  0  0  0  0  0  0  0  0  0  0
   48.8610   31.8840   42.4370 S   0  0  0  0  0  0  0  0  0  0  0  0
   47.6756   33.5929   47.8528 H   0  0  0  0  0  0  0  0  0  0  0  0
   48.7857   31.5615   48.8094 H   0  0  0  0  0  0  0  0  0  0  0  0
   47.7619   29.3170   48.5471 H   0  0  0  0  0  0  0  0  0  0  0  0
   44.5913   25.6492   47.3428 H   0  0  0  0  0  0  0  0  0  0  0  0
   44.6055   36.1572   42.7972 H   0  0  0  0  0  0  0  0  0  0  0  0
   46.7182   35.3824   41.6614 H   0  0  0  0  0  0  0  0  0  0  0  0
   49.7317   35.3276   42.9346 H   0  0  0  0  0  0  0  0  0  0  0  0
   51.7441   34.0825   42.1349 H   0  0  0  0  0  0  0  0  0  0  0  0
   51.4106   31.4950   41.6721 H   0  0  0  0  0  0  0  0  0  0  0  0
  1  2  2  0
  2  3  1  0
  4  3  2  0
  5  4  1  0
  6  1  1  0
  6  5  2  0
  7  5  1  0
  7 11  1  0
  8  7  2  0
  9  8  1  0
  9 10  1  0
 10 11  2  0
 12  1  1  0
 12 13  2  0
 14 19  2  0
 15 14  1  0
 15 16  2  0
 16 17  1  0
 17 18  2  0
 18 12  1  0
 19 18  1  0
 20 16  1  0
 21 20  2  0
 22 21  1  0
 23 22  2  0
 23 24  1  0
 24 20  1  0
  2 25  1  0
  3 26  1  0
  4 27  1  0
 10 28  1  0
 14 29  1  0
 15 30  1  0
 21 31  1  0
 22 32  1  0
 23 33  1  0
M  ISO  8  25  14  26  14  27  14  28  14  29  14  30  14  31  14  32  14
M  ISO  1  33  14
M  END
>  <minimizedAffinity>  (1) 
-5.86014271

>  <minimizedRMSD>  (1) 
0.608739316

$$$$
