
     RDKit          3D

 33 36  0  0  0  0  0  0  0  0999 V2000
   45.4200   33.5440   46.4730 C   0  0  0  0  0  0  0  0  0  0  0  0
   44.5760   34.1280   47.2290 O   0  0  0  0  0  0  0  0  0  0  0  0
   46.0410   32.3430   47.0190 C   0  0  0  0  0  0  0  0  0  0  0  0
   47.2590   32.4500   47.6490 C   0  0  0  0  0  0  0  0  0  0  0  0
   47.8510   31.2950   48.1710 C   0  0  0  0  0  0  0  0  0  0  0  0
   47.2340   30.0640   48.0600 C   0  0  0  0  0  0  0  0  0  0  0  0
   46.0180   30.0020   47.4250 C   0  0  0  0  0  0  0  0  0  0  0  0
   45.4590   31.1240   46.9260 N   0  0  0  0  0  0  0  0  0  0  0  0
   45.2740   28.7520   47.2510 C   0  0  0  0  0  0  0  0  0  0  0  0
   44.2490   28.6580   46.3710 N   0  0  0  0  0  0  0  0  0  0  0  0
   43.7850   27.4400   46.4340 O   0  0  0  0  0  0  0  0  0  0  0  0
   44.4410   26.7180   47.3050 C   0  0  0  0  0  0  0  0  0  0  0  0
   45.3830   27.5310   47.8280 N   0  0  0  0  0  0  0  0  0  0  0  0
   45.2110   35.2620   43.2420 C   0  0  0  0  0  0  0  0  0  0  0  0
   46.4420   34.9510   42.6450 C   0  0  0  0  0  0  0  0  0  0  0  0
   47.2940   34.1640   43.3790 C   0  0  0  0  0  0  0  0  0  0  0  0
   46.9390   33.7210   44.6160 N   0  0  0  0  0  0  0  0  0  0  0  0
   45.7420   34.0400   45.1640 C   0  0  0  0  0  0  0  0  0  0  0  0
   44.8920   34.8030   44.4750 N   0  0  0  0  0  0  0  0  0  0  0  0
   48.6000   33.7820   42.8510 C   0  0  0  0  0  0  0  0  0  0  0  0
   48.8530   32.6880   42.0500 C   0  0  0  0  0  0  0  0  0  0  0  0
   50.1690   32.6720   41.7710 N   0  0  0  0  0  0  0  0  0  0  0  0
   50.7130   33.7540   42.4010 C   0  0  0  0  0  0  0  0  0  0  0  0
   49.7540   34.4390   43.0660 N   0  0  0  0  0  0  0  0  0  0  0  0
   47.7584   33.4258   47.7407 H   0  0  0  0  0  0  0  0  0  0  0  0
   48.8242   31.3682   48.6784 H   0  0  0  0  0  0  0  0  0  0  0  0
   47.7042   29.1577   48.4693 H   0  0  0  0  0  0  0  0  0  0  0  0
   44.2616   25.6630   47.5596 H   0  0  0  0  0  0  0  0  0  0  0  0
   44.4912   35.8909   42.6977 H   0  0  0  0  0  0  0  0  0  0  0  0
   46.7098   35.3179   41.6432 H   0  0  0  0  0  0  0  0  0  0  0  0
   48.1092   31.9568   41.7006 H   0  0  0  0  0  0  0  0  0  0  0  0
   51.7776   34.0294   42.3722 H   0  0  0  0  0  0  0  0  0  0  0  0
   49.8822   35.2940   43.6258 H   0  0  0  0  0  0  0  0  0  0  0  0
  1  3  1  0
  1  2  2  0
  3  4  2  0
  4  5  1  0
  6  5  2  0
  7  6  1  0
  8  3  1  0
  8  7  2  0
  9  7  1  0
  9 13  1  0
 10 11  1  0
 10  9  2  0
 11 12  1  0
 12 13  2  0
 14 19  2  0
 15 14  1  0
 15 16  2  0
 16 17  1  0
 17 18  2  0
 18  1  1  0
 19 18  1  0
 20 24  1  0
 20 16  1  0
 21 20  2  0
 22 21  1  0
 22 23  2  0
 23 24  1  0
  4 25  1  0
  5 26  1  0
  6 27  1  0
 12 28  1  0
 14 29  1  0
 15 30  1  0
 21 31  1  0
 23 32  1  0
 24 33  1  0
M  ISO  8  25  14  26  14  27  14  28  14  29  14  30  14  31  14  32  14
M  ISO  1  33   9
M  END
>  <minimizedAffinity>  (1) 
-5.93229675

>  <minimizedRMSD>  (1) 
0.713669121

$$$$
