
     RDKit          3D

 33 36  0  0  0  0  0  0  0  0999 V2000
   45.5080   33.6890   46.0320 C   0  0  0  0  0  0  0  0  0  0  0  0
   44.6770   34.4070   46.6690 O   0  0  0  0  0  0  0  0  0  0  0  0
   46.0330   32.5350   46.7580 C   0  0  0  0  0  0  0  0  0  0  0  0
   47.1640   32.7100   47.5440 C   0  0  0  0  0  0  0  0  0  0  0  0
   47.6690   31.6020   48.2410 C   0  0  0  0  0  0  0  0  0  0  0  0
   47.0590   30.3620   48.1500 C   0  0  0  0  0  0  0  0  0  0  0  0
   45.9440   30.2360   47.3620 C   0  0  0  0  0  0  0  0  0  0  0  0
   45.4640   31.3130   46.6920 N   0  0  0  0  0  0  0  0  0  0  0  0
   45.2110   28.9840   47.1840 C   0  0  0  0  0  0  0  0  0  0  0  0
   44.2120   28.8440   46.3000 N   0  0  0  0  0  0  0  0  0  0  0  0
   43.7530   27.6420   46.3600 O   0  0  0  0  0  0  0  0  0  0  0  0
   44.4040   26.9250   47.2690 C   0  0  0  0  0  0  0  0  0  0  0  0
   45.3250   27.7700   47.7900 N   0  0  0  0  0  0  0  0  0  0  0  0
   45.4710   34.7900   42.5330 C   0  0  0  0  0  0  0  0  0  0  0  0
   46.7820   34.5220   42.1110 C   0  0  0  0  0  0  0  0  0  0  0  0
   47.6230   33.9730   43.0490 C   0  0  0  0  0  0  0  0  0  0  0  0
   47.1860   33.7120   44.3140 N   0  0  0  0  0  0  0  0  0  0  0  0
   45.9130   33.9850   44.6860 C   0  0  0  0  0  0  0  0  0  0  0  0
   45.0670   34.5200   43.7980 N   0  0  0  0  0  0  0  0  0  0  0  0
   49.0080   33.6510   42.7200 C   0  0  0  0  0  0  0  0  0  0  0  0
   49.4640   32.3950   42.3570 C   0  0  0  0  0  0  0  0  0  0  0  0
   50.8270   32.4480   42.1160 C   0  0  0  0  0  0  0  0  0  0  0  0
   51.1770   33.7480   42.3410 N   0  0  0  0  0  0  0  0  0  0  0  0
   50.0940   34.4210   42.6900 N   0  0  0  0  0  0  0  0  0  0  0  0
   47.6521   33.6930   47.6184 H   0  0  0  0  0  0  0  0  0  0  0  0
   48.5638   31.7201   48.8698 H   0  0  0  0  0  0  0  0  0  0  0  0
   47.4604   29.4968   48.6981 H   0  0  0  0  0  0  0  0  0  0  0  0
   44.2322   25.8728   47.5399 H   0  0  0  0  0  0  0  0  0  0  0  0
   44.7558   35.2287   41.8217 H   0  0  0  0  0  0  0  0  0  0  0  0
   47.1180   34.7393   41.0863 H   0  0  0  0  0  0  0  0  0  0  0  0
   48.8396   31.4933   42.2729 H   0  0  0  0  0  0  0  0  0  0  0  0
   51.4849   31.6214   41.8096 H   0  0  0  0  0  0  0  0  0  0  0  0
   52.1259   34.1391   42.2535 H   0  0  0  0  0  0  0  0  0  0  0  0
  1  2  2  0
  1  3  1  0
  3  4  2  0
  4  5  1  0
  6  5  2  0
  7  6  1  0
  8  3  1  0
  8  7  2  0
  9  7  1  0
  9 13  1  0
 10 11  1  0
 10  9  2  0
 11 12  1  0
 12 13  2  0
 14 19  2  0
 15 14  1  0
 15 16  2  0
 16 17  1  0
 17 18  2  0
 18  1  1  0
 19 18  1  0
 20 16  1  0
 21 20  1  0
 22 23  1  0
 22 21  2  0
 23 24  1  0
 24 20  2  0
  4 25  1  0
  5 26  1  0
  6 27  1  0
 12 28  1  0
 14 29  1  0
 15 30  1  0
 21 31  1  0
 22 32  1  0
 23 33  1  0
M  ISO  8  25  14  26  14  27  14  28  14  29  14  30  14  31  14  32  14
M  ISO  1  33   9
M  END
>  <minimizedAffinity>  (1) 
-5.95953989

>  <minimizedRMSD>  (1) 
0.952665031

$$$$
