
     RDKit          3D

 34 37  0  0  0  0  0  0  0  0999 V2000
   45.3950   33.6320   46.4610 C   0  0  0  0  0  0  0  0  0  0  0  0
   44.5300   34.1950   47.1940 O   0  0  0  0  0  0  0  0  0  0  0  0
   46.0320   32.4510   47.0370 C   0  0  0  0  0  0  0  0  0  0  0  0
   47.2190   32.5940   47.7380 C   0  0  0  0  0  0  0  0  0  0  0  0
   47.8250   31.4660   48.2850 C   0  0  0  0  0  0  0  0  0  0  0  0
   47.2670   30.2130   48.1430 C   0  0  0  0  0  0  0  0  0  0  0  0
   46.0960   30.1040   47.4450 C   0  0  0  0  0  0  0  0  0  0  0  0
   45.5210   31.2130   46.9200 N   0  0  0  0  0  0  0  0  0  0  0  0
   45.4030   28.8340   47.2220 C   0  0  0  0  0  0  0  0  0  0  0  0
   44.3080   28.7330   46.4610 N   0  0  0  0  0  0  0  0  0  0  0  0
   43.9050   27.4940   46.4390 O   0  0  0  0  0  0  0  0  0  0  0  0
   44.7070   26.7390   47.1760 C   0  0  0  0  0  0  0  0  0  0  0  0
   45.6590   27.5650   47.6790 N   0  0  0  0  0  0  0  0  0  0  0  0
   45.3310   35.4600   43.2850 C   0  0  0  0  0  0  0  0  0  0  0  0
   46.4700   34.9850   42.6190 C   0  0  0  0  0  0  0  0  0  0  0  0
   47.2110   34.0520   43.3000 C   0  0  0  0  0  0  0  0  0  0  0  0
   46.8430   33.6330   44.5400 N   0  0  0  0  0  0  0  0  0  0  0  0
   45.7330   34.1140   45.1520 C   0  0  0  0  0  0  0  0  0  0  0  0
   44.9900   35.0200   44.5220 N   0  0  0  0  0  0  0  0  0  0  0  0
   48.4170   33.4950   42.6940 C   0  0  0  0  0  0  0  0  0  0  0  0
   49.6260   34.1500   42.8050 C   0  0  0  0  0  0  0  0  0  0  0  0
   50.7370   33.5550   42.1990 C   0  0  0  0  0  0  0  0  0  0  0  0
   50.6100   32.3770   41.5320 N   0  0  0  0  0  0  0  0  0  0  0  0
   49.4030   31.7530   41.4400 C   0  0  0  0  0  0  0  0  0  0  0  0
   48.3340   32.3310   42.0260 N   0  0  0  0  0  0  0  0  0  0  0  0
   47.6768   33.5866   47.8608 H   0  0  0  0  0  0  0  0  0  0  0  0
   48.7675   31.5766   48.8414 H   0  0  0  0  0  0  0  0  0  0  0  0
   47.7502   29.3261   48.5789 H   0  0  0  0  0  0  0  0  0  0  0  0
   44.6184   25.6559   47.3465 H   0  0  0  0  0  0  0  0  0  0  0  0
   44.6964   36.2103   42.7906 H   0  0  0  0  0  0  0  0  0  0  0  0
   46.7513   35.3374   41.6157 H   0  0  0  0  0  0  0  0  0  0  0  0
   49.7127   35.1024   43.3485 H   0  0  0  0  0  0  0  0  0  0  0  0
   51.7206   34.0434   42.2624 H   0  0  0  0  0  0  0  0  0  0  0  0
   49.3020   30.7998   40.9004 H   0  0  0  0  0  0  0  0  0  0  0  0
  1  3  1  0
  1  2  2  0
  3  4  2  0
  4  5  1  0
  6  5  2  0
  7  6  1  0
  8  3  1  0
  8  7  2  0
  9  7  1  0
  9 13  1  0
 10  9  2  0
 11 10  1  0
 11 12  1  0
 12 13  2  0
 14 19  2  0
 15 14  1  0
 15 16  2  0
 16 17  1  0
 17 18  2  0
 18  1  1  0
 19 18  1  0
 20 21  2  0
 20 16  1  0
 22 21  1  0
 23 22  2  0
 24 23  1  0
 24 25  2  0
 25 20  1  0
  4 26  1  0
  5 27  1  0
  6 28  1  0
 12 29  1  0
 14 30  1  0
 15 31  1  0
 21 32  1  0
 22 33  1  0
 24 34  1  0
M  ISO  8  26  14  27  14  28  14  29  14  30  14  31  14  32  14  33  14
M  ISO  1  34  14
M  END
>  <minimizedAffinity>  (1) 
-5.80334759

>  <minimizedRMSD>  (1) 
0.523407161

$$$$
