
     RDKit          3D

 29 31  0  0  0  0  0  0  0  0999 V2000
   46.4560   33.4510   41.1840 C   0  0  0  0  0  0  0  0  0  0  0  0
   47.0700   33.6420   39.8880 N   0  0  0  0  0  0  0  0  0  0  0  0
   48.0850   34.4610   39.5620 C   0  0  0  0  0  0  0  0  0  0  0  0
   48.3660   34.3470   38.2370 N   0  0  0  0  0  0  0  0  0  0  0  0
   47.5080   33.4410   37.7390 C   0  0  0  0  0  0  0  0  0  0  0  0
   47.3080   32.9180   36.4940 C   0  0  0  0  0  0  0  0  0  0  0  0
   46.3630   31.9990   36.2290 N   0  0  0  0  0  0  0  0  0  0  0  0
   45.5830   31.5850   37.2580 C   0  0  0  0  0  0  0  0  0  0  0  0
   45.7530   32.0820   38.5080 N   0  0  0  0  0  0  0  0  0  0  0  0
   46.7030   33.0020   38.7610 C   0  0  0  0  0  0  0  0  0  0  0  0
   48.1250   33.3540   35.4250 N   0  0  0  0  0  0  0  0  0  0  0  0
   45.5720   34.6800   41.4810 C   0  0  0  0  0  0  0  0  0  0  0  0
   44.5250   35.8210   44.9490 C   0  0  0  0  0  0  0  0  0  0  0  0
   44.6950   35.8450   43.5680 C   0  0  0  0  0  0  0  0  0  0  0  0
   45.3390   34.7530   42.9680 C   0  0  0  0  0  0  0  0  0  0  0  0
   45.7680   33.7150   43.7620 N   0  0  0  0  0  0  0  0  0  0  0  0
   45.5770   33.7430   45.1030 C   0  0  0  0  0  0  0  0  0  0  0  0
   44.9650   34.7810   45.6790 N   0  0  0  0  0  0  0  0  0  0  0  0
   47.2346   33.3566   41.9552 H   0  0  0  0  0  0  0  0  0  0  0  0
   45.8478   32.5344   41.1863 H   0  0  0  0  0  0  0  0  0  0  0  0
   48.6105   35.1253   40.2639 H   0  0  0  0  0  0  0  0  0  0  0  0
   44.8000   30.8342   37.0758 H   0  0  0  0  0  0  0  0  0  0  0  0
   47.9859   32.9684   34.4801 H   0  0  0  0  0  0  0  0  0  0  0  0
   48.8591   34.0571   35.5914 H   0  0  0  0  0  0  0  0  0  0  0  0
   46.0803   35.5939   41.1397 H   0  0  0  0  0  0  0  0  0  0  0  0
   44.6113   34.5898   40.9529 H   0  0  0  0  0  0  0  0  0  0  0  0
   44.0246   36.6631   45.4495 H   0  0  0  0  0  0  0  0  0  0  0  0
   44.3359   36.6930   42.9664 H   0  0  0  0  0  0  0  0  0  0  0  0
   45.9286   32.9045   45.7221 H   0  0  0  0  0  0  0  0  0  0  0  0
  1 12  1  0
  2  1  1  0
  3  2  1  0
  4  3  2  0
  5  4  1  0
  5 10  2  0
  6  5  1  0
  7  6  2  0
  7  8  1  0
  8  9  2  0
  9 10  1  0
 10  2  1  0
 11  6  1  0
 12 15  1  0
 13 18  2  0
 14 13  1  0
 15 14  2  0
 15 16  1  0
 16 17  2  0
 17 18  1  0
  1 19  1  0
  1 20  1  0
  3 21  1  0
  8 22  1  0
 11 23  1  0
 11 24  1  0
 12 25  1  0
 12 26  1  0
 13 27  1  0
 14 28  1  0
 17 29  1  0
M  ISO  8  19   8  20   8  21  14  22  14  25   8  26   8  27  14  28  14
M  ISO  1  29  14
M  END
>  <minimizedAffinity>  (1) 
-4.51700449

>  <minimizedRMSD>  (1) 
2.48740458

$$$$
