
     RDKit          3D

 39 42  0  0  0  0  0  0  0  0999 V2000
   45.4080   33.6000   46.4980 C   0  0  0  0  0  0  0  0  0  0  0  0
   44.5290   34.1890   47.2100 O   0  0  0  0  0  0  0  0  0  0  0  0
   46.0280   32.4150   47.1040 C   0  0  0  0  0  0  0  0  0  0  0  0
   47.1780   32.5760   47.8410 C   0  0  0  0  0  0  0  0  0  0  0  0
   47.7670   31.4450   48.4180 C   0  0  0  0  0  0  0  0  0  0  0  0
   47.2080   30.1910   48.2530 C   0  0  0  0  0  0  0  0  0  0  0  0
   46.0530   30.0800   47.5050 C   0  0  0  0  0  0  0  0  0  0  0  0
   45.5130   31.1840   46.9650 N   0  0  0  0  0  0  0  0  0  0  0  0
   45.3790   28.8110   47.2640 C   0  0  0  0  0  0  0  0  0  0  0  0
   44.3000   28.7110   46.4780 N   0  0  0  0  0  0  0  0  0  0  0  0
   43.9070   27.4680   46.4440 O   0  0  0  0  0  0  0  0  0  0  0  0
   44.6920   26.7160   47.1880 C   0  0  0  0  0  0  0  0  0  0  0  0
   45.6220   27.5420   47.7120 N   0  0  0  0  0  0  0  0  0  0  0  0
   45.4130   35.4120   43.3100 C   0  0  0  0  0  0  0  0  0  0  0  0
   46.5530   34.8840   42.6650 C   0  0  0  0  0  0  0  0  0  0  0  0
   47.2750   33.9280   43.3500 C   0  0  0  0  0  0  0  0  0  0  0  0
   46.8530   33.5510   44.5920 N   0  0  0  0  0  0  0  0  0  0  0  0
   45.7710   34.0590   45.1910 C   0  0  0  0  0  0  0  0  0  0  0  0
   45.0670   34.9810   44.5420 N   0  0  0  0  0  0  0  0  0  0  0  0
   48.4430   33.3510   42.7510 N   0  0  0  0  0  0  0  0  0  0  0  0
   49.6290   34.1970   42.7620 C   0  0  0  0  0  0  0  0  0  0  0  0
   50.8030   33.4250   42.1980 C   0  0  0  0  0  0  0  0  0  0  0  0
   50.7370   32.0730   42.5010 O   0  0  0  0  0  0  0  0  0  0  0  0
   49.6780   31.4380   41.8630 C   0  0  0  0  0  0  0  0  0  0  0  0
   48.3290   32.0090   42.2070 C   0  0  0  0  0  0  0  0  0  0  0  0
   47.6252   33.5721   47.9741 H   0  0  0  0  0  0  0  0  0  0  0  0
   48.6871   31.5551   49.0108 H   0  0  0  0  0  0  0  0  0  0  0  0
   47.6725   29.3032   48.7069 H   0  0  0  0  0  0  0  0  0  0  0  0
   44.6066   25.6313   47.3499 H   0  0  0  0  0  0  0  0  0  0  0  0
   44.8043   36.1776   42.8066 H   0  0  0  0  0  0  0  0  0  0  0  0
   46.8522   35.2198   41.6612 H   0  0  0  0  0  0  0  0  0  0  0  0
   49.4479   35.0907   42.1468 H   0  0  0  0  0  0  0  0  0  0  0  0
   49.8525   34.5028   43.7947 H   0  0  0  0  0  0  0  0  0  0  0  0
   51.7323   33.8370   42.6183 H   0  0  0  0  0  0  0  0  0  0  0  0
   50.7784   33.5266   41.1030 H   0  0  0  0  0  0  0  0  0  0  0  0
   49.6878   30.3759   42.1490 H   0  0  0  0  0  0  0  0  0  0  0  0
   49.8213   31.5853   40.7824 H   0  0  0  0  0  0  0  0  0  0  0  0
   47.7125   32.0433   41.2966 H   0  0  0  0  0  0  0  0  0  0  0  0
   47.8655   31.3654   42.9692 H   0  0  0  0  0  0  0  0  0  0  0  0
  1  3  1  0
  1  2  2  0
  3  4  2  0
  4  5  1  0
  6  5  2  0
  7  6  1  0
  8  3  1  0
  8  7  2  0
  9  7  1  0
  9 13  1  0
 10  9  2  0
 11 10  1  0
 11 12  1  0
 12 13  2  0
 14 19  2  0
 15 14  1  0
 15 16  2  0
 16 17  1  0
 17 18  2  0
 18  1  1  0
 19 18  1  0
 20 21  1  0
 20 16  1  0
 22 23  1  0
 22 21  1  0
 24 25  1  0
 24 23  1  0
 25 20  1  0
  4 26  1  0
  5 27  1  0
  6 28  1  0
 12 29  1  0
 14 30  1  0
 15 31  1  0
 21 32  1  0
 21 33  1  0
 22 34  1  0
 22 35  1  0
 24 36  1  0
 24 37  1  0
 25 38  1  0
 25 39  1  0
M  ISO  8  26  14  27  14  28  14  29  14  30  14  31  14  32  13  33  13
M  ISO  6  34  13  35  13  36  13  37  13  38  13  39  13
M  END
>  <minimizedAffinity>  (1) 
-5.65303946

>  <minimizedRMSD>  (1) 
0.423262089

$$$$
