
     RDKit          3D

 39 42  0  0  0  0  0  0  0  0999 V2000
   46.0130   32.4110   46.9880 C   0  0  0  0  0  0  0  0  0  0  0  0
   47.2730   32.5190   47.5130 C   0  0  0  0  0  0  0  0  0  0  0  0
   47.9520   31.3530   47.8970 C   0  0  0  0  0  0  0  0  0  0  0  0
   47.3670   30.1130   47.7490 C   0  0  0  0  0  0  0  0  0  0  0  0
   46.0960   30.0460   47.2150 C   0  0  0  0  0  0  0  0  0  0  0  0
   45.4620   31.1810   46.8530 N   0  0  0  0  0  0  0  0  0  0  0  0
   45.3890   28.7880   47.0170 C   0  0  0  0  0  0  0  0  0  0  0  0
   44.2180   28.7320   46.3460 N   0  0  0  0  0  0  0  0  0  0  0  0
   43.8060   27.5000   46.3140 O   0  0  0  0  0  0  0  0  0  0  0  0
   44.6480   26.7160   46.9350 C   0  0  0  0  0  0  0  0  0  0  0  0
   45.6460   27.5080   47.3820 N   0  0  0  0  0  0  0  0  0  0  0  0
   45.2980   33.6360   46.5850 C   0  0  0  0  0  0  0  0  0  0  0  0
   44.4950   34.1110   47.4430 O   0  0  0  0  0  0  0  0  0  0  0  0
   44.9570   35.8200   43.6650 C   0  0  0  0  0  0  0  0  0  0  0  0
   45.9770   35.3490   42.8120 C   0  0  0  0  0  0  0  0  0  0  0  0
   46.7520   34.2950   43.2620 C   0  0  0  0  0  0  0  0  0  0  0  0
   46.4920   33.7670   44.5060 N   0  0  0  0  0  0  0  0  0  0  0  0
   45.5140   34.2370   45.2950 C   0  0  0  0  0  0  0  0  0  0  0  0
   44.7600   35.2530   44.8700 N   0  0  0  0  0  0  0  0  0  0  0  0
   47.8700   33.6570   42.5200 C   0  0  0  0  0  0  0  0  0  0  0  0
   49.0980   34.5420   42.5100 C   0  0  0  0  0  0  0  0  0  0  0  0
   50.2790   33.6010   42.4760 C   0  0  0  0  0  0  0  0  0  0  0  0
   49.7000   32.2200   42.4420 C   0  0  0  0  0  0  0  0  0  0  0  0
   48.3850   32.3970   43.1750 C   0  0  0  0  0  0  0  0  0  0  0  0
   47.7457   33.5051   47.6319 H   0  0  0  0  0  0  0  0  0  0  0  0
   48.9639   31.4288   48.3216 H   0  0  0  0  0  0  0  0  0  0  0  0
   47.9005   29.1991   48.0493 H   0  0  0  0  0  0  0  0  0  0  0  0
   44.5607   25.6275   47.0671 H   0  0  0  0  0  0  0  0  0  0  0  0
   44.3184   36.6560   43.3435 H   0  0  0  0  0  0  0  0  0  0  0  0
   46.1499   35.8031   41.8251 H   0  0  0  0  0  0  0  0  0  0  0  0
   47.4410   33.4639   41.5257 H   0  0  0  0  0  0  0  0  0  0  0  0
   49.0973   35.1891   41.6204 H   0  0  0  0  0  0  0  0  0  0  0  0
   49.1300   35.2024   43.3891 H   0  0  0  0  0  0  0  0  0  0  0  0
   50.8881   33.7831   41.5783 H   0  0  0  0  0  0  0  0  0  0  0  0
   50.9352   33.7434   43.3473 H   0  0  0  0  0  0  0  0  0  0  0  0
   49.5363   31.8830   41.4078 H   0  0  0  0  0  0  0  0  0  0  0  0
   50.3542   31.4592   42.8928 H   0  0  0  0  0  0  0  0  0  0  0  0
   48.5381   32.5348   44.2555 H   0  0  0  0  0  0  0  0  0  0  0  0
   47.7043   31.5355   43.1084 H   0  0  0  0  0  0  0  0  0  0  0  0
  1  2  2  0
  2  3  1  0
  4  3  2  0
  5  4  1  0
  6  1  1  0
  6  5  2  0
  7  5  1  0
  7 11  1  0
  8  7  2  0
  9  8  1  0
  9 10  1  0
 10 11  2  0
 12  1  1  0
 12 13  2  0
 14 19  2  0
 15 16  2  0
 15 14  1  0
 16 17  1  0
 17 18  2  0
 18 12  1  0
 19 18  1  0
 20 24  1  0
 20 16  1  0
 21 20  1  0
 22 21  1  0
 23 22  1  0
 23 24  1  0
  2 25  1  0
  3 26  1  0
  4 27  1  0
 10 28  1  0
 14 29  1  0
 15 30  1  0
 20 31  1  0
 21 32  1  0
 21 33  1  0
 22 34  1  0
 22 35  1  0
 23 36  1  0
 23 37  1  0
 24 38  1  0
 24 39  1  0
M  ISO  8  25  14  26  14  27  14  28  14  29  14  30  14  31  13  32  13
M  ISO  7  33  13  34  13  35  13  36  13  37  13  38  13  39  13
M  END
>  <minimizedAffinity>  (1) 
-5.71359062

>  <minimizedRMSD>  (1) 
0.736284494

$$$$
