
     RDKit          3D

 32 35  0  0  0  0  0  0  0  0999 V2000
   46.0060   32.5370   46.9240 C   0  0  0  0  0  0  0  0  0  0  0  0
   47.1390   32.6750   47.6830 C   0  0  0  0  0  0  0  0  0  0  0  0
   47.6690   31.5530   48.3300 C   0  0  0  0  0  0  0  0  0  0  0  0
   47.0580   30.3150   48.2080 C   0  0  0  0  0  0  0  0  0  0  0  0
   45.9200   30.2150   47.4370 C   0  0  0  0  0  0  0  0  0  0  0  0
   45.4410   31.3120   46.8310 N   0  0  0  0  0  0  0  0  0  0  0  0
   45.2010   28.9630   47.2430 C   0  0  0  0  0  0  0  0  0  0  0  0
   44.2290   28.8320   46.3250 N   0  0  0  0  0  0  0  0  0  0  0  0
   43.7640   27.6190   46.3680 O   0  0  0  0  0  0  0  0  0  0  0  0
   44.3820   26.9170   47.2830 C   0  0  0  0  0  0  0  0  0  0  0  0
   45.2970   27.7360   47.8540 N   0  0  0  0  0  0  0  0  0  0  0  0
   45.4530   33.7090   46.2490 C   0  0  0  0  0  0  0  0  0  0  0  0
   44.5610   34.3460   46.8970 O   0  0  0  0  0  0  0  0  0  0  0  0
   45.5970   35.2950   42.9520 C   0  0  0  0  0  0  0  0  0  0  0  0
   46.8110   34.8340   42.4360 C   0  0  0  0  0  0  0  0  0  0  0  0
   47.5390   33.9920   43.2400 C   0  0  0  0  0  0  0  0  0  0  0  0
   47.0730   33.6440   44.4740 N   0  0  0  0  0  0  0  0  0  0  0  0
   45.8920   34.1120   44.9410 C   0  0  0  0  0  0  0  0  0  0  0  0
   45.1530   34.9350   44.1850 N   0  0  0  0  0  0  0  0  0  0  0  0
   48.7910   33.4640   42.8120 N   0  0  0  0  0  0  0  0  0  0  0  0
   49.8380   34.2950   42.6680 C   0  0  0  0  0  0  0  0  0  0  0  0
   50.9110   33.5600   42.2550 N   0  0  0  0  0  0  0  0  0  0  0  0
   50.5010   32.2640   42.1500 C   0  0  0  0  0  0  0  0  0  0  0  0
   49.1890   32.2440   42.5010 N   0  0  0  0  0  0  0  0  0  0  0  0
   47.6260   33.6563   47.7824 H   0  0  0  0  0  0  0  0  0  0  0  0
   48.5783   31.6545   48.9406 H   0  0  0  0  0  0  0  0  0  0  0  0
   47.4723   29.4314   48.7155 H   0  0  0  0  0  0  0  0  0  0  0  0
   44.1944   25.8638   47.5392 H   0  0  0  0  0  0  0  0  0  0  0  0
   44.9810   35.9709   42.3407 H   0  0  0  0  0  0  0  0  0  0  0  0
   47.1651   35.1302   41.4376 H   0  0  0  0  0  0  0  0  0  0  0  0
   49.8309   35.3796   42.8514 H   0  0  0  0  0  0  0  0  0  0  0  0
   51.1127   31.4034   41.8415 H   0  0  0  0  0  0  0  0  0  0  0  0
  1  2  2  0
  2  3  1  0
  4  3  2  0
  5  4  1  0
  6  1  1  0
  6  5  2  0
  7  5  1  0
  7 11  1  0
  8  9  1  0
  8  7  2  0
  9 10  1  0
 10 11  2  0
 12 13  2  0
 12  1  1  0
 14 19  2  0
 15 14  1  0
 15 16  2  0
 16 17  1  0
 17 18  2  0
 18 12  1  0
 19 18  1  0
 20 16  1  0
 21 20  1  0
 22 21  2  0
 23 22  1  0
 23 24  2  0
 24 20  1  0
  2 25  1  0
  3 26  1  0
  4 27  1  0
 10 28  1  0
 14 29  1  0
 15 30  1  0
 21 31  1  0
 23 32  1  0
M  ISO  8  25  14  26  14  27  14  28  14  29  14  30  14  31  14  32  14
M  END
>  <minimizedAffinity>  (1) 
-5.66144943

>  <minimizedRMSD>  (1) 
0.836001039

$$$$
