
     RDKit          3D

 29 31  0  0  0  0  0  0  0  0999 V2000
   46.0960   32.5350   46.6210 C   0  0  0  0  0  0  0  0  0  0  0  0
   47.1700   32.7290   47.4700 C   0  0  0  0  0  0  0  0  0  0  0  0
   47.6230   31.6600   48.2470 C   0  0  0  0  0  0  0  0  0  0  0  0
   47.0090   30.4120   48.1750 C   0  0  0  0  0  0  0  0  0  0  0  0
   45.9390   30.2650   47.3150 C   0  0  0  0  0  0  0  0  0  0  0  0
   45.5290   31.3090   46.5830 N   0  0  0  0  0  0  0  0  0  0  0  0
   45.2260   29.0040   47.1630 C   0  0  0  0  0  0  0  0  0  0  0  0
   44.2100   28.8700   46.2930 N   0  0  0  0  0  0  0  0  0  0  0  0
   43.7520   27.6470   46.3590 O   0  0  0  0  0  0  0  0  0  0  0  0
   44.4250   26.9560   47.2430 C   0  0  0  0  0  0  0  0  0  0  0  0
   45.3640   27.7820   47.7710 N   0  0  0  0  0  0  0  0  0  0  0  0
   45.6220   33.6530   45.8090 C   0  0  0  0  0  0  0  0  0  0  0  0
   44.8220   34.4530   46.3820 O   0  0  0  0  0  0  0  0  0  0  0  0
   45.5800   34.0640   42.1750 C   0  0  0  0  0  0  0  0  0  0  0  0
   46.9500   34.1580   41.8390 C   0  0  0  0  0  0  0  0  0  0  0  0
   47.8190   34.0730   42.8990 C   0  0  0  0  0  0  0  0  0  0  0  0
   47.3690   33.9110   44.1710 N   0  0  0  0  0  0  0  0  0  0  0  0
   46.0450   33.8260   44.4460 C   0  0  0  0  0  0  0  0  0  0  0  0
   45.1610   33.9020   43.4550 N   0  0  0  0  0  0  0  0  0  0  0  0
   49.2450   34.1640   42.6080 C   0  0  0  0  0  0  0  0  0  0  0  0
   49.7120   33.3570   41.7640 O   0  0  0  0  0  0  0  0  0  0  0  0
   50.0960   35.0830   43.2100 O   0  0  0  0  0  0  0  0  0  0  0  0
   47.6609   33.7114   47.5327 H   0  0  0  0  0  0  0  0  0  0  0  0
   48.4766   31.8060   48.9252 H   0  0  0  0  0  0  0  0  0  0  0  0
   47.3658   29.5689   48.7849 H   0  0  0  0  0  0  0  0  0  0  0  0
   44.2605   25.9014   47.5090 H   0  0  0  0  0  0  0  0  0  0  0  0
   44.8298   34.1242   41.3728 H   0  0  0  0  0  0  0  0  0  0  0  0
   47.2951   34.2898   40.8029 H   0  0  0  0  0  0  0  0  0  0  0  0
   51.0569   35.0976   42.9720 H   0  0  0  0  0  0  0  0  0  0  0  0
  1  2  2  0
  2  3  1  0
  4  3  2  0
  5  4  1  0
  6  1  1  0
  6  5  2  0
  7  5  1  0
  7 11  1  0
  8  9  1  0
  8  7  2  0
  9 10  1  0
 10 11  2  0
 12 13  2  0
 12  1  1  0
 14 19  2  0
 15 14  1  0
 15 16  2  0
 16 17  1  0
 17 18  2  0
 18 12  1  0
 19 18  1  0
 20 16  1  0
 20 22  1  0
 21 20  2  0
  2 23  1  0
  3 24  1  0
  4 25  1  0
 10 26  1  0
 14 27  1  0
 15 28  1  0
 22 29  1  0
M  ISO  7  23  14  24  14  25  14  26  14  27  14  28  14  29   3
M  END
>  <minimizedAffinity>  (1) 
-5.51116133

>  <minimizedRMSD>  (1) 
1.16943991

$$$$
