
     RDKit          3D

 38 40  0  0  0  0  0  0  0  0999 V2000
   46.0390   32.3920   47.0220 C   0  0  0  0  0  0  0  0  0  0  0  0
   47.2710   32.5070   47.6250 C   0  0  0  0  0  0  0  0  0  0  0  0
   47.9280   31.3510   48.0700 C   0  0  0  0  0  0  0  0  0  0  0  0
   47.3500   30.1070   47.9080 C   0  0  0  0  0  0  0  0  0  0  0  0
   46.1170   30.0340   47.3000 C   0  0  0  0  0  0  0  0  0  0  0  0
   45.5090   31.1570   46.8840 N   0  0  0  0  0  0  0  0  0  0  0  0
   45.4230   28.7640   47.0830 C   0  0  0  0  0  0  0  0  0  0  0  0
   44.2630   28.7020   46.4050 N   0  0  0  0  0  0  0  0  0  0  0  0
   43.8640   27.4720   46.3570 O   0  0  0  0  0  0  0  0  0  0  0  0
   44.7140   26.6740   46.9830 C   0  0  0  0  0  0  0  0  0  0  0  0
   45.7050   27.4860   47.4470 N   0  0  0  0  0  0  0  0  0  0  0  0
   45.3560   33.5980   46.5600 C   0  0  0  0  0  0  0  0  0  0  0  0
   44.5340   34.1140   47.3710 O   0  0  0  0  0  0  0  0  0  0  0  0
   45.1200   35.6620   43.5330 C   0  0  0  0  0  0  0  0  0  0  0  0
   46.1710   35.1710   42.7470 C   0  0  0  0  0  0  0  0  0  0  0  0
   46.9410   34.1390   43.2750 C   0  0  0  0  0  0  0  0  0  0  0  0
   46.6230   33.6670   44.5280 N   0  0  0  0  0  0  0  0  0  0  0  0
   45.6140   34.1560   45.2550 C   0  0  0  0  0  0  0  0  0  0  0  0
   44.8750   35.1370   44.7640 N   0  0  0  0  0  0  0  0  0  0  0  0
   48.0830   33.4870   42.6110 C   0  0  0  0  0  0  0  0  0  0  0  0
   47.7550   33.2920   41.1340 C   0  0  0  0  0  0  0  0  0  0  0  0
   48.3180   32.1170   43.2090 C   0  0  0  0  0  0  0  0  0  0  0  0
   49.3690   34.2590   42.7130 C   0  0  0  0  0  0  0  0  0  0  0  0
   47.7353   33.4955   47.7564 H   0  0  0  0  0  0  0  0  0  0  0  0
   48.9129   31.4356   48.5526 H   0  0  0  0  0  0  0  0  0  0  0  0
   47.8619   29.1977   48.2560 H   0  0  0  0  0  0  0  0  0  0  0  0
   44.6367   25.5834   47.1036 H   0  0  0  0  0  0  0  0  0  0  0  0
   44.4884   36.4780   43.1519 H   0  0  0  0  0  0  0  0  0  0  0  0
   46.3796   35.5858   41.7498 H   0  0  0  0  0  0  0  0  0  0  0  0
   46.8131   32.7320   41.0384 H   0  0  0  0  0  0  0  0  0  0  0  0
   47.6487   34.2737   40.6493 H   0  0  0  0  0  0  0  0  0  0  0  0
   48.5667   32.7297   40.6493 H   0  0  0  0  0  0  0  0  0  0  0  0
   48.3057   32.1890   44.3066 H   0  0  0  0  0  0  0  0  0  0  0  0
   47.5244   31.4312   42.8776 H   0  0  0  0  0  0  0  0  0  0  0  0
   49.2948   31.7349   42.8776 H   0  0  0  0  0  0  0  0  0  0  0  0
   49.6223   34.4111   43.7726 H   0  0  0  0  0  0  0  0  0  0  0  0
   50.1751   33.6953   42.2205 H   0  0  0  0  0  0  0  0  0  0  0  0
   49.2505   35.2354   42.2205 H   0  0  0  0  0  0  0  0  0  0  0  0
  1  2  2  0
  2  3  1  0
  4  3  2  0
  5  4  1  0
  6  1  1  0
  6  5  2  0
  7  5  1  0
  7 11  1  0
  8  7  2  0
  9  8  1  0
  9 10  1  0
 10 11  2  0
 12  1  1  0
 12 13  2  0
 14 19  2  0
 15 16  2  0
 15 14  1  0
 16 17  1  0
 17 18  2  0
 18 12  1  0
 19 18  1  0
 20 23  1  0
 20 22  1  0
 20 16  1  0
 21 20  1  0
  2 24  1  0
  3 25  1  0
  4 26  1  0
 10 27  1  0
 14 28  1  0
 15 29  1  0
 21 30  1  0
 21 31  1  0
 21 32  1  0
 22 33  1  0
 22 34  1  0
 22 35  1  0
 23 36  1  0
 23 37  1  0
 23 38  1  0
M  ISO  8  24  14  25  14  26  14  27  14  28  14  29  14  30   8  31   8
M  ISO  7  32   8  33   8  34   8  35   8  36   8  37   8  38   8
M  END
>  <minimizedAffinity>  (1) 
-5.40833807

>  <minimizedRMSD>  (1) 
0.411703765

$$$$
