
     RDKit          3D

 29 31  0  0  0  0  0  0  0  0999 V2000
   46.0160   32.4040   47.0110 C   0  0  0  0  0  0  0  0  0  0  0  0
   47.2350   32.5130   47.6350 C   0  0  0  0  0  0  0  0  0  0  0  0
   47.8280   31.3510   48.1520 C   0  0  0  0  0  0  0  0  0  0  0  0
   47.2040   30.1220   48.0390 C   0  0  0  0  0  0  0  0  0  0  0  0
   45.9770   30.0690   47.4020 C   0  0  0  0  0  0  0  0  0  0  0  0
   45.4290   31.1930   46.9140 N   0  0  0  0  0  0  0  0  0  0  0  0
   45.2410   28.8210   47.2330 C   0  0  0  0  0  0  0  0  0  0  0  0
   44.2420   28.7080   46.3360 N   0  0  0  0  0  0  0  0  0  0  0  0
   43.7620   27.5100   46.3910 O   0  0  0  0  0  0  0  0  0  0  0  0
   44.3870   26.7790   47.2930 C   0  0  0  0  0  0  0  0  0  0  0  0
   45.3290   27.6100   47.8310 N   0  0  0  0  0  0  0  0  0  0  0  0
   45.3910   33.6150   46.4670 C   0  0  0  0  0  0  0  0  0  0  0  0
   44.5330   34.1850   47.2230 O   0  0  0  0  0  0  0  0  0  0  0  0
   45.2830   35.4810   43.3150 C   0  0  0  0  0  0  0  0  0  0  0  0
   46.4470   35.0480   42.6560 C   0  0  0  0  0  0  0  0  0  0  0  0
   47.2240   34.1240   43.3300 C   0  0  0  0  0  0  0  0  0  0  0  0
   46.8480   33.6860   44.5620 N   0  0  0  0  0  0  0  0  0  0  0  0
   45.7290   34.1200   45.1640 C   0  0  0  0  0  0  0  0  0  0  0  0
   44.9520   35.0140   44.5420 N   0  0  0  0  0  0  0  0  0  0  0  0
   48.4620   33.6440   42.6620 C   0  0  0  0  0  0  0  0  0  0  0  0
   49.5250   34.4600   43.0630 F   0  0  0  0  0  0  0  0  0  0  0  0
   48.7090   32.3260   42.9020 F   0  0  0  0  0  0  0  0  0  0  0  0
   48.3110   33.9150   41.2990 F   0  0  0  0  0  0  0  0  0  0  0  0
   47.7347   33.4886   47.7273 H   0  0  0  0  0  0  0  0  0  0  0  0
   48.8040   31.4187   48.6548 H   0  0  0  0  0  0  0  0  0  0  0  0
   47.6703   29.2119   48.4443 H   0  0  0  0  0  0  0  0  0  0  0  0
   44.1924   25.7286   47.5554 H   0  0  0  0  0  0  0  0  0  0  0  0
   44.6273   36.2147   42.8233 H   0  0  0  0  0  0  0  0  0  0  0  0
   46.7241   35.4234   41.6598 H   0  0  0  0  0  0  0  0  0  0  0  0
  1  2  2  0
  2  3  1  0
  4  3  2  0
  5  4  1  0
  6  1  1  0
  6  5  2  0
  7  5  1  0
  7 11  1  0
  8  9  1  0
  8  7  2  0
  9 10  1  0
 10 11  2  0
 12  1  1  0
 12 13  2  0
 14 19  2  0
 15 14  1  0
 15 16  2  0
 16 17  1  0
 17 18  2  0
 18 12  1  0
 19 18  1  0
 20 22  1  0
 20 21  1  0
 20 16  1  0
 23 20  1  0
  2 24  1  0
  3 25  1  0
  4 26  1  0
 10 27  1  0
 14 28  1  0
 15 29  1  0
M  ISO  6  24  14  25  14  26  14  27  14  28  14  29  14
M  END
>  <minimizedAffinity>  (1) 
-5.39648199

>  <minimizedRMSD>  (1) 
0.66070962

$$$$
