
     RDKit          3D

 35 37  0  0  0  0  0  0  0  0999 V2000
   46.0150   32.3780   47.0050 C   0  0  0  0  0  0  0  0  0  0  0  0
   47.2420   32.4850   47.6420 C   0  0  0  0  0  0  0  0  0  0  0  0
   47.8240   31.3220   48.1650 C   0  0  0  0  0  0  0  0  0  0  0  0
   47.2000   30.0920   48.0560 C   0  0  0  0  0  0  0  0  0  0  0  0
   45.9890   30.0340   47.4200 C   0  0  0  0  0  0  0  0  0  0  0  0
   45.4420   31.1680   46.9200 N   0  0  0  0  0  0  0  0  0  0  0  0
   45.2340   28.7990   47.2410 C   0  0  0  0  0  0  0  0  0  0  0  0
   44.2320   28.6860   46.3370 N   0  0  0  0  0  0  0  0  0  0  0  0
   43.7410   27.4820   46.3980 O   0  0  0  0  0  0  0  0  0  0  0  0
   44.3730   26.7740   47.3080 C   0  0  0  0  0  0  0  0  0  0  0  0
   45.3140   27.5730   47.8530 N   0  0  0  0  0  0  0  0  0  0  0  0
   45.4050   33.5920   46.4580 C   0  0  0  0  0  0  0  0  0  0  0  0
   44.5590   34.1620   47.2000 O   0  0  0  0  0  0  0  0  0  0  0  0
   45.3320   35.4260   43.2960 C   0  0  0  0  0  0  0  0  0  0  0  0
   46.5160   35.0030   42.6470 C   0  0  0  0  0  0  0  0  0  0  0  0
   47.3010   34.0880   43.3420 C   0  0  0  0  0  0  0  0  0  0  0  0
   46.8990   33.6620   44.5730 N   0  0  0  0  0  0  0  0  0  0  0  0
   45.7600   34.0890   45.1590 C   0  0  0  0  0  0  0  0  0  0  0  0
   44.9990   34.9600   44.5160 N   0  0  0  0  0  0  0  0  0  0  0  0
   48.5720   33.5880   42.7260 C   0  0  0  0  0  0  0  0  0  0  0  0
   48.2970   32.9550   41.3770 C   0  0  0  0  0  0  0  0  0  0  0  0
   49.6060   34.6680   42.5840 C   0  0  0  0  0  0  0  0  0  0  0  0
   47.7461   33.4583   47.7346 H   0  0  0  0  0  0  0  0  0  0  0  0
   48.7975   31.3887   48.6728 H   0  0  0  0  0  0  0  0  0  0  0  0
   47.6646   29.1847   48.4694 H   0  0  0  0  0  0  0  0  0  0  0  0
   44.1722   25.7260   47.5752 H   0  0  0  0  0  0  0  0  0  0  0  0
   44.6709   36.1488   42.7954 H   0  0  0  0  0  0  0  0  0  0  0  0
   46.7993   35.3755   41.6515 H   0  0  0  0  0  0  0  0  0  0  0  0
   48.9795   32.8298   43.4109 H   0  0  0  0  0  0  0  0  0  0  0  0
   47.8626   31.9550   41.5229 H   0  0  0  0  0  0  0  0  0  0  0  0
   47.5906   33.5831   40.8144 H   0  0  0  0  0  0  0  0  0  0  0  0
   49.2382   32.8674   40.8144 H   0  0  0  0  0  0  0  0  0  0  0  0
   49.9262   35.0025   43.5818 H   0  0  0  0  0  0  0  0  0  0  0  0
   50.4733   34.2751   42.0331 H   0  0  0  0  0  0  0  0  0  0  0  0
   49.1758   35.5174   42.0331 H   0  0  0  0  0  0  0  0  0  0  0  0
  1  2  2  0
  2  3  1  0
  4  3  2  0
  5  4  1  0
  6  1  1  0
  6  5  2  0
  7  5  1  0
  7 11  1  0
  8  9  1  0
  8  7  2  0
  9 10  1  0
 10 11  2  0
 12  1  1  0
 12 13  2  0
 14 19  2  0
 15 14  1  0
 15 16  2  0
 16 17  1  0
 17 18  2  0
 18 12  1  0
 19 18  1  0
 20 16  1  0
 21 20  1  0
 22 20  1  0
  2 23  1  0
  3 24  1  0
  4 25  1  0
 10 26  1  0
 14 27  1  0
 15 28  1  0
 20 29  1  0
 21 30  1  0
 21 31  1  0
 21 32  1  0
 22 33  1  0
 22 34  1  0
 22 35  1  0
M  ISO  8  23  14  24  14  25  14  26  14  27  14  28  14  29   8  30   8
M  ISO  5  31   8  32   8  33   8  34   8  35   8
M  END
>  <minimizedAffinity>  (1) 
-5.38861847

>  <minimizedRMSD>  (1) 
0.860003769

$$$$
