
     RDKit          3D

 19 19  0  0  0  0  0  0  0  0999 V2000
   47.7850   34.9550   42.3370 C   0  0  0  0  0  0  0  0  0  0  0  0
   48.0510   33.9370   43.2710 C   0  0  0  0  0  0  0  0  0  0  0  0
   46.9970   33.5020   44.0920 C   0  0  0  0  0  0  0  0  0  0  0  0
   45.7910   34.0980   43.9270 N   0  0  0  0  0  0  0  0  0  0  0  0
   45.5680   35.0710   43.0210 C   0  0  0  0  0  0  0  0  0  0  0  0
   46.5680   35.5060   42.2190 N   0  0  0  0  0  0  0  0  0  0  0  0
   48.9240   35.4050   41.4740 C   0  0  0  0  0  0  0  0  0  0  0  0
   48.5640   35.3620   40.1530 F   0  0  0  0  0  0  0  0  0  0  0  0
   49.2710   36.7060   41.7870 F   0  0  0  0  0  0  0  0  0  0  0  0
   49.9740   34.5110   41.6450 F   0  0  0  0  0  0  0  0  0  0  0  0
   44.1820   35.6300   42.9570 C   0  0  0  0  0  0  0  0  0  0  0  0
   43.6880   35.5810   41.5470 C   0  0  0  0  0  0  0  0  0  0  0  0
   49.0546   33.4947   43.3560 H   0  0  0  0  0  0  0  0  0  0  0  0
   47.1449   32.7087   44.8395 H   0  0  0  0  0  0  0  0  0  0  0  0
   43.5167   35.0343   43.5993 H   0  0  0  0  0  0  0  0  0  0  0  0
   44.1916   36.6733   43.3054 H   0  0  0  0  0  0  0  0  0  0  0  0
   42.5934   35.4724   41.5456 H   0  0  0  0  0  0  0  0  0  0  0  0
   43.9649   36.5110   41.0289 H   0  0  0  0  0  0  0  0  0  0  0  0
   44.1422   34.7235   41.0289 H   0  0  0  0  0  0  0  0  0  0  0  0
  1  2  2  0
  2  3  1  0
  4  3  2  0
  5  4  1  0
  6  1  1  0
  6  5  2  0
  7 10  1  0
  7  9  1  0
  7  1  1  0
  8  7  1  0
 11  5  1  0
 12 11  1  0
  2 13  1  0
  3 14  1  0
 11 15  1  0
 11 16  1  0
 12 17  1  0
 12 18  1  0
 12 19  1  0
M  ISO  7  13  14  14  14  15   8  16   8  17   8  18   8  19   8
M  END
>  <minimizedAffinity>  (1) 
-4.3186698

>  <minimizedRMSD>  (1) 
2.27556372

$$$$
