
     RDKit          3D

 30 32  0  0  0  0  0  0  0  0999 V2000
   43.8210   35.3820   42.2520 C   0  0  0  0  0  0  0  0  0  0  0  0
   47.4850   34.8930   42.1860 C   0  0  0  0  0  0  0  0  0  0  0  0
   47.7050   34.1060   43.3200 C   0  0  0  0  0  0  0  0  0  0  0  0
   46.5910   33.7520   44.0950 C   0  0  0  0  0  0  0  0  0  0  0  0
   45.3850   34.1940   43.6940 N   0  0  0  0  0  0  0  0  0  0  0  0
   45.2010   34.9520   42.5960 C   0  0  0  0  0  0  0  0  0  0  0  0
   46.2490   35.3060   41.8350 N   0  0  0  0  0  0  0  0  0  0  0  0
   48.6950   35.2630   41.3650 C   0  0  0  0  0  0  0  0  0  0  0  0
   48.3770   35.2710   40.0350 F   0  0  0  0  0  0  0  0  0  0  0  0
   49.1230   36.5330   41.7030 F   0  0  0  0  0  0  0  0  0  0  0  0
   49.6570   34.2860   41.5640 F   0  0  0  0  0  0  0  0  0  0  0  0
   43.4710   34.9170   40.8630 C   0  0  0  0  0  0  0  0  0  0  0  0
   42.0530   35.1190   40.5640 N   0  0  0  0  0  0  0  0  0  0  0  0
   41.2190   36.0270   41.1340 C   0  0  0  0  0  0  0  0  0  0  0  0
   39.9770   35.9190   40.6020 N   0  0  0  0  0  0  0  0  0  0  0  0
   40.0170   34.9210   39.6750 C   0  0  0  0  0  0  0  0  0  0  0  0
   39.1190   34.3300   38.8060 C   0  0  0  0  0  0  0  0  0  0  0  0
   39.4770   33.3260   37.9840 N   0  0  0  0  0  0  0  0  0  0  0  0
   40.7610   32.8750   38.0000 C   0  0  0  0  0  0  0  0  0  0  0  0
   41.6560   33.4300   38.8320 N   0  0  0  0  0  0  0  0  0  0  0  0
   41.3140   34.4400   39.6680 C   0  0  0  0  0  0  0  0  0  0  0  0
   43.1129   34.9459   42.9720 H   0  0  0  0  0  0  0  0  0  0  0  0
   43.7629   36.4797   42.2920 H   0  0  0  0  0  0  0  0  0  0  0  0
   48.7174   33.7755   43.5952 H   0  0  0  0  0  0  0  0  0  0  0  0
   46.6994   33.1347   44.9990 H   0  0  0  0  0  0  0  0  0  0  0  0
   44.0723   35.4826   40.1360 H   0  0  0  0  0  0  0  0  0  0  0  0
   43.6840   33.8397   40.7990 H   0  0  0  0  0  0  0  0  0  0  0  0
   41.5094   36.7459   41.9143 H   0  0  0  0  0  0  0  0  0  0  0  0
   38.0802   34.6912   38.7856 H   0  0  0  0  0  0  0  0  0  0  0  0
   41.0650   32.0561   37.3314 H   0  0  0  0  0  0  0  0  0  0  0  0
  1  6  1  0
  2  3  2  0
  3  4  1  0
  5  4  2  0
  6  5  1  0
  7  2  1  0
  7  6  2  0
  8 11  1  0
  8 10  1  0
  8  2  1  0
  9  8  1  0
 12  1  1  0
 13 12  1  0
 13 14  1  0
 15 14  2  0
 16 15  1  0
 17 16  2  0
 18 19  2  0
 18 17  1  0
 19 20  1  0
 20 21  2  0
 21 16  1  0
 21 13  1  0
  1 22  1  0
  1 23  1  0
  3 24  1  0
  4 25  1  0
 12 26  1  0
 12 27  1  0
 14 28  1  0
 17 29  1  0
 19 30  1  0
M  ISO  8  22   8  23   8  24  14  25  14  26   8  27   8  28  14  29  14
M  ISO  1  30  14
M  END
>  <minimizedAffinity>  (1) 
-5.91662169

>  <minimizedRMSD>  (1) 
1.56225312

$$$$
