
     RDKit          3D

 35 36  0  0  0  0  0  0  0  0999 V2000
   47.5300   34.8820   42.2430 C   0  0  0  0  0  0  0  0  0  0  0  0
   47.7910   34.0570   43.3530 C   0  0  0  0  0  0  0  0  0  0  0  0
   46.7130   33.6730   44.1520 C   0  0  0  0  0  0  0  0  0  0  0  0
   45.4930   34.1180   43.8070 N   0  0  0  0  0  0  0  0  0  0  0  0
   45.2620   34.9100   42.7380 C   0  0  0  0  0  0  0  0  0  0  0  0
   46.2850   35.2920   41.9550 N   0  0  0  0  0  0  0  0  0  0  0  0
   48.7160   35.2720   41.4110 C   0  0  0  0  0  0  0  0  0  0  0  0
   48.3700   35.2560   40.0770 F   0  0  0  0  0  0  0  0  0  0  0  0
   49.1060   36.5520   41.7220 F   0  0  0  0  0  0  0  0  0  0  0  0
   49.7090   34.3320   41.5860 F   0  0  0  0  0  0  0  0  0  0  0  0
   43.8540   35.3410   42.4550 C   0  0  0  0  0  0  0  0  0  0  0  0
   43.6750   35.5210   40.9860 C   0  0  0  0  0  0  0  0  0  0  0  0
   42.4250   34.8810   40.4440 C   0  0  0  0  0  0  0  0  0  0  0  0
   41.2560   35.6510   41.0370 C   0  0  0  0  0  0  0  0  0  0  0  0
   39.9270   35.0530   40.5830 C   0  0  0  0  0  0  0  0  0  0  0  0
   39.9240   34.9450   39.0790 C   0  0  0  0  0  0  0  0  0  0  0  0
   41.1150   35.6100   38.4510 C   0  0  0  0  0  0  0  0  0  0  0  0
   42.3570   34.8780   38.9520 C   0  0  0  0  0  0  0  0  0  0  0  0
   48.8139   33.7248   43.5839 H   0  0  0  0  0  0  0  0  0  0  0  0
   46.8569   33.0293   45.0323 H   0  0  0  0  0  0  0  0  0  0  0  0
   43.1554   34.5728   42.8181 H   0  0  0  0  0  0  0  0  0  0  0  0
   43.6517   36.2926   42.9683 H   0  0  0  0  0  0  0  0  0  0  0  0
   43.6341   36.5990   40.7710 H   0  0  0  0  0  0  0  0  0  0  0  0
   44.5267   35.0264   40.4962 H   0  0  0  0  0  0  0  0  0  0  0  0
   42.4068   33.8185   40.7284 H   0  0  0  0  0  0  0  0  0  0  0  0
   41.3150   35.6073   42.1345 H   0  0  0  0  0  0  0  0  0  0  0  0
   41.3095   36.6941   40.6920 H   0  0  0  0  0  0  0  0  0  0  0  0
   39.8027   34.0532   41.0245 H   0  0  0  0  0  0  0  0  0  0  0  0
   39.0986   35.6984   40.9103 H   0  0  0  0  0  0  0  0  0  0  0  0
   39.9279   33.8805   38.8020 H   0  0  0  0  0  0  0  0  0  0  0  0
   39.0229   35.4565   38.7096 H   0  0  0  0  0  0  0  0  0  0  0  0
   41.1558   36.6684   38.7480 H   0  0  0  0  0  0  0  0  0  0  0  0
   41.0526   35.5671   37.3536 H   0  0  0  0  0  0  0  0  0  0  0  0
   42.3270   33.8373   38.5970 H   0  0  0  0  0  0  0  0  0  0  0  0
   43.2457   35.3968   38.5633 H   0  0  0  0  0  0  0  0  0  0  0  0
  1  2  2  0
  2  3  1  0
  4  3  2  0
  5  4  1  0
  6  1  1  0
  6  5  2  0
  7 10  1  0
  7  9  1  0
  7  1  1  0
  8  7  1  0
 11  5  1  0
 12 11  1  0
 13 12  1  0
 13 14  1  0
 15 14  1  0
 16 15  1  0
 17 18  1  0
 17 16  1  0
 18 13  1  0
  2 19  1  0
  3 20  1  0
 11 21  1  0
 11 22  1  0
 12 23  1  0
 12 24  1  0
 13 25  1  0
 14 26  1  0
 14 27  1  0
 15 28  1  0
 15 29  1  0
 16 30  1  0
 16 31  1  0
 17 32  1  0
 17 33  1  0
 18 34  1  0
 18 35  1  0
M  ISO  8  19  14  20  14  21   8  22   8  23   8  24   8  25  13  26  13
M  ISO  8  27  13  28  13  29  13  30  13  31  13  32  13  33  13  34  13
M  ISO  1  35  13
M  END
>  <minimizedAffinity>  (1) 
-5.92572546

>  <minimizedRMSD>  (1) 
1.41240931

$$$$
