
     RDKit          3D

 32 34  0  0  0  0  0  0  0  0999 V2000
   44.0500   35.5160   42.6710 C   0  0  0  0  0  0  0  0  0  0  0  0
   47.6870   34.9270   42.2900 C   0  0  0  0  0  0  0  0  0  0  0  0
   47.9480   33.9810   43.3000 C   0  0  0  0  0  0  0  0  0  0  0  0
   46.8720   33.5610   44.0990 C   0  0  0  0  0  0  0  0  0  0  0  0
   45.6600   34.0950   43.8360 N   0  0  0  0  0  0  0  0  0  0  0  0
   45.4350   34.9960   42.8650 C   0  0  0  0  0  0  0  0  0  0  0  0
   46.4480   35.4220   42.0790 N   0  0  0  0  0  0  0  0  0  0  0  0
   48.8540   35.3570   41.4540 C   0  0  0  0  0  0  0  0  0  0  0  0
   48.5240   35.3550   40.1340 F   0  0  0  0  0  0  0  0  0  0  0  0
   49.2220   36.6550   41.7930 F   0  0  0  0  0  0  0  0  0  0  0  0
   49.8820   34.4510   41.6360 F   0  0  0  0  0  0  0  0  0  0  0  0
   43.6550   35.3770   41.2320 C   0  0  0  0  0  0  0  0  0  0  0  0
   42.2900   34.9040   41.1600 N   0  0  0  0  0  0  0  0  0  0  0  0
   41.2650   35.7750   40.9380 C   0  0  0  0  0  0  0  0  0  0  0  0
   40.0750   35.1460   40.9050 N   0  0  0  0  0  0  0  0  0  0  0  0
   40.3310   33.8220   41.1130 C   0  0  0  0  0  0  0  0  0  0  0  0
   39.5920   32.6600   41.1980 C   0  0  0  0  0  0  0  0  0  0  0  0
   40.2300   31.4990   41.4210 N   0  0  0  0  0  0  0  0  0  0  0  0
   41.5650   31.3990   41.5690 C   0  0  0  0  0  0  0  0  0  0  0  0
   42.3000   32.5370   41.4860 N   0  0  0  0  0  0  0  0  0  0  0  0
   41.6950   33.7150   41.2640 C   0  0  0  0  0  0  0  0  0  0  0  0
   38.1880   32.7960   41.0390 N   0  0  0  0  0  0  0  0  0  0  0  0
   43.3526   34.9418   43.2987 H   0  0  0  0  0  0  0  0  0  0  0  0
   44.0162   36.5776   42.9570 H   0  0  0  0  0  0  0  0  0  0  0  0
   48.9616   33.5839   43.4580 H   0  0  0  0  0  0  0  0  0  0  0  0
   47.0110   32.8268   44.9063 H   0  0  0  0  0  0  0  0  0  0  0  0
   43.7333   36.3539   40.7324 H   0  0  0  0  0  0  0  0  0  0  0  0
   44.3227   34.6601   40.7318 H   0  0  0  0  0  0  0  0  0  0  0  0
   41.3943   36.8589   40.8024 H   0  0  0  0  0  0  0  0  0  0  0  0
   42.0444   30.4259   41.7514 H   0  0  0  0  0  0  0  0  0  0  0  0
   37.5809   31.9656   41.0918 H   0  0  0  0  0  0  0  0  0  0  0  0
   37.7764   33.7251   40.8708 H   0  0  0  0  0  0  0  0  0  0  0  0
  1  6  1  0
  2  3  2  0
  3  4  1  0
  5  4  2  0
  6  5  1  0
  7  2  1  0
  7  6  2  0
  8 11  1  0
  8 10  1  0
  8  2  1  0
  9  8  1  0
 12  1  1  0
 13 12  1  0
 13 21  1  0
 14 13  1  0
 15 14  2  0
 15 16  1  0
 16 17  2  0
 16 21  1  0
 17 18  1  0
 18 19  2  0
 20 19  1  0
 21 20  2  0
 22 17  1  0
  1 23  1  0
  1 24  1  0
  3 25  1  0
  4 26  1  0
 12 27  1  0
 12 28  1  0
 14 29  1  0
 19 30  1  0
 22 31  1  0
 22 32  1  0
M  ISO  8  23   8  24   8  25  14  26  14  27   8  28   8  29  14  30  14
M  END
>  <minimizedAffinity>  (1) 
-6.51339436

>  <minimizedRMSD>  (1) 
2.10270381

$$$$
