
     RDKit          3D

 32 33  0  0  0  0  0  0  0  0999 V2000
   44.0960   35.4220   42.7240 C   0  0  0  0  0  0  0  0  0  0  0  0
   47.7500   34.9070   42.3140 C   0  0  0  0  0  0  0  0  0  0  0  0
   48.0340   33.9650   43.3140 C   0  0  0  0  0  0  0  0  0  0  0  0
   46.9740   33.5220   44.1120 C   0  0  0  0  0  0  0  0  0  0  0  0
   45.7520   34.0270   43.8660 N   0  0  0  0  0  0  0  0  0  0  0  0
   45.4970   34.9390   42.8940 C   0  0  0  0  0  0  0  0  0  0  0  0
   46.5030   35.3740   42.1190 N   0  0  0  0  0  0  0  0  0  0  0  0
   48.9030   35.3710   41.4680 C   0  0  0  0  0  0  0  0  0  0  0  0
   48.5620   35.3670   40.1500 F   0  0  0  0  0  0  0  0  0  0  0  0
   49.2420   36.6740   41.8150 F   0  0  0  0  0  0  0  0  0  0  0  0
   49.9540   34.4790   41.6490 F   0  0  0  0  0  0  0  0  0  0  0  0
   43.8700   35.8040   41.2930 C   0  0  0  0  0  0  0  0  0  0  0  0
   40.0370   34.3760   40.2620 C   0  0  0  0  0  0  0  0  0  0  0  0
   40.9920   34.3900   39.2390 C   0  0  0  0  0  0  0  0  0  0  0  0
   42.2610   34.8550   39.5500 C   0  0  0  0  0  0  0  0  0  0  0  0
   42.5640   35.2890   40.8360 C   0  0  0  0  0  0  0  0  0  0  0  0
   41.5890   35.2550   41.8100 C   0  0  0  0  0  0  0  0  0  0  0  0
   40.3200   34.8020   41.5440 C   0  0  0  0  0  0  0  0  0  0  0  0
   38.4720   33.7590   39.7120 S   0  0  0  0  0  0  0  0  0  0  0  0
   38.4170   33.7010   38.2150 O   0  0  0  0  0  0  0  0  0  0  0  0
   38.2040   32.4120   40.3120 O   0  0  0  0  0  0  0  0  0  0  0  0
   43.3956   34.6217   43.0050 H   0  0  0  0  0  0  0  0  0  0  0  0
   43.9292   36.2979   43.3682 H   0  0  0  0  0  0  0  0  0  0  0  0
   49.0560   33.5874   43.4655 H   0  0  0  0  0  0  0  0  0  0  0  0
   47.1344   32.7857   44.9134 H   0  0  0  0  0  0  0  0  0  0  0  0
   43.8821   36.9001   41.2018 H   0  0  0  0  0  0  0  0  0  0  0  0
   44.6678   35.3705   40.6720 H   0  0  0  0  0  0  0  0  0  0  0  0
   40.7448   34.0445   38.2243 H   0  0  0  0  0  0  0  0  0  0  0  0
   43.0367   34.8808   38.7705 H   0  0  0  0  0  0  0  0  0  0  0  0
   41.8335   35.5993   42.8257 H   0  0  0  0  0  0  0  0  0  0  0  0
   39.5511   34.7793   42.3303 H   0  0  0  0  0  0  0  0  0  0  0  0
   37.4934   34.6206   40.1327 H   0  0  0  0  0  0  0  0  0  0  0  0
  1  6  1  0
  2  3  2  0
  3  4  1  0
  5  4  2  0
  6  5  1  0
  7  2  1  0
  7  6  2  0
  8 11  1  0
  8 10  1  0
  8  2  1  0
  9  8  1  0
 12  1  1  0
 13 18  2  0
 14 15  2  0
 14 13  1  0
 15 16  1  0
 16 12  1  0
 16 17  2  0
 18 17  1  0
 19 13  1  0
 19 21  2  0
 20 19  2  0
  1 22  1  0
  1 23  1  0
  3 24  1  0
  4 25  1  0
 12 26  1  0
 12 27  1  0
 14 28  1  0
 15 29  1  0
 17 30  1  0
 18 31  1  0
 19 32  1  0
M  ISO  8  22   8  23   8  24  14  25  14  26   8  27   8  28  14  29  14
M  ISO  3  30  14  31  14  32  11
M  END
>  <minimizedAffinity>  (1) 
-5.98967409

>  <minimizedRMSD>  (1) 
2.38874173

$$$$
