
     RDKit          3D

 26 27  0  0  0  0  0  0  0  0999 V2000
   47.5460   34.8910   42.2200 C   0  0  0  0  0  0  0  0  0  0  0  0
   47.7890   34.0790   43.3460 C   0  0  0  0  0  0  0  0  0  0  0  0
   46.6900   33.7030   44.1340 C   0  0  0  0  0  0  0  0  0  0  0  0
   45.4770   34.1460   43.7580 N   0  0  0  0  0  0  0  0  0  0  0  0
   45.2590   34.9230   42.6750 C   0  0  0  0  0  0  0  0  0  0  0  0
   46.2980   35.2940   41.9070 N   0  0  0  0  0  0  0  0  0  0  0  0
   48.7340   35.2790   41.3960 C   0  0  0  0  0  0  0  0  0  0  0  0
   48.4110   35.2880   40.0740 F   0  0  0  0  0  0  0  0  0  0  0  0
   49.1400   36.5650   41.7350 F   0  0  0  0  0  0  0  0  0  0  0  0
   49.7290   34.3410   41.5960 F   0  0  0  0  0  0  0  0  0  0  0  0
   43.8630   35.3500   42.3610 C   0  0  0  0  0  0  0  0  0  0  0  0
   43.6290   35.2290   40.8980 C   0  0  0  0  0  0  0  0  0  0  0  0
   42.3070   35.1090   40.4170 C   0  0  0  0  0  0  0  0  0  0  0  0
   41.3010   35.8560   40.9260 C   0  0  0  0  0  0  0  0  0  0  0  0
   39.9900   35.8730   40.5900 C   0  0  0  0  0  0  0  0  0  0  0  0
   39.7580   34.9010   39.5120 C   0  0  0  0  0  0  0  0  0  0  0  0
   41.4910   34.1460   39.1890 S   0  0  0  0  0  0  0  0  0  0  0  0
   48.8077   33.7503   43.5993 H   0  0  0  0  0  0  0  0  0  0  0  0
   46.8160   33.0703   45.0249 H   0  0  0  0  0  0  0  0  0  0  0  0
   43.1520   34.7075   42.9011 H   0  0  0  0  0  0  0  0  0  0  0  0
   43.7189   36.3953   42.6718 H   0  0  0  0  0  0  0  0  0  0  0  0
   44.0610   36.1252   40.4288 H   0  0  0  0  0  0  0  0  0  0  0  0
   44.0886   34.2636   40.6398 H   0  0  0  0  0  0  0  0  0  0  0  0
   41.5900   36.5500   41.7290 H   0  0  0  0  0  0  0  0  0  0  0  0
   39.2215   36.5117   41.0498 H   0  0  0  0  0  0  0  0  0  0  0  0
   38.8101   34.6621   39.0075 H   0  0  0  0  0  0  0  0  0  0  0  0
  1  2  2  0
  2  3  1  0
  4  3  2  0
  5  4  1  0
  6  1  1  0
  6  5  2  0
  7 10  1  0
  7  9  1  0
  7  1  1  0
  8  7  1  0
 11  5  1  0
 12 11  1  0
 13 12  1  0
 13 14  2  0
 15 14  1  0
 16 15  2  0
 17 16  1  0
 17 13  1  0
  2 18  1  0
  3 19  1  0
 11 20  1  0
 11 21  1  0
 12 22  1  0
 12 23  1  0
 14 24  1  0
 15 25  1  0
 16 26  1  0
M  ISO  8  18  14  19  14  20   8  21   8  22   8  23   8  24  14  25  14
M  ISO  1  26  14
M  END
>  <minimizedAffinity>  (1) 
-5.41271925

>  <minimizedRMSD>  (1) 
1.08997667

$$$$
