
     RDKit          3D

 21 21  0  0  0  0  0  0  0  0999 V2000
   47.7470   34.9490   42.3080 C   0  0  0  0  0  0  0  0  0  0  0  0
   48.0000   33.9690   43.2880 C   0  0  0  0  0  0  0  0  0  0  0  0
   46.9330   33.5400   44.0800 C   0  0  0  0  0  0  0  0  0  0  0  0
   45.7260   34.1000   43.8490 N   0  0  0  0  0  0  0  0  0  0  0  0
   45.4990   35.0400   42.9060 C   0  0  0  0  0  0  0  0  0  0  0  0
   46.5150   35.4660   42.1310 N   0  0  0  0  0  0  0  0  0  0  0  0
   48.9150   35.3910   41.4700 C   0  0  0  0  0  0  0  0  0  0  0  0
   48.5850   35.3820   40.1520 F   0  0  0  0  0  0  0  0  0  0  0  0
   49.2590   36.6960   41.8030 F   0  0  0  0  0  0  0  0  0  0  0  0
   49.9520   34.5040   41.6550 F   0  0  0  0  0  0  0  0  0  0  0  0
   44.1250   35.5750   42.7530 C   0  0  0  0  0  0  0  0  0  0  0  0
   43.3730   34.7360   41.7520 C   0  0  0  0  0  0  0  0  0  0  0  0
   43.9200   35.1140   40.4410 N   0  0  0  0  0  0  0  0  0  0  0  0
   49.0093   33.5536   43.4253 H   0  0  0  0  0  0  0  0  0  0  0  0
   47.0700   32.7769   44.8604 H   0  0  0  0  0  0  0  0  0  0  0  0
   43.6075   35.5417   43.7231 H   0  0  0  0  0  0  0  0  0  0  0  0
   44.1718   36.6160   42.4006 H   0  0  0  0  0  0  0  0  0  0  0  0
   43.5384   33.6657   41.9445 H   0  0  0  0  0  0  0  0  0  0  0  0
   42.2875   34.9051   41.8079 H   0  0  0  0  0  0  0  0  0  0  0  0
   44.7603   35.6947   40.5740 H   0  0  0  0  0  0  0  0  0  0  0  0
   44.1696   34.2642   39.9152 H   0  0  0  0  0  0  0  0  0  0  0  0
  1  2  2  0
  2  3  1  0
  4  3  2  0
  5  4  1  0
  6  1  1  0
  6  5  2  0
  7 10  1  0
  7  9  1  0
  7  1  1  0
  8  7  1  0
 11  5  1  0
 12 11  1  0
 13 12  1  0
  2 14  1  0
  3 15  1  0
 11 16  1  0
 11 17  1  0
 12 18  1  0
 12 19  1  0
 13 20  1  0
 13 21  1  0
M  ISO  8  14  14  15  14  16   8  17   8  18   8  19   8  20   5  21   5
M  END
>  <minimizedAffinity>  (1) 
-4.36879492

>  <minimizedRMSD>  (1) 
0.491676927

$$$$
