
     RDKit          3D

 39 42  0  0  1  0  0  0  0  0999 V2000
   42.0230   35.2680   41.6290 C   0  0  1  0  0  0  0  0  0  0  0  0
   41.2020   36.2850   40.9090 C   0  0  0  0  0  0  0  0  0  0  0  0
   41.3150   34.8840   40.3950 C   0  0  2  0  0  0  0  0  0  0  0  0
   40.1420   34.0350   40.4530 N   0  0  0  0  0  0  0  0  0  0  0  0
   38.9390   34.3200   39.9190 C   0  0  0  0  0  0  0  0  0  0  0  0
   38.1290   33.2710   40.1980 N   0  0  0  0  0  0  0  0  0  0  0  0
   38.8370   32.3810   40.8860 C   0  0  0  0  0  0  0  0  0  0  0  0
   38.4490   31.1410   41.4000 C   0  0  0  0  0  0  0  0  0  0  0  0
   39.3870   30.4410   42.0640 N   0  0  0  0  0  0  0  0  0  0  0  0
   40.6450   30.8850   42.2420 C   0  0  0  0  0  0  0  0  0  0  0  0
   41.0210   32.0780   41.7470 N   0  0  0  0  0  0  0  0  0  0  0  0
   40.1440   32.8390   41.0710 C   0  0  0  0  0  0  0  0  0  0  0  0
   37.1100   30.6650   41.2140 N   0  0  0  0  0  0  0  0  0  0  0  0
   43.5280   35.3830   41.6270 C   0  0  0  0  0  0  0  0  0  0  0  0
   44.1520   35.6840   42.9440 C   0  0  0  0  0  0  0  0  0  0  0  0
   47.7360   34.9510   42.3280 C   0  0  0  0  0  0  0  0  0  0  0  0
   47.9970   33.9290   43.2640 C   0  0  0  0  0  0  0  0  0  0  0  0
   46.9380   33.5070   44.0920 C   0  0  0  0  0  0  0  0  0  0  0  0
   45.7440   34.1150   43.9280 N   0  0  0  0  0  0  0  0  0  0  0  0
   45.5160   35.0890   43.0290 C   0  0  0  0  0  0  0  0  0  0  0  0
   46.5050   35.5110   42.2290 N   0  0  0  0  0  0  0  0  0  0  0  0
   48.8790   35.3840   41.4590 C   0  0  0  0  0  0  0  0  0  0  0  0
   48.5050   35.3480   40.1510 F   0  0  0  0  0  0  0  0  0  0  0  0
   49.2510   36.6730   41.7690 F   0  0  0  0  0  0  0  0  0  0  0  0
   49.9090   34.4670   41.6240 F   0  0  0  0  0  0  0  0  0  0  0  0
   42.0491   34.8807   42.6582 H   0  0  0  0  0  0  0  0  0  0  0  0
   40.2557   36.6395   41.3436 H   0  0  0  0  0  0  0  0  0  0  0  0
   41.3836   37.2880   40.4954 H   0  0  0  0  0  0  0  0  0  0  0  0
   41.6275   34.4121   39.4518 H   0  0  0  0  0  0  0  0  0  0  0  0
   38.6667   35.2295   39.3633 H   0  0  0  0  0  0  0  0  0  0  0  0
   41.3695   30.2692   42.7951 H   0  0  0  0  0  0  0  0  0  0  0  0
   36.8310   29.7499   41.5957 H   0  0  0  0  0  0  0  0  0  0  0  0
   36.4267   31.2380   40.6986 H   0  0  0  0  0  0  0  0  0  0  0  0
   43.9398   34.4283   41.2678 H   0  0  0  0  0  0  0  0  0  0  0  0
   43.7632   36.2407   40.9797 H   0  0  0  0  0  0  0  0  0  0  0  0
   44.2254   36.7745   43.0680 H   0  0  0  0  0  0  0  0  0  0  0  0
   43.5270   35.2507   43.7388 H   0  0  0  0  0  0  0  0  0  0  0  0
   48.9959   33.4756   43.3451 H   0  0  0  0  0  0  0  0  0  0  0  0
   47.0785   32.7143   44.8416 H   0  0  0  0  0  0  0  0  0  0  0  0
  2  1  1  0
  3  4  1  0
  3  2  1  0
  3  1  1  0
  4 12  1  0
  5  6  2  0
  5  4  1  0
  6  7  1  0
  7 12  2  0
  7  8  1  0
  8  9  2  0
  9 10  1  0
 11 10  2  0
 12 11  1  0
 13  8  1  0
 14  1  1  0
 14 15  1  0
 15 20  1  0
 16 17  2  0
 17 18  1  0
 19 18  2  0
 20 19  1  0
 21 16  1  0
 21 20  2  0
 22 25  1  0
 22 24  1  0
 22 16  1  0
 23 22  1  0
  1 26  1  1
  2 27  1  0
  2 28  1  0
  3 29  1  6
  5 30  1  0
 10 31  1  0
 13 32  1  0
 13 33  1  0
 14 34  1  0
 14 35  1  0
 15 36  1  0
 15 37  1  0
 17 38  1  0
 18 39  1  0
M  ISO  8  26  13  27  13  28  13  29  13  30  14  31  14  34   8  35   8
M  ISO  4  36   8  37   8  38  14  39  14
M  END
>  <minimizedAffinity>  (1) 
-6.69436789

>  <minimizedRMSD>  (1) 
1.37253284

$$$$
