
     RDKit          3D

 23 24  0  0  0  0  0  0  0  0999 V2000
   44.5760   35.9510   44.5570 C   0  0  0  0  0  0  0  0  0  0  0  0
   45.3530   35.5360   43.4760 C   0  0  0  0  0  0  0  0  0  0  0  0
   46.1270   34.3920   43.5990 C   0  0  0  0  0  0  0  0  0  0  0  0
   46.0940   33.7130   44.7870 N   0  0  0  0  0  0  0  0  0  0  0  0
   45.3350   34.1340   45.8160 C   0  0  0  0  0  0  0  0  0  0  0  0
   44.5790   35.2440   45.7070 N   0  0  0  0  0  0  0  0  0  0  0  0
   46.9950   33.8720   42.4860 C   0  0  0  0  0  0  0  0  0  0  0  0
   47.3510   35.0320   41.5420 C   0  0  0  0  0  0  0  0  0  0  0  0
   48.8510   35.0140   41.3510 C   0  0  0  0  0  0  0  0  0  0  0  0
   49.7320   35.1330   42.5440 C   0  0  0  0  0  0  0  0  0  0  0  0
   49.5490   33.7770   41.8790 C   0  0  0  0  0  0  0  0  0  0  0  0
   43.9586   36.8574   44.4724 H   0  0  0  0  0  0  0  0  0  0  0  0
   45.3520   36.1091   42.5371 H   0  0  0  0  0  0  0  0  0  0  0  0
   45.3319   33.5649   46.7573 H   0  0  0  0  0  0  0  0  0  0  0  0
   47.9165   33.4436   42.9070 H   0  0  0  0  0  0  0  0  0  0  0  0
   46.4552   33.0926   41.9283 H   0  0  0  0  0  0  0  0  0  0  0  0
   46.8468   34.8973   40.5737 H   0  0  0  0  0  0  0  0  0  0  0  0
   47.0245   35.9929   41.9664 H   0  0  0  0  0  0  0  0  0  0  0  0
   48.8054   35.5564   40.3951 H   0  0  0  0  0  0  0  0  0  0  0  0
   50.6956   35.6576   42.4644 H   0  0  0  0  0  0  0  0  0  0  0  0
   49.6045   35.5184   43.5663 H   0  0  0  0  0  0  0  0  0  0  0  0
   48.9712   32.9873   42.3816 H   0  0  0  0  0  0  0  0  0  0  0  0
   50.2178   33.0122   41.4574 H   0  0  0  0  0  0  0  0  0  0  0  0
  1  6  2  0
  2  3  2  0
  2  1  1  0
  3  4  1  0
  4  5  2  0
  6  5  1  0
  7  3  1  0
  8  7  1  0
  9  8  1  0
  9 11  1  0
  9 10  1  0
 11 10  1  0
  1 12  1  0
  2 13  1  0
  5 14  1  0
  7 15  1  0
  7 16  1  0
  8 17  1  0
  8 18  1  0
  9 19  1  0
 10 20  1  0
 10 21  1  0
 11 22  1  0
 11 23  1  0
M  ISO  8  12  14  13  14  14  14  15   8  16   8  17   8  18   8  19  13
M  ISO  4  20  13  21  13  22  13  23  13
M  END
>  <minimizedAffinity>  (1) 
-4.08192205

>  <minimizedRMSD>  (1) 
1.53311849

$$$$
