
     RDKit          3D

 33 34  0  0  1  0  0  0  0  0999 V2000
   43.5400   35.2840   41.4620 C   0  0  0  0  0  0  0  0  0  0  0  0
   42.0840   34.9260   41.4780 C   0  0  1  0  0  0  0  0  0  0  0  0
   41.0410   35.9230   41.1740 C   0  0  0  0  0  0  0  0  0  0  0  0
   41.3190   34.8350   40.2040 C   0  0  2  0  0  0  0  0  0  0  0  0
   40.3310   33.7920   40.0750 N   0  0  0  0  0  0  0  0  0  0  0  0
   39.5300   33.4970   41.2110 C   0  0  0  0  0  0  0  0  0  0  0  0
   39.8250   33.8310   42.4210 N   0  0  0  0  0  0  0  0  0  0  0  0
   38.2990   32.7790   41.0410 N   0  0  0  0  0  0  0  0  0  0  0  0
   40.6750   34.3490   42.6920 H   0  0  0  0  0  0  0  0  0  0  0  0
   44.1150   35.6550   42.7890 C   0  0  0  0  0  0  0  0  0  0  0  0
   47.7160   34.9490   42.3030 C   0  0  0  0  0  0  0  0  0  0  0  0
   47.9780   33.9500   43.2650 C   0  0  0  0  0  0  0  0  0  0  0  0
   46.8960   33.5370   44.0700 C   0  0  0  0  0  0  0  0  0  0  0  0
   45.7010   34.1290   43.8560 N   0  0  0  0  0  0  0  0  0  0  0  0
   45.4850   35.0720   42.9350 C   0  0  0  0  0  0  0  0  0  0  0  0
   46.4900   35.4870   42.1540 N   0  0  0  0  0  0  0  0  0  0  0  0
   48.8840   35.3720   41.4570 C   0  0  0  0  0  0  0  0  0  0  0  0
   48.5390   35.3590   40.1380 F   0  0  0  0  0  0  0  0  0  0  0  0
   49.2560   36.6720   41.7770 F   0  0  0  0  0  0  0  0  0  0  0  0
   49.9030   34.4620   41.6320 F   0  0  0  0  0  0  0  0  0  0  0  0
   44.0997   34.4184   41.0780 H   0  0  0  0  0  0  0  0  0  0  0  0
   43.6288   36.1788   40.8284 H   0  0  0  0  0  0  0  0  0  0  0  0
   42.2815   34.2521   42.3246 H   0  0  0  0  0  0  0  0  0  0  0  0
   40.0997   35.9235   41.7432 H   0  0  0  0  0  0  0  0  0  0  0  0
   41.0106   37.0212   41.1195 H   0  0  0  0  0  0  0  0  0  0  0  0
   41.5879   34.7815   39.1387 H   0  0  0  0  0  0  0  0  0  0  0  0
   40.2103   33.2789   39.1901 H   0  0  0  0  0  0  0  0  0  0  0  0
   37.7126   32.5612   41.8593 H   0  0  0  0  0  0  0  0  0  0  0  0
   38.0019   32.4815   40.1007 H   0  0  0  0  0  0  0  0  0  0  0  0
   44.1754   36.7506   42.8662 H   0  0  0  0  0  0  0  0  0  0  0  0
   43.4679   35.2596   43.5858 H   0  0  0  0  0  0  0  0  0  0  0  0
   48.9808   33.5132   43.3817 H   0  0  0  0  0  0  0  0  0  0  0  0
   47.0205   32.7632   44.8418 H   0  0  0  0  0  0  0  0  0  0  0  0
  1  2  1  0
  1 10  1  0
  3  2  1  0
  4  3  1  0
  4  2  1  0
  5  4  1  0
  5  6  1  0
  6  7  2  0
  7  9  1  0
  8  6  1  0
 10 15  1  0
 11 12  2  0
 12 13  1  0
 14 13  2  0
 15 14  1  0
 16 11  1  0
 16 15  2  0
 17 20  1  0
 17 19  1  0
 17 11  1  0
 18 17  1  0
  1 21  1  0
  1 22  1  0
  2 23  1  1
  3 24  1  0
  3 25  1  0
  4 26  1  6
  5 27  1  0
  8 28  1  0
  8 29  1  0
 10 30  1  0
 10 31  1  0
 12 32  1  0
 13 33  1  0
M  ISO  8  21   8  22   8  23  13  24  13  25  13  26  13  30   8  31   8
M  ISO  2  32  14  33  14
M  END
>  <minimizedAffinity>  (1) 
-6.35967493

>  <minimizedRMSD>  (1) 
0.411264926

$$$$
