
     RDKit          3D

 33 35  0  0  1  0  0  0  0  0999 V2000
   43.6750   35.4720   41.2290 C   0  0  0  0  0  0  0  0  0  0  0  0
   42.3130   34.9080   40.9900 C   0  0  1  0  0  0  0  0  0  0  0  0
   41.1360   35.3570   41.7570 C   0  0  0  0  0  0  0  0  0  0  0  0
   41.2730   35.6840   40.2980 C   0  0  2  0  0  0  0  0  0  0  0  0
   40.2760   35.0190   39.4180 C   0  0  0  0  0  0  0  0  0  0  0  0
   39.0670   34.4580   39.8230 C   0  0  0  0  0  0  0  0  0  0  0  0
   38.4880   33.9630   38.6660 C   0  0  0  0  0  0  0  0  0  0  0  0
   39.3740   34.2480   37.6220 C   0  0  0  0  0  0  0  0  0  0  0  0
   40.4250   34.8760   38.1140 O   0  0  0  0  0  0  0  0  0  0  0  0
   44.0720   35.5850   42.6690 C   0  0  0  0  0  0  0  0  0  0  0  0
   47.7050   34.9430   42.2830 C   0  0  0  0  0  0  0  0  0  0  0  0
   47.9630   33.9880   43.2790 C   0  0  0  0  0  0  0  0  0  0  0  0
   46.8730   33.5740   44.0780 C   0  0  0  0  0  0  0  0  0  0  0  0
   45.6750   34.1270   43.8220 N   0  0  0  0  0  0  0  0  0  0  0  0
   45.4480   35.0340   42.8690 C   0  0  0  0  0  0  0  0  0  0  0  0
   46.4600   35.4510   42.0910 N   0  0  0  0  0  0  0  0  0  0  0  0
   48.8730   35.3670   41.4470 C   0  0  0  0  0  0  0  0  0  0  0  0
   48.5430   35.3710   40.1280 F   0  0  0  0  0  0  0  0  0  0  0  0
   49.2440   36.6690   41.7790 F   0  0  0  0  0  0  0  0  0  0  0  0
   49.8930   34.4600   41.6370 F   0  0  0  0  0  0  0  0  0  0  0  0
   43.7098   36.4782   40.7859 H   0  0  0  0  0  0  0  0  0  0  0  0
   44.3836   34.7667   40.7702 H   0  0  0  0  0  0  0  0  0  0  0  0
   42.7916   33.9321   40.8210 H   0  0  0  0  0  0  0  0  0  0  0  0
   40.3835   34.6275   42.0911 H   0  0  0  0  0  0  0  0  0  0  0  0
   40.9770   35.9379   42.6775 H   0  0  0  0  0  0  0  0  0  0  0  0
   41.3140   36.5790   39.6598 H   0  0  0  0  0  0  0  0  0  0  0  0
   38.6591   34.4168   40.8437 H   0  0  0  0  0  0  0  0  0  0  0  0
   37.5202   33.4465   38.5843 H   0  0  0  0  0  0  0  0  0  0  0  0
   39.2198   33.9907   36.5637 H   0  0  0  0  0  0  0  0  0  0  0  0
   44.0572   36.6434   42.9682 H   0  0  0  0  0  0  0  0  0  0  0  0
   43.3624   35.0116   43.2835 H   0  0  0  0  0  0  0  0  0  0  0  0
   48.9725   33.5785   43.4315 H   0  0  0  0  0  0  0  0  0  0  0  0
   47.0001   32.8291   44.8773 H   0  0  0  0  0  0  0  0  0  0  0  0
  1 10  1  0
  2  1  1  0
  2  3  1  0
  4  2  1  0
  4  3  1  0
  5  6  2  0
  5  4  1  0
  7  6  1  0
  8  9  1  0
  8  7  2  0
  9  5  1  0
 10 15  1  0
 11 12  2  0
 12 13  1  0
 14 13  2  0
 15 14  1  0
 16 11  1  0
 16 15  2  0
 17 20  1  0
 17 19  1  0
 17 11  1  0
 18 17  1  0
  1 21  1  0
  1 22  1  0
  2 23  1  6
  3 24  1  0
  3 25  1  0
  4 26  1  1
  6 27  1  0
  7 28  1  0
  8 29  1  0
 10 30  1  0
 10 31  1  0
 12 32  1  0
 13 33  1  0
M  ISO  8  21   8  22   8  23  13  24  13  25  13  26  13  27  14  28  14
M  ISO  5  29  14  30   8  31   8  32  14  33  14
M  END
>  <minimizedAffinity>  (1) 
-6.21809292

>  <minimizedRMSD>  (1) 
0.846122146

$$$$
