
     RDKit          3D

 39 41  0  0  1  0  0  0  0  0999 V2000
   44.1510   35.6770   42.9000 C   0  0  0  0  0  0  0  0  0  0  0  0
   47.7450   34.9480   42.3300 C   0  0  0  0  0  0  0  0  0  0  0  0
   48.0060   33.9330   43.2720 C   0  0  0  0  0  0  0  0  0  0  0  0
   46.9400   33.5140   44.0910 C   0  0  0  0  0  0  0  0  0  0  0  0
   45.7500   34.1100   43.9180 N   0  0  0  0  0  0  0  0  0  0  0  0
   45.5200   35.0810   43.0090 C   0  0  0  0  0  0  0  0  0  0  0  0
   46.5150   35.5070   42.2080 N   0  0  0  0  0  0  0  0  0  0  0  0
   48.8930   35.3870   41.4600 C   0  0  0  0  0  0  0  0  0  0  0  0
   48.5360   35.3590   40.1550 F   0  0  0  0  0  0  0  0  0  0  0  0
   49.2520   36.6890   41.7900 F   0  0  0  0  0  0  0  0  0  0  0  0
   49.9270   34.5010   41.6330 F   0  0  0  0  0  0  0  0  0  0  0  0
   43.7070   35.6430   41.4640 C   0  0  0  0  0  0  0  0  0  0  0  0
   42.4260   34.8960   41.2230 C   0  0  1  0  0  0  0  0  0  0  0  0
   41.1380   35.3760   41.7730 C   0  0  0  0  0  0  0  0  0  0  0  0
   41.3900   35.4230   40.3090 C   0  0  2  0  0  0  0  0  0  0  0  0
   40.5180   34.5130   39.4980 C   0  0  0  0  0  0  0  0  0  0  0  0
   39.0690   34.5300   39.9190 C   0  0  0  0  0  0  0  0  0  0  0  0
   38.3180   34.0360   38.7020 C   0  0  0  0  0  0  0  0  0  0  0  0
   39.3060   33.9920   37.5550 C   0  0  0  0  0  0  0  0  0  0  0  0
   40.4000   34.9200   38.0440 C   0  0  0  0  0  0  0  0  0  0  0  0
   43.4478   35.0972   43.5158 H   0  0  0  0  0  0  0  0  0  0  0  0
   44.1732   36.7182   43.2542 H   0  0  0  0  0  0  0  0  0  0  0  0
   49.0061   33.4843   43.3642 H   0  0  0  0  0  0  0  0  0  0  0  0
   47.0777   32.7260   44.8460 H   0  0  0  0  0  0  0  0  0  0  0  0
   43.5691   36.6796   41.1229 H   0  0  0  0  0  0  0  0  0  0  0  0
   44.4901   35.1065   40.9082 H   0  0  0  0  0  0  0  0  0  0  0  0
   42.9974   33.9586   41.2916 H   0  0  0  0  0  0  0  0  0  0  0  0
   40.4131   34.6580   42.1841 H   0  0  0  0  0  0  0  0  0  0  0  0
   40.8423   36.1105   42.5366 H   0  0  0  0  0  0  0  0  0  0  0  0
   41.4283   36.1747   39.5068 H   0  0  0  0  0  0  0  0  0  0  0  0
   41.0163   33.5443   39.6508 H   0  0  0  0  0  0  0  0  0  0  0  0
   38.9048   33.8604   40.7761 H   0  0  0  0  0  0  0  0  0  0  0  0
   38.7372   35.5285   40.2399 H   0  0  0  0  0  0  0  0  0  0  0  0
   37.9141   33.0304   38.8906 H   0  0  0  0  0  0  0  0  0  0  0  0
   37.4746   34.7016   38.4662 H   0  0  0  0  0  0  0  0  0  0  0  0
   38.8537   34.3636   36.6237 H   0  0  0  0  0  0  0  0  0  0  0  0
   39.6597   32.9788   37.3135 H   0  0  0  0  0  0  0  0  0  0  0  0
   41.3421   34.7504   37.5021 H   0  0  0  0  0  0  0  0  0  0  0  0
   40.1808   35.9876   37.8947 H   0  0  0  0  0  0  0  0  0  0  0  0
  1  6  1  0
  2  3  2  0
  3  4  1  0
  5  4  2  0
  6  5  1  0
  7  2  1  0
  7  6  2  0
  8 11  1  0
  8 10  1  0
  8  2  1  0
  9  8  1  0
 12  1  1  0
 13 12  1  0
 13 14  1  0
 15 13  1  0
 15 14  1  0
 16 17  1  0
 16 15  1  0
 18 17  1  0
 19 20  1  0
 19 18  1  0
 20 16  1  0
  1 21  1  0
  1 22  1  0
  3 23  1  0
  4 24  1  0
 12 25  1  0
 12 26  1  0
 13 27  1  6
 14 28  1  0
 14 29  1  0
 15 30  1  6
 16 31  1  0
 17 32  1  0
 17 33  1  0
 18 34  1  0
 18 35  1  0
 19 36  1  0
 19 37  1  0
 20 38  1  0
 20 39  1  0
M  ISO  8  21   8  22   8  23  14  24  14  25   8  26   8  27  13  28  13
M  ISO  8  29  13  30  13  31  13  32  13  33  13  34  13  35  13  36  13
M  ISO  3  37  13  38  13  39  13
M  END
>  <minimizedAffinity>  (1) 
-6.41243076

>  <minimizedRMSD>  (1) 
0.478727788

$$$$
