
     RDKit          3D

 37 40  0  0  1  0  0  0  0  0999 V2000
   43.5490   35.4730   41.6350 C   0  0  0  0  0  0  0  0  0  0  0  0
   42.0750   35.2050   41.6580 C   0  0  1  0  0  0  0  0  0  0  0  0
   41.1370   35.9670   40.7880 C   0  0  0  0  0  0  0  0  0  0  0  0
   41.4270   34.5360   40.5070 C   0  0  2  0  0  0  0  0  0  0  0  0
   40.4370   33.5220   40.8420 N   0  0  0  0  0  0  0  0  0  0  0  0
   39.1020   33.4320   40.7010 C   0  0  0  0  0  0  0  0  0  0  0  0
   38.6950   32.2430   41.1990 N   0  0  0  0  0  0  0  0  0  0  0  0
   39.7700   31.5770   41.6560 C   0  0  0  0  0  0  0  0  0  0  0  0
   39.7730   30.3130   42.2440 C   0  0  0  0  0  0  0  0  0  0  0  0
   40.9940   29.8440   42.6300 N   0  0  0  0  0  0  0  0  0  0  0  0
   42.0870   30.6190   42.4200 C   0  0  0  0  0  0  0  0  0  0  0  0
   42.0420   31.8370   41.8470 N   0  0  0  0  0  0  0  0  0  0  0  0
   40.8630   32.3840   41.4300 C   0  0  0  0  0  0  0  0  0  0  0  0
   44.1410   35.7400   42.9820 C   0  0  0  0  0  0  0  0  0  0  0  0
   47.6940   34.9280   42.3310 C   0  0  0  0  0  0  0  0  0  0  0  0
   47.9610   33.9050   43.2580 C   0  0  0  0  0  0  0  0  0  0  0  0
   46.8930   33.5100   44.1040 C   0  0  0  0  0  0  0  0  0  0  0  0
   45.7160   34.1370   43.9570 N   0  0  0  0  0  0  0  0  0  0  0  0
   45.5000   35.1110   43.0570 C   0  0  0  0  0  0  0  0  0  0  0  0
   46.4890   35.5150   42.2360 N   0  0  0  0  0  0  0  0  0  0  0  0
   48.8320   35.3350   41.4440 C   0  0  0  0  0  0  0  0  0  0  0  0
   48.4530   35.2930   40.1280 F   0  0  0  0  0  0  0  0  0  0  0  0
   49.2230   36.6350   41.7340 F   0  0  0  0  0  0  0  0  0  0  0  0
   49.8650   34.4220   41.6050 F   0  0  0  0  0  0  0  0  0  0  0  0
   44.0531   34.5957   41.2036 H   0  0  0  0  0  0  0  0  0  0  0  0
   43.6969   36.3841   41.0367 H   0  0  0  0  0  0  0  0  0  0  0  0
   42.1409   35.0174   42.7399 H   0  0  0  0  0  0  0  0  0  0  0  0
   40.1493   36.2642   41.1703 H   0  0  0  0  0  0  0  0  0  0  0  0
   41.1937   36.9019   40.2112 H   0  0  0  0  0  0  0  0  0  0  0  0
   41.7559   33.9959   39.6069 H   0  0  0  0  0  0  0  0  0  0  0  0
   38.4506   34.1980   40.2550 H   0  0  0  0  0  0  0  0  0  0  0  0
   38.8503   29.7316   42.3873 H   0  0  0  0  0  0  0  0  0  0  0  0
   43.0665   30.2305   42.7358 H   0  0  0  0  0  0  0  0  0  0  0  0
   44.2290   36.8255   43.1365 H   0  0  0  0  0  0  0  0  0  0  0  0
   43.4928   35.3133   43.7616 H   0  0  0  0  0  0  0  0  0  0  0  0
   48.9523   33.4328   43.3241 H   0  0  0  0  0  0  0  0  0  0  0  0
   47.0253   32.7169   44.8547 H   0  0  0  0  0  0  0  0  0  0  0  0
  1  2  1  0
  1 14  1  0
  3  2  1  0
  4  3  1  0
  4  5  1  0
  4  2  1  0
  5 13  1  0
  6  5  1  0
  6  7  2  0
  7  8  1  0
  8  9  2  0
  9 10  1  0
 11 10  2  0
 12 11  1  0
 13  8  1  0
 13 12  2  0
 14 19  1  0
 15 16  2  0
 16 17  1  0
 18 17  2  0
 19 18  1  0
 20 15  1  0
 20 19  2  0
 21 24  1  0
 21 23  1  0
 21 15  1  0
 22 21  1  0
  1 25  1  0
  1 26  1  0
  2 27  1  1
  3 28  1  0
  3 29  1  0
  4 30  1  6
  6 31  1  0
  9 32  1  0
 11 33  1  0
 14 34  1  0
 14 35  1  0
 16 36  1  0
 17 37  1  0
M  ISO  8  25   8  26   8  27  13  28  13  29  13  30  13  31  14  32  14
M  ISO  5  33  14  34   8  35   8  36  14  37  14
M  END
>  <minimizedAffinity>  (1) 
-6.28518248

>  <minimizedRMSD>  (1) 
1.11975145

$$$$
