
     RDKit          3D

 35 37  0  0  1  0  0  0  0  0999 V2000
   43.6610   35.5530   41.4720 C   0  0  0  0  0  0  0  0  0  0  0  0
   42.3070   34.9370   41.3050 C   0  0  1  0  0  0  0  0  0  0  0  0
   41.1450   35.4380   42.0880 C   0  0  0  0  0  0  0  0  0  0  0  0
   41.2160   35.7000   40.6330 C   0  0  2  0  0  0  0  0  0  0  0  0
   40.3210   35.0430   39.6580 C   0  0  0  0  0  0  0  0  0  0  0  0
   39.2170   34.3300   40.1390 C   0  0  0  0  0  0  0  0  0  0  0  0
   38.3100   33.6750   39.3380 C   0  0  0  0  0  0  0  0  0  0  0  0
   38.5230   33.7380   37.9630 C   0  0  0  0  0  0  0  0  0  0  0  0
   39.6190   34.4490   37.5170 C   0  0  0  0  0  0  0  0  0  0  0  0
   40.4990   35.0880   38.3360 N   0  0  0  0  0  0  0  0  0  0  0  0
   44.1540   35.6790   42.8660 C   0  0  0  0  0  0  0  0  0  0  0  0
   47.7410   34.9550   42.3170 C   0  0  0  0  0  0  0  0  0  0  0  0
   48.0090   33.9440   43.2610 C   0  0  0  0  0  0  0  0  0  0  0  0
   46.9410   33.5300   44.0720 C   0  0  0  0  0  0  0  0  0  0  0  0
   45.7420   34.1200   43.8980 N   0  0  0  0  0  0  0  0  0  0  0  0
   45.5260   35.0830   42.9850 C   0  0  0  0  0  0  0  0  0  0  0  0
   46.5140   35.5160   42.1810 N   0  0  0  0  0  0  0  0  0  0  0  0
   48.9000   35.3850   41.4550 C   0  0  0  0  0  0  0  0  0  0  0  0
   48.5530   35.3610   40.1470 F   0  0  0  0  0  0  0  0  0  0  0  0
   49.2700   36.6860   41.7800 F   0  0  0  0  0  0  0  0  0  0  0  0
   49.9360   34.4950   41.6350 F   0  0  0  0  0  0  0  0  0  0  0  0
   43.6273   36.5619   41.0351 H   0  0  0  0  0  0  0  0  0  0  0  0
   44.3610   34.8673   40.9721 H   0  0  0  0  0  0  0  0  0  0  0  0
   42.7808   33.9551   41.1591 H   0  0  0  0  0  0  0  0  0  0  0  0
   40.4022   34.7292   42.4827 H   0  0  0  0  0  0  0  0  0  0  0  0
   41.0254   36.0644   42.9843 H   0  0  0  0  0  0  0  0  0  0  0  0
   41.1537   36.6070   40.0137 H   0  0  0  0  0  0  0  0  0  0  0  0
   39.0645   34.2907   41.2277 H   0  0  0  0  0  0  0  0  0  0  0  0
   37.4564   33.1271   39.7637 H   0  0  0  0  0  0  0  0  0  0  0  0
   37.8422   33.2390   37.2577 H   0  0  0  0  0  0  0  0  0  0  0  0
   39.7921   34.5026   36.4320 H   0  0  0  0  0  0  0  0  0  0  0  0
   44.1945   36.7429   43.1426 H   0  0  0  0  0  0  0  0  0  0  0  0
   43.4694   35.1424   43.5393 H   0  0  0  0  0  0  0  0  0  0  0  0
   49.0103   33.4991   43.3580 H   0  0  0  0  0  0  0  0  0  0  0  0
   47.0790   32.7446   44.8297 H   0  0  0  0  0  0  0  0  0  0  0  0
  1 11  1  0
  2  1  1  0
  2  3  1  0
  4  2  1  0
  4  3  1  0
  5  6  2  0
  5  4  1  0
  7  6  1  0
  8  7  2  0
  9  8  1  0
  9 10  2  0
 10  5  1  0
 11 16  1  0
 12 13  2  0
 13 14  1  0
 15 14  2  0
 16 15  1  0
 17 12  1  0
 17 16  2  0
 18 21  1  0
 18 20  1  0
 18 12  1  0
 19 18  1  0
  1 22  1  0
  1 23  1  0
  2 24  1  6
  3 25  1  0
  3 26  1  0
  4 27  1  1
  6 28  1  0
  7 29  1  0
  8 30  1  0
  9 31  1  0
 11 32  1  0
 11 33  1  0
 13 34  1  0
 14 35  1  0
M  ISO  8  22   8  23   8  24  13  25  13  26  13  27  13  28  14  29  14
M  ISO  6  30  14  31  14  32   8  33   8  34  14  35  14
M  END
>  <minimizedAffinity>  (1) 
-6.49370432

>  <minimizedRMSD>  (1) 
1.1404165

$$$$
