
     RDKit          3D

 27 29  0  0  0  0  0  0  0  0999 V2000
   46.8720   33.0690   44.7000 C   0  0  0  0  0  0  0  0  0  0  0  0
   45.7690   32.8080   43.7980 N   0  0  0  0  0  0  0  0  0  0  0  0
   45.1730   31.6670   43.4080 C   0  0  0  0  0  0  0  0  0  0  0  0
   44.1740   31.9140   42.5440 N   0  0  0  0  0  0  0  0  0  0  0  0
   44.1070   33.2410   42.3560 C   0  0  0  0  0  0  0  0  0  0  0  0
   43.2850   34.0370   41.5870 C   0  0  0  0  0  0  0  0  0  0  0  0
   43.4900   35.3790   41.6270 N   0  0  0  0  0  0  0  0  0  0  0  0
   44.4620   35.9160   42.3910 C   0  0  0  0  0  0  0  0  0  0  0  0
   45.2610   35.1360   43.1400 N   0  0  0  0  0  0  0  0  0  0  0  0
   45.1080   33.7870   43.1440 C   0  0  0  0  0  0  0  0  0  0  0  0
   46.3170   33.1460   46.1350 C   0  0  0  0  0  0  0  0  0  0  0  0
   48.1790   31.3220   48.8930 C   0  0  0  0  0  0  0  0  0  0  0  0
   47.5840   32.3850   48.2150 C   0  0  0  0  0  0  0  0  0  0  0  0
   46.9930   32.1160   46.9780 C   0  0  0  0  0  0  0  0  0  0  0  0
   47.0340   30.8310   46.5120 N   0  0  0  0  0  0  0  0  0  0  0  0
   47.6250   29.8260   47.2060 C   0  0  0  0  0  0  0  0  0  0  0  0
   48.1970   30.0710   48.3940 N   0  0  0  0  0  0  0  0  0  0  0  0
   47.3511   34.0231   44.4350 H   0  0  0  0  0  0  0  0  0  0  0  0
   47.6198   32.2657   44.6260 H   0  0  0  0  0  0  0  0  0  0  0  0
   45.4650   30.6636   43.7513 H   0  0  0  0  0  0  0  0  0  0  0  0
   42.4911   33.6006   40.9630 H   0  0  0  0  0  0  0  0  0  0  0  0
   44.6034   37.0068   42.4019 H   0  0  0  0  0  0  0  0  0  0  0  0
   46.5094   34.1460   46.5508 H   0  0  0  0  0  0  0  0  0  0  0  0
   45.2328   32.9604   46.1227 H   0  0  0  0  0  0  0  0  0  0  0  0
   48.6499   31.5114   49.8689 H   0  0  0  0  0  0  0  0  0  0  0  0
   47.5800   33.3999   48.6391 H   0  0  0  0  0  0  0  0  0  0  0  0
   47.6350   28.8066   46.7927 H   0  0  0  0  0  0  0  0  0  0  0  0
  1 11  1  0
  2  1  1  0
  3  2  1  0
  4  3  2  0
  5  4  1  0
  5 10  2  0
  6  7  2  0
  6  5  1  0
  7  8  1  0
  8  9  2  0
  9 10  1  0
 10  2  1  0
 11 14  1  0
 13 12  2  0
 14 13  1  0
 15 14  2  0
 15 16  1  0
 16 17  2  0
 17 12  1  0
  1 18  1  0
  1 19  1  0
  3 20  1  0
  6 21  1  0
  8 22  1  0
 11 23  1  0
 11 24  1  0
 12 25  1  0
 13 26  1  0
 16 27  1  0
M  ISO  8  18   8  19   8  20  14  21  14  22  14  23   8  24   8  25  14
M  ISO  2  26  14  27  14
M  END
>  <minimizedAffinity>  (1) 
-4.00933504

>  <minimizedRMSD>  (1) 
5.51362276

$$$$
