
     RDKit          3D

 34 36  0  0  1  0  0  0  0  0999 V2000
   43.5810   35.2420   41.3330 C   0  0  0  0  0  0  0  0  0  0  0  0
   42.1550   34.7950   41.3010 C   0  0  1  0  0  0  0  0  0  0  0  0
   41.0850   35.6110   41.9500 C   0  0  0  0  0  0  0  0  0  0  0  0
   41.1570   35.5380   40.4740 C   0  0  2  0  0  0  0  0  0  0  0  0
   40.1650   34.8130   39.6680 C   0  0  0  0  0  0  0  0  0  0  0  0
   40.1710   34.7980   38.3030 C   0  0  0  0  0  0  0  0  0  0  0  0
   39.2480   34.1230   37.5390 C   0  0  0  0  0  0  0  0  0  0  0  0
   38.2890   33.4420   38.2100 N   0  0  0  0  0  0  0  0  0  0  0  0
   38.2370   33.4240   39.5570 C   0  0  0  0  0  0  0  0  0  0  0  0
   39.1630   34.1010   40.2470 N   0  0  0  0  0  0  0  0  0  0  0  0
   44.1090   35.6410   42.6700 C   0  0  0  0  0  0  0  0  0  0  0  0
   47.7470   34.9770   42.2740 C   0  0  0  0  0  0  0  0  0  0  0  0
   47.9780   34.0000   43.2610 C   0  0  0  0  0  0  0  0  0  0  0  0
   46.8840   33.5810   44.0500 C   0  0  0  0  0  0  0  0  0  0  0  0
   45.6960   34.1520   43.7950 N   0  0  0  0  0  0  0  0  0  0  0  0
   45.4950   35.0830   42.8500 C   0  0  0  0  0  0  0  0  0  0  0  0
   46.5100   35.5020   42.0850 N   0  0  0  0  0  0  0  0  0  0  0  0
   48.9230   35.4020   41.4530 C   0  0  0  0  0  0  0  0  0  0  0  0
   48.6040   35.3860   40.1330 F   0  0  0  0  0  0  0  0  0  0  0  0
   49.2910   36.6910   41.7800 F   0  0  0  0  0  0  0  0  0  0  0  0
   49.9370   34.4860   41.6390 F   0  0  0  0  0  0  0  0  0  0  0  0
   43.6782   36.1070   40.6604 H   0  0  0  0  0  0  0  0  0  0  0  0
   44.1740   34.3673   41.0278 H   0  0  0  0  0  0  0  0  0  0  0  0
   42.4899   33.7500   41.3771 H   0  0  0  0  0  0  0  0  0  0  0  0
   40.2630   35.1129   42.4850 H   0  0  0  0  0  0  0  0  0  0  0  0
   41.0713   36.4277   42.6867 H   0  0  0  0  0  0  0  0  0  0  0  0
   41.2015   36.2903   39.6727 H   0  0  0  0  0  0  0  0  0  0  0  0
   40.9613   35.3594   37.7831 H   0  0  0  0  0  0  0  0  0  0  0  0
   39.2867   34.1356   36.4398 H   0  0  0  0  0  0  0  0  0  0  0  0
   37.4480   32.8632   40.0795 H   0  0  0  0  0  0  0  0  0  0  0  0
   44.1441   36.7384   42.7376 H   0  0  0  0  0  0  0  0  0  0  0  0
   43.4499   35.2456   43.4569 H   0  0  0  0  0  0  0  0  0  0  0  0
   48.9812   33.5753   43.4133 H   0  0  0  0  0  0  0  0  0  0  0  0
   47.0000   32.8216   44.8373 H   0  0  0  0  0  0  0  0  0  0  0  0
  1 11  1  0
  2  1  1  0
  2  3  1  0
  4  2  1  0
  4  3  1  0
  5 10  1  0
  5  4  1  0
  6  5  2  0
  7  8  2  0
  7  6  1  0
  8  9  1  0
  9 10  2  0
 11 16  1  0
 12 13  2  0
 13 14  1  0
 15 14  2  0
 16 15  1  0
 17 12  1  0
 17 16  2  0
 18 21  1  0
 18 20  1  0
 18 12  1  0
 19 18  1  0
  1 22  1  0
  1 23  1  0
  2 24  1  1
  3 25  1  0
  3 26  1  0
  4 27  1  6
  6 28  1  0
  7 29  1  0
  9 30  1  0
 11 31  1  0
 11 32  1  0
 13 33  1  0
 14 34  1  0
M  ISO  8  22   8  23   8  24  13  25  13  26  13  27  13  28  14  29  14
M  ISO  5  30  14  31   8  32   8  33  14  34  14
M  END
>  <minimizedAffinity>  (1) 
-6.08501244

>  <minimizedRMSD>  (1) 
0.933966339

$$$$
