
     RDKit          3D

 38 40  0  0  1  0  0  0  0  0999 V2000
   43.7020   35.5900   41.6930 C   0  0  0  0  0  0  0  0  0  0  0  0
   43.6300   34.2190   41.1120 C   0  0  1  0  0  0  0  0  0  0  0  0
   42.4320   33.3590   41.3520 C   0  0  0  0  0  0  0  0  0  0  0  0
   42.6910   33.9130   39.9990 C   0  0  1  0  0  0  0  0  0  0  0  0
   41.7120   34.8670   39.5310 N   0  0  0  0  0  0  0  0  0  0  0  0
   40.4710   34.1610   39.2980 C   0  0  0  0  0  0  0  0  0  0  0  0
   39.8540   34.6680   38.0420 C   0  0  0  0  0  0  0  0  0  0  0  0
   40.8010   35.6700   37.4730 C   0  0  0  0  0  0  0  0  0  0  0  0
   42.0660   35.5040   38.2840 C   0  0  0  0  0  0  0  0  0  0  0  0
   44.2590   35.6440   43.0930 C   0  0  0  0  0  0  0  0  0  0  0  0
   47.8370   34.9590   42.3720 C   0  0  0  0  0  0  0  0  0  0  0  0
   48.1160   33.8720   43.2230 C   0  0  0  0  0  0  0  0  0  0  0  0
   47.0630   33.3940   44.0300 C   0  0  0  0  0  0  0  0  0  0  0  0
   45.8750   34.0130   43.9270 N   0  0  0  0  0  0  0  0  0  0  0  0
   45.6350   35.0470   43.1080 C   0  0  0  0  0  0  0  0  0  0  0  0
   46.6130   35.5260   42.3270 N   0  0  0  0  0  0  0  0  0  0  0  0
   48.9650   35.4590   41.5170 C   0  0  0  0  0  0  0  0  0  0  0  0
   48.6240   35.3770   40.2010 F   0  0  0  0  0  0  0  0  0  0  0  0
   49.2620   36.7660   41.8150 F   0  0  0  0  0  0  0  0  0  0  0  0
   50.0490   34.6150   41.7030 F   0  0  0  0  0  0  0  0  0  0  0  0
   42.6856   36.0102   41.7106 H   0  0  0  0  0  0  0  0  0  0  0  0
   44.3922   36.1646   41.0578 H   0  0  0  0  0  0  0  0  0  0  0  0
   44.7137   34.1107   41.2667 H   0  0  0  0  0  0  0  0  0  0  0  0
   42.5563   32.2821   41.5386 H   0  0  0  0  0  0  0  0  0  0  0  0
   41.5851   33.3826   42.0535 H   0  0  0  0  0  0  0  0  0  0  0  0
   42.8597   33.5367   38.9793 H   0  0  0  0  0  0  0  0  0  0  0  0
   40.6719   33.0838   39.2016 H   0  0  0  0  0  0  0  0  0  0  0  0
   39.7852   34.3260   40.1421 H   0  0  0  0  0  0  0  0  0  0  0  0
   39.7054   33.8411   37.3320 H   0  0  0  0  0  0  0  0  0  0  0  0
   38.8708   35.1203   38.2388 H   0  0  0  0  0  0  0  0  0  0  0  0
   40.9918   35.4635   36.4095 H   0  0  0  0  0  0  0  0  0  0  0  0
   40.4043   36.6947   37.5246 H   0  0  0  0  0  0  0  0  0  0  0  0
   42.7832   34.8769   37.7341 H   0  0  0  0  0  0  0  0  0  0  0  0
   42.5326   36.4823   38.4718 H   0  0  0  0  0  0  0  0  0  0  0  0
   44.3100   36.6908   43.4270 H   0  0  0  0  0  0  0  0  0  0  0  0
   43.6051   35.0742   43.7696 H   0  0  0  0  0  0  0  0  0  0  0  0
   49.1156   33.4141   43.2568 H   0  0  0  0  0  0  0  0  0  0  0  0
   47.2086   32.5474   44.7170 H   0  0  0  0  0  0  0  0  0  0  0  0
  1 10  1  0
  2  3  1  0
  2  1  1  0
  4  2  1  0
  4  3  1  0
  5  6  1  0
  5  4  1  0
  7  6  1  0
  8  7  1  0
  8  9  1  0
  9  5  1  0
 10 15  1  0
 11 12  2  0
 12 13  1  0
 14 13  2  0
 15 14  1  0
 16 11  1  0
 16 15  2  0
 17 20  1  0
 17 19  1  0
 17 11  1  0
 18 17  1  0
  1 21  1  0
  1 22  1  0
  2 23  1  6
  3 24  1  0
  3 25  1  0
  4 26  1  6
  6 27  1  0
  6 28  1  0
  7 29  1  0
  7 30  1  0
  8 31  1  0
  8 32  1  0
  9 33  1  0
  9 34  1  0
 10 35  1  0
 10 36  1  0
 12 37  1  0
 13 38  1  0
M  ISO  8  21   8  22   8  23  13  24  13  25  13  26  13  27  13  28  13
M  ISO  8  29  13  30  13  31  13  32  13  33  13  34  13  35   8  36   8
M  ISO  2  37  14  38  14
M  END
>  <minimizedAffinity>  (1) 
-5.76361799

>  <minimizedRMSD>  (1) 
1.27428484

$$$$
