
     RDKit          3D

 33 35  0  0  1  0  0  0  0  0999 V2000
   44.1940   35.6310   42.9100 C   0  0  0  0  0  0  0  0  0  0  0  0
   47.8080   34.9950   42.3660 C   0  0  0  0  0  0  0  0  0  0  0  0
   48.0780   33.9610   43.2680 C   0  0  0  0  0  0  0  0  0  0  0  0
   47.0170   33.4900   44.0550 C   0  0  0  0  0  0  0  0  0  0  0  0
   45.8070   34.0630   43.8930 N   0  0  0  0  0  0  0  0  0  0  0  0
   45.5780   35.0580   43.0160 C   0  0  0  0  0  0  0  0  0  0  0  0
   46.5760   35.5450   42.2330 N   0  0  0  0  0  0  0  0  0  0  0  0
   48.9570   35.4850   41.5340 C   0  0  0  0  0  0  0  0  0  0  0  0
   48.6390   35.4230   40.2020 F   0  0  0  0  0  0  0  0  0  0  0  0
   49.2530   36.7900   41.8410 F   0  0  0  0  0  0  0  0  0  0  0  0
   50.0340   34.6410   41.7410 F   0  0  0  0  0  0  0  0  0  0  0  0
   43.6910   35.4480   41.4990 C   0  0  0  0  0  0  0  0  0  0  0  0
   44.2560   34.2520   40.8190 C   0  0  1  0  0  0  0  0  0  0  0  0
   43.6240   32.9230   40.8490 C   0  0  0  0  0  0  0  0  0  0  0  0
   43.6310   33.6910   39.5830 C   0  0  1  0  0  0  0  0  0  0  0  0
   42.4090   34.2350   39.0000 C   0  0  0  0  0  0  0  0  0  0  0  0
   42.2380   35.3560   38.2430 C   0  0  0  0  0  0  0  0  0  0  0  0
   40.9700   35.6400   37.8020 C   0  0  0  0  0  0  0  0  0  0  0  0
   39.9060   34.7520   38.1600 C   0  0  0  0  0  0  0  0  0  0  0  0
   40.8000   33.4350   39.1910 S   0  0  0  0  0  0  0  0  0  0  0  0
   43.5248   35.1097   43.6102 H   0  0  0  0  0  0  0  0  0  0  0  0
   44.2160   36.7020   43.1598 H   0  0  0  0  0  0  0  0  0  0  0  0
   49.0870   33.5322   43.3571 H   0  0  0  0  0  0  0  0  0  0  0  0
   47.1672   32.6782   44.7820 H   0  0  0  0  0  0  0  0  0  0  0  0
   42.5961   35.3463   41.5299 H   0  0  0  0  0  0  0  0  0  0  0  0
   44.0117   36.3292   40.9240 H   0  0  0  0  0  0  0  0  0  0  0  0
   45.2477   34.6351   41.1014 H   0  0  0  0  0  0  0  0  0  0  0  0
   44.2475   32.0220   40.9466 H   0  0  0  0  0  0  0  0  0  0  0  0
   42.8423   32.4524   41.4634 H   0  0  0  0  0  0  0  0  0  0  0  0
   43.9714   33.5067   38.5533 H   0  0  0  0  0  0  0  0  0  0  0  0
   43.0869   36.0099   37.9944 H   0  0  0  0  0  0  0  0  0  0  0  0
   40.7754   36.5308   37.1867 H   0  0  0  0  0  0  0  0  0  0  0  0
   38.8386   34.8171   37.9021 H   0  0  0  0  0  0  0  0  0  0  0  0
  1  6  1  0
  2  3  2  0
  3  4  1  0
  5  4  2  0
  6  5  1  0
  7  2  1  0
  7  6  2  0
  8 11  1  0
  8 10  1  0
  8  2  1  0
  9  8  1  0
 12  1  1  0
 13 14  1  0
 13 12  1  0
 15 13  1  0
 15 14  1  0
 16 20  1  0
 16 15  1  0
 17 16  2  0
 18 19  2  0
 18 17  1  0
 19 20  1  0
  1 21  1  0
  1 22  1  0
  3 23  1  0
  4 24  1  0
 12 25  1  0
 12 26  1  0
 13 27  1  6
 14 28  1  0
 14 29  1  0
 15 30  1  6
 17 31  1  0
 18 32  1  0
 19 33  1  0
M  ISO  8  21   8  22   8  23  14  24  14  25   8  26   8  27  13  28  13
M  ISO  5  29  13  30  13  31  14  32  14  33  14
M  END
>  <minimizedAffinity>  (1) 
-5.64363527

>  <minimizedRMSD>  (1) 
1.77527344

$$$$
