
     RDKit          3D

 23 24  0  0  0  0  0  0  0  0999 V2000
   44.2130   35.8080   42.1200 C   0  0  0  0  0  0  0  0  0  0  0  0
   47.3780   34.0890   43.3480 C   0  0  0  0  0  0  0  0  0  0  0  0
   46.5210   34.8220   42.5080 C   0  0  0  0  0  0  0  0  0  0  0  0
   45.2200   35.0420   42.9240 C   0  0  0  0  0  0  0  0  0  0  0  0
   44.8240   34.5340   44.1340 N   0  0  0  0  0  0  0  0  0  0  0  0
   45.6830   33.8280   44.9190 C   0  0  0  0  0  0  0  0  0  0  0  0
   46.9440   33.6070   44.5340 N   0  0  0  0  0  0  0  0  0  0  0  0
   43.7580   34.9560   40.9260 C   0  0  0  0  0  0  0  0  0  0  0  0
   42.3780   35.2820   40.6520 N   0  0  0  0  0  0  0  0  0  0  0  0
   41.4060   35.7110   41.4410 N   0  0  0  0  0  0  0  0  0  0  0  0
   40.2900   35.8670   40.6920 C   0  0  0  0  0  0  0  0  0  0  0  0
   40.5630   35.5240   39.3790 C   0  0  0  0  0  0  0  0  0  0  0  0
   41.8950   35.1580   39.3900 C   0  0  0  0  0  0  0  0  0  0  0  0
   43.3449   36.0478   42.7516 H   0  0  0  0  0  0  0  0  0  0  0  0
   44.6679   36.7402   41.7538 H   0  0  0  0  0  0  0  0  0  0  0  0
   48.4165   33.9052   43.0355 H   0  0  0  0  0  0  0  0  0  0  0  0
   46.8767   35.2114   41.5427 H   0  0  0  0  0  0  0  0  0  0  0  0
   45.3344   33.4333   45.8848 H   0  0  0  0  0  0  0  0  0  0  0  0
   44.3780   35.1831   40.0462 H   0  0  0  0  0  0  0  0  0  0  0  0
   43.8617   33.8853   41.1560 H   0  0  0  0  0  0  0  0  0  0  0  0
   39.3160   36.2130   41.0684 H   0  0  0  0  0  0  0  0  0  0  0  0
   39.8749   35.5394   38.5209 H   0  0  0  0  0  0  0  0  0  0  0  0
   42.4715   34.8203   38.5161 H   0  0  0  0  0  0  0  0  0  0  0  0
  1  4  1  0
  2  7  2  0
  3  4  2  0
  3  2  1  0
  4  5  1  0
  5  6  2  0
  7  6  1  0
  8  1  1  0
  9  8  1  0
  9 10  1  0
 11 10  2  0
 12 13  2  0
 12 11  1  0
 13  9  1  0
  1 14  1  0
  1 15  1  0
  2 16  1  0
  3 17  1  0
  6 18  1  0
  8 19  1  0
  8 20  1  0
 11 21  1  0
 12 22  1  0
 13 23  1  0
M  ISO  8  14   8  15   8  16  14  17  14  18  14  19   8  20   8  21  14
M  ISO  2  22  14  23  14
M  END
>  <minimizedAffinity>  (1) 
-3.94645619

>  <minimizedRMSD>  (1) 
5.57146072

$$$$
