
     RDKit          3D

 27 28  0  0  1  0  0  0  0  0999 V2000
   44.1020   35.6910   42.8430 C   0  0  0  0  0  0  0  0  0  0  0  0
   47.6950   34.9580   42.3060 C   0  0  0  0  0  0  0  0  0  0  0  0
   47.9430   33.9570   43.2560 C   0  0  0  0  0  0  0  0  0  0  0  0
   46.8760   33.5450   44.0680 C   0  0  0  0  0  0  0  0  0  0  0  0
   45.6850   34.1480   43.8720 N   0  0  0  0  0  0  0  0  0  0  0  0
   45.4680   35.1020   42.9610 C   0  0  0  0  0  0  0  0  0  0  0  0
   46.4700   35.5110   42.1740 N   0  0  0  0  0  0  0  0  0  0  0  0
   48.8590   35.3790   41.4490 C   0  0  0  0  0  0  0  0  0  0  0  0
   48.4940   35.3440   40.1290 F   0  0  0  0  0  0  0  0  0  0  0  0
   49.2340   36.6630   41.7610 F   0  0  0  0  0  0  0  0  0  0  0  0
   49.8760   34.4690   41.6320 F   0  0  0  0  0  0  0  0  0  0  0  0
   43.5000   35.3530   41.5150 C   0  0  0  0  0  0  0  0  0  0  0  0
   42.0450   34.9680   41.5700 C   0  0  1  0  0  0  0  0  0  0  0  0
   41.0040   35.9170   41.1090 C   0  0  0  0  0  0  0  0  0  0  0  0
   41.3170   34.7080   40.3070 C   0  0  1  0  0  0  0  0  0  0  0  0
   42.1710   35.0720   38.7320 S   0  0  0  0  0  0  0  0  0  0  0  0
   43.4635   35.2884   43.6432 H   0  0  0  0  0  0  0  0  0  0  0  0
   44.1765   36.7848   42.9325 H   0  0  0  0  0  0  0  0  0  0  0  0
   48.9422   33.5092   43.3611 H   0  0  0  0  0  0  0  0  0  0  0  0
   47.0047   32.7639   44.8317 H   0  0  0  0  0  0  0  0  0  0  0  0
   44.0627   34.5103   41.0869 H   0  0  0  0  0  0  0  0  0  0  0  0
   43.5600   36.2648   40.9025 H   0  0  0  0  0  0  0  0  0  0  0  0
   42.2217   34.4094   42.5010 H   0  0  0  0  0  0  0  0  0  0  0  0
   40.0471   35.9880   41.6468 H   0  0  0  0  0  0  0  0  0  0  0  0
   40.9703   36.9978   40.9072 H   0  0  0  0  0  0  0  0  0  0  0  0
   40.7694   33.8371   39.9176 H   0  0  0  0  0  0  0  0  0  0  0  0
   43.4080   35.5992   38.9945 H   0  0  0  0  0  0  0  0  0  0  0  0
  1  6  1  0
  2  3  2  0
  3  4  1  0
  5  4  2  0
  6  5  1  0
  7  2  1  0
  7  6  2  0
  8 11  1  0
  8 10  1  0
  8  2  1  0
  9  8  1  0
 12 13  1  0
 12  1  1  0
 14 13  1  0
 15 14  1  0
 15 13  1  0
 16 15  1  0
  1 17  1  0
  1 18  1  0
  3 19  1  0
  4 20  1  0
 12 21  1  0
 12 22  1  0
 13 23  1  1
 14 24  1  0
 14 25  1  0
 15 26  1  6
 16 27  1  0
M  ISO  8  17   8  18   8  19  14  20  14  21   8  22   8  23  13  24  13
M  ISO  3  25  13  26  13  27  11
M  END
>  <minimizedAffinity>  (1) 
-5.02192736

>  <minimizedRMSD>  (1) 
0.369753808

$$$$
