
     RDKit          3D

 29 30  0  0  1  0  0  0  0  0999 V2000
   43.9990   35.6000   42.6510 C   0  0  0  0  0  0  0  0  0  0  0  0
   47.6220   34.9390   42.2730 C   0  0  0  0  0  0  0  0  0  0  0  0
   47.8710   34.0070   43.2890 C   0  0  0  0  0  0  0  0  0  0  0  0
   46.7750   33.6120   44.1010 C   0  0  0  0  0  0  0  0  0  0  0  0
   45.5880   34.1620   43.8330 N   0  0  0  0  0  0  0  0  0  0  0  0
   45.3680   35.0560   42.8550 C   0  0  0  0  0  0  0  0  0  0  0  0
   46.3890   35.4460   42.0710 N   0  0  0  0  0  0  0  0  0  0  0  0
   48.7950   35.3370   41.4310 C   0  0  0  0  0  0  0  0  0  0  0  0
   48.4560   35.3210   40.1090 F   0  0  0  0  0  0  0  0  0  0  0  0
   49.2030   36.6150   41.7430 F   0  0  0  0  0  0  0  0  0  0  0  0
   49.7970   34.4010   41.6050 F   0  0  0  0  0  0  0  0  0  0  0  0
   43.5700   35.4100   41.2310 C   0  0  0  0  0  0  0  0  0  0  0  0
   42.1550   34.9730   41.0470 C   0  0  1  0  0  0  0  0  0  0  0  0
   41.0270   35.9110   41.2490 C   0  0  0  0  0  0  0  0  0  0  0  0
   41.3710   35.4530   39.8840 C   0  0  2  0  0  0  0  0  0  0  0  0
   40.3620   34.5400   39.2030 C   0  0  0  0  0  0  0  0  0  0  0  0
   43.2972   35.0744   43.3153 H   0  0  0  0  0  0  0  0  0  0  0  0
   44.0038   36.6755   42.8820 H   0  0  0  0  0  0  0  0  0  0  0  0
   48.8784   33.5963   43.4517 H   0  0  0  0  0  0  0  0  0  0  0  0
   46.8985   32.8838   44.9162 H   0  0  0  0  0  0  0  0  0  0  0  0
   43.7016   36.3671   40.7050 H   0  0  0  0  0  0  0  0  0  0  0  0
   44.1945   34.5981   40.8298 H   0  0  0  0  0  0  0  0  0  0  0  0
   42.4243   33.9896   41.4599 H   0  0  0  0  0  0  0  0  0  0  0  0
   40.1009   35.5619   41.7290 H   0  0  0  0  0  0  0  0  0  0  0  0
   40.9086   36.8916   41.7331 H   0  0  0  0  0  0  0  0  0  0  0  0
   41.6495   35.9197   38.9276 H   0  0  0  0  0  0  0  0  0  0  0  0
   39.7747   34.0086   39.9663 H   0  0  0  0  0  0  0  0  0  0  0  0
   39.6883   35.1417   38.5752 H   0  0  0  0  0  0  0  0  0  0  0  0
   40.8936   33.8097   38.5752 H   0  0  0  0  0  0  0  0  0  0  0  0
  1  6  1  0
  2  3  2  0
  3  4  1  0
  5  4  2  0
  6  5  1  0
  7  2  1  0
  7  6  2  0
  8 11  1  0
  8 10  1  0
  8  2  1  0
  9  8  1  0
 12  1  1  0
 13 12  1  0
 13 14  1  0
 15 13  1  0
 15 14  1  0
 16 15  1  0
  1 17  1  0
  1 18  1  0
  3 19  1  0
  4 20  1  0
 12 21  1  0
 12 22  1  0
 13 23  1  1
 14 24  1  0
 14 25  1  0
 15 26  1  6
 16 27  1  0
 16 28  1  0
 16 29  1  0
M  ISO  8  17   8  18   8  19  14  20  14  21   8  22   8  23  13  24  13
M  ISO  5  25  13  26  13  27   8  28   8  29   8
M  END
>  <minimizedAffinity>  (1) 
-5.17078257

>  <minimizedRMSD>  (1) 
0.276181519

$$$$
