
     RDKit          3D

 30 31  0  0  1  0  0  0  0  0999 V2000
   44.0770   35.7020   42.6290 C   0  0  0  0  0  0  0  0  0  0  0  0
   47.6940   34.9940   42.2470 C   0  0  0  0  0  0  0  0  0  0  0  0
   47.9180   34.0310   43.2480 C   0  0  0  0  0  0  0  0  0  0  0  0
   46.8220   33.6350   44.0440 C   0  0  0  0  0  0  0  0  0  0  0  0
   45.6480   34.2110   43.7830 N   0  0  0  0  0  0  0  0  0  0  0  0
   45.4500   35.1370   42.8140 C   0  0  0  0  0  0  0  0  0  0  0  0
   46.4710   35.5210   42.0550 N   0  0  0  0  0  0  0  0  0  0  0  0
   48.8740   35.3970   41.4160 C   0  0  0  0  0  0  0  0  0  0  0  0
   48.5600   35.3600   40.1080 F   0  0  0  0  0  0  0  0  0  0  0  0
   49.2790   36.6710   41.7570 F   0  0  0  0  0  0  0  0  0  0  0  0
   49.8900   34.4720   41.6260 F   0  0  0  0  0  0  0  0  0  0  0  0
   43.5090   35.2470   41.3270 C   0  0  0  0  0  0  0  0  0  0  0  0
   42.1660   34.5620   41.4380 C   0  0  1  0  0  0  0  0  0  0  0  0
   40.9680   35.4090   41.6830 C   0  0  0  0  0  0  0  0  0  0  0  0
   41.1640   34.7130   40.3690 C   0  0  1  0  0  0  0  0  0  0  0  0
   41.4570   35.4670   39.2480 O   0  0  0  0  0  0  0  0  0  0  0  0
   40.7540   35.1020   38.1140 C   0  0  0  0  0  0  0  0  0  0  0  0
   39.4190   34.9430   38.4680 F   0  0  0  0  0  0  0  0  0  0  0  0
   41.2030   33.8220   37.7730 F   0  0  0  0  0  0  0  0  0  0  0  0
   40.8430   35.9830   37.0760 F   0  0  0  0  0  0  0  0  0  0  0  0
   43.4286   35.3593   43.4489 H   0  0  0  0  0  0  0  0  0  0  0  0
   44.1351   36.8005   42.6333 H   0  0  0  0  0  0  0  0  0  0  0  0
   48.9176   33.5996   43.4055 H   0  0  0  0  0  0  0  0  0  0  0  0
   46.9311   32.8862   44.8424 H   0  0  0  0  0  0  0  0  0  0  0  0
   44.2184   34.5416   40.8697 H   0  0  0  0  0  0  0  0  0  0  0  0
   43.3518   36.1506   40.7197 H   0  0  0  0  0  0  0  0  0  0  0  0
   42.6277   33.6923   41.9284 H   0  0  0  0  0  0  0  0  0  0  0  0
   40.1841   35.0701   42.3763 H   0  0  0  0  0  0  0  0  0  0  0  0
   40.7950   36.4478   42.0009 H   0  0  0  0  0  0  0  0  0  0  0  0
   40.5758   34.0125   39.7581 H   0  0  0  0  0  0  0  0  0  0  0  0
  1  6  1  0
  2  3  2  0
  3  4  1  0
  5  4  2  0
  6  5  1  0
  7  2  1  0
  7  6  2  0
  8 11  1  0
  8 10  1  0
  8  2  1  0
  9  8  1  0
 12 13  1  0
 12  1  1  0
 13 14  1  0
 15 13  1  0
 15 14  1  0
 16 15  1  0
 17 18  1  0
 17 16  1  0
 19 17  1  0
 20 17  1  0
  1 21  1  0
  1 22  1  0
  3 23  1  0
  4 24  1  0
 12 25  1  0
 12 26  1  0
 13 27  1  1
 14 28  1  0
 14 29  1  0
 15 30  1  6
M  ISO  8  21   8  22   8  23  14  24  14  25   8  26   8  27  13  28  13
M  ISO  2  29  13  30  13
M  END
>  <minimizedAffinity>  (1) 
-5.67020988

>  <minimizedRMSD>  (1) 
0.741587162

$$$$
