
     RDKit          3D

 40 42  0  0  1  0  0  0  0  0999 V2000
   43.7000   35.6670   41.8170 C   0  0  0  0  0  0  0  0  0  0  0  0
   42.5150   34.7580   41.7260 C   0  0  1  0  0  0  0  0  0  0  0  0
   41.1420   35.2800   41.7070 C   0  0  0  0  0  0  0  0  0  0  0  0
   41.7100   34.6830   40.4740 C   0  0  1  0  0  0  0  0  0  0  0  0
   42.0520   35.4900   39.4070 O   0  0  0  0  0  0  0  0  0  0  0  0
   41.8060   34.8460   38.1960 C   0  0  0  0  0  0  0  0  0  0  0  0
   40.6210   35.4800   37.5170 C   0  0  0  0  0  0  0  0  0  0  0  0
   39.4390   34.5580   37.7020 C   0  0  0  0  0  0  0  0  0  0  0  0
   39.9740   33.2460   38.1770 C   0  0  0  0  0  0  0  0  0  0  0  0
   41.4210   33.4160   38.5020 C   0  0  0  0  0  0  0  0  0  0  0  0
   44.3090   35.7330   43.1870 C   0  0  0  0  0  0  0  0  0  0  0  0
   47.8280   34.9360   42.3640 C   0  0  0  0  0  0  0  0  0  0  0  0
   48.1060   33.8580   43.2100 C   0  0  0  0  0  0  0  0  0  0  0  0
   47.0750   33.4110   44.0630 C   0  0  0  0  0  0  0  0  0  0  0  0
   45.9000   34.0500   44.0020 N   0  0  0  0  0  0  0  0  0  0  0  0
   45.6520   35.0890   43.1780 C   0  0  0  0  0  0  0  0  0  0  0  0
   46.6230   35.5290   42.3590 N   0  0  0  0  0  0  0  0  0  0  0  0
   48.9400   35.3900   41.4700 C   0  0  0  0  0  0  0  0  0  0  0  0
   48.5590   35.3360   40.1780 F   0  0  0  0  0  0  0  0  0  0  0  0
   49.2820   36.7060   41.7740 F   0  0  0  0  0  0  0  0  0  0  0  0
   50.0090   34.5310   41.6270 F   0  0  0  0  0  0  0  0  0  0  0  0
   43.3828   36.6802   41.5293 H   0  0  0  0  0  0  0  0  0  0  0  0
   44.4688   35.2595   41.1440 H   0  0  0  0  0  0  0  0  0  0  0  0
   43.0561   34.0348   42.3538 H   0  0  0  0  0  0  0  0  0  0  0  0
   40.3475   34.7529   42.2556 H   0  0  0  0  0  0  0  0  0  0  0  0
   40.6774   36.2453   41.9565 H   0  0  0  0  0  0  0  0  0  0  0  0
   41.3988   33.8856   39.7831 H   0  0  0  0  0  0  0  0  0  0  0  0
   42.6983   34.9104   37.5560 H   0  0  0  0  0  0  0  0  0  0  0  0
   40.8295   35.6116   36.4450 H   0  0  0  0  0  0  0  0  0  0  0  0
   40.4108   36.4683   37.9518 H   0  0  0  0  0  0  0  0  0  0  0  0
   38.7478   34.9761   38.4487 H   0  0  0  0  0  0  0  0  0  0  0  0
   38.8863   34.4366   36.7587 H   0  0  0  0  0  0  0  0  0  0  0  0
   39.4268   32.9253   39.0757 H   0  0  0  0  0  0  0  0  0  0  0  0
   39.8498   32.4823   37.3952 H   0  0  0  0  0  0  0  0  0  0  0  0
   42.0238   32.7285   37.8905 H   0  0  0  0  0  0  0  0  0  0  0  0
   41.6023   33.1912   39.5634 H   0  0  0  0  0  0  0  0  0  0  0  0
   44.4115   36.7855   43.4899 H   0  0  0  0  0  0  0  0  0  0  0  0
   43.6584   35.2024   43.8977 H   0  0  0  0  0  0  0  0  0  0  0  0
   49.0944   33.3752   43.2105 H   0  0  0  0  0  0  0  0  0  0  0  0
   47.2308   32.5685   44.7528 H   0  0  0  0  0  0  0  0  0  0  0  0
  1 11  1  0
  2  1  1  0
  3  2  1  0
  4  3  1  0
  4  2  1  0
  5  4  1  0
  6 10  1  0
  6  5  1  0
  7  8  1  0
  7  6  1  0
  8  9  1  0
  9 10  1  0
 12 13  2  0
 13 14  1  0
 15 14  2  0
 16 11  1  0
 16 15  1  0
 17 12  1  0
 17 16  2  0
 18 21  1  0
 18 20  1  0
 18 12  1  0
 19 18  1  0
  1 22  1  0
  1 23  1  0
  2 24  1  1
  3 25  1  0
  3 26  1  0
  4 27  1  6
  6 28  1  0
  7 29  1  0
  7 30  1  0
  8 31  1  0
  8 32  1  0
  9 33  1  0
  9 34  1  0
 10 35  1  0
 10 36  1  0
 11 37  1  0
 11 38  1  0
 13 39  1  0
 14 40  1  0
M  ISO  8  22   8  23   8  24  13  25  13  26  13  27  13  28  13  29  13
M  ISO  8  30  13  31  13  32  13  33  13  34  13  35  13  36  13  37   8
M  ISO  3  38   8  39  14  40  14
M  END
>  <minimizedAffinity>  (1) 
-5.85255909

>  <minimizedRMSD>  (1) 
0.658172488

$$$$
