
     RDKit          3D

 29 30  0  0  1  0  0  0  0  0999 V2000
   44.1470   35.6990   42.8880 C   0  0  0  0  0  0  0  0  0  0  0  0
   47.7310   34.9660   42.3160 C   0  0  0  0  0  0  0  0  0  0  0  0
   47.9940   33.9580   43.2490 C   0  0  0  0  0  0  0  0  0  0  0  0
   46.9260   33.5270   44.0830 C   0  0  0  0  0  0  0  0  0  0  0  0
   45.7460   34.1290   43.9030 N   0  0  0  0  0  0  0  0  0  0  0  0
   45.5130   35.1010   42.9950 C   0  0  0  0  0  0  0  0  0  0  0  0
   46.5070   35.5190   42.2010 N   0  0  0  0  0  0  0  0  0  0  0  0
   48.8680   35.3970   41.4550 C   0  0  0  0  0  0  0  0  0  0  0  0
   48.5150   35.3440   40.1420 F   0  0  0  0  0  0  0  0  0  0  0  0
   49.2530   36.6830   41.7760 F   0  0  0  0  0  0  0  0  0  0  0  0
   49.9160   34.4890   41.6260 F   0  0  0  0  0  0  0  0  0  0  0  0
   43.6330   35.5550   41.4900 C   0  0  0  0  0  0  0  0  0  0  0  0
   42.2480   34.9930   41.3960 C   0  0  1  0  0  0  0  0  0  0  0  0
   41.0800   35.8500   41.1610 C   0  0  0  0  0  0  0  0  0  0  0  0
   41.5420   34.9430   40.0830 C   0  0  1  0  0  0  0  0  0  0  0  0
   42.1640   35.4330   38.9580 O   0  0  0  0  0  0  0  0  0  0  0  0
   41.5200   35.9000   37.8410 C   0  0  0  0  0  0  0  0  0  0  0  0
   40.4690   35.3250   37.4530 O   0  0  0  0  0  0  0  0  0  0  0  0
   43.4675   35.1813   43.5810 H   0  0  0  0  0  0  0  0  0  0  0  0
   44.1995   36.7673   43.1450 H   0  0  0  0  0  0  0  0  0  0  0  0
   48.9960   33.5124   43.3350 H   0  0  0  0  0  0  0  0  0  0  0  0
   47.0637   32.7386   44.8376 H   0  0  0  0  0  0  0  0  0  0  0  0
   43.6339   36.5490   41.0188 H   0  0  0  0  0  0  0  0  0  0  0  0
   44.2975   34.8400   40.9828 H   0  0  0  0  0  0  0  0  0  0  0  0
   42.5206   34.2603   42.1698 H   0  0  0  0  0  0  0  0  0  0  0  0
   40.1345   35.6430   41.6836 H   0  0  0  0  0  0  0  0  0  0  0  0
   40.8865   36.9305   41.2328 H   0  0  0  0  0  0  0  0  0  0  0  0
   41.0649   34.1647   39.4693 H   0  0  0  0  0  0  0  0  0  0  0  0
   41.9165   36.7661   37.2908 H   0  0  0  0  0  0  0  0  0  0  0  0
  1  6  1  0
  2  3  2  0
  3  4  1  0
  5  4  2  0
  6  5  1  0
  7  2  1  0
  7  6  2  0
  8 11  1  0
  8 10  1  0
  8  2  1  0
  9  8  1  0
 12  1  1  0
 13 12  1  0
 14 13  1  0
 15 14  1  0
 15 13  1  0
 16 15  1  0
 17 16  1  0
 18 17  2  0
  1 19  1  0
  1 20  1  0
  3 21  1  0
  4 22  1  0
 12 23  1  0
 12 24  1  0
 13 25  1  1
 14 26  1  0
 14 27  1  0
 15 28  1  6
 17 29  1  0
M  ISO  8  19   8  20   8  21  14  22  14  23   8  24   8  25  13  26  13
M  ISO  3  27  13  28  13  29   6
M  END
>  <minimizedAffinity>  (1) 
-5.20384645

>  <minimizedRMSD>  (1) 
0.436973482

$$$$
