
     RDKit          3D

 22 23  0  0  0  0  0  0  0  0999 V2000
   46.1610   34.5950   41.3820 C   0  0  0  0  0  0  0  0  0  0  0  0
   44.5960   36.0080   44.5560 C   0  0  0  0  0  0  0  0  0  0  0  0
   44.9940   35.9270   43.2060 C   0  0  0  0  0  0  0  0  0  0  0  0
   45.6850   34.8000   42.7870 C   0  0  0  0  0  0  0  0  0  0  0  0
   45.9460   33.8150   43.7190 N   0  0  0  0  0  0  0  0  0  0  0  0
   45.5550   33.9190   45.0010 C   0  0  0  0  0  0  0  0  0  0  0  0
   44.8820   35.0090   45.4210 N   0  0  0  0  0  0  0  0  0  0  0  0
   47.6990   34.7250   41.3460 C   0  0  0  0  0  0  0  0  0  0  0  0
   48.1680   33.9620   40.1340 C   0  0  0  0  0  0  0  0  0  0  0  0
   48.7460   32.6670   40.2200 C   0  0  0  0  0  0  0  0  0  0  0  0
   49.1060   32.2550   38.5080 S   0  0  0  0  0  0  0  0  0  0  0  0
   48.4060   33.9320   37.9180 C   0  0  0  0  0  0  0  0  0  0  0  0
   48.0860   34.4220   38.8970 N   0  0  0  0  0  0  0  0  0  0  0  0
   45.8678   33.5928   41.0362 H   0  0  0  0  0  0  0  0  0  0  0  0
   45.7095   35.3516   40.7235 H   0  0  0  0  0  0  0  0  0  0  0  0
   44.0470   36.8933   44.9093 H   0  0  0  0  0  0  0  0  0  0  0  0
   44.7618   36.7390   42.5012 H   0  0  0  0  0  0  0  0  0  0  0  0
   45.7853   33.1108   45.7107 H   0  0  0  0  0  0  0  0  0  0  0  0
   47.9885   35.7830   41.2637 H   0  0  0  0  0  0  0  0  0  0  0  0
   48.1522   34.3260   42.2655 H   0  0  0  0  0  0  0  0  0  0  0  0
   48.9294   32.0611   41.1196 H   0  0  0  0  0  0  0  0  0  0  0  0
   48.3307   34.3254   36.8935 H   0  0  0  0  0  0  0  0  0  0  0  0
  1  4  1  0
  2  7  2  0
  3  2  1  0
  4  3  2  0
  4  5  1  0
  5  6  2  0
  6  7  1  0
  8  1  1  0
  9 10  2  0
  9  8  1  0
 11 10  1  0
 12 11  1  0
 12 13  2  0
 13  9  1  0
  1 14  1  0
  1 15  1  0
  2 16  1  0
  3 17  1  0
  6 18  1  0
  8 19  1  0
  8 20  1  0
 10 21  1  0
 12 22  1  0
M  ISO  8  14   8  15   8  16  14  17  14  18  14  19   8  20   8  21  14
M  ISO  1  22  14
M  END
>  <minimizedAffinity>  (1) 
-3.90088153

>  <minimizedRMSD>  (1) 
1.34548354

$$$$
