
     RDKit          3D

 22 23  0  0  0  0  0  0  0  0999 V2000
   45.5520   34.4440   41.1950 C   0  0  0  0  0  0  0  0  0  0  0  0
   44.6100   35.9860   44.5350 C   0  0  0  0  0  0  0  0  0  0  0  0
   44.7970   35.8660   43.1400 C   0  0  0  0  0  0  0  0  0  0  0  0
   45.3170   34.6780   42.6510 C   0  0  0  0  0  0  0  0  0  0  0  0
   45.6310   33.6690   43.5200 N   0  0  0  0  0  0  0  0  0  0  0  0
   45.4380   33.8200   44.8600 C   0  0  0  0  0  0  0  0  0  0  0  0
   44.9330   34.9650   45.3630 N   0  0  0  0  0  0  0  0  0  0  0  0
   47.0080   34.0710   40.9390 C   0  0  0  0  0  0  0  0  0  0  0  0
   47.2950   33.9470   39.5360 N   0  0  0  0  0  0  0  0  0  0  0  0
   46.7550   33.2360   38.5370 C   0  0  0  0  0  0  0  0  0  0  0  0
   47.4040   33.4750   37.3710 N   0  0  0  0  0  0  0  0  0  0  0  0
   48.3570   34.3590   37.6930 C   0  0  0  0  0  0  0  0  0  0  0  0
   48.2860   34.6410   39.0140 N   0  0  0  0  0  0  0  0  0  0  0  0
   44.9033   33.6249   40.8513 H   0  0  0  0  0  0  0  0  0  0  0  0
   45.3212   35.3686   40.6457 H   0  0  0  0  0  0  0  0  0  0  0  0
   44.1984   36.9170   44.9520 H   0  0  0  0  0  0  0  0  0  0  0  0
   44.5374   36.6918   42.4613 H   0  0  0  0  0  0  0  0  0  0  0  0
   45.6977   32.9965   45.5414 H   0  0  0  0  0  0  0  0  0  0  0  0
   47.6546   34.8518   41.3658 H   0  0  0  0  0  0  0  0  0  0  0  0
   47.1961   33.0954   41.4111 H   0  0  0  0  0  0  0  0  0  0  0  0
   45.9011   32.5514   38.6478 H   0  0  0  0  0  0  0  0  0  0  0  0
   49.0859   34.7898   36.9908 H   0  0  0  0  0  0  0  0  0  0  0  0
  1  4  1  0
  2  7  2  0
  3  2  1  0
  4  3  2  0
  4  5  1  0
  5  6  2  0
  6  7  1  0
  8  1  1  0
  9  8  1  0
 10  9  1  0
 11 12  1  0
 11 10  2  0
 12 13  2  0
 13  9  1  0
  1 14  1  0
  1 15  1  0
  2 16  1  0
  3 17  1  0
  6 18  1  0
  8 19  1  0
  8 20  1  0
 10 21  1  0
 12 22  1  0
M  ISO  8  14   8  15   8  16  14  17  14  18  14  19   8  20   8  21  14
M  ISO  1  22  14
M  END
>  <minimizedAffinity>  (1) 
-3.75541568

>  <minimizedRMSD>  (1) 
1.84223664

$$$$
