
     RDKit          3D

 47 50  0  0  1  0  0  0  0  0999 V2000
   43.6080   35.3710   41.1880 C   0  0  0  0  0  0  0  0  0  0  0  0
   43.6420   33.9170   40.8290 C   0  0  1  0  0  0  0  0  0  0  0  0
   42.6850   32.9620   41.4230 C   0  0  0  0  0  0  0  0  0  0  0  0
   42.5890   33.3690   39.9580 C   0  0  1  0  0  0  0  0  0  0  0  0
   41.5200   34.0380   39.5870 O   0  0  0  0  0  0  0  0  0  0  0  0
   38.6710   32.8650   38.9360 N   0  0  0  0  0  0  0  0  0  0  0  0
   39.6530   31.9090   38.5600 C   0  0  0  0  0  0  0  0  0  0  0  0
   40.8980   32.4290   38.0070 C   0  0  0  0  0  0  0  0  0  0  0  0
   41.1190   34.0020   38.2700 C   0  0  1  0  0  0  0  0  0  0  0  0
   39.9480   34.6470   37.7690 C   0  0  0  0  0  0  0  0  0  0  0  0
   38.6580   34.0480   38.1600 C   0  0  0  0  0  0  0  0  0  0  0  0
   44.0460   35.6610   42.5900 C   0  0  0  0  0  0  0  0  0  0  0  0
   47.6720   34.9850   42.3060 C   0  0  0  0  0  0  0  0  0  0  0  0
   47.8890   34.0440   43.3370 C   0  0  0  0  0  0  0  0  0  0  0  0
   46.7790   33.6630   44.1080 C   0  0  0  0  0  0  0  0  0  0  0  0
   45.6020   34.2180   43.8120 N   0  0  0  0  0  0  0  0  0  0  0  0
   45.4210   35.1280   42.8090 C   0  0  0  0  0  0  0  0  0  0  0  0
   46.4580   35.5070   42.0600 N   0  0  0  0  0  0  0  0  0  0  0  0
   46.9240   32.7240   45.1580 N   0  0  0  0  0  0  0  0  0  0  0  0
   46.7870   33.1010   46.4360 N   0  0  0  0  0  0  0  0  0  0  0  0
   46.9640   32.0530   47.2490 C   0  0  0  0  0  0  0  0  0  0  0  0
   47.2290   30.9380   46.4680 C   0  0  0  0  0  0  0  0  0  0  0  0
   47.1970   31.3910   45.1640 C   0  0  0  0  0  0  0  0  0  0  0  0
   48.8650   35.3810   41.4860 C   0  0  0  0  0  0  0  0  0  0  0  0
   48.5680   35.3240   40.1580 F   0  0  0  0  0  0  0  0  0  0  0  0
   49.2750   36.6450   41.8320 F   0  0  0  0  0  0  0  0  0  0  0  0
   49.8710   34.4290   41.6970 F   0  0  0  0  0  0  0  0  0  0  0  0
   42.5768   35.7338   41.0654 H   0  0  0  0  0  0  0  0  0  0  0  0
   44.3178   35.8810   40.5202 H   0  0  0  0  0  0  0  0  0  0  0  0
   44.7406   33.9553   40.7891 H   0  0  0  0  0  0  0  0  0  0  0  0
   43.0122   31.9477   41.6953 H   0  0  0  0  0  0  0  0  0  0  0  0
   42.0028   32.9684   42.2859 H   0  0  0  0  0  0  0  0  0  0  0  0
   42.6163   32.8907   38.9678 H   0  0  0  0  0  0  0  0  0  0  0  0
   38.0169   32.7082   39.7160 H   0  0  0  0  0  0  0  0  0  0  0  0
   39.9059   31.3218   39.4551 H   0  0  0  0  0  0  0  0  0  0  0  0
   39.1947   31.3307   37.7442 H   0  0  0  0  0  0  0  0  0  0  0  0
   40.8938   32.2563   36.9207 H   0  0  0  0  0  0  0  0  0  0  0  0
   41.7190   31.9010   38.5141 H   0  0  0  0  0  0  0  0  0  0  0  0
   41.8966   34.5844   37.7541 H   0  0  0  0  0  0  0  0  0  0  0  0
   40.0045   35.5393   37.1283 H   0  0  0  0  0  0  0  0  0  0  0  0
   37.7076   34.5105   37.8552 H   0  0  0  0  0  0  0  0  0  0  0  0
   44.0451   36.7485   42.7555 H   0  0  0  0  0  0  0  0  0  0  0  0
   43.3526   35.1787   43.2947 H   0  0  0  0  0  0  0  0  0  0  0  0
   48.8884   33.6261   43.5283 H   0  0  0  0  0  0  0  0  0  0  0  0
   46.9088   32.0725   48.3474 H   0  0  0  0  0  0  0  0  0  0  0  0
   47.4232   29.9119   46.8136 H   0  0  0  0  0  0  0  0  0  0  0  0
   47.3657   30.7717   44.2707 H   0  0  0  0  0  0  0  0  0  0  0  0
  1 12  1  0
  2  1  1  0
  2  3  1  0
  4  2  1  0
  4  3  1  0
  5  4  1  0
  7  6  1  0
  8  9  1  0
  8  7  1  0
  9  5  1  0
 10 11  2  0
 10  9  1  0
 11  6  1  0
 12 17  1  0
 13 14  2  0
 14 15  1  0
 15 19  1  0
 16 15  2  0
 17 16  1  0
 18 13  1  0
 18 17  2  0
 19 23  1  0
 19 20  1  0
 20 21  2  0
 22 21  1  0
 23 22  2  0
 24 27  1  0
 24 26  1  0
 24 13  1  0
 25 24  1  0
  1 28  1  0
  1 29  1  0
  2 30  1  6
  3 31  1  0
  3 32  1  0
  4 33  1  6
  6 34  1  0
  7 35  1  0
  7 36  1  0
  8 37  1  0
  8 38  1  0
  9 39  1  6
 10 40  1  0
 11 41  1  0
 12 42  1  0
 12 43  1  0
 14 44  1  0
 21 45  1  0
 22 46  1  0
 23 47  1  0
M  ISO  8  28   8  29   8  30  13  31  13  32  13  33  13  35  13  36  13
M  ISO  8  37  13  38  13  39  13  40  13  41  13  42   8  43   8  44  14
M  ISO  3  45  14  46  14  47  14
M  END
>  <minimizedAffinity>  (1) 
-6.58976555

>  <minimizedRMSD>  (1) 
0.287174165

$$$$
