
     RDKit          3D

 52 55  0  0  1  0  0  0  0  0999 V2000
   43.5950   35.4710   41.4260 C   0  0  0  0  0  0  0  0  0  0  0  0
   43.6970   34.0430   40.9880 C   0  0  1  0  0  0  0  0  0  0  0  0
   42.7390   33.0250   41.4660 C   0  0  0  0  0  0  0  0  0  0  0  0
   42.7170   33.5160   40.0240 C   0  0  1  0  0  0  0  0  0  0  0  0
   41.6530   34.1760   39.6240 O   0  0  0  0  0  0  0  0  0  0  0  0
   38.8330   33.0050   38.8540 N   0  0  0  0  0  0  0  0  0  0  0  0
   39.8320   32.0530   38.5140 C   0  0  0  0  0  0  0  0  0  0  0  0
   41.0930   32.5800   38.0040 C   0  0  0  0  0  0  0  0  0  0  0  0
   41.3010   34.1530   38.2930 C   0  0  1  0  0  0  0  0  0  0  0  0
   40.1480   34.7990   37.7520 C   0  0  0  0  0  0  0  0  0  0  0  0
   38.8470   34.1940   38.0850 C   0  0  0  0  0  0  0  0  0  0  0  0
   44.1060   35.7230   42.8100 C   0  0  0  0  0  0  0  0  0  0  0  0
   47.6950   34.9460   42.3630 C   0  0  0  0  0  0  0  0  0  0  0  0
   47.9230   33.9580   43.3480 C   0  0  0  0  0  0  0  0  0  0  0  0
   46.8330   33.5850   44.1450 C   0  0  0  0  0  0  0  0  0  0  0  0
   45.6610   34.1840   43.9190 N   0  0  0  0  0  0  0  0  0  0  0  0
   45.4700   35.1340   42.9610 C   0  0  0  0  0  0  0  0  0  0  0  0
   46.4900   35.5150   42.1830 N   0  0  0  0  0  0  0  0  0  0  0  0
   46.9980   32.6000   45.1490 N   0  0  0  0  0  0  0  0  0  0  0  0
   46.7560   32.8440   46.5750 C   0  0  0  0  0  0  0  0  0  0  0  0
   47.0540   31.5390   47.2620 C   0  0  0  0  0  0  0  0  0  0  0  0
   46.9000   30.5180   46.1540 C   0  0  0  0  0  0  0  0  0  0  0  0
   47.4230   31.2290   44.9320 C   0  0  0  0  0  0  0  0  0  0  0  0
   48.8680   35.3350   41.5140 C   0  0  0  0  0  0  0  0  0  0  0  0
   48.5450   35.2470   40.1900 F   0  0  0  0  0  0  0  0  0  0  0  0
   49.2750   36.6080   41.8240 F   0  0  0  0  0  0  0  0  0  0  0  0
   49.8860   34.3950   41.7200 F   0  0  0  0  0  0  0  0  0  0  0  0
   42.5368   35.7692   41.3887 H   0  0  0  0  0  0  0  0  0  0  0  0
   44.2259   36.0585   40.7428 H   0  0  0  0  0  0  0  0  0  0  0  0
   44.7941   34.1170   41.0187 H   0  0  0  0  0  0  0  0  0  0  0  0
   43.0837   32.0067   41.6987 H   0  0  0  0  0  0  0  0  0  0  0  0
   42.0067   32.9588   42.2842 H   0  0  0  0  0  0  0  0  0  0  0  0
   42.8179   33.0965   39.0122 H   0  0  0  0  0  0  0  0  0  0  0  0
   38.1480   32.8418   39.6057 H   0  0  0  0  0  0  0  0  0  0  0  0
   40.0566   31.4682   39.4182 H   0  0  0  0  0  0  0  0  0  0  0  0
   39.4055   31.4705   37.6841 H   0  0  0  0  0  0  0  0  0  0  0  0
   41.1220   32.4197   36.9161 H   0  0  0  0  0  0  0  0  0  0  0  0
   41.9001   32.0469   38.5278 H   0  0  0  0  0  0  0  0  0  0  0  0
   42.0962   34.7444   37.8157 H   0  0  0  0  0  0  0  0  0  0  0  0
   40.2270   35.6975   37.1223 H   0  0  0  0  0  0  0  0  0  0  0  0
   37.9082   34.6550   37.7443 H   0  0  0  0  0  0  0  0  0  0  0  0
   44.1545   36.8072   42.9895 H   0  0  0  0  0  0  0  0  0  0  0  0
   43.4264   35.2566   43.5385 H   0  0  0  0  0  0  0  0  0  0  0  0
   48.9146   33.5013   43.4830 H   0  0  0  0  0  0  0  0  0  0  0  0
   47.4222   33.6358   46.9481 H   0  0  0  0  0  0  0  0  0  0  0  0
   45.7249   33.1781   46.7628 H   0  0  0  0  0  0  0  0  0  0  0  0
   48.0772   31.5310   47.6656 H   0  0  0  0  0  0  0  0  0  0  0  0
   46.3947   31.3446   48.1208 H   0  0  0  0  0  0  0  0  0  0  0  0
   47.4937   29.6168   46.3667 H   0  0  0  0  0  0  0  0  0  0  0  0
   45.8618   30.1750   46.0339 H   0  0  0  0  0  0  0  0  0  0  0  0
   46.9786   30.8173   44.0139 H   0  0  0  0  0  0  0  0  0  0  0  0
   48.5104   31.1264   44.8013 H   0  0  0  0  0  0  0  0  0  0  0  0
  1 12  1  0
  2  1  1  0
  2  3  1  0
  4  2  1  0
  4  3  1  0
  5  4  1  0
  7  6  1  0
  8  9  1  0
  8  7  1  0
  9  5  1  0
 10 11  2  0
 10  9  1  0
 11  6  1  0
 12 17  1  0
 13 14  2  0
 14 15  1  0
 15 19  1  0
 16 15  2  0
 17 16  1  0
 18 13  1  0
 18 17  2  0
 19 20  1  0
 20 21  1  0
 22 21  1  0
 23 19  1  0
 23 22  1  0
 24 27  1  0
 24 26  1  0
 24 13  1  0
 25 24  1  0
  1 28  1  0
  1 29  1  0
  2 30  1  6
  3 31  1  0
  3 32  1  0
  4 33  1  6
  6 34  1  0
  7 35  1  0
  7 36  1  0
  8 37  1  0
  8 38  1  0
  9 39  1  6
 10 40  1  0
 11 41  1  0
 12 42  1  0
 12 43  1  0
 14 44  1  0
 20 45  1  0
 20 46  1  0
 21 47  1  0
 21 48  1  0
 22 49  1  0
 22 50  1  0
 23 51  1  0
 23 52  1  0
M  ISO  8  28   8  29   8  30  13  31  13  32  13  33  13  35  13  36  13
M  ISO  8  37  13  38  13  39  13  40  13  41  13  42   8  43   8  44  14
M  ISO  8  45  13  46  13  47  13  48  13  49  13  50  13  51  13  52  13
M  END
>  <minimizedAffinity>  (1) 
-6.58079147

>  <minimizedRMSD>  (1) 
0.185128853

$$$$
