
     RDKit          3D

 46 49  0  0  1  0  0  0  0  0999 V2000
   43.5730   35.3010   41.2510 C   0  0  0  0  0  0  0  0  0  0  0  0
   43.5930   33.8310   40.9600 C   0  0  1  0  0  0  0  0  0  0  0  0
   42.6070   32.9170   41.5700 C   0  0  0  0  0  0  0  0  0  0  0  0
   42.5540   33.2620   40.0860 C   0  0  1  0  0  0  0  0  0  0  0  0
   41.5030   33.9300   39.6620 O   0  0  0  0  0  0  0  0  0  0  0  0
   38.6590   33.0050   38.6800 N   0  0  0  0  0  0  0  0  0  0  0  0
   39.6040   31.9990   38.3450 C   0  0  0  0  0  0  0  0  0  0  0  0
   40.9270   32.4550   37.9400 C   0  0  0  0  0  0  0  0  0  0  0  0
   41.2320   33.9910   38.3130 C   0  0  1  0  0  0  0  0  0  0  0  0
   40.1600   34.7470   37.7480 C   0  0  0  0  0  0  0  0  0  0  0  0
   38.7990   34.2270   37.9790 C   0  0  0  0  0  0  0  0  0  0  0  0
   44.0620   35.6580   42.6190 C   0  0  0  0  0  0  0  0  0  0  0  0
   47.6820   34.9720   42.3050 C   0  0  0  0  0  0  0  0  0  0  0  0
   47.9010   34.0220   43.3220 C   0  0  0  0  0  0  0  0  0  0  0  0
   46.8030   33.6370   44.0980 C   0  0  0  0  0  0  0  0  0  0  0  0
   45.6180   34.2010   43.8150 N   0  0  0  0  0  0  0  0  0  0  0  0
   45.4360   35.1170   42.8240 C   0  0  0  0  0  0  0  0  0  0  0  0
   46.4690   35.4980   42.0750 N   0  0  0  0  0  0  0  0  0  0  0  0
   46.9400   32.6830   45.1450 N   0  0  0  0  0  0  0  0  0  0  0  0
   46.5640   33.0010   46.4180 C   0  0  0  0  0  0  0  0  0  0  0  0
   46.7810   31.9520   47.2490 N   0  0  0  0  0  0  0  0  0  0  0  0
   47.2980   30.9750   46.4620 C   0  0  0  0  0  0  0  0  0  0  0  0
   47.3880   31.4370   45.1910 N   0  0  0  0  0  0  0  0  0  0  0  0
   48.8730   35.3690   41.4810 C   0  0  0  0  0  0  0  0  0  0  0  0
   48.5690   35.3140   40.1530 F   0  0  0  0  0  0  0  0  0  0  0  0
   49.2830   36.6320   41.8280 F   0  0  0  0  0  0  0  0  0  0  0  0
   49.8790   34.4160   41.6840 F   0  0  0  0  0  0  0  0  0  0  0  0
   42.5381   35.6595   41.1493 H   0  0  0  0  0  0  0  0  0  0  0  0
   44.2588   35.7763   40.5342 H   0  0  0  0  0  0  0  0  0  0  0  0
   44.6928   33.8506   40.9492 H   0  0  0  0  0  0  0  0  0  0  0  0
   42.9113   31.9107   41.8938 H   0  0  0  0  0  0  0  0  0  0  0  0
   41.9038   32.9706   42.4142 H   0  0  0  0  0  0  0  0  0  0  0  0
   42.5994   32.7423   39.1176 H   0  0  0  0  0  0  0  0  0  0  0  0
   37.9225   32.8558   39.3845 H   0  0  0  0  0  0  0  0  0  0  0  0
   39.7292   31.3523   39.2259 H   0  0  0  0  0  0  0  0  0  0  0  0
   39.1883   31.4939   37.4607 H   0  0  0  0  0  0  0  0  0  0  0  0
   41.0138   32.3399   36.8495 H   0  0  0  0  0  0  0  0  0  0  0  0
   41.6571   31.8427   38.4897 H   0  0  0  0  0  0  0  0  0  0  0  0
   42.0955   34.5360   37.9039 H   0  0  0  0  0  0  0  0  0  0  0  0
   40.3395   35.6668   37.1720 H   0  0  0  0  0  0  0  0  0  0  0  0
   37.9164   34.7742   37.6162 H   0  0  0  0  0  0  0  0  0  0  0  0
   44.0814   36.7527   42.7252 H   0  0  0  0  0  0  0  0  0  0  0  0
   43.3859   35.2235   43.3701 H   0  0  0  0  0  0  0  0  0  0  0  0
   48.9004   33.5980   43.4995 H   0  0  0  0  0  0  0  0  0  0  0  0
   46.1447   33.9702   46.7258 H   0  0  0  0  0  0  0  0  0  0  0  0
   47.5956   29.9715   46.8004 H   0  0  0  0  0  0  0  0  0  0  0  0
  1 12  1  0
  2  1  1  0
  2  3  1  0
  4  2  1  0
  4  3  1  0
  5  4  1  0
  7  6  1  0
  8  9  1  0
  8  7  1  0
  9  5  1  0
 10 11  2  0
 10  9  1  0
 11  6  1  0
 12 17  1  0
 13 14  2  0
 14 15  1  0
 15 19  1  0
 16 15  2  0
 17 16  1  0
 18 13  1  0
 18 17  2  0
 19 23  1  0
 19 20  1  0
 20 21  2  0
 22 21  1  0
 23 22  2  0
 24 27  1  0
 24 26  1  0
 24 13  1  0
 25 24  1  0
  1 28  1  0
  1 29  1  0
  2 30  1  6
  3 31  1  0
  3 32  1  0
  4 33  1  6
  6 34  1  0
  7 35  1  0
  7 36  1  0
  8 37  1  0
  8 38  1  0
  9 39  1  6
 10 40  1  0
 11 41  1  0
 12 42  1  0
 12 43  1  0
 14 44  1  0
 20 45  1  0
 22 46  1  0
M  ISO  8  28   8  29   8  30  13  31  13  32  13  33  13  35  13  36  13
M  ISO  8  37  13  38  13  39  13  40  13  41  13  42   8  43   8  44  14
M  ISO  2  45  14  46  14
M  END
>  <minimizedAffinity>  (1) 
-6.51822233

>  <minimizedRMSD>  (1) 
0.270751864

$$$$
