
     RDKit          3D

 50 53  0  0  1  0  0  0  0  0999 V2000
   43.5890   35.4810   41.4040 C   0  0  0  0  0  0  0  0  0  0  0  0
   43.6970   34.0510   40.9760 C   0  0  1  0  0  0  0  0  0  0  0  0
   42.7380   33.0350   41.4670 C   0  0  0  0  0  0  0  0  0  0  0  0
   42.7170   33.5100   40.0200 C   0  0  1  0  0  0  0  0  0  0  0  0
   41.6460   34.1600   39.6180 O   0  0  0  0  0  0  0  0  0  0  0  0
   38.8210   32.9980   38.8520 N   0  0  0  0  0  0  0  0  0  0  0  0
   39.8150   32.0420   38.5160 C   0  0  0  0  0  0  0  0  0  0  0  0
   41.0770   32.5630   38.0020 C   0  0  0  0  0  0  0  0  0  0  0  0
   41.2940   34.1340   38.2880 C   0  0  1  0  0  0  0  0  0  0  0  0
   40.1420   34.7850   37.7510 C   0  0  0  0  0  0  0  0  0  0  0  0
   38.8400   34.1880   38.0860 C   0  0  0  0  0  0  0  0  0  0  0  0
   44.1100   35.7430   42.7830 C   0  0  0  0  0  0  0  0  0  0  0  0
   47.7010   34.9920   42.3290 C   0  0  0  0  0  0  0  0  0  0  0  0
   47.9340   33.9990   43.3050 C   0  0  0  0  0  0  0  0  0  0  0  0
   46.8490   33.6170   44.0920 C   0  0  0  0  0  0  0  0  0  0  0  0
   45.6750   34.2120   43.8700 N   0  0  0  0  0  0  0  0  0  0  0  0
   45.4750   35.1610   42.9290 C   0  0  0  0  0  0  0  0  0  0  0  0
   46.4930   35.5540   42.1550 N   0  0  0  0  0  0  0  0  0  0  0  0
   46.9790   32.6180   45.1120 C   0  0  0  0  0  0  0  0  0  0  0  0
   47.3710   31.3100   44.9160 C   0  0  0  0  0  0  0  0  0  0  0  0
   47.4910   30.3600   45.9060 C   0  0  0  0  0  0  0  0  0  0  0  0
   47.2020   30.7190   47.2050 C   0  0  0  0  0  0  0  0  0  0  0  0
   46.8030   32.0130   47.4770 C   0  0  0  0  0  0  0  0  0  0  0  0
   46.7020   32.9240   46.4290 C   0  0  0  0  0  0  0  0  0  0  0  0
   48.8740   35.3960   41.4810 C   0  0  0  0  0  0  0  0  0  0  0  0
   48.5490   35.3300   40.1590 F   0  0  0  0  0  0  0  0  0  0  0  0
   49.2780   36.6660   41.8110 F   0  0  0  0  0  0  0  0  0  0  0  0
   49.8930   34.4560   41.6740 F   0  0  0  0  0  0  0  0  0  0  0  0
   42.5288   35.7725   41.3732 H   0  0  0  0  0  0  0  0  0  0  0  0
   44.2092   36.0690   40.7115 H   0  0  0  0  0  0  0  0  0  0  0  0
   44.7940   34.1286   41.0012 H   0  0  0  0  0  0  0  0  0  0  0  0
   43.0838   32.0198   41.7115 H   0  0  0  0  0  0  0  0  0  0  0  0
   42.0054   32.9770   42.2855 H   0  0  0  0  0  0  0  0  0  0  0  0
   42.8217   33.0819   39.0122 H   0  0  0  0  0  0  0  0  0  0  0  0
   38.1333   32.8368   39.6016 H   0  0  0  0  0  0  0  0  0  0  0  0
   40.0388   31.4609   39.4228 H   0  0  0  0  0  0  0  0  0  0  0  0
   39.3857   31.4564   37.6897 H   0  0  0  0  0  0  0  0  0  0  0  0
   41.1021   32.4014   36.9142 H   0  0  0  0  0  0  0  0  0  0  0  0
   41.8828   32.0269   38.5248 H   0  0  0  0  0  0  0  0  0  0  0  0
   42.0931   34.7169   37.8066 H   0  0  0  0  0  0  0  0  0  0  0  0
   40.2237   35.6834   37.1215 H   0  0  0  0  0  0  0  0  0  0  0  0
   37.9030   34.6555   37.7491 H   0  0  0  0  0  0  0  0  0  0  0  0
   44.1560   36.8284   42.9554 H   0  0  0  0  0  0  0  0  0  0  0  0
   43.4374   35.2778   43.5186 H   0  0  0  0  0  0  0  0  0  0  0  0
   48.9278   33.5468   43.4384 H   0  0  0  0  0  0  0  0  0  0  0  0
   47.6065   31.0011   43.8869 H   0  0  0  0  0  0  0  0  0  0  0  0
   47.8110   29.3356   45.6649 H   0  0  0  0  0  0  0  0  0  0  0  0
   47.2883   29.9821   48.0171 H   0  0  0  0  0  0  0  0  0  0  0  0
   46.5683   32.3195   48.5071 H   0  0  0  0  0  0  0  0  0  0  0  0
   46.3821   33.9497   46.6649 H   0  0  0  0  0  0  0  0  0  0  0  0
  1 12  1  0
  2  1  1  0
  2  3  1  0
  4  2  1  0
  4  3  1  0
  5  4  1  0
  7  6  1  0
  8  9  1  0
  8  7  1  0
  9  5  1  0
 10 11  2  0
 10  9  1  0
 11  6  1  0
 12 17  1  0
 13 14  2  0
 14 15  1  0
 15 19  1  0
 16 15  2  0
 17 16  1  0
 18 13  1  0
 18 17  2  0
 19 24  1  0
 20 19  2  0
 20 21  1  0
 21 22  2  0
 22 23  1  0
 24 23  2  0
 25 28  1  0
 25 27  1  0
 25 13  1  0
 26 25  1  0
  1 29  1  0
  1 30  1  0
  2 31  1  6
  3 32  1  0
  3 33  1  0
  4 34  1  6
  6 35  1  0
  7 36  1  0
  7 37  1  0
  8 38  1  0
  8 39  1  0
  9 40  1  6
 10 41  1  0
 11 42  1  0
 12 43  1  0
 12 44  1  0
 14 45  1  0
 20 46  1  0
 21 47  1  0
 22 48  1  0
 23 49  1  0
 24 50  1  0
M  ISO  8  29   8  30   8  31  13  32  13  33  13  34  13  36  13  37  13
M  ISO  8  38  13  39  13  40  13  41  13  42  13  43   8  44   8  45  14
M  ISO  5  46  14  47  14  48  14  49  14  50  14
M  END
>  <minimizedAffinity>  (1) 
-6.61092997

>  <minimizedRMSD>  (1) 
0.206969917

$$$$
