
     RDKit          3D

 43 45  0  0  1  0  0  0  0  0999 V2000
   43.6330   33.8980   40.8300 C   0  0  1  0  0  0  0  0  0  0  0  0
   42.6820   32.9470   41.4370 C   0  0  0  0  0  0  0  0  0  0  0  0
   42.5840   33.3340   39.9650 C   0  0  1  0  0  0  0  0  0  0  0  0
   43.5970   35.3560   41.1680 C   0  0  0  0  0  0  0  0  0  0  0  0
   44.0230   35.6640   42.5700 C   0  0  0  0  0  0  0  0  0  0  0  0
   47.6450   34.9610   42.3020 C   0  0  0  0  0  0  0  0  0  0  0  0
   47.8670   34.0650   43.3740 C   0  0  0  0  0  0  0  0  0  0  0  0
   46.7580   33.7240   44.1700 C   0  0  0  0  0  0  0  0  0  0  0  0
   45.5810   34.2700   43.8550 N   0  0  0  0  0  0  0  0  0  0  0  0
   45.3970   35.1320   42.8120 C   0  0  0  0  0  0  0  0  0  0  0  0
   46.4300   35.4750   42.0380 N   0  0  0  0  0  0  0  0  0  0  0  0
   48.8340   35.3130   41.4580 C   0  0  0  0  0  0  0  0  0  0  0  0
   48.5140   35.2420   40.1360 F   0  0  0  0  0  0  0  0  0  0  0  0
   49.2830   36.5720   41.7760 F   0  0  0  0  0  0  0  0  0  0  0  0
   49.8180   34.3380   41.6660 F   0  0  0  0  0  0  0  0  0  0  0  0
   46.9240   32.8150   45.2790 C   0  0  0  0  0  0  0  0  0  0  0  0
   47.0630   31.5900   45.0900 O   0  0  0  0  0  0  0  0  0  0  0  0
   46.9240   33.3370   46.5650 O   0  0  0  0  0  0  0  0  0  0  0  0
   41.5080   33.9940   39.5930 O   0  0  0  0  0  0  0  0  0  0  0  0
   38.6510   32.8560   38.9200 N   0  0  0  0  0  0  0  0  0  0  0  0
   39.6250   31.8920   38.5520 C   0  0  0  0  0  0  0  0  0  0  0  0
   40.8760   32.3990   38.0010 C   0  0  0  0  0  0  0  0  0  0  0  0
   41.1170   33.9680   38.2720 C   0  0  1  0  0  0  0  0  0  0  0  0
   39.9570   34.6290   37.7720 C   0  0  0  0  0  0  0  0  0  0  0  0
   38.6520   34.0420   38.1510 C   0  0  0  0  0  0  0  0  0  0  0  0
   44.7315   33.9408   40.7906 H   0  0  0  0  0  0  0  0  0  0  0  0
   43.0146   31.9383   41.7232 H   0  0  0  0  0  0  0  0  0  0  0  0
   41.9999   32.9615   42.2998 H   0  0  0  0  0  0  0  0  0  0  0  0
   42.6156   32.8448   38.9803 H   0  0  0  0  0  0  0  0  0  0  0  0
   44.2675   35.8884   40.4773 H   0  0  0  0  0  0  0  0  0  0  0  0
   42.5501   35.6801   41.0737 H   0  0  0  0  0  0  0  0  0  0  0  0
   44.0220   36.7537   42.7205 H   0  0  0  0  0  0  0  0  0  0  0  0
   43.3223   35.1909   43.2737 H   0  0  0  0  0  0  0  0  0  0  0  0
   48.8660   33.6517   43.5770 H   0  0  0  0  0  0  0  0  0  0  0  0
   47.0360   32.7356   47.3434 H   0  0  0  0  0  0  0  0  0  0  0  0
   37.9890   32.7022   39.6940 H   0  0  0  0  0  0  0  0  0  0  0  0
   39.8701   31.3067   39.4506 H   0  0  0  0  0  0  0  0  0  0  0  0
   39.1647   31.3142   37.7370 H   0  0  0  0  0  0  0  0  0  0  0  0
   40.8690   32.2319   36.9138 H   0  0  0  0  0  0  0  0  0  0  0  0
   41.6905   31.8581   38.5049 H   0  0  0  0  0  0  0  0  0  0  0  0
   41.9063   34.5392   37.7613 H   0  0  0  0  0  0  0  0  0  0  0  0
   40.0278   35.5260   37.1393 H   0  0  0  0  0  0  0  0  0  0  0  0
   37.7085   34.5160   37.8425 H   0  0  0  0  0  0  0  0  0  0  0  0
  1  4  1  0
  1  2  1  0
  3  1  1  0
  3  2  1  0
  4  5  1  0
  5 10  1  0
  6  7  2  0
  7  8  1  0
  8 16  1  0
  9  8  2  0
 10  9  1  0
 11  6  1  0
 11 10  2  0
 12 15  1  0
 12 14  1  0
 12  6  1  0
 13 12  1  0
 16 18  1  0
 17 16  2  0
 19  3  1  0
 21 20  1  0
 22 23  1  0
 22 21  1  0
 23 19  1  0
 24 25  2  0
 24 23  1  0
 25 20  1  0
  1 26  1  6
  2 27  1  0
  2 28  1  0
  3 29  1  6
  4 30  1  0
  4 31  1  0
  5 32  1  0
  5 33  1  0
  7 34  1  0
 18 35  1  0
 20 36  1  0
 21 37  1  0
 21 38  1  0
 22 39  1  0
 22 40  1  0
 23 41  1  6
 24 42  1  0
 25 43  1  0
M  ISO  8  26  13  27  13  28  13  29  13  30   8  31   8  32   8  33   8
M  ISO  8  34  14  35   3  37  13  38  13  39  13  40  13  41  13  42  13
M  ISO  1  43  13
M  END
>  <minimizedAffinity>  (1) 
-6.19042683

>  <minimizedRMSD>  (1) 
0.354696661

$$$$
