
     RDKit          3D

 46 49  0  0  1  0  0  0  0  0999 V2000
   43.5980   35.3740   41.2060 C   0  0  0  0  0  0  0  0  0  0  0  0
   43.6430   33.9200   40.8460 C   0  0  1  0  0  0  0  0  0  0  0  0
   42.6850   32.9580   41.4260 C   0  0  0  0  0  0  0  0  0  0  0  0
   42.6040   33.3680   39.9590 C   0  0  1  0  0  0  0  0  0  0  0  0
   41.5320   34.0330   39.5860 O   0  0  0  0  0  0  0  0  0  0  0  0
   38.6770   32.8730   38.9370 N   0  0  0  0  0  0  0  0  0  0  0  0
   39.6560   31.9140   38.5680 C   0  0  0  0  0  0  0  0  0  0  0  0
   40.9000   32.4300   38.0060 C   0  0  0  0  0  0  0  0  0  0  0  0
   41.1300   34.0040   38.2690 C   0  0  1  0  0  0  0  0  0  0  0  0
   39.9570   34.6510   37.7750 C   0  0  0  0  0  0  0  0  0  0  0  0
   38.6660   34.0600   38.1650 C   0  0  0  0  0  0  0  0  0  0  0  0
   44.0510   35.6660   42.6010 C   0  0  0  0  0  0  0  0  0  0  0  0
   47.6680   34.9920   42.2870 C   0  0  0  0  0  0  0  0  0  0  0  0
   47.8890   34.0570   43.3180 C   0  0  0  0  0  0  0  0  0  0  0  0
   46.7970   33.6780   44.0990 C   0  0  0  0  0  0  0  0  0  0  0  0
   45.6150   34.2380   43.8020 N   0  0  0  0  0  0  0  0  0  0  0  0
   45.4260   35.1320   42.8110 C   0  0  0  0  0  0  0  0  0  0  0  0
   46.4620   35.5070   42.0530 N   0  0  0  0  0  0  0  0  0  0  0  0
   46.9360   32.7190   45.1830 C   0  0  0  0  0  0  0  0  0  0  0  0
   47.2910   31.3360   44.9280 C   0  0  0  0  0  0  0  0  0  0  0  0
   47.3370   30.5780   46.5610 S   0  0  0  0  0  0  0  0  0  0  0  0
   46.8690   32.2340   47.3670 C   0  0  0  0  0  0  0  0  0  0  0  0
   46.7800   32.9170   46.4660 N   0  0  0  0  0  0  0  0  0  0  0  0
   48.8650   35.3700   41.4740 C   0  0  0  0  0  0  0  0  0  0  0  0
   48.5580   35.3380   40.1410 F   0  0  0  0  0  0  0  0  0  0  0  0
   49.2820   36.6460   41.8150 F   0  0  0  0  0  0  0  0  0  0  0  0
   49.8650   34.4270   41.6670 F   0  0  0  0  0  0  0  0  0  0  0  0
   42.5615   35.7260   41.0974 H   0  0  0  0  0  0  0  0  0  0  0  0
   44.2927   35.8927   40.5290 H   0  0  0  0  0  0  0  0  0  0  0  0
   44.7418   33.9645   40.8213 H   0  0  0  0  0  0  0  0  0  0  0  0
   43.0152   31.9452   41.7001 H   0  0  0  0  0  0  0  0  0  0  0  0
   41.9924   32.9583   42.2805 H   0  0  0  0  0  0  0  0  0  0  0  0
   42.6479   32.8943   38.9672 H   0  0  0  0  0  0  0  0  0  0  0  0
   38.0190   32.7162   39.7138 H   0  0  0  0  0  0  0  0  0  0  0  0
   39.9116   31.3354   39.4680 H   0  0  0  0  0  0  0  0  0  0  0  0
   39.1953   31.3270   37.7598 H   0  0  0  0  0  0  0  0  0  0  0  0
   40.8871   32.2583   36.9196 H   0  0  0  0  0  0  0  0  0  0  0  0
   41.7224   31.8982   38.5069 H   0  0  0  0  0  0  0  0  0  0  0  0
   41.9078   34.5848   37.7517 H   0  0  0  0  0  0  0  0  0  0  0  0
   40.0148   35.5446   37.1362 H   0  0  0  0  0  0  0  0  0  0  0  0
   37.7173   34.5286   37.8643 H   0  0  0  0  0  0  0  0  0  0  0  0
   44.0537   36.7540   42.7632 H   0  0  0  0  0  0  0  0  0  0  0  0
   43.3637   35.1852   43.3126 H   0  0  0  0  0  0  0  0  0  0  0  0
   48.8901   33.6396   43.5010 H   0  0  0  0  0  0  0  0  0  0  0  0
   47.4876   30.8582   43.9569 H   0  0  0  0  0  0  0  0  0  0  0  0
   46.7224   32.4692   48.4315 H   0  0  0  0  0  0  0  0  0  0  0  0
  1 12  1  0
  2  1  1  0
  2  3  1  0
  4  2  1  0
  4  3  1  0
  5  4  1  0
  7  6  1  0
  8  9  1  0
  8  7  1  0
  9  5  1  0
 10 11  2  0
 10  9  1  0
 11  6  1  0
 12 17  1  0
 13 14  2  0
 14 15  1  0
 15 19  1  0
 16 15  2  0
 17 16  1  0
 18 13  1  0
 18 17  2  0
 19 23  1  0
 20 19  2  0
 20 21  1  0
 21 22  1  0
 23 22  2  0
 24 27  1  0
 24 26  1  0
 24 13  1  0
 25 24  1  0
  1 28  1  0
  1 29  1  0
  2 30  1  6
  3 31  1  0
  3 32  1  0
  4 33  1  6
  6 34  1  0
  7 35  1  0
  7 36  1  0
  8 37  1  0
  8 38  1  0
  9 39  1  6
 10 40  1  0
 11 41  1  0
 12 42  1  0
 12 43  1  0
 14 44  1  0
 20 45  1  0
 22 46  1  0
M  ISO  8  28   8  29   8  30  13  31  13  32  13  33  13  35  13  36  13
M  ISO  8  37  13  38  13  39  13  40  13  41  13  42   8  43   8  44  14
M  ISO  2  45  14  46  14
M  END
>  <minimizedAffinity>  (1) 
-6.29914618

>  <minimizedRMSD>  (1) 
0.581389427

$$$$
