
     RDKit          3D

 47 50  0  0  1  0  0  0  0  0999 V2000
   43.5870   35.4890   41.3640 C   0  0  0  0  0  0  0  0  0  0  0  0
   43.6970   34.0560   40.9580 C   0  0  1  0  0  0  0  0  0  0  0  0
   42.7580   33.0360   41.4670 C   0  0  0  0  0  0  0  0  0  0  0  0
   42.7170   33.4870   40.0140 C   0  0  1  0  0  0  0  0  0  0  0  0
   41.6360   34.1320   39.6150 O   0  0  0  0  0  0  0  0  0  0  0  0
   38.8010   32.9920   38.8430 N   0  0  0  0  0  0  0  0  0  0  0  0
   39.7880   32.0290   38.5130 C   0  0  0  0  0  0  0  0  0  0  0  0
   41.0550   32.5410   37.9950 C   0  0  0  0  0  0  0  0  0  0  0  0
   41.2860   34.1110   38.2860 C   0  0  1  0  0  0  0  0  0  0  0  0
   40.1370   34.7680   37.7490 C   0  0  0  0  0  0  0  0  0  0  0  0
   38.8300   34.1830   38.0790 C   0  0  0  0  0  0  0  0  0  0  0  0
   44.0910   35.7610   42.7500 C   0  0  0  0  0  0  0  0  0  0  0  0
   47.6830   34.9780   42.3390 C   0  0  0  0  0  0  0  0  0  0  0  0
   47.9020   33.9970   43.3340 C   0  0  0  0  0  0  0  0  0  0  0  0
   46.8010   33.6300   44.1250 C   0  0  0  0  0  0  0  0  0  0  0  0
   45.6350   34.2290   43.8830 N   0  0  0  0  0  0  0  0  0  0  0  0
   45.4530   35.1730   42.9160 C   0  0  0  0  0  0  0  0  0  0  0  0
   46.4790   35.5470   42.1450 N   0  0  0  0  0  0  0  0  0  0  0  0
   46.9730   32.6270   45.1600 C   0  0  0  0  0  0  0  0  0  0  0  0
   46.7070   32.8360   46.4980 C   0  0  0  0  0  0  0  0  0  0  0  0
   47.0230   31.5990   47.0720 C   0  0  0  0  0  0  0  0  0  0  0  0
   47.4490   30.7200   46.1200 N   0  0  0  0  0  0  0  0  0  0  0  0
   47.4110   31.3730   44.9480 N   0  0  0  0  0  0  0  0  0  0  0  0
   48.8650   35.3620   41.4950 C   0  0  0  0  0  0  0  0  0  0  0  0
   48.5460   35.2900   40.1740 F   0  0  0  0  0  0  0  0  0  0  0  0
   49.2810   36.6300   41.8220 F   0  0  0  0  0  0  0  0  0  0  0  0
   49.8710   34.4110   41.7030 F   0  0  0  0  0  0  0  0  0  0  0  0
   42.5285   35.7840   41.3148 H   0  0  0  0  0  0  0  0  0  0  0  0
   44.2158   36.0692   40.6726 H   0  0  0  0  0  0  0  0  0  0  0  0
   44.7929   34.1493   40.9768 H   0  0  0  0  0  0  0  0  0  0  0  0
   43.1205   32.0297   41.7237 H   0  0  0  0  0  0  0  0  0  0  0  0
   42.0321   32.9802   42.2916 H   0  0  0  0  0  0  0  0  0  0  0  0
   42.8154   33.0398   39.0138 H   0  0  0  0  0  0  0  0  0  0  0  0
   38.1087   32.8352   39.5894 H   0  0  0  0  0  0  0  0  0  0  0  0
   40.0085   31.4519   39.4231 H   0  0  0  0  0  0  0  0  0  0  0  0
   39.3552   31.4406   37.6905 H   0  0  0  0  0  0  0  0  0  0  0  0
   41.0749   32.3827   36.9066 H   0  0  0  0  0  0  0  0  0  0  0  0
   41.8583   31.9960   38.5124 H   0  0  0  0  0  0  0  0  0  0  0  0
   42.0910   34.6894   37.8090 H   0  0  0  0  0  0  0  0  0  0  0  0
   40.2260   35.6663   37.1203 H   0  0  0  0  0  0  0  0  0  0  0  0
   37.8977   34.6588   37.7408 H   0  0  0  0  0  0  0  0  0  0  0  0
   44.1396   36.8476   42.9145 H   0  0  0  0  0  0  0  0  0  0  0  0
   43.4069   35.3062   43.4815 H   0  0  0  0  0  0  0  0  0  0  0  0
   48.8921   33.5411   43.4820 H   0  0  0  0  0  0  0  0  0  0  0  0
   46.3384   33.7478   46.9908 H   0  0  0  0  0  0  0  0  0  0  0  0
   46.9392   31.3675   48.1441 H   0  0  0  0  0  0  0  0  0  0  0  0
   47.7428   29.7444   46.2712 H   0  0  0  0  0  0  0  0  0  0  0  0
  1 12  1  0
  2  1  1  0
  2  3  1  0
  4  2  1  0
  4  3  1  0
  5  4  1  0
  7  6  1  0
  8  9  1  0
  8  7  1  0
  9  5  1  0
 10 11  2  0
 10  9  1  0
 11  6  1  0
 12 17  1  0
 13 14  2  0
 14 15  1  0
 15 19  1  0
 16 15  2  0
 17 16  1  0
 18 13  1  0
 18 17  2  0
 19 20  1  0
 20 21  2  0
 22 21  1  0
 23 19  2  0
 23 22  1  0
 24 27  1  0
 24 26  1  0
 24 13  1  0
 25 24  1  0
  1 28  1  0
  1 29  1  0
  2 30  1  6
  3 31  1  0
  3 32  1  0
  4 33  1  6
  6 34  1  0
  7 35  1  0
  7 36  1  0
  8 37  1  0
  8 38  1  0
  9 39  1  6
 10 40  1  0
 11 41  1  0
 12 42  1  0
 12 43  1  0
 14 44  1  0
 20 45  1  0
 21 46  1  0
 22 47  1  0
M  ISO  8  28   8  29   8  30  13  31  13  32  13  33  13  35  13  36  13
M  ISO  8  37  13  38  13  39  13  40  13  41  13  42   8  43   8  44  14
M  ISO  3  45  14  46  14  47   9
M  END
>  <minimizedAffinity>  (1) 
-6.28355122

>  <minimizedRMSD>  (1) 
0.231029823

$$$$
