
     RDKit          3D

 47 50  0  0  1  0  0  0  0  0999 V2000
   43.5810   35.4010   41.1730 C   0  0  0  0  0  0  0  0  0  0  0  0
   43.6160   33.9430   40.8260 C   0  0  1  0  0  0  0  0  0  0  0  0
   42.6580   32.9910   41.4150 C   0  0  0  0  0  0  0  0  0  0  0  0
   42.5740   33.3880   39.9460 C   0  0  1  0  0  0  0  0  0  0  0  0
   41.5010   34.0520   39.5720 O   0  0  0  0  0  0  0  0  0  0  0  0
   38.6550   32.8490   38.9490 N   0  0  0  0  0  0  0  0  0  0  0  0
   39.6420   31.8990   38.5760 C   0  0  0  0  0  0  0  0  0  0  0  0
   40.8780   32.4240   38.0080 C   0  0  0  0  0  0  0  0  0  0  0  0
   41.0920   34.0010   38.2580 C   0  0  1  0  0  0  0  0  0  0  0  0
   39.9110   34.6340   37.7650 C   0  0  0  0  0  0  0  0  0  0  0  0
   38.6290   34.0290   38.1670 C   0  0  0  0  0  0  0  0  0  0  0  0
   44.0250   35.6990   42.5710 C   0  0  0  0  0  0  0  0  0  0  0  0
   47.6410   34.9720   42.3040 C   0  0  0  0  0  0  0  0  0  0  0  0
   47.8440   34.0410   43.3330 C   0  0  0  0  0  0  0  0  0  0  0  0
   46.7330   33.6850   44.0960 C   0  0  0  0  0  0  0  0  0  0  0  0
   45.5600   34.2450   43.8050 N   0  0  0  0  0  0  0  0  0  0  0  0
   45.3920   35.1480   42.7980 C   0  0  0  0  0  0  0  0  0  0  0  0
   46.4320   35.5020   42.0580 N   0  0  0  0  0  0  0  0  0  0  0  0
   46.9000   32.7330   45.1610 C   0  0  0  0  0  0  0  0  0  0  0  0
   46.7760   32.8220   46.5130 C   0  0  0  0  0  0  0  0  0  0  0  0
   46.9950   31.7450   47.2980 C   0  0  0  0  0  0  0  0  0  0  0  0
   47.3490   30.5600   46.6650 C   0  0  0  0  0  0  0  0  0  0  0  0
   47.3560   31.0620   44.8450 S   0  0  0  0  0  0  0  0  0  0  0  0
   48.8420   35.3460   41.4830 C   0  0  0  0  0  0  0  0  0  0  0  0
   48.5420   35.3070   40.1530 F   0  0  0  0  0  0  0  0  0  0  0  0
   49.2790   36.6100   41.8240 F   0  0  0  0  0  0  0  0  0  0  0  0
   49.8300   34.3820   41.6870 F   0  0  0  0  0  0  0  0  0  0  0  0
   42.5489   35.7617   41.0524 H   0  0  0  0  0  0  0  0  0  0  0  0
   44.2854   35.9086   40.4976 H   0  0  0  0  0  0  0  0  0  0  0  0
   44.7149   33.9832   40.7993 H   0  0  0  0  0  0  0  0  0  0  0  0
   42.9856   31.9795   41.6969 H   0  0  0  0  0  0  0  0  0  0  0  0
   41.9676   33.0010   42.2713 H   0  0  0  0  0  0  0  0  0  0  0  0
   42.6147   32.9074   38.9574 H   0  0  0  0  0  0  0  0  0  0  0  0
   38.0048   32.6911   39.7320 H   0  0  0  0  0  0  0  0  0  0  0  0
   39.9070   31.3238   39.4754 H   0  0  0  0  0  0  0  0  0  0  0  0
   39.1828   31.3081   37.7698 H   0  0  0  0  0  0  0  0  0  0  0  0
   40.8646   32.2439   36.9229 H   0  0  0  0  0  0  0  0  0  0  0  0
   41.7069   31.9051   38.5116 H   0  0  0  0  0  0  0  0  0  0  0  0
   41.8634   34.5810   37.7302 H   0  0  0  0  0  0  0  0  0  0  0  0
   39.9557   35.5243   37.1205 H   0  0  0  0  0  0  0  0  0  0  0  0
   37.6736   34.4837   37.8664 H   0  0  0  0  0  0  0  0  0  0  0  0
   44.0407   36.7882   42.7243 H   0  0  0  0  0  0  0  0  0  0  0  0
   43.3247   35.2336   43.2802 H   0  0  0  0  0  0  0  0  0  0  0  0
   48.8369   33.6103   43.5295 H   0  0  0  0  0  0  0  0  0  0  0  0
   46.4944   33.7814   46.9716 H   0  0  0  0  0  0  0  0  0  0  0  0
   46.8972   31.8036   48.3921 H   0  0  0  0  0  0  0  0  0  0  0  0
   47.5692   29.5788   47.1108 H   0  0  0  0  0  0  0  0  0  0  0  0
  1 12  1  0
  2  1  1  0
  2  3  1  0
  4  2  1  0
  4  3  1  0
  5  4  1  0
  7  6  1  0
  8  9  1  0
  8  7  1  0
  9  5  1  0
 10 11  2  0
 10  9  1  0
 11  6  1  0
 12 17  1  0
 13 14  2  0
 14 15  1  0
 15 19  1  0
 16 15  2  0
 17 16  1  0
 18 13  1  0
 18 17  2  0
 19 20  2  0
 20 21  1  0
 22 21  2  0
 23 19  1  0
 23 22  1  0
 24 27  1  0
 24 26  1  0
 24 13  1  0
 25 24  1  0
  1 28  1  0
  1 29  1  0
  2 30  1  6
  3 31  1  0
  3 32  1  0
  4 33  1  6
  6 34  1  0
  7 35  1  0
  7 36  1  0
  8 37  1  0
  8 38  1  0
  9 39  1  6
 10 40  1  0
 11 41  1  0
 12 42  1  0
 12 43  1  0
 14 44  1  0
 20 45  1  0
 21 46  1  0
 22 47  1  0
M  ISO  8  28   8  29   8  30  13  31  13  32  13  33  13  35  13  36  13
M  ISO  8  37  13  38  13  39  13  40  13  41  13  42   8  43   8  44  14
M  ISO  3  45  14  46  14  47  14
M  END
>  <minimizedAffinity>  (1) 
-6.31004953

>  <minimizedRMSD>  (1) 
0.412323534

$$$$
