
     RDKit          3D

 48 51  0  0  1  0  0  0  0  0999 V2000
   43.5880   35.3850   41.2100 C   0  0  0  0  0  0  0  0  0  0  0  0
   43.6310   33.9290   40.8560 C   0  0  1  0  0  0  0  0  0  0  0  0
   42.6790   32.9670   41.4230 C   0  0  0  0  0  0  0  0  0  0  0  0
   42.6020   33.3800   39.9560 C   0  0  1  0  0  0  0  0  0  0  0  0
   41.5270   34.0410   39.5850 O   0  0  0  0  0  0  0  0  0  0  0  0
   38.6760   32.8680   38.9370 N   0  0  0  0  0  0  0  0  0  0  0  0
   39.6580   31.9110   38.5640 C   0  0  0  0  0  0  0  0  0  0  0  0
   40.9010   32.4310   38.0060 C   0  0  0  0  0  0  0  0  0  0  0  0
   41.1250   34.0060   38.2680 C   0  0  1  0  0  0  0  0  0  0  0  0
   39.9500   34.6510   37.7740 C   0  0  0  0  0  0  0  0  0  0  0  0
   38.6600   34.0540   38.1650 C   0  0  0  0  0  0  0  0  0  0  0  0
   44.0470   35.6820   42.6020 C   0  0  0  0  0  0  0  0  0  0  0  0
   47.6640   34.9810   42.2990 C   0  0  0  0  0  0  0  0  0  0  0  0
   47.8800   34.0300   43.3160 C   0  0  0  0  0  0  0  0  0  0  0  0
   46.7780   33.6510   44.0850 C   0  0  0  0  0  0  0  0  0  0  0  0
   45.5950   34.2170   43.8020 N   0  0  0  0  0  0  0  0  0  0  0  0
   45.4170   35.1320   42.8150 C   0  0  0  0  0  0  0  0  0  0  0  0
   46.4540   35.5150   42.0630 N   0  0  0  0  0  0  0  0  0  0  0  0
   46.9600   32.6690   45.1470 C   0  0  0  0  0  0  0  0  0  0  0  0
   47.3440   31.3840   44.8340 C   0  0  0  0  0  0  0  0  0  0  0  0
   47.4880   30.5340   45.9030 C   0  0  0  0  0  0  0  0  0  0  0  0
   47.2720   30.9140   47.1740 N   0  0  0  0  0  0  0  0  0  0  0  0
   46.8930   32.1880   47.4570 C   0  0  0  0  0  0  0  0  0  0  0  0
   46.7430   33.0550   46.4160 N   0  0  0  0  0  0  0  0  0  0  0  0
   48.8580   35.3780   41.4760 C   0  0  0  0  0  0  0  0  0  0  0  0
   48.5580   35.3250   40.1480 F   0  0  0  0  0  0  0  0  0  0  0  0
   49.2720   36.6390   41.8250 F   0  0  0  0  0  0  0  0  0  0  0  0
   49.8610   34.4210   41.6820 F   0  0  0  0  0  0  0  0  0  0  0  0
   42.5512   35.7371   41.1042 H   0  0  0  0  0  0  0  0  0  0  0  0
   44.2797   35.9009   40.5279 H   0  0  0  0  0  0  0  0  0  0  0  0
   44.7300   33.9745   40.8467 H   0  0  0  0  0  0  0  0  0  0  0  0
   43.0120   31.9547   41.6957 H   0  0  0  0  0  0  0  0  0  0  0  0
   41.9819   32.9624   42.2739 H   0  0  0  0  0  0  0  0  0  0  0  0
   42.6547   32.9138   38.9611 H   0  0  0  0  0  0  0  0  0  0  0  0
   38.0208   32.7094   39.7158 H   0  0  0  0  0  0  0  0  0  0  0  0
   39.9136   31.3286   39.4615 H   0  0  0  0  0  0  0  0  0  0  0  0
   39.1990   31.3272   37.7525 H   0  0  0  0  0  0  0  0  0  0  0  0
   40.8922   32.2582   36.9197 H   0  0  0  0  0  0  0  0  0  0  0  0
   41.7235   31.9028   38.5104 H   0  0  0  0  0  0  0  0  0  0  0  0
   41.9019   34.5861   37.7484 H   0  0  0  0  0  0  0  0  0  0  0  0
   40.0048   35.5454   37.1359 H   0  0  0  0  0  0  0  0  0  0  0  0
   37.7093   34.5185   37.8644 H   0  0  0  0  0  0  0  0  0  0  0  0
   44.0636   36.7711   42.7556 H   0  0  0  0  0  0  0  0  0  0  0  0
   43.3548   35.2150   43.3181 H   0  0  0  0  0  0  0  0  0  0  0  0
   48.8775   33.6030   43.4970 H   0  0  0  0  0  0  0  0  0  0  0  0
   47.5232   31.0604   43.7981 H   0  0  0  0  0  0  0  0  0  0  0  0
   47.7940   29.4951   45.7103 H   0  0  0  0  0  0  0  0  0  0  0  0
   46.7130   32.5094   48.4935 H   0  0  0  0  0  0  0  0  0  0  0  0
  1 12  1  0
  2  1  1  0
  2  3  1  0
  4  2  1  0
  4  3  1  0
  5  4  1  0
  7  6  1  0
  8  9  1  0
  8  7  1  0
  9  5  1  0
 10 11  2  0
 10  9  1  0
 11  6  1  0
 12 17  1  0
 13 14  2  0
 14 15  1  0
 15 19  1  0
 16 15  2  0
 17 16  1  0
 18 13  1  0
 18 17  2  0
 19 24  1  0
 20 19  2  0
 20 21  1  0
 21 22  2  0
 22 23  1  0
 24 23  2  0
 25 28  1  0
 25 27  1  0
 25 13  1  0
 26 25  1  0
  1 29  1  0
  1 30  1  0
  2 31  1  6
  3 32  1  0
  3 33  1  0
  4 34  1  6
  6 35  1  0
  7 36  1  0
  7 37  1  0
  8 38  1  0
  8 39  1  0
  9 40  1  6
 10 41  1  0
 11 42  1  0
 12 43  1  0
 12 44  1  0
 14 45  1  0
 20 46  1  0
 21 47  1  0
 23 48  1  0
M  ISO  8  29   8  30   8  31  13  32  13  33  13  34  13  36  13  37  13
M  ISO  8  38  13  39  13  40  13  41  13  42  13  43   8  44   8  45  14
M  ISO  3  46  14  47  14  48  14
M  END
>  <minimizedAffinity>  (1) 
-6.44940472

>  <minimizedRMSD>  (1) 
0.295463651

$$$$
