
     RDKit          3D

 43 45  0  0  1  0  0  0  0  0999 V2000
   43.6690   34.0750   40.9920 C   0  0  1  0  0  0  0  0  0  0  0  0
   42.7070   33.0670   41.4730 C   0  0  0  0  0  0  0  0  0  0  0  0
   42.7010   33.5360   40.0220 C   0  0  1  0  0  0  0  0  0  0  0  0
   43.5660   35.5120   41.4040 C   0  0  0  0  0  0  0  0  0  0  0  0
   44.1030   35.7900   42.7730 C   0  0  0  0  0  0  0  0  0  0  0  0
   47.6840   34.9680   42.3500 C   0  0  0  0  0  0  0  0  0  0  0  0
   47.8810   33.9540   43.3120 C   0  0  0  0  0  0  0  0  0  0  0  0
   46.7720   33.5740   44.0890 C   0  0  0  0  0  0  0  0  0  0  0  0
   45.6150   34.2010   43.8600 N   0  0  0  0  0  0  0  0  0  0  0  0
   45.4560   35.1800   42.9210 C   0  0  0  0  0  0  0  0  0  0  0  0
   46.4910   35.5590   42.1700 N   0  0  0  0  0  0  0  0  0  0  0  0
   48.8750   35.3590   41.5240 C   0  0  0  0  0  0  0  0  0  0  0  0
   48.5740   35.2890   40.1970 F   0  0  0  0  0  0  0  0  0  0  0  0
   49.2810   36.6280   41.8580 F   0  0  0  0  0  0  0  0  0  0  0  0
   49.8830   34.4110   41.7430 F   0  0  0  0  0  0  0  0  0  0  0  0
   46.9250   32.5160   45.1120 C   0  0  0  0  0  0  0  0  0  0  0  0
   47.8680   31.5680   44.7390 F   0  0  0  0  0  0  0  0  0  0  0  0
   45.7240   31.8490   45.2090 F   0  0  0  0  0  0  0  0  0  0  0  0
   47.1780   33.0420   46.3720 F   0  0  0  0  0  0  0  0  0  0  0  0
   41.6320   34.1840   39.6130 O   0  0  0  0  0  0  0  0  0  0  0  0
   38.8210   32.9970   38.8310 N   0  0  0  0  0  0  0  0  0  0  0  0
   39.8240   32.0480   38.4960 C   0  0  0  0  0  0  0  0  0  0  0  0
   41.0850   32.5830   37.9980 C   0  0  0  0  0  0  0  0  0  0  0  0
   41.2880   34.1540   38.2780 C   0  0  1  0  0  0  0  0  0  0  0  0
   40.1320   34.7930   37.7390 C   0  0  0  0  0  0  0  0  0  0  0  0
   38.8310   34.1880   38.0660 C   0  0  0  0  0  0  0  0  0  0  0  0
   44.7657   34.1473   41.0377 H   0  0  0  0  0  0  0  0  0  0  0  0
   43.0485   32.0522   41.7251 H   0  0  0  0  0  0  0  0  0  0  0  0
   41.9655   33.0138   42.2837 H   0  0  0  0  0  0  0  0  0  0  0  0
   42.8184   33.1089   39.0151 H   0  0  0  0  0  0  0  0  0  0  0  0
   44.1286   36.1208   40.6810 H   0  0  0  0  0  0  0  0  0  0  0  0
   42.4951   35.7626   41.4240 H   0  0  0  0  0  0  0  0  0  0  0  0
   44.1748   36.8774   42.9228 H   0  0  0  0  0  0  0  0  0  0  0  0
   43.4257   35.3553   43.5229 H   0  0  0  0  0  0  0  0  0  0  0  0
   48.8639   33.4794   43.4487 H   0  0  0  0  0  0  0  0  0  0  0  0
   38.1335   32.8297   39.5795 H   0  0  0  0  0  0  0  0  0  0  0  0
   40.0438   31.4608   39.3998 H   0  0  0  0  0  0  0  0  0  0  0  0
   39.4059   31.4644   37.6625 H   0  0  0  0  0  0  0  0  0  0  0  0
   41.1252   32.4178   36.9112 H   0  0  0  0  0  0  0  0  0  0  0  0
   41.8873   32.0583   38.5374 H   0  0  0  0  0  0  0  0  0  0  0  0
   42.0836   34.7411   37.7960 H   0  0  0  0  0  0  0  0  0  0  0  0
   40.2092   35.6926   37.1107 H   0  0  0  0  0  0  0  0  0  0  0  0
   37.8920   34.6486   37.7253 H   0  0  0  0  0  0  0  0  0  0  0  0
  1  4  1  0
  1  2  1  0
  3  1  1  0
  3  2  1  0
  4  5  1  0
  5 10  1  0
  6  7  2  0
  7  8  1  0
  8 16  1  0
  9  8  2  0
 10  9  1  0
 11  6  1  0
 11 10  2  0
 12 15  1  0
 12 14  1  0
 12  6  1  0
 13 12  1  0
 16 18  1  0
 16 19  1  0
 17 16  1  0
 20  3  1  0
 22 21  1  0
 23 24  1  0
 23 22  1  0
 24 20  1  0
 25 26  2  0
 25 24  1  0
 26 21  1  0
  1 27  1  6
  2 28  1  0
  2 29  1  0
  3 30  1  6
  4 31  1  0
  4 32  1  0
  5 33  1  0
  5 34  1  0
  7 35  1  0
 21 36  1  0
 22 37  1  0
 22 38  1  0
 23 39  1  0
 23 40  1  0
 24 41  1  6
 25 42  1  0
 26 43  1  0
M  ISO  8  27  13  28  13  29  13  30  13  31   8  32   8  33   8  34   8
M  ISO  8  35  14  37  13  38  13  39  13  40  13  41  13  42  13  43  13
M  END
>  <minimizedAffinity>  (1) 
-6.04599285

>  <minimizedRMSD>  (1) 
0.228198335

$$$$
