
     RDKit          3D

 41 43  0  0  1  0  0  0  0  0999 V2000
   43.7330   33.9730   41.0150 C   0  0  1  0  0  0  0  0  0  0  0  0
   42.7520   32.9770   41.4660 C   0  0  0  0  0  0  0  0  0  0  0  0
   42.7660   33.4720   40.0240 C   0  0  1  0  0  0  0  0  0  0  0  0
   43.6590   35.4040   41.4530 C   0  0  0  0  0  0  0  0  0  0  0  0
   44.1680   35.6430   42.8360 C   0  0  0  0  0  0  0  0  0  0  0  0
   47.7740   35.0120   42.3180 C   0  0  0  0  0  0  0  0  0  0  0  0
   48.0690   34.0650   43.3230 C   0  0  0  0  0  0  0  0  0  0  0  0
   47.0140   33.6650   44.1620 C   0  0  0  0  0  0  0  0  0  0  0  0
   45.8140   34.2070   43.9480 N   0  0  0  0  0  0  0  0  0  0  0  0
   45.5600   35.1230   42.9640 C   0  0  0  0  0  0  0  0  0  0  0  0
   46.5390   35.5190   42.1570 N   0  0  0  0  0  0  0  0  0  0  0  0
   48.9050   35.4290   41.4250 C   0  0  0  0  0  0  0  0  0  0  0  0
   48.5310   35.3440   40.1180 F   0  0  0  0  0  0  0  0  0  0  0  0
   49.3000   36.7090   41.7300 F   0  0  0  0  0  0  0  0  0  0  0  0
   49.9460   34.5080   41.5900 F   0  0  0  0  0  0  0  0  0  0  0  0
   47.2210   32.7420   45.1700 O   0  0  0  0  0  0  0  0  0  0  0  0
   41.7100   34.1500   39.6270 O   0  0  0  0  0  0  0  0  0  0  0  0
   38.8620   33.0300   38.8690 N   0  0  0  0  0  0  0  0  0  0  0  0
   39.8420   32.0600   38.5260 C   0  0  0  0  0  0  0  0  0  0  0  0
   41.1050   32.5700   38.0110 C   0  0  0  0  0  0  0  0  0  0  0  0
   41.3470   34.1370   38.2990 C   0  0  1  0  0  0  0  0  0  0  0  0
   40.1990   34.8060   37.7770 C   0  0  0  0  0  0  0  0  0  0  0  0
   38.8930   34.2210   38.1180 C   0  0  0  0  0  0  0  0  0  0  0  0
   44.8303   34.0235   41.0738 H   0  0  0  0  0  0  0  0  0  0  0  0
   43.0733   31.9518   41.7019 H   0  0  0  0  0  0  0  0  0  0  0  0
   42.0024   32.9223   42.2692 H   0  0  0  0  0  0  0  0  0  0  0  0
   42.8852   33.0633   39.0097 H   0  0  0  0  0  0  0  0  0  0  0  0
   44.2552   36.0105   40.7554 H   0  0  0  0  0  0  0  0  0  0  0  0
   42.5947   35.6821   41.4532 H   0  0  0  0  0  0  0  0  0  0  0  0
   44.1619   36.7230   43.0449 H   0  0  0  0  0  0  0  0  0  0  0  0
   43.5197   35.1204   43.5548 H   0  0  0  0  0  0  0  0  0  0  0  0
   49.0832   33.6567   43.4446 H   0  0  0  0  0  0  0  0  0  0  0  0
   46.4692   32.4693   45.7535 H   0  0  0  0  0  0  0  0  0  0  0  0
   38.1734   32.8723   39.6185 H   0  0  0  0  0  0  0  0  0  0  0  0
   40.0618   31.4723   39.4295 H   0  0  0  0  0  0  0  0  0  0  0  0
   39.4029   31.4799   37.7010 H   0  0  0  0  0  0  0  0  0  0  0  0
   41.1236   32.4117   36.9226 H   0  0  0  0  0  0  0  0  0  0  0  0
   41.9046   32.0239   38.5329 H   0  0  0  0  0  0  0  0  0  0  0  0
   42.1488   34.7108   37.8112 H   0  0  0  0  0  0  0  0  0  0  0  0
   40.2861   35.7087   37.1544 H   0  0  0  0  0  0  0  0  0  0  0  0
   37.9597   34.7040   37.7930 H   0  0  0  0  0  0  0  0  0  0  0  0
  1  4  1  0
  1  2  1  0
  3  1  1  0
  3  2  1  0
  4  5  1  0
  5 10  1  0
  6  7  2  0
  7  8  1  0
  8 16  1  0
  9  8  2  0
 10  9  1  0
 11  6  1  0
 11 10  2  0
 12 15  1  0
 12 14  1  0
 12  6  1  0
 13 12  1  0
 17  3  1  0
 19 18  1  0
 20 21  1  0
 20 19  1  0
 21 17  1  0
 22 23  2  0
 22 21  1  0
 23 18  1  0
  1 24  1  6
  2 25  1  0
  2 26  1  0
  3 27  1  6
  4 28  1  0
  4 29  1  0
  5 30  1  0
  5 31  1  0
  7 32  1  0
 16 33  1  0
 18 34  1  0
 19 35  1  0
 19 36  1  0
 20 37  1  0
 20 38  1  0
 21 39  1  6
 22 40  1  0
 23 41  1  0
M  ISO  8  24  13  25  13  26  13  27  13  28   8  29   8  30   8  31   8
M  ISO  8  32  14  33   3  35  13  36  13  37  13  38  13  39  13  40  13
M  ISO  1  41  13
M  END
>  <minimizedAffinity>  (1) 
-5.87775898

>  <minimizedRMSD>  (1) 
0.0961243808

$$$$
