
     RDKit          3D

 17 17  0  0  0  0  0  0  0  0999 V2000
   44.6240   36.0180   44.3580 C   0  0  0  0  0  0  0  0  0  0  0  0
   45.3400   35.9340   43.1640 C   0  0  0  0  0  0  0  0  0  0  0  0
   46.2270   34.8660   42.9880 C   0  0  0  0  0  0  0  0  0  0  0  0
   46.3380   33.9580   44.0140 N   0  0  0  0  0  0  0  0  0  0  0  0
   45.6270   34.0720   45.1570 C   0  0  0  0  0  0  0  0  0  0  0  0
   44.7740   35.1040   45.3200 N   0  0  0  0  0  0  0  0  0  0  0  0
   47.0500   34.6590   41.7680 C   0  0  0  0  0  0  0  0  0  0  0  0
   48.3360   35.4840   41.8570 C   0  0  0  0  0  0  0  0  0  0  0  0
   49.7220   34.5350   42.4690 S   0  0  0  0  0  0  0  0  0  0  0  0
   43.9232   36.8521   44.5100 H   0  0  0  0  0  0  0  0  0  0  0  0
   45.2102   36.6915   42.3770 H   0  0  0  0  0  0  0  0  0  0  0  0
   45.7437   33.3234   45.9545 H   0  0  0  0  0  0  0  0  0  0  0  0
   46.4761   34.9735   40.8839 H   0  0  0  0  0  0  0  0  0  0  0  0
   47.3100   33.5934   41.6847 H   0  0  0  0  0  0  0  0  0  0  0  0
   48.5829   35.8607   40.8534 H   0  0  0  0  0  0  0  0  0  0  0  0
   48.1560   36.3053   42.5662 H   0  0  0  0  0  0  0  0  0  0  0  0
   49.7112   34.5424   43.8389 H   0  0  0  0  0  0  0  0  0  0  0  0
  1  6  2  0
  2  1  1  0
  3  2  2  0
  3  4  1  0
  4  5  2  0
  5  6  1  0
  7  8  1  0
  7  3  1  0
  8  9  1  0
  1 10  1  0
  2 11  1  0
  5 12  1  0
  7 13  1  0
  7 14  1  0
  8 15  1  0
  8 16  1  0
  9 17  1  0
M  ISO  8  10  14  11  14  12  14  13   8  14   8  15   8  16   8  17  11
M  END
>  <minimizedAffinity>  (1) 
-3.43982053

>  <minimizedRMSD>  (1) 
0.321939349

$$$$
