
     RDKit          3D

 49 51  0  0  1  0  0  0  0  0999 V2000
   43.7140   34.0390   40.9900 C   0  0  1  0  0  0  0  0  0  0  0  0
   42.7530   33.0160   41.4610 C   0  0  0  0  0  0  0  0  0  0  0  0
   42.7370   33.5140   40.0220 C   0  0  1  0  0  0  0  0  0  0  0  0
   43.6070   35.4620   41.4410 C   0  0  0  0  0  0  0  0  0  0  0  0
   44.1370   35.7060   42.8190 C   0  0  0  0  0  0  0  0  0  0  0  0
   47.7320   34.9820   42.3320 C   0  0  0  0  0  0  0  0  0  0  0  0
   47.9740   33.9670   43.2860 C   0  0  0  0  0  0  0  0  0  0  0  0
   46.8880   33.5590   44.0780 C   0  0  0  0  0  0  0  0  0  0  0  0
   45.7120   34.1520   43.8740 N   0  0  0  0  0  0  0  0  0  0  0  0
   45.5090   35.1310   42.9430 C   0  0  0  0  0  0  0  0  0  0  0  0
   46.5180   35.5410   42.1760 N   0  0  0  0  0  0  0  0  0  0  0  0
   48.8960   35.4090   41.4880 C   0  0  0  0  0  0  0  0  0  0  0  0
   48.5730   35.3400   40.1660 F   0  0  0  0  0  0  0  0  0  0  0  0
   49.2770   36.6850   41.8230 F   0  0  0  0  0  0  0  0  0  0  0  0
   49.9320   34.4870   41.6800 F   0  0  0  0  0  0  0  0  0  0  0  0
   47.1110   32.5030   45.0820 C   0  0  0  0  0  0  0  0  0  0  0  0
   46.4580   32.9450   46.3890 C   0  0  0  0  0  0  0  0  0  0  0  0
   46.6720   31.1390   44.6590 C   0  0  0  0  0  0  0  0  0  0  0  0
   41.6710   34.1760   39.6250 O   0  0  0  0  0  0  0  0  0  0  0  0
   38.8450   33.0130   38.8580 N   0  0  0  0  0  0  0  0  0  0  0  0
   39.8420   32.0550   38.5230 C   0  0  0  0  0  0  0  0  0  0  0  0
   41.1000   32.5840   38.0080 C   0  0  0  0  0  0  0  0  0  0  0  0
   41.3140   34.1550   38.2950 C   0  0  1  0  0  0  0  0  0  0  0  0
   40.1570   34.8030   37.7630 C   0  0  0  0  0  0  0  0  0  0  0  0
   38.8600   34.1990   38.1000 C   0  0  0  0  0  0  0  0  0  0  0  0
   44.8109   34.1157   41.0202 H   0  0  0  0  0  0  0  0  0  0  0  0
   43.0975   31.9968   41.6903 H   0  0  0  0  0  0  0  0  0  0  0  0
   42.0176   32.9453   42.2759 H   0  0  0  0  0  0  0  0  0  0  0  0
   42.8428   33.0992   39.0087 H   0  0  0  0  0  0  0  0  0  0  0  0
   44.1714   36.0912   40.7370 H   0  0  0  0  0  0  0  0  0  0  0  0
   42.5352   35.7084   41.4644 H   0  0  0  0  0  0  0  0  0  0  0  0
   44.1765   36.7888   43.0085 H   0  0  0  0  0  0  0  0  0  0  0  0
   43.4741   35.2248   43.5532 H   0  0  0  0  0  0  0  0  0  0  0  0
   48.9704   33.5160   43.4031 H   0  0  0  0  0  0  0  0  0  0  0  0
   48.1966   32.3874   45.2163 H   0  0  0  0  0  0  0  0  0  0  0  0
   47.0365   32.5534   47.2387 H   0  0  0  0  0  0  0  0  0  0  0  0
   46.4369   34.0438   46.4351 H   0  0  0  0  0  0  0  0  0  0  0  0
   45.4300   32.5563   46.4351 H   0  0  0  0  0  0  0  0  0  0  0  0
   46.4743   30.5247   45.5498 H   0  0  0  0  0  0  0  0  0  0  0  0
   45.7543   31.2192   44.0579 H   0  0  0  0  0  0  0  0  0  0  0  0
   47.4642   30.6688   44.0579 H   0  0  0  0  0  0  0  0  0  0  0  0
   38.1568   32.8494   39.6067 H   0  0  0  0  0  0  0  0  0  0  0  0
   40.0685   31.4758   39.4304 H   0  0  0  0  0  0  0  0  0  0  0  0
   39.4146   31.4625   37.7006 H   0  0  0  0  0  0  0  0  0  0  0  0
   41.1232   32.4244   36.9199 H   0  0  0  0  0  0  0  0  0  0  0  0
   41.9081   32.0511   38.5304 H   0  0  0  0  0  0  0  0  0  0  0  0
   42.1083   34.7434   37.8124 H   0  0  0  0  0  0  0  0  0  0  0  0
   40.2327   35.7037   37.1361 H   0  0  0  0  0  0  0  0  0  0  0  0
   37.9206   34.6642   37.7667 H   0  0  0  0  0  0  0  0  0  0  0  0
  1  4  1  0
  1  2  1  0
  3  1  1  0
  3  2  1  0
  4  5  1  0
  5 10  1  0
  6  7  2  0
  7  8  1  0
  8 16  1  0
  9  8  2  0
 10  9  1  0
 11  6  1  0
 11 10  2  0
 12 15  1  0
 12 14  1  0
 12  6  1  0
 13 12  1  0
 16 17  1  0
 18 16  1  0
 19  3  1  0
 21 20  1  0
 22 23  1  0
 22 21  1  0
 23 19  1  0
 24 25  2  0
 24 23  1  0
 25 20  1  0
  1 26  1  6
  2 27  1  0
  2 28  1  0
  3 29  1  6
  4 30  1  0
  4 31  1  0
  5 32  1  0
  5 33  1  0
  7 34  1  0
 16 35  1  0
 17 36  1  0
 17 37  1  0
 17 38  1  0
 18 39  1  0
 18 40  1  0
 18 41  1  0
 20 42  1  0
 21 43  1  0
 21 44  1  0
 22 45  1  0
 22 46  1  0
 23 47  1  6
 24 48  1  0
 25 49  1  0
M  ISO  8  26  13  27  13  28  13  29  13  30   8  31   8  32   8  33   8
M  ISO  8  34  14  35   8  36   8  37   8  38   8  39   8  40   8  41   8
M  ISO  7  43  13  44  13  45  13  46  13  47  13  48  13  49  13
M  END
>  <minimizedAffinity>  (1) 
-5.97973537

>  <minimizedRMSD>  (1) 
0.168595791

$$$$
