
     RDKit          3D

 27 29  0  0  0  0  0  0  0  0999 V2000
   45.4260   34.0560   45.2800 C   0  0  0  0  0  0  0  0  0  0  0  0
   44.6110   35.1160   45.6740 C   0  0  0  0  0  0  0  0  0  0  0  0
   44.4910   36.1620   44.7620 C   0  0  0  0  0  0  0  0  0  0  0  0
   45.1410   36.0950   43.5950 N   0  0  0  0  0  0  0  0  0  0  0  0
   45.9170   35.0870   43.2220 C   0  0  0  0  0  0  0  0  0  0  0  0
   46.0180   34.1030   44.1010 N   0  0  0  0  0  0  0  0  0  0  0  0
   46.6880   34.8560   42.0030 C   0  0  0  0  0  0  0  0  0  0  0  0
   48.0010   35.3160   41.8360 C   0  0  0  0  0  0  0  0  0  0  0  0
   48.7530   35.1190   40.7090 C   0  0  0  0  0  0  0  0  0  0  0  0
   48.2270   34.4330   39.6570 C   0  0  0  0  0  0  0  0  0  0  0  0
   46.9530   33.9560   39.7550 C   0  0  0  0  0  0  0  0  0  0  0  0
   46.4620   33.2680   38.6660 C   0  0  0  0  0  0  0  0  0  0  0  0
   45.1810   32.7520   38.6810 C   0  0  0  0  0  0  0  0  0  0  0  0
   44.4490   32.9740   39.8410 C   0  0  0  0  0  0  0  0  0  0  0  0
   44.9800   33.6610   40.8910 C   0  0  0  0  0  0  0  0  0  0  0  0
   46.2300   34.1750   40.9010 C   0  0  0  0  0  0  0  0  0  0  0  0
   45.6020   32.9750   46.1240 O   0  0  0  0  0  0  0  0  0  0  0  0
   44.0945   35.1258   46.6452 H   0  0  0  0  0  0  0  0  0  0  0  0
   43.8668   37.0360   44.9996 H   0  0  0  0  0  0  0  0  0  0  0  0
   48.4586   35.8732   42.6668 H   0  0  0  0  0  0  0  0  0  0  0  0
   49.7783   35.5135   40.6536 H   0  0  0  0  0  0  0  0  0  0  0  0
   48.8187   34.2666   38.7448 H   0  0  0  0  0  0  0  0  0  0  0  0
   47.0957   33.1288   37.7777 H   0  0  0  0  0  0  0  0  0  0  0  0
   44.7652   32.1986   37.8261 H   0  0  0  0  0  0  0  0  0  0  0  0
   43.4215   32.5879   39.9130 H   0  0  0  0  0  0  0  0  0  0  0  0
   44.3540   33.8060   41.7838 H   0  0  0  0  0  0  0  0  0  0  0  0
   46.1801   32.2203   45.8477 H   0  0  0  0  0  0  0  0  0  0  0  0
  1  2  2  0
  1 17  1  0
  3  2  1  0
  4  3  2  0
  5  4  1  0
  5  6  2  0
  6  1  1  0
  7  5  1  0
  8  7  2  0
  9  8  1  0
 10 11  1  0
 10  9  2  0
 11 16  2  0
 12 13  2  0
 12 11  1  0
 13 14  1  0
 14 15  2  0
 15 16  1  0
 16  7  1  0
  2 18  1  0
  3 19  1  0
  8 20  1  0
  9 21  1  0
 10 22  1  0
 12 23  1  0
 13 24  1  0
 14 25  1  0
 15 26  1  0
 17 27  1  0
M  ISO  8  18  14  19  14  20  14  21  14  22  14  23  14  24  14  25  14
M  ISO  2  26  14  27   3
M  END
>  <minimizedAffinity>  (1) 
-5.82953024

>  <minimizedRMSD>  (1) 
6.3082037

$$$$
