
     RDKit          3D

 21 22  0  0  0  0  0  0  0  0999 V2000
   44.8670   35.0730   44.5780 C   0  0  0  0  0  0  0  0  0  0  0  0
   45.7590   34.9730   43.5040 C   0  0  0  0  0  0  0  0  0  0  0  0
   46.8250   34.0580   43.6400 C   0  0  0  0  0  0  0  0  0  0  0  0
   46.9320   33.3350   44.7730 N   0  0  0  0  0  0  0  0  0  0  0  0
   46.0480   33.4610   45.7880 C   0  0  0  0  0  0  0  0  0  0  0  0
   45.0300   34.3220   45.6860 N   0  0  0  0  0  0  0  0  0  0  0  0
   46.2480   32.6340   46.9790 C   0  0  0  0  0  0  0  0  0  0  0  0
   47.4490   31.9690   47.1340 C   0  0  0  0  0  0  0  0  0  0  0  0
   47.6200   31.1920   48.2650 C   0  0  0  0  0  0  0  0  0  0  0  0
   46.5950   31.1020   49.2020 C   0  0  0  0  0  0  0  0  0  0  0  0
   45.3920   31.7740   49.0380 C   0  0  0  0  0  0  0  0  0  0  0  0
   45.2120   32.5630   47.8960 C   0  0  0  0  0  0  0  0  0  0  0  0
   43.8310   35.9530   44.4650 O   0  0  0  0  0  0  0  0  0  0  0  0
   45.6348   35.5800   42.5951 H   0  0  0  0  0  0  0  0  0  0  0  0
   47.5601   33.9361   42.8308 H   0  0  0  0  0  0  0  0  0  0  0  0
   48.2455   32.0550   46.3802 H   0  0  0  0  0  0  0  0  0  0  0  0
   48.5624   30.6472   48.4234 H   0  0  0  0  0  0  0  0  0  0  0  0
   46.7425   30.4808   50.0977 H   0  0  0  0  0  0  0  0  0  0  0  0
   44.5950   31.6882   49.7912 H   0  0  0  0  0  0  0  0  0  0  0  0
   44.2732   33.1120   47.7310 H   0  0  0  0  0  0  0  0  0  0  0  0
   43.7294   36.4950   43.6428 H   0  0  0  0  0  0  0  0  0  0  0  0
  1  6  2  0
  2  3  2  0
  2  1  1  0
  3  4  1  0
  4  5  2  0
  5  7  1  0
  6  5  1  0
  7  8  2  0
  7 12  1  0
  8  9  1  0
  9 10  2  0
 11 10  1  0
 12 11  2  0
 13  1  1  0
  2 14  1  0
  3 15  1  0
  8 16  1  0
  9 17  1  0
 10 18  1  0
 11 19  1  0
 12 20  1  0
 13 21  1  0
M  ISO  8  14  14  15  14  16  14  17  14  18  14  19  14  20  14  21   3
M  END
>  <minimizedAffinity>  (1) 
-5.18475151

>  <minimizedRMSD>  (1) 
1.48712683

$$$$
