
     RDKit          3D

 24 25  0  0  0  0  0  0  0  0999 V2000
   44.7870   35.2120   44.1400 C   0  0  0  0  0  0  0  0  0  0  0  0
   45.5550   35.5960   43.0300 C   0  0  0  0  0  0  0  0  0  0  0  0
   46.7600   34.8910   42.8280 C   0  0  0  0  0  0  0  0  0  0  0  0
   47.1190   33.9070   43.6790 N   0  0  0  0  0  0  0  0  0  0  0  0
   46.3380   33.5780   44.7340 C   0  0  0  0  0  0  0  0  0  0  0  0
   45.1840   34.2320   44.9520 N   0  0  0  0  0  0  0  0  0  0  0  0
   46.8120   32.5250   45.5680 N   0  0  0  0  0  0  0  0  0  0  0  0
   46.8320   32.5760   46.9130 C   0  0  0  0  0  0  0  0  0  0  0  0
   47.3220   31.4700   47.5460 C   0  0  0  0  0  0  0  0  0  0  0  0
   47.3840   31.4300   49.0150 C   0  0  0  0  0  0  0  0  0  0  0  0
   47.7800   30.3460   46.8940 C   0  0  0  0  0  0  0  0  0  0  0  0
   48.2260   29.3390   47.4910 O   0  0  0  0  0  0  0  0  0  0  0  0
   47.7310   30.3620   45.5320 N   0  0  0  0  0  0  0  0  0  0  0  0
   47.2500   31.4460   44.8850 C   0  0  0  0  0  0  0  0  0  0  0  0
   47.2570   31.3410   43.6340 O   0  0  0  0  0  0  0  0  0  0  0  0
   43.6220   35.8890   44.3390 O   0  0  0  0  0  0  0  0  0  0  0  0
   45.2348   36.4028   42.3543 H   0  0  0  0  0  0  0  0  0  0  0  0
   47.4079   35.1436   41.9757 H   0  0  0  0  0  0  0  0  0  0  0  0
   46.4751   33.4557   47.4686 H   0  0  0  0  0  0  0  0  0  0  0  0
   46.5291   31.9816   49.4332 H   0  0  0  0  0  0  0  0  0  0  0  0
   47.3477   30.3846   49.3552 H   0  0  0  0  0  0  0  0  0  0  0  0
   48.3215   31.8940   49.3552 H   0  0  0  0  0  0  0  0  0  0  0  0
   48.0610   29.5470   44.9956 H   0  0  0  0  0  0  0  0  0  0  0  0
   43.3569   36.6117   43.7165 H   0  0  0  0  0  0  0  0  0  0  0  0
  1 16  1  0
  1  6  2  0
  2  1  1  0
  3  2  2  0
  3  4  1  0
  4  5  2  0
  5  6  1  0
  5  7  1  0
  7  8  1  0
  8  9  2  0
  9 10  1  0
 11 12  2  0
 11  9  1  0
 13 11  1  0
 14 13  1  0
 14  7  1  0
 15 14  2  0
  2 17  1  0
  3 18  1  0
  8 19  1  0
 10 20  1  0
 10 21  1  0
 10 22  1  0
 13 23  1  0
 16 24  1  0
M  ISO  8  17  14  18  14  19  14  20   8  21   8  22   8  23   9  24   3
M  END
>  <minimizedAffinity>  (1) 
-5.35606241

>  <minimizedRMSD>  (1) 
0.263888776

$$$$
