
     RDKit          3D

 21 22  0  0  0  0  0  0  0  0999 V2000
   44.8620   35.0600   44.6030 C   0  0  0  0  0  0  0  0  0  0  0  0
   45.7460   34.9570   43.5250 C   0  0  0  0  0  0  0  0  0  0  0  0
   46.8040   34.0540   43.6420 C   0  0  0  0  0  0  0  0  0  0  0  0
   46.9120   33.3310   44.7870 N   0  0  0  0  0  0  0  0  0  0  0  0
   46.0390   33.4580   45.8060 C   0  0  0  0  0  0  0  0  0  0  0  0
   45.0180   34.3220   45.7070 N   0  0  0  0  0  0  0  0  0  0  0  0
   46.2220   32.6400   47.0130 C   0  0  0  0  0  0  0  0  0  0  0  0
   45.1910   32.5560   47.9260 C   0  0  0  0  0  0  0  0  0  0  0  0
   45.4230   31.7700   49.0440 C   0  0  0  0  0  0  0  0  0  0  0  0
   46.6480   31.1200   49.1950 C   0  0  0  0  0  0  0  0  0  0  0  0
   47.6510   31.2220   48.2730 C   0  0  0  0  0  0  0  0  0  0  0  0
   47.4200   32.0130   47.1450 C   0  0  0  0  0  0  0  0  0  0  0  0
   43.8330   35.9510   44.4690 O   0  0  0  0  0  0  0  0  0  0  0  0
   45.6128   35.5651   42.6181 H   0  0  0  0  0  0  0  0  0  0  0  0
   47.5324   33.9309   42.8270 H   0  0  0  0  0  0  0  0  0  0  0  0
   44.2376   33.0836   47.7751 H   0  0  0  0  0  0  0  0  0  0  0  0
   44.6423   31.6590   49.8109 H   0  0  0  0  0  0  0  0  0  0  0  0
   46.8126   30.5021   50.0900 H   0  0  0  0  0  0  0  0  0  0  0  0
   48.6083   30.6988   48.4141 H   0  0  0  0  0  0  0  0  0  0  0  0
   48.1970   32.1266   46.3747 H   0  0  0  0  0  0  0  0  0  0  0  0
   43.7441   36.4833   43.6390 H   0  0  0  0  0  0  0  0  0  0  0  0
  1  6  2  0
  2  3  2  0
  2  1  1  0
  3  4  1  0
  4  5  2  0
  5  7  1  0
  6  5  1  0
  7 12  1  0
  7  8  2  0
  8  9  1  0
  9 10  2  0
 11 10  1  0
 12 11  2  0
 13  1  1  0
  2 14  1  0
  3 15  1  0
  8 16  1  0
  9 17  1  0
 10 18  1  0
 11 19  1  0
 12 20  1  0
 13 21  1  0
M  ISO  8  14  14  15  14  16  14  17  14  18  14  19  14  20  14  21   3
M  END
>  <minimizedAffinity>  (1) 
-5.19938326

>  <minimizedRMSD>  (1) 
1.49534762

$$$$
