
     RDKit          3D

 19 20  0  0  0  0  0  0  0  0999 V2000
   44.8590   35.0300   44.6140 C   0  0  0  0  0  0  0  0  0  0  0  0
   45.7240   34.9350   43.5180 C   0  0  0  0  0  0  0  0  0  0  0  0
   46.8030   34.0420   43.6340 C   0  0  0  0  0  0  0  0  0  0  0  0
   46.9500   33.3240   44.7870 N   0  0  0  0  0  0  0  0  0  0  0  0
   46.0860   33.4570   45.8090 C   0  0  0  0  0  0  0  0  0  0  0  0
   45.0610   34.3000   45.7110 N   0  0  0  0  0  0  0  0  0  0  0  0
   46.2880   32.6630   47.0270 C   0  0  0  0  0  0  0  0  0  0  0  0
   45.2370   32.5160   47.9180 C   0  0  0  0  0  0  0  0  0  0  0  0
   45.4880   31.7600   49.0420 C   0  0  0  0  0  0  0  0  0  0  0  0
   46.6820   31.2060   49.2510 N   0  0  0  0  0  0  0  0  0  0  0  0
   47.7180   31.3490   48.3790 C   0  0  0  0  0  0  0  0  0  0  0  0
   47.4900   32.0940   47.2580 N   0  0  0  0  0  0  0  0  0  0  0  0
   43.8060   35.8990   44.5080 O   0  0  0  0  0  0  0  0  0  0  0  0
   45.5666   35.5319   42.6075 H   0  0  0  0  0  0  0  0  0  0  0  0
   47.5194   33.9228   42.8078 H   0  0  0  0  0  0  0  0  0  0  0  0
   44.2552   32.9780   47.7376 H   0  0  0  0  0  0  0  0  0  0  0  0
   44.6873   31.6107   49.7814 H   0  0  0  0  0  0  0  0  0  0  0  0
   48.6966   30.8842   48.5696 H   0  0  0  0  0  0  0  0  0  0  0  0
   43.6820   36.4278   43.6803 H   0  0  0  0  0  0  0  0  0  0  0  0
  1  6  2  0
  2  3  2  0
  2  1  1  0
  3  4  1  0
  4  5  2  0
  5  7  1  0
  6  5  1  0
  7 12  1  0
  7  8  2  0
  8  9  1  0
  9 10  2  0
 11 10  1  0
 12 11  2  0
 13  1  1  0
  2 14  1  0
  3 15  1  0
  8 16  1  0
  9 17  1  0
 11 18  1  0
 13 19  1  0
M  ISO  6  14  14  15  14  16  14  17  14  18  14  19   3
M  END
>  <minimizedAffinity>  (1) 
-4.95670176

>  <minimizedRMSD>  (1) 
1.46776438

$$$$
