
     RDKit          3D

 19 20  0  0  0  0  0  0  0  0999 V2000
   44.8640   35.0290   44.6240 C   0  0  0  0  0  0  0  0  0  0  0  0
   45.7180   34.9470   43.5200 C   0  0  0  0  0  0  0  0  0  0  0  0
   46.8160   34.0570   43.6070 C   0  0  0  0  0  0  0  0  0  0  0  0
   46.9680   33.3460   44.7450 N   0  0  0  0  0  0  0  0  0  0  0  0
   46.1160   33.4560   45.7890 C   0  0  0  0  0  0  0  0  0  0  0  0
   45.0700   34.2910   45.7330 N   0  0  0  0  0  0  0  0  0  0  0  0
   46.3000   32.6750   47.0150 C   0  0  0  0  0  0  0  0  0  0  0  0
   45.2020   32.4140   47.8170 C   0  0  0  0  0  0  0  0  0  0  0  0
   45.3520   31.6800   48.9760 C   0  0  0  0  0  0  0  0  0  0  0  0
   46.5630   31.2130   49.3370 N   0  0  0  0  0  0  0  0  0  0  0  0
   47.6290   31.4840   48.5280 C   0  0  0  0  0  0  0  0  0  0  0  0
   47.4980   32.1990   47.3940 N   0  0  0  0  0  0  0  0  0  0  0  0
   43.8090   35.8860   44.5350 O   0  0  0  0  0  0  0  0  0  0  0  0
   45.5435   35.5513   42.6176 H   0  0  0  0  0  0  0  0  0  0  0  0
   47.5241   33.9480   42.7723 H   0  0  0  0  0  0  0  0  0  0  0  0
   44.2096   32.7919   47.5302 H   0  0  0  0  0  0  0  0  0  0  0  0
   44.4765   31.4748   49.6096 H   0  0  0  0  0  0  0  0  0  0  0  0
   48.6233   31.1076   48.8104 H   0  0  0  0  0  0  0  0  0  0  0  0
   43.6732   36.4202   43.7126 H   0  0  0  0  0  0  0  0  0  0  0  0
  1  6  2  0
  2  3  2  0
  2  1  1  0
  3  4  1  0
  4  5  2  0
  5  7  1  0
  6  5  1  0
  7 12  1  0
  7  8  2  0
  8  9  1  0
  9 10  2  0
 11 10  1  0
 12 11  2  0
 13  1  1  0
  2 14  1  0
  3 15  1  0
  8 16  1  0
  9 17  1  0
 11 18  1  0
 13 19  1  0
M  ISO  6  14  14  15  14  16  14  17  14  18  14  19   3
M  END
>  <minimizedAffinity>  (1) 
-4.94333601

>  <minimizedRMSD>  (1) 
1.4255023

$$$$
