
     RDKit          3D

 26 27  0  0  0  0  0  0  0  0999 V2000
   44.8240   35.0520   44.5820 C   0  0  0  0  0  0  0  0  0  0  0  0
   45.7480   34.8570   43.5450 C   0  0  0  0  0  0  0  0  0  0  0  0
   46.7940   33.9460   43.7720 C   0  0  0  0  0  0  0  0  0  0  0  0
   46.8530   33.3070   44.9790 N   0  0  0  0  0  0  0  0  0  0  0  0
   45.9410   33.5330   45.9340 C   0  0  0  0  0  0  0  0  0  0  0  0
   44.9410   34.3900   45.7470 N   0  0  0  0  0  0  0  0  0  0  0  0
   46.1230   32.8020   47.1410 N   0  0  0  0  0  0  0  0  0  0  0  0
   45.0560   32.7090   48.1010 C   0  0  0  0  0  0  0  0  0  0  0  0
   44.9360   31.3660   48.7600 C   0  0  0  0  0  0  0  0  0  0  0  0
   46.1720   30.5250   48.7000 C   0  0  0  0  0  0  0  0  0  0  0  0
   47.4410   31.2960   48.5660 C   0  0  0  0  0  0  0  0  0  0  0  0
   47.3990   32.1690   47.3520 C   0  0  0  0  0  0  0  0  0  0  0  0
   43.8090   35.9460   44.3430 O   0  0  0  0  0  0  0  0  0  0  0  0
   45.6575   35.3964   42.5906 H   0  0  0  0  0  0  0  0  0  0  0  0
   47.5485   33.7515   42.9955 H   0  0  0  0  0  0  0  0  0  0  0  0
   45.2292   33.4627   48.8832 H   0  0  0  0  0  0  0  0  0  0  0  0
   44.1191   32.8748   47.5490 H   0  0  0  0  0  0  0  0  0  0  0  0
   44.6817   31.5256   49.8182 H   0  0  0  0  0  0  0  0  0  0  0  0
   44.1607   30.8171   48.2054 H   0  0  0  0  0  0  0  0  0  0  0  0
   46.2276   29.9304   49.6238 H   0  0  0  0  0  0  0  0  0  0  0  0
   46.0852   29.9072   47.7940 H   0  0  0  0  0  0  0  0  0  0  0  0
   47.5788   31.9239   49.4586 H   0  0  0  0  0  0  0  0  0  0  0  0
   48.2776   30.5888   48.4664 H   0  0  0  0  0  0  0  0  0  0  0  0
   47.6308   31.5517   46.4716 H   0  0  0  0  0  0  0  0  0  0  0  0
   48.1356   32.9713   47.5060 H   0  0  0  0  0  0  0  0  0  0  0  0
   43.7565   36.4141   43.4722 H   0  0  0  0  0  0  0  0  0  0  0  0
  1  6  2  0
  2  3  2  0
  2  1  1  0
  3  4  1  0
  4  5  2  0
  5  7  1  0
  6  5  1  0
  7 12  1  0
  7  8  1  0
  8  9  1  0
 10  9  1  0
 11 10  1  0
 12 11  1  0
 13  1  1  0
  2 14  1  0
  3 15  1  0
  8 16  1  0
  8 17  1  0
  9 18  1  0
  9 19  1  0
 10 20  1  0
 10 21  1  0
 11 22  1  0
 11 23  1  0
 12 24  1  0
 12 25  1  0
 13 26  1  0
M  ISO  8  14  14  15  14  16  13  17  13  18  13  19  13  20  13  21  13
M  ISO  5  22  13  23  13  24  13  25  13  26   3
M  END
>  <minimizedAffinity>  (1) 
-5.10265446

>  <minimizedRMSD>  (1) 
1.77882648

$$$$
