
     RDKit          3D

 18 19  0  0  0  0  0  0  0  0999 V2000
   44.8380   35.0630   44.5260 C   0  0  0  0  0  0  0  0  0  0  0  0
   45.7430   34.9160   43.4670 C   0  0  0  0  0  0  0  0  0  0  0  0
   46.8140   34.0390   43.6530 C   0  0  0  0  0  0  0  0  0  0  0  0
   46.9290   33.3790   44.8310 N   0  0  0  0  0  0  0  0  0  0  0  0
   46.0380   33.5470   45.8220 C   0  0  0  0  0  0  0  0  0  0  0  0
   45.0020   34.3810   45.6720 N   0  0  0  0  0  0  0  0  0  0  0  0
   46.2020   32.8220   47.0570 N   0  0  0  0  0  0  0  0  0  0  0  0
   47.3330   32.2350   47.4460 N   0  0  0  0  0  0  0  0  0  0  0  0
   47.1330   31.6420   48.6600 C   0  0  0  0  0  0  0  0  0  0  0  0
   45.8070   31.8970   48.9990 C   0  0  0  0  0  0  0  0  0  0  0  0
   45.2400   32.6420   47.9750 C   0  0  0  0  0  0  0  0  0  0  0  0
   43.7870   35.9170   44.3580 O   0  0  0  0  0  0  0  0  0  0  0  0
   45.6151   35.4699   42.5253 H   0  0  0  0  0  0  0  0  0  0  0  0
   47.5543   33.8861   42.8539 H   0  0  0  0  0  0  0  0  0  0  0  0
   47.8700   31.0775   49.2501 H   0  0  0  0  0  0  0  0  0  0  0  0
   45.2986   31.5662   49.9167 H   0  0  0  0  0  0  0  0  0  0  0  0
   44.2054   33.0123   47.9255 H   0  0  0  0  0  0  0  0  0  0  0  0
   43.6820   36.4113   43.5067 H   0  0  0  0  0  0  0  0  0  0  0  0
  1  6  2  0
  2  3  2  0
  2  1  1  0
  3  4  1  0
  4  5  2  0
  5  7  1  0
  6  5  1  0
  7  8  1  0
  7 11  1  0
  8  9  2  0
  9 10  1  0
 11 10  2  0
 12  1  1  0
  2 13  1  0
  3 14  1  0
  9 15  1  0
 10 16  1  0
 11 17  1  0
 12 18  1  0
M  ISO  6  13  14  14  14  15  14  16  14  17  14  18   3
M  END
>  <minimizedAffinity>  (1) 
-4.98257923

>  <minimizedRMSD>  (1) 
1.4410125

$$$$
