
     RDKit          3D

 24 25  0  0  0  0  0  0  0  0999 V2000
   44.8610   34.9750   44.6730 C   0  0  0  0  0  0  0  0  0  0  0  0
   45.7500   34.7830   43.5850 C   0  0  0  0  0  0  0  0  0  0  0  0
   46.8050   33.8830   43.7700 C   0  0  0  0  0  0  0  0  0  0  0  0
   46.9280   33.2480   44.9550 N   0  0  0  0  0  0  0  0  0  0  0  0
   46.0660   33.4540   45.9650 C   0  0  0  0  0  0  0  0  0  0  0  0
   45.0470   34.3110   45.8150 N   0  0  0  0  0  0  0  0  0  0  0  0
   46.1740   32.7970   47.2250 N   0  0  0  0  0  0  0  0  0  0  0  0
   47.4500   32.3730   47.7940 C   0  0  0  0  0  0  0  0  0  0  0  0
   47.3450   30.9640   48.3510 C   0  0  0  0  0  0  0  0  0  0  0  0
   46.2440   30.8160   49.1890 O   0  0  0  0  0  0  0  0  0  0  0  0
   45.1180   30.9860   48.3740 C   0  0  0  0  0  0  0  0  0  0  0  0
   45.0360   32.4840   48.0650 C   0  0  0  0  0  0  0  0  0  0  0  0
   43.8300   35.8540   44.4940 O   0  0  0  0  0  0  0  0  0  0  0  0
   45.6156   35.3198   42.6343 H   0  0  0  0  0  0  0  0  0  0  0  0
   47.5252   33.6951   42.9601 H   0  0  0  0  0  0  0  0  0  0  0  0
   48.2208   32.3951   47.0096 H   0  0  0  0  0  0  0  0  0  0  0  0
   47.7191   33.0583   48.6113 H   0  0  0  0  0  0  0  0  0  0  0  0
   47.2516   30.2570   47.5135 H   0  0  0  0  0  0  0  0  0  0  0  0
   48.2511   30.7634   48.9415 H   0  0  0  0  0  0  0  0  0  0  0  0
   45.2305   30.4103   47.4434 H   0  0  0  0  0  0  0  0  0  0  0  0
   44.2048   30.6291   48.8727 H   0  0  0  0  0  0  0  0  0  0  0  0
   45.0807   33.0666   48.9970 H   0  0  0  0  0  0  0  0  0  0  0  0
   44.0907   32.7336   47.5609 H   0  0  0  0  0  0  0  0  0  0  0  0
   43.7270   36.3270   43.6304 H   0  0  0  0  0  0  0  0  0  0  0  0
  1  6  2  0
  2  3  2  0
  2  1  1  0
  3  4  1  0
  4  5  2  0
  5  7  1  0
  6  5  1  0
  7  8  1  0
  7 12  1  0
  8  9  1  0
  9 10  1  0
 11 10  1  0
 12 11  1  0
 13  1  1  0
  2 14  1  0
  3 15  1  0
  8 16  1  0
  8 17  1  0
  9 18  1  0
  9 19  1  0
 11 20  1  0
 11 21  1  0
 12 22  1  0
 12 23  1  0
 13 24  1  0
M  ISO  8  14  14  15  14  16  13  17  13  18  13  19  13  20  13  21  13
M  ISO  3  22  13  23  13  24   3
M  END
>  <minimizedAffinity>  (1) 
-5.01556206

>  <minimizedRMSD>  (1) 
1.70520937

$$$$
