
     RDKit          3D

 18 19  0  0  0  0  0  0  0  0999 V2000
   44.8530   35.0230   44.5870 C   0  0  0  0  0  0  0  0  0  0  0  0
   45.7010   34.8930   43.4740 C   0  0  0  0  0  0  0  0  0  0  0  0
   46.7930   34.0180   43.5890 C   0  0  0  0  0  0  0  0  0  0  0  0
   46.9770   33.3470   44.7490 N   0  0  0  0  0  0  0  0  0  0  0  0
   46.1330   33.5030   45.8010 C   0  0  0  0  0  0  0  0  0  0  0  0
   45.0890   34.3360   45.7000 N   0  0  0  0  0  0  0  0  0  0  0  0
   46.3450   32.7720   47.0460 C   0  0  0  0  0  0  0  0  0  0  0  0
   45.2550   32.5900   47.8890 C   0  0  0  0  0  0  0  0  0  0  0  0
   45.6940   31.8820   48.9900 C   0  0  0  0  0  0  0  0  0  0  0  0
   47.0510   31.6650   48.7550 C   0  0  0  0  0  0  0  0  0  0  0  0
   47.3810   32.2150   47.5910 O   0  0  0  0  0  0  0  0  0  0  0  0
   43.7900   35.8700   44.4890 O   0  0  0  0  0  0  0  0  0  0  0  0
   45.5161   35.4558   42.5472 H   0  0  0  0  0  0  0  0  0  0  0  0
   47.4887   33.8802   42.7481 H   0  0  0  0  0  0  0  0  0  0  0  0
   44.2293   32.9454   47.7113 H   0  0  0  0  0  0  0  0  0  0  0  0
   45.1035   31.5602   49.8605 H   0  0  0  0  0  0  0  0  0  0  0  0
   47.7373   31.1259   49.4245 H   0  0  0  0  0  0  0  0  0  0  0  0
   43.6328   36.3721   43.6504 H   0  0  0  0  0  0  0  0  0  0  0  0
  1  6  2  0
  2  3  2  0
  2  1  1  0
  3  4  1  0
  4  5  2  0
  5  7  1  0
  6  5  1  0
  7 11  1  0
  7  8  2  0
  8  9  1  0
 10  9  2  0
 11 10  1  0
 12  1  1  0
  2 13  1  0
  3 14  1  0
  8 15  1  0
  9 16  1  0
 10 17  1  0
 12 18  1  0
M  ISO  6  13  14  14  14  15  14  16  14  17  14  18   3
M  END
>  <minimizedAffinity>  (1) 
-4.82256413

>  <minimizedRMSD>  (1) 
1.3873136

$$$$
