
     RDKit          3D

 18 19  0  0  0  0  0  0  0  0999 V2000
   44.8790   35.0580   44.5680 C   0  0  0  0  0  0  0  0  0  0  0  0
   45.7940   34.9690   43.5030 C   0  0  0  0  0  0  0  0  0  0  0  0
   46.8460   34.0570   43.6320 C   0  0  0  0  0  0  0  0  0  0  0  0
   46.9370   33.3090   44.7590 N   0  0  0  0  0  0  0  0  0  0  0  0
   46.0410   33.4240   45.7570 C   0  0  0  0  0  0  0  0  0  0  0  0
   45.0290   34.2840   45.6610 N   0  0  0  0  0  0  0  0  0  0  0  0
   46.0970   32.6490   46.9750 C   0  0  0  0  0  0  0  0  0  0  0  0
   45.2300   32.5890   47.9960 C   0  0  0  0  0  0  0  0  0  0  0  0
   45.4910   31.7720   49.0680 C   0  0  0  0  0  0  0  0  0  0  0  0
   46.6620   31.0490   49.0150 C   0  0  0  0  0  0  0  0  0  0  0  0
   47.4540   31.5170   47.4000 S   0  0  0  0  0  0  0  0  0  0  0  0
   43.8430   35.9530   44.4460 O   0  0  0  0  0  0  0  0  0  0  0  0
   45.6860   35.5929   42.6035 H   0  0  0  0  0  0  0  0  0  0  0  0
   47.5902   33.9479   42.8294 H   0  0  0  0  0  0  0  0  0  0  0  0
   44.3111   33.1934   47.9747 H   0  0  0  0  0  0  0  0  0  0  0  0
   44.8024   31.6988   49.9227 H   0  0  0  0  0  0  0  0  0  0  0  0
   47.0464   30.3450   49.7677 H   0  0  0  0  0  0  0  0  0  0  0  0
   43.7611   36.5071   43.6297 H   0  0  0  0  0  0  0  0  0  0  0  0
  1  6  2  0
  2  3  2  0
  2  1  1  0
  3  4  1  0
  4  5  2  0
  5  7  1  0
  6  5  1  0
  7 11  1  0
  7  8  2  0
  8  9  1  0
 10  9  2  0
 11 10  1  0
 12  1  1  0
  2 13  1  0
  3 14  1  0
  8 15  1  0
  9 16  1  0
 10 17  1  0
 12 18  1  0
M  ISO  6  13  14  14  14  15  14  16  14  17  14  18   3
M  END
>  <minimizedAffinity>  (1) 
-4.75170088

>  <minimizedRMSD>  (1) 
1.43799222

$$$$
