
     RDKit          3D

 18 19  0  0  0  0  0  0  0  0999 V2000
   44.8480   35.0210   44.6040 C   0  0  0  0  0  0  0  0  0  0  0  0
   45.6980   34.8850   43.4840 C   0  0  0  0  0  0  0  0  0  0  0  0
   46.7880   34.0130   43.5910 C   0  0  0  0  0  0  0  0  0  0  0  0
   46.9720   33.3450   44.7610 N   0  0  0  0  0  0  0  0  0  0  0  0
   46.1380   33.5040   45.8020 C   0  0  0  0  0  0  0  0  0  0  0  0
   45.0930   34.3270   45.7280 N   0  0  0  0  0  0  0  0  0  0  0  0
   46.3610   32.7870   47.0150 N   0  0  0  0  0  0  0  0  0  0  0  0
   47.3870   32.1610   47.6390 C   0  0  0  0  0  0  0  0  0  0  0  0
   46.8960   31.6530   48.8380 C   0  0  0  0  0  0  0  0  0  0  0  0
   45.5830   31.9680   48.9410 N   0  0  0  0  0  0  0  0  0  0  0  0
   45.2830   32.6530   47.8260 C   0  0  0  0  0  0  0  0  0  0  0  0
   43.7870   35.8680   44.5020 O   0  0  0  0  0  0  0  0  0  0  0  0
   45.5094   35.4465   42.5571 H   0  0  0  0  0  0  0  0  0  0  0  0
   47.4799   33.8714   42.7477 H   0  0  0  0  0  0  0  0  0  0  0  0
   48.4182   32.0707   47.2668 H   0  0  0  0  0  0  0  0  0  0  0  0
   47.4789   31.0882   49.5804 H   0  0  0  0  0  0  0  0  0  0  0  0
   44.2851   33.0560   47.5985 H   0  0  0  0  0  0  0  0  0  0  0  0
   43.6308   36.3667   43.6612 H   0  0  0  0  0  0  0  0  0  0  0  0
  1  6  2  0
  2  3  2  0
  2  1  1  0
  3  4  1  0
  4  5  2  0
  5  7  1  0
  6  5  1  0
  7  8  1  0
  7 11  1  0
  8  9  2  0
  9 10  1  0
 11 10  2  0
 12  1  1  0
  2 13  1  0
  3 14  1  0
  8 15  1  0
  9 16  1  0
 11 17  1  0
 12 18  1  0
M  ISO  6  13  14  14  14  15  14  16  14  17  14  18   3
M  END
>  <minimizedAffinity>  (1) 
-4.91393518

>  <minimizedRMSD>  (1) 
1.33717477

$$$$
