
     RDKit          3D

 24 25  0  0  0  0  0  0  0  0999 V2000
   44.6550   35.2780   43.9670 C   0  0  0  0  0  0  0  0  0  0  0  0
   45.3760   35.7260   42.8550 C   0  0  0  0  0  0  0  0  0  0  0  0
   46.6250   35.1030   42.6140 C   0  0  0  0  0  0  0  0  0  0  0  0
   47.0340   34.1320   43.4580 N   0  0  0  0  0  0  0  0  0  0  0  0
   46.3050   33.7390   44.5100 C   0  0  0  0  0  0  0  0  0  0  0  0
   45.1110   34.3150   44.7630 N   0  0  0  0  0  0  0  0  0  0  0  0
   47.6970   30.6380   46.9660 C   0  0  0  0  0  0  0  0  0  0  0  0
   47.6870   30.4490   45.5990 C   0  0  0  0  0  0  0  0  0  0  0  0
   47.2260   31.4850   44.8430 C   0  0  0  0  0  0  0  0  0  0  0  0
   46.7840   32.6780   45.4060 C   0  0  0  0  0  0  0  0  0  0  0  0
   46.8120   32.8250   46.7850 C   0  0  0  0  0  0  0  0  0  0  0  0
   47.2740   31.7940   47.5860 C   0  0  0  0  0  0  0  0  0  0  0  0
   48.2980   29.2880   47.9390 S   0  0  0  0  0  0  0  0  0  0  0  0
   48.0200   27.9780   47.2930 O   0  0  0  0  0  0  0  0  0  0  0  0
   49.7430   29.5370   48.2240 O   0  0  0  0  0  0  0  0  0  0  0  0
   43.4430   35.8870   44.1940 O   0  0  0  0  0  0  0  0  0  0  0  0
   44.9921   36.5224   42.2005 H   0  0  0  0  0  0  0  0  0  0  0  0
   47.2477   35.4036   41.7585 H   0  0  0  0  0  0  0  0  0  0  0  0
   48.0335   29.5099   45.1428 H   0  0  0  0  0  0  0  0  0  0  0  0
   47.2025   31.3740   43.7489 H   0  0  0  0  0  0  0  0  0  0  0  0
   46.4663   33.7631   47.2437 H   0  0  0  0  0  0  0  0  0  0  0  0
   47.3024   31.8944   48.6810 H   0  0  0  0  0  0  0  0  0  0  0  0
   47.6338   29.2147   49.1350 H   0  0  0  0  0  0  0  0  0  0  0  0
   43.1265   36.6015   43.5862 H   0  0  0  0  0  0  0  0  0  0  0  0
  1 16  1  0
  1  6  2  0
  2  1  1  0
  3  2  2  0
  3  4  1  0
  4  5  2  0
  5  6  1  0
  5 10  1  0
  7 12  2  0
  7 13  1  0
  8  7  1  0
  9 10  1  0
  9  8  2  0
 10 11  2  0
 11 12  1  0
 13 15  2  0
 14 13  2  0
  2 17  1  0
  3 18  1  0
  8 19  1  0
  9 20  1  0
 11 21  1  0
 12 22  1  0
 13 23  1  0
 16 24  1  0
M  ISO  8  17  14  18  14  19  14  20  14  21  14  22  14  23  11  24   3
M  END
>  <minimizedAffinity>  (1) 
-4.79749393

>  <minimizedRMSD>  (1) 
0.974283457

$$$$
