
     RDKit          3D

 24 25  0  0  0  0  0  0  0  0999 V2000
   47.3420   33.8170   42.5980 C   0  0  0  0  0  0  0  0  0  0  0  0
   44.6900   36.0150   44.2000 C   0  0  0  0  0  0  0  0  0  0  0  0
   45.5890   35.5510   43.2400 C   0  0  0  0  0  0  0  0  0  0  0  0
   46.3440   34.4160   43.5370 C   0  0  0  0  0  0  0  0  0  0  0  0
   46.1620   33.8210   44.7550 N   0  0  0  0  0  0  0  0  0  0  0  0
   45.2740   34.3040   45.6650 C   0  0  0  0  0  0  0  0  0  0  0  0
   44.5550   35.3900   45.3740 N   0  0  0  0  0  0  0  0  0  0  0  0
   47.8230   34.8620   41.6010 C   0  0  0  0  0  0  0  0  0  0  0  0
   47.5860   34.3770   40.2360 C   0  0  0  0  0  0  0  0  0  0  0  0
   48.3890   34.6600   39.1570 C   0  0  0  0  0  0  0  0  0  0  0  0
   48.2150   34.2340   37.8640 C   0  0  0  0  0  0  0  0  0  0  0  0
   47.1200   33.4470   37.6600 N   0  0  0  0  0  0  0  0  0  0  0  0
   46.3030   33.1450   38.7080 C   0  0  0  0  0  0  0  0  0  0  0  0
   46.5070   33.5850   39.9720 N   0  0  0  0  0  0  0  0  0  0  0  0
   48.2013   33.4414   43.1730 H   0  0  0  0  0  0  0  0  0  0  0  0
   46.8659   32.9912   42.0490 H   0  0  0  0  0  0  0  0  0  0  0  0
   44.0834   36.9079   43.9882 H   0  0  0  0  0  0  0  0  0  0  0  0
   45.6998   36.0662   42.2744 H   0  0  0  0  0  0  0  0  0  0  0  0
   45.1491   33.8021   46.6358 H   0  0  0  0  0  0  0  0  0  0  0  0
   47.2716   35.8007   41.7581 H   0  0  0  0  0  0  0  0  0  0  0  0
   48.8985   35.0416   41.7462 H   0  0  0  0  0  0  0  0  0  0  0  0
   49.2652   35.2962   39.3506 H   0  0  0  0  0  0  0  0  0  0  0  0
   48.9066   34.5068   37.0533 H   0  0  0  0  0  0  0  0  0  0  0  0
   45.4276   32.5072   38.5160 H   0  0  0  0  0  0  0  0  0  0  0  0
  1  4  1  0
  2  7  2  0
  3  4  2  0
  3  2  1  0
  4  5  1  0
  5  6  2  0
  7  6  1  0
  8  1  1  0
  9  8  1  0
 10  9  2  0
 11 10  1  0
 12 11  2  0
 12 13  1  0
 13 14  2  0
 14  9  1  0
  1 15  1  0
  1 16  1  0
  2 17  1  0
  3 18  1  0
  6 19  1  0
  8 20  1  0
  8 21  1  0
 10 22  1  0
 11 23  1  0
 13 24  1  0
M  ISO  8  15   8  16   8  17  14  18  14  19  14  20   8  21   8  22  14
M  ISO  2  23  14  24  14
M  END
>  <minimizedAffinity>  (1) 
-4.27284622

>  <minimizedRMSD>  (1) 
1.9688623

$$$$
