
     RDKit          3D

 20 20  0  0  0  0  0  0  0  0999 V2000
   44.8490   35.0690   44.4950 C   0  0  0  0  0  0  0  0  0  0  0  0
   45.6310   35.0810   43.3120 C   0  0  0  0  0  0  0  0  0  0  0  0
   46.7700   34.2610   43.3030 C   0  0  0  0  0  0  0  0  0  0  0  0
   47.0550   33.5190   44.3960 N   0  0  0  0  0  0  0  0  0  0  0  0
   46.2790   33.5390   45.4990 C   0  0  0  0  0  0  0  0  0  0  0  0
   45.1900   34.3080   45.5430 N   0  0  0  0  0  0  0  0  0  0  0  0
   46.6110   32.7140   46.6940 C   0  0  0  0  0  0  0  0  0  0  0  0
   45.3640   32.6950   47.5820 C   0  0  0  0  0  0  0  0  0  0  0  0
   46.9500   31.3010   46.3460 C   0  0  0  0  0  0  0  0  0  0  0  0
   43.7430   35.8660   44.5030 O   0  0  0  0  0  0  0  0  0  0  0  0
   45.3587   35.7015   42.4455 H   0  0  0  0  0  0  0  0  0  0  0  0
   47.4221   34.2228   42.4180 H   0  0  0  0  0  0  0  0  0  0  0  0
   47.4906   33.1527   47.1879 H   0  0  0  0  0  0  0  0  0  0  0  0
   45.6668   32.6996   48.6395 H   0  0  0  0  0  0  0  0  0  0  0  0
   44.7509   33.5839   47.3723 H   0  0  0  0  0  0  0  0  0  0  0  0
   44.7783   31.7878   47.3723 H   0  0  0  0  0  0  0  0  0  0  0  0
   47.0895   30.7194   47.2692 H   0  0  0  0  0  0  0  0  0  0  0  0
   46.1317   30.8622   45.7563 H   0  0  0  0  0  0  0  0  0  0  0  0
   47.8784   31.2812   45.7563 H   0  0  0  0  0  0  0  0  0  0  0  0
   43.5227   36.4149   43.7091 H   0  0  0  0  0  0  0  0  0  0  0  0
  1 10  1  0
  1  6  2  0
  2  1  1  0
  3  2  2  0
  3  4  1  0
  4  5  2  0
  5  6  1  0
  5  7  1  0
  7  8  1  0
  9  7  1  0
  2 11  1  0
  3 12  1  0
  7 13  1  0
  8 14  1  0
  8 15  1  0
  8 16  1  0
  9 17  1  0
  9 18  1  0
  9 19  1  0
 10 20  1  0
M  ISO  8  11  14  12  14  13   8  14   8  15   8  16   8  17   8  18   8
M  ISO  2  19   8  20   3
M  END
>  <minimizedAffinity>  (1) 
-3.9995842

>  <minimizedRMSD>  (1) 
0.778040767

$$$$
