
     RDKit          3D

 12 12  0  0  0  0  0  0  0  0999 V2000
   44.7500   35.2110   44.2340 C   0  0  0  0  0  0  0  0  0  0  0  0
   45.5850   35.2970   43.1060 C   0  0  0  0  0  0  0  0  0  0  0  0
   46.7490   34.5210   43.0980 C   0  0  0  0  0  0  0  0  0  0  0  0
   47.0060   33.7290   44.1790 N   0  0  0  0  0  0  0  0  0  0  0  0
   46.1790   33.6800   45.2340 C   0  0  0  0  0  0  0  0  0  0  0  0
   45.0510   34.4190   45.2620 N   0  0  0  0  0  0  0  0  0  0  0  0
   43.6180   35.9690   44.2350 O   0  0  0  0  0  0  0  0  0  0  0  0
   46.6990   32.5820   46.5430 S   0  0  0  0  0  0  0  0  0  0  0  0
   45.3318   35.9518   42.2591 H   0  0  0  0  0  0  0  0  0  0  0  0
   47.4394   34.5486   42.2421 H   0  0  0  0  0  0  0  0  0  0  0  0
   43.4116   36.5514   43.4615 H   0  0  0  0  0  0  0  0  0  0  0  0
   46.4268   33.1569   47.7564 H   0  0  0  0  0  0  0  0  0  0  0  0
  1  7  1  0
  1  6  2  0
  2  1  1  0
  3  2  2  0
  3  4  1  0
  4  5  2  0
  5  6  1  0
  5  8  1  0
  2  9  1  0
  3 10  1  0
  7 11  1  0
  8 12  1  0
M  ISO  4   9  14  10  14  11   3  12  11
M  END
>  <minimizedAffinity>  (1) 
-3.50814557

>  <minimizedRMSD>  (1) 
0.482255846

$$$$
