
     RDKit          3D

 34 36  0  0  0  0  0  0  0  0999 V2000
   45.5850   35.0530   42.7260 C   0  0  0  0  0  0  0  0  0  0  0  0
   46.7400   34.8710   41.9430 C   0  0  0  0  0  0  0  0  0  0  0  0
   47.7840   34.1040   42.4900 C   0  0  0  0  0  0  0  0  0  0  0  0
   47.6490   33.5780   43.7230 N   0  0  0  0  0  0  0  0  0  0  0  0
   46.5140   33.7820   44.4410 C   0  0  0  0  0  0  0  0  0  0  0  0
   45.4950   34.5100   43.9530 N   0  0  0  0  0  0  0  0  0  0  0  0
   46.2870   33.2690   45.7500 N   0  0  0  0  0  0  0  0  0  0  0  0
   47.0340   32.2890   46.3100 C   0  0  0  0  0  0  0  0  0  0  0  0
   46.7140   31.8780   47.5990 C   0  0  0  0  0  0  0  0  0  0  0  0
   45.6720   32.4470   48.2880 C   0  0  0  0  0  0  0  0  0  0  0  0
   45.4600   32.0120   49.4410 O   0  0  0  0  0  0  0  0  0  0  0  0
   44.9780   33.4160   47.6570 N   0  0  0  0  0  0  0  0  0  0  0  0
   45.2710   33.8280   46.4100 C   0  0  0  0  0  0  0  0  0  0  0  0
   44.5160   34.7400   45.9880 O   0  0  0  0  0  0  0  0  0  0  0  0
   44.5900   35.7850   42.2040 O   0  0  0  0  0  0  0  0  0  0  0  0
   43.7160   35.5410   41.1610 C   0  0  0  0  0  0  0  0  0  0  0  0
   43.8970   34.1600   40.5640 C   0  0  0  0  0  0  0  0  0  0  0  0
   42.4930   33.9030   40.0050 C   0  0  0  0  0  0  0  0  0  0  0  0
   41.6620   34.2300   41.2280 C   0  0  0  0  0  0  0  0  0  0  0  0
   42.3180   35.4480   41.7900 C   0  0  0  0  0  0  0  0  0  0  0  0
   46.8232   35.3129   40.9391 H   0  0  0  0  0  0  0  0  0  0  0  0
   48.7059   33.9344   41.9143 H   0  0  0  0  0  0  0  0  0  0  0  0
   47.8701   31.8310   45.7611 H   0  0  0  0  0  0  0  0  0  0  0  0
   47.3063   31.0828   48.0752 H   0  0  0  0  0  0  0  0  0  0  0  0
   44.1902   33.8595   48.1506 H   0  0  0  0  0  0  0  0  0  0  0  0
   43.8720   36.3233   40.4036 H   0  0  0  0  0  0  0  0  0  0  0  0
   44.6561   34.1593   39.7679 H   0  0  0  0  0  0  0  0  0  0  0  0
   44.2506   33.3990   41.2752 H   0  0  0  0  0  0  0  0  0  0  0  0
   42.2602   34.5706   39.1623 H   0  0  0  0  0  0  0  0  0  0  0  0
   42.3349   32.8958   39.5920 H   0  0  0  0  0  0  0  0  0  0  0  0
   40.6192   34.4405   40.9482 H   0  0  0  0  0  0  0  0  0  0  0  0
   41.6199   33.3993   41.9479 H   0  0  0  0  0  0  0  0  0  0  0  0
   42.4015   35.3607   42.8833 H   0  0  0  0  0  0  0  0  0  0  0  0
   41.7277   36.3486   41.5655 H   0  0  0  0  0  0  0  0  0  0  0  0
  1  6  2  0
  2  3  2  0
  2  1  1  0
  3  4  1  0
  4  5  2  0
  5  7  1  0
  6  5  1  0
  7  8  1  0
  7 13  1  0
  8  9  2  0
  9 10  1  0
 10 11  2  0
 12 10  1  0
 13 12  1  0
 14 13  2  0
 15  1  1  0
 16 20  1  0
 16 15  1  0
 17 16  1  0
 18 17  1  0
 18 19  1  0
 19 20  1  0
  2 21  1  0
  3 22  1  0
  8 23  1  0
  9 24  1  0
 12 25  1  0
 16 26  1  0
 17 27  1  0
 17 28  1  0
 18 29  1  0
 18 30  1  0
 19 31  1  0
 19 32  1  0
 20 33  1  0
 20 34  1  0
M  ISO  8  21  14  22  14  23  14  24  14  25   9  26  13  27  13  28  13
M  ISO  6  29  13  30  13  31  13  32  13  33  13  34  13
M  END
>  <minimizedAffinity>  (1) 
-6.2357254

>  <minimizedRMSD>  (1) 
1.49639153

$$$$
