
     RDKit          3D

 33 35  0  0  1  0  0  0  0  0999 V2000
   45.4760   34.9370   42.7030 C   0  0  0  0  0  0  0  0  0  0  0  0
   46.6440   34.7590   41.9170 C   0  0  0  0  0  0  0  0  0  0  0  0
   47.7160   34.0510   42.4600 C   0  0  0  0  0  0  0  0  0  0  0  0
   47.6110   33.5630   43.7050 N   0  0  0  0  0  0  0  0  0  0  0  0
   46.4940   33.7390   44.4460 C   0  0  0  0  0  0  0  0  0  0  0  0
   45.4550   34.4130   43.9470 N   0  0  0  0  0  0  0  0  0  0  0  0
   46.3130   33.2500   45.7690 N   0  0  0  0  0  0  0  0  0  0  0  0
   47.1220   32.3310   46.3460 C   0  0  0  0  0  0  0  0  0  0  0  0
   46.8350   31.9360   47.6510 C   0  0  0  0  0  0  0  0  0  0  0  0
   45.7500   32.4760   48.3240 C   0  0  0  0  0  0  0  0  0  0  0  0
   45.5560   32.0690   49.4970 O   0  0  0  0  0  0  0  0  0  0  0  0
   44.9870   33.3940   47.6750 N   0  0  0  0  0  0  0  0  0  0  0  0
   45.2650   33.7750   46.4180 C   0  0  0  0  0  0  0  0  0  0  0  0
   44.4550   34.6270   45.9830 O   0  0  0  0  0  0  0  0  0  0  0  0
   44.4350   35.6150   42.1950 O   0  0  0  0  0  0  0  0  0  0  0  0
   43.8520   34.0050   40.6150 N   0  0  0  0  0  0  0  0  0  0  0  0
   42.8710   33.4370   41.5380 C   0  0  0  0  0  0  0  0  0  0  0  0
   41.6870   34.3320   41.2710 C   0  0  0  0  0  0  0  0  0  0  0  0
   42.3110   35.6970   41.2190 C   0  0  0  0  0  0  0  0  0  0  0  0
   43.8050   35.4270   40.9860 C   0  0  1  0  0  0  0  0  0  0  0  0
   46.7028   35.1715   40.8990 H   0  0  0  0  0  0  0  0  0  0  0  0
   48.6347   33.8950   41.8755 H   0  0  0  0  0  0  0  0  0  0  0  0
   47.9796   31.9090   45.8015 H   0  0  0  0  0  0  0  0  0  0  0  0
   47.4729   31.1916   48.1500 H   0  0  0  0  0  0  0  0  0  0  0  0
   44.1767   33.8071   48.1585 H   0  0  0  0  0  0  0  0  0  0  0  0
   43.5738   33.8617   39.6337 H   0  0  0  0  0  0  0  0  0  0  0  0
   42.6481   32.3871   41.2973 H   0  0  0  0  0  0  0  0  0  0  0  0
   43.1949   33.4088   42.5889 H   0  0  0  0  0  0  0  0  0  0  0  0
   41.2060   34.0789   40.3147 H   0  0  0  0  0  0  0  0  0  0  0  0
   40.8930   34.2432   42.0271 H   0  0  0  0  0  0  0  0  0  0  0  0
   41.8886   36.2866   40.3919 H   0  0  0  0  0  0  0  0  0  0  0  0
   42.1282   36.2762   42.1361 H   0  0  0  0  0  0  0  0  0  0  0  0
   44.2769   36.0668   40.2258 H   0  0  0  0  0  0  0  0  0  0  0  0
  1  6  2  0
  2  3  2  0
  2  1  1  0
  3  4  1  0
  4  5  2  0
  5  7  1  0
  6  5  1  0
  7  8  1  0
  7 13  1  0
  8  9  2  0
  9 10  1  0
 10 11  2  0
 12 10  1  0
 13 12  1  0
 14 13  2  0
 15  1  1  0
 16 20  1  0
 16 17  1  0
 18 17  1  0
 19 18  1  0
 20 19  1  0
 20 15  1  0
  2 21  1  0
  3 22  1  0
  8 23  1  0
  9 24  1  0
 12 25  1  0
 16 26  1  0
 17 27  1  0
 17 28  1  0
 18 29  1  0
 18 30  1  0
 19 31  1  0
 19 32  1  0
 20 33  1  6
M  ISO  8  21  14  22  14  23  14  24  14  25   9  26   5  27  13  28  13
M  ISO  5  29  13  30  13  31  13  32  13  33  13
M  END
>  <minimizedAffinity>  (1) 
-5.86655569

>  <minimizedRMSD>  (1) 
1.39407539

$$$$
