
     RDKit          3D

 32 34  0  0  0  0  0  0  0  0999 V2000
   45.7910   35.0340   42.7080 C   0  0  0  0  0  0  0  0  0  0  0  0
   46.9500   34.7870   41.9380 C   0  0  0  0  0  0  0  0  0  0  0  0
   47.9230   33.9730   42.4810 C   0  0  0  0  0  0  0  0  0  0  0  0
   47.7390   33.4500   43.7060 N   0  0  0  0  0  0  0  0  0  0  0  0
   46.6200   33.7030   44.4230 C   0  0  0  0  0  0  0  0  0  0  0  0
   45.6570   34.4900   43.9240 N   0  0  0  0  0  0  0  0  0  0  0  0
   46.3380   33.2010   45.7270 N   0  0  0  0  0  0  0  0  0  0  0  0
   47.0280   32.1730   46.2900 C   0  0  0  0  0  0  0  0  0  0  0  0
   46.6520   31.7820   47.5720 C   0  0  0  0  0  0  0  0  0  0  0  0
   45.6300   32.4090   48.2410 C   0  0  0  0  0  0  0  0  0  0  0  0
   45.3630   31.9950   49.3810 O   0  0  0  0  0  0  0  0  0  0  0  0
   44.9950   33.4310   47.5960 N   0  0  0  0  0  0  0  0  0  0  0  0
   45.3470   33.8160   46.3640 C   0  0  0  0  0  0  0  0  0  0  0  0
   44.6540   34.7720   45.9270 O   0  0  0  0  0  0  0  0  0  0  0  0
   44.8620   35.8370   42.1330 O   0  0  0  0  0  0  0  0  0  0  0  0
   43.5280   35.6090   42.1580 C   0  0  0  0  0  0  0  0  0  0  0  0
   42.6600   35.4660   43.1440 O   0  0  0  0  0  0  0  0  0  0  0  0
   42.5470   35.4430   41.0180 C   0  0  0  0  0  0  0  0  0  0  0  0
   41.2170   35.7560   41.2420 C   0  0  0  0  0  0  0  0  0  0  0  0
   40.1330   35.7040   40.4040 C   0  0  0  0  0  0  0  0  0  0  0  0
   40.4440   35.2660   39.1400 C   0  0  0  0  0  0  0  0  0  0  0  0
   41.7470   34.9400   38.8580 C   0  0  0  0  0  0  0  0  0  0  0  0
   42.7230   35.0310   39.7580 N   0  0  0  0  0  0  0  0  0  0  0  0
   47.0725   35.2293   40.9383 H   0  0  0  0  0  0  0  0  0  0  0  0
   48.8413   33.7538   41.9165 H   0  0  0  0  0  0  0  0  0  0  0  0
   47.8482   31.6719   45.7551 H   0  0  0  0  0  0  0  0  0  0  0  0
   47.1853   30.9527   48.0597 H   0  0  0  0  0  0  0  0  0  0  0  0
   44.2229   33.9196   48.0714 H   0  0  0  0  0  0  0  0  0  0  0  0
   40.9929   36.1041   42.2611 H   0  0  0  0  0  0  0  0  0  0  0  0
   39.1155   35.9851   40.7133 H   0  0  0  0  0  0  0  0  0  0  0  0
   39.6643   35.1782   38.3690 H   0  0  0  0  0  0  0  0  0  0  0  0
   41.9950   34.5887   37.8455 H   0  0  0  0  0  0  0  0  0  0  0  0
  1  6  2  0
  2  3  2  0
  2  1  1  0
  3  4  1  0
  4  5  2  0
  5  7  1  0
  6  5  1  0
  7  8  1  0
  7 13  1  0
  8  9  2  0
  9 10  1  0
 10 11  2  0
 12 10  1  0
 13 12  1  0
 14 13  2  0
 15 16  1  0
 15  1  1  0
 16 17  2  0
 18 19  2  0
 18 16  1  0
 20 19  1  0
 21 20  2  0
 22 21  1  0
 22 23  2  0
 23 18  1  0
  2 24  1  0
  3 25  1  0
  8 26  1  0
  9 27  1  0
 12 28  1  0
 19 29  1  0
 20 30  1  0
 21 31  1  0
 22 32  1  0
M  ISO  8  24  14  25  14  26  14  27  14  28   9  29  14  30  14  31  14
M  ISO  1  32  14
M  END
>  <minimizedAffinity>  (1) 
-6.67697954

>  <minimizedRMSD>  (1) 
1.33985603

$$$$
