
     RDKit          3D

 31 33  0  0  0  0  0  0  0  0999 V2000
   45.6300   35.1690   42.8820 C   0  0  0  0  0  0  0  0  0  0  0  0
   46.7880   34.9940   42.0920 C   0  0  0  0  0  0  0  0  0  0  0  0
   47.7880   34.2080   42.6080 C   0  0  0  0  0  0  0  0  0  0  0  0
   47.6470   33.6470   43.8090 N   0  0  0  0  0  0  0  0  0  0  0  0
   46.5340   33.8270   44.5480 C   0  0  0  0  0  0  0  0  0  0  0  0
   45.5400   34.5800   44.0860 N   0  0  0  0  0  0  0  0  0  0  0  0
   46.2870   33.2700   45.8380 N   0  0  0  0  0  0  0  0  0  0  0  0
   47.0160   32.2420   46.3500 C   0  0  0  0  0  0  0  0  0  0  0  0
   46.6800   31.7680   47.6120 C   0  0  0  0  0  0  0  0  0  0  0  0
   45.6190   32.3500   48.3070 C   0  0  0  0  0  0  0  0  0  0  0  0
   45.3470   31.8920   49.4430 O   0  0  0  0  0  0  0  0  0  0  0  0
   44.9500   33.3700   47.7180 N   0  0  0  0  0  0  0  0  0  0  0  0
   45.2810   33.8190   46.5060 C   0  0  0  0  0  0  0  0  0  0  0  0
   44.5520   34.7740   46.1140 O   0  0  0  0  0  0  0  0  0  0  0  0
   44.6550   35.9500   42.3380 O   0  0  0  0  0  0  0  0  0  0  0  0
   43.5000   35.4840   41.8230 C   0  0  0  0  0  0  0  0  0  0  0  0
   42.2550   35.5490   42.2370 O   0  0  0  0  0  0  0  0  0  0  0  0
   43.2650   34.7090   40.5320 C   0  0  0  0  0  0  0  0  0  0  0  0
   42.3320   35.0240   39.5820 C   0  0  0  0  0  0  0  0  0  0  0  0
   42.1580   34.3030   38.4090 C   0  0  0  0  0  0  0  0  0  0  0  0
   42.9620   33.2420   38.2210 N   0  0  0  0  0  0  0  0  0  0  0  0
   43.8860   32.9130   39.1400 C   0  0  0  0  0  0  0  0  0  0  0  0
   43.9930   33.6480   40.2360 N   0  0  0  0  0  0  0  0  0  0  0  0
   46.8843   35.4681   41.1041 H   0  0  0  0  0  0  0  0  0  0  0  0
   48.7082   34.0406   42.0290 H   0  0  0  0  0  0  0  0  0  0  0  0
   47.8471   31.7990   45.7816 H   0  0  0  0  0  0  0  0  0  0  0  0
   47.2469   30.9389   48.0607 H   0  0  0  0  0  0  0  0  0  0  0  0
   44.1652   33.8105   48.2189 H   0  0  0  0  0  0  0  0  0  0  0  0
   41.6848   35.8960   39.7575 H   0  0  0  0  0  0  0  0  0  0  0  0
   41.3971   34.5867   37.6670 H   0  0  0  0  0  0  0  0  0  0  0  0
   44.5439   32.0454   38.9837 H   0  0  0  0  0  0  0  0  0  0  0  0
  1  6  2  0
  2  3  2  0
  2  1  1  0
  3  4  1  0
  4  5  2  0
  5  7  1  0
  6  5  1  0
  7  8  1  0
  7 13  1  0
  8  9  2  0
  9 10  1  0
 10 11  2  0
 12 10  1  0
 13 12  1  0
 14 13  2  0
 15  1  1  0
 16 17  2  0
 16 15  1  0
 18 16  1  0
 19 18  2  0
 20 19  1  0
 21 20  2  0
 21 22  1  0
 22 23  2  0
 23 18  1  0
  2 24  1  0
  3 25  1  0
  8 26  1  0
  9 27  1  0
 12 28  1  0
 19 29  1  0
 20 30  1  0
 22 31  1  0
M  ISO  8  24  14  25  14  26  14  27  14  28   9  29  14  30  14  31  14
M  END
>  <minimizedAffinity>  (1) 
-6.34910393

>  <minimizedRMSD>  (1) 
1.18657649

$$$$
