
     RDKit          3D

 30 32  0  0  0  0  0  0  0  0999 V2000
   45.5750   35.2110   42.9550 C   0  0  0  0  0  0  0  0  0  0  0  0
   46.7330   35.0420   42.1540 C   0  0  0  0  0  0  0  0  0  0  0  0
   47.7430   34.2440   42.6540 C   0  0  0  0  0  0  0  0  0  0  0  0
   47.6040   33.6630   43.8560 N   0  0  0  0  0  0  0  0  0  0  0  0
   46.4900   33.8420   44.6000 C   0  0  0  0  0  0  0  0  0  0  0  0
   45.5040   34.6010   44.1490 N   0  0  0  0  0  0  0  0  0  0  0  0
   46.2490   33.2730   45.8850 N   0  0  0  0  0  0  0  0  0  0  0  0
   46.9810   32.2600   46.3930 C   0  0  0  0  0  0  0  0  0  0  0  0
   46.6690   31.7790   47.6520 C   0  0  0  0  0  0  0  0  0  0  0  0
   45.6330   32.3270   48.3690 C   0  0  0  0  0  0  0  0  0  0  0  0
   45.3800   31.8680   49.5010 O   0  0  0  0  0  0  0  0  0  0  0  0
   44.9400   33.3510   47.7810 N   0  0  0  0  0  0  0  0  0  0  0  0
   45.2450   33.8120   46.5640 C   0  0  0  0  0  0  0  0  0  0  0  0
   44.5060   34.7540   46.1810 O   0  0  0  0  0  0  0  0  0  0  0  0
   44.6010   35.9970   42.4370 O   0  0  0  0  0  0  0  0  0  0  0  0
   43.5070   35.5180   41.8070 C   0  0  0  0  0  0  0  0  0  0  0  0
   42.2250   35.5600   42.0640 O   0  0  0  0  0  0  0  0  0  0  0  0
   43.2910   34.6950   40.4620 C   0  0  0  0  0  0  0  0  0  0  0  0
   42.3610   34.9250   39.6080 C   0  0  0  0  0  0  0  0  0  0  0  0
   42.1630   34.2220   38.4650 C   0  0  0  0  0  0  0  0  0  0  0  0
   43.0610   33.2130   38.2820 C   0  0  0  0  0  0  0  0  0  0  0  0
   44.1620   33.3830   39.8580 S   0  0  0  0  0  0  0  0  0  0  0  0
   46.8233   35.5283   41.1714 H   0  0  0  0  0  0  0  0  0  0  0  0
   48.6602   34.0847   42.0680 H   0  0  0  0  0  0  0  0  0  0  0  0
   47.8106   31.8245   45.8167 H   0  0  0  0  0  0  0  0  0  0  0  0
   47.2541   30.9526   48.0818 H   0  0  0  0  0  0  0  0  0  0  0  0
   44.1570   33.7807   48.2939 H   0  0  0  0  0  0  0  0  0  0  0  0
   41.6717   35.7558   39.8191 H   0  0  0  0  0  0  0  0  0  0  0  0
   41.3545   34.4450   37.7533 H   0  0  0  0  0  0  0  0  0  0  0  0
   43.1379   32.4922   37.4546 H   0  0  0  0  0  0  0  0  0  0  0  0
  1  6  2  0
  2  3  2  0
  2  1  1  0
  3  4  1  0
  4  5  2  0
  5  7  1  0
  6  5  1  0
  7  8  1  0
  7 13  1  0
  8  9  2  0
  9 10  1  0
 10 11  2  0
 12 10  1  0
 13 12  1  0
 14 13  2  0
 15  1  1  0
 16 17  2  0
 16 15  1  0
 18 16  1  0
 19 18  2  0
 20 19  1  0
 21 20  2  0
 21 22  1  0
 22 18  1  0
  2 23  1  0
  3 24  1  0
  8 25  1  0
  9 26  1  0
 12 27  1  0
 19 28  1  0
 20 29  1  0
 21 30  1  0
M  ISO  8  23  14  24  14  25  14  26  14  27   9  28  14  29  14  30  14
M  END
>  <minimizedAffinity>  (1) 
-6.34607983

>  <minimizedRMSD>  (1) 
1.16186297

$$$$
