
     RDKit          3D

 24 25  0  0  0  0  0  0  0  0999 V2000
   45.5680   35.2460   42.9930 C   0  0  0  0  0  0  0  0  0  0  0  0
   46.6940   35.0560   42.1650 C   0  0  0  0  0  0  0  0  0  0  0  0
   47.6770   34.2100   42.6570 C   0  0  0  0  0  0  0  0  0  0  0  0
   47.5390   33.6160   43.8630 N   0  0  0  0  0  0  0  0  0  0  0  0
   46.4430   33.8300   44.6170 C   0  0  0  0  0  0  0  0  0  0  0  0
   45.4690   34.6350   44.1860 N   0  0  0  0  0  0  0  0  0  0  0  0
   46.2020   33.2550   45.8920 N   0  0  0  0  0  0  0  0  0  0  0  0
   46.9150   32.2040   46.3810 C   0  0  0  0  0  0  0  0  0  0  0  0
   46.5820   31.7350   47.6450 C   0  0  0  0  0  0  0  0  0  0  0  0
   45.5720   32.3110   48.3740 C   0  0  0  0  0  0  0  0  0  0  0  0
   45.3480   31.8210   49.4960 O   0  0  0  0  0  0  0  0  0  0  0  0
   44.9210   33.3490   47.8070 N   0  0  0  0  0  0  0  0  0  0  0  0
   45.2180   33.8250   46.5890 C   0  0  0  0  0  0  0  0  0  0  0  0
   44.5120   34.7870   46.2280 O   0  0  0  0  0  0  0  0  0  0  0  0
   44.5800   36.0800   42.5260 O   0  0  0  0  0  0  0  0  0  0  0  0
   43.7660   35.6860   41.4710 C   0  0  0  0  0  0  0  0  0  0  0  0
   42.5080   35.4040   41.5110 O   0  0  0  0  0  0  0  0  0  0  0  0
   43.4140   35.3420   40.1330 O   0  0  0  0  0  0  0  0  0  0  0  0
   46.7871   35.5498   41.1865 H   0  0  0  0  0  0  0  0  0  0  0  0
   48.5800   34.0203   42.0581 H   0  0  0  0  0  0  0  0  0  0  0  0
   47.7250   31.7431   45.7967 H   0  0  0  0  0  0  0  0  0  0  0  0
   47.1380   30.8862   48.0697 H   0  0  0  0  0  0  0  0  0  0  0  0
   44.1591   33.7971   48.3357 H   0  0  0  0  0  0  0  0  0  0  0  0
   44.1008   35.3602   39.4202 H   0  0  0  0  0  0  0  0  0  0  0  0
  1  6  2  0
  2  3  2  0
  2  1  1  0
  3  4  1  0
  4  5  2  0
  5  7  1  0
  6  5  1  0
  7  8  1  0
  7 13  1  0
  8  9  2  0
  9 10  1  0
 10 11  2  0
 12 10  1  0
 13 12  1  0
 14 13  2  0
 15  1  1  0
 16 17  2  0
 16 15  1  0
 18 16  1  0
  2 19  1  0
  3 20  1  0
  8 21  1  0
  9 22  1  0
 12 23  1  0
 18 24  1  0
M  ISO  6  19  14  20  14  21  14  22  14  23   9  24   3
M  END
>  <minimizedAffinity>  (1) 
-6.13511229

>  <minimizedRMSD>  (1) 
0.154947594

$$$$
