
     RDKit          3D

 28 30  0  0  0  0  0  0  0  0999 V2000
   45.0740   34.8180   44.5150 C   0  0  0  0  0  0  0  0  0  0  0  0
   46.0860   34.7960   43.5630 C   0  0  0  0  0  0  0  0  0  0  0  0
   47.0890   33.8360   43.7330 C   0  0  0  0  0  0  0  0  0  0  0  0
   47.0110   33.0060   44.7920 N   0  0  0  0  0  0  0  0  0  0  0  0
   46.0370   33.0380   45.6950 C   0  0  0  0  0  0  0  0  0  0  0  0
   45.1050   33.9540   45.5090 N   0  0  0  0  0  0  0  0  0  0  0  0
   43.9720   35.7380   44.4900 N   0  0  0  0  0  0  0  0  0  0  0  0
   45.8320   32.2050   46.8810 C   0  0  0  0  0  0  0  0  0  0  0  0
   45.8890   32.7350   48.1770 C   0  0  0  0  0  0  0  0  0  0  0  0
   45.7060   32.0000   49.3150 C   0  0  0  0  0  0  0  0  0  0  0  0
   45.4450   30.6550   49.2260 C   0  0  0  0  0  0  0  0  0  0  0  0
   45.3760   30.0750   47.9810 C   0  0  0  0  0  0  0  0  0  0  0  0
   45.1130   28.7230   47.9190 C   0  0  0  0  0  0  0  0  0  0  0  0
   45.0290   28.0760   46.7110 C   0  0  0  0  0  0  0  0  0  0  0  0
   45.2240   28.8630   45.5720 C   0  0  0  0  0  0  0  0  0  0  0  0
   45.4830   30.2090   45.6880 C   0  0  0  0  0  0  0  0  0  0  0  0
   45.5680   30.8580   46.8740 C   0  0  0  0  0  0  0  0  0  0  0  0
   46.0978   35.4991   42.7171 H   0  0  0  0  0  0  0  0  0  0  0  0
   47.9222   33.7602   43.0188 H   0  0  0  0  0  0  0  0  0  0  0  0
   43.8996   36.4344   43.7346 H   0  0  0  0  0  0  0  0  0  0  0  0
   43.2539   35.7015   45.2275 H   0  0  0  0  0  0  0  0  0  0  0  0
   46.0939   33.8103   48.2854 H   0  0  0  0  0  0  0  0  0  0  0  0
   45.7677   32.4853   50.3002 H   0  0  0  0  0  0  0  0  0  0  0  0
   45.2939   30.0525   50.1338 H   0  0  0  0  0  0  0  0  0  0  0  0
   44.9685   28.1551   48.8499 H   0  0  0  0  0  0  0  0  0  0  0  0
   44.8199   26.9982   46.6430 H   0  0  0  0  0  0  0  0  0  0  0  0
   45.1699   28.4020   44.5747 H   0  0  0  0  0  0  0  0  0  0  0  0
   45.6293   30.7909   44.7661 H   0  0  0  0  0  0  0  0  0  0  0  0
  1  6  2  0
  2  3  2  0
  2  1  1  0
  3  4  1  0
  4  5  2  0
  5  8  1  0
  6  5  1  0
  7  1  1  0
  8  9  2  0
  9 10  1  0
 11 10  2  0
 12 11  1  0
 13 12  2  0
 14 13  1  0
 15 16  1  0
 15 14  2  0
 16 17  2  0
 17  8  1  0
 17 12  1  0
  2 18  1  0
  3 19  1  0
  7 20  1  0
  7 21  1  0
  9 22  1  0
 10 23  1  0
 11 24  1  0
 13 25  1  0
 14 26  1  0
 15 27  1  0
 16 28  1  0
M  ISO  8  18  14  19  14  22  14  23  14  24  14  25  14  26  14  27  14
M  ISO  1  28  14
M  END
>  <minimizedAffinity>  (1) 
-5.66017056

>  <minimizedRMSD>  (1) 
0.814852595

$$$$
