
     RDKit          3D

 35 37  0  0  0  0  0  0  0  0999 V2000
   45.8510   32.2520   46.7770 C   0  0  0  0  0  0  0  0  0  0  0  0
   45.9730   32.7700   48.0850 C   0  0  0  0  0  0  0  0  0  0  0  0
   45.8210   32.0220   49.2270 C   0  0  0  0  0  0  0  0  0  0  0  0
   45.5330   30.6880   49.1280 C   0  0  0  0  0  0  0  0  0  0  0  0
   45.4010   30.1260   47.8800 C   0  0  0  0  0  0  0  0  0  0  0  0
   45.1310   28.7880   47.8090 C   0  0  0  0  0  0  0  0  0  0  0  0
   45.0030   28.1490   46.6110 C   0  0  0  0  0  0  0  0  0  0  0  0
   45.1610   28.9440   45.4820 C   0  0  0  0  0  0  0  0  0  0  0  0
   45.4300   30.2870   45.5740 C   0  0  0  0  0  0  0  0  0  0  0  0
   45.5580   30.9060   46.7550 C   0  0  0  0  0  0  0  0  0  0  0  0
   45.0460   34.8320   44.4080 C   0  0  0  0  0  0  0  0  0  0  0  0
   46.1110   34.8690   43.5000 C   0  0  0  0  0  0  0  0  0  0  0  0
   47.1640   33.9580   43.7110 C   0  0  0  0  0  0  0  0  0  0  0  0
   47.0950   33.1200   44.7520 N   0  0  0  0  0  0  0  0  0  0  0  0
   46.0600   33.0990   45.6170 C   0  0  0  0  0  0  0  0  0  0  0  0
   45.0650   33.9660   45.4100 N   0  0  0  0  0  0  0  0  0  0  0  0
   43.9030   35.6800   44.3400 N   0  0  0  0  0  0  0  0  0  0  0  0
   45.3460   30.8970   44.2970 N   0  0  0  0  0  0  0  0  0  0  0  0
   44.1150   31.0520   43.5510 C   0  0  0  0  0  0  0  0  0  0  0  0
   43.2140   30.0990   43.6070 N   0  0  0  0  0  0  0  0  0  0  0  0
   43.7650   32.1750   42.7030 N   0  0  0  0  0  0  0  0  0  0  0  0
   43.3010   29.2300   44.1430 H   0  0  0  0  0  0  0  0  0  0  0  0
   46.2043   33.8396   48.1964 H   0  0  0  0  0  0  0  0  0  0  0  0
   45.9302   32.4926   50.2152 H   0  0  0  0  0  0  0  0  0  0  0  0
   45.4090   30.0747   50.0327 H   0  0  0  0  0  0  0  0  0  0  0  0
   45.0143   28.2133   48.7396 H   0  0  0  0  0  0  0  0  0  0  0  0
   44.7883   27.0723   46.5426 H   0  0  0  0  0  0  0  0  0  0  0  0
   45.0679   28.4843   44.4870 H   0  0  0  0  0  0  0  0  0  0  0  0
   46.1247   35.5781   42.6592 H   0  0  0  0  0  0  0  0  0  0  0  0
   48.0287   33.9357   43.0315 H   0  0  0  0  0  0  0  0  0  0  0  0
   43.8230   36.3771   43.5860 H   0  0  0  0  0  0  0  0  0  0  0  0
   43.1567   35.5959   45.0449 H   0  0  0  0  0  0  0  0  0  0  0  0
   46.2152   31.2521   43.8735 H   0  0  0  0  0  0  0  0  0  0  0  0
   44.4159   32.9669   42.6023 H   0  0  0  0  0  0  0  0  0  0  0  0
   42.8655   32.1808   42.2013 H   0  0  0  0  0  0  0  0  0  0  0  0
  1  2  2  0
  2  3  1  0
  4  3  2  0
  5  4  1  0
  6  5  2  0
  7  6  1  0
  8  9  1  0
  8  7  2  0
  9 10  2  0
 10  1  1  0
 10  5  1  0
 11 16  2  0
 12 13  2  0
 12 11  1  0
 13 14  1  0
 14 15  2  0
 15  1  1  0
 16 15  1  0
 17 11  1  0
 18  9  1  0
 19 20  2  0
 19 18  1  0
 20 22  1  0
 21 19  1  0
  2 23  1  0
  3 24  1  0
  4 25  1  0
  6 26  1  0
  7 27  1  0
  8 28  1  0
 12 29  1  0
 13 30  1  0
 17 31  1  0
 17 32  1  0
 18 33  1  0
 21 34  1  0
 21 35  1  0
M  ISO  8  23  14  24  14  25  14  26  14  27  14  28  14  29  14  30  14
M  END
>  <minimizedAffinity>  (1) 
-5.99305248

>  <minimizedRMSD>  (1) 
0.608763099

$$$$
