
     RDKit          3D

 42 46  0  0  0  0  0  0  0  0999 V2000
   45.9460   32.3900   46.4820 C   0  0  0  0  0  0  0  0  0  0  0  0
   45.9990   32.9460   47.7810 C   0  0  0  0  0  0  0  0  0  0  0  0
   45.8200   32.2410   48.9390 C   0  0  0  0  0  0  0  0  0  0  0  0
   45.5690   30.8820   48.8550 C   0  0  0  0  0  0  0  0  0  0  0  0
   45.5060   30.2840   47.6260 C   0  0  0  0  0  0  0  0  0  0  0  0
   45.2630   28.9370   47.5950 C   0  0  0  0  0  0  0  0  0  0  0  0
   45.1920   28.2720   46.3810 C   0  0  0  0  0  0  0  0  0  0  0  0
   45.3780   29.0500   45.2280 C   0  0  0  0  0  0  0  0  0  0  0  0
   45.6210   30.4110   45.3330 C   0  0  0  0  0  0  0  0  0  0  0  0
   45.6930   31.0510   46.5080 C   0  0  0  0  0  0  0  0  0  0  0  0
   45.6410   30.8590   43.9410 C   0  0  0  0  0  0  0  0  0  0  0  0
   44.5340   31.3660   43.3580 N   0  0  0  0  0  0  0  0  0  0  0  0
   44.5650   31.7290   42.0650 C   0  0  0  0  0  0  0  0  0  0  0  0
   45.6780   31.5990   41.3280 N   0  0  0  0  0  0  0  0  0  0  0  0
   46.8140   31.1120   41.8150 C   0  0  0  0  0  0  0  0  0  0  0  0
   47.9470   30.9950   41.0430 C   0  0  0  0  0  0  0  0  0  0  0  0
   49.1030   30.4930   41.6000 C   0  0  0  0  0  0  0  0  0  0  0  0
   49.0590   30.1170   42.9530 C   0  0  0  0  0  0  0  0  0  0  0  0
   47.9370   30.2220   43.7490 C   0  0  0  0  0  0  0  0  0  0  0  0
   46.8050   30.7310   43.1480 C   0  0  0  0  0  0  0  0  0  0  0  0
   45.1450   34.8050   43.9470 C   0  0  0  0  0  0  0  0  0  0  0  0
   46.2860   34.9240   43.1430 C   0  0  0  0  0  0  0  0  0  0  0  0
   47.3830   34.1330   43.4830 C   0  0  0  0  0  0  0  0  0  0  0  0
   47.2640   33.3260   44.5440 N   0  0  0  0  0  0  0  0  0  0  0  0
   46.1720   33.2150   45.3100 C   0  0  0  0  0  0  0  0  0  0  0  0
   45.1260   33.9750   44.9780 N   0  0  0  0  0  0  0  0  0  0  0  0
   43.9270   35.5390   43.7390 N   0  0  0  0  0  0  0  0  0  0  0  0
   46.1988   34.0243   47.8663 H   0  0  0  0  0  0  0  0  0  0  0  0
   45.8743   32.7429   49.9163 H   0  0  0  0  0  0  0  0  0  0  0  0
   45.4214   30.2879   49.7689 H   0  0  0  0  0  0  0  0  0  0  0  0
   45.1240   28.3820   48.5345 H   0  0  0  0  0  0  0  0  0  0  0  0
   44.9998   27.1904   46.3243 H   0  0  0  0  0  0  0  0  0  0  0  0
   45.3308   28.5776   44.2357 H   0  0  0  0  0  0  0  0  0  0  0  0
   43.6575   32.1420   41.6004 H   0  0  0  0  0  0  0  0  0  0  0  0
   47.9300   31.3007   39.9865 H   0  0  0  0  0  0  0  0  0  0  0  0
   50.0246   30.3906   41.0083 H   0  0  0  0  0  0  0  0  0  0  0  0
   49.9766   29.7136   43.4061 H   0  0  0  0  0  0  0  0  0  0  0  0
   47.9450   29.9163   44.8056 H   0  0  0  0  0  0  0  0  0  0  0  0
   46.3153   35.6096   42.2833 H   0  0  0  0  0  0  0  0  0  0  0  0
   48.3144   34.1711   42.8990 H   0  0  0  0  0  0  0  0  0  0  0  0
   43.8553   36.2073   42.9585 H   0  0  0  0  0  0  0  0  0  0  0  0
   43.1258   35.3968   44.3704 H   0  0  0  0  0  0  0  0  0  0  0  0
  1 10  1  0
  1  2  2  0
  2  3  1  0
  4  3  2  0
  5  4  1  0
  6  5  2  0
  7  6  1  0
  8  9  1  0
  8  7  2  0
  9 10  2  0
 10  5  1  0
 11  9  1  0
 12 11  2  0
 13 12  1  0
 14 15  1  0
 14 13  2  0
 15 20  2  0
 16 17  2  0
 16 15  1  0
 17 18  1  0
 18 19  2  0
 20 19  1  0
 20 11  1  0
 21 26  2  0
 22 23  2  0
 22 21  1  0
 23 24  1  0
 24 25  2  0
 25  1  1  0
 26 25  1  0
 27 21  1  0
  2 28  1  0
  3 29  1  0
  4 30  1  0
  6 31  1  0
  7 32  1  0
  8 33  1  0
 13 34  1  0
 16 35  1  0
 17 36  1  0
 18 37  1  0
 19 38  1  0
 22 39  1  0
 23 40  1  0
 27 41  1  0
 27 42  1  0
M  ISO  8  28  14  29  14  30  14  31  14  32  14  33  14  34  14  35  14
M  ISO  5  36  14  37  14  38  14  39  14  40  14
M  END
>  <minimizedAffinity>  (1) 
-5.87178612

>  <minimizedRMSD>  (1) 
0.472744614

$$$$
