
     RDKit          3D

 39 43  0  0  0  0  0  0  0  0999 V2000
   46.3540   32.5270   45.9570 C   0  0  0  0  0  0  0  0  0  0  0  0
   46.7310   32.9480   47.2560 C   0  0  0  0  0  0  0  0  0  0  0  0
   46.7730   32.1200   48.3510 C   0  0  0  0  0  0  0  0  0  0  0  0
   46.4380   30.8040   48.2080 C   0  0  0  0  0  0  0  0  0  0  0  0
   46.0640   30.3360   46.9740 C   0  0  0  0  0  0  0  0  0  0  0  0
   45.7420   29.0090   46.8710 C   0  0  0  0  0  0  0  0  0  0  0  0
   45.3620   28.4710   45.6570 C   0  0  0  0  0  0  0  0  0  0  0  0
   45.3280   29.3560   44.5630 C   0  0  0  0  0  0  0  0  0  0  0  0
   45.6660   30.6890   44.7350 C   0  0  0  0  0  0  0  0  0  0  0  0
   46.0370   31.2030   45.9150 C   0  0  0  0  0  0  0  0  0  0  0  0
   45.0280   35.0780   43.7880 C   0  0  0  0  0  0  0  0  0  0  0  0
   46.0300   35.3300   42.8430 C   0  0  0  0  0  0  0  0  0  0  0  0
   47.2030   34.5990   42.9530 C   0  0  0  0  0  0  0  0  0  0  0  0
   47.2900   33.7140   43.9460 N   0  0  0  0  0  0  0  0  0  0  0  0
   46.3620   33.4560   44.8460 C   0  0  0  0  0  0  0  0  0  0  0  0
   45.2400   34.1730   44.7220 N   0  0  0  0  0  0  0  0  0  0  0  0
   43.7520   35.7380   43.8360 N   0  0  0  0  0  0  0  0  0  0  0  0
   45.4630   31.2350   43.4350 N   0  0  0  0  0  0  0  0  0  0  0  0
   44.3420   31.8700   42.9360 C   0  0  0  0  0  0  0  0  0  0  0  0
   44.5730   32.2960   41.6800 N   0  0  0  0  0  0  0  0  0  0  0  0
   45.8250   31.9630   41.3200 C   0  0  0  0  0  0  0  0  0  0  0  0
   46.5610   32.1590   40.1690 C   0  0  0  0  0  0  0  0  0  0  0  0
   47.8300   31.7200   40.0770 N   0  0  0  0  0  0  0  0  0  0  0  0
   48.3520   31.0840   41.1420 C   0  0  0  0  0  0  0  0  0  0  0  0
   47.6340   30.8910   42.2650 N   0  0  0  0  0  0  0  0  0  0  0  0
   46.3690   31.3100   42.4060 C   0  0  0  0  0  0  0  0  0  0  0  0
   47.0072   34.0035   47.3964 H   0  0  0  0  0  0  0  0  0  0  0  0
   47.0735   32.5131   49.3334 H   0  0  0  0  0  0  0  0  0  0  0  0
   46.4677   30.1260   49.0737 H   0  0  0  0  0  0  0  0  0  0  0  0
   45.7864   28.3662   47.7625 H   0  0  0  0  0  0  0  0  0  0  0  0
   45.1000   27.4080   45.5508 H   0  0  0  0  0  0  0  0  0  0  0  0
   45.0324   28.9887   43.5691 H   0  0  0  0  0  0  0  0  0  0  0  0
   45.8924   36.0765   42.0469 H   0  0  0  0  0  0  0  0  0  0  0  0
   48.0328   34.7443   42.2456 H   0  0  0  0  0  0  0  0  0  0  0  0
   43.5175   36.4571   43.1368 H   0  0  0  0  0  0  0  0  0  0  0  0
   43.0721   35.4919   44.5696 H   0  0  0  0  0  0  0  0  0  0  0  0
   43.3986   32.0074   43.4848 H   0  0  0  0  0  0  0  0  0  0  0  0
   46.1043   32.6811   39.3153 H   0  0  0  0  0  0  0  0  0  0  0  0
   49.3868   30.7140   41.0943 H   0  0  0  0  0  0  0  0  0  0  0  0
  1  2  2  0
  2  3  1  0
  4  3  2  0
  5  4  1  0
  6  5  2  0
  7  6  1  0
  8  9  1  0
  8  7  2  0
  9 10  2  0
 10  1  1  0
 10  5  1  0
 11 17  1  0
 11 16  2  0
 12 13  2  0
 12 11  1  0
 13 14  1  0
 14 15  2  0
 15  1  1  0
 16 15  1  0
 18  9  1  0
 19 18  1  0
 20 19  2  0
 21 20  1  0
 21 26  2  0
 22 21  1  0
 23 22  2  0
 23 24  1  0
 24 25  2  0
 25 26  1  0
 26 18  1  0
  2 27  1  0
  3 28  1  0
  4 29  1  0
  6 30  1  0
  7 31  1  0
  8 32  1  0
 12 33  1  0
 13 34  1  0
 17 35  1  0
 17 36  1  0
 19 37  1  0
 22 38  1  0
 24 39  1  0
M  ISO  8  27  14  28  14  29  14  30  14  31  14  32  14  33  14  34  14
M  ISO  3  37  14  38  14  39  14
M  END
>  <minimizedAffinity>  (1) 
-5.75441265

>  <minimizedRMSD>  (1) 
1.84004021

$$$$
