
     RDKit          3D

 35 38  0  0  0  0  0  0  0  0999 V2000
   45.9590   32.2750   46.6670 C   0  0  0  0  0  0  0  0  0  0  0  0
   46.1650   32.7950   47.9640 C   0  0  0  0  0  0  0  0  0  0  0  0
   46.0290   32.0740   49.1210 C   0  0  0  0  0  0  0  0  0  0  0  0
   45.6650   30.7460   49.0350 C   0  0  0  0  0  0  0  0  0  0  0  0
   45.4530   30.1930   47.8020 C   0  0  0  0  0  0  0  0  0  0  0  0
   45.1290   28.8590   47.7710 C   0  0  0  0  0  0  0  0  0  0  0  0
   44.9340   28.2160   46.5620 C   0  0  0  0  0  0  0  0  0  0  0  0
   45.0810   28.9980   45.4200 C   0  0  0  0  0  0  0  0  0  0  0  0
   45.4050   30.3440   45.5070 C   0  0  0  0  0  0  0  0  0  0  0  0
   45.5990   30.9520   46.6760 C   0  0  0  0  0  0  0  0  0  0  0  0
   45.1860   34.7670   44.2030 C   0  0  0  0  0  0  0  0  0  0  0  0
   46.2810   34.8050   43.3290 C   0  0  0  0  0  0  0  0  0  0  0  0
   47.3290   33.9430   43.5940 C   0  0  0  0  0  0  0  0  0  0  0  0
   47.2370   33.1340   44.6510 N   0  0  0  0  0  0  0  0  0  0  0  0
   46.1810   33.0960   45.4900 C   0  0  0  0  0  0  0  0  0  0  0  0
   45.1670   33.9330   45.2350 N   0  0  0  0  0  0  0  0  0  0  0  0
   44.0100   35.5880   44.0830 N   0  0  0  0  0  0  0  0  0  0  0  0
   45.4050   30.8080   44.1300 C   0  0  0  0  0  0  0  0  0  0  0  0
   46.3660   30.8560   43.0960 C   0  0  0  0  0  0  0  0  0  0  0  0
   45.9060   31.5490   42.0420 N   0  0  0  0  0  0  0  0  0  0  0  0
   44.6630   31.9870   42.3020 C   0  0  0  0  0  0  0  0  0  0  0  0
   44.4030   31.5350   43.5360 N   0  0  0  0  0  0  0  0  0  0  0  0
   46.4548   33.8525   48.0512 H   0  0  0  0  0  0  0  0  0  0  0  0
   46.2065   32.5446   50.0993 H   0  0  0  0  0  0  0  0  0  0  0  0
   45.5469   30.1402   49.9455 H   0  0  0  0  0  0  0  0  0  0  0  0
   45.0240   28.2991   48.7120 H   0  0  0  0  0  0  0  0  0  0  0  0
   44.6774   27.1478   46.5062 H   0  0  0  0  0  0  0  0  0  0  0  0
   44.9376   28.5402   44.4301 H   0  0  0  0  0  0  0  0  0  0  0  0
   46.3055   35.4909   42.4694 H   0  0  0  0  0  0  0  0  0  0  0  0
   48.2189   33.9246   42.9477 H   0  0  0  0  0  0  0  0  0  0  0  0
   43.9324   36.2671   43.3125 H   0  0  0  0  0  0  0  0  0  0  0  0
   43.2460   35.4965   44.7677 H   0  0  0  0  0  0  0  0  0  0  0  0
   47.3599   30.3875   43.1474 H   0  0  0  0  0  0  0  0  0  0  0  0
   44.0072   32.5820   41.6495 H   0  0  0  0  0  0  0  0  0  0  0  0
   43.5075   31.7212   44.0096 H   0  0  0  0  0  0  0  0  0  0  0  0
  1 10  1  0
  1  2  2  0
  2  3  1  0
  4  3  2  0
  5  4  1  0
  6  5  2  0
  7  6  1  0
  8  9  1  0
  8  7  2  0
  9 10  2  0
 10  5  1  0
 11 16  2  0
 12 13  2  0
 12 11  1  0
 13 14  1  0
 14 15  2  0
 15  1  1  0
 16 15  1  0
 17 11  1  0
 18  9  1  0
 19 18  2  0
 20 21  2  0
 20 19  1  0
 21 22  1  0
 22 18  1  0
  2 23  1  0
  3 24  1  0
  4 25  1  0
  6 26  1  0
  7 27  1  0
  8 28  1  0
 12 29  1  0
 13 30  1  0
 17 31  1  0
 17 32  1  0
 19 33  1  0
 21 34  1  0
 22 35  1  0
M  ISO  8  23  14  24  14  25  14  26  14  27  14  28  14  29  14  30  14
M  ISO  3  33  14  34  14  35   9
M  END
>  <minimizedAffinity>  (1) 
-5.76086521

>  <minimizedRMSD>  (1) 
0.504795671

$$$$
