
     RDKit          3D

 38 41  0  0  0  0  0  0  0  0999 V2000
   45.9520   32.2920   46.6330 C   0  0  0  0  0  0  0  0  0  0  0  0
   46.0160   32.8340   47.9350 C   0  0  0  0  0  0  0  0  0  0  0  0
   45.8250   32.1210   49.0860 C   0  0  0  0  0  0  0  0  0  0  0  0
   45.5480   30.7680   48.9910 C   0  0  0  0  0  0  0  0  0  0  0  0
   45.4720   30.1870   47.7560 C   0  0  0  0  0  0  0  0  0  0  0  0
   45.1850   28.8460   47.7070 C   0  0  0  0  0  0  0  0  0  0  0  0
   45.0830   28.1970   46.4910 C   0  0  0  0  0  0  0  0  0  0  0  0
   45.2860   28.9800   45.3480 C   0  0  0  0  0  0  0  0  0  0  0  0
   45.5710   30.3260   45.4600 C   0  0  0  0  0  0  0  0  0  0  0  0
   45.6720   30.9550   46.6420 C   0  0  0  0  0  0  0  0  0  0  0  0
   45.1600   34.7800   44.1540 C   0  0  0  0  0  0  0  0  0  0  0  0
   46.2780   34.8450   43.3130 C   0  0  0  0  0  0  0  0  0  0  0  0
   47.3390   34.0060   43.6080 C   0  0  0  0  0  0  0  0  0  0  0  0
   47.2160   33.2080   44.6590 N   0  0  0  0  0  0  0  0  0  0  0  0
   46.1820   33.1180   45.4680 C   0  0  0  0  0  0  0  0  0  0  0  0
   45.1570   33.9370   45.1740 N   0  0  0  0  0  0  0  0  0  0  0  0
   43.9750   35.5910   44.0160 N   0  0  0  0  0  0  0  0  0  0  0  0
   45.6530   30.7570   44.1080 N   0  0  0  0  0  0  0  0  0  0  0  0
   44.6710   31.3000   43.3110 C   0  0  0  0  0  0  0  0  0  0  0  0
   44.9390   31.5890   41.9910 C   0  0  0  0  0  0  0  0  0  0  0  0
   46.1740   31.3560   41.4250 C   0  0  0  0  0  0  0  0  0  0  0  0
   46.3480   31.6410   40.2280 O   0  0  0  0  0  0  0  0  0  0  0  0
   47.1570   30.8270   42.1760 N   0  0  0  0  0  0  0  0  0  0  0  0
   46.8720   30.5450   43.4840 C   0  0  0  0  0  0  0  0  0  0  0  0
   47.8330   30.0440   44.1630 O   0  0  0  0  0  0  0  0  0  0  0  0
   46.2354   33.9077   48.0304 H   0  0  0  0  0  0  0  0  0  0  0  0
   45.8902   32.6127   50.0678 H   0  0  0  0  0  0  0  0  0  0  0  0
   45.3908   30.1673   49.8990 H   0  0  0  0  0  0  0  0  0  0  0  0
   45.0353   28.2843   48.6409 H   0  0  0  0  0  0  0  0  0  0  0  0
   44.8546   27.1230   46.4247 H   0  0  0  0  0  0  0  0  0  0  0  0
   45.2177   28.5184   44.3519 H   0  0  0  0  0  0  0  0  0  0  0  0
   46.3116   35.5329   42.4553 H   0  0  0  0  0  0  0  0  0  0  0  0
   48.2507   34.0018   42.9926 H   0  0  0  0  0  0  0  0  0  0  0  0
   43.9032   36.2711   43.2458 H   0  0  0  0  0  0  0  0  0  0  0  0
   43.2007   35.4900   44.6877 H   0  0  0  0  0  0  0  0  0  0  0  0
   43.6734   31.5030   43.7276 H   0  0  0  0  0  0  0  0  0  0  0  0
   44.1412   32.0199   41.3682 H   0  0  0  0  0  0  0  0  0  0  0  0
   48.0898   30.6412   41.7807 H   0  0  0  0  0  0  0  0  0  0  0  0
  1 10  1  0
  1  2  2  0
  2  3  1  0
  4  3  2  0
  5  4  1  0
  6  5  2  0
  7  6  1  0
  8  9  1  0
  8  7  2  0
  9 10  2  0
 10  5  1  0
 11 16  2  0
 12 13  2  0
 12 11  1  0
 13 14  1  0
 14 15  2  0
 15  1  1  0
 16 15  1  0
 17 11  1  0
 18  9  1  0
 19 18  1  0
 20 19  2  0
 21 20  1  0
 21 23  1  0
 22 21  2  0
 23 24  1  0
 24 18  1  0
 24 25  2  0
  2 26  1  0
  3 27  1  0
  4 28  1  0
  6 29  1  0
  7 30  1  0
  8 31  1  0
 12 32  1  0
 13 33  1  0
 17 34  1  0
 17 35  1  0
 19 36  1  0
 20 37  1  0
 23 38  1  0
M  ISO  8  26  14  27  14  28  14  29  14  30  14  31  14  32  14  33  14
M  ISO  3  36  14  37  14  38   9
M  END
>  <minimizedAffinity>  (1) 
-5.75957441

>  <minimizedRMSD>  (1) 
0.586658657

$$$$
