
     RDKit          3D

 44 48  0  0  0  0  0  0  0  0999 V2000
   45.9750   32.3870   46.4630 C   0  0  0  0  0  0  0  0  0  0  0  0
   46.0490   32.9320   47.7660 C   0  0  0  0  0  0  0  0  0  0  0  0
   45.8570   32.2120   48.9170 C   0  0  0  0  0  0  0  0  0  0  0  0
   45.5760   30.8740   48.8290 C   0  0  0  0  0  0  0  0  0  0  0  0
   45.4910   30.2910   47.5870 C   0  0  0  0  0  0  0  0  0  0  0  0
   45.1960   28.9470   47.5470 C   0  0  0  0  0  0  0  0  0  0  0  0
   45.0860   28.2980   46.3290 C   0  0  0  0  0  0  0  0  0  0  0  0
   45.2890   29.0790   45.1730 C   0  0  0  0  0  0  0  0  0  0  0  0
   45.5820   30.4270   45.3040 C   0  0  0  0  0  0  0  0  0  0  0  0
   45.6890   31.0570   46.4810 C   0  0  0  0  0  0  0  0  0  0  0  0
   45.1250   34.7860   43.9140 C   0  0  0  0  0  0  0  0  0  0  0  0
   46.2720   34.9260   43.1230 C   0  0  0  0  0  0  0  0  0  0  0  0
   47.3760   34.1660   43.4820 C   0  0  0  0  0  0  0  0  0  0  0  0
   47.2580   33.3700   44.5390 N   0  0  0  0  0  0  0  0  0  0  0  0
   46.1980   33.2160   45.2970 C   0  0  0  0  0  0  0  0  0  0  0  0
   45.1500   33.9610   44.9300 N   0  0  0  0  0  0  0  0  0  0  0  0
   43.8840   35.4940   43.6980 N   0  0  0  0  0  0  0  0  0  0  0  0
   45.7330   30.8420   43.9180 C   0  0  0  0  0  0  0  0  0  0  0  0
   44.6040   31.3880   43.2560 C   0  0  0  0  0  0  0  0  0  0  0  0
   44.7250   31.8810   41.9510 C   0  0  0  0  0  0  0  0  0  0  0  0
   45.9890   31.8070   41.3540 C   0  0  0  0  0  0  0  0  0  0  0  0
   47.1170   31.2740   41.9850 C   0  0  0  0  0  0  0  0  0  0  0  0
   48.2910   31.2790   41.2780 C   0  0  0  0  0  0  0  0  0  0  0  0
   49.3790   30.7570   41.9470 C   0  0  0  0  0  0  0  0  0  0  0  0
   49.3010   30.2550   43.2510 C   0  0  0  0  0  0  0  0  0  0  0  0
   48.0930   30.2800   43.9000 C   0  0  0  0  0  0  0  0  0  0  0  0
   46.9840   30.7910   43.2720 C   0  0  0  0  0  0  0  0  0  0  0  0
   46.2755   34.0041   47.8624 H   0  0  0  0  0  0  0  0  0  0  0  0
   45.9277   32.7026   49.8990 H   0  0  0  0  0  0  0  0  0  0  0  0
   45.4207   30.2752   49.7386 H   0  0  0  0  0  0  0  0  0  0  0  0
   45.0476   28.3885   48.4830 H   0  0  0  0  0  0  0  0  0  0  0  0
   44.8516   27.2251   46.2663 H   0  0  0  0  0  0  0  0  0  0  0  0
   45.2154   28.6220   44.1751 H   0  0  0  0  0  0  0  0  0  0  0  0
   46.2966   35.6058   42.2586 H   0  0  0  0  0  0  0  0  0  0  0  0
   48.3151   34.2206   42.9119 H   0  0  0  0  0  0  0  0  0  0  0  0
   43.7994   36.1579   42.9151 H   0  0  0  0  0  0  0  0  0  0  0  0
   43.0840   35.3348   44.3270 H   0  0  0  0  0  0  0  0  0  0  0  0
   43.6314   31.4243   43.7686 H   0  0  0  0  0  0  0  0  0  0  0  0
   43.8632   32.3084   41.4175 H   0  0  0  0  0  0  0  0  0  0  0  0
   46.1012   32.1904   40.3291 H   0  0  0  0  0  0  0  0  0  0  0  0
   48.3608   31.6705   40.2524 H   0  0  0  0  0  0  0  0  0  0  0  0
   50.3510   30.7344   41.4325 H   0  0  0  0  0  0  0  0  0  0  0  0
   50.1939   29.8471   43.7473 H   0  0  0  0  0  0  0  0  0  0  0  0
   48.0124   29.8900   44.9254 H   0  0  0  0  0  0  0  0  0  0  0  0
  1 10  1  0
  1  2  2  0
  2  3  1  0
  4  3  2  0
  5  4  1  0
  6  5  2  0
  7  6  1  0
  8  9  1  0
  8  7  2  0
  9 10  2  0
 10  5  1  0
 11 16  2  0
 12 13  2  0
 12 11  1  0
 13 14  1  0
 14 15  2  0
 15  1  1  0
 16 15  1  0
 17 11  1  0
 18  9  1  0
 19 18  2  0
 20 19  1  0
 21 20  2  0
 21 22  1  0
 22 27  2  0
 23 24  2  0
 23 22  1  0
 24 25  1  0
 25 26  2  0
 27 26  1  0
 27 18  1  0
  2 28  1  0
  3 29  1  0
  4 30  1  0
  6 31  1  0
  7 32  1  0
  8 33  1  0
 12 34  1  0
 13 35  1  0
 17 36  1  0
 17 37  1  0
 19 38  1  0
 20 39  1  0
 21 40  1  0
 23 41  1  0
 24 42  1  0
 25 43  1  0
 26 44  1  0
M  ISO  8  28  14  29  14  30  14  31  14  32  14  33  14  34  14  35  14
M  ISO  7  38  14  39  14  40  14  41  14  42  14  43  14  44  14
M  END
>  <minimizedAffinity>  (1) 
-5.9788661

>  <minimizedRMSD>  (1) 
0.511012137

$$$$
