
     RDKit          3D

 42 46  0  0  0  0  0  0  0  0999 V2000
   45.9720   32.3770   46.5050 C   0  0  0  0  0  0  0  0  0  0  0  0
   46.1020   32.9180   47.8050 C   0  0  0  0  0  0  0  0  0  0  0  0
   45.9280   32.2040   48.9610 C   0  0  0  0  0  0  0  0  0  0  0  0
   45.6070   30.8790   48.8850 C   0  0  0  0  0  0  0  0  0  0  0  0
   45.4650   30.2880   47.6460 C   0  0  0  0  0  0  0  0  0  0  0  0
   45.1390   28.9590   47.6110 C   0  0  0  0  0  0  0  0  0  0  0  0
   44.9750   28.3130   46.3970 C   0  0  0  0  0  0  0  0  0  0  0  0
   45.1590   29.0900   45.2400 C   0  0  0  0  0  0  0  0  0  0  0  0
   45.4900   30.4320   45.3550 C   0  0  0  0  0  0  0  0  0  0  0  0
   45.6500   31.0540   46.5310 C   0  0  0  0  0  0  0  0  0  0  0  0
   45.1290   34.7710   43.9570 C   0  0  0  0  0  0  0  0  0  0  0  0
   46.2720   34.8980   43.1590 C   0  0  0  0  0  0  0  0  0  0  0  0
   47.3730   34.1280   43.5080 C   0  0  0  0  0  0  0  0  0  0  0  0
   47.2570   33.3310   44.5700 N   0  0  0  0  0  0  0  0  0  0  0  0
   46.1920   33.1960   45.3320 C   0  0  0  0  0  0  0  0  0  0  0  0
   45.1440   33.9460   44.9810 N   0  0  0  0  0  0  0  0  0  0  0  0
   43.9000   35.4910   43.7430 N   0  0  0  0  0  0  0  0  0  0  0  0
   45.6000   30.8580   43.9620 C   0  0  0  0  0  0  0  0  0  0  0  0
   44.7240   31.5160   43.0630 C   0  0  0  0  0  0  0  0  0  0  0  0
   45.3940   31.7490   41.9180 N   0  0  0  0  0  0  0  0  0  0  0  0
   46.6430   31.3030   41.9760 C   0  0  0  0  0  0  0  0  0  0  0  0
   47.6060   31.3640   41.0180 C   0  0  0  0  0  0  0  0  0  0  0  0
   48.8490   30.8350   41.2990 C   0  0  0  0  0  0  0  0  0  0  0  0
   49.0620   30.2710   42.5250 C   0  0  0  0  0  0  0  0  0  0  0  0
   48.0740   30.2200   43.4760 C   0  0  0  0  0  0  0  0  0  0  0  0
   46.8070   30.7370   43.2460 C   0  0  0  0  0  0  0  0  0  0  0  0
   46.3601   33.9836   47.8939 H   0  0  0  0  0  0  0  0  0  0  0  0
   46.0455   32.6926   49.9395 H   0  0  0  0  0  0  0  0  0  0  0  0
   45.4631   30.2887   49.8020 H   0  0  0  0  0  0  0  0  0  0  0  0
   45.0068   28.4022   48.5504 H   0  0  0  0  0  0  0  0  0  0  0  0
   44.7140   27.2459   46.3409 H   0  0  0  0  0  0  0  0  0  0  0  0
   45.0407   28.6347   44.2457 H   0  0  0  0  0  0  0  0  0  0  0  0
   46.2966   35.5774   42.2942 H   0  0  0  0  0  0  0  0  0  0  0  0
   48.3072   34.1739   42.9291 H   0  0  0  0  0  0  0  0  0  0  0  0
   43.8211   36.1534   42.9582 H   0  0  0  0  0  0  0  0  0  0  0  0
   43.1000   35.3435   44.3748 H   0  0  0  0  0  0  0  0  0  0  0  0
   43.6778   31.7892   43.2653 H   0  0  0  0  0  0  0  0  0  0  0  0
   44.9862   32.2170   41.0961 H   0  0  0  0  0  0  0  0  0  0  0  0
   47.3988   31.8247   40.0409 H   0  0  0  0  0  0  0  0  0  0  0  0
   49.6537   30.8668   40.5497 H   0  0  0  0  0  0  0  0  0  0  0  0
   50.0505   29.8471   42.7556 H   0  0  0  0  0  0  0  0  0  0  0  0
   48.2928   29.7558   44.4489 H   0  0  0  0  0  0  0  0  0  0  0  0
  1 10  1  0
  1  2  2  0
  2  3  1  0
  4  3  2  0
  5  4  1  0
  6  5  2  0
  7  6  1  0
  8  9  1  0
  8  7  2  0
  9 10  2  0
 10  5  1  0
 11 16  2  0
 12 13  2  0
 12 11  1  0
 13 14  1  0
 14 15  2  0
 15  1  1  0
 16 15  1  0
 17 11  1  0
 18  9  1  0
 19 18  2  0
 20 21  1  0
 20 19  1  0
 21 26  2  0
 22 23  2  0
 22 21  1  0
 23 24  1  0
 24 25  2  0
 26 25  1  0
 26 18  1  0
  2 27  1  0
  3 28  1  0
  4 29  1  0
  6 30  1  0
  7 31  1  0
  8 32  1  0
 12 33  1  0
 13 34  1  0
 17 35  1  0
 17 36  1  0
 19 37  1  0
 20 38  1  0
 22 39  1  0
 23 40  1  0
 24 41  1  0
 25 42  1  0
M  ISO  8  27  14  28  14  29  14  30  14  31  14  32  14  33  14  34  14
M  ISO  6  37  14  38   9  39  14  40  14  41  14  42  14
M  END
>  <minimizedAffinity>  (1) 
-5.82738638

>  <minimizedRMSD>  (1) 
1.55641425

$$$$
