
     RDKit          3D

 38 41  0  0  0  0  0  0  0  0999 V2000
   45.9520   32.3200   46.5240 C   0  0  0  0  0  0  0  0  0  0  0  0
   46.0320   32.8740   47.8220 C   0  0  0  0  0  0  0  0  0  0  0  0
   45.8460   32.1660   48.9810 C   0  0  0  0  0  0  0  0  0  0  0  0
   45.5600   30.8160   48.8990 C   0  0  0  0  0  0  0  0  0  0  0  0
   45.4720   30.2340   47.6670 C   0  0  0  0  0  0  0  0  0  0  0  0
   45.1980   28.8880   47.6320 C   0  0  0  0  0  0  0  0  0  0  0  0
   45.1040   28.2210   46.4290 C   0  0  0  0  0  0  0  0  0  0  0  0
   45.3000   28.9920   45.2700 C   0  0  0  0  0  0  0  0  0  0  0  0
   45.5720   30.3490   45.3730 C   0  0  0  0  0  0  0  0  0  0  0  0
   45.6640   30.9870   46.5480 C   0  0  0  0  0  0  0  0  0  0  0  0
   45.2040   34.7760   44.0160 C   0  0  0  0  0  0  0  0  0  0  0  0
   46.3300   34.8470   43.1870 C   0  0  0  0  0  0  0  0  0  0  0  0
   47.3910   34.0110   43.5040 C   0  0  0  0  0  0  0  0  0  0  0  0
   47.2660   33.2090   44.5590 N   0  0  0  0  0  0  0  0  0  0  0  0
   46.1890   33.1370   45.3540 C   0  0  0  0  0  0  0  0  0  0  0  0
   45.1690   33.9520   45.0390 N   0  0  0  0  0  0  0  0  0  0  0  0
   44.0050   35.5600   43.8370 N   0  0  0  0  0  0  0  0  0  0  0  0
   45.6040   30.7970   43.9870 C   0  0  0  0  0  0  0  0  0  0  0  0
   46.7730   30.5190   43.2390 C   0  0  0  0  0  0  0  0  0  0  0  0
   47.0090   30.7790   41.8880 C   0  0  0  0  0  0  0  0  0  0  0  0
   45.9520   31.3820   41.2460 C   0  0  0  0  0  0  0  0  0  0  0  0
   44.7740   31.6960   41.8770 C   0  0  0  0  0  0  0  0  0  0  0  0
   44.6050   31.4120   43.2080 C   0  0  0  0  0  0  0  0  0  0  0  0
   46.2591   33.9469   47.9080 H   0  0  0  0  0  0  0  0  0  0  0  0
   45.9230   32.6634   49.9591 H   0  0  0  0  0  0  0  0  0  0  0  0
   45.4059   30.2206   49.8110 H   0  0  0  0  0  0  0  0  0  0  0  0
   45.0522   28.3372   48.5730 H   0  0  0  0  0  0  0  0  0  0  0  0
   44.8873   27.1437   46.3788 H   0  0  0  0  0  0  0  0  0  0  0  0
   45.2376   28.5186   44.2790 H   0  0  0  0  0  0  0  0  0  0  0  0
   46.3715   35.5316   42.3270 H   0  0  0  0  0  0  0  0  0  0  0  0
   48.3103   34.0110   42.9000 H   0  0  0  0  0  0  0  0  0  0  0  0
   43.9412   36.2335   43.0603 H   0  0  0  0  0  0  0  0  0  0  0  0
   43.2133   35.4458   44.4859 H   0  0  0  0  0  0  0  0  0  0  0  0
   47.5959   30.0396   43.7894 H   0  0  0  0  0  0  0  0  0  0  0  0
   47.9528   30.5252   41.3833 H   0  0  0  0  0  0  0  0  0  0  0  0
   46.0557   31.6236   40.1779 H   0  0  0  0  0  0  0  0  0  0  0  0
   43.9619   32.1776   41.3125 H   0  0  0  0  0  0  0  0  0  0  0  0
   43.6502   31.6753   43.6866 H   0  0  0  0  0  0  0  0  0  0  0  0
  1 10  1  0
  1  2  2  0
  2  3  1  0
  4  3  2  0
  5  4  1  0
  6  5  2  0
  7  6  1  0
  8  9  1  0
  8  7  2  0
  9 10  2  0
 10  5  1  0
 11 16  2  0
 12 13  2  0
 12 11  1  0
 13 14  1  0
 14 15  2  0
 15  1  1  0
 16 15  1  0
 17 11  1  0
 18  9  1  0
 19 18  2  0
 20 19  1  0
 21 22  1  0
 21 20  2  0
 22 23  2  0
 23 18  1  0
  2 24  1  0
  3 25  1  0
  4 26  1  0
  6 27  1  0
  7 28  1  0
  8 29  1  0
 12 30  1  0
 13 31  1  0
 17 32  1  0
 17 33  1  0
 19 34  1  0
 20 35  1  0
 21 36  1  0
 22 37  1  0
 23 38  1  0
M  ISO  8  24  14  25  14  26  14  27  14  28  14  29  14  30  14  31  14
M  ISO  5  34  14  35  14  36  14  37  14  38  14
M  END
>  <minimizedAffinity>  (1) 
-5.50228977

>  <minimizedRMSD>  (1) 
0.554471016

$$$$
