
     RDKit          3D

 43 46  0  0  0  0  0  0  0  0999 V2000
   45.9760   32.3300   46.5400 C   0  0  0  0  0  0  0  0  0  0  0  0
   46.0700   32.8860   47.8380 C   0  0  0  0  0  0  0  0  0  0  0  0
   45.8800   32.1760   48.9950 C   0  0  0  0  0  0  0  0  0  0  0  0
   45.5780   30.8410   48.9190 C   0  0  0  0  0  0  0  0  0  0  0  0
   45.4730   30.2440   47.6820 C   0  0  0  0  0  0  0  0  0  0  0  0
   45.1560   28.9130   47.6590 C   0  0  0  0  0  0  0  0  0  0  0  0
   45.0210   28.2580   46.4480 C   0  0  0  0  0  0  0  0  0  0  0  0
   45.2250   29.0270   45.2800 C   0  0  0  0  0  0  0  0  0  0  0  0
   45.5460   30.3780   45.3920 C   0  0  0  0  0  0  0  0  0  0  0  0
   45.6720   31.0030   46.5700 C   0  0  0  0  0  0  0  0  0  0  0  0
   45.1420   34.7810   44.0340 C   0  0  0  0  0  0  0  0  0  0  0  0
   46.2470   34.8720   43.1990 C   0  0  0  0  0  0  0  0  0  0  0  0
   47.3250   34.0560   43.5030 C   0  0  0  0  0  0  0  0  0  0  0  0
   47.2140   33.2550   44.5670 N   0  0  0  0  0  0  0  0  0  0  0  0
   46.1880   33.1520   45.3660 C   0  0  0  0  0  0  0  0  0  0  0  0
   45.1650   33.9510   45.0470 N   0  0  0  0  0  0  0  0  0  0  0  0
   43.9550   35.5560   43.8520 N   0  0  0  0  0  0  0  0  0  0  0  0
   45.7200   30.7010   44.0180 N   0  0  0  0  0  0  0  0  0  0  0  0
   47.0860   30.2780   43.5990 C   0  0  0  0  0  0  0  0  0  0  0  0
   47.4190   30.6610   42.2020 C   0  0  0  0  0  0  0  0  0  0  0  0
   46.2350   30.7100   41.2990 C   0  0  0  0  0  0  0  0  0  0  0  0
   45.1380   31.6150   41.8040 C   0  0  0  0  0  0  0  0  0  0  0  0
   44.6730   31.2660   43.1710 C   0  0  0  0  0  0  0  0  0  0  0  0
   46.3108   33.9559   47.9239 H   0  0  0  0  0  0  0  0  0  0  0  0
   45.9688   32.6716   49.9730 H   0  0  0  0  0  0  0  0  0  0  0  0
   45.4213   30.2531   49.8354 H   0  0  0  0  0  0  0  0  0  0  0  0
   45.0088   28.3651   48.6014 H   0  0  0  0  0  0  0  0  0  0  0  0
   44.7668   27.1890   46.3966 H   0  0  0  0  0  0  0  0  0  0  0  0
   45.1308   28.5614   44.2879 H   0  0  0  0  0  0  0  0  0  0  0  0
   46.2661   35.5576   42.3390 H   0  0  0  0  0  0  0  0  0  0  0  0
   48.2388   34.0672   42.8908 H   0  0  0  0  0  0  0  0  0  0  0  0
   43.8900   36.2223   43.0693 H   0  0  0  0  0  0  0  0  0  0  0  0
   43.1646   35.4482   44.5036 H   0  0  0  0  0  0  0  0  0  0  0  0
   47.8183   30.7463   44.2731 H   0  0  0  0  0  0  0  0  0  0  0  0
   47.1166   29.1797   43.6511 H   0  0  0  0  0  0  0  0  0  0  0  0
   47.8869   31.6564   42.2164 H   0  0  0  0  0  0  0  0  0  0  0  0
   48.0940   29.8873   41.8074 H   0  0  0  0  0  0  0  0  0  0  0  0
   45.8298   29.6923   41.1985 H   0  0  0  0  0  0  0  0  0  0  0  0
   46.5759   31.1166   40.3354 H   0  0  0  0  0  0  0  0  0  0  0  0
   45.5154   32.6482   41.8164 H   0  0  0  0  0  0  0  0  0  0  0  0
   44.2793   31.4963   41.1269 H   0  0  0  0  0  0  0  0  0  0  0  0
   44.2912   32.1786   43.6520 H   0  0  0  0  0  0  0  0  0  0  0  0
   43.8962   30.4950   43.0606 H   0  0  0  0  0  0  0  0  0  0  0  0
  1 10  1  0
  1  2  2  0
  2  3  1  0
  4  3  2  0
  5  4  1  0
  6  5  2  0
  7  6  1  0
  8  9  1  0
  8  7  2  0
  9 10  2  0
 10  5  1  0
 11 16  2  0
 12 13  2  0
 12 11  1  0
 13 14  1  0
 14 15  2  0
 15  1  1  0
 16 15  1  0
 17 11  1  0
 18  9  1  0
 19 18  1  0
 20 19  1  0
 21 22  1  0
 21 20  1  0
 22 23  1  0
 23 18  1  0
  2 24  1  0
  3 25  1  0
  4 26  1  0
  6 27  1  0
  7 28  1  0
  8 29  1  0
 12 30  1  0
 13 31  1  0
 17 32  1  0
 17 33  1  0
 19 34  1  0
 19 35  1  0
 20 36  1  0
 20 37  1  0
 21 38  1  0
 21 39  1  0
 22 40  1  0
 22 41  1  0
 23 42  1  0
 23 43  1  0
M  ISO  8  24  14  25  14  26  14  27  14  28  14  29  14  30  14  31  14
M  ISO  8  34  13  35  13  36  13  37  13  38  13  39  13  40  13  41  13
M  ISO  2  42  13  43  13
M  END
>  <minimizedAffinity>  (1) 
-5.53588772

>  <minimizedRMSD>  (1) 
0.569465876

$$$$
