
     RDKit          3D

 37 40  0  0  0  0  0  0  0  0999 V2000
   46.1560   33.9060   40.3360 C   0  0  0  0  0  0  0  0  0  0  0  0
   46.5710   33.2130   39.2120 C   0  0  0  0  0  0  0  0  0  0  0  0
   45.7730   32.4790   38.3730 C   0  0  0  0  0  0  0  0  0  0  0  0
   44.4580   32.4460   38.6980 N   0  0  0  0  0  0  0  0  0  0  0  0
   44.0170   33.1240   39.8090 C   0  0  0  0  0  0  0  0  0  0  0  0
   44.8270   33.8360   40.6130 N   0  0  0  0  0  0  0  0  0  0  0  0
   42.6270   33.0660   40.1180 N   0  0  0  0  0  0  0  0  0  0  0  0
   42.1880   32.3630   41.2020 C   0  0  0  0  0  0  0  0  0  0  0  0
   40.8360   32.4720   41.2640 N   0  0  0  0  0  0  0  0  0  0  0  0
   40.4320   33.2310   40.2370 C   0  0  0  0  0  0  0  0  0  0  0  0
   39.2090   33.6980   39.7650 C   0  0  0  0  0  0  0  0  0  0  0  0
   39.1400   34.4790   38.6530 N   0  0  0  0  0  0  0  0  0  0  0  0
   40.2730   34.8140   37.9850 C   0  0  0  0  0  0  0  0  0  0  0  0
   41.4850   34.3730   38.4230 N   0  0  0  0  0  0  0  0  0  0  0  0
   41.5380   33.5940   39.5350 C   0  0  0  0  0  0  0  0  0  0  0  0
   47.0790   34.6730   41.2020 C   0  0  0  0  0  0  0  0  0  0  0  0
   47.2180   33.9480   42.5160 C   0  0  0  0  0  0  0  0  0  0  0  0
   44.6960   36.0430   44.4000 C   0  0  0  0  0  0  0  0  0  0  0  0
   45.5530   35.6080   43.3850 C   0  0  0  0  0  0  0  0  0  0  0  0
   46.2900   34.4530   43.5510 C   0  0  0  0  0  0  0  0  0  0  0  0
   46.1530   33.7700   44.7120 N   0  0  0  0  0  0  0  0  0  0  0  0
   45.3070   34.2110   45.6970 C   0  0  0  0  0  0  0  0  0  0  0  0
   44.5960   35.3400   45.5190 N   0  0  0  0  0  0  0  0  0  0  0  0
   38.0520   33.3120   40.5090 N   0  0  0  0  0  0  0  0  0  0  0  0
   47.6430   33.2552   38.9688 H   0  0  0  0  0  0  0  0  0  0  0  0
   46.1736   31.9520   37.4945 H   0  0  0  0  0  0  0  0  0  0  0  0
   42.8215   31.8033   41.9058 H   0  0  0  0  0  0  0  0  0  0  0  0
   40.2122   35.4446   37.0857 H   0  0  0  0  0  0  0  0  0  0  0  0
   48.0629   34.7525   40.7165 H   0  0  0  0  0  0  0  0  0  0  0  0
   46.6827   35.6851   41.3709 H   0  0  0  0  0  0  0  0  0  0  0  0
   47.0130   32.8799   42.3513 H   0  0  0  0  0  0  0  0  0  0  0  0
   48.2424   34.1159   42.8798 H   0  0  0  0  0  0  0  0  0  0  0  0
   44.1079   36.9636   44.2707 H   0  0  0  0  0  0  0  0  0  0  0  0
   45.6400   36.1865   42.4535 H   0  0  0  0  0  0  0  0  0  0  0  0
   45.2093   33.6418   46.6332 H   0  0  0  0  0  0  0  0  0  0  0  0
   37.1182   33.6266   40.2090 H   0  0  0  0  0  0  0  0  0  0  0  0
   38.1517   32.7192   41.3454 H   0  0  0  0  0  0  0  0  0  0  0  0
  1  6  1  0
  1 16  1  0
  2  1  2  0
  3  4  2  0
  3  2  1  0
  4  5  1  0
  5  7  1  0
  5  6  2  0
  7  8  1  0
  8  9  2  0
 10  9  1  0
 11 10  2  0
 11 24  1  0
 12 11  1  0
 13 14  1  0
 13 12  2  0
 14 15  2  0
 15  7  1  0
 15 10  1  0
 16 17  1  0
 17 20  1  0
 18 23  2  0
 19 20  2  0
 19 18  1  0
 20 21  1  0
 21 22  2  0
 23 22  1  0
  2 25  1  0
  3 26  1  0
  8 27  1  0
 13 28  1  0
 16 29  1  0
 16 30  1  0
 17 31  1  0
 17 32  1  0
 18 33  1  0
 19 34  1  0
 22 35  1  0
 24 36  1  0
 24 37  1  0
M  ISO  8  25  14  26  14  27  14  28  14  29   8  30   8  31   8  32   8
M  ISO  3  33  14  34  14  35  14
M  END
>  <minimizedAffinity>  (1) 
-6.38756371

>  <minimizedRMSD>  (1) 
2.79473591

$$$$
