
     RDKit          3D

 35 38  0  0  0  0  0  0  0  0999 V2000
   45.9770   32.3360   46.5110 C   0  0  0  0  0  0  0  0  0  0  0  0
   46.0970   32.8760   47.8140 C   0  0  0  0  0  0  0  0  0  0  0  0
   45.9140   32.1610   48.9690 C   0  0  0  0  0  0  0  0  0  0  0  0
   45.5930   30.8250   48.8840 C   0  0  0  0  0  0  0  0  0  0  0  0
   45.4640   30.2510   47.6510 C   0  0  0  0  0  0  0  0  0  0  0  0
   45.1390   28.9170   47.6150 C   0  0  0  0  0  0  0  0  0  0  0  0
   44.9870   28.2650   46.4030 C   0  0  0  0  0  0  0  0  0  0  0  0
   45.1810   29.0370   45.2500 C   0  0  0  0  0  0  0  0  0  0  0  0
   45.5060   30.3820   45.3550 C   0  0  0  0  0  0  0  0  0  0  0  0
   45.6570   31.0120   46.5290 C   0  0  0  0  0  0  0  0  0  0  0  0
   45.1710   34.7560   43.9790 C   0  0  0  0  0  0  0  0  0  0  0  0
   46.3020   34.8550   43.1610 C   0  0  0  0  0  0  0  0  0  0  0  0
   47.3850   34.0570   43.4960 C   0  0  0  0  0  0  0  0  0  0  0  0
   47.2680   33.2620   44.5620 N   0  0  0  0  0  0  0  0  0  0  0  0
   46.2050   33.1580   45.3410 C   0  0  0  0  0  0  0  0  0  0  0  0
   45.1670   33.9360   45.0070 N   0  0  0  0  0  0  0  0  0  0  0  0
   43.9590   35.5190   43.7840 N   0  0  0  0  0  0  0  0  0  0  0  0
   45.5670   30.8230   44.0010 N   0  0  0  0  0  0  0  0  0  0  0  0
   44.5520   31.4240   43.3310 N   0  0  0  0  0  0  0  0  0  0  0  0
   44.9940   31.7630   42.0820 C   0  0  0  0  0  0  0  0  0  0  0  0
   46.3110   31.3810   41.9270 C   0  0  0  0  0  0  0  0  0  0  0  0
   46.6380   30.8020   43.1350 C   0  0  0  0  0  0  0  0  0  0  0  0
   46.3545   33.9415   47.9058 H   0  0  0  0  0  0  0  0  0  0  0  0
   46.0221   32.6476   49.9496 H   0  0  0  0  0  0  0  0  0  0  0  0
   45.4425   30.2282   49.7957 H   0  0  0  0  0  0  0  0  0  0  0  0
   44.9986   28.3631   48.5549 H   0  0  0  0  0  0  0  0  0  0  0  0
   44.7277   27.1974   46.3483 H   0  0  0  0  0  0  0  0  0  0  0  0
   45.0752   28.5750   44.2573 H   0  0  0  0  0  0  0  0  0  0  0  0
   46.3304   35.5326   42.2949 H   0  0  0  0  0  0  0  0  0  0  0  0
   48.3109   34.0782   42.9025 H   0  0  0  0  0  0  0  0  0  0  0  0
   43.8885   36.1820   42.9989 H   0  0  0  0  0  0  0  0  0  0  0  0
   43.1658   35.3997   44.4301 H   0  0  0  0  0  0  0  0  0  0  0  0
   44.3886   32.2663   41.3137 H   0  0  0  0  0  0  0  0  0  0  0  0
   46.9526   31.5090   41.0427 H   0  0  0  0  0  0  0  0  0  0  0  0
   47.6245   30.3789   43.3755 H   0  0  0  0  0  0  0  0  0  0  0  0
  1 10  1  0
  1  2  2  0
  2  3  1  0
  4  3  2  0
  5  4  1  0
  6  5  2  0
  7  6  1  0
  8  9  1  0
  8  7  2  0
  9 10  2  0
 10  5  1  0
 11 16  2  0
 12 13  2  0
 12 11  1  0
 13 14  1  0
 14 15  2  0
 15  1  1  0
 16 15  1  0
 17 11  1  0
 18  9  1  0
 19 18  1  0
 20 19  2  0
 21 20  1  0
 21 22  2  0
 22 18  1  0
  2 23  1  0
  3 24  1  0
  4 25  1  0
  6 26  1  0
  7 27  1  0
  8 28  1  0
 12 29  1  0
 13 30  1  0
 17 31  1  0
 17 32  1  0
 20 33  1  0
 21 34  1  0
 22 35  1  0
M  ISO  8  23  14  24  14  25  14  26  14  27  14  28  14  29  14  30  14
M  ISO  3  33  14  34  14  35  14
M  END
>  <minimizedAffinity>  (1) 
-5.39708662

>  <minimizedRMSD>  (1) 
0.433933824

$$$$
