
     RDKit          3D

 36 39  0  0  0  0  0  0  0  0999 V2000
   45.9440   32.3150   46.5140 C   0  0  0  0  0  0  0  0  0  0  0  0
   46.0390   32.8660   47.8130 C   0  0  0  0  0  0  0  0  0  0  0  0
   45.8600   32.1540   48.9720 C   0  0  0  0  0  0  0  0  0  0  0  0
   45.5700   30.8100   48.8900 C   0  0  0  0  0  0  0  0  0  0  0  0
   45.4680   30.2250   47.6600 C   0  0  0  0  0  0  0  0  0  0  0  0
   45.2020   28.8820   47.6260 C   0  0  0  0  0  0  0  0  0  0  0  0
   45.1060   28.2150   46.4200 C   0  0  0  0  0  0  0  0  0  0  0  0
   45.2930   28.9880   45.2580 C   0  0  0  0  0  0  0  0  0  0  0  0
   45.5570   30.3430   45.3620 C   0  0  0  0  0  0  0  0  0  0  0  0
   45.6530   30.9840   46.5350 C   0  0  0  0  0  0  0  0  0  0  0  0
   45.2030   34.7720   44.0030 C   0  0  0  0  0  0  0  0  0  0  0  0
   46.3350   34.8440   43.1830 C   0  0  0  0  0  0  0  0  0  0  0  0
   47.3970   34.0130   43.5010 C   0  0  0  0  0  0  0  0  0  0  0  0
   47.2760   33.2040   44.5560 N   0  0  0  0  0  0  0  0  0  0  0  0
   46.1900   33.1310   45.3430 C   0  0  0  0  0  0  0  0  0  0  0  0
   45.1670   33.9390   45.0310 N   0  0  0  0  0  0  0  0  0  0  0  0
   44.0100   35.5590   43.8230 N   0  0  0  0  0  0  0  0  0  0  0  0
   45.6420   30.7880   43.9780 C   0  0  0  0  0  0  0  0  0  0  0  0
   44.6330   31.3700   43.1910 C   0  0  0  0  0  0  0  0  0  0  0  0
   44.7110   31.6780   41.8570 C   0  0  0  0  0  0  0  0  0  0  0  0
   45.8630   31.3990   41.2330 N   0  0  0  0  0  0  0  0  0  0  0  0
   46.8550   30.8420   41.9420 C   0  0  0  0  0  0  0  0  0  0  0  0
   46.7780   30.5410   43.2490 N   0  0  0  0  0  0  0  0  0  0  0  0
   46.2721   33.9375   47.9000 H   0  0  0  0  0  0  0  0  0  0  0  0
   45.9467   32.6484   49.9508 H   0  0  0  0  0  0  0  0  0  0  0  0
   45.4224   30.2153   49.8035 H   0  0  0  0  0  0  0  0  0  0  0  0
   45.0636   28.3296   48.5671 H   0  0  0  0  0  0  0  0  0  0  0  0
   44.8946   27.1367   46.3701 H   0  0  0  0  0  0  0  0  0  0  0  0
   45.2293   28.5149   44.2670 H   0  0  0  0  0  0  0  0  0  0  0  0
   46.3795   35.5299   42.3242 H   0  0  0  0  0  0  0  0  0  0  0  0
   48.3175   34.0197   42.8988 H   0  0  0  0  0  0  0  0  0  0  0  0
   43.9505   36.2340   43.0472 H   0  0  0  0  0  0  0  0  0  0  0  0
   43.2165   35.4468   44.4700 H   0  0  0  0  0  0  0  0  0  0  0  0
   43.6841   31.6020   43.6968 H   0  0  0  0  0  0  0  0  0  0  0  0
   43.8646   32.1342   41.3227 H   0  0  0  0  0  0  0  0  0  0  0  0
   47.7956   30.6161   41.4182 H   0  0  0  0  0  0  0  0  0  0  0  0
  1 10  1  0
  1  2  2  0
  2  3  1  0
  4  3  2  0
  5  4  1  0
  6  5  2  0
  7  6  1  0
  8  9  1  0
  8  7  2  0
  9 10  2  0
 10  5  1  0
 11 16  2  0
 12 13  2  0
 12 11  1  0
 13 14  1  0
 14 15  2  0
 15  1  1  0
 16 15  1  0
 17 11  1  0
 18  9  1  0
 19 18  2  0
 20 19  1  0
 21 20  2  0
 21 22  1  0
 22 23  2  0
 23 18  1  0
  2 24  1  0
  3 25  1  0
  4 26  1  0
  6 27  1  0
  7 28  1  0
  8 29  1  0
 12 30  1  0
 13 31  1  0
 17 32  1  0
 17 33  1  0
 19 34  1  0
 20 35  1  0
 22 36  1  0
M  ISO  8  24  14  25  14  26  14  27  14  28  14  29  14  30  14  31  14
M  ISO  3  34  14  35  14  36  14
M  END
>  <minimizedAffinity>  (1) 
-5.47094917

>  <minimizedRMSD>  (1) 
0.43097046

$$$$
