
     RDKit          3D

 35 38  0  0  0  0  0  0  0  0999 V2000
   45.9130   32.3330   46.5790 C   0  0  0  0  0  0  0  0  0  0  0  0
   46.0230   32.8670   47.8810 C   0  0  0  0  0  0  0  0  0  0  0  0
   45.8710   32.1490   49.0320 C   0  0  0  0  0  0  0  0  0  0  0  0
   45.5880   30.7970   48.9360 C   0  0  0  0  0  0  0  0  0  0  0  0
   45.4660   30.2180   47.6950 C   0  0  0  0  0  0  0  0  0  0  0  0
   45.2170   28.8740   47.6410 C   0  0  0  0  0  0  0  0  0  0  0  0
   45.1130   28.2250   46.4350 C   0  0  0  0  0  0  0  0  0  0  0  0
   45.2730   29.0130   45.2980 C   0  0  0  0  0  0  0  0  0  0  0  0
   45.5220   30.3720   45.4130 C   0  0  0  0  0  0  0  0  0  0  0  0
   45.6300   31.0020   46.5810 C   0  0  0  0  0  0  0  0  0  0  0  0
   45.1550   34.8470   44.1300 C   0  0  0  0  0  0  0  0  0  0  0  0
   46.2480   34.8980   43.2640 C   0  0  0  0  0  0  0  0  0  0  0  0
   47.3010   34.0340   43.5240 C   0  0  0  0  0  0  0  0  0  0  0  0
   47.2250   33.1940   44.5830 N   0  0  0  0  0  0  0  0  0  0  0  0
   46.1530   33.1700   45.3990 C   0  0  0  0  0  0  0  0  0  0  0  0
   45.1400   34.0030   45.1520 N   0  0  0  0  0  0  0  0  0  0  0  0
   43.9850   35.6450   43.9760 N   0  0  0  0  0  0  0  0  0  0  0  0
   45.5780   30.8410   43.9980 C   0  0  0  0  0  0  0  0  0  0  0  0
   44.4850   31.4790   43.1470 C   0  0  0  0  0  0  0  0  0  0  0  0
   44.8670   31.6060   41.8550 C   0  0  0  0  0  0  0  0  0  0  0  0
   46.0610   31.2350   41.3040 C   0  0  0  0  0  0  0  0  0  0  0  0
   46.9050   30.5440   42.8570 S   0  0  0  0  0  0  0  0  0  0  0  0
   46.2475   33.9397   47.9750 H   0  0  0  0  0  0  0  0  0  0  0  0
   45.9711   32.6339   50.0143 H   0  0  0  0  0  0  0  0  0  0  0  0
   45.4618   30.1910   49.8453 H   0  0  0  0  0  0  0  0  0  0  0  0
   45.0985   28.3058   48.5754 H   0  0  0  0  0  0  0  0  0  0  0  0
   44.9147   27.1449   46.3709 H   0  0  0  0  0  0  0  0  0  0  0  0
   45.2013   28.5537   44.3011 H   0  0  0  0  0  0  0  0  0  0  0  0
   46.2732   35.5934   42.4121 H   0  0  0  0  0  0  0  0  0  0  0  0
   48.1898   34.0312   42.8758 H   0  0  0  0  0  0  0  0  0  0  0  0
   43.9229   36.3243   43.2043 H   0  0  0  0  0  0  0  0  0  0  0  0
   43.2012   35.5426   44.6364 H   0  0  0  0  0  0  0  0  0  0  0  0
   43.5063   31.7969   43.5357 H   0  0  0  0  0  0  0  0  0  0  0  0
   44.1337   32.0589   41.1715 H   0  0  0  0  0  0  0  0  0  0  0  0
   46.4247   31.3135   40.2688 H   0  0  0  0  0  0  0  0  0  0  0  0
  1 10  1  0
  1  2  2  0
  2  3  1  0
  4  3  2  0
  5  4  1  0
  6  5  2  0
  7  6  1  0
  8  9  1  0
  8  7  2  0
  9 10  2  0
 10  5  1  0
 11 16  2  0
 12 13  2  0
 12 11  1  0
 13 14  1  0
 14 15  2  0
 15  1  1  0
 16 15  1  0
 17 11  1  0
 18  9  1  0
 19 18  2  0
 20 19  1  0
 21 20  2  0
 21 22  1  0
 22 18  1  0
  2 23  1  0
  3 24  1  0
  4 25  1  0
  6 26  1  0
  7 27  1  0
  8 28  1  0
 12 29  1  0
 13 30  1  0
 17 31  1  0
 17 32  1  0
 19 33  1  0
 20 34  1  0
 21 35  1  0
M  ISO  8  23  14  24  14  25  14  26  14  27  14  28  14  29  14  30  14
M  ISO  3  33  14  34  14  35  14
M  END
>  <minimizedAffinity>  (1) 
-5.46486568

>  <minimizedRMSD>  (1) 
0.410520285

$$$$
