
     RDKit          3D

 37 40  0  0  0  0  0  0  0  0999 V2000
   45.9420   32.3130   46.5220 C   0  0  0  0  0  0  0  0  0  0  0  0
   46.0490   32.8640   47.8210 C   0  0  0  0  0  0  0  0  0  0  0  0
   45.8760   32.1500   48.9800 C   0  0  0  0  0  0  0  0  0  0  0  0
   45.5800   30.8040   48.8970 C   0  0  0  0  0  0  0  0  0  0  0  0
   45.4670   30.2230   47.6680 C   0  0  0  0  0  0  0  0  0  0  0  0
   45.1980   28.8800   47.6310 C   0  0  0  0  0  0  0  0  0  0  0  0
   45.0930   28.2160   46.4220 C   0  0  0  0  0  0  0  0  0  0  0  0
   45.2720   28.9910   45.2630 C   0  0  0  0  0  0  0  0  0  0  0  0
   45.5400   30.3510   45.3660 C   0  0  0  0  0  0  0  0  0  0  0  0
   45.6460   30.9840   46.5420 C   0  0  0  0  0  0  0  0  0  0  0  0
   45.2030   34.7690   44.0110 C   0  0  0  0  0  0  0  0  0  0  0  0
   46.3280   34.8410   43.1830 C   0  0  0  0  0  0  0  0  0  0  0  0
   47.3880   34.0060   43.4960 C   0  0  0  0  0  0  0  0  0  0  0  0
   47.2720   33.1970   44.5550 N   0  0  0  0  0  0  0  0  0  0  0  0
   46.1870   33.1310   45.3480 C   0  0  0  0  0  0  0  0  0  0  0  0
   45.1680   33.9410   45.0390 N   0  0  0  0  0  0  0  0  0  0  0  0
   44.0120   35.5560   43.8310 N   0  0  0  0  0  0  0  0  0  0  0  0
   45.6130   30.7960   43.9800 C   0  0  0  0  0  0  0  0  0  0  0  0
   44.5860   31.3780   43.2140 C   0  0  0  0  0  0  0  0  0  0  0  0
   44.5970   31.7010   41.8870 C   0  0  0  0  0  0  0  0  0  0  0  0
   45.7700   31.4150   41.2260 C   0  0  0  0  0  0  0  0  0  0  0  0
   46.8010   30.8440   41.9340 C   0  0  0  0  0  0  0  0  0  0  0  0
   46.7410   30.5450   43.2420 N   0  0  0  0  0  0  0  0  0  0  0  0
   46.2864   33.9346   47.9073 H   0  0  0  0  0  0  0  0  0  0  0  0
   45.9716   32.6420   49.9592 H   0  0  0  0  0  0  0  0  0  0  0  0
   45.4371   30.2077   49.8103 H   0  0  0  0  0  0  0  0  0  0  0  0
   45.0643   28.3248   48.5712 H   0  0  0  0  0  0  0  0  0  0  0  0
   44.8805   27.1380   46.3703 H   0  0  0  0  0  0  0  0  0  0  0  0
   45.1998   28.5198   44.2717 H   0  0  0  0  0  0  0  0  0  0  0  0
   46.3690   35.5276   42.3246 H   0  0  0  0  0  0  0  0  0  0  0  0
   48.3044   34.0081   42.8875 H   0  0  0  0  0  0  0  0  0  0  0  0
   43.9519   36.2288   43.0534 H   0  0  0  0  0  0  0  0  0  0  0  0
   43.2195   35.4466   44.4798 H   0  0  0  0  0  0  0  0  0  0  0  0
   43.6540   31.6017   43.7537 H   0  0  0  0  0  0  0  0  0  0  0  0
   43.7317   32.1564   41.3833 H   0  0  0  0  0  0  0  0  0  0  0  0
   45.8801   31.6384   40.1546 H   0  0  0  0  0  0  0  0  0  0  0  0
   47.7332   30.6179   41.3956 H   0  0  0  0  0  0  0  0  0  0  0  0
  1 10  1  0
  1  2  2  0
  2  3  1  0
  4  3  2  0
  5  4  1  0
  6  5  2  0
  7  6  1  0
  8  9  1  0
  8  7  2  0
  9 10  2  0
 10  5  1  0
 11 16  2  0
 12 13  2  0
 12 11  1  0
 13 14  1  0
 14 15  2  0
 15  1  1  0
 16 15  1  0
 17 11  1  0
 18  9  1  0
 19 18  2  0
 20 19  1  0
 21 20  2  0
 21 22  1  0
 22 23  2  0
 23 18  1  0
  2 24  1  0
  3 25  1  0
  4 26  1  0
  6 27  1  0
  7 28  1  0
  8 29  1  0
 12 30  1  0
 13 31  1  0
 17 32  1  0
 17 33  1  0
 19 34  1  0
 20 35  1  0
 21 36  1  0
 22 37  1  0
M  ISO  8  24  14  25  14  26  14  27  14  28  14  29  14  30  14  31  14
M  ISO  4  34  14  35  14  36  14  37  14
M  END
>  <minimizedAffinity>  (1) 
-5.46604395

>  <minimizedRMSD>  (1) 
0.807329535

$$$$
