
     RDKit          3D

 35 38  0  0  0  0  0  0  0  0999 V2000
   45.9860   32.3110   46.4920 C   0  0  0  0  0  0  0  0  0  0  0  0
   46.1150   32.8380   47.7970 C   0  0  0  0  0  0  0  0  0  0  0  0
   45.9370   32.1110   48.9480 C   0  0  0  0  0  0  0  0  0  0  0  0
   45.6070   30.7710   48.8480 C   0  0  0  0  0  0  0  0  0  0  0  0
   45.4690   30.2170   47.6090 C   0  0  0  0  0  0  0  0  0  0  0  0
   45.1400   28.8890   47.5570 C   0  0  0  0  0  0  0  0  0  0  0  0
   44.9780   28.2450   46.3440 C   0  0  0  0  0  0  0  0  0  0  0  0
   45.1700   29.0280   45.2110 C   0  0  0  0  0  0  0  0  0  0  0  0
   45.5020   30.3710   45.3150 C   0  0  0  0  0  0  0  0  0  0  0  0
   45.6580   30.9850   46.4950 C   0  0  0  0  0  0  0  0  0  0  0  0
   45.1760   34.7740   44.0030 C   0  0  0  0  0  0  0  0  0  0  0  0
   46.3040   34.8630   43.1740 C   0  0  0  0  0  0  0  0  0  0  0  0
   47.3820   34.0470   43.4830 C   0  0  0  0  0  0  0  0  0  0  0  0
   47.2630   33.2440   44.5400 N   0  0  0  0  0  0  0  0  0  0  0  0
   46.2130   33.1400   45.3330 C   0  0  0  0  0  0  0  0  0  0  0  0
   45.1790   33.9350   45.0240 N   0  0  0  0  0  0  0  0  0  0  0  0
   43.9740   35.5470   43.8400 N   0  0  0  0  0  0  0  0  0  0  0  0
   45.5490   30.8240   43.9670 N   0  0  0  0  0  0  0  0  0  0  0  0
   46.6380   30.6060   43.1420 C   0  0  0  0  0  0  0  0  0  0  0  0
   46.3880   31.1070   41.8570 C   0  0  0  0  0  0  0  0  0  0  0  0
   45.1500   31.6250   41.9190 N   0  0  0  0  0  0  0  0  0  0  0  0
   44.6430   31.4660   43.1520 C   0  0  0  0  0  0  0  0  0  0  0  0
   46.3755   33.9020   47.8973 H   0  0  0  0  0  0  0  0  0  0  0  0
   46.0548   32.5859   49.9332 H   0  0  0  0  0  0  0  0  0  0  0  0
   45.4584   30.1626   49.7523 H   0  0  0  0  0  0  0  0  0  0  0  0
   45.0027   28.3269   48.4925 H   0  0  0  0  0  0  0  0  0  0  0  0
   44.7136   27.1792   46.2794 H   0  0  0  0  0  0  0  0  0  0  0  0
   45.0567   28.5747   44.2151 H   0  0  0  0  0  0  0  0  0  0  0  0
   46.3323   35.5504   42.3157 H   0  0  0  0  0  0  0  0  0  0  0  0
   48.3008   34.0620   42.8783 H   0  0  0  0  0  0  0  0  0  0  0  0
   43.8971   36.2225   43.0663 H   0  0  0  0  0  0  0  0  0  0  0  0
   43.1902   35.4250   44.4970 H   0  0  0  0  0  0  0  0  0  0  0  0
   47.5694   30.1092   43.4511 H   0  0  0  0  0  0  0  0  0  0  0  0
   47.0599   31.0815   40.9864 H   0  0  0  0  0  0  0  0  0  0  0  0
   43.6439   31.8015   43.4672 H   0  0  0  0  0  0  0  0  0  0  0  0
  1 10  1  0
  1  2  2  0
  2  3  1  0
  4  3  2  0
  5  4  1  0
  6  5  2  0
  7  6  1  0
  8  9  1  0
  8  7  2  0
  9 10  2  0
 10  5  1  0
 11 16  2  0
 12 13  2  0
 12 11  1  0
 13 14  1  0
 14 15  2  0
 15  1  1  0
 16 15  1  0
 17 11  1  0
 18  9  1  0
 19 18  1  0
 20 21  1  0
 20 19  2  0
 21 22  2  0
 22 18  1  0
  2 23  1  0
  3 24  1  0
  4 25  1  0
  6 26  1  0
  7 27  1  0
  8 28  1  0
 12 29  1  0
 13 30  1  0
 17 31  1  0
 17 32  1  0
 19 33  1  0
 20 34  1  0
 22 35  1  0
M  ISO  8  23  14  24  14  25  14  26  14  27  14  28  14  29  14  30  14
M  ISO  3  33  14  34  14  35  14
M  END
>  <minimizedAffinity>  (1) 
-5.40320253

>  <minimizedRMSD>  (1) 
0.50378269

$$$$
