
     RDKit          3D

 36 39  0  0  0  0  0  0  0  0999 V2000
   45.9460   32.3200   46.5260 C   0  0  0  0  0  0  0  0  0  0  0  0
   46.0470   32.8660   47.8230 C   0  0  0  0  0  0  0  0  0  0  0  0
   45.8730   32.1600   48.9770 C   0  0  0  0  0  0  0  0  0  0  0  0
   45.5790   30.8100   48.8940 C   0  0  0  0  0  0  0  0  0  0  0  0
   45.4680   30.2230   47.6610 C   0  0  0  0  0  0  0  0  0  0  0  0
   45.1960   28.8810   47.6260 C   0  0  0  0  0  0  0  0  0  0  0  0
   45.0910   28.2230   46.4120 C   0  0  0  0  0  0  0  0  0  0  0  0
   45.2740   29.0030   45.2570 C   0  0  0  0  0  0  0  0  0  0  0  0
   45.5440   30.3550   45.3640 C   0  0  0  0  0  0  0  0  0  0  0  0
   45.6520   30.9910   46.5400 C   0  0  0  0  0  0  0  0  0  0  0  0
   45.2090   34.7670   44.0090 C   0  0  0  0  0  0  0  0  0  0  0  0
   46.3120   34.8440   43.1840 C   0  0  0  0  0  0  0  0  0  0  0  0
   47.3920   34.0100   43.4920 C   0  0  0  0  0  0  0  0  0  0  0  0
   47.2740   33.2070   44.5520 N   0  0  0  0  0  0  0  0  0  0  0  0
   46.1920   33.1390   45.3480 C   0  0  0  0  0  0  0  0  0  0  0  0
   45.1660   33.9430   45.0460 N   0  0  0  0  0  0  0  0  0  0  0  0
   44.0180   35.5660   43.8360 N   0  0  0  0  0  0  0  0  0  0  0  0
   45.6190   30.8040   43.9740 C   0  0  0  0  0  0  0  0  0  0  0  0
   44.5550   31.3780   43.2470 C   0  0  0  0  0  0  0  0  0  0  0  0
   44.5470   31.7090   41.9160 C   0  0  0  0  0  0  0  0  0  0  0  0
   45.7060   31.4400   41.2660 N   0  0  0  0  0  0  0  0  0  0  0  0
   46.7390   30.8880   41.9450 C   0  0  0  0  0  0  0  0  0  0  0  0
   46.7560   30.5600   43.2470 N   0  0  0  0  0  0  0  0  0  0  0  0
   46.2828   33.9369   47.9097 H   0  0  0  0  0  0  0  0  0  0  0  0
   45.9646   32.6543   49.9554 H   0  0  0  0  0  0  0  0  0  0  0  0
   45.4360   30.2149   49.8080 H   0  0  0  0  0  0  0  0  0  0  0  0
   45.0606   28.3243   48.5650 H   0  0  0  0  0  0  0  0  0  0  0  0
   44.8756   27.1458   46.3545 H   0  0  0  0  0  0  0  0  0  0  0  0
   45.2021   28.5359   44.2637 H   0  0  0  0  0  0  0  0  0  0  0  0
   46.3409   35.5293   42.3240 H   0  0  0  0  0  0  0  0  0  0  0  0
   48.3072   34.0156   42.8817 H   0  0  0  0  0  0  0  0  0  0  0  0
   43.9566   36.2369   43.0569 H   0  0  0  0  0  0  0  0  0  0  0  0
   43.2302   35.4648   44.4918 H   0  0  0  0  0  0  0  0  0  0  0  0
   43.6315   31.5823   43.8086 H   0  0  0  0  0  0  0  0  0  0  0  0
   43.6737   32.1552   41.4178 H   0  0  0  0  0  0  0  0  0  0  0  0
   47.6568   30.6881   41.3725 H   0  0  0  0  0  0  0  0  0  0  0  0
  1 10  1  0
  1  2  2  0
  2  3  1  0
  4  3  2  0
  5  4  1  0
  6  5  2  0
  7  6  1  0
  8  9  1  0
  8  7  2  0
  9 10  2  0
 10  5  1  0
 11 16  2  0
 12 13  2  0
 12 11  1  0
 13 14  1  0
 14 15  2  0
 15  1  1  0
 16 15  1  0
 17 11  1  0
 18  9  1  0
 19 18  2  0
 20 19  1  0
 21 20  2  0
 21 22  1  0
 22 23  2  0
 23 18  1  0
  2 24  1  0
  3 25  1  0
  4 26  1  0
  6 27  1  0
  7 28  1  0
  8 29  1  0
 12 30  1  0
 13 31  1  0
 17 32  1  0
 17 33  1  0
 19 34  1  0
 20 35  1  0
 22 36  1  0
M  ISO  8  24  14  25  14  26  14  27  14  28  14  29  14  30  14  31  14
M  ISO  3  34  14  35  14  36  14
M  END
>  <minimizedAffinity>  (1) 
-5.44823456

>  <minimizedRMSD>  (1) 
0.728024125

$$$$
