
     RDKit          3D

 33 36  0  0  0  0  0  0  0  0999 V2000
   45.9320   32.3230   46.5580 C   0  0  0  0  0  0  0  0  0  0  0  0
   46.0690   32.8480   47.8620 C   0  0  0  0  0  0  0  0  0  0  0  0
   45.9210   32.1150   49.0140 C   0  0  0  0  0  0  0  0  0  0  0  0
   45.6190   30.7780   48.9180 C   0  0  0  0  0  0  0  0  0  0  0  0
   45.4740   30.2200   47.6800 C   0  0  0  0  0  0  0  0  0  0  0  0
   45.1980   28.8710   47.6280 C   0  0  0  0  0  0  0  0  0  0  0  0
   45.0620   28.2270   46.4180 C   0  0  0  0  0  0  0  0  0  0  0  0
   45.2160   29.0210   45.2750 C   0  0  0  0  0  0  0  0  0  0  0  0
   45.4910   30.3760   45.3790 C   0  0  0  0  0  0  0  0  0  0  0  0
   45.6290   30.9950   46.5580 C   0  0  0  0  0  0  0  0  0  0  0  0
   45.1510   34.8330   44.1100 C   0  0  0  0  0  0  0  0  0  0  0  0
   46.2530   34.8930   43.2470 C   0  0  0  0  0  0  0  0  0  0  0  0
   47.3270   34.0250   43.5140 C   0  0  0  0  0  0  0  0  0  0  0  0
   47.2360   33.2010   44.5640 N   0  0  0  0  0  0  0  0  0  0  0  0
   46.1630   33.1570   45.3860 C   0  0  0  0  0  0  0  0  0  0  0  0
   45.1430   33.9860   45.1310 N   0  0  0  0  0  0  0  0  0  0  0  0
   43.9800   35.6310   43.9690 N   0  0  0  0  0  0  0  0  0  0  0  0
   45.5020   30.8770   43.9770 C   0  0  0  0  0  0  0  0  0  0  0  0
   46.5170   30.6740   43.1160 N   0  0  0  0  0  0  0  0  0  0  0  0
   46.1690   31.1080   41.9550 O   0  0  0  0  0  0  0  0  0  0  0  0
   44.9650   31.5880   42.0140 C   0  0  0  0  0  0  0  0  0  0  0  0
   44.5030   31.4690   43.2540 N   0  0  0  0  0  0  0  0  0  0  0  0
   46.3106   33.9165   47.9617 H   0  0  0  0  0  0  0  0  0  0  0  0
   46.0424   32.5909   49.9983 H   0  0  0  0  0  0  0  0  0  0  0  0
   45.4959   30.1667   49.8242 H   0  0  0  0  0  0  0  0  0  0  0  0
   45.0851   28.3023   48.5628 H   0  0  0  0  0  0  0  0  0  0  0  0
   44.8448   27.1506   46.3533 H   0  0  0  0  0  0  0  0  0  0  0  0
   45.1173   28.5630   44.2798 H   0  0  0  0  0  0  0  0  0  0  0  0
   46.2773   35.5898   42.3962 H   0  0  0  0  0  0  0  0  0  0  0  0
   48.2216   34.0237   42.8739 H   0  0  0  0  0  0  0  0  0  0  0  0
   43.9108   36.3127   43.1999 H   0  0  0  0  0  0  0  0  0  0  0  0
   43.2022   35.5265   44.6361 H   0  0  0  0  0  0  0  0  0  0  0  0
   44.4128   32.0253   41.1691 H   0  0  0  0  0  0  0  0  0  0  0  0
  1  2  2  0
  2  3  1  0
  4  3  2  0
  5  4  1  0
  6  5  2  0
  7  6  1  0
  8  9  1  0
  8  7  2  0
  9 10  2  0
 10  1  1  0
 10  5  1  0
 11 16  2  0
 12 13  2  0
 12 11  1  0
 13 14  1  0
 14 15  2  0
 15  1  1  0
 16 15  1  0
 17 11  1  0
 18  9  1  0
 19 18  2  0
 20 21  1  0
 20 19  1  0
 21 22  2  0
 22 18  1  0
  2 23  1  0
  3 24  1  0
  4 25  1  0
  6 26  1  0
  7 27  1  0
  8 28  1  0
 12 29  1  0
 13 30  1  0
 17 31  1  0
 17 32  1  0
 21 33  1  0
M  ISO  8  23  14  24  14  25  14  26  14  27  14  28  14  29  14  30  14
M  ISO  1  33  14
M  END
>  <minimizedAffinity>  (1) 
-5.4516983

>  <minimizedRMSD>  (1) 
0.370608419

$$$$
