
     RDKit          3D

 35 38  0  0  0  0  0  0  0  0999 V2000
   45.9430   32.3100   46.5160 C   0  0  0  0  0  0  0  0  0  0  0  0
   46.0610   32.8500   47.8180 C   0  0  0  0  0  0  0  0  0  0  0  0
   45.8920   32.1310   48.9770 C   0  0  0  0  0  0  0  0  0  0  0  0
   45.5880   30.7930   48.8870 C   0  0  0  0  0  0  0  0  0  0  0  0
   45.4620   30.2240   47.6540 C   0  0  0  0  0  0  0  0  0  0  0  0
   45.1820   28.8740   47.6140 C   0  0  0  0  0  0  0  0  0  0  0  0
   45.0650   28.2140   46.4090 C   0  0  0  0  0  0  0  0  0  0  0  0
   45.2420   28.9940   45.2630 C   0  0  0  0  0  0  0  0  0  0  0  0
   45.5190   30.3500   45.3500 C   0  0  0  0  0  0  0  0  0  0  0  0
   45.6360   30.9770   46.5290 C   0  0  0  0  0  0  0  0  0  0  0  0
   45.1880   34.7850   44.0290 C   0  0  0  0  0  0  0  0  0  0  0  0
   46.3060   34.8480   43.1900 C   0  0  0  0  0  0  0  0  0  0  0  0
   47.3810   33.9940   43.4910 C   0  0  0  0  0  0  0  0  0  0  0  0
   47.2690   33.1840   44.5460 N   0  0  0  0  0  0  0  0  0  0  0  0
   46.1850   33.1320   45.3460 C   0  0  0  0  0  0  0  0  0  0  0  0
   45.1660   33.9490   45.0550 N   0  0  0  0  0  0  0  0  0  0  0  0
   44.0100   35.5710   43.8570 N   0  0  0  0  0  0  0  0  0  0  0  0
   45.5820   30.8160   43.9600 C   0  0  0  0  0  0  0  0  0  0  0  0
   44.5930   31.3530   43.1120 C   0  0  0  0  0  0  0  0  0  0  0  0
   45.0620   31.5290   41.8340 C   0  0  0  0  0  0  0  0  0  0  0  0
   46.3250   31.0930   41.9420 N   0  0  0  0  0  0  0  0  0  0  0  0
   46.6710   30.6720   43.1410 N   0  0  0  0  0  0  0  0  0  0  0  0
   46.3048   33.9188   47.9091 H   0  0  0  0  0  0  0  0  0  0  0  0
   45.9979   32.6168   49.9582 H   0  0  0  0  0  0  0  0  0  0  0  0
   45.4484   30.1902   49.7965 H   0  0  0  0  0  0  0  0  0  0  0  0
   45.0506   28.3177   48.5538 H   0  0  0  0  0  0  0  0  0  0  0  0
   44.8454   27.1376   46.3531 H   0  0  0  0  0  0  0  0  0  0  0  0
   45.1600   28.5230   44.2723 H   0  0  0  0  0  0  0  0  0  0  0  0
   46.3420   35.5358   42.3323 H   0  0  0  0  0  0  0  0  0  0  0  0
   48.2911   33.9932   42.8731 H   0  0  0  0  0  0  0  0  0  0  0  0
   43.9497   36.2455   43.0809 H   0  0  0  0  0  0  0  0  0  0  0  0
   43.2198   35.4640   44.5089 H   0  0  0  0  0  0  0  0  0  0  0  0
   43.5709   31.6007   43.4345 H   0  0  0  0  0  0  0  0  0  0  0  0
   44.5381   31.9246   40.9514 H   0  0  0  0  0  0  0  0  0  0  0  0
   46.9775   31.0876   41.1451 H   0  0  0  0  0  0  0  0  0  0  0  0
  1 10  1  0
  1  2  2  0
  2  3  1  0
  4  3  2  0
  5  4  1  0
  6  5  2  0
  7  6  1  0
  8  9  1  0
  8  7  2  0
  9 10  2  0
 10  5  1  0
 11 16  2  0
 12 13  2  0
 12 11  1  0
 13 14  1  0
 14 15  2  0
 15  1  1  0
 16 15  1  0
 17 11  1  0
 18  9  1  0
 19 18  1  0
 20 21  1  0
 20 19  2  0
 21 22  1  0
 22 18  2  0
  2 23  1  0
  3 24  1  0
  4 25  1  0
  6 26  1  0
  7 27  1  0
  8 28  1  0
 12 29  1  0
 13 30  1  0
 17 31  1  0
 17 32  1  0
 19 33  1  0
 20 34  1  0
 21 35  1  0
M  ISO  8  23  14  24  14  25  14  26  14  27  14  28  14  29  14  30  14
M  ISO  3  33  14  34  14  35   9
M  END
>  <minimizedAffinity>  (1) 
-5.42052269

>  <minimizedRMSD>  (1) 
0.603366971

$$$$
