
     RDKit          3D

 35 38  0  0  0  0  0  0  0  0999 V2000
   45.8240   32.2190   46.8120 C   0  0  0  0  0  0  0  0  0  0  0  0
   45.9750   32.7520   48.0970 C   0  0  0  0  0  0  0  0  0  0  0  0
   45.8420   32.0290   49.2590 C   0  0  0  0  0  0  0  0  0  0  0  0
   45.5430   30.6890   49.1780 C   0  0  0  0  0  0  0  0  0  0  0  0
   45.3890   30.1330   47.9430 C   0  0  0  0  0  0  0  0  0  0  0  0
   45.1290   28.7710   47.8730 C   0  0  0  0  0  0  0  0  0  0  0  0
   44.9990   28.1370   46.6750 C   0  0  0  0  0  0  0  0  0  0  0  0
   45.1370   28.9320   45.5330 C   0  0  0  0  0  0  0  0  0  0  0  0
   45.3940   30.2800   45.6200 C   0  0  0  0  0  0  0  0  0  0  0  0
   45.5280   30.8930   46.8070 C   0  0  0  0  0  0  0  0  0  0  0  0
   45.0890   34.8160   44.4470 C   0  0  0  0  0  0  0  0  0  0  0  0
   46.1530   34.8420   43.5380 C   0  0  0  0  0  0  0  0  0  0  0  0
   47.1650   33.9130   43.7460 C   0  0  0  0  0  0  0  0  0  0  0  0
   47.0450   33.0870   44.7710 N   0  0  0  0  0  0  0  0  0  0  0  0
   46.0380   33.0420   45.6500 C   0  0  0  0  0  0  0  0  0  0  0  0
   45.0370   33.9590   45.4540 N   0  0  0  0  0  0  0  0  0  0  0  0
   43.9280   35.6530   44.3550 N   0  0  0  0  0  0  0  0  0  0  0  0
   45.4640   30.8810   44.2580 C   0  0  0  0  0  0  0  0  0  0  0  0
   45.0730   30.2000   43.0260 C   0  0  0  0  0  0  0  0  0  0  0  0
   46.4640   30.0970   43.3140 C   0  0  0  0  0  0  0  0  0  0  0  0
   46.2164   33.8217   48.1834 H   0  0  0  0  0  0  0  0  0  0  0  0
   45.9726   32.5144   50.2374 H   0  0  0  0  0  0  0  0  0  0  0  0
   45.4309   30.0808   50.0877 H   0  0  0  0  0  0  0  0  0  0  0  0
   45.0260   28.1930   48.8032 H   0  0  0  0  0  0  0  0  0  0  0  0
   44.7964   27.0578   46.6091 H   0  0  0  0  0  0  0  0  0  0  0  0
   45.0375   28.4677   44.5408 H   0  0  0  0  0  0  0  0  0  0  0  0
   46.1862   35.5589   42.7043 H   0  0  0  0  0  0  0  0  0  0  0  0
   48.0384   33.8664   43.0789 H   0  0  0  0  0  0  0  0  0  0  0  0
   43.8597   36.3585   43.6077 H   0  0  0  0  0  0  0  0  0  0  0  0
   43.1625   35.5486   45.0362 H   0  0  0  0  0  0  0  0  0  0  0  0
   45.2309   31.8841   44.6445 H   0  0  0  0  0  0  0  0  0  0  0  0
   44.7524   30.8038   42.1643 H   0  0  0  0  0  0  0  0  0  0  0  0
   44.3056   29.4407   42.8149 H   0  0  0  0  0  0  0  0  0  0  0  0
   46.8955   29.1377   43.6357 H   0  0  0  0  0  0  0  0  0  0  0  0
   47.3999   30.3314   42.7856 H   0  0  0  0  0  0  0  0  0  0  0  0
  1  2  2  0
  2  3  1  0
  4  3  2  0
  5  4  1  0
  6  5  2  0
  7  6  1  0
  8  9  1  0
  8  7  2  0
  9 10  2  0
 10  1  1  0
 10  5  1  0
 11 16  2  0
 12 13  2  0
 12 11  1  0
 13 14  1  0
 14 15  2  0
 15  1  1  0
 16 15  1  0
 17 11  1  0
 18  9  1  0
 19 20  1  0
 19 18  1  0
 20 18  1  0
  2 21  1  0
  3 22  1  0
  4 23  1  0
  6 24  1  0
  7 25  1  0
  8 26  1  0
 12 27  1  0
 13 28  1  0
 17 29  1  0
 17 30  1  0
 18 31  1  0
 19 32  1  0
 19 33  1  0
 20 34  1  0
 20 35  1  0
M  ISO  8  21  14  22  14  23  14  24  14  25  14  26  14  27  14  28  14
M  ISO  5  31  13  32  13  33  13  34  13  35  13
M  END
>  <minimizedAffinity>  (1) 
-5.35137844

>  <minimizedRMSD>  (1) 
0.106850863

$$$$
