
     RDKit          3D

 44 47  0  0  0  0  0  0  0  0999 V2000
   45.8480   32.2210   46.6480 C   0  0  0  0  0  0  0  0  0  0  0  0
   45.9200   32.8050   47.9210 C   0  0  0  0  0  0  0  0  0  0  0  0
   45.7600   32.1130   49.0980 C   0  0  0  0  0  0  0  0  0  0  0  0
   45.5170   30.7610   49.0440 C   0  0  0  0  0  0  0  0  0  0  0  0
   45.4380   30.1520   47.8170 C   0  0  0  0  0  0  0  0  0  0  0  0
   45.2340   28.8010   47.8050 C   0  0  0  0  0  0  0  0  0  0  0  0
   45.1800   28.1220   46.6100 C   0  0  0  0  0  0  0  0  0  0  0  0
   45.3400   28.8950   45.4440 C   0  0  0  0  0  0  0  0  0  0  0  0
   45.5420   30.2460   45.4840 C   0  0  0  0  0  0  0  0  0  0  0  0
   45.6000   30.8840   46.6630 C   0  0  0  0  0  0  0  0  0  0  0  0
   45.2650   34.7450   44.1750 C   0  0  0  0  0  0  0  0  0  0  0  0
   46.4010   34.7590   43.3510 C   0  0  0  0  0  0  0  0  0  0  0  0
   47.3950   33.8460   43.6530 C   0  0  0  0  0  0  0  0  0  0  0  0
   47.1810   33.0520   44.6790 N   0  0  0  0  0  0  0  0  0  0  0  0
   46.1290   32.9980   45.4810 C   0  0  0  0  0  0  0  0  0  0  0  0
   45.1370   33.9110   45.1860 N   0  0  0  0  0  0  0  0  0  0  0  0
   44.1010   35.5870   44.0110 N   0  0  0  0  0  0  0  0  0  0  0  0
   45.6290   30.7800   44.1010 C   0  0  0  0  0  0  0  0  0  0  0  0
   44.4250   30.5290   43.2410 C   0  0  0  0  0  0  0  0  0  0  0  0
   44.4960   29.4560   42.2120 C   0  0  0  0  0  0  0  0  0  0  0  0
   45.5640   29.7370   41.1460 C   0  0  0  0  0  0  0  0  0  0  0  0
   46.6890   30.4780   41.8860 C   0  0  0  0  0  0  0  0  0  0  0  0
   46.6440   29.8890   43.2910 C   0  0  0  0  0  0  0  0  0  0  0  0
   46.1170   33.8855   47.9815 H   0  0  0  0  0  0  0  0  0  0  0  0
   45.8252   32.6318   50.0658 H   0  0  0  0  0  0  0  0  0  0  0  0
   45.3882   30.1779   49.9678 H   0  0  0  0  0  0  0  0  0  0  0  0
   45.1128   28.2555   48.7525 H   0  0  0  0  0  0  0  0  0  0  0  0
   45.0205   27.0345   46.5675 H   0  0  0  0  0  0  0  0  0  0  0  0
   45.3010   28.3934   44.4658 H   0  0  0  0  0  0  0  0  0  0  0  0
   46.4959   35.4599   42.5085 H   0  0  0  0  0  0  0  0  0  0  0  0
   48.3212   33.7869   43.0625 H   0  0  0  0  0  0  0  0  0  0  0  0
   44.0729   36.2852   43.2542 H   0  0  0  0  0  0  0  0  0  0  0  0
   43.2999   35.4886   44.6509 H   0  0  0  0  0  0  0  0  0  0  0  0
   45.8406   31.8486   44.2537 H   0  0  0  0  0  0  0  0  0  0  0  0
   43.5921   30.2780   43.9143 H   0  0  0  0  0  0  0  0  0  0  0  0
   44.3151   31.4544   42.6565 H   0  0  0  0  0  0  0  0  0  0  0  0
   44.7354   28.5047   42.7096 H   0  0  0  0  0  0  0  0  0  0  0  0
   43.5204   29.4119   41.7057 H   0  0  0  0  0  0  0  0  0  0  0  0
   45.1513   30.3657   40.3432 H   0  0  0  0  0  0  0  0  0  0  0  0
   45.9242   28.8120   40.6720 H   0  0  0  0  0  0  0  0  0  0  0  0
   47.6629   30.2875   41.4115 H   0  0  0  0  0  0  0  0  0  0  0  0
   46.5591   31.5703   41.8766 H   0  0  0  0  0  0  0  0  0  0  0  0
   46.2955   28.8462   43.2576 H   0  0  0  0  0  0  0  0  0  0  0  0
   47.6396   29.8845   43.7588 H   0  0  0  0  0  0  0  0  0  0  0  0
  1 10  1  0
  1  2  2  0
  2  3  1  0
  4  3  2  0
  5  4  1  0
  6  5  2  0
  7  6  1  0
  8  9  1  0
  8  7  2  0
  9 10  2  0
 10  5  1  0
 11 16  2  0
 12 13  2  0
 12 11  1  0
 13 14  1  0
 14 15  2  0
 15  1  1  0
 16 15  1  0
 17 11  1  0
 18  9  1  0
 19 18  1  0
 20 19  1  0
 21 22  1  0
 21 20  1  0
 22 23  1  0
 23 18  1  0
  2 24  1  0
  3 25  1  0
  4 26  1  0
  6 27  1  0
  7 28  1  0
  8 29  1  0
 12 30  1  0
 13 31  1  0
 17 32  1  0
 17 33  1  0
 18 34  1  0
 19 35  1  0
 19 36  1  0
 20 37  1  0
 20 38  1  0
 21 39  1  0
 21 40  1  0
 22 41  1  0
 22 42  1  0
 23 43  1  0
 23 44  1  0
M  ISO  8  24  14  25  14  26  14  27  14  28  14  29  14  30  14  31  14
M  ISO  8  34  13  35  13  36  13  37  13  38  13  39  13  40  13  41  13
M  ISO  3  42  13  43  13  44  13
M  END
>  <minimizedAffinity>  (1) 
-5.38370991

>  <minimizedRMSD>  (1) 
0.93975842

$$$$
