
     RDKit          3D

 35 38  0  0  0  0  0  0  0  0999 V2000
   47.2940   34.2140   40.1600 C   0  0  0  0  0  0  0  0  0  0  0  0
   48.1560   34.2700   39.0890 C   0  0  0  0  0  0  0  0  0  0  0  0
   47.9090   33.8500   37.8090 C   0  0  0  0  0  0  0  0  0  0  0  0
   46.6710   33.3280   37.6070 N   0  0  0  0  0  0  0  0  0  0  0  0
   45.7830   33.2540   38.6500 C   0  0  0  0  0  0  0  0  0  0  0  0
   46.0580   33.6760   39.8960 N   0  0  0  0  0  0  0  0  0  0  0  0
   44.4920   32.6950   38.3850 N   0  0  0  0  0  0  0  0  0  0  0  0
   44.2430   31.4600   37.9180 C   0  0  0  0  0  0  0  0  0  0  0  0
   42.9150   31.2840   37.7930 N   0  0  0  0  0  0  0  0  0  0  0  0
   42.2990   32.4220   38.1830 C   0  0  0  0  0  0  0  0  0  0  0  0
   40.9710   32.7510   38.2440 C   0  0  0  0  0  0  0  0  0  0  0  0
   40.6910   33.9890   38.6870 N   0  0  0  0  0  0  0  0  0  0  0  0
   41.6690   34.8650   39.0550 C   0  0  0  0  0  0  0  0  0  0  0  0
   42.9780   34.5400   38.9950 N   0  0  0  0  0  0  0  0  0  0  0  0
   43.3040   33.3090   38.5560 C   0  0  0  0  0  0  0  0  0  0  0  0
   47.6330   34.6800   41.5210 C   0  0  0  0  0  0  0  0  0  0  0  0
   47.0900   33.6950   42.5240 C   0  0  0  0  0  0  0  0  0  0  0  0
   44.6760   36.0450   44.2500 C   0  0  0  0  0  0  0  0  0  0  0  0
   45.5010   35.4990   43.2600 C   0  0  0  0  0  0  0  0  0  0  0  0
   46.1940   34.3320   43.5180 C   0  0  0  0  0  0  0  0  0  0  0  0
   46.0340   33.7600   44.7470 N   0  0  0  0  0  0  0  0  0  0  0  0
   45.2300   34.3110   45.6830 C   0  0  0  0  0  0  0  0  0  0  0  0
   44.5640   35.4340   45.4310 N   0  0  0  0  0  0  0  0  0  0  0  0
   49.1507   34.6983   39.2816 H   0  0  0  0  0  0  0  0  0  0  0  0
   48.6561   33.9293   37.0056 H   0  0  0  0  0  0  0  0  0  0  0  0
   45.0080   30.7078   37.6750 H   0  0  0  0  0  0  0  0  0  0  0  0
   40.1811   32.0449   37.9483 H   0  0  0  0  0  0  0  0  0  0  0  0
   41.3831   35.8657   39.4112 H   0  0  0  0  0  0  0  0  0  0  0  0
   48.7258   34.7493   41.6260 H   0  0  0  0  0  0  0  0  0  0  0  0
   47.1909   35.6719   41.6960 H   0  0  0  0  0  0  0  0  0  0  0  0
   46.5252   32.9192   41.9863 H   0  0  0  0  0  0  0  0  0  0  0  0
   47.9446   33.2685   43.0697 H   0  0  0  0  0  0  0  0  0  0  0  0
   44.1216   36.9749   44.0551 H   0  0  0  0  0  0  0  0  0  0  0  0
   45.5970   35.9956   42.2832 H   0  0  0  0  0  0  0  0  0  0  0  0
   45.1253   33.8251   46.6643 H   0  0  0  0  0  0  0  0  0  0  0  0
  1 16  1  0
  2  1  2  0
  3  2  1  0
  4  3  2  0
  4  5  1  0
  5  6  2  0
  6  1  1  0
  7 15  1  0
  7  5  1  0
  8  7  1  0
  9  8  2  0
  9 10  1  0
 10 11  2  0
 10 15  1  0
 11 12  1  0
 12 13  2  0
 14 13  1  0
 15 14  2  0
 16 17  1  0
 17 20  1  0
 18 23  2  0
 19 20  2  0
 19 18  1  0
 20 21  1  0
 21 22  2  0
 23 22  1  0
  2 24  1  0
  3 25  1  0
  8 26  1  0
 11 27  1  0
 13 28  1  0
 16 29  1  0
 16 30  1  0
 17 31  1  0
 17 32  1  0
 18 33  1  0
 19 34  1  0
 22 35  1  0
M  ISO  8  24  14  25  14  26  14  27  14  28  14  29   8  30   8  31   8
M  ISO  4  32   8  33  14  34  14  35  14
M  END
>  <minimizedAffinity>  (1) 
-5.68685436

>  <minimizedRMSD>  (1) 
0.732396543

$$$$
