
     RDKit          3D

 49 54  0  0  0  0  0  0  0  0999 V2000
   46.0840   32.2940   46.3170 C   0  0  0  0  0  0  0  0  0  0  0  0
   46.3520   32.7720   47.6320 C   0  0  0  0  0  0  0  0  0  0  0  0
   46.2530   32.0170   48.7610 C   0  0  0  0  0  0  0  0  0  0  0  0
   45.8700   30.7000   48.6400 C   0  0  0  0  0  0  0  0  0  0  0  0
   45.5980   30.1860   47.3940 C   0  0  0  0  0  0  0  0  0  0  0  0
   45.2210   28.8750   47.3280 C   0  0  0  0  0  0  0  0  0  0  0  0
   44.9290   28.2970   46.0940 C   0  0  0  0  0  0  0  0  0  0  0  0
   45.0450   29.1310   44.9620 C   0  0  0  0  0  0  0  0  0  0  0  0
   45.4350   30.4540   45.1200 C   0  0  0  0  0  0  0  0  0  0  0  0
   45.7130   30.9920   46.3060 C   0  0  0  0  0  0  0  0  0  0  0  0
   45.2190   34.8790   43.9790 C   0  0  0  0  0  0  0  0  0  0  0  0
   46.3020   34.9920   43.1020 C   0  0  0  0  0  0  0  0  0  0  0  0
   47.3670   34.1510   43.3210 C   0  0  0  0  0  0  0  0  0  0  0  0
   47.2980   33.2960   44.3390 N   0  0  0  0  0  0  0  0  0  0  0  0
   46.2480   33.1870   45.1890 C   0  0  0  0  0  0  0  0  0  0  0  0
   45.2190   34.0030   44.9740 N   0  0  0  0  0  0  0  0  0  0  0  0
   44.0260   35.6800   43.8970 N   0  0  0  0  0  0  0  0  0  0  0  0
   45.3870   30.9720   43.7490 C   0  0  0  0  0  0  0  0  0  0  0  0
   44.3430   31.7100   43.1220 C   0  0  0  0  0  0  0  0  0  0  0  0
   44.4160   32.0970   41.8080 C   0  0  0  0  0  0  0  0  0  0  0  0
   45.5080   31.7820   41.0480 C   0  0  0  0  0  0  0  0  0  0  0  0
   46.5740   31.0730   41.5490 C   0  0  0  0  0  0  0  0  0  0  0  0
   46.4680   30.6910   42.9020 C   0  0  0  0  0  0  0  0  0  0  0  0
   47.5640   29.9500   43.4290 N   0  0  0  0  0  0  0  0  0  0  0  0
   47.7420   28.8590   44.1590 C   0  0  0  0  0  0  0  0  0  0  0  0
   49.0440   28.6310   44.3540 N   0  0  0  0  0  0  0  0  0  0  0  0
   49.7620   29.5920   43.7410 C   0  0  0  0  0  0  0  0  0  0  0  0
   51.1170   29.7550   43.6800 C   0  0  0  0  0  0  0  0  0  0  0  0
   51.5390   30.8320   42.9800 N   0  0  0  0  0  0  0  0  0  0  0  0
   50.6680   31.6630   42.4010 C   0  0  0  0  0  0  0  0  0  0  0  0
   49.3600   31.4680   42.4860 N   0  0  0  0  0  0  0  0  0  0  0  0
   48.8190   30.4200   43.1600 C   0  0  0  0  0  0  0  0  0  0  0  0
   46.6598   33.8222   47.7429 H   0  0  0  0  0  0  0  0  0  0  0  0
   46.4741   32.4497   49.7478 H   0  0  0  0  0  0  0  0  0  0  0  0
   45.7823   30.0640   49.5332 H   0  0  0  0  0  0  0  0  0  0  0  0
   45.1479   28.2760   48.2477 H   0  0  0  0  0  0  0  0  0  0  0  0
   44.6235   27.2439   46.0070 H   0  0  0  0  0  0  0  0  0  0  0  0
   44.8275   28.7349   43.9591 H   0  0  0  0  0  0  0  0  0  0  0  0
   46.3018   35.7190   42.2764 H   0  0  0  0  0  0  0  0  0  0  0  0
   48.2541   34.1837   42.6713 H   0  0  0  0  0  0  0  0  0  0  0  0
   43.9320   36.3895   43.1563 H   0  0  0  0  0  0  0  0  0  0  0  0
   43.2663   35.5437   44.5790 H   0  0  0  0  0  0  0  0  0  0  0  0
   43.4518   31.9776   43.7086 H   0  0  0  0  0  0  0  0  0  0  0  0
   43.5877   32.6665   41.3613 H   0  0  0  0  0  0  0  0  0  0  0  0
   45.5346   32.1076   39.9976 H   0  0  0  0  0  0  0  0  0  0  0  0
   47.4512   30.8206   40.9351 H   0  0  0  0  0  0  0  0  0  0  0  0
   46.9303   28.2282   44.5504 H   0  0  0  0  0  0  0  0  0  0  0  0
   51.8159   29.0586   44.1664 H   0  0  0  0  0  0  0  0  0  0  0  0
   51.0458   32.5304   41.8399 H   0  0  0  0  0  0  0  0  0  0  0  0
  1  2  2  0
  2  3  1  0
  4  3  2  0
  5  4  1  0
  6  5  2  0
  7  6  1  0
  8  9  1  0
  8  7  2  0
  9 10  2  0
 10  1  1  0
 10  5  1  0
 11 16  2  0
 12 13  2  0
 12 11  1  0
 13 14  1  0
 14 15  2  0
 15  1  1  0
 16 15  1  0
 17 11  1  0
 18  9  1  0
 19 18  2  0
 20 19  1  0
 21 22  1  0
 21 20  2  0
 22 23  2  0
 23 24  1  0
 23 18  1  0
 24 25  1  0
 25 26  2  0
 27 26  1  0
 28 27  2  0
 29 28  1  0
 30 31  1  0
 30 29  2  0
 31 32  2  0
 32 24  1  0
 32 27  1  0
  2 33  1  0
  3 34  1  0
  4 35  1  0
  6 36  1  0
  7 37  1  0
  8 38  1  0
 12 39  1  0
 13 40  1  0
 17 41  1  0
 17 42  1  0
 19 43  1  0
 20 44  1  0
 21 45  1  0
 22 46  1  0
 25 47  1  0
 28 48  1  0
 30 49  1  0
M  ISO  8  33  14  34  14  35  14  36  14  37  14  38  14  39  14  40  14
M  ISO  7  43  14  44  14  45  14  46  14  47  14  48  14  49  14
M  END
>  <minimizedAffinity>  (1) 
-5.92835522

>  <minimizedRMSD>  (1) 
0.715101242

$$$$
