
     RDKit          3D

 48 52  0  0  0  0  0  0  0  0999 V2000
   46.4350   32.5580   45.7380 C   0  0  0  0  0  0  0  0  0  0  0  0
   46.8570   32.9180   47.0450 C   0  0  0  0  0  0  0  0  0  0  0  0
   47.0450   32.0320   48.0670 C   0  0  0  0  0  0  0  0  0  0  0  0
   46.8150   30.7010   47.8390 C   0  0  0  0  0  0  0  0  0  0  0  0
   46.4070   30.2980   46.5980 C   0  0  0  0  0  0  0  0  0  0  0  0
   46.1950   28.9610   46.4140 C   0  0  0  0  0  0  0  0  0  0  0  0
   45.7850   28.4800   45.1760 C   0  0  0  0  0  0  0  0  0  0  0  0
   45.6040   29.4310   44.1550 C   0  0  0  0  0  0  0  0  0  0  0  0
   45.8390   30.7750   44.4200 C   0  0  0  0  0  0  0  0  0  0  0  0
   46.2340   31.2250   45.6100 C   0  0  0  0  0  0  0  0  0  0  0  0
   44.8310   35.1800   43.8820 C   0  0  0  0  0  0  0  0  0  0  0  0
   45.7410   35.5750   42.8970 C   0  0  0  0  0  0  0  0  0  0  0  0
   46.9450   34.9140   42.8740 C   0  0  0  0  0  0  0  0  0  0  0  0
   47.1550   33.9620   43.7750 N   0  0  0  0  0  0  0  0  0  0  0  0
   46.2810   33.5770   44.7270 C   0  0  0  0  0  0  0  0  0  0  0  0
   45.1140   34.2200   44.7450 N   0  0  0  0  0  0  0  0  0  0  0  0
   43.5160   35.7590   44.0570 N   0  0  0  0  0  0  0  0  0  0  0  0
   45.5000   31.4200   43.1480 C   0  0  0  0  0  0  0  0  0  0  0  0
   44.2610   32.0050   42.7710 C   0  0  0  0  0  0  0  0  0  0  0  0
   44.0670   32.5420   41.5240 C   0  0  0  0  0  0  0  0  0  0  0  0
   45.0620   32.5340   40.5940 C   0  0  0  0  0  0  0  0  0  0  0  0
   46.2930   31.9940   40.8570 C   0  0  0  0  0  0  0  0  0  0  0  0
   46.4780   31.4440   42.1440 C   0  0  0  0  0  0  0  0  0  0  0  0
   47.7830   30.8770   42.2900 N   0  0  0  0  0  0  0  0  0  0  0  0
   48.1860   29.7350   42.8590 C   0  0  0  0  0  0  0  0  0  0  0  0
   49.4900   29.3640   42.8970 C   0  0  0  0  0  0  0  0  0  0  0  0
   50.4990   30.1290   42.3560 C   0  0  0  0  0  0  0  0  0  0  0  0
   51.7030   29.7720   42.3990 O   0  0  0  0  0  0  0  0  0  0  0  0
   50.1120   31.2810   41.7790 N   0  0  0  0  0  0  0  0  0  0  0  0
   48.8090   31.6160   41.7600 C   0  0  0  0  0  0  0  0  0  0  0  0
   48.5720   32.7300   41.1850 O   0  0  0  0  0  0  0  0  0  0  0  0
   47.0452   33.9826   47.2481 H   0  0  0  0  0  0  0  0  0  0  0  0
   47.3755   32.3812   49.0564 H   0  0  0  0  0  0  0  0  0  0  0  0
   46.9568   29.9655   48.6445 H   0  0  0  0  0  0  0  0  0  0  0  0
   46.3494   28.2620   47.2492 H   0  0  0  0  0  0  0  0  0  0  0  0
   45.6105   27.4078   45.0029 H   0  0  0  0  0  0  0  0  0  0  0  0
   45.2786   29.1129   43.1535 H   0  0  0  0  0  0  0  0  0  0  0  0
   45.5052   36.3734   42.1780 H   0  0  0  0  0  0  0  0  0  0  0  0
   47.7141   35.1667   42.1293 H   0  0  0  0  0  0  0  0  0  0  0  0
   43.1993   36.5155   43.4339 H   0  0  0  0  0  0  0  0  0  0  0  0
   42.8969   35.4145   44.8047 H   0  0  0  0  0  0  0  0  0  0  0  0
   43.4360   32.0277   43.4983 H   0  0  0  0  0  0  0  0  0  0  0  0
   43.0929   32.9860   41.2711 H   0  0  0  0  0  0  0  0  0  0  0  0
   44.8717   32.9736   39.6038 H   0  0  0  0  0  0  0  0  0  0  0  0
   47.0955   31.9891   40.1047 H   0  0  0  0  0  0  0  0  0  0  0  0
   47.4329   29.0735   43.3121 H   0  0  0  0  0  0  0  0  0  0  0  0
   49.7527   28.4115   43.3805 H   0  0  0  0  0  0  0  0  0  0  0  0
   50.8117   31.9052   41.3527 H   0  0  0  0  0  0  0  0  0  0  0  0
  1  2  2  0
  2  3  1  0
  4  3  2  0
  5  4  1  0
  6  5  2  0
  7  6  1  0
  8  9  1  0
  8  7  2  0
  9 10  2  0
 10  1  1  0
 10  5  1  0
 11 17  1  0
 11 16  2  0
 12 11  1  0
 13 12  2  0
 13 14  1  0
 14 15  2  0
 15 16  1  0
 15  1  1  0
 18  9  1  0
 19 18  2  0
 20 19  1  0
 21 22  1  0
 21 20  2  0
 22 23  2  0
 23 24  1  0
 23 18  1  0
 24 25  1  0
 25 26  2  0
 27 28  2  0
 27 26  1  0
 29 27  1  0
 30 29  1  0
 30 24  1  0
 31 30  2  0
  2 32  1  0
  3 33  1  0
  4 34  1  0
  6 35  1  0
  7 36  1  0
  8 37  1  0
 12 38  1  0
 13 39  1  0
 17 40  1  0
 17 41  1  0
 19 42  1  0
 20 43  1  0
 21 44  1  0
 22 45  1  0
 25 46  1  0
 26 47  1  0
 29 48  1  0
M  ISO  8  32  14  33  14  34  14  35  14  36  14  37  14  38  14  39  14
M  ISO  7  42  14  43  14  44  14  45  14  46  14  47  14  48   9
M  END
>  <minimizedAffinity>  (1) 
-5.93385601

>  <minimizedRMSD>  (1) 
1.78433907

$$$$
