
     RDKit          3D

 51 55  0  0  0  0  0  0  0  0999 V2000
   46.4620   32.6420   45.7560 C   0  0  0  0  0  0  0  0  0  0  0  0
   46.8510   33.0330   47.0620 C   0  0  0  0  0  0  0  0  0  0  0  0
   47.0710   32.1590   48.0940 C   0  0  0  0  0  0  0  0  0  0  0  0
   46.9110   30.8190   47.8690 C   0  0  0  0  0  0  0  0  0  0  0  0
   46.5370   30.3890   46.6250 C   0  0  0  0  0  0  0  0  0  0  0  0
   46.3930   29.0410   46.4450 C   0  0  0  0  0  0  0  0  0  0  0  0
   46.0140   28.5380   45.2010 C   0  0  0  0  0  0  0  0  0  0  0  0
   45.7940   29.4770   44.1760 C   0  0  0  0  0  0  0  0  0  0  0  0
   45.9610   30.8320   44.4380 C   0  0  0  0  0  0  0  0  0  0  0  0
   46.3270   31.2980   45.6300 C   0  0  0  0  0  0  0  0  0  0  0  0
   44.7980   35.2110   43.8730 C   0  0  0  0  0  0  0  0  0  0  0  0
   45.7010   35.6150   42.8830 C   0  0  0  0  0  0  0  0  0  0  0  0
   46.9200   34.9830   42.8610 C   0  0  0  0  0  0  0  0  0  0  0  0
   47.1550   34.0450   43.7700 N   0  0  0  0  0  0  0  0  0  0  0  0
   46.2860   33.6480   44.7290 C   0  0  0  0  0  0  0  0  0  0  0  0
   45.1070   34.2630   44.7470 N   0  0  0  0  0  0  0  0  0  0  0  0
   43.4740   35.7600   44.0450 N   0  0  0  0  0  0  0  0  0  0  0  0
   45.6020   31.4520   43.1630 C   0  0  0  0  0  0  0  0  0  0  0  0
   44.3460   31.9790   42.7540 C   0  0  0  0  0  0  0  0  0  0  0  0
   44.1570   32.5030   41.5000 C   0  0  0  0  0  0  0  0  0  0  0  0
   45.1700   32.5400   40.5910 C   0  0  0  0  0  0  0  0  0  0  0  0
   46.4200   32.0570   40.8810 C   0  0  0  0  0  0  0  0  0  0  0  0
   46.5990   31.5220   42.1730 C   0  0  0  0  0  0  0  0  0  0  0  0
   47.9220   31.0080   42.3310 N   0  0  0  0  0  0  0  0  0  0  0  0
   48.4640   29.9660   42.9610 C   0  0  0  0  0  0  0  0  0  0  0  0
   49.7940   29.7210   42.9340 C   0  0  0  0  0  0  0  0  0  0  0  0
   50.2330   28.5120   43.6940 C   0  0  0  0  0  0  0  0  0  0  0  0
   50.6730   30.5370   42.2510 C   0  0  0  0  0  0  0  0  0  0  0  0
   51.9030   30.2590   42.2620 O   0  0  0  0  0  0  0  0  0  0  0  0
   50.1280   31.5840   41.6190 N   0  0  0  0  0  0  0  0  0  0  0  0
   48.7900   31.8220   41.6510 C   0  0  0  0  0  0  0  0  0  0  0  0
   48.4950   32.8720   40.9790 O   0  0  0  0  0  0  0  0  0  0  0  0
   46.9848   34.1068   47.2595 H   0  0  0  0  0  0  0  0  0  0  0  0
   47.3709   32.5281   49.0858 H   0  0  0  0  0  0  0  0  0  0  0  0
   47.0812   30.0950   48.6795 H   0  0  0  0  0  0  0  0  0  0  0  0
   46.5765   28.3524   47.2830 H   0  0  0  0  0  0  0  0  0  0  0  0
   45.8927   27.4583   45.0289 H   0  0  0  0  0  0  0  0  0  0  0  0
   45.4916   29.1407   43.1733 H   0  0  0  0  0  0  0  0  0  0  0  0
   45.4464   36.4013   42.1571 H   0  0  0  0  0  0  0  0  0  0  0  0
   47.6803   35.2468   42.1111 H   0  0  0  0  0  0  0  0  0  0  0  0
   43.1387   36.5029   43.4152 H   0  0  0  0  0  0  0  0  0  0  0  0
   42.8646   35.4088   44.7975 H   0  0  0  0  0  0  0  0  0  0  0  0
   43.5039   31.9662   43.4616 H   0  0  0  0  0  0  0  0  0  0  0  0
   43.1691   32.9004   41.2241 H   0  0  0  0  0  0  0  0  0  0  0  0
   44.9803   32.9694   39.5962 H   0  0  0  0  0  0  0  0  0  0  0  0
   47.2380   32.0854   40.1461 H   0  0  0  0  0  0  0  0  0  0  0  0
   47.8084   29.2830   43.5211 H   0  0  0  0  0  0  0  0  0  0  0  0
   50.1607   28.7112   44.7734 H   0  0  0  0  0  0  0  0  0  0  0  0
   49.5866   27.6608   43.4341 H   0  0  0  0  0  0  0  0  0  0  0  0
   51.2750   28.2739   43.4341 H   0  0  0  0  0  0  0  0  0  0  0  0
   50.7389   32.2263   41.0945 H   0  0  0  0  0  0  0  0  0  0  0  0
  1  2  2  0
  2  3  1  0
  4  3  2  0
  5  4  1  0
  6  5  2  0
  7  6  1  0
  8  9  1  0
  8  7  2  0
  9 10  2  0
 10  1  1  0
 10  5  1  0
 11 17  1  0
 11 16  2  0
 12 11  1  0
 13 12  2  0
 13 14  1  0
 14 15  2  0
 15 16  1  0
 15  1  1  0
 18  9  1  0
 19 18  2  0
 20 19  1  0
 21 22  1  0
 21 20  2  0
 22 23  2  0
 23 24  1  0
 23 18  1  0
 24 25  1  0
 26 25  2  0
 26 27  1  0
 28 29  2  0
 28 26  1  0
 30 31  1  0
 30 28  1  0
 31 24  1  0
 32 31  2  0
  2 33  1  0
  3 34  1  0
  4 35  1  0
  6 36  1  0
  7 37  1  0
  8 38  1  0
 12 39  1  0
 13 40  1  0
 17 41  1  0
 17 42  1  0
 19 43  1  0
 20 44  1  0
 21 45  1  0
 22 46  1  0
 25 47  1  0
 27 48  1  0
 27 49  1  0
 27 50  1  0
 30 51  1  0
M  ISO  8  33  14  34  14  35  14  36  14  37  14  38  14  39  14  40  14
M  ISO  8  43  14  44  14  45  14  46  14  47  14  48   8  49   8  50   8
M  ISO  1  51   9
M  END
>  <minimizedAffinity>  (1) 
-6.05284691

>  <minimizedRMSD>  (1) 
1.84979081

$$$$
