
     RDKit          3D

 44 48  0  0  0  0  0  0  0  0999 V2000
   46.4380   32.5260   45.7290 C   0  0  0  0  0  0  0  0  0  0  0  0
   46.8740   32.8860   47.0310 C   0  0  0  0  0  0  0  0  0  0  0  0
   47.0590   31.9950   48.0550 C   0  0  0  0  0  0  0  0  0  0  0  0
   46.8130   30.6670   47.8300 C   0  0  0  0  0  0  0  0  0  0  0  0
   46.3910   30.2690   46.5930 C   0  0  0  0  0  0  0  0  0  0  0  0
   46.1660   28.9300   46.4070 C   0  0  0  0  0  0  0  0  0  0  0  0
   45.7430   28.4540   45.1710 C   0  0  0  0  0  0  0  0  0  0  0  0
   45.5660   29.4050   44.1500 C   0  0  0  0  0  0  0  0  0  0  0  0
   45.8140   30.7490   44.4170 C   0  0  0  0  0  0  0  0  0  0  0  0
   46.2190   31.1930   45.6030 C   0  0  0  0  0  0  0  0  0  0  0  0
   44.8450   35.1720   43.8950 C   0  0  0  0  0  0  0  0  0  0  0  0
   45.7420   35.5440   42.8950 C   0  0  0  0  0  0  0  0  0  0  0  0
   46.9400   34.8630   42.8420 C   0  0  0  0  0  0  0  0  0  0  0  0
   47.1570   33.9070   43.7420 N   0  0  0  0  0  0  0  0  0  0  0  0
   46.2880   33.5430   44.7150 C   0  0  0  0  0  0  0  0  0  0  0  0
   45.1340   34.2070   44.7560 N   0  0  0  0  0  0  0  0  0  0  0  0
   43.5550   35.7750   44.0950 N   0  0  0  0  0  0  0  0  0  0  0  0
   45.4590   31.3960   43.1470 C   0  0  0  0  0  0  0  0  0  0  0  0
   44.2290   32.0340   42.8110 C   0  0  0  0  0  0  0  0  0  0  0  0
   44.0180   32.5700   41.5630 C   0  0  0  0  0  0  0  0  0  0  0  0
   44.9850   32.5080   40.6020 C   0  0  0  0  0  0  0  0  0  0  0  0
   46.2010   31.9120   40.8320 C   0  0  0  0  0  0  0  0  0  0  0  0
   46.3950   31.3720   42.1150 C   0  0  0  0  0  0  0  0  0  0  0  0
   47.6680   30.7620   42.3040 N   0  0  0  0  0  0  0  0  0  0  0  0
   48.1870   29.5530   42.0310 C   0  0  0  0  0  0  0  0  0  0  0  0
   49.4690   29.4860   42.4220 N   0  0  0  0  0  0  0  0  0  0  0  0
   49.7620   30.6850   42.9560 C   0  0  0  0  0  0  0  0  0  0  0  0
   48.6620   31.4500   42.8780 N   0  0  0  0  0  0  0  0  0  0  0  0
   47.0763   33.9487   47.2305 H   0  0  0  0  0  0  0  0  0  0  0  0
   47.3997   32.3409   49.0421 H   0  0  0  0  0  0  0  0  0  0  0  0
   46.9533   29.9302   48.6346 H   0  0  0  0  0  0  0  0  0  0  0  0
   46.3208   28.2282   47.2398 H   0  0  0  0  0  0  0  0  0  0  0  0
   45.5555   27.3837   44.9997 H   0  0  0  0  0  0  0  0  0  0  0  0
   45.2346   29.0899   43.1495 H   0  0  0  0  0  0  0  0  0  0  0  0
   45.5048   36.3453   42.1798 H   0  0  0  0  0  0  0  0  0  0  0  0
   47.6942   35.1030   42.0781 H   0  0  0  0  0  0  0  0  0  0  0  0
   43.2400   36.5349   43.4751 H   0  0  0  0  0  0  0  0  0  0  0  0
   42.9459   35.4470   44.8581 H   0  0  0  0  0  0  0  0  0  0  0  0
   43.4321   32.0986   43.5665 H   0  0  0  0  0  0  0  0  0  0  0  0
   43.0573   33.0552   41.3359 H   0  0  0  0  0  0  0  0  0  0  0  0
   44.7847   32.9483   39.6141 H   0  0  0  0  0  0  0  0  0  0  0  0
   46.9789   31.8603   40.0560 H   0  0  0  0  0  0  0  0  0  0  0  0
   47.6360   28.7301   41.5522 H   0  0  0  0  0  0  0  0  0  0  0  0
   50.7310   30.9854   43.3812 H   0  0  0  0  0  0  0  0  0  0  0  0
  1  2  2  0
  2  3  1  0
  4  3  2  0
  5  4  1  0
  6  5  2  0
  7  6  1  0
  8  9  1  0
  8  7  2  0
  9 10  2  0
 10  1  1  0
 10  5  1  0
 11 17  1  0
 11 16  2  0
 12 11  1  0
 13 12  2  0
 13 14  1  0
 14 15  2  0
 15 16  1  0
 15  1  1  0
 18  9  1  0
 19 18  2  0
 20 19  1  0
 21 22  1  0
 21 20  2  0
 22 23  2  0
 23 24  1  0
 23 18  1  0
 24 28  1  0
 25 24  1  0
 25 26  2  0
 26 27  1  0
 28 27  2  0
  2 29  1  0
  3 30  1  0
  4 31  1  0
  6 32  1  0
  7 33  1  0
  8 34  1  0
 12 35  1  0
 13 36  1  0
 17 37  1  0
 17 38  1  0
 19 39  1  0
 20 40  1  0
 21 41  1  0
 22 42  1  0
 25 43  1  0
 27 44  1  0
M  ISO  8  29  14  30  14  31  14  32  14  33  14  34  14  35  14  36  14
M  ISO  6  39  14  40  14  41  14  42  14  43  14  44  14
M  END
>  <minimizedAffinity>  (1) 
-5.62244606

>  <minimizedRMSD>  (1) 
1.43063653

$$$$
