
     RDKit          3D

 45 49  0  0  0  0  0  0  0  0999 V2000
   46.4310   32.5300   45.7350 C   0  0  0  0  0  0  0  0  0  0  0  0
   46.8640   32.8980   47.0370 C   0  0  0  0  0  0  0  0  0  0  0  0
   47.0530   32.0100   48.0640 C   0  0  0  0  0  0  0  0  0  0  0  0
   46.8140   30.6760   47.8390 C   0  0  0  0  0  0  0  0  0  0  0  0
   46.3950   30.2720   46.6010 C   0  0  0  0  0  0  0  0  0  0  0  0
   46.1770   28.9350   46.4170 C   0  0  0  0  0  0  0  0  0  0  0  0
   45.7560   28.4530   45.1790 C   0  0  0  0  0  0  0  0  0  0  0  0
   45.5750   29.4080   44.1610 C   0  0  0  0  0  0  0  0  0  0  0  0
   45.8170   30.7510   44.4270 C   0  0  0  0  0  0  0  0  0  0  0  0
   46.2210   31.1910   45.6150 C   0  0  0  0  0  0  0  0  0  0  0  0
   44.8410   35.1730   43.9000 C   0  0  0  0  0  0  0  0  0  0  0  0
   45.7400   35.5480   42.8990 C   0  0  0  0  0  0  0  0  0  0  0  0
   46.9330   34.8720   42.8500 C   0  0  0  0  0  0  0  0  0  0  0  0
   47.1520   33.9150   43.7500 N   0  0  0  0  0  0  0  0  0  0  0  0
   46.2820   33.5480   44.7230 C   0  0  0  0  0  0  0  0  0  0  0  0
   45.1290   34.2110   44.7600 N   0  0  0  0  0  0  0  0  0  0  0  0
   43.5460   35.7750   44.1000 N   0  0  0  0  0  0  0  0  0  0  0  0
   45.4650   31.3980   43.1580 C   0  0  0  0  0  0  0  0  0  0  0  0
   44.2420   32.0370   42.8090 C   0  0  0  0  0  0  0  0  0  0  0  0
   44.0380   32.5670   41.5590 C   0  0  0  0  0  0  0  0  0  0  0  0
   45.0110   32.5000   40.6030 C   0  0  0  0  0  0  0  0  0  0  0  0
   46.2280   31.9050   40.8350 C   0  0  0  0  0  0  0  0  0  0  0  0
   46.4080   31.3700   42.1240 C   0  0  0  0  0  0  0  0  0  0  0  0
   47.6710   30.7530   42.3470 N   0  0  0  0  0  0  0  0  0  0  0  0
   48.1920   29.5180   42.2570 C   0  0  0  0  0  0  0  0  0  0  0  0
   49.5220   29.5560   42.6180 C   0  0  0  0  0  0  0  0  0  0  0  0
   49.8600   30.8260   42.9440 N   0  0  0  0  0  0  0  0  0  0  0  0
   48.7150   31.5290   42.7680 C   0  0  0  0  0  0  0  0  0  0  0  0
   47.0599   33.9624   47.2334 H   0  0  0  0  0  0  0  0  0  0  0  0
   47.3901   32.3594   49.0510 H   0  0  0  0  0  0  0  0  0  0  0  0
   46.9579   29.9413   48.6449 H   0  0  0  0  0  0  0  0  0  0  0  0
   46.3348   28.2355   47.2511 H   0  0  0  0  0  0  0  0  0  0  0  0
   45.5746   27.3819   45.0064 H   0  0  0  0  0  0  0  0  0  0  0  0
   45.2438   29.0935   43.1603 H   0  0  0  0  0  0  0  0  0  0  0  0
   45.5025   36.3485   42.1829 H   0  0  0  0  0  0  0  0  0  0  0  0
   47.6883   35.1140   42.0878 H   0  0  0  0  0  0  0  0  0  0  0  0
   43.2298   36.5343   43.4801 H   0  0  0  0  0  0  0  0  0  0  0  0
   42.9372   35.4457   44.8628 H   0  0  0  0  0  0  0  0  0  0  0  0
   43.4406   32.1080   43.5592 H   0  0  0  0  0  0  0  0  0  0  0  0
   43.0788   33.0517   41.3246 H   0  0  0  0  0  0  0  0  0  0  0  0
   44.8139   32.9374   39.6131 H   0  0  0  0  0  0  0  0  0  0  0  0
   47.0102   31.8506   40.0635 H   0  0  0  0  0  0  0  0  0  0  0  0
   47.6433   28.6174   41.9442 H   0  0  0  0  0  0  0  0  0  0  0  0
   50.2014   28.6911   42.6380 H   0  0  0  0  0  0  0  0  0  0  0  0
   48.6339   32.6116   42.9454 H   0  0  0  0  0  0  0  0  0  0  0  0
  1  2  2  0
  2  3  1  0
  4  3  2  0
  5  4  1  0
  6  5  2  0
  7  6  1  0
  8  9  1  0
  8  7  2  0
  9 10  2  0
 10  1  1  0
 10  5  1  0
 11 17  1  0
 11 16  2  0
 12 11  1  0
 13 12  2  0
 13 14  1  0
 14 15  2  0
 15 16  1  0
 15  1  1  0
 18  9  1  0
 19 18  2  0
 20 19  1  0
 21 22  1  0
 21 20  2  0
 22 23  2  0
 23 24  1  0
 23 18  1  0
 24 28  1  0
 25 24  1  0
 25 26  2  0
 26 27  1  0
 28 27  2  0
  2 29  1  0
  3 30  1  0
  4 31  1  0
  6 32  1  0
  7 33  1  0
  8 34  1  0
 12 35  1  0
 13 36  1  0
 17 37  1  0
 17 38  1  0
 19 39  1  0
 20 40  1  0
 21 41  1  0
 22 42  1  0
 25 43  1  0
 26 44  1  0
 28 45  1  0
M  ISO  8  29  14  30  14  31  14  32  14  33  14  34  14  35  14  36  14
M  ISO  7  39  14  40  14  41  14  42  14  43  14  44  14  45  14
M  END
>  <minimizedAffinity>  (1) 
-5.62635279

>  <minimizedRMSD>  (1) 
1.43692696

$$$$
