
     RDKit          3D

 45 49  0  0  0  0  0  0  0  0999 V2000
   46.4790   32.4760   45.8630 C   0  0  0  0  0  0  0  0  0  0  0  0
   46.9050   32.8640   47.1580 C   0  0  0  0  0  0  0  0  0  0  0  0
   47.0910   32.0060   48.1980 C   0  0  0  0  0  0  0  0  0  0  0  0
   46.8550   30.6720   48.0020 C   0  0  0  0  0  0  0  0  0  0  0  0
   46.4420   30.2440   46.7710 C   0  0  0  0  0  0  0  0  0  0  0  0
   46.2260   28.8950   46.6070 C   0  0  0  0  0  0  0  0  0  0  0  0
   45.8140   28.3880   45.3850 C   0  0  0  0  0  0  0  0  0  0  0  0
   45.6340   29.3230   44.3440 C   0  0  0  0  0  0  0  0  0  0  0  0
   45.8700   30.6740   44.5780 C   0  0  0  0  0  0  0  0  0  0  0  0
   46.2690   31.1360   45.7620 C   0  0  0  0  0  0  0  0  0  0  0  0
   44.9230   35.1050   43.9720 C   0  0  0  0  0  0  0  0  0  0  0  0
   45.8140   35.4400   42.9540 C   0  0  0  0  0  0  0  0  0  0  0  0
   46.9960   34.7400   42.9100 C   0  0  0  0  0  0  0  0  0  0  0  0
   47.2040   33.8020   43.8310 N   0  0  0  0  0  0  0  0  0  0  0  0
   46.3410   33.4740   44.8200 C   0  0  0  0  0  0  0  0  0  0  0  0
   45.2010   34.1570   44.8540 N   0  0  0  0  0  0  0  0  0  0  0  0
   43.6360   35.7300   44.1700 N   0  0  0  0  0  0  0  0  0  0  0  0
   45.5290   31.2940   43.2970 C   0  0  0  0  0  0  0  0  0  0  0  0
   44.3060   31.9260   42.9280 C   0  0  0  0  0  0  0  0  0  0  0  0
   44.0940   32.4300   41.6740 C   0  0  0  0  0  0  0  0  0  0  0  0
   45.0640   32.3420   40.7190 C   0  0  0  0  0  0  0  0  0  0  0  0
   46.2880   31.7460   40.9720 C   0  0  0  0  0  0  0  0  0  0  0  0
   46.4830   31.2340   42.2730 C   0  0  0  0  0  0  0  0  0  0  0  0
   47.8420   30.6280   42.3380 C   0  0  0  0  0  0  0  0  0  0  0  0
   48.8550   31.2010   41.3910 C   0  0  0  0  0  0  0  0  0  0  0  0
   49.0090   31.3210   42.8860 C   0  0  0  0  0  0  0  0  0  0  0  0
   47.0986   33.9323   47.3346 H   0  0  0  0  0  0  0  0  0  0  0  0
   47.4248   32.3777   49.1780 H   0  0  0  0  0  0  0  0  0  0  0  0
   46.9957   29.9542   48.8236 H   0  0  0  0  0  0  0  0  0  0  0  0
   46.3820   28.2118   47.4549 H   0  0  0  0  0  0  0  0  0  0  0  0
   45.6366   27.3129   45.2345 H   0  0  0  0  0  0  0  0  0  0  0  0
   45.3078   28.9846   43.3495 H   0  0  0  0  0  0  0  0  0  0  0  0
   45.5824   36.2268   42.2210 H   0  0  0  0  0  0  0  0  0  0  0  0
   47.7487   34.9491   42.1356 H   0  0  0  0  0  0  0  0  0  0  0  0
   43.3249   36.4801   43.5365 H   0  0  0  0  0  0  0  0  0  0  0  0
   43.0294   35.4255   44.9447 H   0  0  0  0  0  0  0  0  0  0  0  0
   43.5051   32.0114   43.6772 H   0  0  0  0  0  0  0  0  0  0  0  0
   43.1338   32.9100   41.4339 H   0  0  0  0  0  0  0  0  0  0  0  0
   44.8682   32.7565   39.7190 H   0  0  0  0  0  0  0  0  0  0  0  0
   47.0678   31.6752   40.1994 H   0  0  0  0  0  0  0  0  0  0  0  0
   47.4061   29.6455   42.5718 H   0  0  0  0  0  0  0  0  0  0  0  0
   49.5164   30.5356   40.8167 H   0  0  0  0  0  0  0  0  0  0  0  0
   48.8332   31.9005   40.5423 H   0  0  0  0  0  0  0  0  0  0  0  0
   48.8868   32.2998   43.3729 H   0  0  0  0  0  0  0  0  0  0  0  0
   49.7976   31.0582   43.6065 H   0  0  0  0  0  0  0  0  0  0  0  0
  1  2  2  0
  2  3  1  0
  4  3  2  0
  5  4  1  0
  6  5  2  0
  7  6  1  0
  8  9  1  0
  8  7  2  0
  9 10  2  0
 10  1  1  0
 10  5  1  0
 11 17  1  0
 11 16  2  0
 12 11  1  0
 13 12  2  0
 13 14  1  0
 14 15  2  0
 15 16  1  0
 15  1  1  0
 18  9  1  0
 19 18  2  0
 20 19  1  0
 21 22  1  0
 21 20  2  0
 22 23  2  0
 23 24  1  0
 23 18  1  0
 24 26  1  0
 25 24  1  0
 25 26  1  0
  2 27  1  0
  3 28  1  0
  4 29  1  0
  6 30  1  0
  7 31  1  0
  8 32  1  0
 12 33  1  0
 13 34  1  0
 17 35  1  0
 17 36  1  0
 19 37  1  0
 20 38  1  0
 21 39  1  0
 22 40  1  0
 24 41  1  0
 25 42  1  0
 25 43  1  0
 26 44  1  0
 26 45  1  0
M  ISO  8  27  14  28  14  29  14  30  14  31  14  32  14  33  14  34  14
M  ISO  8  37  14  38  14  39  14  40  14  41  13  42  13  43  13  44  13
M  ISO  1  45  13
M  END
>  <minimizedAffinity>  (1) 
-5.56710339

>  <minimizedRMSD>  (1) 
1.46350968

$$$$
