
     RDKit          3D

 41 44  0  0  0  0  0  0  0  0999 V2000
   46.4140   32.5330   45.7330 C   0  0  0  0  0  0  0  0  0  0  0  0
   46.8660   32.8980   47.0320 C   0  0  0  0  0  0  0  0  0  0  0  0
   47.0620   32.0200   48.0550 C   0  0  0  0  0  0  0  0  0  0  0  0
   46.8100   30.6790   47.8320 C   0  0  0  0  0  0  0  0  0  0  0  0
   46.3700   30.2710   46.5930 C   0  0  0  0  0  0  0  0  0  0  0  0
   46.1300   28.9430   46.4220 C   0  0  0  0  0  0  0  0  0  0  0  0
   45.6730   28.4680   45.1970 C   0  0  0  0  0  0  0  0  0  0  0  0
   45.4840   29.4220   44.1840 C   0  0  0  0  0  0  0  0  0  0  0  0
   45.7540   30.7620   44.4380 C   0  0  0  0  0  0  0  0  0  0  0  0
   46.1930   31.2020   45.6150 C   0  0  0  0  0  0  0  0  0  0  0  0
   44.8390   35.1740   43.8830 C   0  0  0  0  0  0  0  0  0  0  0  0
   45.7420   35.5510   42.8870 C   0  0  0  0  0  0  0  0  0  0  0  0
   46.9400   34.8730   42.8460 C   0  0  0  0  0  0  0  0  0  0  0  0
   47.1540   33.9170   43.7470 N   0  0  0  0  0  0  0  0  0  0  0  0
   46.2740   33.5520   44.7130 C   0  0  0  0  0  0  0  0  0  0  0  0
   45.1180   34.2100   44.7480 N   0  0  0  0  0  0  0  0  0  0  0  0
   43.5450   35.7770   44.0690 N   0  0  0  0  0  0  0  0  0  0  0  0
   45.3970   31.4130   43.1730 C   0  0  0  0  0  0  0  0  0  0  0  0
   44.1580   32.0080   42.8030 C   0  0  0  0  0  0  0  0  0  0  0  0
   43.9450   32.5480   41.5640 C   0  0  0  0  0  0  0  0  0  0  0  0
   44.9440   32.5240   40.6310 C   0  0  0  0  0  0  0  0  0  0  0  0
   46.1760   31.9820   40.8670 C   0  0  0  0  0  0  0  0  0  0  0  0
   46.3540   31.4400   42.1520 C   0  0  0  0  0  0  0  0  0  0  0  0
   47.6790   30.8750   42.3780 C   0  0  0  0  0  0  0  0  0  0  0  0
   48.0580   29.7450   41.9870 O   0  0  0  0  0  0  0  0  0  0  0  0
   48.7270   31.4710   43.0490 O   0  0  0  0  0  0  0  0  0  0  0  0
   47.0711   33.9617   47.2231 H   0  0  0  0  0  0  0  0  0  0  0  0
   47.4130   32.3703   49.0369 H   0  0  0  0  0  0  0  0  0  0  0  0
   46.9597   29.9448   48.6373 H   0  0  0  0  0  0  0  0  0  0  0  0
   46.2976   28.2433   47.2541 H   0  0  0  0  0  0  0  0  0  0  0  0
   45.4701   27.3998   45.0304 H   0  0  0  0  0  0  0  0  0  0  0  0
   45.1235   29.1101   43.1927 H   0  0  0  0  0  0  0  0  0  0  0  0
   45.5077   36.3512   42.1695 H   0  0  0  0  0  0  0  0  0  0  0  0
   47.7000   35.1152   42.0886 H   0  0  0  0  0  0  0  0  0  0  0  0
   43.2363   36.5364   43.4454 H   0  0  0  0  0  0  0  0  0  0  0  0
   42.9280   35.4490   44.8257 H   0  0  0  0  0  0  0  0  0  0  0  0
   43.3419   32.0347   43.5401 H   0  0  0  0  0  0  0  0  0  0  0  0
   42.9726   33.0002   41.3193 H   0  0  0  0  0  0  0  0  0  0  0  0
   44.7463   32.9625   39.6417 H   0  0  0  0  0  0  0  0  0  0  0  0
   46.9709   31.9706   40.1067 H   0  0  0  0  0  0  0  0  0  0  0  0
   49.5891   30.9937   43.1443 H   0  0  0  0  0  0  0  0  0  0  0  0
  1  2  2  0
  2  3  1  0
  4  3  2  0
  5  4  1  0
  6  5  2  0
  7  6  1  0
  8  9  1  0
  8  7  2  0
  9 10  2  0
 10  1  1  0
 10  5  1  0
 11 17  1  0
 11 16  2  0
 12 11  1  0
 13 12  2  0
 13 14  1  0
 14 15  2  0
 15 16  1  0
 15  1  1  0
 18  9  1  0
 19 18  2  0
 20 19  1  0
 21 22  1  0
 21 20  2  0
 22 23  2  0
 23 24  1  0
 23 18  1  0
 24 26  1  0
 25 24  2  0
  2 27  1  0
  3 28  1  0
  4 29  1  0
  6 30  1  0
  7 31  1  0
  8 32  1  0
 12 33  1  0
 13 34  1  0
 17 35  1  0
 17 36  1  0
 19 37  1  0
 20 38  1  0
 21 39  1  0
 22 40  1  0
 26 41  1  0
M  ISO  8  27  14  28  14  29  14  30  14  31  14  32  14  33  14  34  14
M  ISO  5  37  14  38  14  39  14  40  14  41   3
M  END
>  <minimizedAffinity>  (1) 
-5.4624896

>  <minimizedRMSD>  (1) 
1.35027349

$$$$
