
     RDKit          3D

 27 29  0  0  0  0  0  0  0  0999 V2000
   47.7470   34.6330   41.3090 C   0  0  0  0  0  0  0  0  0  0  0  0
   48.7570   35.5560   41.0930 C   0  0  0  0  0  0  0  0  0  0  0  0
   49.0600   35.5770   39.7940 N   0  0  0  0  0  0  0  0  0  0  0  0
   48.2660   34.6900   39.1750 C   0  0  0  0  0  0  0  0  0  0  0  0
   48.1860   34.3360   37.8310 C   0  0  0  0  0  0  0  0  0  0  0  0
   47.2740   33.3850   37.4580 C   0  0  0  0  0  0  0  0  0  0  0  0
   46.4090   32.7370   38.3310 C   0  0  0  0  0  0  0  0  0  0  0  0
   46.5320   33.1270   39.6470 C   0  0  0  0  0  0  0  0  0  0  0  0
   47.4180   34.0680   40.0930 C   0  0  0  0  0  0  0  0  0  0  0  0
   45.5570   34.8160   44.3290 C   0  0  0  0  0  0  0  0  0  0  0  0
   46.1410   35.1590   43.1050 C   0  0  0  0  0  0  0  0  0  0  0  0
   47.1210   34.2980   42.5840 C   0  0  0  0  0  0  0  0  0  0  0  0
   47.4430   33.1790   43.3060 N   0  0  0  0  0  0  0  0  0  0  0  0
   46.8490   32.8910   44.4850 C   0  0  0  0  0  0  0  0  0  0  0  0
   45.9060   33.7070   45.0000 N   0  0  0  0  0  0  0  0  0  0  0  0
   44.5140   35.7730   44.8350 C   0  0  0  0  0  0  0  0  0  0  0  0
   43.3610   35.6740   44.0650 F   0  0  0  0  0  0  0  0  0  0  0  0
   44.9240   37.1000   44.6660 F   0  0  0  0  0  0  0  0  0  0  0  0
   44.2630   35.6100   46.1750 F   0  0  0  0  0  0  0  0  0  0  0  0
   49.2333   36.1733   41.8689 H   0  0  0  0  0  0  0  0  0  0  0  0
   49.7751   36.1680   39.3465 H   0  0  0  0  0  0  0  0  0  0  0  0
   48.8410   34.8098   37.0850 H   0  0  0  0  0  0  0  0  0  0  0  0
   47.2227   33.1153   36.3928 H   0  0  0  0  0  0  0  0  0  0  0  0
   45.6866   31.9765   37.9996 H   0  0  0  0  0  0  0  0  0  0  0  0
   45.8737   32.6496   40.3878 H   0  0  0  0  0  0  0  0  0  0  0  0
   45.8429   36.0720   42.5687 H   0  0  0  0  0  0  0  0  0  0  0  0
   47.1376   31.9808   45.0312 H   0  0  0  0  0  0  0  0  0  0  0  0
  1 12  1  0
  2  1  2  0
  3  2  1  0
  4  3  1  0
  4  9  2  0
  5  4  1  0
  6  5  2  0
  6  7  1  0
  7  8  2  0
  8  9  1  0
  9  1  1  0
 10 16  1  0
 10 15  2  0
 11 10  1  0
 12 11  2  0
 12 13  1  0
 13 14  2  0
 14 15  1  0
 16 19  1  0
 17 16  1  0
 18 16  1  0
  2 20  1  0
  3 21  1  0
  5 22  1  0
  6 23  1  0
  7 24  1  0
  8 25  1  0
 11 26  1  0
 14 27  1  0
M  ISO  8  20  14  21   9  22  14  23  14  24  14  25  14  26  14  27  14
M  END
>  <minimizedAffinity>  (1) 
-5.93562698

>  <minimizedRMSD>  (1) 
1.24672842

$$$$
