
     RDKit          3D

 31 32  0  0  0  0  0  0  0  0999 V2000
   47.6050   34.3890   40.2380 C   0  0  0  0  0  0  0  0  0  0  0  0
   48.4130   34.6790   39.1640 C   0  0  0  0  0  0  0  0  0  0  0  0
   48.2410   34.2600   37.8660 C   0  0  0  0  0  0  0  0  0  0  0  0
   47.1520   33.4790   37.6610 N   0  0  0  0  0  0  0  0  0  0  0  0
   46.3220   33.1700   38.7080 C   0  0  0  0  0  0  0  0  0  0  0  0
   46.5150   33.5960   39.9740 N   0  0  0  0  0  0  0  0  0  0  0  0
   45.1770   32.3450   38.4730 N   0  0  0  0  0  0  0  0  0  0  0  0
   44.0090   32.8170   37.8310 C   0  0  0  0  0  0  0  0  0  0  0  0
   43.7580   34.0820   37.8960 N   0  0  0  0  0  0  0  0  0  0  0  0
   43.1530   31.8990   37.1400 N   0  0  0  0  0  0  0  0  0  0  0  0
   42.9030   34.4280   37.4260 H   0  0  0  0  0  0  0  0  0  0  0  0
   47.8610   34.8730   41.6140 C   0  0  0  0  0  0  0  0  0  0  0  0
   47.3480   33.8490   42.5920 C   0  0  0  0  0  0  0  0  0  0  0  0
   44.6910   36.0150   44.1910 C   0  0  0  0  0  0  0  0  0  0  0  0
   45.6050   35.5300   43.2490 C   0  0  0  0  0  0  0  0  0  0  0  0
   46.3590   34.4080   43.5350 C   0  0  0  0  0  0  0  0  0  0  0  0
   46.1770   33.8110   44.7410 N   0  0  0  0  0  0  0  0  0  0  0  0
   45.2780   34.3020   45.6480 C   0  0  0  0  0  0  0  0  0  0  0  0
   44.5520   35.3930   45.3580 N   0  0  0  0  0  0  0  0  0  0  0  0
   49.2893   35.3130   39.3644 H   0  0  0  0  0  0  0  0  0  0  0  0
   48.9329   34.5368   37.0569 H   0  0  0  0  0  0  0  0  0  0  0  0
   45.2048   31.3639   38.7853 H   0  0  0  0  0  0  0  0  0  0  0  0
   43.3888   30.8968   37.1114 H   0  0  0  0  0  0  0  0  0  0  0  0
   42.3018   32.2413   36.6718 H   0  0  0  0  0  0  0  0  0  0  0  0
   48.9418   35.0154   41.7607 H   0  0  0  0  0  0  0  0  0  0  0  0
   47.3478   35.8327   41.7741 H   0  0  0  0  0  0  0  0  0  0  0  0
   46.8746   33.0310   42.0293 H   0  0  0  0  0  0  0  0  0  0  0  0
   48.2058   33.4935   43.1817 H   0  0  0  0  0  0  0  0  0  0  0  0
   44.0893   36.9081   43.9668 H   0  0  0  0  0  0  0  0  0  0  0  0
   45.7231   36.0412   42.2822 H   0  0  0  0  0  0  0  0  0  0  0  0
   45.1497   33.8007   46.6187 H   0  0  0  0  0  0  0  0  0  0  0  0
  1 12  1  0
  2  1  2  0
  3  2  1  0
  4  3  2  0
  4  5  1  0
  5  6  2  0
  6  1  1  0
  7  5  1  0
  8  9  2  0
  8  7  1  0
 10  8  1  0
 11  9  1  0
 12 13  1  0
 13 16  1  0
 14 19  2  0
 15 16  2  0
 15 14  1  0
 16 17  1  0
 17 18  2  0
 19 18  1  0
  2 20  1  0
  3 21  1  0
  7 22  1  0
 10 23  1  0
 10 24  1  0
 12 25  1  0
 12 26  1  0
 13 27  1  0
 13 28  1  0
 14 29  1  0
 15 30  1  0
 18 31  1  0
M  ISO  8  20  14  21  14  25   8  26   8  27   8  28   8  29  14  30  14
M  ISO  1  31  14
M  END
>  <minimizedAffinity>  (1) 
-5.36078835

>  <minimizedRMSD>  (1) 
0.0306334663

$$$$
