
     RDKit          3D

 32 35  0  0  0  0  0  0  0  0999 V2000
   47.2490   34.8880   41.9630 C   0  0  0  0  0  0  0  0  0  0  0  0
   48.4920   35.5300   41.8360 C   0  0  0  0  0  0  0  0  0  0  0  0
   48.9670   35.3260   40.5920 N   0  0  0  0  0  0  0  0  0  0  0  0
   48.0480   34.5710   39.9320 C   0  0  0  0  0  0  0  0  0  0  0  0
   48.0740   34.0970   38.6320 C   0  0  0  0  0  0  0  0  0  0  0  0
   47.0090   33.3430   38.1920 C   0  0  0  0  0  0  0  0  0  0  0  0
   45.8980   33.0250   38.9850 C   0  0  0  0  0  0  0  0  0  0  0  0
   45.9620   33.5380   40.2630 C   0  0  0  0  0  0  0  0  0  0  0  0
   46.9730   34.2840   40.7600 C   0  0  0  0  0  0  0  0  0  0  0  0
   45.7980   33.8480   45.2260 C   0  0  0  0  0  0  0  0  0  0  0  0
   46.6140   33.8530   44.0890 C   0  0  0  0  0  0  0  0  0  0  0  0
   46.4110   34.8660   43.1480 C   0  0  0  0  0  0  0  0  0  0  0  0
   45.4360   35.7970   43.3740 N   0  0  0  0  0  0  0  0  0  0  0  0
   44.6610   35.7660   44.4820 C   0  0  0  0  0  0  0  0  0  0  0  0
   44.8380   34.7970   45.4080 N   0  0  0  0  0  0  0  0  0  0  0  0
   45.9250   32.8880   46.2020 O   0  0  0  0  0  0  0  0  0  0  0  0
   45.3420   32.9320   47.4630 C   0  0  0  0  0  0  0  0  0  0  0  0
   44.9620   31.6410   48.0900 C   0  0  0  0  0  0  0  0  0  0  0  0
   46.2010   32.3230   48.5640 C   0  0  0  0  0  0  0  0  0  0  0  0
   48.9964   36.1066   42.6254 H   0  0  0  0  0  0  0  0  0  0  0  0
   49.8582   35.6758   40.2122 H   0  0  0  0  0  0  0  0  0  0  0  0
   48.9229   34.3167   37.9678 H   0  0  0  0  0  0  0  0  0  0  0  0
   47.0316   32.9685   37.1580 H   0  0  0  0  0  0  0  0  0  0  0  0
   45.0531   32.4218   38.6213 H   0  0  0  0  0  0  0  0  0  0  0  0
   45.1185   33.3217   40.9351 H   0  0  0  0  0  0  0  0  0  0  0  0
   47.3885   33.0860   43.9411 H   0  0  0  0  0  0  0  0  0  0  0  0
   43.8847   36.5311   44.6301 H   0  0  0  0  0  0  0  0  0  0  0  0
   44.8119   33.8801   47.2897 H   0  0  0  0  0  0  0  0  0  0  0  0
   44.0810   31.5919   48.7468 H   0  0  0  0  0  0  0  0  0  0  0  0
   44.7380   30.6357   47.7038 H   0  0  0  0  0  0  0  0  0  0  0  0
   47.1891   31.9027   48.3255 H   0  0  0  0  0  0  0  0  0  0  0  0
   46.5850   32.6632   49.5370 H   0  0  0  0  0  0  0  0  0  0  0  0
  1 12  1  0
  2  1  2  0
  3  2  1  0
  4  3  1  0
  4  9  2  0
  5  4  1  0
  6  5  2  0
  6  7  1  0
  7  8  2  0
  8  9  1  0
  9  1  1  0
 10 15  1  0
 10 16  1  0
 11 10  2  0
 12 13  2  0
 12 11  1  0
 13 14  1  0
 14 15  2  0
 16 17  1  0
 17 18  1  0
 17 19  1  0
 18 19  1  0
  2 20  1  0
  3 21  1  0
  5 22  1  0
  6 23  1  0
  7 24  1  0
  8 25  1  0
 11 26  1  0
 14 27  1  0
 17 28  1  0
 18 29  1  0
 18 30  1  0
 19 31  1  0
 19 32  1  0
M  ISO  8  20  14  21   9  22  14  23  14  24  14  25  14  26  14  27  14
M  ISO  5  28  13  29  13  30  13  31  13  32  13
M  END
>  <minimizedAffinity>  (1) 
-6.24002075

>  <minimizedRMSD>  (1) 
2.33168077

$$$$
