
     RDKit          3D

 25 27  0  0  0  0  0  0  0  0999 V2000
   47.4880   34.8270   41.7680 C   0  0  0  0  0  0  0  0  0  0  0  0
   48.6220   35.6260   41.6170 C   0  0  0  0  0  0  0  0  0  0  0  0
   49.0490   35.5560   40.3480 N   0  0  0  0  0  0  0  0  0  0  0  0
   48.2140   34.7320   39.6810 C   0  0  0  0  0  0  0  0  0  0  0  0
   48.2370   34.3450   38.3570 C   0  0  0  0  0  0  0  0  0  0  0  0
   47.2470   33.4760   37.9240 C   0  0  0  0  0  0  0  0  0  0  0  0
   46.2350   32.9680   38.7310 C   0  0  0  0  0  0  0  0  0  0  0  0
   46.2920   33.4080   40.0350 C   0  0  0  0  0  0  0  0  0  0  0  0
   47.2240   34.2550   40.5390 C   0  0  0  0  0  0  0  0  0  0  0  0
   44.8100   35.1540   44.3450 C   0  0  0  0  0  0  0  0  0  0  0  0
   45.5470   35.3570   43.1670 C   0  0  0  0  0  0  0  0  0  0  0  0
   46.7200   34.6250   42.9820 C   0  0  0  0  0  0  0  0  0  0  0  0
   47.0860   33.7520   43.9530 N   0  0  0  0  0  0  0  0  0  0  0  0
   46.3640   33.5680   45.0820 C   0  0  0  0  0  0  0  0  0  0  0  0
   45.2340   34.2630   45.2810 N   0  0  0  0  0  0  0  0  0  0  0  0
   43.6330   35.8550   44.5850 O   0  0  0  0  0  0  0  0  0  0  0  0
   49.0921   36.2203   42.4144 H   0  0  0  0  0  0  0  0  0  0  0  0
   49.8664   36.0430   39.9536 H   0  0  0  0  0  0  0  0  0  0  0  0
   49.0129   34.7126   37.6694 H   0  0  0  0  0  0  0  0  0  0  0  0
   47.2634   33.1669   36.8684 H   0  0  0  0  0  0  0  0  0  0  0  0
   45.4609   32.2789   38.3623 H   0  0  0  0  0  0  0  0  0  0  0  0
   45.5174   33.0421   40.7250 H   0  0  0  0  0  0  0  0  0  0  0  0
   45.2072   36.0766   42.4076 H   0  0  0  0  0  0  0  0  0  0  0  0
   46.7045   32.8463   45.8392 H   0  0  0  0  0  0  0  0  0  0  0  0
   43.3022   36.5094   43.9199 H   0  0  0  0  0  0  0  0  0  0  0  0
  1 12  1  0
  2  1  2  0
  3  2  1  0
  4  3  1  0
  4  9  2  0
  5  4  1  0
  6  5  2  0
  6  7  1  0
  7  8  2  0
  8  9  1  0
  9  1  1  0
 10 16  1  0
 10 15  2  0
 11 10  1  0
 12 11  2  0
 12 13  1  0
 13 14  2  0
 14 15  1  0
  2 17  1  0
  3 18  1  0
  5 19  1  0
  6 20  1  0
  7 21  1  0
  8 22  1  0
 11 23  1  0
 14 24  1  0
 16 25  1  0
M  ISO  8  17  14  18   9  19  14  20  14  21  14  22  14  23  14  24  14
M  ISO  1  25   3
M  END
>  <minimizedAffinity>  (1) 
-6.16075373

>  <minimizedRMSD>  (1) 
0.551299155

$$$$
