
     RDKit          3D

 35 37  0  0  0  0  0  0  0  0999 V2000
   47.3190   34.2270   40.1840 C   0  0  0  0  0  0  0  0  0  0  0  0
   48.1850   34.2650   39.1070 C   0  0  0  0  0  0  0  0  0  0  0  0
   47.8900   33.8360   37.8310 C   0  0  0  0  0  0  0  0  0  0  0  0
   46.6410   33.3420   37.6510 N   0  0  0  0  0  0  0  0  0  0  0  0
   45.7770   33.2980   38.7010 C   0  0  0  0  0  0  0  0  0  0  0  0
   46.0600   33.7180   39.9560 N   0  0  0  0  0  0  0  0  0  0  0  0
   44.4900   32.7610   38.4020 N   0  0  0  0  0  0  0  0  0  0  0  0
   44.6020   31.6400   37.6320 C   0  0  0  0  0  0  0  0  0  0  0  0
   43.4650   30.9580   37.2260 C   0  0  0  0  0  0  0  0  0  0  0  0
   42.2440   31.4620   37.6320 C   0  0  0  0  0  0  0  0  0  0  0  0
   41.0580   30.7770   37.2260 N   0  0  0  0  0  0  0  0  0  0  0  0
   42.1800   32.5540   38.3790 N   0  0  0  0  0  0  0  0  0  0  0  0
   43.2870   33.2130   38.7720 C   0  0  0  0  0  0  0  0  0  0  0  0
   43.3230   34.2560   39.4790 O   0  0  0  0  0  0  0  0  0  0  0  0
   47.7010   34.6860   41.5400 C   0  0  0  0  0  0  0  0  0  0  0  0
   47.1650   33.7070   42.5510 C   0  0  0  0  0  0  0  0  0  0  0  0
   44.6870   36.0330   44.2050 C   0  0  0  0  0  0  0  0  0  0  0  0
   45.5360   35.4860   43.2380 C   0  0  0  0  0  0  0  0  0  0  0  0
   46.2380   34.3330   43.5210 C   0  0  0  0  0  0  0  0  0  0  0  0
   46.0780   33.7600   44.7410 N   0  0  0  0  0  0  0  0  0  0  0  0
   45.2410   34.3060   45.6820 C   0  0  0  0  0  0  0  0  0  0  0  0
   44.5680   35.4220   45.3990 N   0  0  0  0  0  0  0  0  0  0  0  0
   49.1921   34.6709   39.2830 H   0  0  0  0  0  0  0  0  0  0  0  0
   48.6214   33.8910   37.0112 H   0  0  0  0  0  0  0  0  0  0  0  0
   45.5962   31.2767   37.3328 H   0  0  0  0  0  0  0  0  0  0  0  0
   43.5322   30.0521   36.6056 H   0  0  0  0  0  0  0  0  0  0  0  0
   40.1346   31.1308   37.5144 H   0  0  0  0  0  0  0  0  0  0  0  0
   41.1262   29.9293   36.6449 H   0  0  0  0  0  0  0  0  0  0  0  0
   48.7970   34.7361   41.6185 H   0  0  0  0  0  0  0  0  0  0  0  0
   47.2826   35.6857   41.7286 H   0  0  0  0  0  0  0  0  0  0  0  0
   46.6285   32.9088   42.0170 H   0  0  0  0  0  0  0  0  0  0  0  0
   48.0219   33.3143   43.1181 H   0  0  0  0  0  0  0  0  0  0  0  0
   44.1223   36.9528   43.9926 H   0  0  0  0  0  0  0  0  0  0  0  0
   45.6434   35.9724   42.2573 H   0  0  0  0  0  0  0  0  0  0  0  0
   45.1259   33.8254   46.6647 H   0  0  0  0  0  0  0  0  0  0  0  0
  1 15  1  0
  2  1  2  0
  3  2  1  0
  4  3  2  0
  4  5  1  0
  5  6  2  0
  6  1  1  0
  7  5  1  0
  7 13  1  0
  8  7  1  0
  9  8  2  0
  9 10  1  0
 10 12  2  0
 11 10  1  0
 12 13  1  0
 13 14  2  0
 15 16  1  0
 16 19  1  0
 17 22  2  0
 18 19  2  0
 18 17  1  0
 19 20  1  0
 20 21  2  0
 22 21  1  0
  2 23  1  0
  3 24  1  0
  8 25  1  0
  9 26  1  0
 11 27  1  0
 11 28  1  0
 15 29  1  0
 15 30  1  0
 16 31  1  0
 16 32  1  0
 17 33  1  0
 18 34  1  0
 21 35  1  0
M  ISO  8  23  14  24  14  25  14  26  14  29   8  30   8  31   8  32   8
M  ISO  3  33  14  34  14  35  14
M  END
>  <minimizedAffinity>  (1) 
-5.25594521

>  <minimizedRMSD>  (1) 
0.802333951

$$$$
