
     RDKit          3D

 40 44  0  0  1  0  0  0  0  0999 V2000
   45.8500   33.7390   45.5920 C   0  0  0  0  0  0  0  0  0  0  0  0
   46.6520   33.7300   44.4450 C   0  0  0  0  0  0  0  0  0  0  0  0
   46.3850   34.6800   43.4620 C   0  0  0  0  0  0  0  0  0  0  0  0
   45.3740   35.5650   43.6520 N   0  0  0  0  0  0  0  0  0  0  0  0
   44.6130   35.5560   44.7680 C   0  0  0  0  0  0  0  0  0  0  0  0
   44.8510   34.6420   45.7400 N   0  0  0  0  0  0  0  0  0  0  0  0
   47.2110   34.6810   42.2630 C   0  0  0  0  0  0  0  0  0  0  0  0
   48.5080   35.2170   42.1560 C   0  0  0  0  0  0  0  0  0  0  0  0
   48.9510   35.0320   40.8900 N   0  0  0  0  0  0  0  0  0  0  0  0
   47.9650   34.3980   40.2190 C   0  0  0  0  0  0  0  0  0  0  0  0
   47.9290   33.9830   38.8890 C   0  0  0  0  0  0  0  0  0  0  0  0
   46.7990   33.3520   38.4330 C   0  0  0  0  0  0  0  0  0  0  0  0
   45.6800   33.0980   39.2220 C   0  0  0  0  0  0  0  0  0  0  0  0
   45.8020   33.5440   40.5300 C   0  0  0  0  0  0  0  0  0  0  0  0
   46.8780   34.1680   41.0390 C   0  0  0  0  0  0  0  0  0  0  0  0
   46.0420   32.8380   46.6150 O   0  0  0  0  0  0  0  0  0  0  0  0
   45.3540   32.8190   47.8200 C   0  0  1  0  0  0  0  0  0  0  0  0
   44.6650   31.5600   48.2000 C   0  0  0  0  0  0  0  0  0  0  0  0
   45.9510   31.9180   48.8830 C   0  0  1  0  0  0  0  0  0  0  0  0
   47.1870   31.1480   48.5410 C   0  0  0  0  0  0  0  0  0  0  0  0
   48.4620   31.5310   48.9510 C   0  0  0  0  0  0  0  0  0  0  0  0
   49.5610   30.7540   48.5880 C   0  0  0  0  0  0  0  0  0  0  0  0
   49.3860   29.6400   47.8430 N   0  0  0  0  0  0  0  0  0  0  0  0
   48.1450   29.2780   47.4510 C   0  0  0  0  0  0  0  0  0  0  0  0
   47.0870   30.0270   47.8030 N   0  0  0  0  0  0  0  0  0  0  0  0
   47.4645   32.9985   44.3241 H   0  0  0  0  0  0  0  0  0  0  0  0
   43.8017   36.2891   44.8877 H   0  0  0  0  0  0  0  0  0  0  0  0
   49.0688   35.7053   42.9666 H   0  0  0  0  0  0  0  0  0  0  0  0
   49.8646   35.3196   40.5113 H   0  0  0  0  0  0  0  0  0  0  0  0
   48.7855   34.1570   38.2211 H   0  0  0  0  0  0  0  0  0  0  0  0
   46.7757   33.0277   37.3822 H   0  0  0  0  0  0  0  0  0  0  0  0
   44.7811   32.5899   38.8427 H   0  0  0  0  0  0  0  0  0  0  0  0
   44.9499   33.3733   41.2044 H   0  0  0  0  0  0  0  0  0  0  0  0
   45.0406   33.8714   47.7546 H   0  0  0  0  0  0  0  0  0  0  0  0
   43.7186   31.6016   48.7591 H   0  0  0  0  0  0  0  0  0  0  0  0
   44.3042   30.6806   47.6465 H   0  0  0  0  0  0  0  0  0  0  0  0
   46.2718   32.0381   49.9283 H   0  0  0  0  0  0  0  0  0  0  0  0
   48.6005   32.4391   49.5562 H   0  0  0  0  0  0  0  0  0  0  0  0
   50.5715   31.0478   48.9082 H   0  0  0  0  0  0  0  0  0  0  0  0
   48.0011   28.3715   46.8447 H   0  0  0  0  0  0  0  0  0  0  0  0
  1  6  1  0
  1 16  1  0
  2  1  2  0
  3  4  2  0
  3  2  1  0
  4  5  1  0
  5  6  2  0
  7  3  1  0
  8  7  2  0
  9  8  1  0
 10  9  1  0
 10 15  2  0
 11 10  1  0
 12 11  2  0
 12 13  1  0
 13 14  2  0
 14 15  1  0
 15  7  1  0
 16 17  1  0
 17 18  1  0
 17 19  1  0
 18 19  1  0
 20 19  1  0
 20 21  2  0
 22 21  1  0
 23 22  2  0
 24 25  2  0
 24 23  1  0
 25 20  1  0
  2 26  1  0
  5 27  1  0
  8 28  1  0
  9 29  1  0
 11 30  1  0
 12 31  1  0
 13 32  1  0
 14 33  1  0
 17 34  1  1
 18 35  1  0
 18 36  1  0
 19 37  1  1
 21 38  1  0
 22 39  1  0
 24 40  1  0
M  ISO  8  26  14  27  14  28  14  29   9  30  14  31  14  32  14  33  14
M  ISO  7  34  13  35  13  36  13  37  13  38  14  39  14  40  14
M  END
>  <minimizedAffinity>  (1) 
-6.78748226

>  <minimizedRMSD>  (1) 
0.63337487

$$$$
