
     RDKit          3D

 39 43  0  0  1  0  0  0  0  0999 V2000
   45.4370   34.3530   45.1520 C   0  0  0  0  0  0  0  0  0  0  0  0
   46.3040   34.1850   44.0720 C   0  0  0  0  0  0  0  0  0  0  0  0
   46.2570   35.1200   43.0390 C   0  0  0  0  0  0  0  0  0  0  0  0
   45.3720   36.1520   43.1270 N   0  0  0  0  0  0  0  0  0  0  0  0
   44.5410   36.2930   44.1880 C   0  0  0  0  0  0  0  0  0  0  0  0
   44.5730   35.3920   45.2020 N   0  0  0  0  0  0  0  0  0  0  0  0
   47.1540   34.9530   41.9110 C   0  0  0  0  0  0  0  0  0  0  0  0
   48.4750   35.4360   41.8190 C   0  0  0  0  0  0  0  0  0  0  0  0
   48.9900   35.0860   40.6240 N   0  0  0  0  0  0  0  0  0  0  0  0
   48.0210   34.3910   39.9590 C   0  0  0  0  0  0  0  0  0  0  0  0
   48.0630   33.8260   38.7060 C   0  0  0  0  0  0  0  0  0  0  0  0
   46.9520   33.1710   38.2490 C   0  0  0  0  0  0  0  0  0  0  0  0
   45.7670   33.0410   38.9820 C   0  0  0  0  0  0  0  0  0  0  0  0
   45.8200   33.6390   40.2240 C   0  0  0  0  0  0  0  0  0  0  0  0
   46.8800   34.2990   40.7380 C   0  0  0  0  0  0  0  0  0  0  0  0
   45.4160   33.4810   46.2110 O   0  0  0  0  0  0  0  0  0  0  0  0
   46.2030   32.3470   46.3710 C   0  0  1  0  0  0  0  0  0  0  0  0
   47.2310   32.3860   47.4540 C   0  0  0  0  0  0  0  0  0  0  0  0
   45.9770   31.5870   47.6590 C   0  0  2  0  0  0  0  0  0  0  0  0
   46.1840   30.1360   47.5640 N   0  0  0  0  0  0  0  0  0  0  0  0
   45.2010   29.2230   47.5230 C   0  0  0  0  0  0  0  0  0  0  0  0
   45.7660   27.9540   47.4340 C   0  0  0  0  0  0  0  0  0  0  0  0
   47.1170   28.1350   47.4210 N   0  0  0  0  0  0  0  0  0  0  0  0
   47.3640   29.4660   47.5010 C   0  0  0  0  0  0  0  0  0  0  0  0
   47.0053   33.3383   44.0365 H   0  0  0  0  0  0  0  0  0  0  0  0
   43.8394   37.1393   44.2273 H   0  0  0  0  0  0  0  0  0  0  0  0
   49.0012   36.0072   42.5980 H   0  0  0  0  0  0  0  0  0  0  0  0
   49.9357   35.3019   40.2777 H   0  0  0  0  0  0  0  0  0  0  0  0
   48.9685   33.8989   38.0857 H   0  0  0  0  0  0  0  0  0  0  0  0
   46.9927   32.7201   37.2465 H   0  0  0  0  0  0  0  0  0  0  0  0
   44.8790   32.5130   38.6043 H   0  0  0  0  0  0  0  0  0  0  0  0
   44.9189   33.5723   40.8513 H   0  0  0  0  0  0  0  0  0  0  0  0
   46.2232   32.0980   45.2997 H   0  0  0  0  0  0  0  0  0  0  0  0
   48.1929   31.8706   47.3156 H   0  0  0  0  0  0  0  0  0  0  0  0
   47.7377   33.1875   48.0115 H   0  0  0  0  0  0  0  0  0  0  0  0
   45.1740   31.5535   48.4100 H   0  0  0  0  0  0  0  0  0  0  0  0
   44.1235   29.4421   47.5546 H   0  0  0  0  0  0  0  0  0  0  0  0
   45.2289   26.9953   47.3841 H   0  0  0  0  0  0  0  0  0  0  0  0
   48.3615   29.9295   47.5130 H   0  0  0  0  0  0  0  0  0  0  0  0
  1  6  1  0
  1 16  1  0
  2  1  2  0
  3  4  2  0
  3  2  1  0
  4  5  1  0
  5  6  2  0
  7  3  1  0
  8  7  2  0
  9  8  1  0
 10  9  1  0
 10 15  2  0
 11 10  1  0
 12 11  2  0
 12 13  1  0
 13 14  2  0
 14 15  1  0
 15  7  1  0
 16 17  1  0
 17 18  1  0
 17 19  1  0
 18 19  1  0
 20 19  1  0
 21 20  1  0
 22 21  2  0
 23 22  1  0
 23 24  2  0
 24 20  1  0
  2 25  1  0
  5 26  1  0
  8 27  1  0
  9 28  1  0
 11 29  1  0
 12 30  1  0
 13 31  1  0
 14 32  1  0
 17 33  1  6
 18 34  1  0
 18 35  1  0
 19 36  1  1
 21 37  1  0
 22 38  1  0
 24 39  1  0
M  ISO  8  25  14  26  14  27  14  28   9  29  14  30  14  31  14  32  14
M  ISO  7  33  13  34  13  35  13  36  13  37  14  38  14  39  14
M  END
>  <minimizedAffinity>  (1) 
-6.55469751

>  <minimizedRMSD>  (1) 
2.83476877

$$$$
