
     RDKit          3D

 34 37  0  0  1  0  0  0  0  0999 V2000
   45.8310   33.8440   45.2320 C   0  0  0  0  0  0  0  0  0  0  0  0
   46.6420   33.8560   44.0950 C   0  0  0  0  0  0  0  0  0  0  0  0
   46.4320   34.8480   43.1480 C   0  0  0  0  0  0  0  0  0  0  0  0
   45.4390   35.7770   43.3650 N   0  0  0  0  0  0  0  0  0  0  0  0
   44.6640   35.7460   44.4740 C   0  0  0  0  0  0  0  0  0  0  0  0
   44.8560   34.7860   45.4070 N   0  0  0  0  0  0  0  0  0  0  0  0
   47.2640   34.8800   41.9590 C   0  0  0  0  0  0  0  0  0  0  0  0
   48.5020   35.5370   41.8390 C   0  0  0  0  0  0  0  0  0  0  0  0
   48.9670   35.3380   40.5810 N   0  0  0  0  0  0  0  0  0  0  0  0
   48.0480   34.5770   39.9260 C   0  0  0  0  0  0  0  0  0  0  0  0
   48.0750   34.1130   38.6260 C   0  0  0  0  0  0  0  0  0  0  0  0
   47.0040   33.3450   38.1940 C   0  0  0  0  0  0  0  0  0  0  0  0
   45.9080   33.0160   38.9850 C   0  0  0  0  0  0  0  0  0  0  0  0
   45.9780   33.5260   40.2630 C   0  0  0  0  0  0  0  0  0  0  0  0
   46.9790   34.2790   40.7650 C   0  0  0  0  0  0  0  0  0  0  0  0
   45.9590   32.9100   46.2190 O   0  0  0  0  0  0  0  0  0  0  0  0
   45.3050   32.9060   47.4410 C   0  0  1  0  0  0  0  0  0  0  0  0
   45.0270   31.5670   48.0450 C   0  0  0  0  0  0  0  0  0  0  0  0
   46.1090   32.4020   48.6170 C   0  0  1  0  0  0  0  0  0  0  0  0
   47.4820   31.8720   48.3630 C   0  0  0  0  0  0  0  0  0  0  0  0
   47.7510   31.0570   49.2310 O   0  0  0  0  0  0  0  0  0  0  0  0
   47.4270   33.0985   43.9539 H   0  0  0  0  0  0  0  0  0  0  0  0
   43.8777   36.5019   44.6166 H   0  0  0  0  0  0  0  0  0  0  0  0
   49.0059   36.1128   42.6293 H   0  0  0  0  0  0  0  0  0  0  0  0
   49.8514   35.6962   40.1931 H   0  0  0  0  0  0  0  0  0  0  0  0
   48.9164   34.3443   37.9563 H   0  0  0  0  0  0  0  0  0  0  0  0
   47.0224   32.9720   37.1593 H   0  0  0  0  0  0  0  0  0  0  0  0
   45.0659   32.4069   38.6246 H   0  0  0  0  0  0  0  0  0  0  0  0
   45.1394   33.2980   40.9373 H   0  0  0  0  0  0  0  0  0  0  0  0
   44.7069   33.8027   47.2212 H   0  0  0  0  0  0  0  0  0  0  0  0
   44.1005   31.4058   48.6156 H   0  0  0  0  0  0  0  0  0  0  0  0
   44.9692   30.5407   47.6535 H   0  0  0  0  0  0  0  0  0  0  0  0
   46.3611   32.8319   49.5976 H   0  0  0  0  0  0  0  0  0  0  0  0
   48.1406   32.1667   47.5327 H   0  0  0  0  0  0  0  0  0  0  0  0
  1  6  1  0
  1 16  1  0
  2  1  2  0
  3  4  2  0
  3  2  1  0
  4  5  1  0
  5  6  2  0
  7  3  1  0
  8  7  2  0
  9  8  1  0
 10  9  1  0
 10 15  2  0
 11 10  1  0
 12 11  2  0
 12 13  1  0
 13 14  2  0
 14 15  1  0
 15  7  1  0
 16 17  1  0
 17 18  1  0
 17 19  1  0
 18 19  1  0
 20 19  1  0
 20 21  2  0
  2 22  1  0
  5 23  1  0
  8 24  1  0
  9 25  1  0
 11 26  1  0
 12 27  1  0
 13 28  1  0
 14 29  1  0
 17 30  1  1
 18 31  1  0
 18 32  1  0
 19 33  1  1
 20 34  1  0
M  ISO  8  22  14  23  14  24  14  25   9  26  14  27  14  28  14  29  14
M  ISO  5  30  13  31  13  32  13  33  13  34   6
M  END
>  <minimizedAffinity>  (1) 
-6.51027727

>  <minimizedRMSD>  (1) 
0.420782924

$$$$
