
     RDKit          3D

 41 44  0  0  1  0  0  0  0  0999 V2000
   45.7610   33.8390   45.2010 C   0  0  0  0  0  0  0  0  0  0  0  0
   46.5780   33.8420   44.0670 C   0  0  0  0  0  0  0  0  0  0  0  0
   46.3970   34.8700   43.1400 C   0  0  0  0  0  0  0  0  0  0  0  0
   45.4490   35.8110   43.3780 N   0  0  0  0  0  0  0  0  0  0  0  0
   44.6710   35.7820   44.4880 C   0  0  0  0  0  0  0  0  0  0  0  0
   44.8280   34.7980   45.3980 N   0  0  0  0  0  0  0  0  0  0  0  0
   47.2410   34.8870   41.9520 C   0  0  0  0  0  0  0  0  0  0  0  0
   48.4940   35.5310   41.8320 C   0  0  0  0  0  0  0  0  0  0  0  0
   48.9640   35.3240   40.5970 N   0  0  0  0  0  0  0  0  0  0  0  0
   48.0560   34.5740   39.9320 C   0  0  0  0  0  0  0  0  0  0  0  0
   48.0780   34.0940   38.6280 C   0  0  0  0  0  0  0  0  0  0  0  0
   47.0190   33.3460   38.1880 C   0  0  0  0  0  0  0  0  0  0  0  0
   45.9110   33.0330   38.9730 C   0  0  0  0  0  0  0  0  0  0  0  0
   45.9630   33.5440   40.2540 C   0  0  0  0  0  0  0  0  0  0  0  0
   46.9720   34.2880   40.7530 C   0  0  0  0  0  0  0  0  0  0  0  0
   45.8780   32.8610   46.1600 O   0  0  0  0  0  0  0  0  0  0  0  0
   45.5000   32.9800   47.4900 C   0  0  1  0  0  0  0  0  0  0  0  0
   44.9060   31.7700   48.1350 C   0  0  0  0  0  0  0  0  0  0  0  0
   46.2930   32.1540   48.4710 C   0  0  1  0  0  0  0  0  0  0  0  0
   47.5010   31.4380   47.9420 C   0  0  0  0  0  0  0  0  0  0  0  0
   48.6370   31.6670   48.9160 C   0  0  0  0  0  0  0  0  0  0  0  0
   47.2820   29.9750   47.7850 C   0  0  0  0  0  0  0  0  0  0  0  0
   47.3372   33.0615   43.9104 H   0  0  0  0  0  0  0  0  0  0  0  0
   43.9111   36.5613   44.6469 H   0  0  0  0  0  0  0  0  0  0  0  0
   48.9982   36.1063   42.6225 H   0  0  0  0  0  0  0  0  0  0  0  0
   49.8568   35.6730   40.2202 H   0  0  0  0  0  0  0  0  0  0  0  0
   48.9277   34.3103   37.9638 H   0  0  0  0  0  0  0  0  0  0  0  0
   47.0443   32.9702   37.1545 H   0  0  0  0  0  0  0  0  0  0  0  0
   45.0679   32.4308   38.6036 H   0  0  0  0  0  0  0  0  0  0  0  0
   45.1152   33.3277   40.9206 H   0  0  0  0  0  0  0  0  0  0  0  0
   45.2067   34.0363   47.3993 H   0  0  0  0  0  0  0  0  0  0  0  0
   44.1094   31.8849   48.8848 H   0  0  0  0  0  0  0  0  0  0  0  0
   44.4278   30.8524   47.7619 H   0  0  0  0  0  0  0  0  0  0  0  0
   46.8079   32.3017   49.4318 H   0  0  0  0  0  0  0  0  0  0  0  0
   47.7276   31.8367   46.9421 H   0  0  0  0  0  0  0  0  0  0  0  0
   48.2580   31.5906   49.9458 H   0  0  0  0  0  0  0  0  0  0  0  0
   49.4167   30.9080   48.7550 H   0  0  0  0  0  0  0  0  0  0  0  0
   49.0617   32.6688   48.7550 H   0  0  0  0  0  0  0  0  0  0  0  0
   47.2118   29.5062   48.7776 H   0  0  0  0  0  0  0  0  0  0  0  0
   46.3479   29.8015   47.2307 H   0  0  0  0  0  0  0  0  0  0  0  0
   48.1244   29.5356   47.2307 H   0  0  0  0  0  0  0  0  0  0  0  0
  1  6  1  0
  1 16  1  0
  2  1  2  0
  3  4  2  0
  3  2  1  0
  4  5  1  0
  5  6  2  0
  7  3  1  0
  8  7  2  0
  9  8  1  0
 10  9  1  0
 10 15  2  0
 11 10  1  0
 12 11  2  0
 12 13  1  0
 13 14  2  0
 14 15  1  0
 15  7  1  0
 16 17  1  0
 17 18  1  0
 17 19  1  0
 18 19  1  0
 20 19  1  0
 20 21  1  0
 22 20  1  0
  2 23  1  0
  5 24  1  0
  8 25  1  0
  9 26  1  0
 11 27  1  0
 12 28  1  0
 13 29  1  0
 14 30  1  0
 17 31  1  1
 18 32  1  0
 18 33  1  0
 19 34  1  1
 20 35  1  0
 21 36  1  0
 21 37  1  0
 21 38  1  0
 22 39  1  0
 22 40  1  0
 22 41  1  0
M  ISO  8  23  14  24  14  25  14  26   9  27  14  28  14  29  14  30  14
M  ISO  8  31  13  32  13  33  13  34  13  35   8  36   8  37   8  38   8
M  ISO  3  39   8  40   8  41   8
M  END
>  <minimizedAffinity>  (1) 
-6.71636724

>  <minimizedRMSD>  (1) 
0.402805477

$$$$
