
     RDKit          3D

 35 38  0  0  1  0  0  0  0  0999 V2000
   45.7410   33.7920   45.6290 C   0  0  0  0  0  0  0  0  0  0  0  0
   46.5340   33.7600   44.4810 C   0  0  0  0  0  0  0  0  0  0  0  0
   46.3060   34.7310   43.4960 C   0  0  0  0  0  0  0  0  0  0  0  0
   45.3340   35.6550   43.6960 N   0  0  0  0  0  0  0  0  0  0  0  0
   44.5800   35.6610   44.8210 C   0  0  0  0  0  0  0  0  0  0  0  0
   44.7830   34.7340   45.7820 N   0  0  0  0  0  0  0  0  0  0  0  0
   47.1390   34.6910   42.3020 C   0  0  0  0  0  0  0  0  0  0  0  0
   48.4420   35.1790   42.1790 C   0  0  0  0  0  0  0  0  0  0  0  0
   48.8840   34.9660   40.9310 N   0  0  0  0  0  0  0  0  0  0  0  0
   47.8860   34.3500   40.2560 C   0  0  0  0  0  0  0  0  0  0  0  0
   47.8320   33.9150   38.9420 C   0  0  0  0  0  0  0  0  0  0  0  0
   46.6930   33.3110   38.4850 C   0  0  0  0  0  0  0  0  0  0  0  0
   45.5600   33.1030   39.2780 C   0  0  0  0  0  0  0  0  0  0  0  0
   45.6870   33.5620   40.5750 C   0  0  0  0  0  0  0  0  0  0  0  0
   46.7790   34.1620   41.0830 C   0  0  0  0  0  0  0  0  0  0  0  0
   45.9030   32.8700   46.6440 O   0  0  0  0  0  0  0  0  0  0  0  0
   45.0960   32.7600   47.7680 C   0  0  1  0  0  0  0  0  0  0  0  0
   44.7570   31.4160   48.2640 C   0  0  0  0  0  0  0  0  0  0  0  0
   45.8070   32.2020   48.9910 C   0  0  1  0  0  0  0  0  0  0  0  0
   47.2310   31.8070   48.8640 C   0  0  0  0  0  0  0  0  0  0  0  0
   47.9980   32.6070   48.2320 O   0  0  0  0  0  0  0  0  0  0  0  0
   47.7470   30.6360   49.3890 O   0  0  0  0  0  0  0  0  0  0  0  0
   47.3146   32.9957   44.3529 H   0  0  0  0  0  0  0  0  0  0  0  0
   43.7989   36.4242   44.9526 H   0  0  0  0  0  0  0  0  0  0  0  0
   49.0169   35.6633   42.9820 H   0  0  0  0  0  0  0  0  0  0  0  0
   49.8086   35.2228   40.5568 H   0  0  0  0  0  0  0  0  0  0  0  0
   48.6949   34.0536   38.2740 H   0  0  0  0  0  0  0  0  0  0  0  0
   46.6668   32.9711   37.4391 H   0  0  0  0  0  0  0  0  0  0  0  0
   44.6478   32.6166   38.9021 H   0  0  0  0  0  0  0  0  0  0  0  0
   44.8262   33.4260   41.2462 H   0  0  0  0  0  0  0  0  0  0  0  0
   44.4918   33.6461   47.5234 H   0  0  0  0  0  0  0  0  0  0  0  0
   43.7806   31.2399   48.7390 H   0  0  0  0  0  0  0  0  0  0  0  0
   44.7234   30.4149   47.8095 H   0  0  0  0  0  0  0  0  0  0  0  0
   45.9642   32.5226   50.0315 H   0  0  0  0  0  0  0  0  0  0  0  0
   48.7069   30.4227   49.2740 H   0  0  0  0  0  0  0  0  0  0  0  0
  1  6  1  0
  1 16  1  0
  2  1  2  0
  3  4  2  0
  3  2  1  0
  4  5  1  0
  5  6  2  0
  7  3  1  0
  8  7  2  0
  9  8  1  0
 10  9  1  0
 10 15  2  0
 11 10  1  0
 12 11  2  0
 12 13  1  0
 13 14  2  0
 14 15  1  0
 15  7  1  0
 16 17  1  0
 17 18  1  0
 17 19  1  0
 18 19  1  0
 20 19  1  0
 20 22  1  0
 21 20  2  0
  2 23  1  0
  5 24  1  0
  8 25  1  0
  9 26  1  0
 11 27  1  0
 12 28  1  0
 13 29  1  0
 14 30  1  0
 17 31  1  1
 18 32  1  0
 18 33  1  0
 19 34  1  1
 22 35  1  0
M  ISO  8  23  14  24  14  25  14  26   9  27  14  28  14  29  14  30  14
M  ISO  5  31  13  32  13  33  13  34  13  35   3
M  END
>  <minimizedAffinity>  (1) 
-6.70149517

>  <minimizedRMSD>  (1) 
0.52560395

$$$$
