
     RDKit          3D

 48 52  0  0  1  0  0  0  0  0999 V2000
   45.7650   33.8430   45.4580 C   0  0  0  0  0  0  0  0  0  0  0  0
   46.5600   33.8550   44.3130 C   0  0  0  0  0  0  0  0  0  0  0  0
   46.3390   34.8330   43.3470 C   0  0  0  0  0  0  0  0  0  0  0  0
   45.3530   35.7420   43.5560 N   0  0  0  0  0  0  0  0  0  0  0  0
   44.5940   35.7140   44.6710 C   0  0  0  0  0  0  0  0  0  0  0  0
   44.8040   34.7680   45.6120 N   0  0  0  0  0  0  0  0  0  0  0  0
   47.1770   34.8320   42.1590 C   0  0  0  0  0  0  0  0  0  0  0  0
   48.4390   35.4360   42.0370 C   0  0  0  0  0  0  0  0  0  0  0  0
   48.9080   35.2320   40.7980 N   0  0  0  0  0  0  0  0  0  0  0  0
   47.9750   34.5140   40.1330 C   0  0  0  0  0  0  0  0  0  0  0  0
   47.9660   34.0370   38.8220 C   0  0  0  0  0  0  0  0  0  0  0  0
   46.8900   33.3220   38.3740 C   0  0  0  0  0  0  0  0  0  0  0  0
   45.7740   33.0340   39.1680 C   0  0  0  0  0  0  0  0  0  0  0  0
   45.8480   33.5350   40.4520 C   0  0  0  0  0  0  0  0  0  0  0  0
   46.8780   34.2460   40.9530 C   0  0  0  0  0  0  0  0  0  0  0  0
   45.9170   32.9140   46.4570 O   0  0  0  0  0  0  0  0  0  0  0  0
   45.1520   32.8070   47.6130 C   0  0  1  0  0  0  0  0  0  0  0  0
   44.8290   31.4290   48.0730 C   0  0  0  0  0  0  0  0  0  0  0  0
   45.8650   32.2850   48.8190 C   0  0  1  0  0  0  0  0  0  0  0  0
   47.2860   31.8370   48.6500 C   0  0  0  0  0  0  0  0  0  0  0  0
   48.1590   32.6950   48.3530 O   0  0  0  0  0  0  0  0  0  0  0  0
   47.7870   30.5830   48.7680 O   0  0  0  0  0  0  0  0  0  0  0  0
   49.1230   30.2610   48.9190 C   0  0  0  0  0  0  0  0  0  0  0  0
   49.5640   29.0040   48.2050 C   0  0  0  0  0  0  0  0  0  0  0  0
   50.0210   28.0620   49.2940 C   0  0  0  0  0  0  0  0  0  0  0  0
   50.6300   29.0570   50.2820 C   0  0  0  0  0  0  0  0  0  0  0  0
   49.6150   30.1870   50.3300 C   0  0  0  0  0  0  0  0  0  0  0  0
   47.3505   33.1027   44.1747 H   0  0  0  0  0  0  0  0  0  0  0  0
   43.8019   36.4637   44.8142 H   0  0  0  0  0  0  0  0  0  0  0  0
   48.9601   35.9890   42.8324 H   0  0  0  0  0  0  0  0  0  0  0  0
   49.8094   35.5604   40.4231 H   0  0  0  0  0  0  0  0  0  0  0  0
   48.8175   34.2345   38.1542 H   0  0  0  0  0  0  0  0  0  0  0  0
   46.9021   32.9546   37.3372 H   0  0  0  0  0  0  0  0  0  0  0  0
   44.9120   32.4579   38.8004 H   0  0  0  0  0  0  0  0  0  0  0  0
   44.9973   33.3381   41.1210 H   0  0  0  0  0  0  0  0  0  0  0  0
   44.5474   33.7011   47.4008 H   0  0  0  0  0  0  0  0  0  0  0  0
   43.8537   31.2154   48.5348 H   0  0  0  0  0  0  0  0  0  0  0  0
   44.8256   30.4306   47.6112 H   0  0  0  0  0  0  0  0  0  0  0  0
   46.0134   32.6547   49.8443 H   0  0  0  0  0  0  0  0  0  0  0  0
   49.5875   31.1319   48.4334 H   0  0  0  0  0  0  0  0  0  0  0  0
   48.7252   28.5657   47.6443 H   0  0  0  0  0  0  0  0  0  0  0  0
   50.3640   29.2065   47.4776 H   0  0  0  0  0  0  0  0  0  0  0  0
   49.1770   27.5135   49.7376 H   0  0  0  0  0  0  0  0  0  0  0  0
   50.7065   27.2699   48.9584 H   0  0  0  0  0  0  0  0  0  0  0  0
   50.7532   28.5985   51.2742 H   0  0  0  0  0  0  0  0  0  0  0  0
   51.6316   29.3972   49.9804 H   0  0  0  0  0  0  0  0  0  0  0  0
   50.0900   31.1319   50.6327 H   0  0  0  0  0  0  0  0  0  0  0  0
   48.8104   30.0149   51.0601 H   0  0  0  0  0  0  0  0  0  0  0  0
  1  6  1  0
  1 16  1  0
  2  1  2  0
  3  4  2  0
  3  2  1  0
  4  5  1  0
  5  6  2  0
  7  3  1  0
  8  7  2  0
  9  8  1  0
 10  9  1  0
 10 15  2  0
 11 10  1  0
 12 11  2  0
 12 13  1  0
 13 14  2  0
 14 15  1  0
 15  7  1  0
 16 17  1  0
 17 18  1  0
 17 19  1  0
 18 19  1  0
 20 22  1  0
 20 19  1  0
 21 20  2  0
 22 23  1  0
 23 27  1  0
 24 23  1  0
 24 25  1  0
 25 26  1  0
 26 27  1  0
  2 28  1  0
  5 29  1  0
  8 30  1  0
  9 31  1  0
 11 32  1  0
 12 33  1  0
 13 34  1  0
 14 35  1  0
 17 36  1  1
 18 37  1  0
 18 38  1  0
 19 39  1  1
 23 40  1  0
 24 41  1  0
 24 42  1  0
 25 43  1  0
 25 44  1  0
 26 45  1  0
 26 46  1  0
 27 47  1  0
 27 48  1  0
M  ISO  8  28  14  29  14  30  14  31   9  32  14  33  14  34  14  35  14
M  ISO  8  36  13  37  13  38  13  39  13  40  13  41  13  42  13  43  13
M  ISO  5  44  13  45  13  46  13  47  13  48  13
M  END
>  <minimizedAffinity>  (1) 
-6.86278391

>  <minimizedRMSD>  (1) 
0.686288297

$$$$
