
     RDKit          3D

 39 42  0  0  1  0  0  0  0  0999 V2000
   45.7370   33.8320   45.4970 C   0  0  0  0  0  0  0  0  0  0  0  0
   46.5370   33.8340   44.3530 C   0  0  0  0  0  0  0  0  0  0  0  0
   46.3230   34.8180   43.3880 C   0  0  0  0  0  0  0  0  0  0  0  0
   45.3500   35.7350   43.5920 N   0  0  0  0  0  0  0  0  0  0  0  0
   44.5890   35.7150   44.7080 C   0  0  0  0  0  0  0  0  0  0  0  0
   44.7860   34.7670   45.6500 N   0  0  0  0  0  0  0  0  0  0  0  0
   47.1660   34.8060   42.2000 C   0  0  0  0  0  0  0  0  0  0  0  0
   48.4310   35.3660   42.0690 C   0  0  0  0  0  0  0  0  0  0  0  0
   48.9040   35.1630   40.8390 N   0  0  0  0  0  0  0  0  0  0  0  0
   47.9500   34.4690   40.1630 C   0  0  0  0  0  0  0  0  0  0  0  0
   47.9280   33.9990   38.8530 C   0  0  0  0  0  0  0  0  0  0  0  0
   46.8400   33.3160   38.4030 C   0  0  0  0  0  0  0  0  0  0  0  0
   45.7160   33.0560   39.2000 C   0  0  0  0  0  0  0  0  0  0  0  0
   45.7980   33.5460   40.4830 C   0  0  0  0  0  0  0  0  0  0  0  0
   46.8460   34.2280   40.9850 C   0  0  0  0  0  0  0  0  0  0  0  0
   45.8950   32.8900   46.4890 O   0  0  0  0  0  0  0  0  0  0  0  0
   45.1640   32.8370   47.6810 C   0  0  1  0  0  0  0  0  0  0  0  0
   44.8110   31.4760   48.1680 C   0  0  0  0  0  0  0  0  0  0  0  0
   45.9000   32.3080   48.8700 C   0  0  1  0  0  0  0  0  0  0  0  0
   47.3010   31.8150   48.6640 C   0  0  0  0  0  0  0  0  0  0  0  0
   48.1470   32.5970   48.1530 O   0  0  0  0  0  0  0  0  0  0  0  0
   47.7870   30.5820   48.9670 O   0  0  0  0  0  0  0  0  0  0  0  0
   48.9950   30.4380   49.6290 C   0  0  0  0  0  0  0  0  0  0  0  0
   49.6190   29.1460   49.6970 N   0  0  0  0  0  0  0  0  0  0  0  0
   49.5810   31.4230   50.1870 O   0  0  0  0  0  0  0  0  0  0  0  0
   47.3207   33.0745   44.2153 H   0  0  0  0  0  0  0  0  0  0  0  0
   43.8056   36.4739   44.8503 H   0  0  0  0  0  0  0  0  0  0  0  0
   48.9664   35.9011   42.8671 H   0  0  0  0  0  0  0  0  0  0  0  0
   49.8155   35.4720   40.4720 H   0  0  0  0  0  0  0  0  0  0  0  0
   48.7841   34.1783   38.1859 H   0  0  0  0  0  0  0  0  0  0  0  0
   46.8426   32.9509   37.3654 H   0  0  0  0  0  0  0  0  0  0  0  0
   44.8393   32.5047   38.8293 H   0  0  0  0  0  0  0  0  0  0  0  0
   44.9420   33.3672   41.1504 H   0  0  0  0  0  0  0  0  0  0  0  0
   44.5864   33.7513   47.4799 H   0  0  0  0  0  0  0  0  0  0  0  0
   43.8449   31.3001   48.6637 H   0  0  0  0  0  0  0  0  0  0  0  0
   44.7597   30.4730   47.7194 H   0  0  0  0  0  0  0  0  0  0  0  0
   46.0939   32.6847   49.8851 H   0  0  0  0  0  0  0  0  0  0  0  0
   50.5174   29.0332   50.1880 H   0  0  0  0  0  0  0  0  0  0  0  0
   49.1681   28.3324   49.2547 H   0  0  0  0  0  0  0  0  0  0  0  0
  1  6  1  0
  1 16  1  0
  2  1  2  0
  3  4  2  0
  3  2  1  0
  4  5  1  0
  5  6  2  0
  7  3  1  0
  8  7  2  0
  9  8  1  0
 10  9  1  0
 10 15  2  0
 11 10  1  0
 12 11  2  0
 12 13  1  0
 13 14  2  0
 14 15  1  0
 15  7  1  0
 16 17  1  0
 17 18  1  0
 17 19  1  0
 18 19  1  0
 20 19  1  0
 20 22  1  0
 21 20  2  0
 22 23  1  0
 23 24  1  0
 23 25  2  0
  2 26  1  0
  5 27  1  0
  8 28  1  0
  9 29  1  0
 11 30  1  0
 12 31  1  0
 13 32  1  0
 14 33  1  0
 17 34  1  1
 18 35  1  0
 18 36  1  0
 19 37  1  1
 24 38  1  0
 24 39  1  0
M  ISO  8  26  14  27  14  28  14  29   9  30  14  31  14  32  14  33  14
M  ISO  4  34  13  35  13  36  13  37  13
M  END
>  <minimizedAffinity>  (1) 
-6.73242188

>  <minimizedRMSD>  (1) 
0.397181243

$$$$
