
     RDKit          3D

 34 36  0  0  0  0  0  0  0  0999 V2000
   47.2840   34.2180   40.1690 C   0  0  0  0  0  0  0  0  0  0  0  0
   48.1780   34.1970   39.1160 C   0  0  0  0  0  0  0  0  0  0  0  0
   47.9110   33.7630   37.8300 C   0  0  0  0  0  0  0  0  0  0  0  0
   46.6440   33.3280   37.6290 N   0  0  0  0  0  0  0  0  0  0  0  0
   45.7390   33.3390   38.6570 C   0  0  0  0  0  0  0  0  0  0  0  0
   46.0100   33.7660   39.9090 N   0  0  0  0  0  0  0  0  0  0  0  0
   44.3860   32.8600   38.3900 C   0  0  0  0  0  0  0  0  0  0  0  0
   44.1690   31.7070   37.6580 C   0  0  0  0  0  0  0  0  0  0  0  0
   42.8780   31.2630   37.4110 C   0  0  0  0  0  0  0  0  0  0  0  0
   41.7910   31.9550   37.8860 C   0  0  0  0  0  0  0  0  0  0  0  0
   41.9650   33.1210   38.6270 C   0  0  0  0  0  0  0  0  0  0  0  0
   43.2610   33.5260   38.8480 C   0  0  0  0  0  0  0  0  0  0  0  0
   47.6490   34.6770   41.5240 C   0  0  0  0  0  0  0  0  0  0  0  0
   47.1130   33.6910   42.5310 C   0  0  0  0  0  0  0  0  0  0  0  0
   44.6820   36.0440   44.2240 C   0  0  0  0  0  0  0  0  0  0  0  0
   45.5130   35.4850   43.2620 C   0  0  0  0  0  0  0  0  0  0  0  0
   46.2130   34.3240   43.5190 C   0  0  0  0  0  0  0  0  0  0  0  0
   46.0610   33.7480   44.7410 N   0  0  0  0  0  0  0  0  0  0  0  0
   45.2360   34.3070   45.6840 C   0  0  0  0  0  0  0  0  0  0  0  0
   44.5660   35.4380   45.4100 N   0  0  0  0  0  0  0  0  0  0  0  0
   49.1967   34.5590   39.3190 H   0  0  0  0  0  0  0  0  0  0  0  0
   48.6687   33.7705   37.0326 H   0  0  0  0  0  0  0  0  0  0  0  0
   45.0261   31.1378   37.2688 H   0  0  0  0  0  0  0  0  0  0  0  0
   42.7229   30.3440   36.8267 H   0  0  0  0  0  0  0  0  0  0  0  0
   40.7757   31.5855   37.6796 H   0  0  0  0  0  0  0  0  0  0  0  0
   41.1082   33.6903   39.0165 H   0  0  0  0  0  0  0  0  0  0  0  0
   43.4152   34.4459   39.4310 H   0  0  0  0  0  0  0  0  0  0  0  0
   48.7439   34.7370   41.6117 H   0  0  0  0  0  0  0  0  0  0  0  0
   47.2196   35.6725   41.7101 H   0  0  0  0  0  0  0  0  0  0  0  0
   46.5551   32.9084   41.9960 H   0  0  0  0  0  0  0  0  0  0  0  0
   47.9704   33.2732   43.0791 H   0  0  0  0  0  0  0  0  0  0  0  0
   44.1280   36.9707   44.0135 H   0  0  0  0  0  0  0  0  0  0  0  0
   45.6146   35.9743   42.2821 H   0  0  0  0  0  0  0  0  0  0  0  0
   45.1231   33.8273   46.6674 H   0  0  0  0  0  0  0  0  0  0  0  0
  1 13  1  0
  2  1  2  0
  3  2  1  0
  4  3  2  0
  4  5  1  0
  5  6  2  0
  6  1  1  0
  7  5  1  0
  7 12  1  0
  8  7  2  0
  9  8  1  0
  9 10  2  0
 10 11  1  0
 11 12  2  0
 13 14  1  0
 14 17  1  0
 15 20  2  0
 16 17  2  0
 16 15  1  0
 17 18  1  0
 18 19  2  0
 20 19  1  0
  2 21  1  0
  3 22  1  0
  8 23  1  0
  9 24  1  0
 10 25  1  0
 11 26  1  0
 12 27  1  0
 13 28  1  0
 13 29  1  0
 14 30  1  0
 14 31  1  0
 15 32  1  0
 16 33  1  0
 19 34  1  0
M  ISO  8  21  14  22  14  23  14  24  14  25  14  26  14  27  14  28   8
M  ISO  6  29   8  30   8  31   8  32  14  33  14  34  14
M  END
>  <minimizedAffinity>  (1) 
-4.83730745

>  <minimizedRMSD>  (1) 
0.928516507

$$$$
