
     RDKit          3D

 19 20  0  0  0  0  0  0  0  0999 V2000
   44.5180   36.1450   44.4940 C   0  0  0  0  0  0  0  0  0  0  0  0
   45.0290   36.0310   43.1910 C   0  0  0  0  0  0  0  0  0  0  0  0
   45.8550   34.9350   42.8830 C   0  0  0  0  0  0  0  0  0  0  0  0
   46.1140   34.0290   43.8940 N   0  0  0  0  0  0  0  0  0  0  0  0
   45.5970   34.1820   45.1360 C   0  0  0  0  0  0  0  0  0  0  0  0
   44.8200   35.2190   45.4160 N   0  0  0  0  0  0  0  0  0  0  0  0
   45.8820   33.2350   46.1470 N   0  0  0  0  0  0  0  0  0  0  0  0
   47.0330   32.5110   46.2170 C   0  0  0  0  0  0  0  0  0  0  0  0
   46.9870   31.7040   47.2930 N   0  0  0  0  0  0  0  0  0  0  0  0
   45.8110   31.9250   47.8940 C   0  0  0  0  0  0  0  0  0  0  0  0
   45.1370   32.8630   47.1880 N   0  0  0  0  0  0  0  0  0  0  0  0
   45.3510   31.2530   49.1070 C   0  0  0  0  0  0  0  0  0  0  0  0
   45.0000   30.0590   49.0240 O   0  0  0  0  0  0  0  0  0  0  0  0
   45.3040   31.9250   50.3200 O   0  0  0  0  0  0  0  0  0  0  0  0
   43.8701   36.9937   44.7585 H   0  0  0  0  0  0  0  0  0  0  0  0
   44.7880   36.7840   42.4262 H   0  0  0  0  0  0  0  0  0  0  0  0
   46.2785   34.8040   41.8763 H   0  0  0  0  0  0  0  0  0  0  0  0
   47.8694   32.5756   45.5055 H   0  0  0  0  0  0  0  0  0  0  0  0
   44.9900   31.4565   51.1336 H   0  0  0  0  0  0  0  0  0  0  0  0
  1  6  2  0
  2  1  1  0
  3  2  2  0
  3  4  1  0
  4  5  2  0
  5  6  1  0
  5  7  1  0
  7  8  1  0
  7 11  1  0
  8  9  2  0
  9 10  1  0
 10 12  1  0
 11 10  2  0
 12 14  1  0
 13 12  2  0
  1 15  1  0
  2 16  1  0
  3 17  1  0
  8 18  1  0
 14 19  1  0
M  ISO  5  15  14  16  14  17  14  18  14  19   3
M  END
>  <minimizedAffinity>  (1) 
-5.09454775

>  <minimizedRMSD>  (1) 
0.738963604

$$$$
