
     RDKit          3D

 23 25  0  0  0  0  0  0  0  0999 V2000
   44.5720   35.8020   44.9210 C   0  0  0  0  0  0  0  0  0  0  0  0
   44.9370   36.3520   43.6810 C   0  0  0  0  0  0  0  0  0  0  0  0
   45.7620   35.6130   42.8250 C   0  0  0  0  0  0  0  0  0  0  0  0
   46.1820   34.3690   43.2420 N   0  0  0  0  0  0  0  0  0  0  0  0
   45.8100   33.8810   44.4370 C   0  0  0  0  0  0  0  0  0  0  0  0
   45.0280   34.5840   45.2440 N   0  0  0  0  0  0  0  0  0  0  0  0
   46.2410   32.5940   44.8670 N   0  0  0  0  0  0  0  0  0  0  0  0
   47.4130   32.0180   44.5000 C   0  0  0  0  0  0  0  0  0  0  0  0
   47.5220   30.8120   45.0680 N   0  0  0  0  0  0  0  0  0  0  0  0
   46.4170   30.6200   45.7980 C   0  0  0  0  0  0  0  0  0  0  0  0
   45.6360   31.7200   45.6690 N   0  0  0  0  0  0  0  0  0  0  0  0
   46.0940   29.4480   46.5950 C   0  0  0  0  0  0  0  0  0  0  0  0
   45.0000   29.2910   47.4210 C   0  0  0  0  0  0  0  0  0  0  0  0
   45.1080   28.0580   47.9540 N   0  0  0  0  0  0  0  0  0  0  0  0
   46.2210   27.4450   47.4950 C   0  0  0  0  0  0  0  0  0  0  0  0
   46.8240   28.3180   46.6520 N   0  0  0  0  0  0  0  0  0  0  0  0
   43.9246   36.3602   45.6133 H   0  0  0  0  0  0  0  0  0  0  0  0
   44.5794   37.3498   43.3867 H   0  0  0  0  0  0  0  0  0  0  0  0
   46.0663   36.0142   41.8470 H   0  0  0  0  0  0  0  0  0  0  0  0
   48.1613   32.4742   43.8352 H   0  0  0  0  0  0  0  0  0  0  0  0
   44.2012   30.0241   47.6069 H   0  0  0  0  0  0  0  0  0  0  0  0
   46.5696   26.4346   47.7548 H   0  0  0  0  0  0  0  0  0  0  0  0
   47.6995   28.1450   46.1378 H   0  0  0  0  0  0  0  0  0  0  0  0
  1  6  2  0
  2  1  1  0
  3  4  1  0
  3  2  2  0
  4  5  2  0
  5  7  1  0
  5  6  1  0
  7 11  1  0
  8  7  1  0
  8  9  2  0
  9 10  1  0
 10 12  1  0
 11 10  2  0
 12 16  1  0
 12 13  2  0
 13 14  1  0
 15 14  2  0
 16 15  1  0
  1 17  1  0
  2 18  1  0
  3 19  1  0
  8 20  1  0
 13 21  1  0
 15 22  1  0
 16 23  1  0
M  ISO  7  17  14  18  14  19  14  20  14  21  14  22  14  23   9
M  END
>  <minimizedAffinity>  (1) 
-4.00638866

>  <minimizedRMSD>  (1) 
3.08761978

$$$$
