
     RDKit          3D

 30 32  0  0  0  0  0  0  0  0999 V2000
   47.8110   34.8300   41.5740 C   0  0  0  0  0  0  0  0  0  0  0  0
   47.5140   34.3500   40.2050 C   0  0  0  0  0  0  0  0  0  0  0  0
   48.3750   34.5370   39.1350 C   0  0  0  0  0  0  0  0  0  0  0  0
   48.1650   34.1070   37.8560 C   0  0  0  0  0  0  0  0  0  0  0  0
   47.0000   33.4420   37.6450 N   0  0  0  0  0  0  0  0  0  0  0  0
   46.1400   33.2450   38.6740 C   0  0  0  0  0  0  0  0  0  0  0  0
   46.3500   33.6730   39.9430 N   0  0  0  0  0  0  0  0  0  0  0  0
   44.8890   32.5590   38.5580 N   0  0  0  0  0  0  0  0  0  0  0  0
   44.5010   31.2780   38.5420 C   0  0  0  0  0  0  0  0  0  0  0  0
   43.1680   31.2050   38.4050 N   0  0  0  0  0  0  0  0  0  0  0  0
   42.7140   32.4700   38.3340 C   0  0  0  0  0  0  0  0  0  0  0  0
   43.7760   33.2970   38.4280 N   0  0  0  0  0  0  0  0  0  0  0  0
   47.2990   33.8150   42.5620 C   0  0  0  0  0  0  0  0  0  0  0  0
   44.6910   36.0150   44.1960 C   0  0  0  0  0  0  0  0  0  0  0  0
   45.5910   35.5140   43.2540 C   0  0  0  0  0  0  0  0  0  0  0  0
   46.3370   34.3860   43.5290 C   0  0  0  0  0  0  0  0  0  0  0  0
   46.1620   33.7890   44.7410 N   0  0  0  0  0  0  0  0  0  0  0  0
   45.2730   34.3040   45.6470 C   0  0  0  0  0  0  0  0  0  0  0  0
   44.5620   35.3920   45.3610 N   0  0  0  0  0  0  0  0  0  0  0  0
   47.3132   35.7961   41.7439 H   0  0  0  0  0  0  0  0  0  0  0  0
   48.8960   34.9609   41.6986 H   0  0  0  0  0  0  0  0  0  0  0  0
   49.3107   35.0801   39.3338 H   0  0  0  0  0  0  0  0  0  0  0  0
   48.8915   34.2874   37.0500 H   0  0  0  0  0  0  0  0  0  0  0  0
   45.1751   30.4130   38.6284 H   0  0  0  0  0  0  0  0  0  0  0  0
   41.6635   32.7755   38.2196 H   0  0  0  0  0  0  0  0  0  0  0  0
   46.8007   33.0061   42.0075 H   0  0  0  0  0  0  0  0  0  0  0  0
   48.1632   33.4475   43.1348 H   0  0  0  0  0  0  0  0  0  0  0  0
   44.0966   36.9140   43.9759 H   0  0  0  0  0  0  0  0  0  0  0  0
   45.7065   36.0221   42.2852 H   0  0  0  0  0  0  0  0  0  0  0  0
   45.1453   33.8123   46.6227 H   0  0  0  0  0  0  0  0  0  0  0  0
  1 13  1  0
  2  1  1  0
  3  2  2  0
  4  3  1  0
  5  4  2  0
  5  6  1  0
  6  7  2  0
  7  2  1  0
  8  6  1  0
  9  8  1  0
 10  9  2  0
 11 10  1  0
 11 12  2  0
 12  8  1  0
 13 16  1  0
 14 19  2  0
 15 16  2  0
 15 14  1  0
 16 17  1  0
 17 18  2  0
 19 18  1  0
  1 20  1  0
  1 21  1  0
  3 22  1  0
  4 23  1  0
  9 24  1  0
 11 25  1  0
 13 26  1  0
 13 27  1  0
 14 28  1  0
 15 29  1  0
 18 30  1  0
M  ISO  8  20   8  21   8  22  14  23  14  24  14  25  14  26   8  27   8
M  ISO  3  28  14  29  14  30  14
M  END
>  <minimizedAffinity>  (1) 
-4.82588053

>  <minimizedRMSD>  (1) 
0.267033994

$$$$
