
     RDKit          3D

 34 37  0  0  0  0  0  0  0  0999 V2000
   44.6010   35.4490   45.5060 C   0  0  0  0  0  0  0  0  0  0  0  0
   44.5500   36.0420   44.2430 C   0  0  0  0  0  0  0  0  0  0  0  0
   45.1430   35.3750   43.1940 C   0  0  0  0  0  0  0  0  0  0  0  0
   45.7440   34.1730   43.4630 N   0  0  0  0  0  0  0  0  0  0  0  0
   45.7750   33.6290   44.6950 C   0  0  0  0  0  0  0  0  0  0  0  0
   45.2090   34.2550   45.7220 N   0  0  0  0  0  0  0  0  0  0  0  0
   46.4030   32.3870   44.9350 N   0  0  0  0  0  0  0  0  0  0  0  0
   47.4790   31.9280   44.2180 C   0  0  0  0  0  0  0  0  0  0  0  0
   47.8460   30.7230   44.6840 N   0  0  0  0  0  0  0  0  0  0  0  0
   47.0010   30.4280   45.6910 C   0  0  0  0  0  0  0  0  0  0  0  0
   46.1400   31.4430   45.8270 N   0  0  0  0  0  0  0  0  0  0  0  0
   47.0450   29.2050   46.4780 C   0  0  0  0  0  0  0  0  0  0  0  0
   48.0990   28.6970   47.1540 N   0  0  0  0  0  0  0  0  0  0  0  0
   47.7200   27.5920   47.7240 O   0  0  0  0  0  0  0  0  0  0  0  0
   46.4670   27.3310   47.4670 C   0  0  0  0  0  0  0  0  0  0  0  0
   46.0220   28.3420   46.6780 N   0  0  0  0  0  0  0  0  0  0  0  0
   45.6890   26.2240   47.9020 N   0  0  0  0  0  0  0  0  0  0  0  0
   44.3460   26.4380   48.4060 C   0  0  0  0  0  0  0  0  0  0  0  0
   44.3770   25.9650   49.8510 C   0  0  0  0  0  0  0  0  0  0  0  0
   45.4240   25.1100   50.0910 O   0  0  0  0  0  0  0  0  0  0  0  0
   45.6580   24.1790   49.0850 C   0  0  0  0  0  0  0  0  0  0  0  0
   46.2290   24.8800   47.8450 C   0  0  0  0  0  0  0  0  0  0  0  0
   44.1322   35.9675   46.3553 H   0  0  0  0  0  0  0  0  0  0  0  0
   44.0521   37.0110   44.0906 H   0  0  0  0  0  0  0  0  0  0  0  0
   45.1345   35.7923   42.1763 H   0  0  0  0  0  0  0  0  0  0  0  0
   47.9657   32.4639   43.3898 H   0  0  0  0  0  0  0  0  0  0  0  0
   44.0814   27.5045   48.3557 H   0  0  0  0  0  0  0  0  0  0  0  0
   43.5952   25.8945   47.8136 H   0  0  0  0  0  0  0  0  0  0  0  0
   44.4760   26.8408   50.5091 H   0  0  0  0  0  0  0  0  0  0  0  0
   43.4420   25.4207   50.0500 H   0  0  0  0  0  0  0  0  0  0  0  0
   46.3780   23.4285   49.4433 H   0  0  0  0  0  0  0  0  0  0  0  0
   44.7101   23.6886   48.8187 H   0  0  0  0  0  0  0  0  0  0  0  0
   45.9037   24.3697   46.9264 H   0  0  0  0  0  0  0  0  0  0  0  0
   47.3289   24.8731   47.8320 H   0  0  0  0  0  0  0  0  0  0  0  0
  1  6  2  0
  2  1  1  0
  3  4  1  0
  3  2  2  0
  4  5  2  0
  5  7  1  0
  5  6  1  0
  7 11  1  0
  8  9  2  0
  8  7  1  0
  9 10  1  0
 10 11  2  0
 10 12  1  0
 12 16  1  0
 12 13  2  0
 13 14  1  0
 15 14  1  0
 15 17  1  0
 16 15  2  0
 17 18  1  0
 18 19  1  0
 19 20  1  0
 21 20  1  0
 22 17  1  0
 22 21  1  0
  1 23  1  0
  2 24  1  0
  3 25  1  0
  8 26  1  0
 18 27  1  0
 18 28  1  0
 19 29  1  0
 19 30  1  0
 21 31  1  0
 21 32  1  0
 22 33  1  0
 22 34  1  0
M  ISO  8  23  14  24  14  25  14  26  14  27  13  28  13  29  13  30  13
M  ISO  4  31  13  32  13  33  13  34  13
M  END
>  <minimizedAffinity>  (1) 
-5.16759872

>  <minimizedRMSD>  (1) 
1.46423888

$$$$
