
     RDKit          3D

 34 37  0  0  0  0  0  0  0  0999 V2000
   44.6630   35.1000   45.8080 C   0  0  0  0  0  0  0  0  0  0  0  0
   44.4690   35.9080   44.6630 C   0  0  0  0  0  0  0  0  0  0  0  0
   45.0540   35.5180   43.4770 C   0  0  0  0  0  0  0  0  0  0  0  0
   45.7850   34.3610   43.5070 N   0  0  0  0  0  0  0  0  0  0  0  0
   45.9610   33.6100   44.5920 C   0  0  0  0  0  0  0  0  0  0  0  0
   45.4050   33.9730   45.7380 N   0  0  0  0  0  0  0  0  0  0  0  0
   46.7320   32.4260   44.5470 N   0  0  0  0  0  0  0  0  0  0  0  0
   47.7840   32.2200   43.7160 C   0  0  0  0  0  0  0  0  0  0  0  0
   48.2910   31.0000   43.9280 N   0  0  0  0  0  0  0  0  0  0  0  0
   47.5610   30.4300   44.8910 C   0  0  0  0  0  0  0  0  0  0  0  0
   46.6160   31.3100   45.2580 N   0  0  0  0  0  0  0  0  0  0  0  0
   47.7610   29.0900   45.4430 C   0  0  0  0  0  0  0  0  0  0  0  0
   48.6300   28.1660   45.0220 N   0  0  0  0  0  0  0  0  0  0  0  0
   48.5120   27.1130   45.7560 O   0  0  0  0  0  0  0  0  0  0  0  0
   47.5880   27.2740   46.6730 C   0  0  0  0  0  0  0  0  0  0  0  0
   47.1150   28.5320   46.4670 N   0  0  0  0  0  0  0  0  0  0  0  0
   46.4910   24.4740   49.6590 C   0  0  0  0  0  0  0  0  0  0  0  0
   45.5310   25.2190   49.0300 C   0  0  0  0  0  0  0  0  0  0  0  0
   45.8380   26.1440   48.0520 C   0  0  0  0  0  0  0  0  0  0  0  0
   47.1550   26.3300   47.6870 C   0  0  0  0  0  0  0  0  0  0  0  0
   48.1150   25.5750   48.3270 C   0  0  0  0  0  0  0  0  0  0  0  0
   47.8190   24.6620   49.2920 C   0  0  0  0  0  0  0  0  0  0  0  0
   46.2100   23.2820   50.9050 S   0  0  0  0  0  0  0  0  0  0  0  0
   45.0440   23.6720   51.7490 O   0  0  0  0  0  0  0  0  0  0  0  0
   47.4640   23.1790   51.7600 O   0  0  0  0  0  0  0  0  0  0  0  0
   44.2053   35.3921   46.7646 H   0  0  0  0  0  0  0  0  0  0  0  0
   43.8655   36.8260   44.7177 H   0  0  0  0  0  0  0  0  0  0  0  0
   44.9393   36.1061   42.5545 H   0  0  0  0  0  0  0  0  0  0  0  0
   48.1625   32.9450   42.9803 H   0  0  0  0  0  0  0  0  0  0  0  0
   44.4778   25.0760   49.3134 H   0  0  0  0  0  0  0  0  0  0  0  0
   45.0401   26.7269   47.5687 H   0  0  0  0  0  0  0  0  0  0  0  0
   49.1686   25.7171   48.0446 H   0  0  0  0  0  0  0  0  0  0  0  0
   48.6188   24.0812   49.7747 H   0  0  0  0  0  0  0  0  0  0  0  0
   45.9288   22.0701   50.3312 H   0  0  0  0  0  0  0  0  0  0  0  0
  2  1  2  0
  3  4  2  0
  3  2  1  0
  4  5  1  0
  5  6  2  0
  6  1  1  0
  7  5  1  0
  7 11  1  0
  8  9  2  0
  8  7  1  0
  9 10  1  0
 10 11  2  0
 10 12  1  0
 12 16  1  0
 13 12  2  0
 13 14  1  0
 14 15  1  0
 15 20  1  0
 16 15  2  0
 17 23  1  0
 18 17  2  0
 19 18  1  0
 20 19  2  0
 20 21  1  0
 21 22  2  0
 22 17  1  0
 23 24  2  0
 23 25  2  0
  1 26  1  0
  2 27  1  0
  3 28  1  0
  8 29  1  0
 18 30  1  0
 19 31  1  0
 21 32  1  0
 22 33  1  0
 23 34  1  0
M  ISO  8  26  14  27  14  28  14  29  14  30  14  31  14  32  14  33  14
M  ISO  1  34  11
M  END
>  <minimizedAffinity>  (1) 
-4.93832493

>  <minimizedRMSD>  (1) 
3.16780519

$$$$
