
     RDKit          3D

 30 33  0  0  0  0  0  0  0  0999 V2000
   44.6020   35.4340   45.3700 C   0  0  0  0  0  0  0  0  0  0  0  0
   44.7030   36.2680   44.2550 C   0  0  0  0  0  0  0  0  0  0  0  0
   45.4450   35.8300   43.1810 C   0  0  0  0  0  0  0  0  0  0  0  0
   46.0480   34.5950   43.2610 N   0  0  0  0  0  0  0  0  0  0  0  0
   45.9240   33.8250   44.3540 C   0  0  0  0  0  0  0  0  0  0  0  0
   45.2150   34.2280   45.3960 N   0  0  0  0  0  0  0  0  0  0  0  0
   46.5570   32.5500   44.4130 N   0  0  0  0  0  0  0  0  0  0  0  0
   47.6740   32.2120   43.7150 C   0  0  0  0  0  0  0  0  0  0  0  0
   48.0030   30.9460   44.0000 N   0  0  0  0  0  0  0  0  0  0  0  0
   47.1040   30.4800   44.8690 C   0  0  0  0  0  0  0  0  0  0  0  0
   46.2500   31.4700   45.0960 N   0  0  0  0  0  0  0  0  0  0  0  0
   47.0990   29.1420   45.4340 C   0  0  0  0  0  0  0  0  0  0  0  0
   47.7870   28.0680   45.0450 N   0  0  0  0  0  0  0  0  0  0  0  0
   47.4980   27.0630   45.8160 O   0  0  0  0  0  0  0  0  0  0  0  0
   46.6300   27.4090   46.7270 C   0  0  0  0  0  0  0  0  0  0  0  0
   46.3720   28.7270   46.4890 N   0  0  0  0  0  0  0  0  0  0  0  0
   45.9710   26.7030   47.8210 C   0  0  0  0  0  0  0  0  0  0  0  0
   44.7130   26.9870   48.2910 C   0  0  0  0  0  0  0  0  0  0  0  0
   44.1810   26.2560   49.3330 C   0  0  0  0  0  0  0  0  0  0  0  0
   44.9430   25.2310   49.8930 C   0  0  0  0  0  0  0  0  0  0  0  0
   46.1950   24.9860   49.3870 C   0  0  0  0  0  0  0  0  0  0  0  0
   46.7070   25.7040   48.3710 N   0  0  0  0  0  0  0  0  0  0  0  0
   44.0152   35.7622   46.2406 H   0  0  0  0  0  0  0  0  0  0  0  0
   44.2036   37.2479   44.2350 H   0  0  0  0  0  0  0  0  0  0  0  0
   45.5534   36.4522   42.2804 H   0  0  0  0  0  0  0  0  0  0  0  0
   48.2201   32.8733   43.0261 H   0  0  0  0  0  0  0  0  0  0  0  0
   44.1276   27.7994   47.8357 H   0  0  0  0  0  0  0  0  0  0  0  0
   43.1737   26.4777   49.7153 H   0  0  0  0  0  0  0  0  0  0  0  0
   44.5478   24.6298   50.7251 H   0  0  0  0  0  0  0  0  0  0  0  0
   46.7984   24.1777   49.8257 H   0  0  0  0  0  0  0  0  0  0  0  0
  1  6  2  0
  2  1  1  0
  3  4  1  0
  3  2  2  0
  4  5  2  0
  5  7  1  0
  5  6  1  0
  7 11  1  0
  8  9  2  0
  8  7  1  0
  9 10  1  0
 10 11  2  0
 10 12  1  0
 12 16  1  0
 13 12  2  0
 13 14  1  0
 14 15  1  0
 15 17  1  0
 16 15  2  0
 17 18  2  0
 17 22  1  0
 18 19  1  0
 19 20  2  0
 21 20  1  0
 22 21  2  0
  1 23  1  0
  2 24  1  0
  3 25  1  0
  8 26  1  0
 18 27  1  0
 19 28  1  0
 20 29  1  0
 21 30  1  0
M  ISO  8  23  14  24  14  25  14  26  14  27  14  28  14  29  14  30  14
M  END
>  <minimizedAffinity>  (1) 
-4.81201839

>  <minimizedRMSD>  (1) 
1.87307942

$$$$
