
     RDKit          3D

 28 31  0  0  0  0  0  0  0  0999 V2000
   44.5780   35.8990   44.8410 C   0  0  0  0  0  0  0  0  0  0  0  0
   44.8550   36.4940   43.5860 C   0  0  0  0  0  0  0  0  0  0  0  0
   45.6540   35.8060   42.7010 C   0  0  0  0  0  0  0  0  0  0  0  0
   46.1340   34.5830   43.0940 N   0  0  0  0  0  0  0  0  0  0  0  0
   45.8610   34.0410   44.2810 C   0  0  0  0  0  0  0  0  0  0  0  0
   45.0940   34.6930   45.1380 N   0  0  0  0  0  0  0  0  0  0  0  0
   46.3700   32.7800   44.6540 N   0  0  0  0  0  0  0  0  0  0  0  0
   47.5390   32.2560   44.1890 C   0  0  0  0  0  0  0  0  0  0  0  0
   47.7330   31.0470   44.7370 N   0  0  0  0  0  0  0  0  0  0  0  0
   46.6840   30.8080   45.5500 C   0  0  0  0  0  0  0  0  0  0  0  0
   45.8830   31.8600   45.4820 N   0  0  0  0  0  0  0  0  0  0  0  0
   46.5150   29.5960   46.3320 C   0  0  0  0  0  0  0  0  0  0  0  0
   47.4740   28.8100   46.8760 N   0  0  0  0  0  0  0  0  0  0  0  0
   46.9060   27.8320   47.4920 O   0  0  0  0  0  0  0  0  0  0  0  0
   45.5860   27.9100   47.3950 C   0  0  0  0  0  0  0  0  0  0  0  0
   45.3310   29.0290   46.6600 N   0  0  0  0  0  0  0  0  0  0  0  0
   44.6370   27.0010   47.9520 N   0  0  0  0  0  0  0  0  0  0  0  0
   43.7750   26.4860   47.0280 C   0  0  0  0  0  0  0  0  0  0  0  0
   42.9140   25.6240   47.7010 C   0  0  0  0  0  0  0  0  0  0  0  0
   43.2620   25.6380   48.9800 N   0  0  0  0  0  0  0  0  0  0  0  0
   44.3000   26.4660   49.1450 C   0  0  0  0  0  0  0  0  0  0  0  0
   43.9425   36.4218   45.5709 H   0  0  0  0  0  0  0  0  0  0  0  0
   44.4426   37.4799   43.3253 H   0  0  0  0  0  0  0  0  0  0  0  0
   45.8989   36.2228   41.7129 H   0  0  0  0  0  0  0  0  0  0  0  0
   48.2173   32.7475   43.4760 H   0  0  0  0  0  0  0  0  0  0  0  0
   43.7628   26.7104   45.9512 H   0  0  0  0  0  0  0  0  0  0  0  0
   42.0963   25.0394   47.2543 H   0  0  0  0  0  0  0  0  0  0  0  0
   44.8000   26.6775   50.1017 H   0  0  0  0  0  0  0  0  0  0  0  0
  1  6  2  0
  2  1  1  0
  3  4  1  0
  3  2  2  0
  4  5  2  0
  5  7  1  0
  5  6  1  0
  7 11  1  0
  8  7  1  0
  8  9  2  0
  9 10  1  0
 10 12  1  0
 11 10  2  0
 12 16  1  0
 12 13  2  0
 13 14  1  0
 15 14  1  0
 15 17  1  0
 16 15  2  0
 17 21  1  0
 18 19  2  0
 18 17  1  0
 19 20  1  0
 20 21  2  0
  1 22  1  0
  2 23  1  0
  3 24  1  0
  8 25  1  0
 18 26  1  0
 19 27  1  0
 21 28  1  0
M  ISO  7  22  14  23  14  24  14  25  14  26  14  27  14  28  14
M  END
>  <minimizedAffinity>  (1) 
-4.81998301

>  <minimizedRMSD>  (1) 
0.754090846

$$$$
