
     RDKit          3D

 31 34  0  0  0  0  0  0  0  0999 V2000
   44.5980   35.4580   45.3260 C   0  0  0  0  0  0  0  0  0  0  0  0
   44.7390   36.2680   44.1920 C   0  0  0  0  0  0  0  0  0  0  0  0
   45.4810   35.7700   43.1390 C   0  0  0  0  0  0  0  0  0  0  0  0
   46.0440   34.5230   43.2360 N   0  0  0  0  0  0  0  0  0  0  0  0
   45.8810   33.7790   44.3530 C   0  0  0  0  0  0  0  0  0  0  0  0
   45.1710   34.2390   45.3790 N   0  0  0  0  0  0  0  0  0  0  0  0
   46.4650   32.4880   44.4420 N   0  0  0  0  0  0  0  0  0  0  0  0
   47.6020   32.1170   43.8170 C   0  0  0  0  0  0  0  0  0  0  0  0
   47.8800   30.8310   44.1060 N   0  0  0  0  0  0  0  0  0  0  0  0
   46.9050   30.3990   44.9200 C   0  0  0  0  0  0  0  0  0  0  0  0
   46.0530   31.4170   45.1140 N   0  0  0  0  0  0  0  0  0  0  0  0
   46.8150   29.0590   45.4720 C   0  0  0  0  0  0  0  0  0  0  0  0
   47.2710   27.9080   44.9270 N   0  0  0  0  0  0  0  0  0  0  0  0
   46.9840   26.9300   45.7420 O   0  0  0  0  0  0  0  0  0  0  0  0
   46.3600   27.3770   46.8000 C   0  0  0  0  0  0  0  0  0  0  0  0
   46.2410   28.7230   46.6510 N   0  0  0  0  0  0  0  0  0  0  0  0
   45.8790   26.6180   47.9220 C   0  0  0  0  0  0  0  0  0  0  0  0
   44.6680   26.9250   48.5090 C   0  0  0  0  0  0  0  0  0  0  0  0
   44.1390   26.2420   49.5890 C   0  0  0  0  0  0  0  0  0  0  0  0
   44.8830   25.1820   50.1100 C   0  0  0  0  0  0  0  0  0  0  0  0
   46.1010   24.8740   49.5170 C   0  0  0  0  0  0  0  0  0  0  0  0
   46.6050   25.5700   48.4430 C   0  0  0  0  0  0  0  0  0  0  0  0
   44.0126   35.8210   46.1837 H   0  0  0  0  0  0  0  0  0  0  0  0
   44.2757   37.2644   44.1420 H   0  0  0  0  0  0  0  0  0  0  0  0
   45.6197   36.3701   42.2276 H   0  0  0  0  0  0  0  0  0  0  0  0
   48.2097   32.7663   43.1696 H   0  0  0  0  0  0  0  0  0  0  0  0
   44.0892   27.7628   48.0930 H   0  0  0  0  0  0  0  0  0  0  0  0
   43.1676   26.5237   50.0216 H   0  0  0  0  0  0  0  0  0  0  0  0
   44.5135   24.6041   50.9700 H   0  0  0  0  0  0  0  0  0  0  0  0
   46.6877   24.0373   49.9240 H   0  0  0  0  0  0  0  0  0  0  0  0
   47.5756   25.2931   48.0057 H   0  0  0  0  0  0  0  0  0  0  0  0
  1  6  2  0
  2  1  1  0
  3  4  1  0
  3  2  2  0
  4  5  2  0
  5  7  1  0
  5  6  1  0
  7 11  1  0
  8  9  2  0
  8  7  1  0
  9 10  1  0
 10 11  2  0
 10 12  1  0
 12 16  1  0
 13 12  2  0
 13 14  1  0
 14 15  1  0
 15 17  1  0
 16 15  2  0
 17 22  1  0
 17 18  2  0
 18 19  1  0
 19 20  2  0
 21 20  1  0
 22 21  2  0
  1 23  1  0
  2 24  1  0
  3 25  1  0
  8 26  1  0
 18 27  1  0
 19 28  1  0
 20 29  1  0
 21 30  1  0
 22 31  1  0
M  ISO  8  23  14  24  14  25  14  26  14  27  14  28  14  29  14  30  14
M  ISO  1  31  14
M  END
>  <minimizedAffinity>  (1) 
-4.84148693

>  <minimizedRMSD>  (1) 
1.76101768

$$$$
