
     RDKit          3D

 27 30  0  0  0  0  0  0  0  0999 V2000
   44.5920   35.8310   44.9320 C   0  0  0  0  0  0  0  0  0  0  0  0
   44.8200   36.4120   43.6690 C   0  0  0  0  0  0  0  0  0  0  0  0
   45.5970   35.7120   42.7390 C   0  0  0  0  0  0  0  0  0  0  0  0
   46.0780   34.4930   43.1480 N   0  0  0  0  0  0  0  0  0  0  0  0
   45.8450   33.9700   44.3490 C   0  0  0  0  0  0  0  0  0  0  0  0
   45.1120   34.6230   45.2340 N   0  0  0  0  0  0  0  0  0  0  0  0
   46.3680   32.7090   44.7120 N   0  0  0  0  0  0  0  0  0  0  0  0
   47.5370   32.1960   44.2180 C   0  0  0  0  0  0  0  0  0  0  0  0
   47.7590   30.9840   44.7570 N   0  0  0  0  0  0  0  0  0  0  0  0
   46.7330   30.7300   45.5890 C   0  0  0  0  0  0  0  0  0  0  0  0
   45.9070   31.7840   45.5450 N   0  0  0  0  0  0  0  0  0  0  0  0
   46.5750   29.5210   46.3800 C   0  0  0  0  0  0  0  0  0  0  0  0
   47.5310   28.8110   47.0080 N   0  0  0  0  0  0  0  0  0  0  0  0
   46.9870   27.8010   47.6030 O   0  0  0  0  0  0  0  0  0  0  0  0
   45.6830   27.7920   47.4050 C   0  0  0  0  0  0  0  0  0  0  0  0
   45.4100   28.8780   46.6310 N   0  0  0  0  0  0  0  0  0  0  0  0
   44.6300   26.9300   47.8200 N   0  0  0  0  0  0  0  0  0  0  0  0
   44.3050   26.3420   48.9960 C   0  0  0  0  0  0  0  0  0  0  0  0
   43.1810   25.6160   48.8090 N   0  0  0  0  0  0  0  0  0  0  0  0
   42.7980   25.7460   47.5090 C   0  0  0  0  0  0  0  0  0  0  0  0
   43.7030   26.5540   46.9350 N   0  0  0  0  0  0  0  0  0  0  0  0
   43.9855   36.3661   45.6776 H   0  0  0  0  0  0  0  0  0  0  0  0
   44.3960   37.3957   43.4189 H   0  0  0  0  0  0  0  0  0  0  0  0
   45.8100   36.1153   41.7380 H   0  0  0  0  0  0  0  0  0  0  0  0
   48.1937   32.6978   43.4920 H   0  0  0  0  0  0  0  0  0  0  0  0
   44.8604   26.4388   49.9405 H   0  0  0  0  0  0  0  0  0  0  0  0
   41.9244   25.2829   47.0270 H   0  0  0  0  0  0  0  0  0  0  0  0
  1  6  2  0
  2  1  1  0
  3  4  1  0
  3  2  2  0
  4  5  2  0
  5  7  1  0
  5  6  1  0
  7 11  1  0
  8  7  1  0
  8  9  2  0
  9 10  1  0
 10 12  1  0
 11 10  2  0
 12 16  1  0
 12 13  2  0
 13 14  1  0
 15 14  1  0
 15 17  1  0
 16 15  2  0
 17 18  1  0
 19 18  2  0
 20 19  1  0
 21 20  2  0
 21 17  1  0
  1 22  1  0
  2 23  1  0
  3 24  1  0
  8 25  1  0
 18 26  1  0
 20 27  1  0
M  ISO  6  22  14  23  14  24  14  25  14  26  14  27  14
M  END
>  <minimizedAffinity>  (1) 
-4.85849714

>  <minimizedRMSD>  (1) 
0.906977057

$$$$
