
     RDKit          3D

 31 34  0  0  0  0  0  0  0  0999 V2000
   44.6080   35.4300   45.3610 C   0  0  0  0  0  0  0  0  0  0  0  0
   44.7270   36.2420   44.2310 C   0  0  0  0  0  0  0  0  0  0  0  0
   45.4490   35.7510   43.1660 C   0  0  0  0  0  0  0  0  0  0  0  0
   46.0210   34.4990   43.2490 N   0  0  0  0  0  0  0  0  0  0  0  0
   45.8770   33.7510   44.3650 C   0  0  0  0  0  0  0  0  0  0  0  0
   45.1840   34.2030   45.4060 N   0  0  0  0  0  0  0  0  0  0  0  0
   46.4640   32.4640   44.4510 N   0  0  0  0  0  0  0  0  0  0  0  0
   47.6200   32.1080   43.8320 C   0  0  0  0  0  0  0  0  0  0  0  0
   47.9010   30.8230   44.1170 N   0  0  0  0  0  0  0  0  0  0  0  0
   46.9230   30.3780   44.9110 C   0  0  0  0  0  0  0  0  0  0  0  0
   46.0800   31.3830   45.0920 N   0  0  0  0  0  0  0  0  0  0  0  0
   46.8300   29.0270   45.4610 C   0  0  0  0  0  0  0  0  0  0  0  0
   47.3240   27.8910   44.9350 N   0  0  0  0  0  0  0  0  0  0  0  0
   47.0320   26.9110   45.7220 O   0  0  0  0  0  0  0  0  0  0  0  0
   46.3570   27.3260   46.7690 C   0  0  0  0  0  0  0  0  0  0  0  0
   46.2220   28.6690   46.6150 N   0  0  0  0  0  0  0  0  0  0  0  0
   45.8030   26.6260   47.9270 C   0  0  0  0  0  0  0  0  0  0  0  0
   44.5840   26.9620   48.5140 C   0  0  0  0  0  0  0  0  0  0  0  0
   44.1460   26.2390   49.6060 C   0  0  0  0  0  0  0  0  0  0  0  0
   44.9180   25.1940   50.1070 C   0  0  0  0  0  0  0  0  0  0  0  0
   46.1250   24.8700   49.5160 C   0  0  0  0  0  0  0  0  0  0  0  0
   46.5640   25.5900   48.4260 C   0  0  0  0  0  0  0  0  0  0  0  0
   44.0375   35.7917   46.2291 H   0  0  0  0  0  0  0  0  0  0  0  0
   44.2609   37.2377   44.1930 H   0  0  0  0  0  0  0  0  0  0  0  0
   45.5688   36.3543   42.2540 H   0  0  0  0  0  0  0  0  0  0  0  0
   48.2307   32.7669   43.1973 H   0  0  0  0  0  0  0  0  0  0  0  0
   43.9805   27.7900   48.1137 H   0  0  0  0  0  0  0  0  0  0  0  0
   43.1858   26.4890   50.0808 H   0  0  0  0  0  0  0  0  0  0  0  0
   44.5653   24.6228   50.9784 H   0  0  0  0  0  0  0  0  0  0  0  0
   46.7313   24.0426   49.9133 H   0  0  0  0  0  0  0  0  0  0  0  0
   47.5243   25.3375   47.9526 H   0  0  0  0  0  0  0  0  0  0  0  0
  1  6  2  0
  2  1  1  0
  3  4  1  0
  3  2  2  0
  4  5  2  0
  5  7  1  0
  5  6  1  0
  7 11  1  0
  8  9  2  0
  8  7  1  0
  9 10  1  0
 10 11  2  0
 10 12  1  0
 12 16  1  0
 13 12  2  0
 13 14  1  0
 14 15  1  0
 15 17  1  0
 16 15  2  0
 17 22  1  0
 17 18  2  0
 18 19  1  0
 19 20  2  0
 21 20  1  0
 22 21  2  0
  1 23  1  0
  2 24  1  0
  3 25  1  0
  8 26  1  0
 18 27  1  0
 19 28  1  0
 20 29  1  0
 21 30  1  0
 22 31  1  0
M  ISO  8  23  14  24  14  25  14  26  14  27  14  28  14  29  14  30  14
M  ISO  1  31  14
M  END
>  <minimizedAffinity>  (1) 
-4.85201216

>  <minimizedRMSD>  (1) 
1.8344065

$$$$
