
     RDKit          3D

 29 32  0  0  0  0  0  0  0  0999 V2000
   44.5890   35.4620   45.3430 C   0  0  0  0  0  0  0  0  0  0  0  0
   44.7300   36.2940   44.2070 C   0  0  0  0  0  0  0  0  0  0  0  0
   45.4850   35.8410   43.1220 C   0  0  0  0  0  0  0  0  0  0  0  0
   46.0360   34.5990   43.2560 N   0  0  0  0  0  0  0  0  0  0  0  0
   45.8950   33.8290   44.3320 C   0  0  0  0  0  0  0  0  0  0  0  0
   45.1810   34.2510   45.3680 N   0  0  0  0  0  0  0  0  0  0  0  0
   46.4900   32.5480   44.4190 N   0  0  0  0  0  0  0  0  0  0  0  0
   47.6070   32.1820   43.7270 C   0  0  0  0  0  0  0  0  0  0  0  0
   47.9270   30.9120   44.0160 N   0  0  0  0  0  0  0  0  0  0  0  0
   47.0230   30.4740   44.8850 C   0  0  0  0  0  0  0  0  0  0  0  0
   46.1810   31.4720   45.1030 N   0  0  0  0  0  0  0  0  0  0  0  0
   46.9810   29.1370   45.4760 C   0  0  0  0  0  0  0  0  0  0  0  0
   47.5910   28.0260   45.0350 N   0  0  0  0  0  0  0  0  0  0  0  0
   47.2980   27.0470   45.8480 O   0  0  0  0  0  0  0  0  0  0  0  0
   46.5200   27.4510   46.8150 C   0  0  0  0  0  0  0  0  0  0  0  0
   46.3190   28.7710   46.5820 N   0  0  0  0  0  0  0  0  0  0  0  0
   45.9880   26.6460   47.9070 C   0  0  0  0  0  0  0  0  0  0  0  0
   44.7250   26.9580   48.3590 C   0  0  0  0  0  0  0  0  0  0  0  0
   44.2820   26.1450   49.4050 C   0  0  0  0  0  0  0  0  0  0  0  0
   45.0180   25.1490   49.9250 N   0  0  0  0  0  0  0  0  0  0  0  0
   46.2470   24.8870   49.4430 C   0  0  0  0  0  0  0  0  0  0  0  0
   46.7200   25.6480   48.4310 N   0  0  0  0  0  0  0  0  0  0  0  0
   43.9968   35.8031   46.2050 H   0  0  0  0  0  0  0  0  0  0  0  0
   44.2516   37.2841   44.1785 H   0  0  0  0  0  0  0  0  0  0  0  0
   45.6267   36.4478   42.2155 H   0  0  0  0  0  0  0  0  0  0  0  0
   48.1627   32.8318   43.0349 H   0  0  0  0  0  0  0  0  0  0  0  0
   44.1202   27.7731   47.9350 H   0  0  0  0  0  0  0  0  0  0  0  0
   43.2815   26.3295   49.8233 H   0  0  0  0  0  0  0  0  0  0  0  0
   46.8534   24.0712   49.8635 H   0  0  0  0  0  0  0  0  0  0  0  0
  1  6  2  0
  2  1  1  0
  3  4  1  0
  3  2  2  0
  4  5  2  0
  5  7  1  0
  5  6  1  0
  7 11  1  0
  8  9  2  0
  8  7  1  0
  9 10  1  0
 10 11  2  0
 10 12  1  0
 12 16  1  0
 13 12  2  0
 13 14  1  0
 14 15  1  0
 15 17  1  0
 16 15  2  0
 17 18  2  0
 17 22  1  0
 18 19  1  0
 19 20  2  0
 21 20  1  0
 22 21  2  0
  1 23  1  0
  2 24  1  0
  3 25  1  0
  8 26  1  0
 18 27  1  0
 19 28  1  0
 21 29  1  0
M  ISO  7  23  14  24  14  25  14  26  14  27  14  28  14  29  14
M  END
>  <minimizedAffinity>  (1) 
-4.72637606

>  <minimizedRMSD>  (1) 
1.74156559

$$$$
