
     RDKit          3D

 37 40  0  0  0  0  0  0  0  0999 V2000
   44.5900   35.5240   45.2960 C   0  0  0  0  0  0  0  0  0  0  0  0
   44.7510   36.3360   44.1580 C   0  0  0  0  0  0  0  0  0  0  0  0
   45.4900   35.8460   43.1010 C   0  0  0  0  0  0  0  0  0  0  0  0
   46.0200   34.5920   43.2330 N   0  0  0  0  0  0  0  0  0  0  0  0
   45.8500   33.8350   44.3340 C   0  0  0  0  0  0  0  0  0  0  0  0
   45.1410   34.2850   45.3670 N   0  0  0  0  0  0  0  0  0  0  0  0
   46.4130   32.5420   44.4330 N   0  0  0  0  0  0  0  0  0  0  0  0
   47.5700   32.1700   43.8010 C   0  0  0  0  0  0  0  0  0  0  0  0
   47.8320   30.8880   44.0970 N   0  0  0  0  0  0  0  0  0  0  0  0
   46.8550   30.4540   44.9040 C   0  0  0  0  0  0  0  0  0  0  0  0
   46.0240   31.4710   45.0830 N   0  0  0  0  0  0  0  0  0  0  0  0
   46.7660   29.1100   45.4550 C   0  0  0  0  0  0  0  0  0  0  0  0
   46.9870   27.9400   44.8390 N   0  0  0  0  0  0  0  0  0  0  0  0
   46.8040   26.9750   45.6730 O   0  0  0  0  0  0  0  0  0  0  0  0
   46.4580   27.4440   46.8630 C   0  0  0  0  0  0  0  0  0  0  0  0
   46.4340   28.7930   46.7260 N   0  0  0  0  0  0  0  0  0  0  0  0
   46.1600   26.6900   48.0810 C   0  0  0  0  0  0  0  0  0  0  0  0
   44.6760   26.5320   48.3470 C   0  0  0  0  0  0  0  0  0  0  0  0
   44.4460   25.9610   49.7040 C   0  0  0  0  0  0  0  0  0  0  0  0
   45.3150   24.8170   50.0860 C   0  0  0  0  0  0  0  0  0  0  0  0
   46.6600   24.7660   49.4510 C   0  0  0  0  0  0  0  0  0  0  0  0
   46.7000   25.2550   48.0280 C   0  0  0  0  0  0  0  0  0  0  0  0
   44.0045   35.9015   46.1473 H   0  0  0  0  0  0  0  0  0  0  0  0
   44.2984   37.3375   44.1123 H   0  0  0  0  0  0  0  0  0  0  0  0
   45.6467   36.4401   42.1886 H   0  0  0  0  0  0  0  0  0  0  0  0
   48.1837   32.8165   43.1564 H   0  0  0  0  0  0  0  0  0  0  0  0
   46.6423   27.2873   48.8688 H   0  0  0  0  0  0  0  0  0  0  0  0
   44.1898   27.5166   48.2816 H   0  0  0  0  0  0  0  0  0  0  0  0
   44.2514   25.8483   47.5971 H   0  0  0  0  0  0  0  0  0  0  0  0
   44.6051   26.7643   50.4384 H   0  0  0  0  0  0  0  0  0  0  0  0
   43.4210   25.5621   49.6878 H   0  0  0  0  0  0  0  0  0  0  0  0
   45.4608   24.8568   51.1756 H   0  0  0  0  0  0  0  0  0  0  0  0
   44.7893   23.9191   49.7289 H   0  0  0  0  0  0  0  0  0  0  0  0
   47.3445   25.3877   50.0468 H   0  0  0  0  0  0  0  0  0  0  0  0
   46.9524   23.7059   49.4247 H   0  0  0  0  0  0  0  0  0  0  0  0
   46.0645   24.6271   47.3862 H   0  0  0  0  0  0  0  0  0  0  0  0
   47.7154   25.2129   47.6070 H   0  0  0  0  0  0  0  0  0  0  0  0
  1  6  2  0
  2  1  1  0
  3  4  1  0
  3  2  2  0
  4  5  2  0
  5  7  1  0
  5  6  1  0
  7 11  1  0
  8  9  2  0
  8  7  1  0
  9 10  1  0
 10 11  2  0
 10 12  1  0
 12 16  1  0
 13 12  2  0
 13 14  1  0
 14 15  1  0
 15 17  1  0
 16 15  2  0
 17 18  1  0
 18 19  1  0
 19 20  1  0
 21 20  1  0
 22 17  1  0
 22 21  1  0
  1 23  1  0
  2 24  1  0
  3 25  1  0
  8 26  1  0
 17 27  1  0
 18 28  1  0
 18 29  1  0
 19 30  1  0
 19 31  1  0
 20 32  1  0
 20 33  1  0
 21 34  1  0
 21 35  1  0
 22 36  1  0
 22 37  1  0
M  ISO  8  23  14  24  14  25  14  26  14  27  13  28  13  29  13  30  13
M  ISO  7  31  13  32  13  33  13  34  13  35  13  36  13  37  13
M  END
>  <minimizedAffinity>  (1) 
-4.636127

>  <minimizedRMSD>  (1) 
1.87400556

$$$$
