
     RDKit          3D

 28 31  0  0  0  0  0  0  0  0999 V2000
   44.6000   35.8290   44.9250 C   0  0  0  0  0  0  0  0  0  0  0  0
   44.8120   36.4190   43.6730 C   0  0  0  0  0  0  0  0  0  0  0  0
   45.5740   35.7290   42.7490 C   0  0  0  0  0  0  0  0  0  0  0  0
   46.0850   34.5000   43.1050 N   0  0  0  0  0  0  0  0  0  0  0  0
   45.8560   33.9690   44.3220 C   0  0  0  0  0  0  0  0  0  0  0  0
   45.1240   34.6200   45.2250 N   0  0  0  0  0  0  0  0  0  0  0  0
   46.3860   32.7030   44.6830 N   0  0  0  0  0  0  0  0  0  0  0  0
   47.5530   32.2060   44.1810 C   0  0  0  0  0  0  0  0  0  0  0  0
   47.7920   30.9860   44.7090 N   0  0  0  0  0  0  0  0  0  0  0  0
   46.7650   30.7310   45.5410 C   0  0  0  0  0  0  0  0  0  0  0  0
   45.9360   31.7740   45.5070 N   0  0  0  0  0  0  0  0  0  0  0  0
   46.6140   29.5160   46.3280 C   0  0  0  0  0  0  0  0  0  0  0  0
   47.5830   28.6570   46.7160 N   0  0  0  0  0  0  0  0  0  0  0  0
   47.0270   27.7000   47.4040 O   0  0  0  0  0  0  0  0  0  0  0  0
   45.7360   27.8730   47.4950 C   0  0  0  0  0  0  0  0  0  0  0  0
   45.4560   29.0200   46.8180 N   0  0  0  0  0  0  0  0  0  0  0  0
   44.7720   27.0170   48.1820 C   0  0  0  0  0  0  0  0  0  0  0  0
   43.8090   26.2490   47.5600 C   0  0  0  0  0  0  0  0  0  0  0  0
   43.1260   25.6110   48.5270 N   0  0  0  0  0  0  0  0  0  0  0  0
   43.6690   25.9880   49.7220 C   0  0  0  0  0  0  0  0  0  0  0  0
   44.6950   26.8640   49.5140 N   0  0  0  0  0  0  0  0  0  0  0  0
   43.9967   36.3585   45.6771 H   0  0  0  0  0  0  0  0  0  0  0  0
   44.3844   37.4033   43.4317 H   0  0  0  0  0  0  0  0  0  0  0  0
   45.7680   36.1515   41.7521 H   0  0  0  0  0  0  0  0  0  0  0  0
   48.2010   32.7207   43.4563 H   0  0  0  0  0  0  0  0  0  0  0  0
   43.6331   26.1729   46.4768 H   0  0  0  0  0  0  0  0  0  0  0  0
   43.3294   25.6372   50.7077 H   0  0  0  0  0  0  0  0  0  0  0  0
   45.2858   27.3131   50.2283 H   0  0  0  0  0  0  0  0  0  0  0  0
  1  6  2  0
  2  1  1  0
  3  4  1  0
  3  2  2  0
  4  5  2  0
  5  7  1  0
  5  6  1  0
  7 11  1  0
  8  7  1  0
  8  9  2  0
  9 10  1  0
 10 12  1  0
 11 10  2  0
 12 13  2  0
 12 16  1  0
 13 14  1  0
 14 15  1  0
 15 17  1  0
 16 15  2  0
 17 21  1  0
 18 17  2  0
 18 19  1  0
 19 20  2  0
 21 20  1  0
  1 22  1  0
  2 23  1  0
  3 24  1  0
  8 25  1  0
 18 26  1  0
 20 27  1  0
 21 28  1  0
M  ISO  7  22  14  23  14  24  14  25  14  26  14  27  14  28   9
M  END
>  <minimizedAffinity>  (1) 
-4.78414679

>  <minimizedRMSD>  (1) 
0.723555624

$$$$
