
     RDKit          3D

 29 32  0  0  0  0  0  0  0  0999 V2000
   44.5920   35.4910   45.3220 C   0  0  0  0  0  0  0  0  0  0  0  0
   44.7390   36.3060   44.1740 C   0  0  0  0  0  0  0  0  0  0  0  0
   45.4840   35.8210   43.0970 C   0  0  0  0  0  0  0  0  0  0  0  0
   46.0150   34.5730   43.2530 N   0  0  0  0  0  0  0  0  0  0  0  0
   45.8660   33.8200   44.3390 C   0  0  0  0  0  0  0  0  0  0  0  0
   45.1630   34.2700   45.3660 N   0  0  0  0  0  0  0  0  0  0  0  0
   46.4440   32.5320   44.4410 N   0  0  0  0  0  0  0  0  0  0  0  0
   47.5930   32.1660   43.7930 C   0  0  0  0  0  0  0  0  0  0  0  0
   47.8740   30.8840   44.0940 N   0  0  0  0  0  0  0  0  0  0  0  0
   46.9110   30.4520   44.9220 C   0  0  0  0  0  0  0  0  0  0  0  0
   46.0680   31.4550   45.1140 N   0  0  0  0  0  0  0  0  0  0  0  0
   46.8530   29.1110   45.4760 C   0  0  0  0  0  0  0  0  0  0  0  0
   47.3400   27.9660   44.9490 N   0  0  0  0  0  0  0  0  0  0  0  0
   47.0730   26.9990   45.7620 O   0  0  0  0  0  0  0  0  0  0  0  0
   46.4220   27.4320   46.8270 C   0  0  0  0  0  0  0  0  0  0  0  0
   46.2790   28.7690   46.6540 N   0  0  0  0  0  0  0  0  0  0  0  0
   45.9750   26.5980   47.9310 C   0  0  0  0  0  0  0  0  0  0  0  0
   44.7130   26.8380   48.4350 C   0  0  0  0  0  0  0  0  0  0  0  0
   44.3660   25.9900   49.4930 C   0  0  0  0  0  0  0  0  0  0  0  0
   45.1730   25.0240   49.9910 N   0  0  0  0  0  0  0  0  0  0  0  0
   46.3870   24.8480   49.4500 C   0  0  0  0  0  0  0  0  0  0  0  0
   46.7720   25.6380   48.4280 N   0  0  0  0  0  0  0  0  0  0  0  0
   44.0098   35.8549   46.1814 H   0  0  0  0  0  0  0  0  0  0  0  0
   44.2752   37.3025   44.1311 H   0  0  0  0  0  0  0  0  0  0  0  0
   45.6338   36.4085   42.1792 H   0  0  0  0  0  0  0  0  0  0  0  0
   48.1895   32.8137   43.1338 H   0  0  0  0  0  0  0  0  0  0  0  0
   44.0450   27.6194   48.0435 H   0  0  0  0  0  0  0  0  0  0  0  0
   43.3732   26.1167   49.9494 H   0  0  0  0  0  0  0  0  0  0  0  0
   47.0606   24.0684   49.8354 H   0  0  0  0  0  0  0  0  0  0  0  0
  1  6  2  0
  2  1  1  0
  3  4  1  0
  3  2  2  0
  4  5  2  0
  5  7  1  0
  5  6  1  0
  7 11  1  0
  8  9  2  0
  8  7  1  0
  9 10  1  0
 10 11  2  0
 10 12  1  0
 12 16  1  0
 13 12  2  0
 13 14  1  0
 14 15  1  0
 15 17  1  0
 16 15  2  0
 17 22  1  0
 17 18  2  0
 18 19  1  0
 19 20  2  0
 21 20  1  0
 22 21  2  0
  1 23  1  0
  2 24  1  0
  3 25  1  0
  8 26  1  0
 18 27  1  0
 19 28  1  0
 21 29  1  0
M  ISO  7  23  14  24  14  25  14  26  14  27  14  28  14  29  14
M  END
>  <minimizedAffinity>  (1) 
-4.74107361

>  <minimizedRMSD>  (1) 
1.70214343

$$$$
