
     RDKit          3D

 28 31  0  0  0  0  0  0  0  0999 V2000
   44.5950   35.5130   45.3130 C   0  0  0  0  0  0  0  0  0  0  0  0
   44.7290   36.3150   44.1590 C   0  0  0  0  0  0  0  0  0  0  0  0
   45.4630   35.8200   43.0890 C   0  0  0  0  0  0  0  0  0  0  0  0
   46.0160   34.5730   43.2190 N   0  0  0  0  0  0  0  0  0  0  0  0
   45.8640   33.8370   44.3420 C   0  0  0  0  0  0  0  0  0  0  0  0
   45.1690   34.2930   45.3710 N   0  0  0  0  0  0  0  0  0  0  0  0
   46.4490   32.5510   44.4430 N   0  0  0  0  0  0  0  0  0  0  0  0
   47.6170   32.1950   43.8200 C   0  0  0  0  0  0  0  0  0  0  0  0
   47.9120   30.9140   44.1060 N   0  0  0  0  0  0  0  0  0  0  0  0
   46.9340   30.4700   44.9040 C   0  0  0  0  0  0  0  0  0  0  0  0
   46.0640   31.4740   45.0930 N   0  0  0  0  0  0  0  0  0  0  0  0
   46.8540   29.1250   45.4570 C   0  0  0  0  0  0  0  0  0  0  0  0
   47.3670   27.9920   44.9450 N   0  0  0  0  0  0  0  0  0  0  0  0
   47.0730   27.0010   45.7420 O   0  0  0  0  0  0  0  0  0  0  0  0
   46.3840   27.4260   46.7650 C   0  0  0  0  0  0  0  0  0  0  0  0
   46.2440   28.7620   46.5900 N   0  0  0  0  0  0  0  0  0  0  0  0
   45.8620   26.6470   47.8800 C   0  0  0  0  0  0  0  0  0  0  0  0
   44.6900   26.7530   48.5080 C   0  0  0  0  0  0  0  0  0  0  0  0
   44.3660   25.9380   49.5350 C   0  0  0  0  0  0  0  0  0  0  0  0
   45.3610   24.9800   49.8780 C   0  0  0  0  0  0  0  0  0  0  0  0
   46.7440   25.3520   48.6350 S   0  0  0  0  0  0  0  0  0  0  0  0
   44.0179   35.8856   46.1721 H   0  0  0  0  0  0  0  0  0  0  0  0
   44.2624   37.3099   44.1084 H   0  0  0  0  0  0  0  0  0  0  0  0
   45.5958   36.4085   42.1692 H   0  0  0  0  0  0  0  0  0  0  0  0
   48.2217   32.8568   43.1825 H   0  0  0  0  0  0  0  0  0  0  0  0
   43.9723   27.5204   48.1825 H   0  0  0  0  0  0  0  0  0  0  0  0
   43.4055   26.0093   50.0663 H   0  0  0  0  0  0  0  0  0  0  0  0
   45.3344   24.2145   50.6675 H   0  0  0  0  0  0  0  0  0  0  0  0
  1  6  2  0
  2  1  1  0
  3  4  1  0
  3  2  2  0
  4  5  2  0
  5  7  1  0
  5  6  1  0
  7 11  1  0
  8  9  2  0
  8  7  1  0
  9 10  1  0
 10 11  2  0
 10 12  1  0
 12 16  1  0
 13 12  2  0
 13 14  1  0
 14 15  1  0
 15 17  1  0
 16 15  2  0
 17 18  2  0
 17 21  1  0
 18 19  1  0
 19 20  2  0
 21 20  1  0
  1 22  1  0
  2 23  1  0
  3 24  1  0
  8 25  1  0
 18 26  1  0
 19 27  1  0
 20 28  1  0
M  ISO  7  22  14  23  14  24  14  25  14  26  14  27  14  28  14
M  END
>  <minimizedAffinity>  (1) 
-4.61217165

>  <minimizedRMSD>  (1) 
1.61537683

$$$$
