
     RDKit          3D

 24 26  0  0  0  0  0  0  0  0999 V2000
   44.5960   35.6010   45.2040 C   0  0  0  0  0  0  0  0  0  0  0  0
   44.8410   36.2220   43.9540 C   0  0  0  0  0  0  0  0  0  0  0  0
   45.6060   35.5380   43.0050 C   0  0  0  0  0  0  0  0  0  0  0  0
   46.0700   34.2940   43.3670 N   0  0  0  0  0  0  0  0  0  0  0  0
   45.8250   33.7340   44.5500 C   0  0  0  0  0  0  0  0  0  0  0  0
   45.1010   34.3820   45.4460 N   0  0  0  0  0  0  0  0  0  0  0  0
   46.3190   32.4570   44.8800 N   0  0  0  0  0  0  0  0  0  0  0  0
   47.4530   31.9200   44.3300 C   0  0  0  0  0  0  0  0  0  0  0  0
   47.6620   30.6930   44.8460 N   0  0  0  0  0  0  0  0  0  0  0  0
   46.6630   30.4640   45.7180 C   0  0  0  0  0  0  0  0  0  0  0  0
   45.8750   31.5350   45.7190 N   0  0  0  0  0  0  0  0  0  0  0  0
   46.5010   29.2480   46.5050 C   0  0  0  0  0  0  0  0  0  0  0  0
   47.4810   28.4360   46.9660 N   0  0  0  0  0  0  0  0  0  0  0  0
   46.9340   27.4610   47.6220 O   0  0  0  0  0  0  0  0  0  0  0  0
   45.6280   27.5770   47.6240 C   0  0  0  0  0  0  0  0  0  0  0  0
   45.3280   28.7140   46.9160 N   0  0  0  0  0  0  0  0  0  0  0  0
   44.5890   26.7030   48.2440 C   0  0  0  0  0  0  0  0  0  0  0  0
   43.4690   26.6260   47.4500 F   0  0  0  0  0  0  0  0  0  0  0  0
   44.2540   27.2430   49.4760 F   0  0  0  0  0  0  0  0  0  0  0  0
   45.0640   25.4120   48.4230 F   0  0  0  0  0  0  0  0  0  0  0  0
   43.9964   36.1146   45.9699 H   0  0  0  0  0  0  0  0  0  0  0  0
   44.4375   37.2216   43.7351 H   0  0  0  0  0  0  0  0  0  0  0  0
   45.8261   35.9722   42.0186 H   0  0  0  0  0  0  0  0  0  0  0  0
   48.0929   32.4135   43.5837 H   0  0  0  0  0  0  0  0  0  0  0  0
  1  6  2  0
  2  1  1  0
  3  4  1  0
  3  2  2  0
  4  5  2  0
  5  7  1  0
  5  6  1  0
  7 11  1  0
  8  9  2  0
  8  7  1  0
  9 10  1  0
 10 11  2  0
 10 12  1  0
 12 16  1  0
 12 13  2  0
 13 14  1  0
 14 15  1  0
 15 17  1  0
 16 15  2  0
 17 20  1  0
 17 19  1  0
 18 17  1  0
  1 21  1  0
  2 22  1  0
  3 23  1  0
  8 24  1  0
M  ISO  4  21  14  22  14  23  14  24  14
M  END
>  <minimizedAffinity>  (1) 
-4.68081474

>  <minimizedRMSD>  (1) 
0.802893758

$$$$
