
     RDKit          3D

 33 35  0  0  0  0  0  0  0  0999 V2000
   44.5880   35.3850   45.6410 C   0  0  0  0  0  0  0  0  0  0  0  0
   44.6910   36.0160   44.4010 C   0  0  0  0  0  0  0  0  0  0  0  0
   45.3400   35.3340   43.3940 C   0  0  0  0  0  0  0  0  0  0  0  0
   45.8540   34.0820   43.6380 N   0  0  0  0  0  0  0  0  0  0  0  0
   45.7290   33.5130   44.8550 C   0  0  0  0  0  0  0  0  0  0  0  0
   45.1080   34.1510   45.8390 N   0  0  0  0  0  0  0  0  0  0  0  0
   46.2570   32.2220   45.1080 N   0  0  0  0  0  0  0  0  0  0  0  0
   47.3600   31.7190   44.4980 C   0  0  0  0  0  0  0  0  0  0  0  0
   47.5910   30.4750   44.9600 N   0  0  0  0  0  0  0  0  0  0  0  0
   46.6330   30.2010   45.8580 C   0  0  0  0  0  0  0  0  0  0  0  0
   45.8340   31.2710   45.9350 N   0  0  0  0  0  0  0  0  0  0  0  0
   46.5130   28.9550   46.5960 C   0  0  0  0  0  0  0  0  0  0  0  0
   47.4760   28.2600   47.2170 N   0  0  0  0  0  0  0  0  0  0  0  0
   46.9640   27.2070   47.7560 O   0  0  0  0  0  0  0  0  0  0  0  0
   45.6640   27.1510   47.5240 C   0  0  0  0  0  0  0  0  0  0  0  0
   45.3710   28.2550   46.7900 N   0  0  0  0  0  0  0  0  0  0  0  0
   44.5890   26.1910   47.8900 C   0  0  0  0  0  0  0  0  0  0  0  0
   44.1770   26.4160   49.3090 C   0  0  0  0  0  0  0  0  0  0  0  0
   43.4030   26.3890   46.9770 C   0  0  0  0  0  0  0  0  0  0  0  0
   45.0820   24.7510   47.7790 C   0  0  0  0  0  0  0  0  0  0  0  0
   44.0770   35.8975   46.4694 H   0  0  0  0  0  0  0  0  0  0  0  0
   44.2707   37.0186   44.2334 H   0  0  0  0  0  0  0  0  0  0  0  0
   45.4464   35.7898   42.3985 H   0  0  0  0  0  0  0  0  0  0  0  0
   47.9682   32.2434   43.7463 H   0  0  0  0  0  0  0  0  0  0  0  0
   44.9401   25.9993   49.9828 H   0  0  0  0  0  0  0  0  0  0  0  0
   44.0743   27.4954   49.4942 H   0  0  0  0  0  0  0  0  0  0  0  0
   43.2134   25.9189   49.4942 H   0  0  0  0  0  0  0  0  0  0  0  0
   42.4964   26.5404   47.5812 H   0  0  0  0  0  0  0  0  0  0  0  0
   43.5722   27.2713   46.3423 H   0  0  0  0  0  0  0  0  0  0  0  0
   43.2764   25.4996   46.3423 H   0  0  0  0  0  0  0  0  0  0  0  0
   45.2249   24.3337   48.7867 H   0  0  0  0  0  0  0  0  0  0  0  0
   44.3385   24.1498   47.2352 H   0  0  0  0  0  0  0  0  0  0  0  0
   46.0380   24.7316   47.2352 H   0  0  0  0  0  0  0  0  0  0  0  0
  1  6  2  0
  2  1  1  0
  3  4  1  0
  3  2  2  0
  4  5  2  0
  5  7  1  0
  5  6  1  0
  7 11  1  0
  8  9  2  0
  8  7  1  0
  9 10  1  0
 10 11  2  0
 10 12  1  0
 12 16  1  0
 12 13  2  0
 13 14  1  0
 15 14  1  0
 15 17  1  0
 16 15  2  0
 17 18  1  0
 19 17  1  0
 20 17  1  0
  1 21  1  0
  2 22  1  0
  3 23  1  0
  8 24  1  0
 18 25  1  0
 18 26  1  0
 18 27  1  0
 19 28  1  0
 19 29  1  0
 19 30  1  0
 20 31  1  0
 20 32  1  0
 20 33  1  0
M  ISO  8  21  14  22  14  23  14  24  14  25   8  26   8  27   8  28   8
M  ISO  5  29   8  30   8  31   8  32   8  33   8
M  END
>  <minimizedAffinity>  (1) 
-4.60269117

>  <minimizedRMSD>  (1) 
1.06316423

$$$$
