
     RDKit          3D

 27 29  0  0  0  0  0  0  0  0999 V2000
   44.5900   35.7280   45.0210 C   0  0  0  0  0  0  0  0  0  0  0  0
   44.9110   36.3040   43.7740 C   0  0  0  0  0  0  0  0  0  0  0  0
   45.7080   35.5880   42.8770 C   0  0  0  0  0  0  0  0  0  0  0  0
   46.1210   34.3510   43.2990 N   0  0  0  0  0  0  0  0  0  0  0  0
   45.8130   33.8180   44.4760 C   0  0  0  0  0  0  0  0  0  0  0  0
   45.0570   34.5060   45.3160 N   0  0  0  0  0  0  0  0  0  0  0  0
   46.2730   32.5340   44.8460 N   0  0  0  0  0  0  0  0  0  0  0  0
   47.4370   31.9850   44.4340 C   0  0  0  0  0  0  0  0  0  0  0  0
   47.5780   30.7580   44.9620 N   0  0  0  0  0  0  0  0  0  0  0  0
   46.4860   30.5360   45.7160 C   0  0  0  0  0  0  0  0  0  0  0  0
   45.7130   31.6170   45.6330 N   0  0  0  0  0  0  0  0  0  0  0  0
   46.2300   29.3200   46.4660 C   0  0  0  0  0  0  0  0  0  0  0  0
   47.1100   28.5990   47.1980 N   0  0  0  0  0  0  0  0  0  0  0  0
   46.4830   27.5850   47.7010 O   0  0  0  0  0  0  0  0  0  0  0  0
   45.2070   27.5850   47.3410 C   0  0  0  0  0  0  0  0  0  0  0  0
   45.0390   28.6800   46.5600 N   0  0  0  0  0  0  0  0  0  0  0  0
   44.1920   26.5740   47.7330 C   0  0  0  0  0  0  0  0  0  0  0  0
   44.2670   26.2840   49.2320 C   0  0  0  0  0  0  0  0  0  0  0  0
   43.9645   36.2743   45.7423 H   0  0  0  0  0  0  0  0  0  0  0  0
   44.5383   37.3049   43.5109 H   0  0  0  0  0  0  0  0  0  0  0  0
   45.9868   35.9922   41.8927 H   0  0  0  0  0  0  0  0  0  0  0  0
   48.1621   32.4712   43.7649 H   0  0  0  0  0  0  0  0  0  0  0  0
   43.1896   26.9557   47.4890 H   0  0  0  0  0  0  0  0  0  0  0  0
   44.3908   25.6425   47.1828 H   0  0  0  0  0  0  0  0  0  0  0  0
   44.0304   27.1990   49.7948 H   0  0  0  0  0  0  0  0  0  0  0  0
   43.5428   25.4973   49.4899 H   0  0  0  0  0  0  0  0  0  0  0  0
   45.2818   25.9470   49.4899 H   0  0  0  0  0  0  0  0  0  0  0  0
  1  6  2  0
  2  1  1  0
  3  4  1  0
  3  2  2  0
  4  5  2  0
  5  7  1  0
  5  6  1  0
  7 11  1  0
  8  7  1  0
  8  9  2  0
  9 10  1  0
 10 12  1  0
 11 10  2  0
 12 16  1  0
 12 13  2  0
 13 14  1  0
 15 14  1  0
 15 17  1  0
 16 15  2  0
 17 18  1  0
  1 19  1  0
  2 20  1  0
  3 21  1  0
  8 22  1  0
 17 23  1  0
 17 24  1  0
 18 25  1  0
 18 26  1  0
 18 27  1  0
M  ISO  8  19  14  20  14  21  14  22  14  23   8  24   8  25   8  26   8
M  ISO  1  27   8
M  END
>  <minimizedAffinity>  (1) 
-4.33457947

>  <minimizedRMSD>  (1) 
0.681042969

$$$$
