
     RDKit          3D

 28 31  0  0  0  0  0  0  0  0999 V2000
   44.5900   35.7230   45.0420 C   0  0  0  0  0  0  0  0  0  0  0  0
   44.8680   36.3200   43.7900 C   0  0  0  0  0  0  0  0  0  0  0  0
   45.6450   35.6200   42.8740 C   0  0  0  0  0  0  0  0  0  0  0  0
   46.0930   34.3810   43.2580 N   0  0  0  0  0  0  0  0  0  0  0  0
   45.8110   33.8460   44.4510 C   0  0  0  0  0  0  0  0  0  0  0  0
   45.0690   34.5010   45.3420 N   0  0  0  0  0  0  0  0  0  0  0  0
   46.2930   32.5590   44.8150 N   0  0  0  0  0  0  0  0  0  0  0  0
   47.4290   32.0000   44.3020 C   0  0  0  0  0  0  0  0  0  0  0  0
   47.6240   30.7890   44.8300 N   0  0  0  0  0  0  0  0  0  0  0  0
   46.6080   30.5750   45.6830 C   0  0  0  0  0  0  0  0  0  0  0  0
   45.8350   31.6550   45.6450 N   0  0  0  0  0  0  0  0  0  0  0  0
   46.4200   29.3680   46.4880 C   0  0  0  0  0  0  0  0  0  0  0  0
   47.3360   28.4370   46.7880 N   0  0  0  0  0  0  0  0  0  0  0  0
   46.7710   27.5290   47.5200 O   0  0  0  0  0  0  0  0  0  0  0  0
   45.4980   27.8060   47.7310 C   0  0  0  0  0  0  0  0  0  0  0  0
   45.2650   28.9820   47.0720 N   0  0  0  0  0  0  0  0  0  0  0  0
   44.4640   27.0630   48.5010 C   0  0  0  0  0  0  0  0  0  0  0  0
   44.7220   25.6590   48.8980 C   0  0  0  0  0  0  0  0  0  0  0  0
   43.7450   25.9280   47.7910 C   0  0  0  0  0  0  0  0  0  0  0  0
   43.9761   36.2628   45.7781 H   0  0  0  0  0  0  0  0  0  0  0  0
   44.4769   37.3188   43.5459 H   0  0  0  0  0  0  0  0  0  0  0  0
   45.8894   36.0399   41.8871 H   0  0  0  0  0  0  0  0  0  0  0  0
   48.0874   32.4779   43.5616 H   0  0  0  0  0  0  0  0  0  0  0  0
   44.1634   27.9704   49.0452 H   0  0  0  0  0  0  0  0  0  0  0  0
   45.6933   25.1961   48.6692 H   0  0  0  0  0  0  0  0  0  0  0  0
   44.6767   25.1064   49.8480 H   0  0  0  0  0  0  0  0  0  0  0  0
   42.6686   25.7683   47.9519 H   0  0  0  0  0  0  0  0  0  0  0  0
   43.6324   25.6015   46.7466 H   0  0  0  0  0  0  0  0  0  0  0  0
  1  6  2  0
  2  1  1  0
  3  4  1  0
  3  2  2  0
  4  5  2  0
  5  7  1  0
  5  6  1  0
  7 11  1  0
  8  7  1  0
  8  9  2  0
  9 10  1  0
 10 12  1  0
 11 10  2  0
 12 13  2  0
 12 16  1  0
 13 14  1  0
 14 15  1  0
 15 17  1  0
 16 15  2  0
 17 18  1  0
 19 17  1  0
 19 18  1  0
  1 20  1  0
  2 21  1  0
  3 22  1  0
  8 23  1  0
 17 24  1  0
 18 25  1  0
 18 26  1  0
 19 27  1  0
 19 28  1  0
M  ISO  8  20  14  21  14  22  14  23  14  24  13  25  13  26  13  27  13
M  ISO  1  28  13
M  END
>  <minimizedAffinity>  (1) 
-4.5991168

>  <minimizedRMSD>  (1) 
0.417265266

$$$$
