
     RDKit          3D

 28 31  0  0  0  0  0  0  0  0999 V2000
   44.6090   35.5280   45.3180 C   0  0  0  0  0  0  0  0  0  0  0  0
   44.6800   36.2680   44.1360 C   0  0  0  0  0  0  0  0  0  0  0  0
   45.3960   35.7450   43.0550 C   0  0  0  0  0  0  0  0  0  0  0  0
   45.9870   34.5170   43.2380 N   0  0  0  0  0  0  0  0  0  0  0  0
   45.9020   33.8280   44.3840 C   0  0  0  0  0  0  0  0  0  0  0  0
   45.2220   34.3340   45.4000 N   0  0  0  0  0  0  0  0  0  0  0  0
   46.5250   32.5650   44.5330 N   0  0  0  0  0  0  0  0  0  0  0  0
   47.6570   32.1980   43.8760 C   0  0  0  0  0  0  0  0  0  0  0  0
   47.9900   30.9500   44.2320 N   0  0  0  0  0  0  0  0  0  0  0  0
   47.0660   30.5310   45.1130 C   0  0  0  0  0  0  0  0  0  0  0  0
   46.2020   31.5280   45.2700 N   0  0  0  0  0  0  0  0  0  0  0  0
   47.0470   29.2260   45.7540 C   0  0  0  0  0  0  0  0  0  0  0  0
   47.8750   28.1830   45.5160 N   0  0  0  0  0  0  0  0  0  0  0  0
   47.5200   27.2050   46.2960 O   0  0  0  0  0  0  0  0  0  0  0  0
   46.4950   27.5390   47.0460 C   0  0  0  0  0  0  0  0  0  0  0  0
   46.1850   28.8170   46.7130 N   0  0  0  0  0  0  0  0  0  0  0  0
   45.8630   26.6610   48.0250 C   0  0  0  0  0  0  0  0  0  0  0  0
   44.5740   26.8720   48.4690 C   0  0  0  0  0  0  0  0  0  0  0  0
   44.3210   25.8450   49.3850 C   0  0  0  0  0  0  0  0  0  0  0  0
   45.4760   25.0720   49.4400 C   0  0  0  0  0  0  0  0  0  0  0  0
   46.3500   25.6080   48.6120 O   0  0  0  0  0  0  0  0  0  0  0  0
   44.0522   35.9214   46.1812 H   0  0  0  0  0  0  0  0  0  0  0  0
   44.1814   37.2453   44.0567 H   0  0  0  0  0  0  0  0  0  0  0  0
   45.4824   36.2900   42.1034 H   0  0  0  0  0  0  0  0  0  0  0  0
   48.2122   32.8266   43.1642 H   0  0  0  0  0  0  0  0  0  0  0  0
   43.8892   27.6780   48.1666 H   0  0  0  0  0  0  0  0  0  0  0  0
   43.3917   25.6812   49.9503 H   0  0  0  0  0  0  0  0  0  0  0  0
   45.6314   24.1773   50.0608 H   0  0  0  0  0  0  0  0  0  0  0  0
  1  6  2  0
  2  1  1  0
  3  4  1  0
  3  2  2  0
  4  5  2  0
  5  7  1  0
  5  6  1  0
  7 11  1  0
  8  9  2  0
  8  7  1  0
  9 10  1  0
 10 11  2  0
 10 12  1  0
 12 16  1  0
 13 12  2  0
 13 14  1  0
 14 15  1  0
 15 17  1  0
 16 15  2  0
 17 18  2  0
 17 21  1  0
 18 19  1  0
 19 20  2  0
 21 20  1  0
  1 22  1  0
  2 23  1  0
  3 24  1  0
  8 25  1  0
 18 26  1  0
 19 27  1  0
 20 28  1  0
M  ISO  7  22  14  23  14  24  14  25  14  26  14  27  14  28  14
M  END
>  <minimizedAffinity>  (1) 
-4.62110281

>  <minimizedRMSD>  (1) 
1.45653868

$$$$
