
     RDKit          3D

 42 47  0  0  0  0  0  0  0  0999 V2000
   46.6450   32.5720   46.4810 C   0  0  0  0  0  0  0  0  0  0  0  0
   45.5750   33.3760   46.7150 N   0  0  0  0  0  0  0  0  0  0  0  0
   45.2100   33.8950   45.5800 O   0  0  0  0  0  0  0  0  0  0  0  0
   45.9740   33.4820   44.6010 C   0  0  0  0  0  0  0  0  0  0  0  0
   46.8970   32.6380   45.1480 N   0  0  0  0  0  0  0  0  0  0  0  0
   51.8260   28.4380   47.8950 C   0  0  0  0  0  0  0  0  0  0  0  0
   51.7980   27.5680   48.9820 C   0  0  0  0  0  0  0  0  0  0  0  0
   50.7270   27.6480   49.8860 C   0  0  0  0  0  0  0  0  0  0  0  0
   49.7620   28.5970   49.6300 N   0  0  0  0  0  0  0  0  0  0  0  0
   49.8210   29.4180   48.5720 C   0  0  0  0  0  0  0  0  0  0  0  0
   50.8390   29.3350   47.7200 N   0  0  0  0  0  0  0  0  0  0  0  0
   48.8040   30.3840   48.3410 N   0  0  0  0  0  0  0  0  0  0  0  0
   48.0760   30.9630   49.3250 C   0  0  0  0  0  0  0  0  0  0  0  0
   47.2060   31.8260   48.7810 N   0  0  0  0  0  0  0  0  0  0  0  0
   47.3870   31.7880   47.4520 C   0  0  0  0  0  0  0  0  0  0  0  0
   48.3600   30.9070   47.2210 N   0  0  0  0  0  0  0  0  0  0  0  0
   45.8480   33.8660   43.1910 C   0  0  0  0  0  0  0  0  0  0  0  0
   46.8900   34.3440   42.4470 C   0  0  0  0  0  0  0  0  0  0  0  0
   46.3220   34.5750   41.1820 C   0  0  0  0  0  0  0  0  0  0  0  0
   44.9990   34.2350   41.2240 C   0  0  0  0  0  0  0  0  0  0  0  0
   44.7990   33.8250   42.4450 O   0  0  0  0  0  0  0  0  0  0  0  0
   43.9030   34.2400   40.2810 C   0  0  0  0  0  0  0  0  0  0  0  0
   43.9180   33.6330   39.0410 C   0  0  0  0  0  0  0  0  0  0  0  0
   42.7410   33.8200   38.4010 N   0  0  0  0  0  0  0  0  0  0  0  0
   41.9190   34.5430   39.1810 C   0  0  0  0  0  0  0  0  0  0  0  0
   40.6310   35.0000   39.0000 C   0  0  0  0  0  0  0  0  0  0  0  0
   40.0040   35.7390   39.9820 C   0  0  0  0  0  0  0  0  0  0  0  0
   40.7280   35.9880   41.1280 C   0  0  0  0  0  0  0  0  0  0  0  0
   42.0140   35.5200   41.2800 C   0  0  0  0  0  0  0  0  0  0  0  0
   42.6480   34.7900   40.3250 C   0  0  0  0  0  0  0  0  0  0  0  0
   52.6581   28.3915   47.1770 H   0  0  0  0  0  0  0  0  0  0  0  0
   52.6011   26.8310   49.1297 H   0  0  0  0  0  0  0  0  0  0  0  0
   50.6614   26.9827   50.7596 H   0  0  0  0  0  0  0  0  0  0  0  0
   48.1817   30.7578   50.4005 H   0  0  0  0  0  0  0  0  0  0  0  0
   47.9303   34.5094   42.7640 H   0  0  0  0  0  0  0  0  0  0  0  0
   46.8550   34.9654   40.3025 H   0  0  0  0  0  0  0  0  0  0  0  0
   44.7710   33.0735   38.6295 H   0  0  0  0  0  0  0  0  0  0  0  0
   42.5106   33.4639   37.4624 H   0  0  0  0  0  0  0  0  0  0  0  0
   40.0985   34.7735   38.0645 H   0  0  0  0  0  0  0  0  0  0  0  0
   38.9765   36.1112   39.8564 H   0  0  0  0  0  0  0  0  0  0  0  0
   40.2687   36.5730   41.9384 H   0  0  0  0  0  0  0  0  0  0  0  0
   42.5505   35.7464   42.2132 H   0  0  0  0  0  0  0  0  0  0  0  0
  1  2  2  0
  1 15  1  0
  3  2  1  0
  4  5  2  0
  4  3  1  0
  5  1  1  0
  6  7  2  0
  7  8  1  0
  9  8  2  0
 10  9  1  0
 11  6  1  0
 11 10  2  0
 12 10  1  0
 12 13  1  0
 14 13  2  0
 15 14  1  0
 16 15  2  0
 16 12  1  0
 17  4  1  0
 18 17  2  0
 19 20  2  0
 19 18  1  0
 20 21  1  0
 21 17  1  0
 22 30  1  0
 22 20  1  0
 23 22  2  0
 24 23  1  0
 24 25  1  0
 25 30  2  0
 26 25  1  0
 26 27  2  0
 27 28  1  0
 28 29  2  0
 30 29  1  0
  6 31  1  0
  7 32  1  0
  8 33  1  0
 13 34  1  0
 18 35  1  0
 19 36  1  0
 23 37  1  0
 24 38  1  0
 26 39  1  0
 27 40  1  0
 28 41  1  0
 29 42  1  0
M  ISO  8  31  14  32  14  33  14  34  14  35  14  36  14  37  14  38   9
M  ISO  4  39  14  40  14  41  14  42  14
M  END
>  <minimizedAffinity>  (1) 
-6.91493559

>  <minimizedRMSD>  (1) 
11.8389311

$$$$
