
     RDKit          3D

 42 47  0  0  0  0  0  0  0  0999 V2000
   47.2840   31.2040   47.2210 C   0  0  0  0  0  0  0  0  0  0  0  0
   46.4250   31.4030   48.2740 C   0  0  0  0  0  0  0  0  0  0  0  0
   47.2080   31.2230   49.4250 C   0  0  0  0  0  0  0  0  0  0  0  0
   48.5040   30.9210   48.9960 C   0  0  0  0  0  0  0  0  0  0  0  0
   48.4760   30.9270   47.6870 O   0  0  0  0  0  0  0  0  0  0  0  0
   49.5940   30.6680   49.8760 N   0  0  0  0  0  0  0  0  0  0  0  0
   50.0110   29.5480   50.4940 C   0  0  0  0  0  0  0  0  0  0  0  0
   51.1020   29.8630   51.2220 N   0  0  0  0  0  0  0  0  0  0  0  0
   51.3860   31.1830   51.0730 C   0  0  0  0  0  0  0  0  0  0  0  0
   52.3620   32.0200   51.5720 C   0  0  0  0  0  0  0  0  0  0  0  0
   53.2420   31.5710   52.3500 O   0  0  0  0  0  0  0  0  0  0  0  0
   52.3920   33.3310   51.2350 N   0  0  0  0  0  0  0  0  0  0  0  0
   51.4590   33.8090   50.4090 C   0  0  0  0  0  0  0  0  0  0  0  0
   51.3540   35.1560   49.9630 N   0  0  0  0  0  0  0  0  0  0  0  0
   50.5190   32.9800   49.9340 N   0  0  0  0  0  0  0  0  0  0  0  0
   50.4300   31.6700   50.2270 C   0  0  0  0  0  0  0  0  0  0  0  0
   45.7000   31.4870   43.9810 C   0  0  0  0  0  0  0  0  0  0  0  0
   47.0240   31.3820   43.6810 N   0  0  0  0  0  0  0  0  0  0  0  0
   47.6750   31.2740   44.8050 O   0  0  0  0  0  0  0  0  0  0  0  0
   46.8530   31.3020   45.8380 C   0  0  0  0  0  0  0  0  0  0  0  0
   45.6110   31.4350   45.3290 N   0  0  0  0  0  0  0  0  0  0  0  0
   42.3520   35.2820   39.4960 C   0  0  0  0  0  0  0  0  0  0  0  0
   40.9840   35.1010   39.2380 C   0  0  0  0  0  0  0  0  0  0  0  0
   40.3440   34.0120   39.8190 C   0  0  0  0  0  0  0  0  0  0  0  0
   41.0910   33.1680   40.6180 N   0  0  0  0  0  0  0  0  0  0  0  0
   42.4010   33.3830   40.8350 C   0  0  0  0  0  0  0  0  0  0  0  0
   43.0160   34.4190   40.2850 N   0  0  0  0  0  0  0  0  0  0  0  0
   43.1550   32.5100   41.6560 N   0  0  0  0  0  0  0  0  0  0  0  0
   42.9170   31.1730   41.7690 C   0  0  0  0  0  0  0  0  0  0  0  0
   43.8020   30.6330   42.6200 N   0  0  0  0  0  0  0  0  0  0  0  0
   44.5970   31.6260   43.0440 C   0  0  0  0  0  0  0  0  0  0  0  0
   44.1780   32.7410   42.4430 N   0  0  0  0  0  0  0  0  0  0  0  0
   45.3542   31.6502   48.2258 H   0  0  0  0  0  0  0  0  0  0  0  0
   46.8665   31.3042   50.4675 H   0  0  0  0  0  0  0  0  0  0  0  0
   49.5458   28.5540   50.4191 H   0  0  0  0  0  0  0  0  0  0  0  0
   53.1242   33.9504   51.6106 H   0  0  0  0  0  0  0  0  0  0  0  0
   50.5948   35.4288   49.3226 H   0  0  0  0  0  0  0  0  0  0  0  0
   52.0372   35.8584   50.2805 H   0  0  0  0  0  0  0  0  0  0  0  0
   42.8841   36.1352   39.0499 H   0  0  0  0  0  0  0  0  0  0  0  0
   40.4332   35.8019   38.5935 H   0  0  0  0  0  0  0  0  0  0  0  0
   39.2732   33.8276   39.6474 H   0  0  0  0  0  0  0  0  0  0  0  0
   42.1226   30.6223   41.2440 H   0  0  0  0  0  0  0  0  0  0  0  0
  1  5  1  0
  1  2  2  0
  2  3  1  0
  4  3  2  0
  4  6  1  0
  5  4  1  0
  6 16  1  0
  6  7  1  0
  7  8  2  0
  9  8  1  0
  9 10  1  0
 10 11  2  0
 12 10  1  0
 13 12  1  0
 14 13  1  0
 15 16  1  0
 15 13  2  0
 16  9  2  0
 17 21  1  0
 18 17  2  0
 18 19  1  0
 19 20  1  0
 20  1  1  0
 21 20  2  0
 22 27  2  0
 23 22  1  0
 23 24  2  0
 24 25  1  0
 25 26  2  0
 26 28  1  0
 27 26  1  0
 28 29  1  0
 28 32  1  0
 29 30  2  0
 30 31  1  0
 31 17  1  0
 32 31  2  0
  2 33  1  0
  3 34  1  0
  7 35  1  0
 12 36  1  0
 14 37  1  0
 14 38  1  0
 22 39  1  0
 23 40  1  0
 24 41  1  0
 29 42  1  0
M  ISO  8  33  14  34  14  35  14  36   9  39  14  40  14  41  14  42  14
M  END
>  <minimizedAffinity>  (1) 
-6.34622002

>  <minimizedRMSD>  (1) 
7.10166025

$$$$
