
     RDKit          3D

 37 39  0  0  0  0  0  0  0  0999 V2000
   47.8530   34.8660   41.6140 C   0  0  0  0  0  0  0  0  0  0  0  0
   47.5350   34.3650   40.2560 C   0  0  0  0  0  0  0  0  0  0  0  0
   48.3430   34.5920   39.1600 C   0  0  0  0  0  0  0  0  0  0  0  0
   48.1050   34.1340   37.8810 C   0  0  0  0  0  0  0  0  0  0  0  0
   46.9710   33.4010   37.7270 N   0  0  0  0  0  0  0  0  0  0  0  0
   46.1660   33.1680   38.7900 C   0  0  0  0  0  0  0  0  0  0  0  0
   46.4000   33.6180   40.0410 N   0  0  0  0  0  0  0  0  0  0  0  0
   44.9500   32.3550   38.5130 C   0  0  0  0  0  0  0  0  0  0  0  0
   44.3960   31.6490   39.7040 C   0  0  0  0  0  0  0  0  0  0  0  0
   42.8880   31.6340   39.5270 C   0  0  0  0  0  0  0  0  0  0  0  0
   42.6170   32.4870   38.2930 C   0  0  0  0  0  0  0  0  0  0  0  0
   43.8450   33.3680   38.2040 C   0  0  0  0  0  0  0  0  0  0  0  0
   47.3730   33.8510   42.6200 C   0  0  0  0  0  0  0  0  0  0  0  0
   44.6940   36.0160   44.1910 C   0  0  0  0  0  0  0  0  0  0  0  0
   45.6190   35.5260   43.2690 C   0  0  0  0  0  0  0  0  0  0  0  0
   46.3770   34.4100   43.5590 C   0  0  0  0  0  0  0  0  0  0  0  0
   46.1780   33.8190   44.7770 N   0  0  0  0  0  0  0  0  0  0  0  0
   45.2750   34.3110   45.6540 C   0  0  0  0  0  0  0  0  0  0  0  0
   44.5500   35.3820   45.3710 N   0  0  0  0  0  0  0  0  0  0  0  0
   47.3448   35.8267   41.7840 H   0  0  0  0  0  0  0  0  0  0  0  0
   48.9378   35.0165   41.7170 H   0  0  0  0  0  0  0  0  0  0  0  0
   49.2533   35.1884   39.3202 H   0  0  0  0  0  0  0  0  0  0  0  0
   48.7858   34.3472   37.0437 H   0  0  0  0  0  0  0  0  0  0  0  0
   45.2245   31.6262   37.7362 H   0  0  0  0  0  0  0  0  0  0  0  0
   44.7841   30.6209   39.7520 H   0  0  0  0  0  0  0  0  0  0  0  0
   44.6840   32.1538   40.6379 H   0  0  0  0  0  0  0  0  0  0  0  0
   42.5290   30.6060   39.3707 H   0  0  0  0  0  0  0  0  0  0  0  0
   42.3679   32.0223   40.4151 H   0  0  0  0  0  0  0  0  0  0  0  0
   42.5155   31.8601   37.3948 H   0  0  0  0  0  0  0  0  0  0  0  0
   41.6800   33.0592   38.3618 H   0  0  0  0  0  0  0  0  0  0  0  0
   43.9613   33.7995   37.1989 H   0  0  0  0  0  0  0  0  0  0  0  0
   43.8280   34.2407   38.8734 H   0  0  0  0  0  0  0  0  0  0  0  0
   46.9150   33.0090   42.0803 H   0  0  0  0  0  0  0  0  0  0  0  0
   48.2436   33.5284   43.2100 H   0  0  0  0  0  0  0  0  0  0  0  0
   44.0914   36.9063   43.9582 H   0  0  0  0  0  0  0  0  0  0  0  0
   45.7454   36.0341   42.3016 H   0  0  0  0  0  0  0  0  0  0  0  0
   45.1395   33.8106   46.6242 H   0  0  0  0  0  0  0  0  0  0  0  0
  1 13  1  0
  2  1  1  0
  3  2  2  0
  4  3  1  0
  5  4  2  0
  5  6  1  0
  6  7  2  0
  7  2  1  0
  8  6  1  0
  8  9  1  0
 10  9  1  0
 11 10  1  0
 12 11  1  0
 12  8  1  0
 13 16  1  0
 14 19  2  0
 15 16  2  0
 15 14  1  0
 16 17  1  0
 17 18  2  0
 19 18  1  0
  1 20  1  0
  1 21  1  0
  3 22  1  0
  4 23  1  0
  8 24  1  0
  9 25  1  0
  9 26  1  0
 10 27  1  0
 10 28  1  0
 11 29  1  0
 11 30  1  0
 12 31  1  0
 12 32  1  0
 13 33  1  0
 13 34  1  0
 14 35  1  0
 15 36  1  0
 18 37  1  0
M  ISO  8  20   8  21   8  22  14  23  14  24  13  25  13  26  13  27  13
M  ISO  8  28  13  29  13  30  13  31  13  32  13  33   8  34   8  35  14
M  ISO  2  36  14  37  14
M  END
>  <minimizedAffinity>  (1) 
-4.65998316

>  <minimizedRMSD>  (1) 
0.279777914

$$$$
