
     RDKit          3D

 39 44  0  0  0  0  0  0  0  0999 V2000
   47.4490   29.2860   45.1350 C   0  0  0  0  0  0  0  0  0  0  0  0
   48.3110   28.3240   44.7710 N   0  0  0  0  0  0  0  0  0  0  0  0
   48.0540   27.2610   45.4780 O   0  0  0  0  0  0  0  0  0  0  0  0
   47.0520   27.4700   46.3040 C   0  0  0  0  0  0  0  0  0  0  0  0
   46.6520   28.7540   46.1000 N   0  0  0  0  0  0  0  0  0  0  0  0
   44.6170   35.4320   45.3440 C   0  0  0  0  0  0  0  0  0  0  0  0
   44.6420   36.3020   44.2370 C   0  0  0  0  0  0  0  0  0  0  0  0
   45.3710   35.9360   43.1130 C   0  0  0  0  0  0  0  0  0  0  0  0
   46.0100   34.7340   43.1940 N   0  0  0  0  0  0  0  0  0  0  0  0
   45.9840   33.9150   44.2410 C   0  0  0  0  0  0  0  0  0  0  0  0
   45.2910   34.2720   45.2970 N   0  0  0  0  0  0  0  0  0  0  0  0
   46.6770   32.6840   44.2490 N   0  0  0  0  0  0  0  0  0  0  0  0
   47.7960   32.4460   43.5170 C   0  0  0  0  0  0  0  0  0  0  0  0
   48.2150   31.1960   43.7410 N   0  0  0  0  0  0  0  0  0  0  0  0
   47.3560   30.6450   44.6180 C   0  0  0  0  0  0  0  0  0  0  0  0
   46.4580   31.5720   44.8900 N   0  0  0  0  0  0  0  0  0  0  0  0
   46.5300   26.4800   47.2220 C   0  0  0  0  0  0  0  0  0  0  0  0
   45.2660   25.9290   47.0640 C   0  0  0  0  0  0  0  0  0  0  0  0
   45.0790   25.0230   48.1050 C   0  0  0  0  0  0  0  0  0  0  0  0
   46.2500   25.0820   48.8350 C   0  0  0  0  0  0  0  0  0  0  0  0
   47.0790   25.9580   48.2740 O   0  0  0  0  0  0  0  0  0  0  0  0
   46.5650   24.3310   50.0220 N   0  0  0  0  0  0  0  0  0  0  0  0
   45.6990   23.8520   50.9240 C   0  0  0  0  0  0  0  0  0  0  0  0
   46.3960   23.2010   51.8940 N   0  0  0  0  0  0  0  0  0  0  0  0
   47.7180   23.2660   51.6060 C   0  0  0  0  0  0  0  0  0  0  0  0
   48.9060   22.8210   52.1740 C   0  0  0  0  0  0  0  0  0  0  0  0
   50.0850   23.0920   51.5680 N   0  0  0  0  0  0  0  0  0  0  0  0
   50.1690   23.7840   50.4240 C   0  0  0  0  0  0  0  0  0  0  0  0
   49.0360   24.2120   49.8780 N   0  0  0  0  0  0  0  0  0  0  0  0
   47.8240   23.9870   50.4120 C   0  0  0  0  0  0  0  0  0  0  0  0
   44.0466   35.7022   46.2449 H   0  0  0  0  0  0  0  0  0  0  0  0
   44.0935   37.2552   44.2621 H   0  0  0  0  0  0  0  0  0  0  0  0
   45.4290   36.5727   42.2179 H   0  0  0  0  0  0  0  0  0  0  0  0
   48.2818   33.1686   42.8448 H   0  0  0  0  0  0  0  0  0  0  0  0
   44.5465   26.1640   46.2658 H   0  0  0  0  0  0  0  0  0  0  0  0
   44.1949   24.3989   48.3021 H   0  0  0  0  0  0  0  0  0  0  0  0
   44.6056   23.9660   50.8868 H   0  0  0  0  0  0  0  0  0  0  0  0
   48.8877   22.2499   53.1139 H   0  0  0  0  0  0  0  0  0  0  0  0
   51.1416   23.9905   49.9534 H   0  0  0  0  0  0  0  0  0  0  0  0
  1  5  1  0
  2  1  2  0
  2  3  1  0
  3  4  1  0
  4 17  1  0
  5  4  2  0
  7  6  2  0
  8  9  2  0
  8  7  1  0
  9 10  1  0
 10 12  1  0
 10 11  2  0
 11  6  1  0
 12 16  1  0
 13 14  2  0
 13 12  1  0
 14 15  1  0
 15 16  2  0
 15  1  1  0
 17 21  1  0
 18 17  2  0
 18 19  1  0
 19 20  2  0
 20 22  1  0
 21 20  1  0
 22 30  1  0
 22 23  1  0
 23 24  2  0
 25 24  1  0
 25 26  2  0
 27 26  1  0
 28 27  2  0
 29 30  2  0
 29 28  1  0
 30 25  1  0
  6 31  1  0
  7 32  1  0
  8 33  1  0
 13 34  1  0
 18 35  1  0
 19 36  1  0
 23 37  1  0
 26 38  1  0
 28 39  1  0
M  ISO  8  31  14  32  14  33  14  34  14  35  14  36  14  37  14  38  14
M  ISO  1  39  14
M  END
>  <minimizedAffinity>  (1) 
-5.64424992

>  <minimizedRMSD>  (1) 
0.997921884

$$$$
