
     RDKit          3D

 33 37  0  0  0  0  0  0  0  0999 V2000
   46.7860   29.2780   45.3300 C   0  0  0  0  0  0  0  0  0  0  0  0
   47.3270   28.1490   44.8250 N   0  0  0  0  0  0  0  0  0  0  0  0
   47.0070   27.1660   45.6090 O   0  0  0  0  0  0  0  0  0  0  0  0
   46.2710   27.5880   46.6230 C   0  0  0  0  0  0  0  0  0  0  0  0
   46.1270   28.9170   46.4540 N   0  0  0  0  0  0  0  0  0  0  0  0
   44.5590   35.6560   45.1740 C   0  0  0  0  0  0  0  0  0  0  0  0
   44.7420   36.4910   44.0580 C   0  0  0  0  0  0  0  0  0  0  0  0
   45.5240   36.0240   42.9970 C   0  0  0  0  0  0  0  0  0  0  0  0
   46.0600   34.7680   43.1340 N   0  0  0  0  0  0  0  0  0  0  0  0
   45.8690   33.9990   44.2050 C   0  0  0  0  0  0  0  0  0  0  0  0
   45.1310   34.4470   45.1970 N   0  0  0  0  0  0  0  0  0  0  0  0
   46.4390   32.7060   44.3090 N   0  0  0  0  0  0  0  0  0  0  0  0
   47.5990   32.3480   43.6970 C   0  0  0  0  0  0  0  0  0  0  0  0
   47.8720   31.0660   43.9870 N   0  0  0  0  0  0  0  0  0  0  0  0
   46.8890   30.6190   44.7780 C   0  0  0  0  0  0  0  0  0  0  0  0
   46.0470   31.6350   44.9480 N   0  0  0  0  0  0  0  0  0  0  0  0
   45.7560   26.7240   47.6710 C   0  0  0  0  0  0  0  0  0  0  0  0
   44.4250   26.6520   47.9820 C   0  0  0  0  0  0  0  0  0  0  0  0
   44.3070   25.7340   49.0230 C   0  0  0  0  0  0  0  0  0  0  0  0
   45.5880   25.2920   49.2930 C   0  0  0  0  0  0  0  0  0  0  0  0
   46.3810   25.9180   48.4600 O   0  0  0  0  0  0  0  0  0  0  0  0
   46.0860   24.3300   50.2760 C   0  0  0  0  0  0  0  0  0  0  0  0
   45.6640   23.6910   51.3800 N   0  0  0  0  0  0  0  0  0  0  0  0
   46.6350   22.9370   51.8040 O   0  0  0  0  0  0  0  0  0  0  0  0
   47.6910   23.0250   51.0540 C   0  0  0  0  0  0  0  0  0  0  0  0
   47.3550   23.8990   50.0920 N   0  0  0  0  0  0  0  0  0  0  0  0
   43.9486   35.9951   46.0240 H   0  0  0  0  0  0  0  0  0  0  0  0
   44.2806   37.4889   44.0202 H   0  0  0  0  0  0  0  0  0  0  0  0
   45.7007   36.6326   42.0979 H   0  0  0  0  0  0  0  0  0  0  0  0
   48.2155   33.0041   43.0650 H   0  0  0  0  0  0  0  0  0  0  0  0
   43.6074   27.2106   47.5029 H   0  0  0  0  0  0  0  0  0  0  0  0
   43.3806   25.4235   49.5283 H   0  0  0  0  0  0  0  0  0  0  0  0
   48.6493   22.4996   51.1791 H   0  0  0  0  0  0  0  0  0  0  0  0
  1  5  1  0
  2  1  2  0
  2  3  1  0
  3  4  1  0
  4 17  1  0
  5  4  2  0
  6 11  2  0
  7  6  1  0
  8  9  1  0
  8  7  2  0
  9 10  2  0
 10 12  1  0
 10 11  1  0
 12 16  1  0
 13 14  2  0
 13 12  1  0
 14 15  1  0
 15 16  2  0
 15  1  1  0
 17 18  2  0
 17 21  1  0
 18 19  1  0
 19 20  2  0
 20 22  1  0
 21 20  1  0
 22 23  2  0
 23 24  1  0
 25 24  1  0
 26 22  1  0
 26 25  2  0
  6 27  1  0
  7 28  1  0
  8 29  1  0
 13 30  1  0
 18 31  1  0
 19 32  1  0
 25 33  1  0
M  ISO  7  27  14  28  14  29  14  30  14  31  14  32  14  33  14
M  END
>  <minimizedAffinity>  (1) 
-5.32972097

>  <minimizedRMSD>  (1) 
0.667066753

$$$$
