
     RDKit          3D

 40 44  0  0  0  0  0  0  0  0999 V2000
   47.0940   29.2070   45.5580 C   0  0  0  0  0  0  0  0  0  0  0  0
   47.8730   28.1550   45.2100 N   0  0  0  0  0  0  0  0  0  0  0  0
   47.5560   27.1660   45.9890 O   0  0  0  0  0  0  0  0  0  0  0  0
   46.6110   27.4950   46.8380 C   0  0  0  0  0  0  0  0  0  0  0  0
   46.3080   28.7880   46.5760 N   0  0  0  0  0  0  0  0  0  0  0  0
   44.5900   35.4990   45.3510 C   0  0  0  0  0  0  0  0  0  0  0  0
   44.6740   36.2950   44.2060 C   0  0  0  0  0  0  0  0  0  0  0  0
   45.4050   35.8240   43.1210 C   0  0  0  0  0  0  0  0  0  0  0  0
   45.9990   34.5950   43.2590 N   0  0  0  0  0  0  0  0  0  0  0  0
   45.9060   33.8530   44.3590 C   0  0  0  0  0  0  0  0  0  0  0  0
   45.2130   34.3090   45.3770 N   0  0  0  0  0  0  0  0  0  0  0  0
   46.5390   32.5860   44.4530 N   0  0  0  0  0  0  0  0  0  0  0  0
   47.6560   32.2430   43.7690 C   0  0  0  0  0  0  0  0  0  0  0  0
   47.9960   30.9890   44.0780 N   0  0  0  0  0  0  0  0  0  0  0  0
   47.0970   30.5340   44.9580 C   0  0  0  0  0  0  0  0  0  0  0  0
   46.2420   31.5180   45.1570 N   0  0  0  0  0  0  0  0  0  0  0  0
   46.0380   26.6000   47.8450 C   0  0  0  0  0  0  0  0  0  0  0  0
   44.7830   26.8180   48.3790 C   0  0  0  0  0  0  0  0  0  0  0  0
   44.6090   25.7640   49.2860 C   0  0  0  0  0  0  0  0  0  0  0  0
   45.7450   24.9890   49.2450 C   0  0  0  0  0  0  0  0  0  0  0  0
   46.5650   25.5320   48.3710 O   0  0  0  0  0  0  0  0  0  0  0  0
   46.1280   23.8070   49.9380 N   0  0  0  0  0  0  0  0  0  0  0  0
   47.0130   22.6950   49.5850 C   0  0  0  0  0  0  0  0  0  0  0  0
   47.9990   22.7990   50.7570 C   0  0  0  0  0  0  0  0  0  0  0  0
   47.1130   23.2630   51.9210 C   0  0  0  0  0  0  0  0  0  0  0  0
   45.7230   23.3440   51.2760 C   0  0  0  0  0  0  0  0  0  0  0  0
   44.0179   35.8441   46.2249 H   0  0  0  0  0  0  0  0  0  0  0  0
   44.1727   37.2732   44.1637 H   0  0  0  0  0  0  0  0  0  0  0  0
   45.5025   36.4096   42.1950 H   0  0  0  0  0  0  0  0  0  0  0  0
   48.1984   32.8950   43.0686 H   0  0  0  0  0  0  0  0  0  0  0  0
   44.0811   27.6322   48.1458 H   0  0  0  0  0  0  0  0  0  0  0  0
   43.7248   25.5882   49.9163 H   0  0  0  0  0  0  0  0  0  0  0  0
   46.4825   21.7314   49.5754 H   0  0  0  0  0  0  0  0  0  0  0  0
   47.4608   22.7442   48.5815 H   0  0  0  0  0  0  0  0  0  0  0  0
   48.4571   21.8229   50.9748 H   0  0  0  0  0  0  0  0  0  0  0  0
   48.8382   23.4810   50.5553 H   0  0  0  0  0  0  0  0  0  0  0  0
   47.1262   22.5339   52.7445 H   0  0  0  0  0  0  0  0  0  0  0  0
   47.4423   24.2123   52.3685 H   0  0  0  0  0  0  0  0  0  0  0  0
   45.0716   24.0692   51.7856 H   0  0  0  0  0  0  0  0  0  0  0  0
   45.1307   22.4174   51.3011 H   0  0  0  0  0  0  0  0  0  0  0  0
  1  5  1  0
  2  1  2  0
  2  3  1  0
  3  4  1  0
  4 17  1  0
  5  4  2  0
  6 11  2  0
  7  6  1  0
  8  9  1  0
  8  7  2  0
  9 10  2  0
 10 12  1  0
 10 11  1  0
 12 16  1  0
 13 14  2  0
 13 12  1  0
 14 15  1  0
 15 16  2  0
 15  1  1  0
 17 21  1  0
 17 18  2  0
 18 19  1  0
 20 19  2  0
 20 22  1  0
 21 20  1  0
 22 26  1  0
 23 22  1  0
 23 24  1  0
 24 25  1  0
 26 25  1  0
  6 27  1  0
  7 28  1  0
  8 29  1  0
 13 30  1  0
 18 31  1  0
 19 32  1  0
 23 33  1  0
 23 34  1  0
 24 35  1  0
 24 36  1  0
 25 37  1  0
 25 38  1  0
 26 39  1  0
 26 40  1  0
M  ISO  8  27  14  28  14  29  14  30  14  31  14  32  14  33  13  34  13
M  ISO  6  35  13  36  13  37  13  38  13  39  13  40  13
M  END
>  <minimizedAffinity>  (1) 
-5.48322105

>  <minimizedRMSD>  (1) 
0.778891325

$$$$
