
     RDKit          3D

 35 39  0  0  0  0  0  0  0  0999 V2000
   46.8330   29.4130   45.0730 C   0  0  0  0  0  0  0  0  0  0  0  0
   47.3400   28.2950   44.5270 N   0  0  0  0  0  0  0  0  0  0  0  0
   47.0300   27.2860   45.2810 O   0  0  0  0  0  0  0  0  0  0  0  0
   46.3250   27.6750   46.3270 C   0  0  0  0  0  0  0  0  0  0  0  0
   46.1950   29.0210   46.2050 N   0  0  0  0  0  0  0  0  0  0  0  0
   44.5420   35.7910   45.0330 C   0  0  0  0  0  0  0  0  0  0  0  0
   44.7340   36.6350   43.9500 C   0  0  0  0  0  0  0  0  0  0  0  0
   45.5370   36.2070   42.9020 C   0  0  0  0  0  0  0  0  0  0  0  0
   46.0900   34.9530   43.0220 N   0  0  0  0  0  0  0  0  0  0  0  0
   45.8920   34.1590   44.0720 C   0  0  0  0  0  0  0  0  0  0  0  0
   45.1210   34.5740   45.0760 N   0  0  0  0  0  0  0  0  0  0  0  0
   46.4870   32.8720   44.1490 N   0  0  0  0  0  0  0  0  0  0  0  0
   47.6660   32.5440   43.5830 C   0  0  0  0  0  0  0  0  0  0  0  0
   47.9430   31.2530   43.8430 N   0  0  0  0  0  0  0  0  0  0  0  0
   46.9320   30.7800   44.5740 C   0  0  0  0  0  0  0  0  0  0  0  0
   46.0700   31.7730   44.7440 N   0  0  0  0  0  0  0  0  0  0  0  0
   45.8240   26.7840   47.3610 C   0  0  0  0  0  0  0  0  0  0  0  0
   44.4710   26.6380   47.5960 C   0  0  0  0  0  0  0  0  0  0  0  0
   44.3710   25.7180   48.6420 C   0  0  0  0  0  0  0  0  0  0  0  0
   45.6820   25.3600   48.9790 C   0  0  0  0  0  0  0  0  0  0  0  0
   46.4820   26.0250   48.1870 O   0  0  0  0  0  0  0  0  0  0  0  0
   46.0640   24.4280   50.0160 C   0  0  0  0  0  0  0  0  0  0  0  0
   47.2450   23.7240   50.1070 C   0  0  0  0  0  0  0  0  0  0  0  0
   47.2140   22.9330   51.2610 C   0  0  0  0  0  0  0  0  0  0  0  0
   45.9780   23.2230   51.8030 C   0  0  0  0  0  0  0  0  0  0  0  0
   45.3160   24.0970   51.0660 O   0  0  0  0  0  0  0  0  0  0  0  0
   43.9078   36.1191   45.8698 H   0  0  0  0  0  0  0  0  0  0  0  0
   44.2583   37.6264   43.9218 H   0  0  0  0  0  0  0  0  0  0  0  0
   45.7219   36.8383   42.0203 H   0  0  0  0  0  0  0  0  0  0  0  0
   48.3024   33.2256   42.9995 H   0  0  0  0  0  0  0  0  0  0  0  0
   43.6458   27.1405   47.0701 H   0  0  0  0  0  0  0  0  0  0  0  0
   43.4460   25.3481   49.1084 H   0  0  0  0  0  0  0  0  0  0  0  0
   48.0769   23.7754   49.3892 H   0  0  0  0  0  0  0  0  0  0  0  0
   47.9855   22.2480   51.6427 H   0  0  0  0  0  0  0  0  0  0  0  0
   45.5920   22.7810   52.7334 H   0  0  0  0  0  0  0  0  0  0  0  0
  1  5  1  0
  2  1  2  0
  2  3  1  0
  3  4  1  0
  4 17  1  0
  5  4  2  0
  6 11  2  0
  7  6  1  0
  8  9  1  0
  8  7  2  0
  9 10  2  0
 10 12  1  0
 10 11  1  0
 12 16  1  0
 13 14  2  0
 13 12  1  0
 14 15  1  0
 15 16  2  0
 15  1  1  0
 17 18  2  0
 17 21  1  0
 18 19  1  0
 19 20  2  0
 20 22  1  0
 21 20  1  0
 22 23  2  0
 22 26  1  0
 23 24  1  0
 24 25  2  0
 26 25  1  0
  6 27  1  0
  7 28  1  0
  8 29  1  0
 13 30  1  0
 18 31  1  0
 19 32  1  0
 23 33  1  0
 24 34  1  0
 25 35  1  0
M  ISO  8  27  14  28  14  29  14  30  14  31  14  32  14  33  14  34  14
M  ISO  1  35  14
M  END
>  <minimizedAffinity>  (1) 
-5.16062927

>  <minimizedRMSD>  (1) 
0.821744084

$$$$
