
     RDKit          3D

 35 39  0  0  0  0  0  0  0  0999 V2000
   46.7500   29.2630   45.2700 C   0  0  0  0  0  0  0  0  0  0  0  0
   47.2100   28.1190   44.7040 N   0  0  0  0  0  0  0  0  0  0  0  0
   46.9110   27.1250   45.4960 O   0  0  0  0  0  0  0  0  0  0  0  0
   46.2770   27.5470   46.5580 C   0  0  0  0  0  0  0  0  0  0  0  0
   46.1610   28.9030   46.4420 N   0  0  0  0  0  0  0  0  0  0  0  0
   44.5510   35.6590   45.1790 C   0  0  0  0  0  0  0  0  0  0  0  0
   44.7530   36.5000   44.0710 C   0  0  0  0  0  0  0  0  0  0  0  0
   45.5390   36.0410   43.0220 C   0  0  0  0  0  0  0  0  0  0  0  0
   46.0780   34.7800   43.1290 N   0  0  0  0  0  0  0  0  0  0  0  0
   45.8680   33.9930   44.2040 C   0  0  0  0  0  0  0  0  0  0  0  0
   45.1130   34.4370   45.2100 N   0  0  0  0  0  0  0  0  0  0  0  0
   46.4290   32.7020   44.2970 N   0  0  0  0  0  0  0  0  0  0  0  0
   47.5940   32.3470   43.6950 C   0  0  0  0  0  0  0  0  0  0  0  0
   47.8600   31.0620   43.9680 N   0  0  0  0  0  0  0  0  0  0  0  0
   46.8580   30.6130   44.7430 C   0  0  0  0  0  0  0  0  0  0  0  0
   46.0260   31.6270   44.9140 N   0  0  0  0  0  0  0  0  0  0  0  0
   45.8050   26.6960   47.6350 C   0  0  0  0  0  0  0  0  0  0  0  0
   44.4670   26.6590   48.0130 C   0  0  0  0  0  0  0  0  0  0  0  0
   44.3740   25.7490   49.0610 C   0  0  0  0  0  0  0  0  0  0  0  0
   45.6610   25.2880   49.2580 C   0  0  0  0  0  0  0  0  0  0  0  0
   46.4840   25.8730   48.3930 O   0  0  0  0  0  0  0  0  0  0  0  0
   46.1640   24.3440   50.1970 N   0  0  0  0  0  0  0  0  0  0  0  0
   47.4350   23.9040   49.9740 C   0  0  0  0  0  0  0  0  0  0  0  0
   47.7180   23.0040   50.9920 C   0  0  0  0  0  0  0  0  0  0  0  0
   46.6460   22.9210   51.7860 N   0  0  0  0  0  0  0  0  0  0  0  0
   45.6910   23.7380   51.3040 C   0  0  0  0  0  0  0  0  0  0  0  0
   43.9325   36.0005   46.0221 H   0  0  0  0  0  0  0  0  0  0  0  0
   44.2980   37.5009   44.0355 H   0  0  0  0  0  0  0  0  0  0  0  0
   45.7243   36.6650   42.1353 H   0  0  0  0  0  0  0  0  0  0  0  0
   48.2205   33.0099   43.0802 H   0  0  0  0  0  0  0  0  0  0  0  0
   43.6427   27.2369   47.5695 H   0  0  0  0  0  0  0  0  0  0  0  0
   43.4689   25.4586   49.6145 H   0  0  0  0  0  0  0  0  0  0  0  0
   48.1024   24.2024   49.1521 H   0  0  0  0  0  0  0  0  0  0  0  0
   48.6616   22.4540   51.1228 H   0  0  0  0  0  0  0  0  0  0  0  0
   44.6922   23.8862   51.7404 H   0  0  0  0  0  0  0  0  0  0  0  0
  1  5  1  0
  2  1  2  0
  2  3  1  0
  3  4  1  0
  4 17  1  0
  5  4  2  0
  6 11  2  0
  7  6  1  0
  8  9  1  0
  8  7  2  0
  9 10  2  0
 10 12  1  0
 10 11  1  0
 12 16  1  0
 13 14  2  0
 13 12  1  0
 14 15  1  0
 15 16  2  0
 15  1  1  0
 17 18  2  0
 17 21  1  0
 18 19  1  0
 19 20  2  0
 20 22  1  0
 21 20  1  0
 22 26  1  0
 23 22  1  0
 23 24  2  0
 24 25  1  0
 26 25  2  0
  6 27  1  0
  7 28  1  0
  8 29  1  0
 13 30  1  0
 18 31  1  0
 19 32  1  0
 23 33  1  0
 24 34  1  0
 26 35  1  0
M  ISO  8  27  14  28  14  29  14  30  14  31  14  32  14  33  14  34  14
M  ISO  1  35  14
M  END
>  <minimizedAffinity>  (1) 
-5.18638945

>  <minimizedRMSD>  (1) 
0.745800734

$$$$
