
     RDKit          3D

 31 34  0  0  0  0  0  0  0  0999 V2000
   47.0520   29.2460   45.6160 C   0  0  0  0  0  0  0  0  0  0  0  0
   47.8320   28.1830   45.3040 N   0  0  0  0  0  0  0  0  0  0  0  0
   47.5050   27.2020   46.0910 O   0  0  0  0  0  0  0  0  0  0  0  0
   46.5540   27.5500   46.9110 C   0  0  0  0  0  0  0  0  0  0  0  0
   46.2490   28.8470   46.6250 N   0  0  0  0  0  0  0  0  0  0  0  0
   44.5900   35.5380   45.3070 C   0  0  0  0  0  0  0  0  0  0  0  0
   44.7000   36.3270   44.1480 C   0  0  0  0  0  0  0  0  0  0  0  0
   45.4410   35.8460   43.0740 C   0  0  0  0  0  0  0  0  0  0  0  0
   46.0190   34.6120   43.2310 N   0  0  0  0  0  0  0  0  0  0  0  0
   45.9070   33.8720   44.3360 C   0  0  0  0  0  0  0  0  0  0  0  0
   45.2000   34.3470   45.3430 N   0  0  0  0  0  0  0  0  0  0  0  0
   46.5160   32.6080   44.4620 N   0  0  0  0  0  0  0  0  0  0  0  0
   47.6410   32.2460   43.7770 C   0  0  0  0  0  0  0  0  0  0  0  0
   47.9770   30.9900   44.1040 N   0  0  0  0  0  0  0  0  0  0  0  0
   47.0630   30.5650   44.9950 C   0  0  0  0  0  0  0  0  0  0  0  0
   46.2120   31.5570   45.1790 N   0  0  0  0  0  0  0  0  0  0  0  0
   45.9460   26.6890   47.9330 C   0  0  0  0  0  0  0  0  0  0  0  0
   44.6620   26.8730   48.3840 C   0  0  0  0  0  0  0  0  0  0  0  0
   44.4580   25.8720   49.3350 C   0  0  0  0  0  0  0  0  0  0  0  0
   45.6310   25.1450   49.4020 C   0  0  0  0  0  0  0  0  0  0  0  0
   46.4980   25.6690   48.5440 O   0  0  0  0  0  0  0  0  0  0  0  0
   45.9750   23.9660   50.2460 C   0  0  0  0  0  0  0  0  0  0  0  0
   45.7800   22.8050   49.5440 F   0  0  0  0  0  0  0  0  0  0  0  0
   47.3120   23.9930   50.6270 F   0  0  0  0  0  0  0  0  0  0  0  0
   45.2430   23.9660   51.4080 F   0  0  0  0  0  0  0  0  0  0  0  0
   44.0109   35.8945   46.1716 H   0  0  0  0  0  0  0  0  0  0  0  0
   44.2077   37.3091   44.0919 H   0  0  0  0  0  0  0  0  0  0  0  0
   45.5576   36.4254   42.1462 H   0  0  0  0  0  0  0  0  0  0  0  0
   48.1864   32.8856   43.0674 H   0  0  0  0  0  0  0  0  0  0  0  0
   43.9467   27.6449   48.0639 H   0  0  0  0  0  0  0  0  0  0  0  0
   43.5417   25.6961   49.9177 H   0  0  0  0  0  0  0  0  0  0  0  0
  1  5  1  0
  2  1  2  0
  2  3  1  0
  3  4  1  0
  4 17  1  0
  5  4  2  0
  6 11  2  0
  7  6  1  0
  8  9  1  0
  8  7  2  0
  9 10  2  0
 10 12  1  0
 10 11  1  0
 12 16  1  0
 13 14  2  0
 13 12  1  0
 14 15  1  0
 15 16  2  0
 15  1  1  0
 17 18  2  0
 17 21  1  0
 18 19  1  0
 19 20  2  0
 20 22  1  0
 21 20  1  0
 22 24  1  0
 22 25  1  0
 23 22  1  0
  6 26  1  0
  7 27  1  0
  8 28  1  0
 13 29  1  0
 18 30  1  0
 19 31  1  0
M  ISO  6  26  14  27  14  28  14  29  14  30  14  31  14
M  END
>  <minimizedAffinity>  (1) 
-5.23577785

>  <minimizedRMSD>  (1) 
0.178494006

$$$$
