
     RDKit          3D

 35 39  0  0  0  0  0  0  0  0999 V2000
   46.8010   29.2720   45.3320 C   0  0  0  0  0  0  0  0  0  0  0  0
   47.3540   28.1390   44.8150 N   0  0  0  0  0  0  0  0  0  0  0  0
   47.0380   27.1550   45.6050 O   0  0  0  0  0  0  0  0  0  0  0  0
   46.3040   27.5750   46.6170 C   0  0  0  0  0  0  0  0  0  0  0  0
   46.1470   28.9110   46.4570 N   0  0  0  0  0  0  0  0  0  0  0  0
   44.5530   35.6490   45.1940 C   0  0  0  0  0  0  0  0  0  0  0  0
   44.7420   36.4830   44.0780 C   0  0  0  0  0  0  0  0  0  0  0  0
   45.5250   36.0250   43.0180 C   0  0  0  0  0  0  0  0  0  0  0  0
   46.0610   34.7670   43.1550 N   0  0  0  0  0  0  0  0  0  0  0  0
   45.8740   33.9840   44.2200 C   0  0  0  0  0  0  0  0  0  0  0  0
   45.1260   34.4400   45.2160 N   0  0  0  0  0  0  0  0  0  0  0  0
   46.4480   32.6940   44.3140 N   0  0  0  0  0  0  0  0  0  0  0  0
   47.5960   32.3440   43.6920 C   0  0  0  0  0  0  0  0  0  0  0  0
   47.8680   31.0580   43.9810 N   0  0  0  0  0  0  0  0  0  0  0  0
   46.8930   30.6170   44.7810 C   0  0  0  0  0  0  0  0  0  0  0  0
   46.0550   31.6240   44.9630 N   0  0  0  0  0  0  0  0  0  0  0  0
   45.7890   26.7120   47.6810 C   0  0  0  0  0  0  0  0  0  0  0  0
   44.4590   26.6710   48.0040 C   0  0  0  0  0  0  0  0  0  0  0  0
   44.3490   25.7520   49.0430 C   0  0  0  0  0  0  0  0  0  0  0  0
   45.6250   25.2860   49.2910 C   0  0  0  0  0  0  0  0  0  0  0  0
   46.4480   25.8910   48.4500 O   0  0  0  0  0  0  0  0  0  0  0  0
   46.1370   24.3500   50.2190 N   0  0  0  0  0  0  0  0  0  0  0  0
   47.3900   23.9850   49.9750 N   0  0  0  0  0  0  0  0  0  0  0  0
   47.8040   23.0960   50.8970 C   0  0  0  0  0  0  0  0  0  0  0  0
   46.7280   22.9140   51.7560 C   0  0  0  0  0  0  0  0  0  0  0  0
   45.6850   23.7100   51.3150 C   0  0  0  0  0  0  0  0  0  0  0  0
   43.9393   35.9875   46.0418 H   0  0  0  0  0  0  0  0  0  0  0  0
   44.2799   37.4806   44.0412 H   0  0  0  0  0  0  0  0  0  0  0  0
   45.7035   36.6372   42.1217 H   0  0  0  0  0  0  0  0  0  0  0  0
   48.2065   33.0012   43.0553 H   0  0  0  0  0  0  0  0  0  0  0  0
   43.6452   27.2461   47.5381 H   0  0  0  0  0  0  0  0  0  0  0  0
   43.4270   25.4551   49.5643 H   0  0  0  0  0  0  0  0  0  0  0  0
   48.7906   22.6134   50.9576 H   0  0  0  0  0  0  0  0  0  0  0  0
   46.7081   22.2521   52.6344 H   0  0  0  0  0  0  0  0  0  0  0  0
   44.6870   23.8017   51.7685 H   0  0  0  0  0  0  0  0  0  0  0  0
  1  5  1  0
  2  1  2  0
  2  3  1  0
  3  4  1  0
  4 17  1  0
  5  4  2  0
  6 11  2  0
  7  6  1  0
  8  9  1  0
  8  7  2  0
  9 10  2  0
 10 12  1  0
 10 11  1  0
 12 16  1  0
 13 14  2  0
 13 12  1  0
 14 15  1  0
 15 16  2  0
 15  1  1  0
 17 18  2  0
 17 21  1  0
 18 19  1  0
 19 20  2  0
 20 22  1  0
 21 20  1  0
 22 26  1  0
 23 22  1  0
 23 24  2  0
 24 25  1  0
 26 25  2  0
  6 27  1  0
  7 28  1  0
  8 29  1  0
 13 30  1  0
 18 31  1  0
 19 32  1  0
 24 33  1  0
 25 34  1  0
 26 35  1  0
M  ISO  8  27  14  28  14  29  14  30  14  31  14  32  14  33  14  34  14
M  ISO  1  35  14
M  END
>  <minimizedAffinity>  (1) 
-5.2439971

>  <minimizedRMSD>  (1) 
0.500953913

$$$$
