
     RDKit          3D

 34 37  0  0  0  0  0  0  0  0999 V2000
   44.6130   35.3670   45.4850 C   0  0  0  0  0  0  0  0  0  0  0  0
   44.7440   36.1460   44.3280 C   0  0  0  0  0  0  0  0  0  0  0  0
   45.4620   35.6250   43.2500 C   0  0  0  0  0  0  0  0  0  0  0  0
   45.9810   34.3730   43.4310 N   0  0  0  0  0  0  0  0  0  0  0  0
   45.8470   33.6440   44.5370 C   0  0  0  0  0  0  0  0  0  0  0  0
   45.1700   34.1430   45.5450 N   0  0  0  0  0  0  0  0  0  0  0  0
   46.4170   32.3490   44.6490 N   0  0  0  0  0  0  0  0  0  0  0  0
   47.5440   31.9540   44.0120 C   0  0  0  0  0  0  0  0  0  0  0  0
   47.8090   30.6770   44.3320 N   0  0  0  0  0  0  0  0  0  0  0  0
   46.8460   30.2760   45.1700 C   0  0  0  0  0  0  0  0  0  0  0  0
   46.0170   31.3110   45.3430 N   0  0  0  0  0  0  0  0  0  0  0  0
   46.7400   28.9530   45.7700 C   0  0  0  0  0  0  0  0  0  0  0  0
   47.2550   27.7940   45.2790 N   0  0  0  0  0  0  0  0  0  0  0  0
   46.9370   26.8500   46.1090 O   0  0  0  0  0  0  0  0  0  0  0  0
   46.2430   27.3040   47.1270 C   0  0  0  0  0  0  0  0  0  0  0  0
   46.1130   28.6350   46.9190 N   0  0  0  0  0  0  0  0  0  0  0  0
   45.7460   26.4840   48.2210 C   0  0  0  0  0  0  0  0  0  0  0  0
   44.4860   26.6770   48.7610 C   0  0  0  0  0  0  0  0  0  0  0  0
   44.3820   25.7090   49.7700 C   0  0  0  0  0  0  0  0  0  0  0  0
   45.5830   24.9890   49.7810 C   0  0  0  0  0  0  0  0  0  0  0  0
   46.3360   25.5010   48.8410 O   0  0  0  0  0  0  0  0  0  0  0  0
   45.8370   23.8740   50.7270 C   0  0  0  0  0  0  0  0  0  0  0  0
   46.9600   23.0070   50.1880 C   0  0  0  0  0  0  0  0  0  0  0  0
   44.0529   35.7570   46.3476 H   0  0  0  0  0  0  0  0  0  0  0  0
   44.2909   37.1467   44.2702 H   0  0  0  0  0  0  0  0  0  0  0  0
   45.6014   36.1862   42.3142 H   0  0  0  0  0  0  0  0  0  0  0  0
   48.1476   32.5802   43.3385 H   0  0  0  0  0  0  0  0  0  0  0  0
   43.7342   27.4233   48.4646 H   0  0  0  0  0  0  0  0  0  0  0  0
   43.5176   25.5455   50.4303 H   0  0  0  0  0  0  0  0  0  0  0  0
   46.1253   24.2818   51.7071 H   0  0  0  0  0  0  0  0  0  0  0  0
   44.9248   23.2694   50.8385 H   0  0  0  0  0  0  0  0  0  0  0  0
   47.5229   22.5725   51.0273 H   0  0  0  0  0  0  0  0  0  0  0  0
   46.5367   22.1992   49.5730 H   0  0  0  0  0  0  0  0  0  0  0  0
   47.6344   23.6210   49.5730 H   0  0  0  0  0  0  0  0  0  0  0  0
  1  6  2  0
  2  1  1  0
  3  4  1  0
  3  2  2  0
  4  5  2  0
  5  7  1  0
  5  6  1  0
  7 11  1  0
  8  9  2  0
  8  7  1  0
  9 10  1  0
 10 11  2  0
 10 12  1  0
 12 16  1  0
 13 12  2  0
 13 14  1  0
 14 15  1  0
 15 17  1  0
 16 15  2  0
 17 18  2  0
 17 21  1  0
 18 19  1  0
 19 20  2  0
 20 22  1  0
 21 20  1  0
 23 22  1  0
  1 24  1  0
  2 25  1  0
  3 26  1  0
  8 27  1  0
 18 28  1  0
 19 29  1  0
 22 30  1  0
 22 31  1  0
 23 32  1  0
 23 33  1  0
 23 34  1  0
M  ISO  8  24  14  25  14  26  14  27  14  28  14  29  14  30   8  31   8
M  ISO  3  32   8  33   8  34   8
M  END
>  <minimizedAffinity>  (1) 
-4.93941593

>  <minimizedRMSD>  (1) 
0.424194783

$$$$
