
     RDKit          3D

 34 38  0  0  0  0  0  0  0  0999 V2000
   46.8210   29.4090   44.9580 C   0  0  0  0  0  0  0  0  0  0  0  0
   47.2880   28.2900   44.3570 N   0  0  0  0  0  0  0  0  0  0  0  0
   46.9930   27.2850   45.1190 O   0  0  0  0  0  0  0  0  0  0  0  0
   46.3570   27.6550   46.1940 C   0  0  0  0  0  0  0  0  0  0  0  0
   46.2430   29.0020   46.1010 N   0  0  0  0  0  0  0  0  0  0  0  0
   44.5380   35.7870   45.0670 C   0  0  0  0  0  0  0  0  0  0  0  0
   44.7170   36.6570   43.9990 C   0  0  0  0  0  0  0  0  0  0  0  0
   45.5070   36.2410   42.9360 C   0  0  0  0  0  0  0  0  0  0  0  0
   46.0750   34.9800   43.0000 N   0  0  0  0  0  0  0  0  0  0  0  0
   45.8770   34.1730   44.0470 C   0  0  0  0  0  0  0  0  0  0  0  0
   45.1180   34.5730   45.0660 N   0  0  0  0  0  0  0  0  0  0  0  0
   46.4630   32.8840   44.0990 N   0  0  0  0  0  0  0  0  0  0  0  0
   47.6410   32.5680   43.5070 C   0  0  0  0  0  0  0  0  0  0  0  0
   47.9200   31.2770   43.7390 N   0  0  0  0  0  0  0  0  0  0  0  0
   46.9130   30.7840   44.4810 C   0  0  0  0  0  0  0  0  0  0  0  0
   46.0590   31.7770   44.6770 N   0  0  0  0  0  0  0  0  0  0  0  0
   45.8820   26.7660   47.2580 C   0  0  0  0  0  0  0  0  0  0  0  0
   44.5570   26.5960   47.5580 C   0  0  0  0  0  0  0  0  0  0  0  0
   44.5510   25.6860   48.6090 C   0  0  0  0  0  0  0  0  0  0  0  0
   45.8780   25.3450   48.8990 C   0  0  0  0  0  0  0  0  0  0  0  0
   46.6010   26.0300   48.0510 O   0  0  0  0  0  0  0  0  0  0  0  0
   46.3830   24.4140   49.9340 C   0  0  0  0  0  0  0  0  0  0  0  0
   47.7040   23.9790   49.8710 C   0  0  0  0  0  0  0  0  0  0  0  0
   47.8280   22.9000   51.3030 S   0  0  0  0  0  0  0  0  0  0  0  0
   46.0150   23.2150   51.7810 C   0  0  0  0  0  0  0  0  0  0  0  0
   45.6190   23.9820   50.9180 N   0  0  0  0  0  0  0  0  0  0  0  0
   43.9164   36.0934   45.9213 H   0  0  0  0  0  0  0  0  0  0  0  0
   44.2447   37.6504   43.9957 H   0  0  0  0  0  0  0  0  0  0  0  0
   45.6768   36.8946   42.0677 H   0  0  0  0  0  0  0  0  0  0  0  0
   48.2688   33.2611   42.9278 H   0  0  0  0  0  0  0  0  0  0  0  0
   43.6910   27.0727   47.0755 H   0  0  0  0  0  0  0  0  0  0  0  0
   43.6585   25.3006   49.1237 H   0  0  0  0  0  0  0  0  0  0  0  0
   48.4774   24.2321   49.1309 H   0  0  0  0  0  0  0  0  0  0  0  0
   45.4552   22.8033   52.6337 H   0  0  0  0  0  0  0  0  0  0  0  0
  1  5  1  0
  2  1  2  0
  2  3  1  0
  3  4  1  0
  4 17  1  0
  5  4  2  0
  7  6  2  0
  8  9  2  0
  8  7  1  0
  9 10  1  0
 10 12  1  0
 10 11  2  0
 11  6  1  0
 12 16  1  0
 13 14  2  0
 13 12  1  0
 14 15  1  0
 15 16  2  0
 15  1  1  0
 17 18  2  0
 17 21  1  0
 18 19  1  0
 19 20  2  0
 20 22  1  0
 21 20  1  0
 22 26  1  0
 23 22  2  0
 23 24  1  0
 24 25  1  0
 26 25  2  0
  6 27  1  0
  7 28  1  0
  8 29  1  0
 13 30  1  0
 18 31  1  0
 19 32  1  0
 23 33  1  0
 25 34  1  0
M  ISO  8  27  14  28  14  29  14  30  14  31  14  32  14  33  14  34  14
M  END
>  <minimizedAffinity>  (1) 
-5.00771904

>  <minimizedRMSD>  (1) 
0.865594149

$$$$
