
     RDKit          3D

 37 40  0  0  0  0  0  0  0  0999 V2000
   44.6060   35.2840   45.6940 C   0  0  0  0  0  0  0  0  0  0  0  0
   44.5810   36.0570   44.5440 C   0  0  0  0  0  0  0  0  0  0  0  0
   45.2360   35.5830   43.3910 C   0  0  0  0  0  0  0  0  0  0  0  0
   45.8600   34.3640   43.5100 N   0  0  0  0  0  0  0  0  0  0  0  0
   45.8650   33.6420   44.6450 C   0  0  0  0  0  0  0  0  0  0  0  0
   45.2460   34.1010   45.7140 N   0  0  0  0  0  0  0  0  0  0  0  0
   46.5290   32.3890   44.7040 N   0  0  0  0  0  0  0  0  0  0  0  0
   47.6280   32.0640   43.9680 C   0  0  0  0  0  0  0  0  0  0  0  0
   47.9960   30.8170   44.2650 N   0  0  0  0  0  0  0  0  0  0  0  0
   47.1300   30.3480   45.1910 C   0  0  0  0  0  0  0  0  0  0  0  0
   46.2620   31.3220   45.4300 N   0  0  0  0  0  0  0  0  0  0  0  0
   47.1760   29.0250   45.7840 C   0  0  0  0  0  0  0  0  0  0  0  0
   48.0110   28.0180   45.4760 N   0  0  0  0  0  0  0  0  0  0  0  0
   47.7240   27.0020   46.2390 O   0  0  0  0  0  0  0  0  0  0  0  0
   46.7230   27.2920   47.0500 C   0  0  0  0  0  0  0  0  0  0  0  0
   46.3700   28.5700   46.7700 N   0  0  0  0  0  0  0  0  0  0  0  0
   46.1720   26.3640   48.0200 C   0  0  0  0  0  0  0  0  0  0  0  0
   44.9230   26.5410   48.5640 C   0  0  0  0  0  0  0  0  0  0  0  0
   44.7480   25.4570   49.4440 C   0  0  0  0  0  0  0  0  0  0  0  0
   45.9170   24.6890   49.3730 C   0  0  0  0  0  0  0  0  0  0  0  0
   46.7100   25.2800   48.5180 O   0  0  0  0  0  0  0  0  0  0  0  0
   46.2020   23.4310   50.1330 C   0  0  0  0  0  0  0  0  0  0  0  0
   47.6720   23.1700   50.2900 C   0  0  0  0  0  0  0  0  0  0  0  0
   45.6090   23.5060   51.5400 C   0  0  0  0  0  0  0  0  0  0  0  0
   44.0966   35.6420   46.6009 H   0  0  0  0  0  0  0  0  0  0  0  0
   44.0582   37.0247   44.5321 H   0  0  0  0  0  0  0  0  0  0  0  0
   45.2476   36.1543   42.4510 H   0  0  0  0  0  0  0  0  0  0  0  0
   48.1308   32.7235   43.2454 H   0  0  0  0  0  0  0  0  0  0  0  0
   44.2127   27.3548   48.3564 H   0  0  0  0  0  0  0  0  0  0  0  0
   43.8646   25.2525   50.0667 H   0  0  0  0  0  0  0  0  0  0  0  0
   45.7472   22.6194   49.5461 H   0  0  0  0  0  0  0  0  0  0  0  0
   47.9242   23.1252   51.3598 H   0  0  0  0  0  0  0  0  0  0  0  0
   47.9274   22.2125   49.8126 H   0  0  0  0  0  0  0  0  0  0  0  0
   48.2414   23.9811   49.8126 H   0  0  0  0  0  0  0  0  0  0  0  0
   46.4138   23.4042   52.2830 H   0  0  0  0  0  0  0  0  0  0  0  0
   45.1060   24.4749   51.6747 H   0  0  0  0  0  0  0  0  0  0  0  0
   44.8806   22.6928   51.6747 H   0  0  0  0  0  0  0  0  0  0  0  0
  1  6  2  0
  2  1  1  0
  3  4  1  0
  3  2  2  0
  4  5  2  0
  5  7  1  0
  5  6  1  0
  7 11  1  0
  8  9  2  0
  8  7  1  0
  9 10  1  0
 10 11  2  0
 10 12  1  0
 12 16  1  0
 13 12  2  0
 13 14  1  0
 14 15  1  0
 15 17  1  0
 16 15  2  0
 17 21  1  0
 17 18  2  0
 18 19  1  0
 20 19  2  0
 20 22  1  0
 21 20  1  0
 22 23  1  0
 22 24  1  0
  1 25  1  0
  2 26  1  0
  3 27  1  0
  8 28  1  0
 18 29  1  0
 19 30  1  0
 22 31  1  0
 23 32  1  0
 23 33  1  0
 23 34  1  0
 24 35  1  0
 24 36  1  0
 24 37  1  0
M  ISO  8  25  14  26  14  27  14  28  14  29  14  30  14  31   8  32   8
M  ISO  5  33   8  34   8  35   8  36   8  37   8
M  END
>  <minimizedAffinity>  (1) 
-5.05317593

>  <minimizedRMSD>  (1) 
0.607609272

$$$$
