
     RDKit          3D

 29 32  0  0  0  0  0  0  0  0999 V2000
   44.6000   35.5310   45.3130 C   0  0  0  0  0  0  0  0  0  0  0  0
   44.7010   36.2530   44.1310 C   0  0  0  0  0  0  0  0  0  0  0  0
   45.4380   35.7210   43.0560 C   0  0  0  0  0  0  0  0  0  0  0  0
   46.0120   34.4940   43.2800 N   0  0  0  0  0  0  0  0  0  0  0  0
   45.9080   33.8100   44.4220 C   0  0  0  0  0  0  0  0  0  0  0  0
   45.2100   34.3420   45.4060 N   0  0  0  0  0  0  0  0  0  0  0  0
   46.5190   32.5550   44.5940 N   0  0  0  0  0  0  0  0  0  0  0  0
   47.6390   32.1570   43.9270 C   0  0  0  0  0  0  0  0  0  0  0  0
   47.9650   30.9170   44.3150 N   0  0  0  0  0  0  0  0  0  0  0  0
   47.0520   30.5320   45.2250 C   0  0  0  0  0  0  0  0  0  0  0  0
   46.2010   31.5390   45.3690 N   0  0  0  0  0  0  0  0  0  0  0  0
   47.0310   29.2490   45.9050 C   0  0  0  0  0  0  0  0  0  0  0  0
   47.9410   28.2490   45.7930 N   0  0  0  0  0  0  0  0  0  0  0  0
   47.5610   27.2780   46.5610 O   0  0  0  0  0  0  0  0  0  0  0  0
   46.4400   27.5720   47.1840 C   0  0  0  0  0  0  0  0  0  0  0  0
   46.0960   28.8130   46.7800 N   0  0  0  0  0  0  0  0  0  0  0  0
   45.7530   26.6770   48.1250 C   0  0  0  0  0  0  0  0  0  0  0  0
   44.4770   26.9660   48.5820 C   0  0  0  0  0  0  0  0  0  0  0  0
   44.1720   25.9010   49.4410 C   0  0  0  0  0  0  0  0  0  0  0  0
   45.2620   25.0530   49.4490 C   0  0  0  0  0  0  0  0  0  0  0  0
   46.1850   25.5630   48.6430 O   0  0  0  0  0  0  0  0  0  0  0  0
   45.5400   23.8550   50.1000 O   0  0  0  0  0  0  0  0  0  0  0  0
   44.0263   35.9305   46.1623 H   0  0  0  0  0  0  0  0  0  0  0  0
   44.2093   37.2323   44.0355 H   0  0  0  0  0  0  0  0  0  0  0  0
   45.5468   36.2533   42.0995 H   0  0  0  0  0  0  0  0  0  0  0  0
   48.1880   32.7585   43.1875 H   0  0  0  0  0  0  0  0  0  0  0  0
   43.8480   27.8322   48.3288 H   0  0  0  0  0  0  0  0  0  0  0  0
   43.2371   25.7657   50.0046 H   0  0  0  0  0  0  0  0  0  0  0  0
   46.4097   23.4042   49.9571 H   0  0  0  0  0  0  0  0  0  0  0  0
  1  6  2  0
  2  1  1  0
  3  4  1  0
  3  2  2  0
  4  5  2  0
  5  7  1  0
  5  6  1  0
  7 11  1  0
  8  9  2  0
  8  7  1  0
  9 10  1  0
 10 11  2  0
 10 12  1  0
 12 16  1  0
 13 12  2  0
 13 14  1  0
 14 15  1  0
 15 17  1  0
 16 15  2  0
 17 18  2  0
 17 21  1  0
 18 19  1  0
 19 20  2  0
 20 22  1  0
 21 20  1  0
  1 23  1  0
  2 24  1  0
  3 25  1  0
  8 26  1  0
 18 27  1  0
 19 28  1  0
 22 29  1  0
M  ISO  7  23  14  24  14  25  14  26  14  27  14  28  14  29   3
M  END
>  <minimizedAffinity>  (1) 
-5.01648569

>  <minimizedRMSD>  (1) 
0.153445914

$$$$
