
     RDKit          3D

 34 38  0  0  0  0  0  0  0  0999 V2000
   46.8850   29.3390   45.1320 C   0  0  0  0  0  0  0  0  0  0  0  0
   47.3970   28.2170   44.5850 N   0  0  0  0  0  0  0  0  0  0  0  0
   47.1050   27.2160   45.3680 O   0  0  0  0  0  0  0  0  0  0  0  0
   46.4240   27.6100   46.4110 C   0  0  0  0  0  0  0  0  0  0  0  0
   46.2680   28.9610   46.2870 N   0  0  0  0  0  0  0  0  0  0  0  0
   44.5400   35.6960   45.1050 C   0  0  0  0  0  0  0  0  0  0  0  0
   44.7430   36.5580   44.0220 C   0  0  0  0  0  0  0  0  0  0  0  0
   45.5570   36.1320   42.9790 C   0  0  0  0  0  0  0  0  0  0  0  0
   46.1010   34.8800   43.1000 N   0  0  0  0  0  0  0  0  0  0  0  0
   45.9000   34.0700   44.1360 C   0  0  0  0  0  0  0  0  0  0  0  0
   45.1280   34.4900   45.1140 N   0  0  0  0  0  0  0  0  0  0  0  0
   46.4950   32.7860   44.2000 N   0  0  0  0  0  0  0  0  0  0  0  0
   47.6510   32.4530   43.5840 C   0  0  0  0  0  0  0  0  0  0  0  0
   47.9390   31.1700   43.8400 N   0  0  0  0  0  0  0  0  0  0  0  0
   46.9530   30.7000   44.6220 C   0  0  0  0  0  0  0  0  0  0  0  0
   46.1070   31.6950   44.8180 N   0  0  0  0  0  0  0  0  0  0  0  0
   45.9490   26.7340   47.4690 C   0  0  0  0  0  0  0  0  0  0  0  0
   44.5970   26.6140   47.7640 C   0  0  0  0  0  0  0  0  0  0  0  0
   44.5070   25.7010   48.8210 C   0  0  0  0  0  0  0  0  0  0  0  0
   45.8080   25.3270   49.0970 C   0  0  0  0  0  0  0  0  0  0  0  0
   46.6300   25.9650   48.2710 O   0  0  0  0  0  0  0  0  0  0  0  0
   46.1780   24.4030   50.1140 N   0  0  0  0  0  0  0  0  0  0  0  0
   47.3880   23.7720   50.1140 C   0  0  0  0  0  0  0  0  0  0  0  0
   47.4960   22.9530   51.1730 N   0  0  0  0  0  0  0  0  0  0  0  0
   46.3350   23.0700   51.8500 C   0  0  0  0  0  0  0  0  0  0  0  0
   45.5480   23.9570   51.1850 N   0  0  0  0  0  0  0  0  0  0  0  0
   43.9012   36.0055   45.9453 H   0  0  0  0  0  0  0  0  0  0  0  0
   44.2692   37.5504   43.9965 H   0  0  0  0  0  0  0  0  0  0  0  0
   45.7542   36.7665   42.1024 H   0  0  0  0  0  0  0  0  0  0  0  0
   48.2607   33.1304   42.9680 H   0  0  0  0  0  0  0  0  0  0  0  0
   43.7641   27.1325   47.2666 H   0  0  0  0  0  0  0  0  0  0  0  0
   43.5931   25.3543   49.3256 H   0  0  0  0  0  0  0  0  0  0  0  0
   48.1678   23.9146   49.3514 H   0  0  0  0  0  0  0  0  0  0  0  0
   46.0713   22.5406   52.7775 H   0  0  0  0  0  0  0  0  0  0  0  0
  1  5  1  0
  2  1  2  0
  2  3  1  0
  3  4  1  0
  4 17  1  0
  5  4  2  0
  6 11  2  0
  7  6  1  0
  8  9  1  0
  8  7  2  0
  9 10  2  0
 10 12  1  0
 10 11  1  0
 12 16  1  0
 13 14  2  0
 13 12  1  0
 14 15  1  0
 15 16  2  0
 15  1  1  0
 17 18  2  0
 17 21  1  0
 18 19  1  0
 19 20  2  0
 20 22  1  0
 21 20  1  0
 22 23  1  0
 22 26  1  0
 23 24  2  0
 24 25  1  0
 26 25  2  0
  6 27  1  0
  7 28  1  0
  8 29  1  0
 13 30  1  0
 18 31  1  0
 19 32  1  0
 23 33  1  0
 25 34  1  0
M  ISO  8  27  14  28  14  29  14  30  14  31  14  32  14  33  14  34  14
M  END
>  <minimizedAffinity>  (1) 
-5.06390476

>  <minimizedRMSD>  (1) 
0.698179722

$$$$
