
     RDKit          3D

 38 40  0  0  1  0  0  0  0  0999 V2000
   44.7790   34.8820   45.5980 C   0  0  0  0  0  0  0  0  0  0  0  0
   44.4630   35.9670   44.7620 C   0  0  0  0  0  0  0  0  0  0  0  0
   45.1060   36.0650   43.5270 C   0  0  0  0  0  0  0  0  0  0  0  0
   46.0000   35.1040   43.2080 N   0  0  0  0  0  0  0  0  0  0  0  0
   46.2980   34.0600   44.0230 C   0  0  0  0  0  0  0  0  0  0  0  0
   45.6820   33.9670   45.2040 N   0  0  0  0  0  0  0  0  0  0  0  0
   47.2350   33.0590   43.6800 N   0  0  0  0  0  0  0  0  0  0  0  0
   48.1110   33.3690   42.6870 C   0  0  0  0  0  0  0  0  0  0  0  0
   48.9140   32.2510   42.5460 C   0  0  0  0  0  0  0  0  0  0  0  0
   48.5260   31.2970   43.4320 N   0  0  0  0  0  0  0  0  0  0  0  0
   47.5140   31.7910   44.1130 C   0  0  0  0  0  0  0  0  0  0  0  0
   46.7520   31.1220   45.1630 C   0  0  2  0  0  0  0  0  0  0  0  0
   47.5940   31.1440   46.4230 C   0  0  0  0  0  0  0  0  0  0  0  0
   46.5020   29.6690   44.7920 C   0  0  0  0  0  0  0  0  0  0  0  0
   45.6510   28.9790   45.6260 N   0  0  0  0  0  0  0  0  0  0  0  0
   44.7470   29.6660   46.4530 C   0  0  0  0  0  0  0  0  0  0  0  0
   45.0090   29.0280   47.8200 C   0  0  0  0  0  0  0  0  0  0  0  0
   45.9390   27.8490   47.5730 C   0  0  0  0  0  0  0  0  0  0  0  0
   45.8470   27.6670   46.0480 C   0  0  0  0  0  0  0  0  0  0  0  0
   44.2866   34.7813   46.5765 H   0  0  0  0  0  0  0  0  0  0  0  0
   43.7259   36.7215   45.0739 H   0  0  0  0  0  0  0  0  0  0  0  0
   44.8923   36.8954   42.8380 H   0  0  0  0  0  0  0  0  0  0  0  0
   48.1688   34.3082   42.1174 H   0  0  0  0  0  0  0  0  0  0  0  0
   49.7401   32.1501   41.8267 H   0  0  0  0  0  0  0  0  0  0  0  0
   45.7874   31.6321   45.3024 H   0  0  0  0  0  0  0  0  0  0  0  0
   46.9358   31.1268   47.3042 H   0  0  0  0  0  0  0  0  0  0  0  0
   48.2521   30.2627   46.4397 H   0  0  0  0  0  0  0  0  0  0  0  0
   48.2052   32.0584   46.4397 H   0  0  0  0  0  0  0  0  0  0  0  0
   46.0739   29.6474   43.7789 H   0  0  0  0  0  0  0  0  0  0  0  0
   47.4767   29.1659   44.8744 H   0  0  0  0  0  0  0  0  0  0  0  0
   44.9617   30.7447   46.4687 H   0  0  0  0  0  0  0  0  0  0  0  0
   43.7005   29.5884   46.1231 H   0  0  0  0  0  0  0  0  0  0  0  0
   45.4867   29.7547   48.4937 H   0  0  0  0  0  0  0  0  0  0  0  0
   44.0713   28.7035   48.2948 H   0  0  0  0  0  0  0  0  0  0  0  0
   46.9680   28.0822   47.8843 H   0  0  0  0  0  0  0  0  0  0  0  0
   45.6643   26.9472   48.1399 H   0  0  0  0  0  0  0  0  0  0  0  0
   44.9989   27.0240   45.7700 H   0  0  0  0  0  0  0  0  0  0  0  0
   46.7239   27.1768   45.6000 H   0  0  0  0  0  0  0  0  0  0  0  0
  2  1  2  0
  3  2  1  0
  4  3  2  0
  4  5  1  0
  5  6  2  0
  6  1  1  0
  7  5  1  0
  7 11  1  0
  8  7  1  0
  9  8  2  0
  9 10  1  0
 10 11  2  0
 11 12  1  0
 12 13  1  0
 14 12  1  0
 14 15  1  0
 15 19  1  0
 15 16  1  0
 16 17  1  0
 18 17  1  0
 19 18  1  0
  1 20  1  0
  2 21  1  0
  3 22  1  0
  8 23  1  0
  9 24  1  0
 12 25  1  1
 13 26  1  0
 13 27  1  0
 13 28  1  0
 14 29  1  0
 14 30  1  0
 16 31  1  0
 16 32  1  0
 17 33  1  0
 17 34  1  0
 18 35  1  0
 18 36  1  0
 19 37  1  0
 19 38  1  0
M  ISO  8  20  14  21  14  22  14  23  14  24  14  25   8  26   8  27   8
M  ISO  8  28   8  29   8  30   8  31  13  32  13  33  13  34  13  35  13
M  ISO  3  36  13  37  13  38  13
M  END
>  <minimizedAffinity>  (1) 
-4.03018904

>  <minimizedRMSD>  (1) 
3.07126355

$$$$
