
     RDKit          3D

 45 49  0  0  0  0  0  0  0  0999 V2000
   46.6580   29.2350   45.1100 C   0  0  0  0  0  0  0  0  0  0  0  0
   46.9670   28.0880   44.4550 N   0  0  0  0  0  0  0  0  0  0  0  0
   46.6960   27.0930   45.2470 O   0  0  0  0  0  0  0  0  0  0  0  0
   46.2180   27.5130   46.4050 C   0  0  0  0  0  0  0  0  0  0  0  0
   46.1850   28.8740   46.3420 N   0  0  0  0  0  0  0  0  0  0  0  0
   44.5290   35.6490   45.1670 C   0  0  0  0  0  0  0  0  0  0  0  0
   44.7640   36.5210   44.1000 C   0  0  0  0  0  0  0  0  0  0  0  0
   45.5730   36.0930   43.0480 C   0  0  0  0  0  0  0  0  0  0  0  0
   46.0720   34.8200   43.1690 N   0  0  0  0  0  0  0  0  0  0  0  0
   45.8440   34.0010   44.1830 C   0  0  0  0  0  0  0  0  0  0  0  0
   45.0830   34.4350   45.1480 N   0  0  0  0  0  0  0  0  0  0  0  0
   46.3870   32.7080   44.2440 N   0  0  0  0  0  0  0  0  0  0  0  0
   47.5700   32.3490   43.6490 C   0  0  0  0  0  0  0  0  0  0  0  0
   47.8080   31.0500   43.8920 N   0  0  0  0  0  0  0  0  0  0  0  0
   46.7920   30.5970   44.6290 C   0  0  0  0  0  0  0  0  0  0  0  0
   45.9680   31.6160   44.8150 N   0  0  0  0  0  0  0  0  0  0  0  0
   45.8230   26.6330   47.4930 C   0  0  0  0  0  0  0  0  0  0  0  0
   44.7490   26.9270   48.2980 C   0  0  0  0  0  0  0  0  0  0  0  0
   44.6540   25.8840   49.2250 C   0  0  0  0  0  0  0  0  0  0  0  0
   45.6860   25.0190   48.9160 C   0  0  0  0  0  0  0  0  0  0  0  0
   46.3540   25.5100   47.8750 O   0  0  0  0  0  0  0  0  0  0  0  0
   46.0560   23.7260   49.5910 C   0  0  0  0  0  0  0  0  0  0  0  0
   47.2640   23.7890   50.3350 N   0  0  0  0  0  0  0  0  0  0  0  0
   48.2660   24.4760   49.5430 C   0  0  0  0  0  0  0  0  0  0  0  0
   49.4790   23.6240   49.2730 C   0  0  0  0  0  0  0  0  0  0  0  0
   49.1760   22.2850   48.8470 N   0  0  0  0  0  0  0  0  0  0  0  0
   48.2200   21.6080   49.6700 C   0  0  0  0  0  0  0  0  0  0  0  0
   47.7800   22.5340   50.7730 C   0  0  0  0  0  0  0  0  0  0  0  0
   43.8958   35.9594   46.0112 H   0  0  0  0  0  0  0  0  0  0  0  0
   44.3187   37.5268   44.0904 H   0  0  0  0  0  0  0  0  0  0  0  0
   45.7960   36.7317   42.1806 H   0  0  0  0  0  0  0  0  0  0  0  0
   48.2197   33.0184   43.0660 H   0  0  0  0  0  0  0  0  0  0  0  0
   44.0939   27.8078   48.2274 H   0  0  0  0  0  0  0  0  0  0  0  0
   43.9132   25.7753   50.0308 H   0  0  0  0  0  0  0  0  0  0  0  0
   45.2416   23.4479   50.2762 H   0  0  0  0  0  0  0  0  0  0  0  0
   46.2107   22.9835   48.7943 H   0  0  0  0  0  0  0  0  0  0  0  0
   47.8172   24.7641   48.5809 H   0  0  0  0  0  0  0  0  0  0  0  0
   48.5979   25.3540   50.1165 H   0  0  0  0  0  0  0  0  0  0  0  0
   50.0736   24.1102   48.4856 H   0  0  0  0  0  0  0  0  0  0  0  0
   50.0224   23.5372   50.2254 H   0  0  0  0  0  0  0  0  0  0  0  0
   48.8031   22.3281   47.8878 H   0  0  0  0  0  0  0  0  0  0  0  0
   47.3499   21.3183   49.0626 H   0  0  0  0  0  0  0  0  0  0  0  0
   48.6752   20.7047   50.1024 H   0  0  0  0  0  0  0  0  0  0  0  0
   48.6470   22.7288   51.4214 H   0  0  0  0  0  0  0  0  0  0  0  0
   46.9536   22.0252   51.2908 H   0  0  0  0  0  0  0  0  0  0  0  0
  1  5  1  0
  2  1  2  0
  2  3  1  0
  3  4  1  0
  4 17  1  0
  5  4  2  0
  7  6  2  0
  8  9  2  0
  8  7  1  0
  9 10  1  0
 10 12  1  0
 10 11  2  0
 11  6  1  0
 12 16  1  0
 13 14  2  0
 13 12  1  0
 14 15  1  0
 15 16  2  0
 15  1  1  0
 17 21  1  0
 17 18  2  0
 18 19  1  0
 20 19  2  0
 20 22  1  0
 21 20  1  0
 22 23  1  0
 23 28  1  0
 24 23  1  0
 25 24  1  0
 26 25  1  0
 26 27  1  0
 27 28  1  0
  6 29  1  0
  7 30  1  0
  8 31  1  0
 13 32  1  0
 18 33  1  0
 19 34  1  0
 22 35  1  0
 22 36  1  0
 24 37  1  0
 24 38  1  0
 25 39  1  0
 25 40  1  0
 26 41  1  0
 27 42  1  0
 27 43  1  0
 28 44  1  0
 28 45  1  0
M  ISO  8  29  14  30  14  31  14  32  14  33  14  34  14  35   8  36   8
M  ISO  8  37  13  38  13  39  13  40  13  41   5  42  13  43  13  44  13
M  ISO  1  45  13
M  END
>  <minimizedAffinity>  (1) 
-4.96609926

>  <minimizedRMSD>  (1) 
1.43334544

$$$$
