
     RDKit          3D

 44 48  0  0  0  0  0  0  0  0999 V2000
   46.2560   31.6600   45.4530 C   0  0  0  0  0  0  0  0  0  0  0  0
   46.6700   32.7870   46.0680 N   0  0  0  0  0  0  0  0  0  0  0  0
   46.2230   33.8060   45.3870 O   0  0  0  0  0  0  0  0  0  0  0  0
   45.5240   33.4070   44.3390 C   0  0  0  0  0  0  0  0  0  0  0  0
   45.5380   32.0510   44.3670 N   0  0  0  0  0  0  0  0  0  0  0  0
   44.3410   26.1270   48.8180 C   0  0  0  0  0  0  0  0  0  0  0  0
   45.2470   25.1410   49.2210 C   0  0  0  0  0  0  0  0  0  0  0  0
   46.5710   25.2470   48.8080 C   0  0  0  0  0  0  0  0  0  0  0  0
   46.8850   26.3300   48.0260 N   0  0  0  0  0  0  0  0  0  0  0  0
   46.0160   27.2610   47.6490 C   0  0  0  0  0  0  0  0  0  0  0  0
   44.7620   27.1400   48.0520 N   0  0  0  0  0  0  0  0  0  0  0  0
   46.3640   28.3570   46.8480 N   0  0  0  0  0  0  0  0  0  0  0  0
   47.4000   28.3320   45.9530 C   0  0  0  0  0  0  0  0  0  0  0  0
   47.4820   29.5200   45.3440 N   0  0  0  0  0  0  0  0  0  0  0  0
   46.5120   30.2900   45.8460 C   0  0  0  0  0  0  0  0  0  0  0  0
   45.8740   29.5540   46.7370 N   0  0  0  0  0  0  0  0  0  0  0  0
   44.8930   34.3060   43.3810 C   0  0  0  0  0  0  0  0  0  0  0  0
   45.3310   35.5960   43.2050 C   0  0  0  0  0  0  0  0  0  0  0  0
   44.4950   36.1460   42.2160 C   0  0  0  0  0  0  0  0  0  0  0  0
   43.6110   35.1460   41.8640 C   0  0  0  0  0  0  0  0  0  0  0  0
   43.8930   34.0760   42.5860 O   0  0  0  0  0  0  0  0  0  0  0  0
   42.4970   35.1850   40.8500 C   0  0  0  0  0  0  0  0  0  0  0  0
   41.1880   35.5810   41.4920 C   0  0  0  0  0  0  0  0  0  0  0  0
   40.2770   36.3080   40.5380 C   0  0  0  0  0  0  0  0  0  0  0  0
   39.9520   35.2310   39.5220 C   0  0  0  0  0  0  0  0  0  0  0  0
   40.0430   33.9150   40.2810 C   0  0  0  0  0  0  0  0  0  0  0  0
   40.4260   34.2840   41.7100 C   0  0  0  0  0  0  0  0  0  0  0  0
   43.2875   26.0701   49.1292 H   0  0  0  0  0  0  0  0  0  0  0  0
   44.9200   24.3003   49.8506 H   0  0  0  0  0  0  0  0  0  0  0  0
   47.3274   24.5011   49.0935 H   0  0  0  0  0  0  0  0  0  0  0  0
   48.0596   27.4720   45.7649 H   0  0  0  0  0  0  0  0  0  0  0  0
   46.1609   36.0943   43.7275 H   0  0  0  0  0  0  0  0  0  0  0  0
   44.5373   37.1660   41.8064 H   0  0  0  0  0  0  0  0  0  0  0  0
   42.3880   34.1880   40.3981 H   0  0  0  0  0  0  0  0  0  0  0  0
   42.7494   35.9325   40.0835 H   0  0  0  0  0  0  0  0  0  0  0  0
   41.4197   36.1926   42.3764 H   0  0  0  0  0  0  0  0  0  0  0  0
   39.3688   36.6636   41.0466 H   0  0  0  0  0  0  0  0  0  0  0  0
   40.7279   37.2093   40.0971 H   0  0  0  0  0  0  0  0  0  0  0  0
   40.6786   35.2496   38.6963 H   0  0  0  0  0  0  0  0  0  0  0  0
   38.9569   35.3772   39.0766 H   0  0  0  0  0  0  0  0  0  0  0  0
   39.0729   33.3967   40.2663 H   0  0  0  0  0  0  0  0  0  0  0  0
   40.7803   33.2365   39.8271 H   0  0  0  0  0  0  0  0  0  0  0  0
   41.0651   33.5140   42.1667 H   0  0  0  0  0  0  0  0  0  0  0  0
   39.5703   34.3754   42.3951 H   0  0  0  0  0  0  0  0  0  0  0  0
  1 15  1  0
  1  2  2  0
  3  2  1  0
  4  5  2  0
  4  3  1  0
  5  1  1  0
  6  7  2  0
  8  7  1  0
  9  8  2  0
 10  9  1  0
 10 11  2  0
 11  6  1  0
 12 10  1  0
 13 12  1  0
 14 15  1  0
 14 13  2  0
 15 16  2  0
 16 12  1  0
 17  4  1  0
 18 17  2  0
 19 18  1  0
 20 19  2  0
 20 21  1  0
 21 17  1  0
 22 23  1  0
 22 20  1  0
 23 27  1  0
 24 23  1  0
 25 26  1  0
 25 24  1  0
 26 27  1  0
  6 28  1  0
  7 29  1  0
  8 30  1  0
 13 31  1  0
 18 32  1  0
 19 33  1  0
 22 34  1  0
 22 35  1  0
 23 36  1  0
 24 37  1  0
 24 38  1  0
 25 39  1  0
 25 40  1  0
 26 41  1  0
 26 42  1  0
 27 43  1  0
 27 44  1  0
M  ISO  8  28  14  29  14  30  14  31  14  32  14  33  14  34   8  35   8
M  ISO  8  36  13  37  13  38  13  39  13  40  13  41  13  42  13  43  13
M  ISO  1  44  13
M  END
>  <minimizedAffinity>  (1) 
-6.08604145

>  <minimizedRMSD>  (1) 
10.4533377

$$$$
