
     RDKit          3D

 24 26  0  0  0  0  0  0  0  0999 V2000
   47.9120   34.6270   42.3760 C   0  0  0  0  0  0  0  0  0  0  0  0
   47.0500   34.3980   41.3090 C   0  0  0  0  0  0  0  0  0  0  0  0
   45.8710   33.6770   41.6020 C   0  0  0  0  0  0  0  0  0  0  0  0
   45.6440   33.2550   42.8690 N   0  0  0  0  0  0  0  0  0  0  0  0
   46.5280   33.5130   43.8630 C   0  0  0  0  0  0  0  0  0  0  0  0
   47.6570   34.1940   43.6220 N   0  0  0  0  0  0  0  0  0  0  0  0
   46.2250   33.0410   45.1650 N   0  0  0  0  0  0  0  0  0  0  0  0
   45.4970   33.6960   46.0730 C   0  0  0  0  0  0  0  0  0  0  0  0
   45.3700   33.0110   47.2240 N   0  0  0  0  0  0  0  0  0  0  0  0
   46.0400   31.8760   47.0480 C   0  0  0  0  0  0  0  0  0  0  0  0
   46.3020   30.7570   47.8210 C   0  0  0  0  0  0  0  0  0  0  0  0
   47.0430   29.7100   47.3660 N   0  0  0  0  0  0  0  0  0  0  0  0
   47.5270   29.8020   46.1060 C   0  0  0  0  0  0  0  0  0  0  0  0
   47.3110   30.8610   45.3020 N   0  0  0  0  0  0  0  0  0  0  0  0
   46.5710   31.9040   45.7600 C   0  0  0  0  0  0  0  0  0  0  0  0
   49.1520   35.3740   42.1170 C   0  0  0  0  0  0  0  0  0  0  0  0
   49.2070   36.1360   41.1060 O   0  0  0  0  0  0  0  0  0  0  0  0
   50.2350   35.2500   42.9550 O   0  0  0  0  0  0  0  0  0  0  0  0
   47.2736   34.7580   40.2939 H   0  0  0  0  0  0  0  0  0  0  0  0
   45.1425   33.4598   40.8069 H   0  0  0  0  0  0  0  0  0  0  0  0
   45.0505   34.6862   45.8991 H   0  0  0  0  0  0  0  0  0  0  0  0
   45.8955   30.7128   48.8422 H   0  0  0  0  0  0  0  0  0  0  0  0
   48.1291   28.9675   45.7173 H   0  0  0  0  0  0  0  0  0  0  0  0
   51.0645   35.7580   42.7704 H   0  0  0  0  0  0  0  0  0  0  0  0
  1  6  2  0
  2  3  2  0
  2  1  1  0
  3  4  1  0
  4  5  2  0
  5  7  1  0
  6  5  1  0
  7 15  1  0
  7  8  1  0
  8  9  2  0
 10  9  1  0
 10 11  2  0
 12 11  1  0
 13 12  2  0
 14 15  2  0
 14 13  1  0
 15 10  1  0
 16  1  1  0
 16 18  1  0
 17 16  2  0
  2 19  1  0
  3 20  1  0
  8 21  1  0
 11 22  1  0
 13 23  1  0
 18 24  1  0
M  ISO  6  19  14  20  14  21  14  22  14  23  14  24   3
M  END
>  <minimizedAffinity>  (1) 
-5.44015694

>  <minimizedRMSD>  (1) 
0.755648315

$$$$
