
     RDKit          3D

 20 20  0  0  0  0  0  0  0  0999 V2000
   47.5150   34.6420   42.6430 C   0  0  0  0  0  0  0  0  0  0  0  0
   46.4490   34.5620   41.7260 C   0  0  0  0  0  0  0  0  0  0  0  0
   45.2230   34.0940   42.2380 C   0  0  0  0  0  0  0  0  0  0  0  0
   45.1220   33.7510   43.5460 N   0  0  0  0  0  0  0  0  0  0  0  0
   46.1850   33.8500   44.3820 C   0  0  0  0  0  0  0  0  0  0  0  0
   47.3540   34.2890   43.9280 N   0  0  0  0  0  0  0  0  0  0  0  0
   46.0020   33.4750   45.7310 N   0  0  0  0  0  0  0  0  0  0  0  0
   45.0540   34.1390   46.5180 C   0  0  0  0  0  0  0  0  0  0  0  0
   44.5770   35.2830   46.2350 N   0  0  0  0  0  0  0  0  0  0  0  0
   44.5670   33.5370   47.7110 N   0  0  0  0  0  0  0  0  0  0  0  0
   43.8830   35.8120   46.7770 H   0  0  0  0  0  0  0  0  0  0  0  0
   48.7970   35.1250   42.1410 C   0  0  0  0  0  0  0  0  0  0  0  0
   48.8980   35.5460   40.9700 O   0  0  0  0  0  0  0  0  0  0  0  0
   49.8940   35.1020   42.9950 O   0  0  0  0  0  0  0  0  0  0  0  0
   46.5670   34.8485   40.6706 H   0  0  0  0  0  0  0  0  0  0  0  0
   44.3480   34.0068   41.5771 H   0  0  0  0  0  0  0  0  0  0  0  0
   46.5656   32.7136   46.1354 H   0  0  0  0  0  0  0  0  0  0  0  0
   43.8694   34.0282   48.2880 H   0  0  0  0  0  0  0  0  0  0  0  0
   44.9119   32.6099   47.9979 H   0  0  0  0  0  0  0  0  0  0  0  0
   50.7748   35.4243   42.6782 H   0  0  0  0  0  0  0  0  0  0  0  0
  1  6  2  0
  2  3  2  0
  2  1  1  0
  3  4  1  0
  4  5  2  0
  5  7  1  0
  6  5  1  0
  7  8  1  0
  8 10  1  0
  9  8  2  0
  9 11  1  0
 12  1  1  0
 12 14  1  0
 13 12  2  0
  2 15  1  0
  3 16  1  0
  7 17  1  0
 10 18  1  0
 10 19  1  0
 14 20  1  0
M  ISO  3  15  14  16  14  20   3
M  END
>  <minimizedAffinity>  (1) 
-5.34355068

>  <minimizedRMSD>  (1) 
1.31429148

$$$$
