
     RDKit          3D

 23 24  0  0  0  0  0  0  0  0999 V2000
   47.8320   34.6870   42.4340 C   0  0  0  0  0  0  0  0  0  0  0  0
   46.8980   34.6270   41.3930 C   0  0  0  0  0  0  0  0  0  0  0  0
   45.6770   33.9870   41.6200 C   0  0  0  0  0  0  0  0  0  0  0  0
   45.4510   33.4440   42.8610 N   0  0  0  0  0  0  0  0  0  0  0  0
   46.3760   33.5240   43.8300 C   0  0  0  0  0  0  0  0  0  0  0  0
   47.5380   34.1350   43.6100 N   0  0  0  0  0  0  0  0  0  0  0  0
   46.1030   32.9360   45.1370 C   0  0  0  0  0  0  0  0  0  0  0  0
   46.3990   31.6100   45.3850 C   0  0  0  0  0  0  0  0  0  0  0  0
   46.1800   30.9610   46.5860 C   0  0  0  0  0  0  0  0  0  0  0  0
   45.6340   31.6950   47.5920 C   0  0  0  0  0  0  0  0  0  0  0  0
   45.3190   33.0420   47.3880 C   0  0  0  0  0  0  0  0  0  0  0  0
   45.5490   33.6720   46.1640 C   0  0  0  0  0  0  0  0  0  0  0  0
   49.1050   35.3540   42.1980 C   0  0  0  0  0  0  0  0  0  0  0  0
   49.2120   36.1220   41.2050 O   0  0  0  0  0  0  0  0  0  0  0  0
   50.1580   35.1220   43.0720 O   0  0  0  0  0  0  0  0  0  0  0  0
   47.1214   35.0757   40.4138 H   0  0  0  0  0  0  0  0  0  0  0  0
   44.9178   33.9199   40.8268 H   0  0  0  0  0  0  0  0  0  0  0  0
   46.8425   31.0261   44.5650 H   0  0  0  0  0  0  0  0  0  0  0  0
   46.4357   29.8997   46.7215 H   0  0  0  0  0  0  0  0  0  0  0  0
   45.4396   31.2280   48.5688 H   0  0  0  0  0  0  0  0  0  0  0  0
   44.8785   33.6201   48.2137 H   0  0  0  0  0  0  0  0  0  0  0  0
   45.2941   34.7325   46.0213 H   0  0  0  0  0  0  0  0  0  0  0  0
   51.0299   35.5675   42.9258 H   0  0  0  0  0  0  0  0  0  0  0  0
  1  6  2  0
  2  3  2  0
  2  1  1  0
  3  4  1  0
  4  5  2  0
  5  7  1  0
  6  5  1  0
  7  8  2  0
  7 12  1  0
  8  9  1  0
  9 10  2  0
 11 10  1  0
 12 11  2  0
 13  1  1  0
 13 15  1  0
 14 13  2  0
  2 16  1  0
  3 17  1  0
  8 18  1  0
  9 19  1  0
 10 20  1  0
 11 21  1  0
 12 22  1  0
 15 23  1  0
M  ISO  8  16  14  17  14  18  14  19  14  20  14  21  14  22  14  23   3
M  END
>  <minimizedAffinity>  (1) 
-4.96297503

>  <minimizedRMSD>  (1) 
0.731528163

$$$$
