
     RDKit          3D

 29 30  0  0  0  0  0  0  0  0999 V2000
   47.9730   34.7530   42.2690 C   0  0  0  0  0  0  0  0  0  0  0  0
   47.3370   34.5760   41.0250 C   0  0  0  0  0  0  0  0  0  0  0  0
   46.1120   33.8840   41.0320 C   0  0  0  0  0  0  0  0  0  0  0  0
   45.6150   33.4290   42.2230 N   0  0  0  0  0  0  0  0  0  0  0  0
   46.2680   33.6280   43.3780 C   0  0  0  0  0  0  0  0  0  0  0  0
   47.4270   34.2810   43.3870 N   0  0  0  0  0  0  0  0  0  0  0  0
   45.6070   33.0780   44.5910 C   0  0  0  0  0  0  0  0  0  0  0  0
   45.3870   34.2440   45.5160 C   0  0  0  0  0  0  0  0  0  0  0  0
   44.9750   33.8340   46.9020 C   0  0  0  0  0  0  0  0  0  0  0  0
   45.7270   32.6600   47.4400 C   0  0  0  0  0  0  0  0  0  0  0  0
   46.9360   32.3820   46.5470 C   0  0  0  0  0  0  0  0  0  0  0  0
   46.3760   31.9600   45.2060 C   0  0  0  0  0  0  0  0  0  0  0  0
   49.2460   35.4700   42.2810 C   0  0  0  0  0  0  0  0  0  0  0  0
   49.4180   36.4500   41.5010 O   0  0  0  0  0  0  0  0  0  0  0  0
   50.2390   35.0410   43.1630 O   0  0  0  0  0  0  0  0  0  0  0  0
   47.7768   34.9602   40.0928 H   0  0  0  0  0  0  0  0  0  0  0  0
   45.5625   33.7115   40.0949 H   0  0  0  0  0  0  0  0  0  0  0  0
   44.6430   32.6112   44.3403 H   0  0  0  0  0  0  0  0  0  0  0  0
   46.3238   34.8163   45.5852 H   0  0  0  0  0  0  0  0  0  0  0  0
   44.5655   34.8427   45.0957 H   0  0  0  0  0  0  0  0  0  0  0  0
   45.1374   34.6871   47.5772 H   0  0  0  0  0  0  0  0  0  0  0  0
   43.9184   33.5339   46.8430 H   0  0  0  0  0  0  0  0  0  0  0  0
   46.0682   32.8794   48.4625 H   0  0  0  0  0  0  0  0  0  0  0  0
   45.0702   31.7777   47.4561 H   0  0  0  0  0  0  0  0  0  0  0  0
   47.5470   33.2901   46.4373 H   0  0  0  0  0  0  0  0  0  0  0  0
   47.5834   31.6032   46.9764 H   0  0  0  0  0  0  0  0  0  0  0  0
   45.7100   31.0959   45.3467 H   0  0  0  0  0  0  0  0  0  0  0  0
   47.2087   31.6899   44.5399 H   0  0  0  0  0  0  0  0  0  0  0  0
   51.1111   35.5087   43.1920 H   0  0  0  0  0  0  0  0  0  0  0  0
  1 13  1  0
  1  6  2  0
  2  3  2  0
  2  1  1  0
  3  4  1  0
  4  5  2  0
  5  6  1  0
  5  7  1  0
  7 12  1  0
  7  8  1  0
  8  9  1  0
  9 10  1  0
 11 10  1  0
 12 11  1  0
 13 15  1  0
 14 13  2  0
  2 16  1  0
  3 17  1  0
  7 18  1  0
  8 19  1  0
  8 20  1  0
  9 21  1  0
  9 22  1  0
 10 23  1  0
 10 24  1  0
 11 25  1  0
 11 26  1  0
 12 27  1  0
 12 28  1  0
 15 29  1  0
M  ISO  8  16  14  17  14  18  13  19  13  20  13  21  13  22  13  23  13
M  ISO  6  24  13  25  13  26  13  27  13  28  13  29   3
M  END
>  <minimizedAffinity>  (1) 
-4.859375

>  <minimizedRMSD>  (1) 
0.722429693

$$$$
