
     RDKit          3D

 25 25  0  0  0  0  0  0  0  0999 V2000
   48.1540   34.5870   42.1510 C   0  0  0  0  0  0  0  0  0  0  0  0
   47.3870   34.6290   40.9820 C   0  0  0  0  0  0  0  0  0  0  0  0
   46.2660   33.7860   40.9080 C   0  0  0  0  0  0  0  0  0  0  0  0
   45.9820   32.9690   41.9750 N   0  0  0  0  0  0  0  0  0  0  0  0
   46.7630   32.9780   43.0720 C   0  0  0  0  0  0  0  0  0  0  0  0
   47.8270   33.7740   43.1490 N   0  0  0  0  0  0  0  0  0  0  0  0
   46.4240   32.0880   44.1920 C   0  0  0  0  0  0  0  0  0  0  0  0
   47.5890   31.1900   44.5320 C   0  0  0  0  0  0  0  0  0  0  0  0
   45.2580   31.2170   43.7890 C   0  0  0  0  0  0  0  0  0  0  0  0
   46.0690   32.8310   45.4570 C   0  0  0  0  0  0  0  0  0  0  0  0
   49.3190   35.4680   42.2220 C   0  0  0  0  0  0  0  0  0  0  0  0
   49.3820   36.4880   41.4820 O   0  0  0  0  0  0  0  0  0  0  0  0
   50.3360   35.1570   43.1100 O   0  0  0  0  0  0  0  0  0  0  0  0
   47.6523   35.2983   40.1504 H   0  0  0  0  0  0  0  0  0  0  0  0
   45.6275   33.7802   40.0123 H   0  0  0  0  0  0  0  0  0  0  0  0
   47.6870   31.1145   45.6250 H   0  0  0  0  0  0  0  0  0  0  0  0
   47.4161   30.1893   44.1094 H   0  0  0  0  0  0  0  0  0  0  0  0
   48.5128   31.6120   44.1094 H   0  0  0  0  0  0  0  0  0  0  0  0
   44.7532   30.8399   44.6906 H   0  0  0  0  0  0  0  0  0  0  0  0
   44.5483   31.8079   43.1914 H   0  0  0  0  0  0  0  0  0  0  0  0
   45.6233   30.3688   43.1914 H   0  0  0  0  0  0  0  0  0  0  0  0
   46.3575   32.2272   46.3301 H   0  0  0  0  0  0  0  0  0  0  0  0
   46.6058   33.7908   45.4814 H   0  0  0  0  0  0  0  0  0  0  0  0
   44.9850   33.0164   45.4814 H   0  0  0  0  0  0  0  0  0  0  0  0
   51.1333   35.7404   43.1735 H   0  0  0  0  0  0  0  0  0  0  0  0
  1 11  1  0
  1  6  2  0
  2  1  1  0
  3  2  2  0
  3  4  1  0
  4  5  2  0
  5  6  1  0
  5  7  1  0
  7  8  1  0
  7 10  1  0
  9  7  1  0
 11 13  1  0
 12 11  2  0
  2 14  1  0
  3 15  1  0
  8 16  1  0
  8 17  1  0
  8 18  1  0
  9 19  1  0
  9 20  1  0
  9 21  1  0
 10 22  1  0
 10 23  1  0
 10 24  1  0
 13 25  1  0
M  ISO  8  14  14  15  14  16   8  17   8  18   8  19   8  20   8  21   8
M  ISO  4  22   8  23   8  24   8  25   3
M  END
>  <minimizedAffinity>  (1) 
-3.93407488

>  <minimizedRMSD>  (1) 
0.861691415

$$$$
