
     RDKit          3D

 20 21  0  0  0  0  0  0  0  0999 V2000
   47.9940   34.8210   42.1030 C   0  0  0  0  0  0  0  0  0  0  0  0
   47.5220   34.5010   40.8220 C   0  0  0  0  0  0  0  0  0  0  0  0
   46.2960   33.8040   40.7360 C   0  0  0  0  0  0  0  0  0  0  0  0
   45.6510   33.4860   41.8900 N   0  0  0  0  0  0  0  0  0  0  0  0
   46.1510   33.8180   43.1080 C   0  0  0  0  0  0  0  0  0  0  0  0
   47.3010   34.4740   43.1980 N   0  0  0  0  0  0  0  0  0  0  0  0
   45.4060   33.4470   44.3400 C   0  0  0  0  0  0  0  0  0  0  0  0
   46.1610   33.3370   45.6280 C   0  0  0  0  0  0  0  0  0  0  0  0
   45.2190   34.4530   45.4240 C   0  0  0  0  0  0  0  0  0  0  0  0
   49.2640   35.5430   42.2090 C   0  0  0  0  0  0  0  0  0  0  0  0
   49.4670   36.5450   41.4640 O   0  0  0  0  0  0  0  0  0  0  0  0
   50.2000   35.0830   43.1380 O   0  0  0  0  0  0  0  0  0  0  0  0
   48.0843   34.7817   39.9192 H   0  0  0  0  0  0  0  0  0  0  0  0
   45.8736   33.5254   39.7593 H   0  0  0  0  0  0  0  0  0  0  0  0
   44.7339   32.7971   43.7604 H   0  0  0  0  0  0  0  0  0  0  0  0
   45.9173   32.5356   46.3410 H   0  0  0  0  0  0  0  0  0  0  0  0
   47.2237   33.2577   45.9009 H   0  0  0  0  0  0  0  0  0  0  0  0
   45.6012   35.4763   45.2942 H   0  0  0  0  0  0  0  0  0  0  0  0
   44.3515   34.8443   45.9756 H   0  0  0  0  0  0  0  0  0  0  0  0
   51.0690   35.5469   43.2364 H   0  0  0  0  0  0  0  0  0  0  0  0
  1 10  1  0
  1  6  2  0
  2  1  1  0
  3  2  2  0
  3  4  1  0
  4  5  2  0
  5  6  1  0
  5  7  1  0
  7  9  1  0
  7  8  1  0
  9  8  1  0
 10 12  1  0
 11 10  2  0
  2 13  1  0
  3 14  1  0
  7 15  1  0
  8 16  1  0
  8 17  1  0
  9 18  1  0
  9 19  1  0
 12 20  1  0
M  ISO  8  13  14  14  14  15  13  16  13  17  13  18  13  19  13  20   3
M  END
>  <minimizedAffinity>  (1) 
-4.30987453

>  <minimizedRMSD>  (1) 
0.460455686

$$$$
