
     RDKit          3D

 27 28  0  0  0  0  0  0  0  0999 V2000
   47.8410   34.8390   41.5970 C   0  0  0  0  0  0  0  0  0  0  0  0
   47.5980   34.3790   40.2130 C   0  0  0  0  0  0  0  0  0  0  0  0
   48.4340   34.6860   39.1570 C   0  0  0  0  0  0  0  0  0  0  0  0
   48.2630   34.2850   37.8540 C   0  0  0  0  0  0  0  0  0  0  0  0
   47.1710   33.5230   37.6120 N   0  0  0  0  0  0  0  0  0  0  0  0
   46.3290   33.2070   38.6410 C   0  0  0  0  0  0  0  0  0  0  0  0
   46.5000   33.6040   39.9260 N   0  0  0  0  0  0  0  0  0  0  0  0
   45.1540   32.3650   38.2800 C   0  0  0  0  0  0  0  0  0  0  0  0
   44.4960   31.9390   39.4140 F   0  0  0  0  0  0  0  0  0  0  0  0
   44.3160   33.1270   37.5070 F   0  0  0  0  0  0  0  0  0  0  0  0
   45.5450   31.2460   37.5700 F   0  0  0  0  0  0  0  0  0  0  0  0
   47.2970   33.8130   42.5540 C   0  0  0  0  0  0  0  0  0  0  0  0
   44.6920   36.0160   44.1930 C   0  0  0  0  0  0  0  0  0  0  0  0
   45.5830   35.5150   43.2490 C   0  0  0  0  0  0  0  0  0  0  0  0
   46.3330   34.3880   43.5220 C   0  0  0  0  0  0  0  0  0  0  0  0
   46.1710   33.7900   44.7270 N   0  0  0  0  0  0  0  0  0  0  0  0
   45.2900   34.2900   45.6510 C   0  0  0  0  0  0  0  0  0  0  0  0
   44.5700   35.3830   45.3750 N   0  0  0  0  0  0  0  0  0  0  0  0
   47.3345   35.8017   41.7605 H   0  0  0  0  0  0  0  0  0  0  0  0
   48.9208   34.9679   41.7628 H   0  0  0  0  0  0  0  0  0  0  0  0
   49.3147   35.3065   39.3790 H   0  0  0  0  0  0  0  0  0  0  0  0
   48.9687   34.5654   37.0582 H   0  0  0  0  0  0  0  0  0  0  0  0
   46.7888   33.0271   41.9759 H   0  0  0  0  0  0  0  0  0  0  0  0
   48.1451   33.4117   43.1282 H   0  0  0  0  0  0  0  0  0  0  0  0
   44.0965   36.9153   43.9769 H   0  0  0  0  0  0  0  0  0  0  0  0
   45.6908   36.0204   42.2780 H   0  0  0  0  0  0  0  0  0  0  0  0
   45.1747   33.7899   46.6239 H   0  0  0  0  0  0  0  0  0  0  0  0
  1 12  1  0
  2  1  1  0
  3  2  2  0
  4  3  1  0
  5  4  2  0
  5  6  1  0
  6  7  2  0
  7  2  1  0
  8  6  1  0
  8  9  1  0
 10  8  1  0
 11  8  1  0
 12 15  1  0
 13 18  2  0
 14 15  2  0
 14 13  1  0
 15 16  1  0
 16 17  2  0
 18 17  1  0
  1 19  1  0
  1 20  1  0
  3 21  1  0
  4 22  1  0
 12 23  1  0
 12 24  1  0
 13 25  1  0
 14 26  1  0
 17 27  1  0
M  ISO  8  19   8  20   8  21  14  22  14  23   8  24   8  25  14  26  14
M  ISO  1  27  14
M  END
>  <minimizedAffinity>  (1) 
-4.49420452

>  <minimizedRMSD>  (1) 
0.115024552

$$$$
