
     RDKit          3D

 14 14  0  0  0  0  0  0  0  0999 V2000
   47.9450   34.7690   42.2220 C   0  0  0  0  0  0  0  0  0  0  0  0
   47.3490   34.5630   40.9800 C   0  0  0  0  0  0  0  0  0  0  0  0
   46.1200   33.8860   40.9880 C   0  0  0  0  0  0  0  0  0  0  0  0
   45.5760   33.4700   42.1620 N   0  0  0  0  0  0  0  0  0  0  0  0
   46.2150   33.7070   43.3360 C   0  0  0  0  0  0  0  0  0  0  0  0
   47.3860   34.3490   43.3600 N   0  0  0  0  0  0  0  0  0  0  0  0
   49.2330   35.4740   42.2600 C   0  0  0  0  0  0  0  0  0  0  0  0
   49.4320   36.4480   41.4830 O   0  0  0  0  0  0  0  0  0  0  0  0
   50.2100   35.0650   43.1450 O   0  0  0  0  0  0  0  0  0  0  0  0
   45.5840   33.2460   44.4860 O   0  0  0  0  0  0  0  0  0  0  0  0
   47.8151   34.9111   40.0464 H   0  0  0  0  0  0  0  0  0  0  0  0
   45.5951   33.6913   40.0411 H   0  0  0  0  0  0  0  0  0  0  0  0
   51.0799   35.5367   43.1747 H   0  0  0  0  0  0  0  0  0  0  0  0
   46.0024   33.3897   45.3717 H   0  0  0  0  0  0  0  0  0  0  0  0
  1  7  1  0
  1  6  2  0
  2  3  2  0
  2  1  1  0
  3  4  1  0
  4  5  2  0
  5  6  1  0
  5 10  1  0
  7  9  1  0
  8  7  2  0
  2 11  1  0
  3 12  1  0
  9 13  1  0
 10 14  1  0
M  ISO  4  11  14  12  14  13   3  14   3
M  END
>  <minimizedAffinity>  (1) 
-3.70711327

>  <minimizedRMSD>  (1) 
0.161601901

$$$$
