
     RDKit          3D

 15 15  0  0  0  0  0  0  0  0999 V2000
   47.9970   34.7660   42.2450 C   0  0  0  0  0  0  0  0  0  0  0  0
   47.3300   34.5890   41.0320 C   0  0  0  0  0  0  0  0  0  0  0  0
   46.1090   33.8950   41.0430 C   0  0  0  0  0  0  0  0  0  0  0  0
   45.6390   33.4310   42.2340 N   0  0  0  0  0  0  0  0  0  0  0  0
   46.3230   33.6270   43.3870 C   0  0  0  0  0  0  0  0  0  0  0  0
   47.4770   34.2830   43.3750 N   0  0  0  0  0  0  0  0  0  0  0  0
   45.7930   33.1220   44.6190 N   0  0  0  0  0  0  0  0  0  0  0  0
   49.2690   35.4890   42.2380 C   0  0  0  0  0  0  0  0  0  0  0  0
   49.4240   36.4460   41.4300 O   0  0  0  0  0  0  0  0  0  0  0  0
   50.2640   35.0850   43.1310 O   0  0  0  0  0  0  0  0  0  0  0  0
   47.7487   34.9819   40.0938 H   0  0  0  0  0  0  0  0  0  0  0  0
   45.5461   33.7303   40.1124 H   0  0  0  0  0  0  0  0  0  0  0  0
   46.3078   33.2675   45.4992 H   0  0  0  0  0  0  0  0  0  0  0  0
   44.8972   32.6136   44.6243 H   0  0  0  0  0  0  0  0  0  0  0  0
   51.1346   35.5560   43.1483 H   0  0  0  0  0  0  0  0  0  0  0  0
  1  6  2  0
  2  3  2  0
  2  1  1  0
  3  4  1  0
  4  5  2  0
  5  7  1  0
  6  5  1  0
  8  1  1  0
  8 10  1  0
  9  8  2  0
  2 11  1  0
  3 12  1  0
  7 13  1  0
  7 14  1  0
 10 15  1  0
M  ISO  3  11  14  12  14  15   3
M  END
>  <minimizedAffinity>  (1) 
-3.71746874

>  <minimizedRMSD>  (1) 
0.0652005523

$$$$
