
     RDKit          3D

 14 14  0  0  0  0  0  0  0  0999 V2000
   48.0340   34.7570   42.2550 C   0  0  0  0  0  0  0  0  0  0  0  0
   47.3190   34.6280   41.0660 C   0  0  0  0  0  0  0  0  0  0  0  0
   46.1160   33.9210   41.0990 C   0  0  0  0  0  0  0  0  0  0  0  0
   45.7070   33.3950   42.2910 N   0  0  0  0  0  0  0  0  0  0  0  0
   46.4410   33.5490   43.4200 C   0  0  0  0  0  0  0  0  0  0  0  0
   47.5910   34.2240   43.3940 N   0  0  0  0  0  0  0  0  0  0  0  0
   49.3010   35.5020   42.2260 C   0  0  0  0  0  0  0  0  0  0  0  0
   49.4270   36.4570   41.4040 O   0  0  0  0  0  0  0  0  0  0  0  0
   50.3170   35.1470   43.0890 O   0  0  0  0  0  0  0  0  0  0  0  0
   45.9430   32.8780   44.9960 S   0  0  0  0  0  0  0  0  0  0  0  0
   47.6913   35.0699   40.1300 H   0  0  0  0  0  0  0  0  0  0  0  0
   45.5129   33.7909   40.1883 H   0  0  0  0  0  0  0  0  0  0  0  0
   51.1735   35.6434   43.0761 H   0  0  0  0  0  0  0  0  0  0  0  0
   46.4956   33.6226   46.0045 H   0  0  0  0  0  0  0  0  0  0  0  0
  1  6  2  0
  2  3  2  0
  2  1  1  0
  3  4  1  0
  4  5  2  0
  5 10  1  0
  6  5  1  0
  7  1  1  0
  7  9  1  0
  8  7  2  0
  2 11  1  0
  3 12  1  0
  9 13  1  0
 10 14  1  0
M  ISO  4  11  14  12  14  13   3  14  11
M  END
>  <minimizedAffinity>  (1) 
-3.72270536

>  <minimizedRMSD>  (1) 
0.0721963421

$$$$
