
     RDKit          3D

 26 28  0  0  0  0  0  0  0  0999 V2000
   46.6980   32.6550   39.1530 C   0  0  0  0  0  0  0  0  0  0  0  0
   46.9400   32.5370   37.7990 C   0  0  0  0  0  0  0  0  0  0  0  0
   45.8990   32.8350   36.9230 C   0  0  0  0  0  0  0  0  0  0  0  0
   44.7020   33.2260   37.4520 N   0  0  0  0  0  0  0  0  0  0  0  0
   44.5160   33.3260   38.7850 C   0  0  0  0  0  0  0  0  0  0  0  0
   45.5110   33.0400   39.6160 N   0  0  0  0  0  0  0  0  0  0  0  0
   43.2560   33.7360   39.2970 N   0  0  0  0  0  0  0  0  0  0  0  0
   42.1150   33.0110   39.3470 C   0  0  0  0  0  0  0  0  0  0  0  0
   41.1200   33.7430   39.9040 N   0  0  0  0  0  0  0  0  0  0  0  0
   41.6990   34.9290   40.1860 C   0  0  0  0  0  0  0  0  0  0  0  0
   42.9610   34.8870   39.8130 N   0  0  0  0  0  0  0  0  0  0  0  0
   47.7770   32.3480   40.1180 C   0  0  0  0  0  0  0  0  0  0  0  0
   48.7050   31.5950   39.7230 O   0  0  0  0  0  0  0  0  0  0  0  0
   47.7640   32.8630   41.3820 O   0  0  0  0  0  0  0  0  0  0  0  0
   49.9660   35.1430   42.8760 N   0  0  0  0  0  0  0  0  0  0  0  0
   49.3850   33.9730   42.7350 N   0  0  0  0  0  0  0  0  0  0  0  0
   48.4950   33.9990   41.7080 C   0  0  0  0  0  0  0  0  0  0  0  0
   48.5500   35.2940   41.1950 C   0  0  0  0  0  0  0  0  0  0  0  0
   49.4850   36.0020   41.9450 C   0  0  0  0  0  0  0  0  0  0  0  0
   47.9236   32.2178   37.4239 H   0  0  0  0  0  0  0  0  0  0  0  0
   46.0371   32.7575   35.8345 H   0  0  0  0  0  0  0  0  0  0  0  0
   42.0101   31.9767   38.9875 H   0  0  0  0  0  0  0  0  0  0  0  0
   41.1981   35.7905   40.6517 H   0  0  0  0  0  0  0  0  0  0  0  0
   50.6773   35.3719   43.5849 H   0  0  0  0  0  0  0  0  0  0  0  0
   47.9620   35.6850   40.3516 H   0  0  0  0  0  0  0  0  0  0  0  0
   49.7765   37.0538   41.8084 H   0  0  0  0  0  0  0  0  0  0  0  0
  1  6  1  0
  1 12  1  0
  2  1  2  0
  3  4  2  0
  3  2  1  0
  4  5  1  0
  5  7  1  0
  5  6  2  0
  7  8  1  0
  7 11  1  0
  8  9  2  0
  9 10  1  0
 11 10  2  0
 12 14  1  0
 13 12  2  0
 14 17  1  0
 16 15  1  0
 17 16  2  0
 18 17  1  0
 18 19  2  0
 19 15  1  0
  2 20  1  0
  3 21  1  0
  8 22  1  0
 10 23  1  0
 15 24  1  0
 18 25  1  0
 19 26  1  0
M  ISO  7  20  14  21  14  22  14  23  14  24   9  25  14  26  14
M  END
>  <minimizedAffinity>  (1) 
-4.50050116

>  <minimizedRMSD>  (1) 
5.42408657

$$$$
