
     RDKit          3D

 33 34  0  0  0  0  0  0  0  0999 V2000
   47.8450   34.8610   41.6090 C   0  0  0  0  0  0  0  0  0  0  0  0
   47.5950   34.3850   40.2290 C   0  0  0  0  0  0  0  0  0  0  0  0
   48.4130   34.6810   39.1620 C   0  0  0  0  0  0  0  0  0  0  0  0
   48.2590   34.2750   37.8700 C   0  0  0  0  0  0  0  0  0  0  0  0
   47.1750   33.4970   37.6450 N   0  0  0  0  0  0  0  0  0  0  0  0
   46.3290   33.1740   38.6790 C   0  0  0  0  0  0  0  0  0  0  0  0
   46.5190   33.6000   39.9480 N   0  0  0  0  0  0  0  0  0  0  0  0
   45.1220   32.3160   38.4600 C   0  0  0  0  0  0  0  0  0  0  0  0
   43.8760   33.1270   38.1950 C   0  0  0  0  0  0  0  0  0  0  0  0
   45.4050   31.3470   37.3300 C   0  0  0  0  0  0  0  0  0  0  0  0
   47.3140   33.8270   42.5730 C   0  0  0  0  0  0  0  0  0  0  0  0
   44.6900   36.0130   44.2040 C   0  0  0  0  0  0  0  0  0  0  0  0
   45.5900   35.5210   43.2510 C   0  0  0  0  0  0  0  0  0  0  0  0
   46.3400   34.3950   43.5290 C   0  0  0  0  0  0  0  0  0  0  0  0
   46.1690   33.8010   44.7350 N   0  0  0  0  0  0  0  0  0  0  0  0
   45.2810   34.3010   45.6520 C   0  0  0  0  0  0  0  0  0  0  0  0
   44.5620   35.3930   45.3700 N   0  0  0  0  0  0  0  0  0  0  0  0
   47.3294   35.8192   41.7707 H   0  0  0  0  0  0  0  0  0  0  0  0
   48.9233   35.0083   41.7686 H   0  0  0  0  0  0  0  0  0  0  0  0
   49.2865   35.3145   39.3755 H   0  0  0  0  0  0  0  0  0  0  0  0
   48.9614   34.5579   37.0721 H   0  0  0  0  0  0  0  0  0  0  0  0
   44.9216   31.7545   39.3844 H   0  0  0  0  0  0  0  0  0  0  0  0
   43.4209   33.4232   39.1517 H   0  0  0  0  0  0  0  0  0  0  0  0
   44.1397   34.0270   37.6202 H   0  0  0  0  0  0  0  0  0  0  0  0
   43.1598   32.5215   37.6202 H   0  0  0  0  0  0  0  0  0  0  0  0
   45.6903   30.3701   37.7475 H   0  0  0  0  0  0  0  0  0  0  0  0
   44.5029   31.2319   36.7111 H   0  0  0  0  0  0  0  0  0  0  0  0
   46.2272   31.7355   36.7111 H   0  0  0  0  0  0  0  0  0  0  0  0
   46.8209   33.0289   41.9986 H   0  0  0  0  0  0  0  0  0  0  0  0
   48.1654   33.4400   43.1520 H   0  0  0  0  0  0  0  0  0  0  0  0
   44.0914   36.9100   43.9869 H   0  0  0  0  0  0  0  0  0  0  0  0
   45.6996   36.0305   42.2823 H   0  0  0  0  0  0  0  0  0  0  0  0
   45.1592   33.8016   46.6245 H   0  0  0  0  0  0  0  0  0  0  0  0
  1 11  1  0
  2  1  1  0
  3  2  2  0
  4  3  1  0
  5  4  2  0
  5  6  1  0
  6  7  2  0
  7  2  1  0
  8  6  1  0
  9  8  1  0
 10  8  1  0
 11 14  1  0
 12 17  2  0
 13 14  2  0
 13 12  1  0
 14 15  1  0
 15 16  2  0
 17 16  1  0
  1 18  1  0
  1 19  1  0
  3 20  1  0
  4 21  1  0
  8 22  1  0
  9 23  1  0
  9 24  1  0
  9 25  1  0
 10 26  1  0
 10 27  1  0
 10 28  1  0
 11 29  1  0
 11 30  1  0
 12 31  1  0
 13 32  1  0
 16 33  1  0
M  ISO  8  18   8  19   8  20  14  21  14  22   8  23   8  24   8  25   8
M  ISO  8  26   8  27   8  28   8  29   8  30   8  31  14  32  14  33  14
M  END
>  <minimizedAffinity>  (1) 
-4.44911289

>  <minimizedRMSD>  (1) 
0.153108403

$$$$
