
     RDKit          3D

 27 28  0  0  0  0  0  0  0  0999 V2000
   47.8410   34.8470   41.6000 C   0  0  0  0  0  0  0  0  0  0  0  0
   47.5820   34.3790   40.2210 C   0  0  0  0  0  0  0  0  0  0  0  0
   48.4130   34.6810   39.1620 C   0  0  0  0  0  0  0  0  0  0  0  0
   48.2420   34.2630   37.8630 C   0  0  0  0  0  0  0  0  0  0  0  0
   47.1540   33.4870   37.6360 N   0  0  0  0  0  0  0  0  0  0  0  0
   46.3140   33.1750   38.6790 C   0  0  0  0  0  0  0  0  0  0  0  0
   46.4870   33.5900   39.9520 N   0  0  0  0  0  0  0  0  0  0  0  0
   45.1060   32.3290   38.4890 C   0  0  0  0  0  0  0  0  0  0  0  0
   47.3090   33.8260   42.5680 C   0  0  0  0  0  0  0  0  0  0  0  0
   44.6910   36.0130   44.2010 C   0  0  0  0  0  0  0  0  0  0  0  0
   45.5890   35.5270   43.2500 C   0  0  0  0  0  0  0  0  0  0  0  0
   46.3400   34.4010   43.5290 C   0  0  0  0  0  0  0  0  0  0  0  0
   46.1600   33.8080   44.7480 N   0  0  0  0  0  0  0  0  0  0  0  0
   45.2830   34.3020   45.6470 C   0  0  0  0  0  0  0  0  0  0  0  0
   44.5620   35.3910   45.3690 N   0  0  0  0  0  0  0  0  0  0  0  0
   47.3358   35.8102   41.7642 H   0  0  0  0  0  0  0  0  0  0  0  0
   48.9225   34.9778   41.7526 H   0  0  0  0  0  0  0  0  0  0  0  0
   49.2890   35.3112   39.3753 H   0  0  0  0  0  0  0  0  0  0  0  0
   48.9420   34.5401   37.0610 H   0  0  0  0  0  0  0  0  0  0  0  0
   44.6996   32.0444   39.4707 H   0  0  0  0  0  0  0  0  0  0  0  0
   44.3472   32.8941   37.9279 H   0  0  0  0  0  0  0  0  0  0  0  0
   45.3776   31.4227   37.9279 H   0  0  0  0  0  0  0  0  0  0  0  0
   46.8093   33.0282   41.9989 H   0  0  0  0  0  0  0  0  0  0  0  0
   48.1615   33.4400   43.1461 H   0  0  0  0  0  0  0  0  0  0  0  0
   44.0909   36.9091   43.9848 H   0  0  0  0  0  0  0  0  0  0  0  0
   45.6987   36.0381   42.2821 H   0  0  0  0  0  0  0  0  0  0  0  0
   45.1608   33.8022   46.6192 H   0  0  0  0  0  0  0  0  0  0  0  0
  1  9  1  0
  2  1  1  0
  3  2  2  0
  4  3  1  0
  5  4  2  0
  5  6  1  0
  6  7  2  0
  7  2  1  0
  8  6  1  0
  9 12  1  0
 10 15  2  0
 11 12  2  0
 11 10  1  0
 12 13  1  0
 13 14  2  0
 15 14  1  0
  1 16  1  0
  1 17  1  0
  3 18  1  0
  4 19  1  0
  8 20  1  0
  8 21  1  0
  8 22  1  0
  9 23  1  0
  9 24  1  0
 10 25  1  0
 11 26  1  0
 14 27  1  0
M  ISO  8  16   8  17   8  18  14  19  14  20   8  21   8  22   8  23   8
M  ISO  4  24   8  25  14  26  14  27  14
M  END
>  <minimizedAffinity>  (1) 
-4.38125706

>  <minimizedRMSD>  (1) 
0.0317756124

$$$$
