
     RDKit          3D

 29 30  0  0  0  0  0  0  0  0999 V2000
   46.1500   34.3390   43.7420 C   0  0  0  0  0  0  0  0  0  0  0  0
   45.1820   35.2920   43.9260 C   0  0  0  0  0  0  0  0  0  0  0  0
   44.5560   35.3760   45.1840 C   0  0  0  0  0  0  0  0  0  0  0  0
   44.9420   34.5030   46.1610 N   0  0  0  0  0  0  0  0  0  0  0  0
   45.9070   33.5780   45.9260 C   0  0  0  0  0  0  0  0  0  0  0  0
   46.4840   33.5140   44.7390 N   0  0  0  0  0  0  0  0  0  0  0  0
   46.2840   32.6860   46.9620 N   0  0  0  0  0  0  0  0  0  0  0  0
   45.6270   31.6120   47.4320 C   0  0  0  0  0  0  0  0  0  0  0  0
   46.3470   31.0450   48.4270 N   0  0  0  0  0  0  0  0  0  0  0  0
   47.4500   31.7910   48.5550 C   0  0  0  0  0  0  0  0  0  0  0  0
   47.3770   32.7540   47.6700 N   0  0  0  0  0  0  0  0  0  0  0  0
   48.5030   31.5490   49.5020 N   0  0  0  0  0  0  0  0  0  0  0  0
   49.0300   30.2520   49.7210 C   0  0  0  0  0  0  0  0  0  0  0  0
   49.0370   29.4500   48.6920 N   0  0  0  0  0  0  0  0  0  0  0  0
   49.5050   29.9290   51.0250 N   0  0  0  0  0  0  0  0  0  0  0  0
   49.4040   28.4870   48.7620 H   0  0  0  0  0  0  0  0  0  0  0  0
   46.8150   34.2340   42.4390 C   0  0  0  0  0  0  0  0  0  0  0  0
   46.7690   33.1240   41.8430 O   0  0  0  0  0  0  0  0  0  0  0  0
   47.4640   35.3240   41.8970 O   0  0  0  0  0  0  0  0  0  0  0  0
   48.8470   35.2770   41.7410 C   0  0  0  0  0  0  0  0  0  0  0  0
   49.3640   34.9700   43.0140 F   0  0  0  0  0  0  0  0  0  0  0  0
   49.3310   36.5650   41.4870 F   0  0  0  0  0  0  0  0  0  0  0  0
   49.2960   34.4100   40.7930 F   0  0  0  0  0  0  0  0  0  0  0  0
   44.9012   35.9746   43.1104 H   0  0  0  0  0  0  0  0  0  0  0  0
   43.7749   36.1265   45.3756 H   0  0  0  0  0  0  0  0  0  0  0  0
   44.6552   31.2503   47.0648 H   0  0  0  0  0  0  0  0  0  0  0  0
   48.8860   32.3413   50.0373 H   0  0  0  0  0  0  0  0  0  0  0  0
   49.8936   28.9942   51.2146 H   0  0  0  0  0  0  0  0  0  0  0  0
   49.4598   30.6304   51.7780 H   0  0  0  0  0  0  0  0  0  0  0  0
  1  2  2  0
  1  6  1  0
  2  3  1  0
  3  4  2  0
  5  4  1  0
  5  7  1  0
  6  5  2  0
  7  8  1  0
  7 11  1  0
  8  9  2  0
  9 10  1  0
 10 12  1  0
 11 10  2  0
 12 13  1  0
 13 15  1  0
 14 16  1  0
 14 13  2  0
 17  1  1  0
 18 17  2  0
 19 17  1  0
 20 19  1  0
 20 21  1  0
 22 20  1  0
 23 20  1  0
  2 24  1  0
  3 25  1  0
  8 26  1  0
 12 27  1  0
 15 28  1  0
 15 29  1  0
M  ISO  3  24  14  25  14  26  14
M  END
>  <minimizedAffinity>  (1) 
-6.83042622

>  <minimizedRMSD>  (1) 
2.33855867

$$$$
