
     RDKit          3D

 24 25  0  0  0  0  0  0  0  0999 V2000
   47.5720   34.5320   42.7190 C   0  0  0  0  0  0  0  0  0  0  0  0
   46.4910   34.8740   41.9360 C   0  0  0  0  0  0  0  0  0  0  0  0
   45.2190   34.4410   42.3350 C   0  0  0  0  0  0  0  0  0  0  0  0
   45.1070   33.7020   43.4780 N   0  0  0  0  0  0  0  0  0  0  0  0
   46.2080   33.3890   44.2160 C   0  0  0  0  0  0  0  0  0  0  0  0
   47.4100   33.8050   43.8300 N   0  0  0  0  0  0  0  0  0  0  0  0
   46.0560   32.6180   45.4020 N   0  0  0  0  0  0  0  0  0  0  0  0
   45.8180   31.2980   45.5130 C   0  0  0  0  0  0  0  0  0  0  0  0
   45.7450   30.9710   46.8380 N   0  0  0  0  0  0  0  0  0  0  0  0
   45.9440   32.1240   47.4910 C   0  0  0  0  0  0  0  0  0  0  0  0
   46.1270   33.0910   46.6230 N   0  0  0  0  0  0  0  0  0  0  0  0
   45.9510   32.2480   48.9460 C   0  0  0  0  0  0  0  0  0  0  0  0
   45.2200   31.4970   49.6790 O   0  0  0  0  0  0  0  0  0  0  0  0
   48.9100   34.9760   42.3190 C   0  0  0  0  0  0  0  0  0  0  0  0
   49.0140   36.0270   41.6390 O   0  0  0  0  0  0  0  0  0  0  0  0
   50.0270   34.2430   42.6890 O   0  0  0  0  0  0  0  0  0  0  0  0
   50.3220   33.0620   41.9860 C   0  0  0  0  0  0  0  0  0  0  0  0
   49.5330   33.1090   40.8350 F   0  0  0  0  0  0  0  0  0  0  0  0
   49.8340   31.9640   42.7050 F   0  0  0  0  0  0  0  0  0  0  0  0
   51.6550   32.9010   41.7190 F   0  0  0  0  0  0  0  0  0  0  0  0
   46.6228   35.4712   41.0217 H   0  0  0  0  0  0  0  0  0  0  0  0
   44.3288   34.6914   41.7394 H   0  0  0  0  0  0  0  0  0  0  0  0
   45.7012   30.5965   44.6738 H   0  0  0  0  0  0  0  0  0  0  0  0
   46.5970   33.0014   49.4204 H   0  0  0  0  0  0  0  0  0  0  0  0
  1  6  2  0
  2  3  2  0
  2  1  1  0
  3  4  1  0
  4  5  2  0
  5  7  1  0
  6  5  1  0
  7  8  1  0
  7 11  1  0
  8  9  2  0
  9 10  1  0
 10 12  1  0
 11 10  2  0
 12 13  2  0
 14 16  1  0
 14  1  1  0
 15 14  2  0
 17 16  1  0
 17 19  1  0
 18 17  1  0
 20 17  1  0
  2 21  1  0
  3 22  1  0
  8 23  1  0
 12 24  1  0
M  ISO  4  21  14  22  14  23  14  24   6
M  END
>  <minimizedAffinity>  (1) 
-5.13221216

>  <minimizedRMSD>  (1) 
0.490337998

$$$$
