
     RDKit          3D

 29 31  0  0  0  0  0  0  0  0999 V2000
   47.7740   34.6580   42.4710 C   0  0  0  0  0  0  0  0  0  0  0  0
   46.7210   35.0540   41.6590 C   0  0  0  0  0  0  0  0  0  0  0  0
   45.4320   34.6480   41.9980 C   0  0  0  0  0  0  0  0  0  0  0  0
   45.2630   33.8820   43.1100 N   0  0  0  0  0  0  0  0  0  0  0  0
   46.3230   33.5210   43.8710 C   0  0  0  0  0  0  0  0  0  0  0  0
   47.5400   33.9100   43.5430 N   0  0  0  0  0  0  0  0  0  0  0  0
   46.1100   32.7160   45.0310 N   0  0  0  0  0  0  0  0  0  0  0  0
   45.8270   31.4050   45.1020 C   0  0  0  0  0  0  0  0  0  0  0  0
   45.7030   31.0420   46.4050 N   0  0  0  0  0  0  0  0  0  0  0  0
   45.9170   32.1590   47.1020 C   0  0  0  0  0  0  0  0  0  0  0  0
   46.1600   33.1620   46.2720 N   0  0  0  0  0  0  0  0  0  0  0  0
   45.8900   32.2840   48.6020 C   0  0  0  0  0  0  0  0  0  0  0  0
   45.1920   31.2180   49.3740 C   0  0  0  0  0  0  0  0  0  0  0  0
   46.7240   31.2610   49.4010 C   0  0  0  0  0  0  0  0  0  0  0  0
   49.1380   35.0740   42.1320 C   0  0  0  0  0  0  0  0  0  0  0  0
   49.2780   36.1540   41.4800 O   0  0  0  0  0  0  0  0  0  0  0  0
   50.2160   34.3080   42.5160 O   0  0  0  0  0  0  0  0  0  0  0  0
   50.4260   33.0790   41.8890 C   0  0  0  0  0  0  0  0  0  0  0  0
   49.5970   33.0880   40.7560 F   0  0  0  0  0  0  0  0  0  0  0  0
   49.9100   32.0600   42.6990 F   0  0  0  0  0  0  0  0  0  0  0  0
   51.7350   32.8260   41.5880 F   0  0  0  0  0  0  0  0  0  0  0  0
   46.8997   35.6741   40.7682 H   0  0  0  0  0  0  0  0  0  0  0  0
   44.5699   34.9402   41.3804 H   0  0  0  0  0  0  0  0  0  0  0  0
   45.7135   30.7310   44.2401 H   0  0  0  0  0  0  0  0  0  0  0  0
   45.8224   33.3815   48.5722 H   0  0  0  0  0  0  0  0  0  0  0  0
   44.6222   31.4819   50.2772 H   0  0  0  0  0  0  0  0  0  0  0  0
   44.4479   30.4477   49.1230 H   0  0  0  0  0  0  0  0  0  0  0  0
   47.3107   30.4921   48.8770 H   0  0  0  0  0  0  0  0  0  0  0  0
   47.4990   31.3103   50.1800 H   0  0  0  0  0  0  0  0  0  0  0  0
  1  6  2  0
  2  3  2  0
  2  1  1  0
  3  4  1  0
  4  5  2  0
  5  7  1  0
  6  5  1  0
  7  8  1  0
  7 11  1  0
  8  9  2  0
  9 10  1  0
 10 12  1  0
 11 10  2  0
 12 13  1  0
 12 14  1  0
 13 14  1  0
 15  1  1  0
 15 17  1  0
 16 15  2  0
 18 17  1  0
 18 20  1  0
 19 18  1  0
 21 18  1  0
  2 22  1  0
  3 23  1  0
  8 24  1  0
 12 25  1  0
 13 26  1  0
 13 27  1  0
 14 28  1  0
 14 29  1  0
M  ISO  8  22  14  23  14  24  14  25  13  26  13  27  13  28  13  29  13
M  END
>  <minimizedAffinity>  (1) 
-5.44724607

>  <minimizedRMSD>  (1) 
0.706910968

$$$$
