
     RDKit          3D

 28 29  0  0  0  0  0  0  0  0999 V2000
   47.7110   34.5910   42.5120 C   0  0  0  0  0  0  0  0  0  0  0  0
   46.6550   34.8970   41.6950 C   0  0  0  0  0  0  0  0  0  0  0  0
   45.3730   34.4760   42.0750 C   0  0  0  0  0  0  0  0  0  0  0  0
   45.2340   33.7780   43.2430 N   0  0  0  0  0  0  0  0  0  0  0  0
   46.3100   33.5060   44.0050 C   0  0  0  0  0  0  0  0  0  0  0  0
   47.5250   33.9030   43.6500 N   0  0  0  0  0  0  0  0  0  0  0  0
   46.1400   32.7730   45.2230 N   0  0  0  0  0  0  0  0  0  0  0  0
   45.9070   31.4530   45.3750 C   0  0  0  0  0  0  0  0  0  0  0  0
   45.8100   31.1610   46.6950 N   0  0  0  0  0  0  0  0  0  0  0  0
   45.9900   32.3360   47.3270 C   0  0  0  0  0  0  0  0  0  0  0  0
   46.1840   33.2710   46.4240 N   0  0  0  0  0  0  0  0  0  0  0  0
   49.0540   35.0240   42.1300 C   0  0  0  0  0  0  0  0  0  0  0  0
   49.1650   36.0770   41.4430 O   0  0  0  0  0  0  0  0  0  0  0  0
   50.1700   34.2980   42.5120 O   0  0  0  0  0  0  0  0  0  0  0  0
   50.4100   33.0510   41.8970 C   0  0  0  0  0  0  0  0  0  0  0  0
   49.5940   33.0580   40.7500 F   0  0  0  0  0  0  0  0  0  0  0  0
   49.8920   32.0350   42.6910 F   0  0  0  0  0  0  0  0  0  0  0  0
   51.7200   32.8440   41.6160 F   0  0  0  0  0  0  0  0  0  0  0  0
   45.9430   32.3670   48.8150 C   0  0  0  0  0  0  0  0  0  0  0  0
   45.1890   31.2110   49.4070 C   0  0  0  0  0  0  0  0  0  0  0  0
   46.8093   35.4599   40.7626 H   0  0  0  0  0  0  0  0  0  0  0  0
   44.4981   34.7020   41.4477 H   0  0  0  0  0  0  0  0  0  0  0  0
   45.8107   30.7263   44.5548 H   0  0  0  0  0  0  0  0  0  0  0  0
   46.9740   32.3449   49.1979 H   0  0  0  0  0  0  0  0  0  0  0  0
   45.4138   33.2862   49.1064 H   0  0  0  0  0  0  0  0  0  0  0  0
   45.2283   31.2712   50.5047 H   0  0  0  0  0  0  0  0  0  0  0  0
   44.1410   31.2482   49.0750 H   0  0  0  0  0  0  0  0  0  0  0  0
   45.6455   30.2669   49.0750 H   0  0  0  0  0  0  0  0  0  0  0  0
  1  6  2  0
  2  3  2  0
  2  1  1  0
  3  4  1  0
  4  5  2  0
  5  7  1  0
  6  5  1  0
  7  8  1  0
  7 11  1  0
  8  9  2  0
  9 10  1  0
 10 19  1  0
 11 10  2  0
 12  1  1  0
 12 14  1  0
 13 12  2  0
 15 14  1  0
 15 17  1  0
 16 15  1  0
 18 15  1  0
 19 20  1  0
  2 21  1  0
  3 22  1  0
  8 23  1  0
 19 24  1  0
 19 25  1  0
 20 26  1  0
 20 27  1  0
 20 28  1  0
M  ISO  8  21  14  22  14  23  14  24   8  25   8  26   8  27   8  28   8
M  END
>  <minimizedAffinity>  (1) 
-5.36151361

>  <minimizedRMSD>  (1) 
0.711923599

$$$$
