
     RDKit          3D

 25 26  0  0  0  0  0  0  0  0999 V2000
   47.8380   34.8610   41.6050 C   0  0  0  0  0  0  0  0  0  0  0  0
   47.5830   34.3780   40.2290 C   0  0  0  0  0  0  0  0  0  0  0  0
   48.4110   34.6770   39.1600 C   0  0  0  0  0  0  0  0  0  0  0  0
   48.2290   34.2510   37.8660 C   0  0  0  0  0  0  0  0  0  0  0  0
   47.1420   33.4750   37.6480 N   0  0  0  0  0  0  0  0  0  0  0  0
   46.3140   33.1690   38.6880 C   0  0  0  0  0  0  0  0  0  0  0  0
   46.4930   33.5880   39.9580 N   0  0  0  0  0  0  0  0  0  0  0  0
   45.1830   32.3760   38.5200 O   0  0  0  0  0  0  0  0  0  0  0  0
   47.3210   33.8390   42.5820 C   0  0  0  0  0  0  0  0  0  0  0  0
   44.6900   36.0130   44.2050 C   0  0  0  0  0  0  0  0  0  0  0  0
   45.5920   35.5290   43.2460 C   0  0  0  0  0  0  0  0  0  0  0  0
   46.3380   34.4030   43.5360 C   0  0  0  0  0  0  0  0  0  0  0  0
   46.1730   33.8020   44.7390 N   0  0  0  0  0  0  0  0  0  0  0  0
   45.2850   34.2940   45.6600 C   0  0  0  0  0  0  0  0  0  0  0  0
   44.5590   35.3900   45.3760 N   0  0  0  0  0  0  0  0  0  0  0  0
   47.3197   35.8184   41.7627 H   0  0  0  0  0  0  0  0  0  0  0  0
   48.9177   35.0085   41.7550 H   0  0  0  0  0  0  0  0  0  0  0  0
   49.2882   35.3086   39.3637 H   0  0  0  0  0  0  0  0  0  0  0  0
   48.9236   34.5238   37.0579 H   0  0  0  0  0  0  0  0  0  0  0  0
   44.6019   32.1719   39.2951 H   0  0  0  0  0  0  0  0  0  0  0  0
   46.8381   33.0270   42.0186 H   0  0  0  0  0  0  0  0  0  0  0  0
   48.1791   33.4757   43.1665 H   0  0  0  0  0  0  0  0  0  0  0  0
   44.0892   36.9090   43.9901 H   0  0  0  0  0  0  0  0  0  0  0  0
   45.7037   36.0384   42.2775 H   0  0  0  0  0  0  0  0  0  0  0  0
   45.1661   33.7923   46.6317 H   0  0  0  0  0  0  0  0  0  0  0  0
  1  9  1  0
  2  1  1  0
  3  2  2  0
  4  3  1  0
  5  4  2  0
  5  6  1  0
  6  7  2  0
  7  2  1  0
  8  6  1  0
  9 12  1  0
 10 15  2  0
 11 12  2  0
 11 10  1  0
 12 13  1  0
 13 14  2  0
 15 14  1  0
  1 16  1  0
  1 17  1  0
  3 18  1  0
  4 19  1  0
  8 20  1  0
  9 21  1  0
  9 22  1  0
 10 23  1  0
 11 24  1  0
 14 25  1  0
M  ISO  8  16   8  17   8  18  14  19  14  20   3  21   8  22   8  23  14
M  ISO  2  24  14  25  14
M  END
>  <minimizedAffinity>  (1) 
-4.38011026

>  <minimizedRMSD>  (1) 
0.02849935

$$$$
