
     RDKit          3D

 23 24  0  0  0  0  0  0  0  0999 V2000
   47.6990   34.5200   42.9300 C   0  0  0  0  0  0  0  0  0  0  0  0
   46.5530   35.0590   42.3850 C   0  0  0  0  0  0  0  0  0  0  0  0
   45.3130   34.7250   42.9660 C   0  0  0  0  0  0  0  0  0  0  0  0
   45.3050   33.8840   44.0410 N   0  0  0  0  0  0  0  0  0  0  0  0
   46.4540   33.3810   44.5380 C   0  0  0  0  0  0  0  0  0  0  0  0
   47.6180   33.7080   43.9760 N   0  0  0  0  0  0  0  0  0  0  0  0
   46.4160   32.5060   45.6600 N   0  0  0  0  0  0  0  0  0  0  0  0
   46.0330   31.2180   45.6950 C   0  0  0  0  0  0  0  0  0  0  0  0
   46.1560   30.7610   46.9830 N   0  0  0  0  0  0  0  0  0  0  0  0
   46.6110   31.7940   47.6870 C   0  0  0  0  0  0  0  0  0  0  0  0
   46.7610   32.8250   46.8870 N   0  0  0  0  0  0  0  0  0  0  0  0
   48.9840   34.8550   42.3400 C   0  0  0  0  0  0  0  0  0  0  0  0
   49.0670   35.8580   41.5880 O   0  0  0  0  0  0  0  0  0  0  0  0
   50.1060   34.0730   42.6100 O   0  0  0  0  0  0  0  0  0  0  0  0
   50.3070   32.9100   41.8440 C   0  0  0  0  0  0  0  0  0  0  0  0
   49.4720   33.0500   40.7240 F   0  0  0  0  0  0  0  0  0  0  0  0
   49.7930   31.8080   42.5180 F   0  0  0  0  0  0  0  0  0  0  0  0
   51.6030   32.7010   41.4920 F   0  0  0  0  0  0  0  0  0  0  0  0
   46.9280   31.9330   49.0450 O   0  0  0  0  0  0  0  0  0  0  0  0
   46.6051   35.7335   41.5176 H   0  0  0  0  0  0  0  0  0  0  0  0
   44.3742   35.1324   42.5627 H   0  0  0  0  0  0  0  0  0  0  0  0
   45.6802   30.6292   44.8354 H   0  0  0  0  0  0  0  0  0  0  0  0
   47.2599   32.7997   49.3896 H   0  0  0  0  0  0  0  0  0  0  0  0
  1  6  2  0
  2  1  1  0
  2  3  2  0
  3  4  1  0
  4  5  2  0
  5  7  1  0
  6  5  1  0
  7  8  1  0
  7 11  1  0
  8  9  2  0
  9 10  1  0
 10 19  1  0
 11 10  2  0
 12 14  1  0
 12  1  1  0
 13 12  2  0
 15 17  1  0
 15 14  1  0
 16 15  1  0
 18 15  1  0
  2 20  1  0
  3 21  1  0
  8 22  1  0
 19 23  1  0
M  ISO  4  20  14  21  14  22  14  23   3
M  END
>  <minimizedAffinity>  (1) 
-5.00843906

>  <minimizedRMSD>  (1) 
0.0575236045

$$$$
