
     RDKit          3D

 29 31  0  0  0  0  0  0  0  0999 V2000
   47.3440   34.6390   42.6150 C   0  0  0  0  0  0  0  0  0  0  0  0
   46.3930   35.6420   42.6430 C   0  0  0  0  0  0  0  0  0  0  0  0
   45.0900   35.3430   43.0880 C   0  0  0  0  0  0  0  0  0  0  0  0
   44.8270   34.0560   43.4730 N   0  0  0  0  0  0  0  0  0  0  0  0
   45.7850   33.1050   43.4300 C   0  0  0  0  0  0  0  0  0  0  0  0
   47.0100   33.4010   43.0090 N   0  0  0  0  0  0  0  0  0  0  0  0
   45.4750   31.7760   43.8390 N   0  0  0  0  0  0  0  0  0  0  0  0
   44.7480   30.8530   43.1730 C   0  0  0  0  0  0  0  0  0  0  0  0
   44.6960   29.7090   43.9210 N   0  0  0  0  0  0  0  0  0  0  0  0
   45.4050   29.9840   45.0330 C   0  0  0  0  0  0  0  0  0  0  0  0
   45.8570   31.2190   44.9560 N   0  0  0  0  0  0  0  0  0  0  0  0
   45.5760   28.9870   46.0870 C   0  0  0  0  0  0  0  0  0  0  0  0
   46.5350   28.0150   46.3040 C   0  0  0  0  0  0  0  0  0  0  0  0
   46.1360   27.3870   47.4850 C   0  0  0  0  0  0  0  0  0  0  0  0
   44.9720   28.0070   47.9130 C   0  0  0  0  0  0  0  0  0  0  0  0
   44.6620   28.9590   47.0550 O   0  0  0  0  0  0  0  0  0  0  0  0
   48.6890   34.9440   42.1570 C   0  0  0  0  0  0  0  0  0  0  0  0
   48.8320   35.7910   41.2470 O   0  0  0  0  0  0  0  0  0  0  0  0
   49.7740   34.3030   42.7280 O   0  0  0  0  0  0  0  0  0  0  0  0
   50.2850   33.1490   42.0950 C   0  0  0  0  0  0  0  0  0  0  0  0
   49.5840   33.0500   40.8880 F   0  0  0  0  0  0  0  0  0  0  0  0
   49.9160   32.0270   42.8230 F   0  0  0  0  0  0  0  0  0  0  0  0
   51.6420   33.1770   41.9120 F   0  0  0  0  0  0  0  0  0  0  0  0
   46.6506   36.6619   42.3215 H   0  0  0  0  0  0  0  0  0  0  0  0
   44.3101   36.1179   43.1248 H   0  0  0  0  0  0  0  0  0  0  0  0
   44.2753   30.9975   42.1903 H   0  0  0  0  0  0  0  0  0  0  0  0
   47.4152   27.7875   45.6847 H   0  0  0  0  0  0  0  0  0  0  0  0
   46.6507   26.5530   47.9846 H   0  0  0  0  0  0  0  0  0  0  0  0
   44.4022   27.7479   48.8175 H   0  0  0  0  0  0  0  0  0  0  0  0
  1  2  2  0
  1  6  1  0
  2  3  1  0
  3  4  2  0
  5  4  1  0
  5  7  1  0
  6  5  2  0
  7 11  1  0
  8  7  1  0
  8  9  2  0
  9 10  1  0
 10 12  1  0
 11 10  2  0
 12 13  2  0
 12 16  1  0
 13 14  1  0
 14 15  2  0
 16 15  1  0
 17  1  1  0
 17 19  1  0
 18 17  2  0
 20 19  1  0
 20 22  1  0
 21 20  1  0
 23 20  1  0
  2 24  1  0
  3 25  1  0
  8 26  1  0
 13 27  1  0
 14 28  1  0
 15 29  1  0
M  ISO  6  24  14  25  14  26  14  27  14  28  14  29  14
M  END
>  <minimizedAffinity>  (1) 
-4.45746374

>  <minimizedRMSD>  (1) 
2.76891518

$$$$
