
     RDKit          3D

 23 24  0  0  0  0  0  0  0  0999 V2000
   47.8030   34.5770   42.8340 C   0  0  0  0  0  0  0  0  0  0  0  0
   46.6980   35.2170   42.2870 C   0  0  0  0  0  0  0  0  0  0  0  0
   45.4280   34.8910   42.7770 C   0  0  0  0  0  0  0  0  0  0  0  0
   45.3340   33.9630   43.7640 N   0  0  0  0  0  0  0  0  0  0  0  0
   46.4310   33.3590   44.2750 C   0  0  0  0  0  0  0  0  0  0  0  0
   47.6310   33.6760   43.8010 N   0  0  0  0  0  0  0  0  0  0  0  0
   46.2890   32.3980   45.3030 N   0  0  0  0  0  0  0  0  0  0  0  0
   45.8450   31.1260   45.2050 C   0  0  0  0  0  0  0  0  0  0  0  0
   45.8700   30.5520   46.4470 N   0  0  0  0  0  0  0  0  0  0  0  0
   46.3320   31.5000   47.2680 C   0  0  0  0  0  0  0  0  0  0  0  0
   46.5750   32.5870   46.5700 N   0  0  0  0  0  0  0  0  0  0  0  0
   49.1300   34.9000   42.3390 C   0  0  0  0  0  0  0  0  0  0  0  0
   49.2880   35.9540   41.6690 O   0  0  0  0  0  0  0  0  0  0  0  0
   50.2020   34.0520   42.6090 O   0  0  0  0  0  0  0  0  0  0  0  0
   50.3590   32.9060   41.8250 C   0  0  0  0  0  0  0  0  0  0  0  0
   49.5140   33.0850   40.7330 F   0  0  0  0  0  0  0  0  0  0  0  0
   49.8330   31.8060   42.4930 F   0  0  0  0  0  0  0  0  0  0  0  0
   51.6600   32.6660   41.4600 F   0  0  0  0  0  0  0  0  0  0  0  0
   46.5900   31.3450   49.0350 S   0  0  0  0  0  0  0  0  0  0  0  0
   46.8183   35.9627   41.4873 H   0  0  0  0  0  0  0  0  0  0  0  0
   44.5271   35.3752   42.3720 H   0  0  0  0  0  0  0  0  0  0  0  0
   45.5170   30.6323   44.2784 H   0  0  0  0  0  0  0  0  0  0  0  0
   45.5642   31.9612   49.7021 H   0  0  0  0  0  0  0  0  0  0  0  0
  1  6  2  0
  2  3  2  0
  2  1  1  0
  3  4  1  0
  4  5  2  0
  5  7  1  0
  6  5  1  0
  7 11  1  0
  8  7  1  0
  8  9  2  0
  9 10  1  0
 10 19  1  0
 11 10  2  0
 12 14  1  0
 12  1  1  0
 13 12  2  0
 15 17  1  0
 15 14  1  0
 16 15  1  0
 18 15  1  0
  2 20  1  0
  3 21  1  0
  8 22  1  0
 19 23  1  0
M  ISO  4  20  14  21  14  22  14  23  11
M  END
>  <minimizedAffinity>  (1) 
-4.82408476

>  <minimizedRMSD>  (1) 
0.364378482

$$$$
