
     RDKit          3D

 48 52  0  0  1  0  0  0  0  0999 V2000
   47.4160   34.6650   42.6230 C   0  0  0  0  0  0  0  0  0  0  0  0
   46.4380   35.6580   42.5450 C   0  0  0  0  0  0  0  0  0  0  0  0
   45.1160   35.3290   42.9010 C   0  0  0  0  0  0  0  0  0  0  0  0
   44.8530   34.0570   43.3040 N   0  0  0  0  0  0  0  0  0  0  0  0
   45.8440   33.1250   43.3630 C   0  0  0  0  0  0  0  0  0  0  0  0
   47.0890   33.4410   43.0260 N   0  0  0  0  0  0  0  0  0  0  0  0
   45.5310   31.8060   43.7890 N   0  0  0  0  0  0  0  0  0  0  0  0
   44.8900   30.8350   43.1040 C   0  0  0  0  0  0  0  0  0  0  0  0
   44.8010   29.7250   43.8890 N   0  0  0  0  0  0  0  0  0  0  0  0
   45.3860   30.0350   45.0360 C   0  0  0  0  0  0  0  0  0  0  0  0
   45.8040   31.2730   44.9330 N   0  0  0  0  0  0  0  0  0  0  0  0
   45.4730   29.0920   46.1010 N   0  0  0  0  0  0  0  0  0  0  0  0
   46.6590   28.8420   46.9010 C   0  0  0  0  0  0  0  0  0  0  0  0
   46.4860   27.4470   47.4150 C   0  0  0  0  0  0  0  0  0  0  0  0
   45.0020   27.2700   47.4410 C   0  0  0  0  0  0  0  0  0  0  0  0
   44.3560   28.2620   46.5140 C   0  0  2  0  0  0  0  0  0  0  0  0
   43.7640   27.4730   45.4270 C   0  0  0  0  0  0  0  0  0  0  0  0
   44.3450   26.3980   44.8660 N   0  0  0  0  0  0  0  0  0  0  0  0
   43.7870   25.6830   43.8730 C   0  0  0  0  0  0  0  0  0  0  0  0
   42.5810   25.9780   43.3430 N   0  0  0  0  0  0  0  0  0  0  0  0
   41.9380   27.0440   43.8570 C   0  0  0  0  0  0  0  0  0  0  0  0
   40.7110   27.3480   43.3230 C   0  0  0  0  0  0  0  0  0  0  0  0
   40.0060   28.4330   43.8140 C   0  0  0  0  0  0  0  0  0  0  0  0
   40.5560   29.1780   44.8270 C   0  0  0  0  0  0  0  0  0  0  0  0
   41.7930   28.8320   45.3320 C   0  0  0  0  0  0  0  0  0  0  0  0
   42.5420   27.7660   44.8850 C   0  0  0  0  0  0  0  0  0  0  0  0
   48.7880   34.9920   42.2590 C   0  0  0  0  0  0  0  0  0  0  0  0
   48.9850   35.9320   41.4320 O   0  0  0  0  0  0  0  0  0  0  0  0
   49.8410   34.2730   42.8210 O   0  0  0  0  0  0  0  0  0  0  0  0
   50.3350   33.1580   42.1230 C   0  0  0  0  0  0  0  0  0  0  0  0
   49.5990   33.1100   40.9230 F   0  0  0  0  0  0  0  0  0  0  0  0
   49.9570   31.9800   42.7850 F   0  0  0  0  0  0  0  0  0  0  0  0
   51.6810   33.1870   41.9070 F   0  0  0  0  0  0  0  0  0  0  0  0
   46.6944   36.6748   42.2128 H   0  0  0  0  0  0  0  0  0  0  0  0
   44.3157   36.0822   42.8543 H   0  0  0  0  0  0  0  0  0  0  0  0
   44.5025   30.9254   42.0785 H   0  0  0  0  0  0  0  0  0  0  0  0
   47.5661   28.9178   46.2834 H   0  0  0  0  0  0  0  0  0  0  0  0
   46.7729   29.5733   47.7147 H   0  0  0  0  0  0  0  0  0  0  0  0
   46.9578   26.7174   46.7404 H   0  0  0  0  0  0  0  0  0  0  0  0
   46.9549   27.2897   48.3975 H   0  0  0  0  0  0  0  0  0  0  0  0
   44.7499   26.2494   47.1172 H   0  0  0  0  0  0  0  0  0  0  0  0
   44.6338   27.4350   48.4643 H   0  0  0  0  0  0  0  0  0  0  0  0
   43.5540   28.8923   46.9257 H   0  0  0  0  0  0  0  0  0  0  0  0
   44.3383   24.8185   43.4746 H   0  0  0  0  0  0  0  0  0  0  0  0
   40.2915   26.7347   42.5119 H   0  0  0  0  0  0  0  0  0  0  0  0
   39.0212   28.6940   43.3992 H   0  0  0  0  0  0  0  0  0  0  0  0
   40.0146   30.0449   45.2336 H   0  0  0  0  0  0  0  0  0  0  0  0
   42.2076   29.4474   46.1440 H   0  0  0  0  0  0  0  0  0  0  0  0
  1  6  2  0
  2  1  1  0
  2  3  2  0
  3  4  1  0
  4  5  2  0
  5  7  1  0
  6  5  1  0
  7 11  1  0
  8  7  1  0
  8  9  2  0
  9 10  1  0
 10 12  1  0
 11 10  2  0
 12 16  1  0
 12 13  1  0
 13 14  1  0
 14 15  1  0
 16 15  1  0
 17 16  1  0
 18 17  2  0
 19 18  1  0
 20 21  1  0
 20 19  2  0
 21 26  2  0
 22 23  2  0
 22 21  1  0
 23 24  1  0
 24 25  2  0
 26 25  1  0
 26 17  1  0
 27  1  1  0
 27 29  1  0
 28 27  2  0
 30 32  1  0
 30 29  1  0
 31 30  1  0
 33 30  1  0
  2 34  1  0
  3 35  1  0
  8 36  1  0
 13 37  1  0
 13 38  1  0
 14 39  1  0
 14 40  1  0
 15 41  1  0
 15 42  1  0
 16 43  1  1
 19 44  1  0
 22 45  1  0
 23 46  1  0
 24 47  1  0
 25 48  1  0
M  ISO  8  34  14  35  14  36  14  37  13  38  13  39  13  40  13  41  13
M  ISO  7  42  13  43  13  44  14  45  14  46  14  47  14  48  14
M  END
>  <minimizedAffinity>  (1) 
-5.60252476

>  <minimizedRMSD>  (1) 
0.551137209

$$$$
