
     RDKit          3D

 34 36  0  0  0  0  0  0  0  0999 V2000
   47.3760   34.6360   42.6230 C   0  0  0  0  0  0  0  0  0  0  0  0
   46.4160   35.6390   42.6220 C   0  0  0  0  0  0  0  0  0  0  0  0
   45.1220   35.3300   43.0860 C   0  0  0  0  0  0  0  0  0  0  0  0
   44.8690   34.0650   43.5150 N   0  0  0  0  0  0  0  0  0  0  0  0
   45.8400   33.1200   43.4960 C   0  0  0  0  0  0  0  0  0  0  0  0
   47.0590   33.4220   43.0560 N   0  0  0  0  0  0  0  0  0  0  0  0
   45.5470   31.8020   43.9510 N   0  0  0  0  0  0  0  0  0  0  0  0
   44.8390   30.8370   43.3170 C   0  0  0  0  0  0  0  0  0  0  0  0
   44.8010   29.7250   44.1100 N   0  0  0  0  0  0  0  0  0  0  0  0
   45.4900   30.0460   45.2100 C   0  0  0  0  0  0  0  0  0  0  0  0
   45.9180   31.2810   45.0850 N   0  0  0  0  0  0  0  0  0  0  0  0
   45.6600   29.1050   46.2750 N   0  0  0  0  0  0  0  0  0  0  0  0
   46.8950   28.8340   46.9720 C   0  0  0  0  0  0  0  0  0  0  0  0
   46.7380   27.4480   47.5190 C   0  0  0  0  0  0  0  0  0  0  0  0
   45.2520   27.3110   47.6940 C   0  0  0  0  0  0  0  0  0  0  0  0
   44.5750   28.2950   46.7880 C   0  0  0  0  0  0  0  0  0  0  0  0
   48.7150   34.9450   42.1470 C   0  0  0  0  0  0  0  0  0  0  0  0
   48.8480   35.7960   41.2230 O   0  0  0  0  0  0  0  0  0  0  0  0
   49.8140   34.3050   42.7100 O   0  0  0  0  0  0  0  0  0  0  0  0
   50.3140   33.1500   42.0900 C   0  0  0  0  0  0  0  0  0  0  0  0
   49.5950   33.0350   40.8910 F   0  0  0  0  0  0  0  0  0  0  0  0
   49.9270   32.0160   42.8220 F   0  0  0  0  0  0  0  0  0  0  0  0
   51.6640   33.1660   41.8930 F   0  0  0  0  0  0  0  0  0  0  0  0
   46.6599   36.6512   42.2672 H   0  0  0  0  0  0  0  0  0  0  0  0
   44.3330   36.0963   43.1008 H   0  0  0  0  0  0  0  0  0  0  0  0
   44.3712   30.9328   42.3260 H   0  0  0  0  0  0  0  0  0  0  0  0
   47.7480   28.8814   46.2791 H   0  0  0  0  0  0  0  0  0  0  0  0
   47.0910   29.5705   47.7652 H   0  0  0  0  0  0  0  0  0  0  0  0
   47.1219   26.6991   46.8107 H   0  0  0  0  0  0  0  0  0  0  0  0
   47.2976   27.2879   48.4524 H   0  0  0  0  0  0  0  0  0  0  0  0
   44.9399   26.2893   47.4319 H   0  0  0  0  0  0  0  0  0  0  0  0
   44.9753   27.5087   48.7401 H   0  0  0  0  0  0  0  0  0  0  0  0
   43.8575   28.9125   47.3482 H   0  0  0  0  0  0  0  0  0  0  0  0
   43.9978   27.8065   45.9891 H   0  0  0  0  0  0  0  0  0  0  0  0
  1  6  2  0
  2  1  1  0
  2  3  2  0
  3  4  1  0
  5  4  2  0
  5  7  1  0
  6  5  1  0
  7 11  1  0
  8  7  1  0
  8  9  2  0
  9 10  1  0
 10 12  1  0
 11 10  2  0
 12 16  1  0
 12 13  1  0
 13 14  1  0
 14 15  1  0
 16 15  1  0
 17  1  1  0
 17 19  1  0
 18 17  2  0
 20 19  1  0
 20 22  1  0
 21 20  1  0
 23 20  1  0
  2 24  1  0
  3 25  1  0
  8 26  1  0
 13 27  1  0
 13 28  1  0
 14 29  1  0
 14 30  1  0
 15 31  1  0
 15 32  1  0
 16 33  1  0
 16 34  1  0
M  ISO  8  24  14  25  14  26  14  27  13  28  13  29  13  30  13  31  13
M  ISO  3  32  13  33  13  34  13
M  END
>  <minimizedAffinity>  (1) 
-4.72588348

>  <minimizedRMSD>  (1) 
2.64809108

$$$$
