
     RDKit          3D

 47 50  0  0  1  0  0  0  0  0999 V2000
   47.3900   34.6150   42.6500 C   0  0  0  0  0  0  0  0  0  0  0  0
   46.4260   35.6240   42.6030 C   0  0  0  0  0  0  0  0  0  0  0  0
   45.1070   35.3180   42.9890 C   0  0  0  0  0  0  0  0  0  0  0  0
   44.8240   34.0480   43.3940 N   0  0  0  0  0  0  0  0  0  0  0  0
   45.8050   33.0990   43.4200 C   0  0  0  0  0  0  0  0  0  0  0  0
   47.0440   33.3970   43.0540 N   0  0  0  0  0  0  0  0  0  0  0  0
   45.4770   31.7810   43.8460 N   0  0  0  0  0  0  0  0  0  0  0  0
   44.7850   30.8310   43.1760 C   0  0  0  0  0  0  0  0  0  0  0  0
   44.7040   29.7190   43.9580 N   0  0  0  0  0  0  0  0  0  0  0  0
   45.3400   30.0040   45.0840 C   0  0  0  0  0  0  0  0  0  0  0  0
   45.7830   31.2370   44.9770 N   0  0  0  0  0  0  0  0  0  0  0  0
   45.4360   29.0400   46.1260 N   0  0  0  0  0  0  0  0  0  0  0  0
   46.6480   28.7530   46.8820 C   0  0  0  0  0  0  0  0  0  0  0  0
   46.4470   27.3710   47.4230 C   0  0  0  0  0  0  0  0  0  0  0  0
   44.9400   27.2980   47.5560 C   0  0  0  0  0  0  0  0  0  0  0  0
   44.3490   28.2320   46.5740 C   0  0  2  0  0  0  0  0  0  0  0  0
   43.6730   27.6180   45.4730 N   0  0  0  0  0  0  0  0  0  0  0  0
   42.2660   27.8750   45.4400 C   0  0  0  0  0  0  0  0  0  0  0  0
   41.3490   26.7600   45.7490 C   0  0  0  0  0  0  0  0  0  0  0  0
   41.7570   25.5970   45.1490 O   0  0  0  0  0  0  0  0  0  0  0  0
   42.9730   25.2480   45.6780 C   0  0  0  0  0  0  0  0  0  0  0  0
   44.0220   26.2450   45.2500 C   0  0  0  0  0  0  0  0  0  0  0  0
   48.7490   34.9210   42.2530 C   0  0  0  0  0  0  0  0  0  0  0  0
   48.9500   35.8420   41.4170 O   0  0  0  0  0  0  0  0  0  0  0  0
   49.8080   34.2010   42.8000 O   0  0  0  0  0  0  0  0  0  0  0  0
   50.3030   33.0950   42.0980 C   0  0  0  0  0  0  0  0  0  0  0  0
   49.5670   33.0440   40.9050 F   0  0  0  0  0  0  0  0  0  0  0  0
   49.9410   31.9070   42.7600 F   0  0  0  0  0  0  0  0  0  0  0  0
   51.6530   33.1290   41.8770 F   0  0  0  0  0  0  0  0  0  0  0  0
   46.6919   36.6384   42.2708 H   0  0  0  0  0  0  0  0  0  0  0  0
   44.3216   36.0878   42.9642 H   0  0  0  0  0  0  0  0  0  0  0  0
   44.3588   30.9388   42.1677 H   0  0  0  0  0  0  0  0  0  0  0  0
   47.5304   28.7872   46.2261 H   0  0  0  0  0  0  0  0  0  0  0  0
   46.8216   29.4890   47.6808 H   0  0  0  0  0  0  0  0  0  0  0  0
   46.8234   26.6099   46.7237 H   0  0  0  0  0  0  0  0  0  0  0  0
   46.9839   27.1819   48.3643 H   0  0  0  0  0  0  0  0  0  0  0  0
   44.5963   26.2735   47.3505 H   0  0  0  0  0  0  0  0  0  0  0  0
   44.6327   27.5713   48.5762 H   0  0  0  0  0  0  0  0  0  0  0  0
   43.5480   28.8069   47.0617 H   0  0  0  0  0  0  0  0  0  0  0  0
   42.0630   28.6760   46.1661 H   0  0  0  0  0  0  0  0  0  0  0  0
   42.0565   28.1187   44.3880 H   0  0  0  0  0  0  0  0  0  0  0  0
   41.3216   26.6104   46.8384 H   0  0  0  0  0  0  0  0  0  0  0  0
   40.3504   27.0161   45.3654 H   0  0  0  0  0  0  0  0  0  0  0  0
   42.9045   25.2386   46.7758 H   0  0  0  0  0  0  0  0  0  0  0  0
   43.2532   24.2479   45.3155 H   0  0  0  0  0  0  0  0  0  0  0  0
   44.2048   26.1088   44.1739 H   0  0  0  0  0  0  0  0  0  0  0  0
   44.9091   26.0464   45.8694 H   0  0  0  0  0  0  0  0  0  0  0  0
  1  6  2  0
  2  1  1  0
  2  3  2  0
  3  4  1  0
  4  5  2  0
  5  7  1  0
  6  5  1  0
  7 11  1  0
  8  7  1  0
  8  9  2  0
  9 10  1  0
 10 12  1  0
 11 10  2  0
 12 16  1  0
 12 13  1  0
 13 14  1  0
 14 15  1  0
 16 15  1  0
 17 16  1  0
 18 17  1  0
 18 19  1  0
 20 21  1  0
 20 19  1  0
 22 17  1  0
 22 21  1  0
 23  1  1  0
 23 25  1  0
 24 23  2  0
 26 28  1  0
 26 25  1  0
 27 26  1  0
 29 26  1  0
  2 30  1  0
  3 31  1  0
  8 32  1  0
 13 33  1  0
 13 34  1  0
 14 35  1  0
 14 36  1  0
 15 37  1  0
 15 38  1  0
 16 39  1  1
 18 40  1  0
 18 41  1  0
 19 42  1  0
 19 43  1  0
 21 44  1  0
 21 45  1  0
 22 46  1  0
 22 47  1  0
M  ISO  8  30  14  31  14  32  14  33  13  34  13  35  13  36  13  37  13
M  ISO  8  38  13  39  13  40  13  41  13  42  13  43  13  44  13  45  13
M  ISO  2  46  13  47  13
M  END
>  <minimizedAffinity>  (1) 
-5.17843628

>  <minimizedRMSD>  (1) 
1.45704365

$$$$
