
     RDKit          3D

 41 44  0  0  1  0  0  0  0  0999 V2000
   47.3870   34.6380   42.6310 C   0  0  0  0  0  0  0  0  0  0  0  0
   46.4190   35.6410   42.6140 C   0  0  0  0  0  0  0  0  0  0  0  0
   45.1290   35.3370   43.0680 C   0  0  0  0  0  0  0  0  0  0  0  0
   44.8840   34.0700   43.5040 N   0  0  0  0  0  0  0  0  0  0  0  0
   45.8460   33.1300   43.5030 C   0  0  0  0  0  0  0  0  0  0  0  0
   47.0690   33.4360   43.0680 N   0  0  0  0  0  0  0  0  0  0  0  0
   45.5570   31.8180   43.9650 N   0  0  0  0  0  0  0  0  0  0  0  0
   44.8480   30.8500   43.3240 C   0  0  0  0  0  0  0  0  0  0  0  0
   44.8060   29.7350   44.1210 N   0  0  0  0  0  0  0  0  0  0  0  0
   45.4950   30.0630   45.2290 C   0  0  0  0  0  0  0  0  0  0  0  0
   45.9210   31.2960   45.0990 N   0  0  0  0  0  0  0  0  0  0  0  0
   45.6550   29.1270   46.2860 N   0  0  0  0  0  0  0  0  0  0  0  0
   46.8820   28.8560   46.9860 C   0  0  0  0  0  0  0  0  0  0  0  0
   46.7320   27.4680   47.5330 C   0  0  0  0  0  0  0  0  0  0  0  0
   45.2510   27.3410   47.7160 C   0  0  0  0  0  0  0  0  0  0  0  0
   44.5790   28.3090   46.8030 C   0  0  2  0  0  0  0  0  0  0  0  0
   43.7500   27.6790   45.7580 C   0  0  0  0  0  0  0  0  0  0  0  0
   42.4090   27.9690   45.4800 C   0  0  0  0  0  0  0  0  0  0  0  0
   41.9610   27.1800   44.4330 C   0  0  0  0  0  0  0  0  0  0  0  0
   43.0870   26.4240   44.1140 C   0  0  0  0  0  0  0  0  0  0  0  0
   44.0690   26.7550   44.9040 O   0  0  0  0  0  0  0  0  0  0  0  0
   48.7310   34.9460   42.1610 C   0  0  0  0  0  0  0  0  0  0  0  0
   48.8710   35.8150   41.2440 O   0  0  0  0  0  0  0  0  0  0  0  0
   49.8270   34.3000   42.7090 O   0  0  0  0  0  0  0  0  0  0  0  0
   50.3090   33.1350   42.0720 C   0  0  0  0  0  0  0  0  0  0  0  0
   49.5860   33.0390   40.8850 F   0  0  0  0  0  0  0  0  0  0  0  0
   49.9220   32.0150   42.8220 F   0  0  0  0  0  0  0  0  0  0  0  0
   51.6620   33.1570   41.8910 F   0  0  0  0  0  0  0  0  0  0  0  0
   46.6631   36.6505   42.2515 H   0  0  0  0  0  0  0  0  0  0  0  0
   44.3365   36.0998   43.0723 H   0  0  0  0  0  0  0  0  0  0  0  0
   44.3850   30.9459   42.3308 H   0  0  0  0  0  0  0  0  0  0  0  0
   47.7375   28.9073   46.2965 H   0  0  0  0  0  0  0  0  0  0  0  0
   47.0686   29.5911   47.7828 H   0  0  0  0  0  0  0  0  0  0  0  0
   47.1088   26.7188   46.8211 H   0  0  0  0  0  0  0  0  0  0  0  0
   47.3009   27.3015   48.4596 H   0  0  0  0  0  0  0  0  0  0  0  0
   44.9329   26.3169   47.4708 H   0  0  0  0  0  0  0  0  0  0  0  0
   44.9796   27.5556   48.7602 H   0  0  0  0  0  0  0  0  0  0  0  0
   43.8318   28.9130   47.3385 H   0  0  0  0  0  0  0  0  0  0  0  0
   41.8006   28.7136   46.0142 H   0  0  0  0  0  0  0  0  0  0  0  0
   40.9640   27.1563   43.9689 H   0  0  0  0  0  0  0  0  0  0  0  0
   43.1389   25.6656   43.3189 H   0  0  0  0  0  0  0  0  0  0  0  0
  1  6  2  0
  2  1  1  0
  2  3  2  0
  3  4  1  0
  5  4  2  0
  5  7  1  0
  6  5  1  0
  7 11  1  0
  8  7  1  0
  8  9  2  0
  9 10  1  0
 10 12  1  0
 11 10  2  0
 12 16  1  0
 12 13  1  0
 13 14  1  0
 14 15  1  0
 16 15  1  0
 17 16  1  0
 18 17  2  0
 19 18  1  0
 20 19  2  0
 20 21  1  0
 21 17  1  0
 22  1  1  0
 22 24  1  0
 23 22  2  0
 25 24  1  0
 25 27  1  0
 26 25  1  0
 28 25  1  0
  2 29  1  0
  3 30  1  0
  8 31  1  0
 13 32  1  0
 13 33  1  0
 14 34  1  0
 14 35  1  0
 15 36  1  0
 15 37  1  0
 16 38  1  1
 18 39  1  0
 19 40  1  0
 20 41  1  0
M  ISO  8  29  14  30  14  31  14  32  13  33  13  34  13  35  13  36  13
M  ISO  5  37  13  38  13  39  14  40  14  41  14
M  END
>  <minimizedAffinity>  (1) 
-5.11425924

>  <minimizedRMSD>  (1) 
0.45011586

$$$$
