
     RDKit          3D

 47 51  0  0  1  0  0  0  0  0999 V2000
   47.4050   34.6580   42.6060 C   0  0  0  0  0  0  0  0  0  0  0  0
   46.4540   35.6680   42.6200 C   0  0  0  0  0  0  0  0  0  0  0  0
   45.1640   35.3780   43.1020 C   0  0  0  0  0  0  0  0  0  0  0  0
   44.9070   34.1200   43.5340 N   0  0  0  0  0  0  0  0  0  0  0  0
   45.8520   33.1610   43.5080 C   0  0  0  0  0  0  0  0  0  0  0  0
   47.0770   33.4460   43.0470 N   0  0  0  0  0  0  0  0  0  0  0  0
   45.5580   31.8540   43.9650 N   0  0  0  0  0  0  0  0  0  0  0  0
   44.8320   30.8930   43.3270 C   0  0  0  0  0  0  0  0  0  0  0  0
   44.7910   29.7810   44.1180 N   0  0  0  0  0  0  0  0  0  0  0  0
   45.4940   30.0960   45.2210 C   0  0  0  0  0  0  0  0  0  0  0  0
   45.9360   31.3300   45.1030 N   0  0  0  0  0  0  0  0  0  0  0  0
   45.6640   29.1510   46.2840 N   0  0  0  0  0  0  0  0  0  0  0  0
   46.8920   28.8620   46.9630 C   0  0  0  0  0  0  0  0  0  0  0  0
   46.7230   27.4860   47.5250 C   0  0  0  0  0  0  0  0  0  0  0  0
   45.2350   27.3520   47.6900 C   0  0  0  0  0  0  0  0  0  0  0  0
   44.5570   28.3570   46.8040 C   0  0  2  0  0  0  0  0  0  0  0  0
   43.9820   27.6790   45.6620 N   0  0  0  0  0  0  0  0  0  0  0  0
   44.6870   26.7200   45.0530 C   0  0  0  0  0  0  0  0  0  0  0  0
   43.9390   26.2520   44.0310 N   0  0  0  0  0  0  0  0  0  0  0  0
   42.7740   26.9390   44.0300 C   0  0  0  0  0  0  0  0  0  0  0  0
   41.6110   26.9500   43.2690 C   0  0  0  0  0  0  0  0  0  0  0  0
   40.5900   27.7830   43.5260 N   0  0  0  0  0  0  0  0  0  0  0  0
   40.6580   28.6610   44.5570 C   0  0  0  0  0  0  0  0  0  0  0  0
   41.7820   28.6780   45.3220 N   0  0  0  0  0  0  0  0  0  0  0  0
   42.8050   27.8470   45.0680 C   0  0  0  0  0  0  0  0  0  0  0  0
   41.5650   26.0150   42.1890 N   0  0  0  0  0  0  0  0  0  0  0  0
   48.7310   34.9540   42.1100 C   0  0  0  0  0  0  0  0  0  0  0  0
   48.8700   35.7870   41.1780 O   0  0  0  0  0  0  0  0  0  0  0  0
   49.8380   34.3080   42.6760 O   0  0  0  0  0  0  0  0  0  0  0  0
   50.3200   33.1440   42.0720 C   0  0  0  0  0  0  0  0  0  0  0  0
   49.5910   33.0230   40.8750 F   0  0  0  0  0  0  0  0  0  0  0  0
   49.9220   32.0230   42.8240 F   0  0  0  0  0  0  0  0  0  0  0  0
   51.6620   33.1270   41.8610 F   0  0  0  0  0  0  0  0  0  0  0  0
   46.7038   36.6773   42.2608 H   0  0  0  0  0  0  0  0  0  0  0  0
   44.3840   36.1533   43.1273 H   0  0  0  0  0  0  0  0  0  0  0  0
   44.3582   30.9961   42.3396 H   0  0  0  0  0  0  0  0  0  0  0  0
   47.7364   28.8886   46.2585 H   0  0  0  0  0  0  0  0  0  0  0  0
   47.1075   29.6006   47.7492 H   0  0  0  0  0  0  0  0  0  0  0  0
   47.1109   26.7273   46.8294 H   0  0  0  0  0  0  0  0  0  0  0  0
   47.2725   27.3383   48.4664 H   0  0  0  0  0  0  0  0  0  0  0  0
   44.9214   26.3369   47.4049 H   0  0  0  0  0  0  0  0  0  0  0  0
   44.9578   27.5318   48.7392 H   0  0  0  0  0  0  0  0  0  0  0  0
   43.7789   28.9245   47.3355 H   0  0  0  0  0  0  0  0  0  0  0  0
   45.6932   26.3751   45.3335 H   0  0  0  0  0  0  0  0  0  0  0  0
   39.8226   29.3442   44.7698 H   0  0  0  0  0  0  0  0  0  0  0  0
   42.3639   25.3883   42.0160 H   0  0  0  0  0  0  0  0  0  0  0  0
   40.7330   25.9679   41.5837 H   0  0  0  0  0  0  0  0  0  0  0  0
  1  2  2  0
  1  6  1  0
  2  3  1  0
  3  4  2  0
  5  4  1  0
  5  7  1  0
  6  5  2  0
  7 11  1  0
  8  7  1  0
  8  9  2  0
  9 10  1  0
 10 12  1  0
 11 10  2  0
 12 16  1  0
 12 13  1  0
 13 14  1  0
 14 15  1  0
 16 15  1  0
 17 16  1  0
 18 17  1  0
 19 18  2  0
 20 19  1  0
 20 25  2  0
 21 22  2  0
 21 20  1  0
 22 23  1  0
 23 24  2  0
 25 24  1  0
 25 17  1  0
 26 21  1  0
 27  1  1  0
 27 29  1  0
 28 27  2  0
 30 29  1  0
 30 32  1  0
 31 30  1  0
 33 30  1  0
  2 34  1  0
  3 35  1  0
  8 36  1  0
 13 37  1  0
 13 38  1  0
 14 39  1  0
 14 40  1  0
 15 41  1  0
 15 42  1  0
 16 43  1  1
 18 44  1  0
 23 45  1  0
 26 46  1  0
 26 47  1  0
M  ISO  8  34  14  35  14  36  14  37  13  38  13  39  13  40  13  41  13
M  ISO  4  42  13  43  13  44  14  45  14
M  END
>  <minimizedAffinity>  (1) 
-5.5939703

>  <minimizedRMSD>  (1) 
1.06877112

$$$$
