
     RDKit          3D

 44 47  0  0  1  0  0  0  0  0999 V2000
   47.3920   34.6530   42.5980 C   0  0  0  0  0  0  0  0  0  0  0  0
   46.4570   35.6710   42.6290 C   0  0  0  0  0  0  0  0  0  0  0  0
   45.1790   35.3830   43.1310 C   0  0  0  0  0  0  0  0  0  0  0  0
   44.9110   34.1290   43.5630 N   0  0  0  0  0  0  0  0  0  0  0  0
   45.8610   33.1630   43.5120 C   0  0  0  0  0  0  0  0  0  0  0  0
   47.0700   33.4390   43.0360 N   0  0  0  0  0  0  0  0  0  0  0  0
   45.5540   31.8500   43.9720 N   0  0  0  0  0  0  0  0  0  0  0  0
   44.8150   30.9020   43.3620 C   0  0  0  0  0  0  0  0  0  0  0  0
   44.7800   29.7910   44.1570 N   0  0  0  0  0  0  0  0  0  0  0  0
   45.4980   30.0850   45.2330 C   0  0  0  0  0  0  0  0  0  0  0  0
   45.9450   31.3150   45.0940 N   0  0  0  0  0  0  0  0  0  0  0  0
   45.6790   29.1380   46.2920 N   0  0  0  0  0  0  0  0  0  0  0  0
   46.9290   28.8410   46.9450 C   0  0  0  0  0  0  0  0  0  0  0  0
   46.7570   27.4920   47.5390 C   0  0  0  0  0  0  0  0  0  0  0  0
   45.2740   27.3460   47.7020 C   0  0  0  0  0  0  0  0  0  0  0  0
   44.5810   28.3610   46.8280 C   0  0  2  0  0  0  0  0  0  0  0  0
   43.7950   27.7220   45.7470 C   0  0  0  0  0  0  0  0  0  0  0  0
   42.4900   28.1630   45.5050 C   0  0  0  0  0  0  0  0  0  0  0  0
   41.6830   27.6330   44.5250 C   0  0  0  0  0  0  0  0  0  0  0  0
   42.2000   26.6270   43.7590 C   0  0  0  0  0  0  0  0  0  0  0  0
   43.4800   26.1440   43.9430 C   0  0  0  0  0  0  0  0  0  0  0  0
   44.2380   26.7190   44.9440 C   0  0  0  0  0  0  0  0  0  0  0  0
   48.7210   34.9350   42.0800 C   0  0  0  0  0  0  0  0  0  0  0  0
   48.8380   35.7510   41.1260 O   0  0  0  0  0  0  0  0  0  0  0  0
   49.8290   34.3090   42.6410 O   0  0  0  0  0  0  0  0  0  0  0  0
   50.3140   33.1270   42.0540 C   0  0  0  0  0  0  0  0  0  0  0  0
   49.5860   32.9940   40.8590 F   0  0  0  0  0  0  0  0  0  0  0  0
   49.9210   32.0230   42.8220 F   0  0  0  0  0  0  0  0  0  0  0  0
   51.6650   33.1290   41.8640 F   0  0  0  0  0  0  0  0  0  0  0  0
   46.7084   36.6798   42.2697 H   0  0  0  0  0  0  0  0  0  0  0  0
   44.4064   36.1649   43.1728 H   0  0  0  0  0  0  0  0  0  0  0  0
   44.3211   31.0056   42.3846 H   0  0  0  0  0  0  0  0  0  0  0  0
   47.7522   28.8374   46.2154 H   0  0  0  0  0  0  0  0  0  0  0  0
   47.1791   29.5932   47.7077 H   0  0  0  0  0  0  0  0  0  0  0  0
   47.1534   26.7167   46.8668 H   0  0  0  0  0  0  0  0  0  0  0  0
   47.2977   27.3794   48.4903 H   0  0  0  0  0  0  0  0  0  0  0  0
   44.9683   26.3324   47.4034 H   0  0  0  0  0  0  0  0  0  0  0  0
   44.9980   27.5115   48.7539 H   0  0  0  0  0  0  0  0  0  0  0  0
   43.8486   28.9661   47.3825 H   0  0  0  0  0  0  0  0  0  0  0  0
   42.0887   28.9745   46.1298 H   0  0  0  0  0  0  0  0  0  0  0  0
   40.6604   28.0051   44.3643 H   0  0  0  0  0  0  0  0  0  0  0  0
   41.5748   26.1866   42.9683 H   0  0  0  0  0  0  0  0  0  0  0  0
   43.8805   25.3330   43.3169 H   0  0  0  0  0  0  0  0  0  0  0  0
   45.2599   26.3433   45.1005 H   0  0  0  0  0  0  0  0  0  0  0  0
  1  2  2  0
  1  6  1  0
  2  3  1  0
  3  4  2  0
  5  4  1  0
  5  7  1  0
  6  5  2  0
  7 11  1  0
  8  7  1  0
  8  9  2  0
  9 10  1  0
 10 12  1  0
 11 10  2  0
 12 16  1  0
 12 13  1  0
 13 14  1  0
 14 15  1  0
 16 15  1  0
 17 16  1  0
 18 17  2  0
 19 18  1  0
 20 21  1  0
 20 19  2  0
 21 22  2  0
 22 17  1  0
 23  1  1  0
 23 25  1  0
 24 23  2  0
 26 25  1  0
 26 28  1  0
 27 26  1  0
 29 26  1  0
  2 30  1  0
  3 31  1  0
  8 32  1  0
 13 33  1  0
 13 34  1  0
 14 35  1  0
 14 36  1  0
 15 37  1  0
 15 38  1  0
 16 39  1  1
 18 40  1  0
 19 41  1  0
 20 42  1  0
 21 43  1  0
 22 44  1  0
M  ISO  8  30  14  31  14  32  14  33  13  34  13  35  13  36  13  37  13
M  ISO  7  38  13  39  13  40  14  41  14  42  14  43  14  44  14
M  END
>  <minimizedAffinity>  (1) 
-5.24202633

>  <minimizedRMSD>  (1) 
0.0935648382

$$$$
