
     RDKit          3D

 44 47  0  0  1  0  0  0  0  0999 V2000
   47.3780   34.6530   42.5680 C   0  0  0  0  0  0  0  0  0  0  0  0
   46.4340   35.6740   42.5730 C   0  0  0  0  0  0  0  0  0  0  0  0
   45.1350   35.3950   43.0270 C   0  0  0  0  0  0  0  0  0  0  0  0
   44.8470   34.1260   43.4490 N   0  0  0  0  0  0  0  0  0  0  0  0
   45.8120   33.1640   43.4230 C   0  0  0  0  0  0  0  0  0  0  0  0
   47.0340   33.4420   42.9910 N   0  0  0  0  0  0  0  0  0  0  0  0
   45.4890   31.8440   43.8680 N   0  0  0  0  0  0  0  0  0  0  0  0
   44.7650   30.9020   43.2300 C   0  0  0  0  0  0  0  0  0  0  0  0
   44.7030   29.7900   44.0130 N   0  0  0  0  0  0  0  0  0  0  0  0
   45.3890   30.0790   45.1120 C   0  0  0  0  0  0  0  0  0  0  0  0
   45.8450   31.3120   44.9930 N   0  0  0  0  0  0  0  0  0  0  0  0
   45.5450   29.1330   46.1830 N   0  0  0  0  0  0  0  0  0  0  0  0
   46.7770   28.8140   46.8490 C   0  0  0  0  0  0  0  0  0  0  0  0
   46.5750   27.4560   47.4220 C   0  0  0  0  0  0  0  0  0  0  0  0
   45.0900   27.3450   47.5810 C   0  0  0  0  0  0  0  0  0  0  0  0
   44.4270   28.3840   46.7130 C   0  0  2  0  0  0  0  0  0  0  0  0
   43.5560   27.7910   45.6820 C   0  0  0  0  0  0  0  0  0  0  0  0
   42.2860   28.3200   45.4700 C   0  0  0  0  0  0  0  0  0  0  0  0
   41.3900   27.8540   44.5410 C   0  0  0  0  0  0  0  0  0  0  0  0
   41.8320   26.7700   43.7800 C   0  0  0  0  0  0  0  0  0  0  0  0
   43.0730   26.1900   43.9280 C   0  0  0  0  0  0  0  0  0  0  0  0
   43.9050   26.7390   44.8980 C   0  0  0  0  0  0  0  0  0  0  0  0
   48.7190   34.9420   42.0990 C   0  0  0  0  0  0  0  0  0  0  0  0
   48.8710   35.7740   41.1650 O   0  0  0  0  0  0  0  0  0  0  0  0
   49.8010   34.3040   42.6780 O   0  0  0  0  0  0  0  0  0  0  0  0
   50.3060   33.1420   42.0780 C   0  0  0  0  0  0  0  0  0  0  0  0
   49.5940   33.0090   40.8740 F   0  0  0  0  0  0  0  0  0  0  0  0
   49.9110   32.0150   42.8170 F   0  0  0  0  0  0  0  0  0  0  0  0
   51.6580   33.1550   41.8940 F   0  0  0  0  0  0  0  0  0  0  0  0
   46.7005   36.6836   42.2270 H   0  0  0  0  0  0  0  0  0  0  0  0
   44.3650   36.1804   43.0430 H   0  0  0  0  0  0  0  0  0  0  0  0
   44.3006   31.0138   42.2391 H   0  0  0  0  0  0  0  0  0  0  0  0
   47.6119   28.8094   46.1328 H   0  0  0  0  0  0  0  0  0  0  0  0
   47.0264   29.5529   47.6248 H   0  0  0  0  0  0  0  0  0  0  0  0
   46.9535   26.6828   46.7372 H   0  0  0  0  0  0  0  0  0  0  0  0
   47.1134   27.3132   48.3705 H   0  0  0  0  0  0  0  0  0  0  0  0
   44.7597   26.3418   47.2737 H   0  0  0  0  0  0  0  0  0  0  0  0
   44.8146   27.5078   48.6335 H   0  0  0  0  0  0  0  0  0  0  0  0
   43.7273   29.0293   47.2643 H   0  0  0  0  0  0  0  0  0  0  0  0
   41.9784   29.1734   46.0922 H   0  0  0  0  0  0  0  0  0  0  0  0
   40.3947   28.3024   44.4055 H   0  0  0  0  0  0  0  0  0  0  0  0
   41.1521   26.3563   43.0206 H   0  0  0  0  0  0  0  0  0  0  0  0
   43.3896   25.3364   43.3106 H   0  0  0  0  0  0  0  0  0  0  0  0
   44.9020   26.2958   45.0378 H   0  0  0  0  0  0  0  0  0  0  0  0
  1  2  2  0
  1  6  1  0
  2  3  1  0
  3  4  2  0
  5  4  1  0
  5  7  1  0
  6  5  2  0
  7 11  1  0
  8  7  1  0
  8  9  2  0
  9 10  1  0
 10 12  1  0
 11 10  2  0
 12 16  1  0
 12 13  1  0
 13 14  1  0
 14 15  1  0
 16 15  1  0
 17 16  1  0
 18 17  2  0
 19 18  1  0
 20 21  1  0
 20 19  2  0
 21 22  2  0
 22 17  1  0
 23  1  1  0
 23 25  1  0
 24 23  2  0
 26 25  1  0
 26 28  1  0
 27 26  1  0
 29 26  1  0
  2 30  1  0
  3 31  1  0
  8 32  1  0
 13 33  1  0
 13 34  1  0
 14 35  1  0
 14 36  1  0
 15 37  1  0
 15 38  1  0
 16 39  1  1
 18 40  1  0
 19 41  1  0
 20 42  1  0
 21 43  1  0
 22 44  1  0
M  ISO  8  30  14  31  14  32  14  33  13  34  13  35  13  36  13  37  13
M  ISO  7  38  13  39  13  40  14  41  14  42  14  43  14  44  14
M  END
>  <minimizedAffinity>  (1) 
-5.29531097

>  <minimizedRMSD>  (1) 
0.287783563

$$$$
