
     RDKit          3D

 47 50  0  0  1  0  0  0  0  0999 V2000
   47.0890   34.3850   42.6010 C   0  0  0  0  0  0  0  0  0  0  0  0
   46.1060   35.3390   42.8390 C   0  0  0  0  0  0  0  0  0  0  0  0
   44.8270   34.9050   43.2080 C   0  0  0  0  0  0  0  0  0  0  0  0
   44.5980   33.5690   43.3210 N   0  0  0  0  0  0  0  0  0  0  0  0
   45.5840   32.6750   43.0800 C   0  0  0  0  0  0  0  0  0  0  0  0
   46.7850   33.0980   42.7320 N   0  0  0  0  0  0  0  0  0  0  0  0
   45.3150   31.2800   43.2050 N   0  0  0  0  0  0  0  0  0  0  0  0
   44.6290   30.4740   42.3420 C   0  0  0  0  0  0  0  0  0  0  0  0
   44.6120   29.2070   42.8550 N   0  0  0  0  0  0  0  0  0  0  0  0
   45.2890   29.2850   44.0130 C   0  0  0  0  0  0  0  0  0  0  0  0
   45.6920   30.5220   44.1930 N   0  0  0  0  0  0  0  0  0  0  0  0
   45.4590   28.1130   44.8200 N   0  0  0  0  0  0  0  0  0  0  0  0
   46.7030   27.7220   45.4590 C   0  0  0  0  0  0  0  0  0  0  0  0
   46.5970   26.2200   45.5730 C   0  0  0  0  0  0  0  0  0  0  0  0
   45.1310   26.0280   45.7690 C   0  0  0  0  0  0  0  0  0  0  0  0
   44.4170   27.1750   45.0970 C   0  0  1  0  0  0  0  0  0  0  0  0
   43.3120   27.6380   45.9830 C   0  0  0  0  0  0  0  0  0  0  0  0
   42.8210   26.3920   46.7390 C   0  0  0  0  0  0  0  0  0  0  0  0
   41.5980   25.9300   45.9920 C   0  0  0  0  0  0  0  0  0  0  0  0
   41.1520   27.0500   45.0860 C   0  0  0  0  0  0  0  0  0  0  0  0
   42.1050   28.2020   45.3410 C   0  0  0  0  0  0  0  0  0  0  0  0
   48.4170   34.8260   42.2190 C   0  0  0  0  0  0  0  0  0  0  0  0
   48.5230   35.7020   41.3090 O   0  0  0  0  0  0  0  0  0  0  0  0
   49.5340   34.2830   42.8510 O   0  0  0  0  0  0  0  0  0  0  0  0
   50.2260   33.2390   42.2100 C   0  0  0  0  0  0  0  0  0  0  0  0
   49.6250   33.1170   40.9510 F   0  0  0  0  0  0  0  0  0  0  0  0
   49.9280   32.0270   42.8460 F   0  0  0  0  0  0  0  0  0  0  0  0
   51.5720   33.4350   42.1310 F   0  0  0  0  0  0  0  0  0  0  0  0
   46.3283   36.4117   42.7395 H   0  0  0  0  0  0  0  0  0  0  0  0
   44.0232   35.6302   43.4027 H   0  0  0  0  0  0  0  0  0  0  0  0
   44.1682   30.7906   41.3947 H   0  0  0  0  0  0  0  0  0  0  0  0
   47.5670   28.0075   44.8409 H   0  0  0  0  0  0  0  0  0  0  0  0
   46.8517   28.2117   46.4327 H   0  0  0  0  0  0  0  0  0  0  0  0
   46.9462   25.7237   44.6555 H   0  0  0  0  0  0  0  0  0  0  0  0
   47.2125   25.7912   46.3775 H   0  0  0  0  0  0  0  0  0  0  0  0
   44.8155   25.0759   45.3175 H   0  0  0  0  0  0  0  0  0  0  0  0
   44.8888   26.0027   46.8417 H   0  0  0  0  0  0  0  0  0  0  0  0
   43.9027   26.9440   44.1525 H   0  0  0  0  0  0  0  0  0  0  0  0
   43.7473   28.4554   46.5766 H   0  0  0  0  0  0  0  0  0  0  0  0
   43.5938   25.6092   46.7345 H   0  0  0  0  0  0  0  0  0  0  0  0
   42.5982   26.6134   47.7932 H   0  0  0  0  0  0  0  0  0  0  0  0
   41.8410   25.0400   45.3929 H   0  0  0  0  0  0  0  0  0  0  0  0
   40.7961   25.6685   46.6981 H   0  0  0  0  0  0  0  0  0  0  0  0
   40.1206   27.3475   45.3261 H   0  0  0  0  0  0  0  0  0  0  0  0
   41.1665   26.7426   44.0299 H   0  0  0  0  0  0  0  0  0  0  0  0
   42.3748   28.6852   44.3904 H   0  0  0  0  0  0  0  0  0  0  0  0
   41.6373   28.9596   45.9870 H   0  0  0  0  0  0  0  0  0  0  0  0
  1  6  2  0
  1  2  1  0
  2  3  2  0
  3  4  1  0
  5  7  1  0
  5  4  2  0
  6  5  1  0
  7 11  1  0
  8  9  2  0
  8  7  1  0
  9 10  1  0
 10 11  2  0
 10 12  1  0
 12 16  1  0
 12 13  1  0
 13 14  1  0
 14 15  1  0
 16 15  1  0
 16 17  1  0
 17 18  1  0
 19 18  1  0
 20 21  1  0
 20 19  1  0
 21 17  1  0
 22  1  1  0
 22 24  1  0
 23 22  2  0
 25 27  1  0
 25 24  1  0
 26 25  1  0
 28 25  1  0
  2 29  1  0
  3 30  1  0
  8 31  1  0
 13 32  1  0
 13 33  1  0
 14 34  1  0
 14 35  1  0
 15 36  1  0
 15 37  1  0
 16 38  1  6
 17 39  1  0
 18 40  1  0
 18 41  1  0
 19 42  1  0
 19 43  1  0
 20 44  1  0
 20 45  1  0
 21 46  1  0
 21 47  1  0
M  ISO  8  29  14  30  14  31  14  32  13  33  13  34  13  35  13  36  13
M  ISO  8  37  13  38  13  39  13  40  13  41  13  42  13  43  13  44  13
M  ISO  3  45  13  46  13  47  13
M  END
>  <minimizedAffinity>  (1) 
-4.89518833

>  <minimizedRMSD>  (1) 
1.39395154

$$$$
