
     RDKit          3D

 30 31  0  0  0  0  0  0  0  0999 V2000
   47.8480   34.8570   41.6030 C   0  0  0  0  0  0  0  0  0  0  0  0
   47.5940   34.3780   40.2270 C   0  0  0  0  0  0  0  0  0  0  0  0
   48.4150   34.6780   39.1520 C   0  0  0  0  0  0  0  0  0  0  0  0
   48.2380   34.2630   37.8630 C   0  0  0  0  0  0  0  0  0  0  0  0
   47.1460   33.4830   37.6480 N   0  0  0  0  0  0  0  0  0  0  0  0
   46.3240   33.1720   38.6780 C   0  0  0  0  0  0  0  0  0  0  0  0
   46.5030   33.5870   39.9580 N   0  0  0  0  0  0  0  0  0  0  0  0
   45.1210   32.3160   38.4570 C   0  0  0  0  0  0  0  0  0  0  0  0
   43.9300   33.1870   38.1870 C   0  0  0  0  0  0  0  0  0  0  0  0
   47.3260   33.8350   42.5780 C   0  0  0  0  0  0  0  0  0  0  0  0
   44.6900   36.0140   44.1990 C   0  0  0  0  0  0  0  0  0  0  0  0
   45.5970   35.5220   43.2600 C   0  0  0  0  0  0  0  0  0  0  0  0
   46.3500   34.4000   43.5380 C   0  0  0  0  0  0  0  0  0  0  0  0
   46.1760   33.8030   44.7430 N   0  0  0  0  0  0  0  0  0  0  0  0
   45.2800   34.3020   45.6530 C   0  0  0  0  0  0  0  0  0  0  0  0
   44.5570   35.3910   45.3680 N   0  0  0  0  0  0  0  0  0  0  0  0
   47.3327   35.8158   41.7615 H   0  0  0  0  0  0  0  0  0  0  0  0
   48.9280   35.0003   41.7549 H   0  0  0  0  0  0  0  0  0  0  0  0
   49.2919   35.3099   39.3560 H   0  0  0  0  0  0  0  0  0  0  0  0
   48.9310   34.5407   37.0551 H   0  0  0  0  0  0  0  0  0  0  0  0
   45.2947   31.6550   37.5951 H   0  0  0  0  0  0  0  0  0  0  0  0
   44.9343   31.7075   39.3542 H   0  0  0  0  0  0  0  0  0  0  0  0
   43.4882   33.5101   39.1412 H   0  0  0  0  0  0  0  0  0  0  0  0
   44.2444   34.0698   37.6109 H   0  0  0  0  0  0  0  0  0  0  0  0
   43.1840   32.6198   37.6109 H   0  0  0  0  0  0  0  0  0  0  0  0
   46.8357   33.0289   42.0125 H   0  0  0  0  0  0  0  0  0  0  0  0
   48.1837   33.4647   43.1587 H   0  0  0  0  0  0  0  0  0  0  0  0
   44.0902   36.9086   43.9755 H   0  0  0  0  0  0  0  0  0  0  0  0
   45.7124   36.0318   42.2921 H   0  0  0  0  0  0  0  0  0  0  0  0
   45.1546   33.8029   46.6252 H   0  0  0  0  0  0  0  0  0  0  0  0
  1 10  1  0
  2  1  1  0
  3  2  2  0
  4  3  1  0
  5  4  2  0
  5  6  1  0
  6  7  2  0
  7  2  1  0
  8  6  1  0
  9  8  1  0
 10 13  1  0
 11 16  2  0
 12 13  2  0
 12 11  1  0
 13 14  1  0
 14 15  2  0
 16 15  1  0
  1 17  1  0
  1 18  1  0
  3 19  1  0
  4 20  1  0
  8 21  1  0
  8 22  1  0
  9 23  1  0
  9 24  1  0
  9 25  1  0
 10 26  1  0
 10 27  1  0
 11 28  1  0
 12 29  1  0
 15 30  1  0
M  ISO  8  17   8  18   8  19  14  20  14  21   8  22   8  23   8  24   8
M  ISO  6  25   8  26   8  27   8  28  14  29  14  30  14
M  END
>  <minimizedAffinity>  (1) 
-4.34948778

>  <minimizedRMSD>  (1) 
0.0316156335

$$$$
