
     RDKit          3D

 40 43  0  0  1  0  0  0  0  0999 V2000
   47.3920   34.6430   42.6160 C   0  0  0  0  0  0  0  0  0  0  0  0
   46.4440   35.6590   42.6430 C   0  0  0  0  0  0  0  0  0  0  0  0
   45.1620   35.3730   43.1530 C   0  0  0  0  0  0  0  0  0  0  0  0
   44.9050   34.1160   43.5990 N   0  0  0  0  0  0  0  0  0  0  0  0
   45.8500   33.1590   43.5570 C   0  0  0  0  0  0  0  0  0  0  0  0
   47.0600   33.4370   43.0730 N   0  0  0  0  0  0  0  0  0  0  0  0
   45.5610   31.8490   44.0290 N   0  0  0  0  0  0  0  0  0  0  0  0
   44.8100   30.8980   43.4080 C   0  0  0  0  0  0  0  0  0  0  0  0
   44.7850   29.7880   44.2020 N   0  0  0  0  0  0  0  0  0  0  0  0
   45.5230   30.0950   45.2850 C   0  0  0  0  0  0  0  0  0  0  0  0
   45.9710   31.3270   45.1530 N   0  0  0  0  0  0  0  0  0  0  0  0
   45.7100   29.1410   46.3360 N   0  0  0  0  0  0  0  0  0  0  0  0
   46.9430   28.8750   47.0150 C   0  0  0  0  0  0  0  0  0  0  0  0
   46.7880   27.4870   47.5700 C   0  0  0  0  0  0  0  0  0  0  0  0
   45.3070   27.3220   47.7230 C   0  0  0  0  0  0  0  0  0  0  0  0
   44.6190   28.3170   46.8380 C   0  0  2  0  0  0  0  0  0  0  0  0
   44.1460   27.5790   45.6570 N   0  0  0  0  0  0  0  0  0  0  0  0
   44.8030   26.7450   44.8380 C   0  0  0  0  0  0  0  0  0  0  0  0
   43.8910   26.3460   43.9140 N   0  0  0  0  0  0  0  0  0  0  0  0
   42.6970   26.9300   44.1700 C   0  0  0  0  0  0  0  0  0  0  0  0
   42.8740   27.6930   45.2560 N   0  0  0  0  0  0  0  0  0  0  0  0
   48.7170   34.9220   42.0940 C   0  0  0  0  0  0  0  0  0  0  0  0
   48.8280   35.7340   41.1340 O   0  0  0  0  0  0  0  0  0  0  0  0
   49.8290   34.2980   42.6510 O   0  0  0  0  0  0  0  0  0  0  0  0
   50.3130   33.1270   42.0680 C   0  0  0  0  0  0  0  0  0  0  0  0
   49.5860   32.9950   40.8710 F   0  0  0  0  0  0  0  0  0  0  0  0
   49.9120   32.0130   42.8210 F   0  0  0  0  0  0  0  0  0  0  0  0
   51.6590   33.1200   41.8590 F   0  0  0  0  0  0  0  0  0  0  0  0
   46.6895   36.6657   42.2738 H   0  0  0  0  0  0  0  0  0  0  0  0
   44.3856   36.1514   43.1892 H   0  0  0  0  0  0  0  0  0  0  0  0
   44.3097   31.0057   42.4343 H   0  0  0  0  0  0  0  0  0  0  0  0
   47.7886   28.9187   46.3128 H   0  0  0  0  0  0  0  0  0  0  0  0
   47.1498   29.6148   47.8024 H   0  0  0  0  0  0  0  0  0  0  0  0
   47.1949   26.7394   46.8732 H   0  0  0  0  0  0  0  0  0  0  0  0
   47.3300   27.3463   48.5168 H   0  0  0  0  0  0  0  0  0  0  0  0
   45.0159   26.3025   47.4301 H   0  0  0  0  0  0  0  0  0  0  0  0
   45.0174   27.4891   48.7710 H   0  0  0  0  0  0  0  0  0  0  0  0
   43.8109   28.8638   47.3459 H   0  0  0  0  0  0  0  0  0  0  0  0
   45.8598   26.4464   44.9013 H   0  0  0  0  0  0  0  0  0  0  0  0
   41.7655   26.8029   43.5988 H   0  0  0  0  0  0  0  0  0  0  0  0
  1  2  2  0
  1  6  1  0
  2  3  1  0
  3  4  2  0
  5  4  1  0
  5  7  1  0
  6  5  2  0
  7 11  1  0
  8  7  1  0
  8  9  2  0
  9 10  1  0
 10 12  1  0
 11 10  2  0
 12 16  1  0
 12 13  1  0
 13 14  1  0
 14 15  1  0
 16 15  1  0
 17 16  1  0
 18 17  1  0
 19 20  1  0
 19 18  2  0
 20 21  2  0
 21 17  1  0
 22  1  1  0
 22 24  1  0
 23 22  2  0
 25 24  1  0
 25 27  1  0
 26 25  1  0
 28 25  1  0
  2 29  1  0
  3 30  1  0
  8 31  1  0
 13 32  1  0
 13 33  1  0
 14 34  1  0
 14 35  1  0
 15 36  1  0
 15 37  1  0
 16 38  1  1
 18 39  1  0
 20 40  1  0
M  ISO  8  29  14  30  14  31  14  32  13  33  13  34  13  35  13  36  13
M  ISO  4  37  13  38  13  39  14  40  14
M  END
>  <minimizedAffinity>  (1) 
-4.89045286

>  <minimizedRMSD>  (1) 
0.405307889

$$$$
