
     RDKit          3D

 47 50  0  0  1  0  0  0  0  0999 V2000
   47.3840   34.6400   42.5660 C   0  0  0  0  0  0  0  0  0  0  0  0
   46.4750   35.6840   42.6550 C   0  0  0  0  0  0  0  0  0  0  0  0
   45.2170   35.4290   43.2250 C   0  0  0  0  0  0  0  0  0  0  0  0
   44.9350   34.1740   43.6700 N   0  0  0  0  0  0  0  0  0  0  0  0
   45.8670   33.1840   43.5580 C   0  0  0  0  0  0  0  0  0  0  0  0
   47.0440   33.4440   43.0180 N   0  0  0  0  0  0  0  0  0  0  0  0
   45.5530   31.8780   44.0290 N   0  0  0  0  0  0  0  0  0  0  0  0
   44.7440   30.9570   43.4590 C   0  0  0  0  0  0  0  0  0  0  0  0
   44.7260   29.8440   44.2440 N   0  0  0  0  0  0  0  0  0  0  0  0
   45.5300   30.1100   45.2850 C   0  0  0  0  0  0  0  0  0  0  0  0
   45.9920   31.3180   45.1120 N   0  0  0  0  0  0  0  0  0  0  0  0
   45.7490   29.1490   46.3210 N   0  0  0  0  0  0  0  0  0  0  0  0
   47.0100   28.8410   46.9270 C   0  0  0  0  0  0  0  0  0  0  0  0
   46.8430   27.4700   47.4960 C   0  0  0  0  0  0  0  0  0  0  0  0
   45.3680   27.3560   47.7440 C   0  0  0  0  0  0  0  0  0  0  0  0
   44.6600   28.3600   46.8810 C   0  0  2  0  0  0  0  0  0  0  0  0
   42.8750   26.4140   43.6160 C   0  0  0  0  0  0  0  0  0  0  0  0
   44.1940   26.1310   43.8890 C   0  0  0  0  0  0  0  0  0  0  0  0
   44.7390   26.7900   44.9670 C   0  0  0  0  0  0  0  0  0  0  0  0
   43.9920   27.6870   45.7280 C   0  0  0  0  0  0  0  0  0  0  0  0
   42.6720   27.9420   45.4190 C   0  0  0  0  0  0  0  0  0  0  0  0
   42.1030   27.2920   44.3430 C   0  0  0  0  0  0  0  0  0  0  0  0
   42.1420   25.5940   42.2500 S   0  0  0  0  0  0  0  0  0  0  0  0
   40.8490   26.2350   41.8540 O   0  0  0  0  0  0  0  0  0  0  0  0
   42.0120   24.1480   42.5620 O   0  0  0  0  0  0  0  0  0  0  0  0
   48.6850   34.8900   41.9790 C   0  0  0  0  0  0  0  0  0  0  0  0
   48.7630   35.6340   40.9530 O   0  0  0  0  0  0  0  0  0  0  0  0
   49.8230   34.3190   42.5390 O   0  0  0  0  0  0  0  0  0  0  0  0
   50.3000   33.1000   42.0120 C   0  0  0  0  0  0  0  0  0  0  0  0
   49.5730   32.9160   40.8180 F   0  0  0  0  0  0  0  0  0  0  0  0
   49.8860   32.0400   42.8180 F   0  0  0  0  0  0  0  0  0  0  0  0
   51.6500   33.0750   41.8170 F   0  0  0  0  0  0  0  0  0  0  0  0
   46.7334   36.6882   42.2877 H   0  0  0  0  0  0  0  0  0  0  0  0
   44.4702   36.2321   43.3106 H   0  0  0  0  0  0  0  0  0  0  0  0
   44.1914   31.0853   42.5166 H   0  0  0  0  0  0  0  0  0  0  0  0
   47.8129   28.8520   46.1751 H   0  0  0  0  0  0  0  0  0  0  0  0
   47.2881   29.5759   47.6968 H   0  0  0  0  0  0  0  0  0  0  0  0
   47.1790   26.7059   46.7796 H   0  0  0  0  0  0  0  0  0  0  0  0
   47.4384   27.3151   48.4079 H   0  0  0  0  0  0  0  0  0  0  0  0
   45.0264   26.3418   47.4896 H   0  0  0  0  0  0  0  0  0  0  0  0
   45.1484   27.5495   48.8043 H   0  0  0  0  0  0  0  0  0  0  0  0
   43.9062   28.9245   47.4495 H   0  0  0  0  0  0  0  0  0  0  0  0
   44.7766   25.4217   43.2828 H   0  0  0  0  0  0  0  0  0  0  0  0
   45.7897   26.6042   45.2345 H   0  0  0  0  0  0  0  0  0  0  0  0
   42.0834   28.6510   46.0197 H   0  0  0  0  0  0  0  0  0  0  0  0
   41.0524   27.4720   44.0712 H   0  0  0  0  0  0  0  0  0  0  0  0
   42.9515   25.7121   41.1511 H   0  0  0  0  0  0  0  0  0  0  0  0
  1  2  2  0
  1  6  1  0
  2  3  1  0
  3  4  2  0
  5  4  1  0
  5  7  1  0
  6  5  2  0
  7 11  1  0
  8  7  1  0
  8  9  2  0
  9 10  1  0
 10 12  1  0
 11 10  2  0
 12 16  1  0
 12 13  1  0
 13 14  1  0
 14 15  1  0
 16 15  1  0
 17 18  2  0
 17 22  1  0
 18 19  1  0
 19 20  2  0
 20 16  1  0
 21 20  1  0
 22 21  2  0
 23 25  2  0
 23 17  1  0
 24 23  2  0
 26 28  1  0
 26  1  1  0
 27 26  2  0
 29 28  1  0
 29 31  1  0
 30 29  1  0
 32 29  1  0
  2 33  1  0
  3 34  1  0
  8 35  1  0
 13 36  1  0
 13 37  1  0
 14 38  1  0
 14 39  1  0
 15 40  1  0
 15 41  1  0
 16 42  1  1
 18 43  1  0
 19 44  1  0
 21 45  1  0
 22 46  1  0
 23 47  1  0
M  ISO  8  33  14  34  14  35  14  36  13  37  13  38  13  39  13  40  13
M  ISO  7  41  13  42  13  43  14  44  14  45  14  46  14  47  11
M  END
>  <minimizedAffinity>  (1) 
-4.96972132

>  <minimizedRMSD>  (1) 
0.439629644

$$$$
