
     RDKit          3D

 26 27  0  0  0  0  0  0  0  0999 V2000
   47.8540   34.8600   41.6150 C   0  0  0  0  0  0  0  0  0  0  0  0
   47.5920   34.3850   40.2390 C   0  0  0  0  0  0  0  0  0  0  0  0
   48.4070   34.6660   39.1670 C   0  0  0  0  0  0  0  0  0  0  0  0
   48.2220   34.2430   37.8710 C   0  0  0  0  0  0  0  0  0  0  0  0
   47.1230   33.4760   37.6610 N   0  0  0  0  0  0  0  0  0  0  0  0
   46.2920   33.1790   38.7120 C   0  0  0  0  0  0  0  0  0  0  0  0
   46.4930   33.6050   39.9740 N   0  0  0  0  0  0  0  0  0  0  0  0
   45.1270   32.3490   38.4150 C   0  0  0  0  0  0  0  0  0  0  0  0
   44.1810   32.8420   37.7320 O   0  0  0  0  0  0  0  0  0  0  0  0
   47.3300   33.8360   42.5900 C   0  0  0  0  0  0  0  0  0  0  0  0
   44.6900   36.0130   44.2040 C   0  0  0  0  0  0  0  0  0  0  0  0
   45.5960   35.5330   43.2540 C   0  0  0  0  0  0  0  0  0  0  0  0
   46.3470   34.4080   43.5420 C   0  0  0  0  0  0  0  0  0  0  0  0
   46.1710   33.8120   44.7490 N   0  0  0  0  0  0  0  0  0  0  0  0
   45.2750   34.3090   45.6560 C   0  0  0  0  0  0  0  0  0  0  0  0
   44.5550   35.3880   45.3760 N   0  0  0  0  0  0  0  0  0  0  0  0
   47.3438   35.8208   41.7780 H   0  0  0  0  0  0  0  0  0  0  0  0
   48.9351   34.9987   41.7633 H   0  0  0  0  0  0  0  0  0  0  0  0
   49.2918   35.2889   39.3651 H   0  0  0  0  0  0  0  0  0  0  0  0
   48.9173   34.5084   37.0610 H   0  0  0  0  0  0  0  0  0  0  0  0
   45.0722   31.3123   38.7788 H   0  0  0  0  0  0  0  0  0  0  0  0
   46.8439   33.0272   42.0247 H   0  0  0  0  0  0  0  0  0  0  0  0
   48.1841   33.4643   43.1751 H   0  0  0  0  0  0  0  0  0  0  0  0
   44.0874   36.9070   43.9857 H   0  0  0  0  0  0  0  0  0  0  0  0
   45.7105   36.0449   42.2871 H   0  0  0  0  0  0  0  0  0  0  0  0
   45.1502   33.8087   46.6277 H   0  0  0  0  0  0  0  0  0  0  0  0
  1 10  1  0
  2  1  1  0
  3  2  2  0
  4  3  1  0
  5  4  2  0
  5  6  1  0
  6  7  2  0
  7  2  1  0
  8  6  1  0
  9  8  2  0
 10 13  1  0
 11 16  2  0
 12 13  2  0
 12 11  1  0
 13 14  1  0
 14 15  2  0
 16 15  1  0
  1 17  1  0
  1 18  1  0
  3 19  1  0
  4 20  1  0
  8 21  1  0
 10 22  1  0
 10 23  1  0
 11 24  1  0
 12 25  1  0
 15 26  1  0
M  ISO  8  17   8  18   8  19  14  20  14  21   6  22   8  23   8  24  14
M  ISO  2  25  14  26  14
M  END
>  <minimizedAffinity>  (1) 
-4.32294703

>  <minimizedRMSD>  (1) 
0.56762439

$$$$
