
     RDKit          3D

 35 37  0  0  1  0  0  0  0  0999 V2000
   47.3840   34.6320   42.6330 C   0  0  0  0  0  0  0  0  0  0  0  0
   46.4220   35.6380   42.6290 C   0  0  0  0  0  0  0  0  0  0  0  0
   45.1290   35.3330   43.0960 C   0  0  0  0  0  0  0  0  0  0  0  0
   44.8650   34.0690   43.5340 N   0  0  0  0  0  0  0  0  0  0  0  0
   45.8500   33.1260   43.5130 C   0  0  0  0  0  0  0  0  0  0  0  0
   47.0620   33.4280   43.0710 N   0  0  0  0  0  0  0  0  0  0  0  0
   45.5550   31.8070   43.9750 N   0  0  0  0  0  0  0  0  0  0  0  0
   44.8360   30.8470   43.3470 C   0  0  0  0  0  0  0  0  0  0  0  0
   44.8000   29.7360   44.1420 N   0  0  0  0  0  0  0  0  0  0  0  0
   45.5060   30.0630   45.2420 C   0  0  0  0  0  0  0  0  0  0  0  0
   45.9440   31.2960   45.1190 N   0  0  0  0  0  0  0  0  0  0  0  0
   45.6700   29.1080   46.2990 N   0  0  0  0  0  0  0  0  0  0  0  0
   46.9190   28.8260   46.9660 C   0  0  0  0  0  0  0  0  0  0  0  0
   46.7570   27.4520   47.5310 C   0  0  0  0  0  0  0  0  0  0  0  0
   45.2680   27.3360   47.7310 C   0  0  0  0  0  0  0  0  0  0  0  0
   44.5860   28.3120   46.8180 C   0  0  2  0  0  0  0  0  0  0  0  0
   48.7160   34.9420   42.1550 C   0  0  0  0  0  0  0  0  0  0  0  0
   48.8510   35.7920   41.2280 O   0  0  0  0  0  0  0  0  0  0  0  0
   49.8140   34.3100   42.7080 O   0  0  0  0  0  0  0  0  0  0  0  0
   50.3150   33.1560   42.0900 C   0  0  0  0  0  0  0  0  0  0  0  0
   49.6010   33.0280   40.8930 F   0  0  0  0  0  0  0  0  0  0  0  0
   49.9240   32.0210   42.8210 F   0  0  0  0  0  0  0  0  0  0  0  0
   51.6620   33.1600   41.8860 F   0  0  0  0  0  0  0  0  0  0  0  0
   43.9350   27.5920   45.8120 O   0  0  0  0  0  0  0  0  0  0  0  0
   46.6663   36.6484   42.2692 H   0  0  0  0  0  0  0  0  0  0  0  0
   44.3436   36.1030   43.1073 H   0  0  0  0  0  0  0  0  0  0  0  0
   44.3597   30.9450   42.3603 H   0  0  0  0  0  0  0  0  0  0  0  0
   47.7538   28.8533   46.2502 H   0  0  0  0  0  0  0  0  0  0  0  0
   47.1467   29.5680   47.7455 H   0  0  0  0  0  0  0  0  0  0  0  0
   47.1209   26.6901   46.8260 H   0  0  0  0  0  0  0  0  0  0  0  0
   47.3303   27.2956   48.4567 H   0  0  0  0  0  0  0  0  0  0  0  0
   44.9403   26.3135   47.4920 H   0  0  0  0  0  0  0  0  0  0  0  0
   45.0106   27.5566   48.7775 H   0  0  0  0  0  0  0  0  0  0  0  0
   43.8251   28.9420   47.3019 H   0  0  0  0  0  0  0  0  0  0  0  0
   43.3308   26.9238   46.2226 H   0  0  0  0  0  0  0  0  0  0  0  0
  1  6  2  0
  2  1  1  0
  2  3  2  0
  3  4  1  0
  5  4  2  0
  5  7  1  0
  6  5  1  0
  7 11  1  0
  8  7  1  0
  8  9  2  0
  9 10  1  0
 10 12  1  0
 11 10  2  0
 12 16  1  0
 12 13  1  0
 13 14  1  0
 14 15  1  0
 16 15  1  0
 17  1  1  0
 17 19  1  0
 18 17  2  0
 20 19  1  0
 20 22  1  0
 21 20  1  0
 23 20  1  0
 24 16  1  0
  2 25  1  0
  3 26  1  0
  8 27  1  0
 13 28  1  0
 13 29  1  0
 14 30  1  0
 14 31  1  0
 15 32  1  0
 15 33  1  0
 16 34  1  1
 24 35  1  0
M  ISO  8  25  14  26  14  27  14  28  13  29  13  30  13  31  13  32  13
M  ISO  3  33  13  34  13  35   3
M  END
>  <minimizedAffinity>  (1) 
-4.84071255

>  <minimizedRMSD>  (1) 
0.0229010712

$$$$
