
     RDKit          3D

 41 44  0  0  1  0  0  0  0  0999 V2000
   47.3770   34.6340   42.6020 C   0  0  0  0  0  0  0  0  0  0  0  0
   46.4390   35.6590   42.6340 C   0  0  0  0  0  0  0  0  0  0  0  0
   45.1520   35.3620   43.1380 C   0  0  0  0  0  0  0  0  0  0  0  0
   44.8830   34.1090   43.5630 N   0  0  0  0  0  0  0  0  0  0  0  0
   45.8360   33.1480   43.5100 C   0  0  0  0  0  0  0  0  0  0  0  0
   47.0470   33.4250   43.0360 N   0  0  0  0  0  0  0  0  0  0  0  0
   45.5300   31.8270   43.9670 N   0  0  0  0  0  0  0  0  0  0  0  0
   44.7950   30.8800   43.3560 C   0  0  0  0  0  0  0  0  0  0  0  0
   44.7640   29.7670   44.1540 N   0  0  0  0  0  0  0  0  0  0  0  0
   45.4920   30.0800   45.2380 C   0  0  0  0  0  0  0  0  0  0  0  0
   45.9280   31.3020   45.0950 N   0  0  0  0  0  0  0  0  0  0  0  0
   45.6570   29.1190   46.2760 N   0  0  0  0  0  0  0  0  0  0  0  0
   46.9100   28.8380   46.9490 C   0  0  0  0  0  0  0  0  0  0  0  0
   46.7310   27.5070   47.5760 C   0  0  0  0  0  0  0  0  0  0  0  0
   45.2580   27.3280   47.7060 C   0  0  0  0  0  0  0  0  0  0  0  0
   44.5780   28.3010   46.7850 C   0  0  2  0  0  0  0  0  0  0  0  0
   44.1220   27.5290   45.6180 N   0  0  0  0  0  0  0  0  0  0  0  0
   44.7290   26.7140   44.7340 C   0  0  0  0  0  0  0  0  0  0  0  0
   43.7970   26.2590   43.8370 C   0  0  0  0  0  0  0  0  0  0  0  0
   42.6210   26.7970   44.1750 N   0  0  0  0  0  0  0  0  0  0  0  0
   42.8240   27.5690   45.2590 C   0  0  0  0  0  0  0  0  0  0  0  0
   48.7120   34.9120   42.0880 C   0  0  0  0  0  0  0  0  0  0  0  0
   48.8200   35.7290   41.1220 O   0  0  0  0  0  0  0  0  0  0  0  0
   49.8140   34.2960   42.6480 O   0  0  0  0  0  0  0  0  0  0  0  0
   50.3100   33.1150   42.0560 C   0  0  0  0  0  0  0  0  0  0  0  0
   49.5910   32.9860   40.8660 F   0  0  0  0  0  0  0  0  0  0  0  0
   49.9140   32.0150   42.8270 F   0  0  0  0  0  0  0  0  0  0  0  0
   51.6560   33.1140   41.8530 F   0  0  0  0  0  0  0  0  0  0  0  0
   46.6900   36.6692   42.2785 H   0  0  0  0  0  0  0  0  0  0  0  0
   44.3786   36.1428   43.1834 H   0  0  0  0  0  0  0  0  0  0  0  0
   44.3012   30.9825   42.3784 H   0  0  0  0  0  0  0  0  0  0  0  0
   47.7384   28.8142   46.2256 H   0  0  0  0  0  0  0  0  0  0  0  0
   47.1568   29.6102   47.6925 H   0  0  0  0  0  0  0  0  0  0  0  0
   47.1599   26.7200   46.9383 H   0  0  0  0  0  0  0  0  0  0  0  0
   47.2394   27.4407   48.5492 H   0  0  0  0  0  0  0  0  0  0  0  0
   44.9830   26.2997   47.4285 H   0  0  0  0  0  0  0  0  0  0  0  0
   44.9458   27.5102   48.7449 H   0  0  0  0  0  0  0  0  0  0  0  0
   43.7636   28.8570   47.2724 H   0  0  0  0  0  0  0  0  0  0  0  0
   45.7982   26.4555   44.7320 H   0  0  0  0  0  0  0  0  0  0  0  0
   43.9829   25.5768   42.9944 H   0  0  0  0  0  0  0  0  0  0  0  0
   42.0443   28.1477   45.7759 H   0  0  0  0  0  0  0  0  0  0  0  0
  1  2  2  0
  1  6  1  0
  2  3  1  0
  3  4  2  0
  5  4  1  0
  5  7  1  0
  6  5  2  0
  7 11  1  0
  8  7  1  0
  8  9  2  0
  9 10  1  0
 10 12  1  0
 11 10  2  0
 12 16  1  0
 12 13  1  0
 13 14  1  0
 14 15  1  0
 16 15  1  0
 17 16  1  0
 18 17  1  0
 19 20  1  0
 19 18  2  0
 20 21  2  0
 21 17  1  0
 22  1  1  0
 22 24  1  0
 23 22  2  0
 25 24  1  0
 25 27  1  0
 26 25  1  0
 28 25  1  0
  2 29  1  0
  3 30  1  0
  8 31  1  0
 13 32  1  0
 13 33  1  0
 14 34  1  0
 14 35  1  0
 15 36  1  0
 15 37  1  0
 16 38  1  1
 18 39  1  0
 19 40  1  0
 21 41  1  0
M  ISO  8  29  14  30  14  31  14  32  13  33  13  34  13  35  13  36  13
M  ISO  5  37  13  38  13  39  14  40  14  41  14
M  END
>  <minimizedAffinity>  (1) 
-4.86502552

>  <minimizedRMSD>  (1) 
0.205819786

$$$$
