
     RDKit          3D

 37 39  0  0  1  0  0  0  0  0999 V2000
   47.4010   34.6020   42.4890 C   0  0  0  0  0  0  0  0  0  0  0  0
   46.4570   35.5980   42.6880 C   0  0  0  0  0  0  0  0  0  0  0  0
   45.2650   35.2620   43.3630 C   0  0  0  0  0  0  0  0  0  0  0  0
   45.0980   33.9850   43.7840 N   0  0  0  0  0  0  0  0  0  0  0  0
   46.0570   33.0470   43.5630 C   0  0  0  0  0  0  0  0  0  0  0  0
   47.1730   33.3710   42.9270 N   0  0  0  0  0  0  0  0  0  0  0  0
   45.8470   31.7180   44.0200 N   0  0  0  0  0  0  0  0  0  0  0  0
   45.0400   30.7660   43.4930 C   0  0  0  0  0  0  0  0  0  0  0  0
   45.1370   29.6280   44.2450 N   0  0  0  0  0  0  0  0  0  0  0  0
   46.0010   29.9140   45.2090 C   0  0  0  0  0  0  0  0  0  0  0  0
   46.4020   31.1610   45.0460 N   0  0  0  0  0  0  0  0  0  0  0  0
   46.3710   28.9590   46.2150 N   0  0  0  0  0  0  0  0  0  0  0  0
   47.7030   28.6570   46.6530 C   0  0  0  0  0  0  0  0  0  0  0  0
   47.6600   27.2650   47.1840 C   0  0  0  0  0  0  0  0  0  0  0  0
   46.2060   27.0290   47.4970 C   0  0  0  0  0  0  0  0  0  0  0  0
   45.4010   28.1670   46.9240 C   0  0  1  0  0  0  0  0  0  0  0  0
   48.6370   34.9360   41.7920 C   0  0  0  0  0  0  0  0  0  0  0  0
   48.5620   35.5950   40.7180 O   0  0  0  0  0  0  0  0  0  0  0  0
   49.8620   34.5230   42.3230 O   0  0  0  0  0  0  0  0  0  0  0  0
   50.3520   33.2500   41.9690 C   0  0  0  0  0  0  0  0  0  0  0  0
   49.6760   32.9060   40.7940 F   0  0  0  0  0  0  0  0  0  0  0  0
   49.9010   32.3000   42.9010 F   0  0  0  0  0  0  0  0  0  0  0  0
   51.7080   33.2010   41.8350 F   0  0  0  0  0  0  0  0  0  0  0  0
   44.9580   28.9910   48.1010 C   0  0  0  0  0  0  0  0  0  0  0  0
   44.7870   30.2160   48.1000 O   0  0  0  0  0  0  0  0  0  0  0  0
   44.6690   28.5050   49.3910 O   0  0  0  0  0  0  0  0  0  0  0  0
   46.6331   36.6228   42.3290 H   0  0  0  0  0  0  0  0  0  0  0  0
   44.4883   36.0197   43.5436 H   0  0  0  0  0  0  0  0  0  0  0  0
   44.4072   30.8889   42.6017 H   0  0  0  0  0  0  0  0  0  0  0  0
   48.4058   28.7218   45.8093 H   0  0  0  0  0  0  0  0  0  0  0  0
   48.0440   29.3683   47.4196 H   0  0  0  0  0  0  0  0  0  0  0  0
   48.0169   26.5491   46.4290 H   0  0  0  0  0  0  0  0  0  0  0  0
   48.3057   27.1317   48.0645 H   0  0  0  0  0  0  0  0  0  0  0  0
   45.8791   26.0801   47.0468 H   0  0  0  0  0  0  0  0  0  0  0  0
   46.0595   26.9754   48.5859 H   0  0  0  0  0  0  0  0  0  0  0  0
   44.5522   27.8480   46.3012 H   0  0  0  0  0  0  0  0  0  0  0  0
   44.3830   29.1305   50.1031 H   0  0  0  0  0  0  0  0  0  0  0  0
  1  2  2  0
  1  6  1  0
  2  3  1  0
  3  4  2  0
  5  4  1  0
  5  7  1  0
  6  5  2  0
  7 11  1  0
  8  7  1  0
  8  9  2  0
  9 10  1  0
 10 12  1  0
 11 10  2  0
 12 13  1  0
 12 16  1  0
 13 14  1  0
 14 15  1  0
 16 15  1  0
 16 24  1  0
 17 19  1  0
 17  1  1  0
 18 17  2  0
 20 19  1  0
 20 22  1  0
 21 20  1  0
 23 20  1  0
 24 26  1  0
 25 24  2  0
  2 27  1  0
  3 28  1  0
  8 29  1  0
 13 30  1  0
 13 31  1  0
 14 32  1  0
 14 33  1  0
 15 34  1  0
 15 35  1  0
 16 36  1  6
 26 37  1  0
M  ISO  8  27  14  28  14  29  14  30  13  31  13  32  13  33  13  34  13
M  ISO  3  35  13  36  13  37   3
M  END
>  <minimizedAffinity>  (1) 
-4.86980534

>  <minimizedRMSD>  (1) 
0.624019086

$$$$
