
     RDKit          3D

 33 35  0  0  0  0  0  0  0  0999 V2000
   48.1140   34.4740   41.7080 C   0  0  0  0  0  0  0  0  0  0  0  0
   46.6400   34.7350   41.7540 C   0  0  0  0  0  0  0  0  0  0  0  0
   46.2230   35.5660   42.7890 C   0  0  0  0  0  0  0  0  0  0  0  0
   44.8400   35.8530   42.8870 C   0  0  0  0  0  0  0  0  0  0  0  0
   44.0060   35.3010   41.9660 N   0  0  0  0  0  0  0  0  0  0  0  0
   44.4480   34.4950   40.9700 C   0  0  0  0  0  0  0  0  0  0  0  0
   45.7460   34.2260   40.8770 N   0  0  0  0  0  0  0  0  0  0  0  0
   48.8790   35.7840   41.5200 C   0  0  0  0  0  0  0  0  0  0  0  0
   48.3910   33.6020   40.5280 C   0  0  0  0  0  0  0  0  0  0  0  0
   48.6040   33.8410   42.9710 C   0  0  0  0  0  0  0  0  0  0  0  0
   48.0250   32.5760   43.2970 N   0  0  0  0  0  0  0  0  0  0  0  0
   48.0430   31.3780   42.6780 C   0  0  0  0  0  0  0  0  0  0  0  0
   47.3350   30.4570   43.3860 N   0  0  0  0  0  0  0  0  0  0  0  0
   46.8590   31.0860   44.4710 C   0  0  0  0  0  0  0  0  0  0  0  0
   46.0810   30.6470   45.5280 C   0  0  0  0  0  0  0  0  0  0  0  0
   45.7360   31.4970   46.5070 N   0  0  0  0  0  0  0  0  0  0  0  0
   46.1560   32.7940   46.4570 C   0  0  0  0  0  0  0  0  0  0  0  0
   46.9120   33.2120   45.4270 N   0  0  0  0  0  0  0  0  0  0  0  0
   47.2810   32.4050   44.4280 C   0  0  0  0  0  0  0  0  0  0  0  0
   46.9432   35.9857   43.5067 H   0  0  0  0  0  0  0  0  0  0  0  0
   44.4518   36.5033   43.6847 H   0  0  0  0  0  0  0  0  0  0  0  0
   43.7391   34.0676   40.2456 H   0  0  0  0  0  0  0  0  0  0  0  0
   49.1268   36.2084   42.5041 H   0  0  0  0  0  0  0  0  0  0  0  0
   49.8059   35.5902   40.9603 H   0  0  0  0  0  0  0  0  0  0  0  0
   48.2548   36.4961   40.9603 H   0  0  0  0  0  0  0  0  0  0  0  0
   48.7072   32.6067   40.8737 H   0  0  0  0  0  0  0  0  0  0  0  0
   47.4790   33.5065   39.9205 H   0  0  0  0  0  0  0  0  0  0  0  0
   49.1910   34.0503   39.9205 H   0  0  0  0  0  0  0  0  0  0  0  0
   49.6912   33.7010   42.8788 H   0  0  0  0  0  0  0  0  0  0  0  0
   48.3083   34.5231   43.7817 H   0  0  0  0  0  0  0  0  0  0  0  0
   48.5602   31.1732   41.7290 H   0  0  0  0  0  0  0  0  0  0  0  0
   45.7452   29.6002   45.5655 H   0  0  0  0  0  0  0  0  0  0  0  0
   45.8769   33.4955   47.2570 H   0  0  0  0  0  0  0  0  0  0  0  0
  1  2  1  0
  1 10  1  0
  2  3  2  0
  3  4  1  0
  5  4  2  0
  6  5  1  0
  7  6  2  0
  7  2  1  0
  8  1  1  0
  9  1  1  0
 10 11  1  0
 11 19  1  0
 12 11  1  0
 12 13  2  0
 13 14  1  0
 14 15  2  0
 15 16  1  0
 17 16  2  0
 18 17  1  0
 19 14  1  0
 19 18  2  0
  3 20  1  0
  4 21  1  0
  6 22  1  0
  8 23  1  0
  8 24  1  0
  8 25  1  0
  9 26  1  0
  9 27  1  0
  9 28  1  0
 10 29  1  0
 10 30  1  0
 12 31  1  0
 15 32  1  0
 17 33  1  0
M  ISO  8  20  14  21  14  22  14  23   8  24   8  25   8  26   8  27   8
M  ISO  6  28   8  29   8  30   8  31  14  32  14  33  14
M  END
>  <minimizedAffinity>  (1) 
-4.65393114

>  <minimizedRMSD>  (1) 
5.68025541

$$$$
