
     RDKit          3D

 38 39  0  0  0  0  0  0  0  0999 V2000
   48.0330   34.5390   41.5780 C   0  0  0  0  0  0  0  0  0  0  0  0
   46.9990   34.6550   42.6810 C   0  0  0  0  0  0  0  0  0  0  0  0
   47.1440   33.6910   43.7090 C   0  0  0  0  0  0  0  0  0  0  0  0
   46.2310   33.7000   44.7680 C   0  0  0  0  0  0  0  0  0  0  0  0
   45.2540   34.6360   44.7500 N   0  0  0  0  0  0  0  0  0  0  0  0
   45.1410   35.5510   43.7460 C   0  0  0  0  0  0  0  0  0  0  0  0
   46.0010   35.5530   42.7340 N   0  0  0  0  0  0  0  0  0  0  0  0
   49.0040   33.3980   41.8780 C   0  0  0  0  0  0  0  0  0  0  0  0
   48.8120   35.8260   41.6130 C   0  0  0  0  0  0  0  0  0  0  0  0
   47.3810   34.2700   40.2830 C   0  0  0  0  0  0  0  0  0  0  0  0
   48.2240   33.7330   39.2000 C   0  0  0  0  0  0  0  0  0  0  0  0
   48.4570   34.5400   37.9810 C   0  0  0  0  0  0  0  0  0  0  0  0
   48.4330   33.6820   36.7170 C   0  0  0  0  0  0  0  0  0  0  0  0
   49.1480   32.3840   36.8610 C   0  0  0  0  0  0  0  0  0  0  0  0
   48.7680   31.6230   38.1020 C   0  0  0  0  0  0  0  0  0  0  0  0
   47.6490   32.3650   38.7720 C   0  0  0  0  0  0  0  0  0  0  0  0
   47.9574   32.9513   43.6748 H   0  0  0  0  0  0  0  0  0  0  0  0
   46.3045   32.9707   45.5882 H   0  0  0  0  0  0  0  0  0  0  0  0
   44.3305   36.2942   43.7742 H   0  0  0  0  0  0  0  0  0  0  0  0
   49.1050   33.2793   42.9669 H   0  0  0  0  0  0  0  0  0  0  0  0
   48.6190   32.4646   41.4415 H   0  0  0  0  0  0  0  0  0  0  0  0
   49.9870   33.6287   41.4415 H   0  0  0  0  0  0  0  0  0  0  0  0
   48.9893   36.1190   42.6583 H   0  0  0  0  0  0  0  0  0  0  0  0
   49.7764   35.6848   41.1031 H   0  0  0  0  0  0  0  0  0  0  0  0
   48.2397   36.6150   41.1031 H   0  0  0  0  0  0  0  0  0  0  0  0
   46.5739   33.5448   40.4638 H   0  0  0  0  0  0  0  0  0  0  0  0
   47.0523   35.2559   39.9224 H   0  0  0  0  0  0  0  0  0  0  0  0
   49.2212   33.7029   39.6634 H   0  0  0  0  0  0  0  0  0  0  0  0
   47.6711   35.3060   37.9059 H   0  0  0  0  0  0  0  0  0  0  0  0
   49.4528   35.0004   38.0619 H   0  0  0  0  0  0  0  0  0  0  0  0
   48.9057   34.2504   35.9024 H   0  0  0  0  0  0  0  0  0  0  0  0
   47.3789   33.4469   36.5080 H   0  0  0  0  0  0  0  0  0  0  0  0
   48.9161   31.7599   35.9854 H   0  0  0  0  0  0  0  0  0  0  0  0
   50.2211   32.6130   36.9382 H   0  0  0  0  0  0  0  0  0  0  0  0
   48.4360   30.6096   37.8323 H   0  0  0  0  0  0  0  0  0  0  0  0
   49.6309   31.5372   38.7788 H   0  0  0  0  0  0  0  0  0  0  0  0
   46.8135   32.5066   38.0707 H   0  0  0  0  0  0  0  0  0  0  0  0
   47.2642   31.8068   39.6382 H   0  0  0  0  0  0  0  0  0  0  0  0
  1  9  1  0
  1  8  1  0
  1  2  1  0
  2  7  1  0
  2  3  2  0
  3  4  1  0
  5  4  2  0
  6  5  1  0
  7  6  2  0
 10  1  1  0
 11 10  1  0
 12 11  1  0
 13 14  1  0
 13 12  1  0
 14 15  1  0
 15 16  1  0
 16 11  1  0
  3 17  1  0
  4 18  1  0
  6 19  1  0
  8 20  1  0
  8 21  1  0
  8 22  1  0
  9 23  1  0
  9 24  1  0
  9 25  1  0
 10 26  1  0
 10 27  1  0
 11 28  1  0
 12 29  1  0
 12 30  1  0
 13 31  1  0
 13 32  1  0
 14 33  1  0
 14 34  1  0
 15 35  1  0
 15 36  1  0
 16 37  1  0
 16 38  1  0
M  ISO  8  17  14  18  14  19  14  20   8  21   8  22   8  23   8  24   8
M  ISO  8  25   8  26   8  27   8  28  13  29  13  30  13  31  13  32  13
M  ISO  6  33  13  34  13  35  13  36  13  37  13  38  13
M  END
>  <minimizedAffinity>  (1) 
-4.71077156

>  <minimizedRMSD>  (1) 
1.05275834

$$$$
