
     RDKit          3D

 31 32  0  0  0  0  0  0  0  0999 V2000
   48.5720   34.3410   41.8600 C   0  0  0  0  0  0  0  0  0  0  0  0
   47.4010   34.4260   42.7780 C   0  0  0  0  0  0  0  0  0  0  0  0
   47.3910   33.4680   43.7890 C   0  0  0  0  0  0  0  0  0  0  0  0
   46.3360   33.4480   44.7140 C   0  0  0  0  0  0  0  0  0  0  0  0
   45.3600   34.3920   44.5600 N   0  0  0  0  0  0  0  0  0  0  0  0
   45.3940   35.3120   43.5690 C   0  0  0  0  0  0  0  0  0  0  0  0
   46.3990   35.3250   42.6930 N   0  0  0  0  0  0  0  0  0  0  0  0
   48.9650   32.8950   41.5940 C   0  0  0  0  0  0  0  0  0  0  0  0
   49.7190   35.0420   42.5070 C   0  0  0  0  0  0  0  0  0  0  0  0
   48.2580   34.9810   40.5310 C   0  0  0  0  0  0  0  0  0  0  0  0
   47.6820   34.0060   39.5680 C   0  0  0  0  0  0  0  0  0  0  0  0
   46.3980   33.4890   39.6390 C   0  0  0  0  0  0  0  0  0  0  0  0
   45.9560   32.5760   38.6770 C   0  0  0  0  0  0  0  0  0  0  0  0
   46.7720   32.1660   37.6400 C   0  0  0  0  0  0  0  0  0  0  0  0
   48.0400   32.7190   37.6230 C   0  0  0  0  0  0  0  0  0  0  0  0
   48.4720   33.5980   38.5470 N   0  0  0  0  0  0  0  0  0  0  0  0
   48.2050   32.7317   43.8619 H   0  0  0  0  0  0  0  0  0  0  0  0
   46.2964   32.7066   45.5257 H   0  0  0  0  0  0  0  0  0  0  0  0
   44.5868   36.0546   43.4853 H   0  0  0  0  0  0  0  0  0  0  0  0
   49.1072   32.3717   42.5510 H   0  0  0  0  0  0  0  0  0  0  0  0
   48.1692   32.3985   41.0193 H   0  0  0  0  0  0  0  0  0  0  0  0
   49.9026   32.8696   41.0193 H   0  0  0  0  0  0  0  0  0  0  0  0
   49.6171   34.9797   43.6005 H   0  0  0  0  0  0  0  0  0  0  0  0
   50.6612   34.5652   42.1988 H   0  0  0  0  0  0  0  0  0  0  0  0
   49.7244   36.0979   42.1988 H   0  0  0  0  0  0  0  0  0  0  0  0
   47.5340   35.7937   40.6900 H   0  0  0  0  0  0  0  0  0  0  0  0
   49.1978   35.3641   40.1068 H   0  0  0  0  0  0  0  0  0  0  0  0
   45.7259   33.7975   40.4533 H   0  0  0  0  0  0  0  0  0  0  0  0
   44.9343   32.1745   38.7473 H   0  0  0  0  0  0  0  0  0  0  0  0
   46.4356   31.4473   36.8782 H   0  0  0  0  0  0  0  0  0  0  0  0
   48.7281   32.4267   36.8161 H   0  0  0  0  0  0  0  0  0  0  0  0
  1  9  1  0
  1  2  1  0
  2  3  2  0
  3  4  1  0
  5  4  2  0
  6  5  1  0
  7  2  1  0
  7  6  2  0
  8  1  1  0
 10  1  1  0
 11 12  2  0
 11 10  1  0
 13 12  1  0
 14 13  2  0
 15 14  1  0
 15 16  2  0
 16 11  1  0
  3 17  1  0
  4 18  1  0
  6 19  1  0
  8 20  1  0
  8 21  1  0
  8 22  1  0
  9 23  1  0
  9 24  1  0
  9 25  1  0
 10 26  1  0
 10 27  1  0
 12 28  1  0
 13 29  1  0
 14 30  1  0
 15 31  1  0
M  ISO  8  17  14  18  14  19  14  20   8  21   8  22   8  23   8  24   8
M  ISO  7  25   8  26   8  27   8  28  14  29  14  30  14  31  14
M  END
>  <minimizedAffinity>  (1) 
-4.33033609

>  <minimizedRMSD>  (1) 
1.36816168

$$$$
