
     RDKit          3D

 29 30  0  0  0  0  0  0  0  0999 V2000
   45.3280   34.5080   42.4980 C   0  0  0  0  0  0  0  0  0  0  0  0
   45.5430   33.4920   43.5680 C   0  0  0  0  0  0  0  0  0  0  0  0
   45.7450   34.0550   44.8350 C   0  0  0  0  0  0  0  0  0  0  0  0
   45.9590   33.1720   45.9210 C   0  0  0  0  0  0  0  0  0  0  0  0
   45.9540   31.8330   45.6700 N   0  0  0  0  0  0  0  0  0  0  0  0
   45.7530   31.3330   44.4220 C   0  0  0  0  0  0  0  0  0  0  0  0
   45.5530   32.1550   43.4010 N   0  0  0  0  0  0  0  0  0  0  0  0
   45.5170   35.9250   43.0060 C   0  0  0  0  0  0  0  0  0  0  0  0
   43.8930   34.3820   42.0360 C   0  0  0  0  0  0  0  0  0  0  0  0
   46.2520   34.3010   41.3420 C   0  0  0  0  0  0  0  0  0  0  0  0
   47.6350   34.5220   41.7770 C   0  0  0  0  0  0  0  0  0  0  0  0
   48.4290   35.6510   41.5760 C   0  0  0  0  0  0  0  0  0  0  0  0
   49.6320   35.3390   42.1800 C   0  0  0  0  0  0  0  0  0  0  0  0
   49.5420   34.0660   42.7200 C   0  0  0  0  0  0  0  0  0  0  0  0
   48.3380   33.6370   42.4480 O   0  0  0  0  0  0  0  0  0  0  0  0
   45.7376   35.1452   44.9810 H   0  0  0  0  0  0  0  0  0  0  0  0
   46.1246   33.5562   46.9383 H   0  0  0  0  0  0  0  0  0  0  0  0
   45.7563   30.2452   44.2589 H   0  0  0  0  0  0  0  0  0  0  0  0
   45.5168   35.9232   44.1060 H   0  0  0  0  0  0  0  0  0  0  0  0
   46.4759   36.3208   42.6402 H   0  0  0  0  0  0  0  0  0  0  0  0
   44.6954   36.5583   42.6402 H   0  0  0  0  0  0  0  0  0  0  0  0
   43.2297   34.3238   42.9116 H   0  0  0  0  0  0  0  0  0  0  0  0
   43.6244   35.2600   41.4302 H   0  0  0  0  0  0  0  0  0  0  0  0
   43.7815   33.4706   41.4302 H   0  0  0  0  0  0  0  0  0  0  0  0
   46.0016   35.0115   40.5405 H   0  0  0  0  0  0  0  0  0  0  0  0
   46.1453   33.2726   40.9664 H   0  0  0  0  0  0  0  0  0  0  0  0
   48.1584   36.5807   41.0540 H   0  0  0  0  0  0  0  0  0  0  0  0
   50.5152   35.9931   42.2248 H   0  0  0  0  0  0  0  0  0  0  0  0
   50.3272   33.5247   43.2681 H   0  0  0  0  0  0  0  0  0  0  0  0
  1  8  1  0
  1  2  1  0
  2  3  2  0
  3  4  1  0
  5  4  2  0
  6  5  1  0
  7  2  1  0
  7  6  2  0
  9  1  1  0
 10 11  1  0
 10  1  1  0
 11 15  1  0
 12 11  2  0
 12 13  1  0
 13 14  2  0
 15 14  1  0
  3 16  1  0
  4 17  1  0
  6 18  1  0
  8 19  1  0
  8 20  1  0
  8 21  1  0
  9 22  1  0
  9 23  1  0
  9 24  1  0
 10 25  1  0
 10 26  1  0
 12 27  1  0
 13 28  1  0
 14 29  1  0
M  ISO  8  16  14  17  14  18  14  19   8  20   8  21   8  22   8  23   8
M  ISO  6  24   8  25   8  26   8  27  14  28  14  29  14
M  END
>  <minimizedAffinity>  (1) 
-4.21436071

>  <minimizedRMSD>  (1) 
3.66232634

$$$$
