
     RDKit          3D

 29 29  0  0  0  0  0  0  0  0999 V2000
   46.6320   33.4530   42.7010 C   0  0  0  0  0  0  0  0  0  0  0  0
   45.2760   33.8470   42.2150 C   0  0  0  0  0  0  0  0  0  0  0  0
   45.0700   35.2220   42.1410 C   0  0  0  0  0  0  0  0  0  0  0  0
   43.8050   35.6690   41.6880 C   0  0  0  0  0  0  0  0  0  0  0  0
   42.8750   34.7370   41.3550 N   0  0  0  0  0  0  0  0  0  0  0  0
   43.1160   33.4020   41.4430 C   0  0  0  0  0  0  0  0  0  0  0  0
   44.3040   32.9840   41.8680 N   0  0  0  0  0  0  0  0  0  0  0  0
   46.8500   31.9460   42.5600 C   0  0  0  0  0  0  0  0  0  0  0  0
   46.7180   33.8090   44.1650 C   0  0  0  0  0  0  0  0  0  0  0  0
   47.7230   34.1240   41.9470 C   0  0  0  0  0  0  0  0  0  0  0  0
   48.9500   33.3580   41.9090 N   0  0  0  0  0  0  0  0  0  0  0  0
   50.0820   34.0340   42.4410 C   0  0  0  0  0  0  0  0  0  0  0  0
   50.1240   35.1320   43.1160 N   0  0  0  0  0  0  0  0  0  0  0  0
   51.3860   33.4910   42.2450 N   0  0  0  0  0  0  0  0  0  0  0  0
   49.2610   35.6690   43.3550 H   0  0  0  0  0  0  0  0  0  0  0  0
   45.8596   35.9338   42.4236 H   0  0  0  0  0  0  0  0  0  0  0  0
   43.5814   36.7431   41.6079 H   0  0  0  0  0  0  0  0  0  0  0  0
   42.3371   32.6764   41.1658 H   0  0  0  0  0  0  0  0  0  0  0  0
   46.9160   31.4900   43.5589 H   0  0  0  0  0  0  0  0  0  0  0  0
   46.0065   31.5034   42.0099 H   0  0  0  0  0  0  0  0  0  0  0  0
   47.7843   31.7606   42.0099 H   0  0  0  0  0  0  0  0  0  0  0  0
   46.5026   32.9175   44.7724 H   0  0  0  0  0  0  0  0  0  0  0  0
   47.7301   34.1736   44.3949 H   0  0  0  0  0  0  0  0  0  0  0  0
   45.9840   34.5954   44.3949 H   0  0  0  0  0  0  0  0  0  0  0  0
   47.3827   34.2891   40.9141 H   0  0  0  0  0  0  0  0  0  0  0  0
   47.9449   35.0675   42.4671 H   0  0  0  0  0  0  0  0  0  0  0  0
   48.9993   32.4023   41.5281 H   0  0  0  0  0  0  0  0  0  0  0  0
   52.2092   33.9770   42.6284 H   0  0  0  0  0  0  0  0  0  0  0  0
   51.5046   32.6128   41.7200 H   0  0  0  0  0  0  0  0  0  0  0  0
  1  9  1  0
  2  1  1  0
  3  2  2  0
  4  3  1  0
  5  6  1  0
  5  4  2  0
  6  7  2  0
  7  2  1  0
  8  1  1  0
 10  1  1  0
 11 10  1  0
 11 12  1  0
 12 13  2  0
 13 15  1  0
 14 12  1  0
  3 16  1  0
  4 17  1  0
  6 18  1  0
  8 19  1  0
  8 20  1  0
  8 21  1  0
  9 22  1  0
  9 23  1  0
  9 24  1  0
 10 25  1  0
 10 26  1  0
 11 27  1  0
 14 28  1  0
 14 29  1  0
M  ISO  8  16  14  17  14  18  14  19   8  20   8  21   8  22   8  23   8
M  ISO  3  24   8  25   8  26   8
M  END
>  <minimizedAffinity>  (1) 
-4.31502056

>  <minimizedRMSD>  (1) 
4.10207987

$$$$
