
     RDKit          3D

 23 23  0  0  0  0  0  0  0  0999 V2000
   48.5590   34.3510   41.9100 C   0  0  0  0  0  0  0  0  0  0  0  0
   47.3530   34.4880   42.7730 C   0  0  0  0  0  0  0  0  0  0  0  0
   47.2920   33.5910   43.8460 C   0  0  0  0  0  0  0  0  0  0  0  0
   46.1970   33.6280   44.7250 C   0  0  0  0  0  0  0  0  0  0  0  0
   45.2410   34.5530   44.4710 N   0  0  0  0  0  0  0  0  0  0  0  0
   45.3080   35.4290   43.4150 C   0  0  0  0  0  0  0  0  0  0  0  0
   46.3570   35.3790   42.5910 N   0  0  0  0  0  0  0  0  0  0  0  0
   49.7340   35.1420   42.4820 C   0  0  0  0  0  0  0  0  0  0  0  0
   48.2200   34.8900   40.5620 C   0  0  0  0  0  0  0  0  0  0  0  0
   48.9990   32.9100   41.8290 C   0  0  0  0  0  0  0  0  0  0  0  0
   50.7820   32.8470   42.1590 S   0  0  0  0  0  0  0  0  0  0  0  0
   48.0990   32.8596   44.0003 H   0  0  0  0  0  0  0  0  0  0  0  0
   46.1197   32.9387   45.5787 H   0  0  0  0  0  0  0  0  0  0  0  0
   44.5060   36.1636   43.2502 H   0  0  0  0  0  0  0  0  0  0  0  0
   49.6939   35.1150   43.5809 H   0  0  0  0  0  0  0  0  0  0  0  0
   50.6787   34.6952   42.1385 H   0  0  0  0  0  0  0  0  0  0  0  0
   49.6755   36.1853   42.1385 H   0  0  0  0  0  0  0  0  0  0  0  0
   47.6374   35.8164   40.6734 H   0  0  0  0  0  0  0  0  0  0  0  0
   49.1465   35.1038   40.0090 H   0  0  0  0  0  0  0  0  0  0  0  0
   47.6260   34.1475   40.0090 H   0  0  0  0  0  0  0  0  0  0  0  0
   48.4595   32.3125   42.5787 H   0  0  0  0  0  0  0  0  0  0  0  0
   48.7808   32.4999   40.8319 H   0  0  0  0  0  0  0  0  0  0  0  0
   50.9960   32.8394   43.5122 H   0  0  0  0  0  0  0  0  0  0  0  0
  1  8  1  0
  1  2  1  0
  2  3  2  0
  3  4  1  0
  5  4  2  0
  6  5  1  0
  7  2  1  0
  7  6  2  0
  9  1  1  0
 10  1  1  0
 10 11  1  0
  3 12  1  0
  4 13  1  0
  6 14  1  0
  8 15  1  0
  8 16  1  0
  8 17  1  0
  9 18  1  0
  9 19  1  0
  9 20  1  0
 10 21  1  0
 10 22  1  0
 11 23  1  0
M  ISO  8  12  14  13  14  14  14  15   8  16   8  17   8  18   8  19   8
M  ISO  4  20   8  21   8  22   8  23  11
M  END
>  <minimizedAffinity>  (1) 
-3.81779933

>  <minimizedRMSD>  (1) 
1.9880991

$$$$
