
     RDKit          3D

 42 43  0  0  1  0  0  0  0  0999 V2000
   47.7790   33.9190   42.1080 C   0  0  2  0  0  0  0  0  0  0  0  0
   47.7010   33.7210   40.6090 N   0  0  0  0  0  0  0  0  0  0  0  0
   47.1540   32.6910   39.9540 C   0  0  0  0  0  0  0  0  0  0  0  0
   47.1340   32.5970   38.5970 C   0  0  0  0  0  0  0  0  0  0  0  0
   46.4980   31.4060   37.9750 C   0  0  0  0  0  0  0  0  0  0  0  0
   47.6960   33.5920   37.8290 C   0  0  0  0  0  0  0  0  0  0  0  0
   47.6660   33.4830   36.5930 O   0  0  0  0  0  0  0  0  0  0  0  0
   48.2510   34.6340   38.4700 N   0  0  0  0  0  0  0  0  0  0  0  0
   48.2430   34.6750   39.7880 C   0  0  0  0  0  0  0  0  0  0  0  0
   48.8110   35.7280   40.2410 O   0  0  0  0  0  0  0  0  0  0  0  0
   48.9910   33.1660   42.3610 N   0  0  0  0  0  0  0  0  0  0  0  0
   50.1580   33.8750   42.6620 C   0  0  0  0  0  0  0  0  0  0  0  0
   50.2710   35.1050   42.9530 N   0  0  0  0  0  0  0  0  0  0  0  0
   51.4320   33.2310   42.6510 N   0  0  0  0  0  0  0  0  0  0  0  0
   49.4430   35.7170   43.1200 H   0  0  0  0  0  0  0  0  0  0  0  0
   46.6110   33.2530   42.7500 C   0  0  0  0  0  0  0  0  0  0  0  0
   45.3270   33.9380   42.3620 C   0  0  0  0  0  0  0  0  0  0  0  0
   45.2670   35.3010   42.5210 C   0  0  0  0  0  0  0  0  0  0  0  0
   44.0730   35.9260   42.0950 C   0  0  0  0  0  0  0  0  0  0  0  0
   43.0800   35.1800   41.5710 N   0  0  0  0  0  0  0  0  0  0  0  0
   43.1730   33.8380   41.4310 C   0  0  0  0  0  0  0  0  0  0  0  0
   44.2860   33.2470   41.8260 N   0  0  0  0  0  0  0  0  0  0  0  0
   46.6230   31.7870   42.5340 C   0  0  0  0  0  0  0  0  0  0  0  0
   46.6770   33.4670   44.2880 C   0  0  0  0  0  0  0  0  0  0  0  0
   47.7781   34.9571   42.4718 H   0  0  0  0  0  0  0  0  0  0  0  0
   46.6980   31.8803   40.5413 H   0  0  0  0  0  0  0  0  0  0  0  0
   46.1367   30.7295   38.7635 H   0  0  0  0  0  0  0  0  0  0  0  0
   45.6511   31.7267   37.3506 H   0  0  0  0  0  0  0  0  0  0  0  0
   47.2356   30.8806   37.3506 H   0  0  0  0  0  0  0  0  0  0  0  0
   48.6821   35.3998   37.9328 H   0  0  0  0  0  0  0  0  0  0  0  0
   48.9928   32.1368   42.3202 H   0  0  0  0  0  0  0  0  0  0  0  0
   52.2822   33.7675   42.8751 H   0  0  0  0  0  0  0  0  0  0  0  0
   51.5010   32.2298   42.4190 H   0  0  0  0  0  0  0  0  0  0  0  0
   46.1002   35.8732   42.9549 H   0  0  0  0  0  0  0  0  0  0  0  0
   43.9547   37.0154   42.1906 H   0  0  0  0  0  0  0  0  0  0  0  0
   42.3452   33.2554   41.0004 H   0  0  0  0  0  0  0  0  0  0  0  0
   46.6272   31.2731   43.5066 H   0  0  0  0  0  0  0  0  0  0  0  0
   45.7272   31.4925   41.9675 H   0  0  0  0  0  0  0  0  0  0  0  0
   47.5235   31.5072   41.9675 H   0  0  0  0  0  0  0  0  0  0  0  0
   46.3901   32.5368   44.8003 H   0  0  0  0  0  0  0  0  0  0  0  0
   47.7021   33.7431   44.5761 H   0  0  0  0  0  0  0  0  0  0  0  0
   45.9855   34.2725   44.5761 H   0  0  0  0  0  0  0  0  0  0  0  0
  1 11  1  0
  1 16  1  0
  2  1  1  0
  3  2  1  0
  4  3  2  0
  5  4  1  0
  6  8  1  0
  6  4  1  0
  7  6  2  0
  8  9  1  0
  9 10  2  0
  9  2  1  0
 11 12  1  0
 12 13  2  0
 13 15  1  0
 14 12  1  0
 16 24  1  0
 17 18  2  0
 17 16  1  0
 19 18  1  0
 20 19  2  0
 21 20  1  0
 21 22  2  0
 22 17  1  0
 23 16  1  0
  1 25  1  6
  3 26  1  0
  5 27  1  0
  5 28  1  0
  5 29  1  0
  8 30  1  0
 11 31  1  0
 14 32  1  0
 14 33  1  0
 18 34  1  0
 19 35  1  0
 21 36  1  0
 23 37  1  0
 23 38  1  0
 23 39  1  0
 24 40  1  0
 24 41  1  0
 24 42  1  0
M  ISO  8  25   8  26  14  27   8  28   8  29   8  30   9  34  14  35  14
M  ISO  7  36  14  37   8  38   8  39   8  40   8  41   8  42   8
M  END
>  <minimizedAffinity>  (1) 
-5.77387381

>  <minimizedRMSD>  (1) 
0.53804028

$$$$
