
     RDKit          3D

 42 44  0  0  1  0  0  0  0  0999 V2000
   47.7020   33.6660   41.8770 C   0  0  2  0  0  0  0  0  0  0  0  0
   47.4740   32.8790   40.5970 N   0  0  0  0  0  0  0  0  0  0  0  0
   46.9940   31.6320   40.4730 C   0  0  0  0  0  0  0  0  0  0  0  0
   46.9490   31.2650   39.1840 N   0  0  0  0  0  0  0  0  0  0  0  0
   47.4100   32.2910   38.4530 C   0  0  0  0  0  0  0  0  0  0  0  0
   47.5910   32.4600   37.0970 C   0  0  0  0  0  0  0  0  0  0  0  0
   48.0910   33.6040   36.5760 N   0  0  0  0  0  0  0  0  0  0  0  0
   48.4030   34.5720   37.4770 C   0  0  0  0  0  0  0  0  0  0  0  0
   48.2260   34.4050   38.7950 N   0  0  0  0  0  0  0  0  0  0  0  0
   47.7340   33.2880   39.3440 C   0  0  0  0  0  0  0  0  0  0  0  0
   47.2570   31.4370   36.1820 N   0  0  0  0  0  0  0  0  0  0  0  0
   48.9550   33.0670   42.2740 N   0  0  0  0  0  0  0  0  0  0  0  0
   50.0170   33.9210   42.5780 C   0  0  0  0  0  0  0  0  0  0  0  0
   49.9910   35.1680   42.8090 N   0  0  0  0  0  0  0  0  0  0  0  0
   51.3550   33.4150   42.6340 N   0  0  0  0  0  0  0  0  0  0  0  0
   49.1020   35.7080   42.8160 H   0  0  0  0  0  0  0  0  0  0  0  0
   46.5890   33.2210   42.7620 C   0  0  0  0  0  0  0  0  0  0  0  0
   45.2670   33.7560   42.2820 C   0  0  0  0  0  0  0  0  0  0  0  0
   45.1710   35.1200   42.1260 C   0  0  0  0  0  0  0  0  0  0  0  0
   43.9400   35.6120   41.6350 C   0  0  0  0  0  0  0  0  0  0  0  0
   42.9460   34.7420   41.3510 N   0  0  0  0  0  0  0  0  0  0  0  0
   43.0750   33.4020   41.5180 C   0  0  0  0  0  0  0  0  0  0  0  0
   44.2270   32.9380   41.9790 N   0  0  0  0  0  0  0  0  0  0  0  0
   46.6170   31.7350   42.9150 C   0  0  0  0  0  0  0  0  0  0  0  0
   46.7520   33.8190   44.1720 C   0  0  0  0  0  0  0  0  0  0  0  0
   47.7284   34.7654   41.8533 H   0  0  0  0  0  0  0  0  0  0  0  0
   46.6800   30.9970   41.3146 H   0  0  0  0  0  0  0  0  0  0  0  0
   48.8147   35.5247   37.1125 H   0  0  0  0  0  0  0  0  0  0  0  0
   47.3996   31.5824   35.1723 H   0  0  0  0  0  0  0  0  0  0  0  0
   46.8708   30.5457   36.5245 H   0  0  0  0  0  0  0  0  0  0  0  0
   49.0615   32.0441   42.3309 H   0  0  0  0  0  0  0  0  0  0  0  0
   52.1360   34.0479   42.8586 H   0  0  0  0  0  0  0  0  0  0  0  0
   51.5367   32.4180   42.4497 H   0  0  0  0  0  0  0  0  0  0  0  0
   46.0074   35.7914   42.3703 H   0  0  0  0  0  0  0  0  0  0  0  0
   43.7929   36.6919   41.4857 H   0  0  0  0  0  0  0  0  0  0  0  0
   42.2463   32.7198   41.2774 H   0  0  0  0  0  0  0  0  0  0  0  0
   46.6219   31.4765   43.9842 H   0  0  0  0  0  0  0  0  0  0  0  0
   45.7269   31.3003   42.4367 H   0  0  0  0  0  0  0  0  0  0  0  0
   47.5229   31.3342   42.4367 H   0  0  0  0  0  0  0  0  0  0  0  0
   46.5411   33.0454   44.9250 H   0  0  0  0  0  0  0  0  0  0  0  0
   47.7822   34.1832   44.2990 H   0  0  0  0  0  0  0  0  0  0  0  0
   46.0491   34.6556   44.2990 H   0  0  0  0  0  0  0  0  0  0  0  0
  1 12  1  0
  1 17  1  0
  2  1  1  0
  3  2  1  0
  4  3  2  0
  5  4  1  0
  5 10  2  0
  6  5  1  0
  7  6  2  0
  7  8  1  0
  8  9  2  0
  9 10  1  0
 10  2  1  0
 11  6  1  0
 12 13  1  0
 13 15  1  0
 13 14  2  0
 14 16  1  0
 17 24  1  0
 17 25  1  0
 18 17  1  0
 19 18  2  0
 20 19  1  0
 21 22  1  0
 21 20  2  0
 22 23  2  0
 23 18  1  0
  1 26  1  6
  3 27  1  0
  8 28  1  0
 11 29  1  0
 11 30  1  0
 12 31  1  0
 15 32  1  0
 15 33  1  0
 19 34  1  0
 20 35  1  0
 22 36  1  0
 24 37  1  0
 24 38  1  0
 24 39  1  0
 25 40  1  0
 25 41  1  0
 25 42  1  0
M  ISO  8  26   8  27  14  28  14  34  14  35  14  36  14  37   8  38   8
M  ISO  4  39   8  40   8  41   8  42   8
M  END
>  <minimizedAffinity>  (1) 
-5.57098341

>  <minimizedRMSD>  (1) 
0.971098006

$$$$
