
     RDKit          3D

 40 41  0  0  1  0  0  0  0  0999 V2000
   48.2620   33.4430   42.5900 C   0  0  2  0  0  0  0  0  0  0  0  0
   48.1120   33.6180   41.0990 N   0  0  0  0  0  0  0  0  0  0  0  0
   47.6600   32.7260   40.2070 C   0  0  0  0  0  0  0  0  0  0  0  0
   47.5710   32.9970   38.8640 C   0  0  0  0  0  0  0  0  0  0  0  0
   47.9530   34.2220   38.3730 C   0  0  0  0  0  0  0  0  0  0  0  0
   47.8190   34.3870   36.9840 N   0  0  0  0  0  0  0  0  0  0  0  0
   48.4020   35.1030   39.2590 N   0  0  0  0  0  0  0  0  0  0  0  0
   48.4750   34.8140   40.5410 C   0  0  0  0  0  0  0  0  0  0  0  0
   48.9360   35.8010   41.2110 O   0  0  0  0  0  0  0  0  0  0  0  0
   49.2520   32.3830   42.5630 N   0  0  0  0  0  0  0  0  0  0  0  0
   50.5990   32.7510   42.4970 C   0  0  0  0  0  0  0  0  0  0  0  0
   51.1050   33.9030   42.6760 N   0  0  0  0  0  0  0  0  0  0  0  0
   51.6020   31.7840   42.1800 N   0  0  0  0  0  0  0  0  0  0  0  0
   50.5500   34.6890   43.0760 H   0  0  0  0  0  0  0  0  0  0  0  0
   46.9850   32.9370   43.1740 C   0  0  0  0  0  0  0  0  0  0  0  0
   46.1160   34.0820   43.6260 C   0  0  0  0  0  0  0  0  0  0  0  0
   45.5950   34.0090   44.8960 C   0  0  0  0  0  0  0  0  0  0  0  0
   44.8330   35.1190   45.3240 C   0  0  0  0  0  0  0  0  0  0  0  0
   44.6610   36.1650   44.4870 N   0  0  0  0  0  0  0  0  0  0  0  0
   45.1860   36.2020   43.2440 C   0  0  0  0  0  0  0  0  0  0  0  0
   45.8970   35.1690   42.8410 N   0  0  0  0  0  0  0  0  0  0  0  0
   46.3130   31.9820   42.2600 C   0  0  0  0  0  0  0  0  0  0  0  0
   47.2920   32.1730   44.4890 C   0  0  0  0  0  0  0  0  0  0  0  0
   48.5188   34.3417   43.1701 H   0  0  0  0  0  0  0  0  0  0  0  0
   47.3470   31.7345   40.5660 H   0  0  0  0  0  0  0  0  0  0  0  0
   47.1910   32.2275   38.1759 H   0  0  0  0  0  0  0  0  0  0  0  0
   48.0855   35.2790   36.5433 H   0  0  0  0  0  0  0  0  0  0  0  0
   47.4543   33.6160   36.4066 H   0  0  0  0  0  0  0  0  0  0  0  0
   48.9718   31.3923   42.5915 H   0  0  0  0  0  0  0  0  0  0  0  0
   52.5919   32.0649   42.1338 H   0  0  0  0  0  0  0  0  0  0  0  0
   51.3352   30.8060   41.9977 H   0  0  0  0  0  0  0  0  0  0  0  0
   45.7621   33.1351   45.5429 H   0  0  0  0  0  0  0  0  0  0  0  0
   44.3845   35.1312   46.3283 H   0  0  0  0  0  0  0  0  0  0  0  0
   45.0248   37.0693   42.5869 H   0  0  0  0  0  0  0  0  0  0  0  0
   45.7790   31.2231   42.8507 H   0  0  0  0  0  0  0  0  0  0  0  0
   45.5962   32.5241   41.6257 H   0  0  0  0  0  0  0  0  0  0  0  0
   47.0653   31.4904   41.6257 H   0  0  0  0  0  0  0  0  0  0  0  0
   47.0368   32.8081   45.3501 H   0  0  0  0  0  0  0  0  0  0  0  0
   46.6950   31.2498   44.5246 H   0  0  0  0  0  0  0  0  0  0  0  0
   48.3618   31.9195   44.5246 H   0  0  0  0  0  0  0  0  0  0  0  0
  1 15  1  0
  2  1  1  0
  3  2  1  0
  4  3  2  0
  5  4  1  0
  5  7  2  0
  6  5  1  0
  7  8  1  0
  8  2  1  0
  8  9  2  0
 10  1  1  0
 11 10  1  0
 11 12  2  0
 12 14  1  0
 13 11  1  0
 15 16  1  0
 15 23  1  0
 16 17  2  0
 17 18  1  0
 19 18  2  0
 20 19  1  0
 21 20  2  0
 21 16  1  0
 22 15  1  0
  1 24  1  1
  3 25  1  0
  4 26  1  0
  6 27  1  0
  6 28  1  0
 10 29  1  0
 13 30  1  0
 13 31  1  0
 17 32  1  0
 18 33  1  0
 20 34  1  0
 22 35  1  0
 22 36  1  0
 22 37  1  0
 23 38  1  0
 23 39  1  0
 23 40  1  0
M  ISO  8  24   8  25  14  26  14  32  14  33  14  34  14  35   8  36   8
M  ISO  4  37   8  38   8  39   8  40   8
M  END
>  <minimizedAffinity>  (1) 
-5.89166307

>  <minimizedRMSD>  (1) 
2.11074448

$$$$
