
     RDKit          3D

 39 40  0  0  1  0  0  0  0  0999 V2000
   46.6610   33.2860   42.2180 C   0  0  0  0  0  0  0  0  0  0  0  0
   45.3470   34.0140   42.0970 C   0  0  0  0  0  0  0  0  0  0  0  0
   45.3330   35.3470   42.4430 C   0  0  0  0  0  0  0  0  0  0  0  0
   44.1150   36.0310   42.2740 C   0  0  0  0  0  0  0  0  0  0  0  0
   43.0440   35.3620   41.7930 N   0  0  0  0  0  0  0  0  0  0  0  0
   43.0860   34.0520   41.4630 C   0  0  0  0  0  0  0  0  0  0  0  0
   44.2310   33.4030   41.6200 N   0  0  0  0  0  0  0  0  0  0  0  0
   46.6350   31.8970   41.6880 C   0  0  0  0  0  0  0  0  0  0  0  0
   46.8910   33.1830   43.7380 C   0  0  0  0  0  0  0  0  0  0  0  0
   47.7600   34.0740   41.5800 C   0  0  1  0  0  0  0  0  0  0  0  0
   49.0240   33.3910   41.7160 N   0  0  0  0  0  0  0  0  0  0  0  0
   50.0810   34.0460   42.3650 C   0  0  0  0  0  0  0  0  0  0  0  0
   50.0160   35.1010   43.0690 N   0  0  0  0  0  0  0  0  0  0  0  0
   51.4110   33.5560   42.2720 N   0  0  0  0  0  0  0  0  0  0  0  0
   49.1210   35.5920   43.2720 H   0  0  0  0  0  0  0  0  0  0  0  0
   47.5590   33.8970   40.0510 C   0  0  0  0  0  0  0  0  0  0  0  0
   46.6050   33.1110   39.4500 C   0  0  0  0  0  0  0  0  0  0  0  0
   46.5000   33.0090   38.1000 C   0  0  0  0  0  0  0  0  0  0  0  0
   47.3510   33.6940   37.2770 C   0  0  0  0  0  0  0  0  0  0  0  0
   48.3220   34.4920   37.8140 C   0  0  0  0  0  0  0  0  0  0  0  0
   48.4110   34.5810   39.1760 C   0  0  0  0  0  0  0  0  0  0  0  0
   46.2295   35.8519   42.8321 H   0  0  0  0  0  0  0  0  0  0  0  0
   44.0356   37.0977   42.5304 H   0  0  0  0  0  0  0  0  0  0  0  0
   42.1942   33.5384   41.0747 H   0  0  0  0  0  0  0  0  0  0  0  0
   46.6217   31.1849   42.5263 H   0  0  0  0  0  0  0  0  0  0  0  0
   45.7341   31.7561   41.0728 H   0  0  0  0  0  0  0  0  0  0  0  0
   47.5300   31.7225   41.0728 H   0  0  0  0  0  0  0  0  0  0  0  0
   46.0120   33.5767   44.2694 H   0  0  0  0  0  0  0  0  0  0  0  0
   47.0455   32.1297   44.0149 H   0  0  0  0  0  0  0  0  0  0  0  0
   47.7797   33.7691   44.0149 H   0  0  0  0  0  0  0  0  0  0  0  0
   47.7496   35.0894   42.0029 H   0  0  0  0  0  0  0  0  0  0  0  0
   49.1478   32.4390   41.3429 H   0  0  0  0  0  0  0  0  0  0  0  0
   52.1762   34.0485   42.7545 H   0  0  0  0  0  0  0  0  0  0  0  0
   51.6102   32.7082   41.7221 H   0  0  0  0  0  0  0  0  0  0  0  0
   45.9042   32.5466   40.0828 H   0  0  0  0  0  0  0  0  0  0  0  0
   45.7208   32.3674   37.6628 H   0  0  0  0  0  0  0  0  0  0  0  0
   47.2541   33.6028   36.1851 H   0  0  0  0  0  0  0  0  0  0  0  0
   49.0151   35.0492   37.1666 H   0  0  0  0  0  0  0  0  0  0  0  0
   49.1931   35.2238   39.6063 H   0  0  0  0  0  0  0  0  0  0  0  0
  1  9  1  0
  2  1  1  0
  2  3  2  0
  4  3  1  0
  5  4  2  0
  6  7  2  0
  6  5  1  0
  7  2  1  0
  8  1  1  0
 10 11  1  0
 10  1  1  0
 11 12  1  0
 12 13  2  0
 13 15  1  0
 14 12  1  0
 16 10  1  0
 17 16  2  0
 18 17  1  0
 19 20  1  0
 19 18  2  0
 20 21  2  0
 21 16  1  0
  3 22  1  0
  4 23  1  0
  6 24  1  0
  8 25  1  0
  8 26  1  0
  8 27  1  0
  9 28  1  0
  9 29  1  0
  9 30  1  0
 10 31  1  6
 11 32  1  0
 14 33  1  0
 14 34  1  0
 17 35  1  0
 18 36  1  0
 19 37  1  0
 20 38  1  0
 21 39  1  0
M  ISO  8  22  14  23  14  24  14  25   8  26   8  27   8  28   8  29   8
M  ISO  7  30   8  31   8  35  14  36  14  37  14  38  14  39  14
M  END
>  <minimizedAffinity>  (1) 
-5.47332716

>  <minimizedRMSD>  (1) 
0.571352005

$$$$
