
     RDKit          3D

 40 42  0  0  1  0  0  0  0  0999 V2000
   48.2010   34.1010   40.5940 C   0  0  2  0  0  0  0  0  0  0  0  0
   48.5250   33.7570   39.1540 N   0  0  0  0  0  0  0  0  0  0  0  0
   48.2760   34.4740   38.0460 C   0  0  0  0  0  0  0  0  0  0  0  0
   48.7110   33.7930   36.9710 N   0  0  0  0  0  0  0  0  0  0  0  0
   49.2490   32.6230   37.3630 C   0  0  0  0  0  0  0  0  0  0  0  0
   49.8040   31.6120   36.6140 C   0  0  0  0  0  0  0  0  0  0  0  0
   50.2530   30.5420   37.2950 N   0  0  0  0  0  0  0  0  0  0  0  0
   50.1500   30.4950   38.6390 C   0  0  0  0  0  0  0  0  0  0  0  0
   49.6030   31.5020   39.3240 N   0  0  0  0  0  0  0  0  0  0  0  0
   49.1280   32.6090   38.7310 C   0  0  0  0  0  0  0  0  0  0  0  0
   49.2660   33.3580   41.2250 N   0  0  0  0  0  0  0  0  0  0  0  0
   50.0550   34.0180   42.1760 C   0  0  0  0  0  0  0  0  0  0  0  0
   49.8380   35.1310   42.7450 N   0  0  0  0  0  0  0  0  0  0  0  0
   51.2990   33.4580   42.6060 N   0  0  0  0  0  0  0  0  0  0  0  0
   48.9620   35.6670   42.5870 H   0  0  0  0  0  0  0  0  0  0  0  0
   46.8820   33.4410   40.7950 C   0  0  0  0  0  0  0  0  0  0  0  0
   45.9030   34.3720   41.4580 C   0  0  0  0  0  0  0  0  0  0  0  0
   46.3420   35.0200   42.5900 C   0  0  0  0  0  0  0  0  0  0  0  0
   45.4480   35.9230   43.2000 C   0  0  0  0  0  0  0  0  0  0  0  0
   44.2100   36.1030   42.6440 N   0  0  0  0  0  0  0  0  0  0  0  0
   43.8180   35.4410   41.5240 C   0  0  0  0  0  0  0  0  0  0  0  0
   44.6610   34.5980   40.9590 N   0  0  0  0  0  0  0  0  0  0  0  0
   46.3890   32.8870   39.4940 C   0  0  0  0  0  0  0  0  0  0  0  0
   47.0020   32.2530   41.7650 C   0  0  0  0  0  0  0  0  0  0  0  0
   48.1433   35.1475   40.9279 H   0  0  0  0  0  0  0  0  0  0  0  0
   47.7928   35.4619   38.0216 H   0  0  0  0  0  0  0  0  0  0  0  0
   49.8769   31.6747   35.5182 H   0  0  0  0  0  0  0  0  0  0  0  0
   50.5228   29.6125   39.1796 H   0  0  0  0  0  0  0  0  0  0  0  0
   49.4405   32.3721   40.9832 H   0  0  0  0  0  0  0  0  0  0  0  0
   51.8714   33.9515   43.3058 H   0  0  0  0  0  0  0  0  0  0  0  0
   51.6223   32.5613   42.2159 H   0  0  0  0  0  0  0  0  0  0  0  0
   47.3466   34.8411   43.0008 H   0  0  0  0  0  0  0  0  0  0  0  0
   45.7399   36.4733   44.1067 H   0  0  0  0  0  0  0  0  0  0  0  0
   42.8176   35.6047   41.0969 H   0  0  0  0  0  0  0  0  0  0  0  0
   45.6693   32.0783   39.6890 H   0  0  0  0  0  0  0  0  0  0  0  0
   45.8968   33.6850   38.9187 H   0  0  0  0  0  0  0  0  0  0  0  0
   47.2387   32.4908   38.9187 H   0  0  0  0  0  0  0  0  0  0  0  0
   46.9649   32.6205   42.8011 H   0  0  0  0  0  0  0  0  0  0  0  0
   46.1699   31.5543   41.5937 H   0  0  0  0  0  0  0  0  0  0  0  0
   47.9571   31.7348   41.5937 H   0  0  0  0  0  0  0  0  0  0  0  0
  1 16  1  0
  1 11  1  0
  2  1  1  0
  3  2  1  0
  4  5  1  0
  4  3  2  0
  5 10  2  0
  6  7  2  0
  6  5  1  0
  7  8  1  0
  8  9  2  0
 10  2  1  0
 10  9  1  0
 11 12  1  0
 12 14  1  0
 12 13  2  0
 15 13  1  0
 16 17  1  0
 16 24  1  0
 17 18  2  0
 18 19  1  0
 20 19  2  0
 21 20  1  0
 22 17  1  0
 22 21  2  0
 23 16  1  0
  1 25  1  6
  3 26  1  0
  6 27  1  0
  8 28  1  0
 11 29  1  0
 14 30  1  0
 14 31  1  0
 18 32  1  0
 19 33  1  0
 21 34  1  0
 23 35  1  0
 23 36  1  0
 23 37  1  0
 24 38  1  0
 24 39  1  0
 24 40  1  0
M  ISO  8  25   8  26  14  27  14  28  14  32  14  33  14  34  14  35   8
M  ISO  5  36   8  37   8  38   8  39   8  40   8
M  END
>  <minimizedAffinity>  (1) 
-5.53463602

>  <minimizedRMSD>  (1) 
2.83363056

$$$$
