
     RDKit          3D

 35 36  0  0  1  0  0  0  0  0999 V2000
   45.4550   34.7630   42.8490 C   0  0  0  0  0  0  0  0  0  0  0  0
   44.2570   34.4280   41.9950 C   0  0  0  0  0  0  0  0  0  0  0  0
   43.8070   35.4150   41.1470 C   0  0  0  0  0  0  0  0  0  0  0  0
   42.7110   35.0840   40.3220 C   0  0  0  0  0  0  0  0  0  0  0  0
   42.1770   33.8500   40.4070 N   0  0  0  0  0  0  0  0  0  0  0  0
   42.6390   32.9000   41.2490 C   0  0  0  0  0  0  0  0  0  0  0  0
   43.6710   33.2010   42.0310 N   0  0  0  0  0  0  0  0  0  0  0  0
   45.7100   33.7540   43.9310 C   0  0  0  0  0  0  0  0  0  0  0  0
   45.1350   36.1040   43.4840 C   0  0  0  0  0  0  0  0  0  0  0  0
   46.6950   34.8410   41.9980 C   0  0  1  0  0  0  0  0  0  0  0  0
   47.8840   34.8060   42.8120 N   0  0  0  0  0  0  0  0  0  0  0  0
   49.0840   35.2760   42.2800 C   0  0  0  0  0  0  0  0  0  0  0  0
   49.2350   35.9800   41.2300 N   0  0  0  0  0  0  0  0  0  0  0  0
   50.3180   34.9630   42.9350 N   0  0  0  0  0  0  0  0  0  0  0  0
   48.4330   36.3610   40.6900 H   0  0  0  0  0  0  0  0  0  0  0  0
   46.8100   33.4180   41.3730 C   0  0  0  0  0  0  0  0  0  0  0  0
   46.6280   33.3460   39.9580 C   0  0  0  0  0  0  0  0  0  0  0  0
   46.8150   31.5440   39.5920 S   0  0  0  0  0  0  0  0  0  0  0  0
   47.1100   31.1970   41.4390 C   0  0  0  0  0  0  0  0  0  0  0  0
   47.0410   32.2850   41.9880 N   0  0  0  0  0  0  0  0  0  0  0  0
   44.2770   36.4090   41.1143 H   0  0  0  0  0  0  0  0  0  0  0  0
   42.2985   35.8231   39.6194 H   0  0  0  0  0  0  0  0  0  0  0  0
   42.1737   31.9040   41.2865 H   0  0  0  0  0  0  0  0  0  0  0  0
   45.5891   34.2322   44.9142 H   0  0  0  0  0  0  0  0  0  0  0  0
   44.9931   32.9252   43.8358 H   0  0  0  0  0  0  0  0  0  0  0  0
   46.7346   33.3653   43.8358 H   0  0  0  0  0  0  0  0  0  0  0  0
   45.1584   36.0059   44.5794 H   0  0  0  0  0  0  0  0  0  0  0  0
   45.8810   36.8474   43.1664 H   0  0  0  0  0  0  0  0  0  0  0  0
   44.1337   36.4305   43.1664 H   0  0  0  0  0  0  0  0  0  0  0  0
   46.6277   35.7249   41.3467 H   0  0  0  0  0  0  0  0  0  0  0  0
   47.8477   34.4388   43.7736 H   0  0  0  0  0  0  0  0  0  0  0  0
   51.2083   35.3068   42.5477 H   0  0  0  0  0  0  0  0  0  0  0  0
   50.3155   34.3940   43.7936 H   0  0  0  0  0  0  0  0  0  0  0  0
   46.4251   34.1668   39.2544 H   0  0  0  0  0  0  0  0  0  0  0  0
   47.3020   30.2226   41.9119 H   0  0  0  0  0  0  0  0  0  0  0  0
  1  9  1  0
  1  8  1  0
  2  7  1  0
  2  1  1  0
  3  2  2  0
  4  5  2  0
  4  3  1  0
  5  6  1  0
  6  7  2  0
 10 11  1  0
 10  1  1  0
 12 11  1  0
 12 14  1  0
 13 12  2  0
 15 13  1  0
 16 20  1  0
 16 10  1  0
 17 16  2  0
 18 17  1  0
 18 19  1  0
 19 20  2  0
  3 21  1  0
  4 22  1  0
  6 23  1  0
  8 24  1  0
  8 25  1  0
  8 26  1  0
  9 27  1  0
  9 28  1  0
  9 29  1  0
 10 30  1  6
 11 31  1  0
 14 32  1  0
 14 33  1  0
 17 34  1  0
 19 35  1  0
M  ISO  8  21  14  22  14  23  14  24   8  25   8  26   8  27   8  28   8
M  ISO  4  29   8  30   8  34  14  35  14
M  END
>  <minimizedAffinity>  (1) 
-5.06349182

>  <minimizedRMSD>  (1) 
1.97697103

$$$$
