
     RDKit          3D

 41 42  0  0  1  0  0  0  0  0999 V2000
   46.4050   32.7400   43.6100 C   0  0  0  0  0  0  0  0  0  0  0  0
   45.7150   34.0400   43.9130 C   0  0  0  0  0  0  0  0  0  0  0  0
   45.2080   34.2150   45.1760 C   0  0  0  0  0  0  0  0  0  0  0  0
   44.6280   35.4740   45.4420 C   0  0  0  0  0  0  0  0  0  0  0  0
   44.6000   36.4140   44.4760 N   0  0  0  0  0  0  0  0  0  0  0  0
   45.1110   36.2040   43.2390 C   0  0  0  0  0  0  0  0  0  0  0  0
   45.6530   35.0320   42.9800 N   0  0  0  0  0  0  0  0  0  0  0  0
   45.5130   31.6090   43.2710 C   0  0  0  0  0  0  0  0  0  0  0  0
   47.0650   32.3740   44.9760 C   0  0  0  0  0  0  0  0  0  0  0  0
   47.4760   32.9340   42.5920 C   0  0  1  0  0  0  0  0  0  0  0  0
   48.6130   33.6090   43.2070 N   0  0  0  0  0  0  0  0  0  0  0  0
   49.1250   34.7500   42.5820 C   0  0  0  0  0  0  0  0  0  0  0  0
   48.5600   35.4600   41.6930 N   0  0  0  0  0  0  0  0  0  0  0  0
   50.4140   35.2390   42.9150 N   0  0  0  0  0  0  0  0  0  0  0  0
   47.5830   35.2860   41.3570 H   0  0  0  0  0  0  0  0  0  0  0  0
   48.0900   31.6160   42.2330 N   0  0  0  0  0  0  0  0  0  0  0  0
   49.2620   31.2290   42.8210 C   0  0  0  0  0  0  0  0  0  0  0  0
   50.0380   30.3690   41.7980 C   0  0  0  0  0  0  0  0  0  0  0  0
   49.5480   30.9200   40.4780 C   0  0  0  0  0  0  0  0  0  0  0  0
   48.1900   31.5220   40.8020 C   0  0  0  0  0  0  0  0  0  0  0  0
   45.2510   33.4211   45.9362 H   0  0  0  0  0  0  0  0  0  0  0  0
   44.2008   35.6872   46.4330 H   0  0  0  0  0  0  0  0  0  0  0  0
   45.0742   36.9912   42.4716 H   0  0  0  0  0  0  0  0  0  0  0  0
   45.1449   31.1422   44.1965 H   0  0  0  0  0  0  0  0  0  0  0  0
   44.6603   31.9782   42.6822 H   0  0  0  0  0  0  0  0  0  0  0  0
   46.0707   30.8658   42.6822 H   0  0  0  0  0  0  0  0  0  0  0  0
   46.4262   32.7282   45.7985 H   0  0  0  0  0  0  0  0  0  0  0  0
   47.1814   31.2824   45.0462 H   0  0  0  0  0  0  0  0  0  0  0  0
   48.0526   32.8533   45.0462 H   0  0  0  0  0  0  0  0  0  0  0  0
   47.0162   33.4683   41.7475 H   0  0  0  0  0  0  0  0  0  0  0  0
   49.0285   33.2540   44.0801 H   0  0  0  0  0  0  0  0  0  0  0  0
   50.7819   36.0805   42.4486 H   0  0  0  0  0  0  0  0  0  0  0  0
   50.9822   34.7527   43.6232 H   0  0  0  0  0  0  0  0  0  0  0  0
   49.8553   32.1145   43.0929 H   0  0  0  0  0  0  0  0  0  0  0  0
   49.0624   30.6529   43.7366 H   0  0  0  0  0  0  0  0  0  0  0  0
   51.1243   30.5031   41.9072 H   0  0  0  0  0  0  0  0  0  0  0  0
   49.8707   29.2880   41.9139 H   0  0  0  0  0  0  0  0  0  0  0  0
   49.4502   30.1168   39.7329 H   0  0  0  0  0  0  0  0  0  0  0  0
   50.2419   31.6567   40.0470 H   0  0  0  0  0  0  0  0  0  0  0  0
   48.1059   32.5227   40.3530 H   0  0  0  0  0  0  0  0  0  0  0  0
   47.3816   30.8954   40.3972 H   0  0  0  0  0  0  0  0  0  0  0  0
  1  2  1  0
  1  9  1  0
  2  3  2  0
  3  4  1  0
  5  4  2  0
  6  5  1  0
  7  6  2  0
  7  2  1  0
  8  1  1  0
 10 11  1  0
 10  1  1  0
 12 14  1  0
 12 11  1  0
 13 12  2  0
 15 13  1  0
 16 10  1  0
 16 17  1  0
 18 17  1  0
 19 20  1  0
 19 18  1  0
 20 16  1  0
  3 21  1  0
  4 22  1  0
  6 23  1  0
  8 24  1  0
  8 25  1  0
  8 26  1  0
  9 27  1  0
  9 28  1  0
  9 29  1  0
 10 30  1  6
 11 31  1  0
 14 32  1  0
 14 33  1  0
 17 34  1  0
 17 35  1  0
 18 36  1  0
 18 37  1  0
 19 38  1  0
 19 39  1  0
 20 40  1  0
 20 41  1  0
M  ISO  8  21  14  22  14  23  14  24   8  25   8  26   8  27   8  28   8
M  ISO  8  29   8  30   8  34  13  35  13  36  13  37  13  38  13  39  13
M  ISO  2  40  13  41  13
M  END
>  <minimizedAffinity>  (1) 
-4.93094206

>  <minimizedRMSD>  (1) 
3.33060813

$$$$
