
     RDKit          3D

 31 31  0  0  1  0  0  0  0  0999 V2000
   46.6370   33.4950   42.6310 C   0  0  0  0  0  0  0  0  0  0  0  0
   45.2990   34.0610   42.2310 C   0  0  0  0  0  0  0  0  0  0  0  0
   45.0510   35.3650   42.6050 C   0  0  0  0  0  0  0  0  0  0  0  0
   43.8040   35.9070   42.2170 C   0  0  0  0  0  0  0  0  0  0  0  0
   42.9310   35.1350   41.5110 N   0  0  0  0  0  0  0  0  0  0  0  0
   43.2150   33.8620   41.1660 C   0  0  0  0  0  0  0  0  0  0  0  0
   44.3900   33.3380   41.5260 N   0  0  0  0  0  0  0  0  0  0  0  0
   46.7500   32.0170   42.3560 C   0  0  0  0  0  0  0  0  0  0  0  0
   46.7660   33.7480   44.1110 C   0  0  0  0  0  0  0  0  0  0  0  0
   47.7360   34.1680   41.8470 C   0  0  1  0  0  0  0  0  0  0  0  0
   48.9750   33.4330   41.8890 N   0  0  0  0  0  0  0  0  0  0  0  0
   50.1070   34.0530   42.4290 C   0  0  0  0  0  0  0  0  0  0  0  0
   50.1600   35.1440   43.0850 N   0  0  0  0  0  0  0  0  0  0  0  0
   51.4010   33.4890   42.2670 N   0  0  0  0  0  0  0  0  0  0  0  0
   49.3120   35.7200   43.3010 H   0  0  0  0  0  0  0  0  0  0  0  0
   47.2950   33.7520   40.4430 N   0  0  0  0  0  0  0  0  0  0  0  0
   45.7851   35.9529   43.1755 H   0  0  0  0  0  0  0  0  0  0  0  0
   43.5413   36.9416   42.4825 H   0  0  0  0  0  0  0  0  0  0  0  0
   42.4890   33.2637   40.5960 H   0  0  0  0  0  0  0  0  0  0  0  0
   46.7919   31.4689   43.3088 H   0  0  0  0  0  0  0  0  0  0  0  0
   45.8747   31.6834   41.7793 H   0  0  0  0  0  0  0  0  0  0  0  0
   47.6658   31.8203   41.7793 H   0  0  0  0  0  0  0  0  0  0  0  0
   46.3347   32.9022   44.6665 H   0  0  0  0  0  0  0  0  0  0  0  0
   47.8289   33.8553   44.3734 H   0  0  0  0  0  0  0  0  0  0  0  0
   46.2286   34.6712   44.3734 H   0  0  0  0  0  0  0  0  0  0  0  0
   47.8699   35.2136   42.1613 H   0  0  0  0  0  0  0  0  0  0  0  0
   49.0261   32.4696   41.5283 H   0  0  0  0  0  0  0  0  0  0  0  0
   52.2225   33.9602   42.6719 H   0  0  0  0  0  0  0  0  0  0  0  0
   51.5175   32.6090   41.7447 H   0  0  0  0  0  0  0  0  0  0  0  0
   46.5475   33.0468   40.5128 H   0  0  0  0  0  0  0  0  0  0  0  0
   46.9432   34.5762   39.9353 H   0  0  0  0  0  0  0  0  0  0  0  0
  1  9  1  0
  2  3  2  0
  2  1  1  0
  4  3  1  0
  5  4  2  0
  6  5  1  0
  6  7  2  0
  7  2  1  0
  8  1  1  0
 10 11  1  0
 10  1  1  0
 11 12  1  0
 12 13  2  0
 13 15  1  0
 14 12  1  0
 16 10  1  0
  3 17  1  0
  4 18  1  0
  6 19  1  0
  8 20  1  0
  8 21  1  0
  8 22  1  0
  9 23  1  0
  9 24  1  0
  9 25  1  0
 10 26  1  6
 11 27  1  0
 14 28  1  0
 14 29  1  0
 16 30  1  0
 16 31  1  0
M  ISO  8  17  14  18  14  19  14  20   8  21   8  22   8  23   8  24   8
M  ISO  4  25   8  26   8  30   5  31   5
M  END
>  <minimizedAffinity>  (1) 
-4.43810368

>  <minimizedRMSD>  (1) 
0.309500784

$$$$
