
     RDKit          3D

 36 37  0  0  1  0  0  0  0  0999 V2000
   46.8500   33.1050   41.3900 C   0  0  0  0  0  0  0  0  0  0  0  0
   45.6680   34.0340   41.4530 C   0  0  0  0  0  0  0  0  0  0  0  0
   45.6510   34.9330   42.4960 C   0  0  0  0  0  0  0  0  0  0  0  0
   44.5670   35.8370   42.5410 C   0  0  0  0  0  0  0  0  0  0  0  0
   43.6160   35.7680   41.5660 N   0  0  0  0  0  0  0  0  0  0  0  0
   43.6650   34.8710   40.5580 C   0  0  0  0  0  0  0  0  0  0  0  0
   44.6840   34.0230   40.5170 N   0  0  0  0  0  0  0  0  0  0  0  0
   46.6950   32.0120   40.3730 C   0  0  0  0  0  0  0  0  0  0  0  0
   46.8940   32.4320   42.7640 C   0  0  0  0  0  0  0  0  0  0  0  0
   48.1090   33.8580   41.1170 C   0  0  1  0  0  0  0  0  0  0  0  0
   49.2610   33.1700   41.6420 N   0  0  0  0  0  0  0  0  0  0  0  0
   50.1900   33.8910   42.3980 C   0  0  0  0  0  0  0  0  0  0  0  0
   50.0520   35.0490   42.9000 N   0  0  0  0  0  0  0  0  0  0  0  0
   51.4820   33.3540   42.6700 N   0  0  0  0  0  0  0  0  0  0  0  0
   49.1620   35.5810   42.8290 H   0  0  0  0  0  0  0  0  0  0  0  0
   48.3260   33.5690   39.6400 N   0  0  0  0  0  0  0  0  0  0  0  0
   49.0160   32.5350   39.1330 C   0  0  0  0  0  0  0  0  0  0  0  0
   49.0060   32.5620   37.7670 C   0  0  0  0  0  0  0  0  0  0  0  0
   48.2850   33.6480   37.4350 N   0  0  0  0  0  0  0  0  0  0  0  0
   47.8860   34.2390   38.5690 C   0  0  0  0  0  0  0  0  0  0  0  0
   46.4442   34.9463   43.2580 H   0  0  0  0  0  0  0  0  0  0  0  0
   44.4912   36.5821   43.3466 H   0  0  0  0  0  0  0  0  0  0  0  0
   42.8787   34.8442   39.7893 H   0  0  0  0  0  0  0  0  0  0  0  0
   46.5585   31.0493   40.8873 H   0  0  0  0  0  0  0  0  0  0  0  0
   45.8172   32.2190   39.7432 H   0  0  0  0  0  0  0  0  0  0  0  0
   47.5957   31.9668   39.7432 H   0  0  0  0  0  0  0  0  0  0  0  0
   46.8438   33.1998   43.5501 H   0  0  0  0  0  0  0  0  0  0  0  0
   46.0387   31.7477   42.8647 H   0  0  0  0  0  0  0  0  0  0  0  0
   47.8311   31.8649   42.8647 H   0  0  0  0  0  0  0  0  0  0  0  0
   48.0223   34.8892   41.4900 H   0  0  0  0  0  0  0  0  0  0  0  0
   49.3976   32.1648   41.4635 H   0  0  0  0  0  0  0  0  0  0  0  0
   52.1575   33.8952   43.2283 H   0  0  0  0  0  0  0  0  0  0  0  0
   51.7401   32.4248   42.3083 H   0  0  0  0  0  0  0  0  0  0  0  0
   49.5223   31.7678   39.7372 H   0  0  0  0  0  0  0  0  0  0  0  0
   49.4862   31.8467   37.0831 H   0  0  0  0  0  0  0  0  0  0  0  0
   47.2772   35.1541   38.6136 H   0  0  0  0  0  0  0  0  0  0  0  0
  1  2  1  0
  1  9  1  0
  2  3  2  0
  3  4  1  0
  5  4  2  0
  6  5  1  0
  7  6  2  0
  7  2  1  0
  8  1  1  0
 10  1  1  0
 10 11  1  0
 11 12  1  0
 12 14  1  0
 12 13  2  0
 15 13  1  0
 16 10  1  0
 17 16  1  0
 18 17  2  0
 19 18  1  0
 19 20  2  0
 20 16  1  0
  3 21  1  0
  4 22  1  0
  6 23  1  0
  8 24  1  0
  8 25  1  0
  8 26  1  0
  9 27  1  0
  9 28  1  0
  9 29  1  0
 10 30  1  6
 11 31  1  0
 14 32  1  0
 14 33  1  0
 17 34  1  0
 18 35  1  0
 20 36  1  0
M  ISO  8  21  14  22  14  23  14  24   8  25   8  26   8  27   8  28   8
M  ISO  5  29   8  30   8  34  14  35  14  36  14
M  END
>  <minimizedAffinity>  (1) 
-4.8201375

>  <minimizedRMSD>  (1) 
1.54585922

$$$$
