
     RDKit          3D

 39 41  0  0  1  0  0  0  0  0999 V2000
   44.8310   34.8240   45.3160 C   0  0  0  0  0  0  0  0  0  0  0  0
   44.5060   35.9460   44.5470 C   0  0  0  0  0  0  0  0  0  0  0  0
   45.1960   36.1410   43.3510 C   0  0  0  0  0  0  0  0  0  0  0  0
   46.1430   35.2460   42.9810 N   0  0  0  0  0  0  0  0  0  0  0  0
   46.4400   34.1620   43.7460 C   0  0  0  0  0  0  0  0  0  0  0  0
   45.7920   33.9740   44.8780 N   0  0  0  0  0  0  0  0  0  0  0  0
   47.4410   33.2180   43.3630 N   0  0  0  0  0  0  0  0  0  0  0  0
   48.3370   33.6260   42.4470 C   0  0  0  0  0  0  0  0  0  0  0  0
   49.1880   32.5470   42.2580 C   0  0  0  0  0  0  0  0  0  0  0  0
   48.7940   31.5210   43.0550 N   0  0  0  0  0  0  0  0  0  0  0  0
   47.7260   31.9320   43.7290 C   0  0  0  0  0  0  0  0  0  0  0  0
   46.9270   31.1760   44.7030 C   0  0  2  0  0  0  0  0  0  0  0  0
   47.6130   31.3710   46.0700 C   0  0  0  0  0  0  0  0  0  0  0  0
   47.0370   29.6930   44.4030 C   0  0  0  0  0  0  0  0  0  0  0  0
   46.1740   28.9960   45.2670 N   0  0  0  0  0  0  0  0  0  0  0  0
   44.8070   29.3050   45.2210 C   0  0  0  0  0  0  0  0  0  0  0  0
   44.0790   28.3740   46.2040 C   0  0  0  0  0  0  0  0  0  0  0  0
   44.7060   28.4260   47.4480 O   0  0  0  0  0  0  0  0  0  0  0  0
   46.0020   27.9790   47.4180 C   0  0  0  0  0  0  0  0  0  0  0  0
   46.6480   27.9390   46.0530 C   0  0  0  0  0  0  0  0  0  0  0  0
   44.3120   34.6331   46.2669 H   0  0  0  0  0  0  0  0  0  0  0  0
   43.7299   36.6530   44.8755 H   0  0  0  0  0  0  0  0  0  0  0  0
   44.9739   37.0111   42.7157 H   0  0  0  0  0  0  0  0  0  0  0  0
   48.3849   34.6074   41.9524 H   0  0  0  0  0  0  0  0  0  0  0  0
   50.0466   32.5260   41.5708 H   0  0  0  0  0  0  0  0  0  0  0  0
   45.8787   31.5084   44.6774 H   0  0  0  0  0  0  0  0  0  0  0  0
   46.8917   31.1660   46.8748 H   0  0  0  0  0  0  0  0  0  0  0  0
   48.4639   30.6792   46.1552 H   0  0  0  0  0  0  0  0  0  0  0  0
   47.9728   32.4070   46.1552 H   0  0  0  0  0  0  0  0  0  0  0  0
   46.7483   29.5036   43.3586 H   0  0  0  0  0  0  0  0  0  0  0  0
   48.0729   29.3548   44.5529 H   0  0  0  0  0  0  0  0  0  0  0  0
   44.6508   30.3537   45.5140 H   0  0  0  0  0  0  0  0  0  0  0  0
   44.4169   29.1667   44.2018 H   0  0  0  0  0  0  0  0  0  0  0  0
   43.0326   28.6969   46.3075 H   0  0  0  0  0  0  0  0  0  0  0  0
   44.1098   27.3429   45.8219 H   0  0  0  0  0  0  0  0  0  0  0  0
   46.6033   28.6418   48.0576 H   0  0  0  0  0  0  0  0  0  0  0  0
   45.9683   26.9358   47.7653 H   0  0  0  0  0  0  0  0  0  0  0  0
   46.4059   26.9842   45.5634 H   0  0  0  0  0  0  0  0  0  0  0  0
   47.7379   28.0346   46.1668 H   0  0  0  0  0  0  0  0  0  0  0  0
  2  1  2  0
  3  2  1  0
  4  3  2  0
  4  5  1  0
  5  6  2  0
  6  1  1  0
  7 11  1  0
  7  5  1  0
  8  7  1  0
  9  8  2  0
  9 10  1  0
 10 11  2  0
 11 12  1  0
 12 13  1  0
 14 12  1  0
 14 15  1  0
 15 20  1  0
 16 15  1  0
 16 17  1  0
 17 18  1  0
 19 18  1  0
 20 19  1  0
  1 21  1  0
  2 22  1  0
  3 23  1  0
  8 24  1  0
  9 25  1  0
 12 26  1  1
 13 27  1  0
 13 28  1  0
 13 29  1  0
 14 30  1  0
 14 31  1  0
 16 32  1  0
 16 33  1  0
 17 34  1  0
 17 35  1  0
 19 36  1  0
 19 37  1  0
 20 38  1  0
 20 39  1  0
M  ISO  8  21  14  22  14  23  14  24  14  25  14  26   8  27   8  28   8
M  ISO  8  29   8  30   8  31   8  32  13  33  13  34  13  35  13  36  13
M  ISO  3  37  13  38  13  39  13
M  END
>  <minimizedAffinity>  (1) 
-3.95394111

>  <minimizedRMSD>  (1) 
3.64503431

$$$$
