
     RDKit          3D

 41 43  0  0  1  0  0  0  0  0999 V2000
   47.6250   33.9980   42.1840 C   0  0  1  0  0  0  0  0  0  0  0  0
   48.8690   33.2720   42.3910 N   0  0  0  0  0  0  0  0  0  0  0  0
   50.0420   33.9980   42.6110 C   0  0  0  0  0  0  0  0  0  0  0  0
   50.1460   35.2320   42.9350 N   0  0  0  0  0  0  0  0  0  0  0  0
   51.3090   33.3740   42.4790 N   0  0  0  0  0  0  0  0  0  0  0  0
   49.3120   35.8150   43.1510 H   0  0  0  0  0  0  0  0  0  0  0  0
   47.6100   33.9970   40.6400 C   0  0  0  0  0  0  0  0  0  0  0  0
   48.4320   34.8010   39.9130 N   0  0  0  0  0  0  0  0  0  0  0  0
   48.2340   34.6320   38.6420 O   0  0  0  0  0  0  0  0  0  0  0  0
   47.3040   33.7420   38.4780 C   0  0  0  0  0  0  0  0  0  0  0  0
   46.9150   33.3470   39.6980 N   0  0  0  0  0  0  0  0  0  0  0  0
   46.7470   33.2290   37.2370 C   0  0  0  0  0  0  0  0  0  0  0  0
   47.4630   32.4130   36.3590 C   0  0  0  0  0  0  0  0  0  0  0  0
   46.5490   32.1710   35.3280 C   0  0  0  0  0  0  0  0  0  0  0  0
   45.3750   32.8020   35.5840 N   0  0  0  0  0  0  0  0  0  0  0  0
   45.5170   33.4310   36.7370 N   0  0  0  0  0  0  0  0  0  0  0  0
   46.4630   33.1700   42.5340 C   0  0  0  0  0  0  0  0  0  0  0  0
   45.1750   33.8980   42.1970 C   0  0  0  0  0  0  0  0  0  0  0  0
   45.1480   35.2450   42.4520 C   0  0  0  0  0  0  0  0  0  0  0  0
   43.9450   35.9130   42.1180 C   0  0  0  0  0  0  0  0  0  0  0  0
   42.9200   35.2160   41.5840 N   0  0  0  0  0  0  0  0  0  0  0  0
   42.9870   33.8760   41.3470 C   0  0  0  0  0  0  0  0  0  0  0  0
   44.1000   33.2490   41.6530 N   0  0  0  0  0  0  0  0  0  0  0  0
   46.5690   31.8510   41.8800 C   0  0  0  0  0  0  0  0  0  0  0  0
   46.3880   32.9400   44.0470 C   0  0  0  0  0  0  0  0  0  0  0  0
   47.5766   34.9475   42.7372 H   0  0  0  0  0  0  0  0  0  0  0  0
   48.8844   32.2422   42.3756 H   0  0  0  0  0  0  0  0  0  0  0  0
   52.1695   33.9158   42.6428 H   0  0  0  0  0  0  0  0  0  0  0  0
   51.3685   32.3790   42.2193 H   0  0  0  0  0  0  0  0  0  0  0  0
   48.4964   32.0484   36.4548 H   0  0  0  0  0  0  0  0  0  0  0  0
   46.7525   31.5576   34.4379 H   0  0  0  0  0  0  0  0  0  0  0  0
   44.5326   32.7923   34.9914 H   0  0  0  0  0  0  0  0  0  0  0  0
   46.0078   35.7740   42.8890 H   0  0  0  0  0  0  0  0  0  0  0  0
   43.8463   36.9945   42.2929 H   0  0  0  0  0  0  0  0  0  0  0  0
   42.1338   33.3349   40.9120 H   0  0  0  0  0  0  0  0  0  0  0  0
   46.6321   31.0653   42.6473 H   0  0  0  0  0  0  0  0  0  0  0  0
   45.6817   31.6804   41.2527 H   0  0  0  0  0  0  0  0  0  0  0  0
   47.4722   31.8243   41.2527 H   0  0  0  0  0  0  0  0  0  0  0  0
   46.6875   33.8586   44.5728 H   0  0  0  0  0  0  0  0  0  0  0  0
   45.3574   32.6766   44.3272 H   0  0  0  0  0  0  0  0  0  0  0  0
   47.0652   32.1197   44.3272 H   0  0  0  0  0  0  0  0  0  0  0  0
  1  2  1  0
  1 17  1  0
  2  3  1  0
  3  4  2  0
  4  6  1  0
  5  3  1  0
  7  1  1  0
  8  7  2  0
  9  8  1  0
 10  9  1  0
 10 11  2  0
 11  7  1  0
 12 10  1  0
 13 12  1  0
 14 15  1  0
 14 13  2  0
 15 16  1  0
 16 12  2  0
 17 25  1  0
 18 19  2  0
 18 17  1  0
 20 19  1  0
 21 20  2  0
 22 21  1  0
 22 23  2  0
 23 18  1  0
 24 17  1  0
  1 26  1  1
  2 27  1  0
  5 28  1  0
  5 29  1  0
 13 30  1  0
 14 31  1  0
 15 32  1  0
 19 33  1  0
 20 34  1  0
 22 35  1  0
 24 36  1  0
 24 37  1  0
 24 38  1  0
 25 39  1  0
 25 40  1  0
 25 41  1  0
M  ISO  8  26   8  30  14  31  14  32   9  33  14  34  14  35  14  36   8
M  ISO  5  37   8  38   8  39   8  40   8  41   8
M  END
>  <minimizedAffinity>  (1) 
-5.90493345

>  <minimizedRMSD>  (1) 
0.782535017

$$$$
