
     RDKit          3D

 44 46  0  0  1  0  0  0  0  0999 V2000
   47.9020   34.0940   41.3470 C   0  0  1  0  0  0  0  0  0  0  0  0
   49.1350   33.3710   41.6240 N   0  0  0  0  0  0  0  0  0  0  0  0
   50.1570   34.0260   42.3210 C   0  0  0  0  0  0  0  0  0  0  0  0
   50.0670   35.0980   43.0030 N   0  0  0  0  0  0  0  0  0  0  0  0
   51.4740   33.5040   42.3190 N   0  0  0  0  0  0  0  0  0  0  0  0
   49.1510   35.5730   43.1740 H   0  0  0  0  0  0  0  0  0  0  0  0
   47.9520   34.0520   39.8020 C   0  0  0  0  0  0  0  0  0  0  0  0
   48.5580   35.0240   39.0760 N   0  0  0  0  0  0  0  0  0  0  0  0
   48.4670   34.7790   37.8080 O   0  0  0  0  0  0  0  0  0  0  0  0
   47.8150   33.6640   37.6400 C   0  0  0  0  0  0  0  0  0  0  0  0
   47.4940   33.2120   38.8660 N   0  0  0  0  0  0  0  0  0  0  0  0
   47.4670   32.9900   36.4170 C   0  0  0  0  0  0  0  0  0  0  0  0
   46.1160   32.6740   36.2640 C   0  0  0  0  0  0  0  0  0  0  0  0
   45.7240   32.0270   35.1100 C   0  0  0  0  0  0  0  0  0  0  0  0
   46.6500   31.7050   34.1420 C   0  0  0  0  0  0  0  0  0  0  0  0
   47.9700   32.0140   34.2940 C   0  0  0  0  0  0  0  0  0  0  0  0
   48.3780   32.6700   35.4580 C   0  0  0  0  0  0  0  0  0  0  0  0
   46.7230   33.2760   41.6690 C   0  0  0  0  0  0  0  0  0  0  0  0
   45.4530   34.0870   41.4820 C   0  0  0  0  0  0  0  0  0  0  0  0
   45.2740   35.1470   42.3330 C   0  0  0  0  0  0  0  0  0  0  0  0
   44.0930   35.9040   42.1350 C   0  0  0  0  0  0  0  0  0  0  0  0
   43.2320   35.5570   41.1540 N   0  0  0  0  0  0  0  0  0  0  0  0
   43.4500   34.4940   40.3310 C   0  0  0  0  0  0  0  0  0  0  0  0
   44.5410   33.7940   40.5130 N   0  0  0  0  0  0  0  0  0  0  0  0
   46.7390   32.0330   40.8750 C   0  0  0  0  0  0  0  0  0  0  0  0
   46.7100   32.8910   43.1490 C   0  0  0  0  0  0  0  0  0  0  0  0
   47.8328   35.0575   41.8733 H   0  0  0  0  0  0  0  0  0  0  0  0
   49.2530   32.3962   41.3130 H   0  0  0  0  0  0  0  0  0  0  0  0
   52.2217   33.9907   42.8338 H   0  0  0  0  0  0  0  0  0  0  0  0
   51.6839   32.6378   41.8027 H   0  0  0  0  0  0  0  0  0  0  0  0
   45.3835   32.9338   37.0425 H   0  0  0  0  0  0  0  0  0  0  0  0
   44.6655   31.7667   34.9620 H   0  0  0  0  0  0  0  0  0  0  0  0
   46.3185   31.1888   33.2289 H   0  0  0  0  0  0  0  0  0  0  0  0
   48.6999   31.7514   33.5141 H   0  0  0  0  0  0  0  0  0  0  0  0
   49.4378   32.9284   35.5996 H   0  0  0  0  0  0  0  0  0  0  0  0
   46.0017   35.3941   43.1200 H   0  0  0  0  0  0  0  0  0  0  0  0
   43.8782   36.7707   42.7775 H   0  0  0  0  0  0  0  0  0  0  0  0
   42.7327   34.2322   39.5392 H   0  0  0  0  0  0  0  0  0  0  0  0
   46.7502   31.1658   41.5516 H   0  0  0  0  0  0  0  0  0  0  0  0
   45.8413   31.9916   40.2406 H   0  0  0  0  0  0  0  0  0  0  0  0
   47.6375   32.0147   40.2406 H   0  0  0  0  0  0  0  0  0  0  0  0
   46.7408   33.8018   43.7651 H   0  0  0  0  0  0  0  0  0  0  0  0
   45.7923   32.3275   43.3732 H   0  0  0  0  0  0  0  0  0  0  0  0
   47.5876   32.2668   43.3732 H   0  0  0  0  0  0  0  0  0  0  0  0
  1  2  1  0
  1 18  1  0
  2  3  1  0
  3  4  2  0
  4  6  1  0
  5  3  1  0
  7  1  1  0
  8  7  2  0
  9  8  1  0
 10  9  1  0
 10 11  2  0
 11  7  1  0
 12 10  1  0
 13 12  2  0
 14 13  1  0
 15 16  1  0
 15 14  2  0
 16 17  2  0
 17 12  1  0
 18 26  1  0
 19 18  1  0
 19 20  2  0
 21 20  1  0
 22 21  2  0
 23 24  2  0
 23 22  1  0
 24 19  1  0
 25 18  1  0
  1 27  1  6
  2 28  1  0
  5 29  1  0
  5 30  1  0
 13 31  1  0
 14 32  1  0
 15 33  1  0
 16 34  1  0
 17 35  1  0
 20 36  1  0
 21 37  1  0
 23 38  1  0
 25 39  1  0
 25 40  1  0
 25 41  1  0
 26 42  1  0
 26 43  1  0
 26 44  1  0
M  ISO  8  27   8  31  14  32  14  33  14  34  14  35  14  36  14  37  14
M  ISO  7  38  14  39   8  40   8  41   8  42   8  43   8  44   8
M  END
>  <minimizedAffinity>  (1) 
-5.82652998

>  <minimizedRMSD>  (1) 
1.20911551

$$$$
