
     RDKit          3D

 40 42  0  0  1  0  0  0  0  0999 V2000
   47.7920   34.0720   41.5530 C   0  0  2  0  0  0  0  0  0  0  0  0
   47.7480   34.0350   40.0080 C   0  0  0  0  0  0  0  0  0  0  0  0
   48.5400   34.8630   39.2460 N   0  0  0  0  0  0  0  0  0  0  0  0
   48.3350   34.6600   37.9810 O   0  0  0  0  0  0  0  0  0  0  0  0
   47.4290   33.7190   37.8410 C   0  0  0  0  0  0  0  0  0  0  0  0
   47.0740   33.3400   39.0810 N   0  0  0  0  0  0  0  0  0  0  0  0
   46.7900   33.0630   36.7530 N   0  0  0  0  0  0  0  0  0  0  0  0
   47.5810   32.4870   35.8300 C   0  0  0  0  0  0  0  0  0  0  0  0
   46.8010   31.9240   34.8900 N   0  0  0  0  0  0  0  0  0  0  0  0
   45.5060   32.1510   35.2310 C   0  0  0  0  0  0  0  0  0  0  0  0
   45.5350   32.8520   36.3780 N   0  0  0  0  0  0  0  0  0  0  0  0
   49.0500   33.3700   41.7390 N   0  0  0  0  0  0  0  0  0  0  0  0
   50.1010   34.0420   42.3820 C   0  0  0  0  0  0  0  0  0  0  0  0
   50.0350   35.0990   43.0750 N   0  0  0  0  0  0  0  0  0  0  0  0
   51.4330   33.5330   42.2860 N   0  0  0  0  0  0  0  0  0  0  0  0
   49.1400   35.5790   43.2680 H   0  0  0  0  0  0  0  0  0  0  0  0
   46.6420   33.2410   41.9260 C   0  0  0  0  0  0  0  0  0  0  0  0
   45.3460   34.0090   41.7430 C   0  0  0  0  0  0  0  0  0  0  0  0
   45.2670   35.2250   42.3670 C   0  0  0  0  0  0  0  0  0  0  0  0
   44.0620   35.9430   42.1810 C   0  0  0  0  0  0  0  0  0  0  0  0
   43.0820   35.4100   41.4220 N   0  0  0  0  0  0  0  0  0  0  0  0
   43.2010   34.1960   40.8190 C   0  0  0  0  0  0  0  0  0  0  0  0
   44.3160   33.5340   40.9930 N   0  0  0  0  0  0  0  0  0  0  0  0
   46.6710   31.9720   41.1690 C   0  0  0  0  0  0  0  0  0  0  0  0
   46.6790   32.9030   43.4190 C   0  0  0  0  0  0  0  0  0  0  0  0
   47.7443   35.0248   42.1006 H   0  0  0  0  0  0  0  0  0  0  0  0
   48.6809   32.4779   35.8420 H   0  0  0  0  0  0  0  0  0  0  0  0
   44.6118   31.8261   34.6789 H   0  0  0  0  0  0  0  0  0  0  0  0
   49.1679   32.4022   41.4069 H   0  0  0  0  0  0  0  0  0  0  0  0
   52.2069   34.0235   42.7566 H   0  0  0  0  0  0  0  0  0  0  0  0
   51.6191   32.6757   41.7463 H   0  0  0  0  0  0  0  0  0  0  0  0
   46.0921   35.6208   42.9773 H   0  0  0  0  0  0  0  0  0  0  0  0
   43.9253   36.9279   42.6514 H   0  0  0  0  0  0  0  0  0  0  0  0
   42.3862   33.7845   40.2052 H   0  0  0  0  0  0  0  0  0  0  0  0
   46.6903   31.1261   41.8719 H   0  0  0  0  0  0  0  0  0  0  0  0
   45.7742   31.9022   40.5358 H   0  0  0  0  0  0  0  0  0  0  0  0
   47.5700   31.9432   40.5358 H   0  0  0  0  0  0  0  0  0  0  0  0
   46.5778   33.8273   44.0068 H   0  0  0  0  0  0  0  0  0  0  0  0
   45.8501   32.2217   43.6614 H   0  0  0  0  0  0  0  0  0  0  0  0
   47.6357   32.4172   43.6614 H   0  0  0  0  0  0  0  0  0  0  0  0
  1 12  1  0
  1 17  1  0
  2  1  1  0
  3  2  2  0
  4  3  1  0
  5  4  1  0
  5  6  2  0
  6  2  1  0
  7  5  1  0
  8  7  1  0
  9 10  1  0
  9  8  2  0
 10 11  2  0
 11  7  1  0
 12 13  1  0
 13 14  2  0
 14 16  1  0
 15 13  1  0
 17 25  1  0
 18 17  1  0
 18 19  2  0
 20 19  1  0
 21 20  2  0
 22 23  2  0
 22 21  1  0
 23 18  1  0
 24 17  1  0
  1 26  1  6
  8 27  1  0
 10 28  1  0
 12 29  1  0
 15 30  1  0
 15 31  1  0
 19 32  1  0
 20 33  1  0
 22 34  1  0
 24 35  1  0
 24 36  1  0
 24 37  1  0
 25 38  1  0
 25 39  1  0
 25 40  1  0
M  ISO  8  26   8  27  14  28  14  32  14  33  14  34  14  35   8  36   8
M  ISO  4  37   8  38   8  39   8  40   8
M  END
>  <minimizedAffinity>  (1) 
-5.82967854

>  <minimizedRMSD>  (1) 
0.824753582

$$$$
