
     RDKit          3D

 42 44  0  0  1  0  0  0  0  0999 V2000
   47.8630   34.0820   41.4510 C   0  0  1  0  0  0  0  0  0  0  0  0
   49.0820   33.3530   41.7360 N   0  0  0  0  0  0  0  0  0  0  0  0
   50.1460   34.0140   42.3630 C   0  0  0  0  0  0  0  0  0  0  0  0
   50.0930   35.1280   42.9860 N   0  0  0  0  0  0  0  0  0  0  0  0
   51.4490   33.4570   42.3510 N   0  0  0  0  0  0  0  0  0  0  0  0
   49.2050   35.6470   43.1280 H   0  0  0  0  0  0  0  0  0  0  0  0
   47.9600   34.0940   39.9030 C   0  0  0  0  0  0  0  0  0  0  0  0
   48.5980   35.0940   39.2370 N   0  0  0  0  0  0  0  0  0  0  0  0
   48.5460   34.8970   37.9560 O   0  0  0  0  0  0  0  0  0  0  0  0
   47.8840   33.7820   37.7200 C   0  0  0  0  0  0  0  0  0  0  0  0
   47.5250   33.2910   38.9220 N   0  0  0  0  0  0  0  0  0  0  0  0
   47.5240   33.0850   36.5080 C   0  0  0  0  0  0  0  0  0  0  0  0
   46.2760   32.5250   36.2290 C   0  0  0  0  0  0  0  0  0  0  0  0
   46.1650   31.9070   35.0040 C   0  0  0  0  0  0  0  0  0  0  0  0
   47.1660   31.8280   34.1170 N   0  0  0  0  0  0  0  0  0  0  0  0
   48.3500   32.3800   34.4240 C   0  0  0  0  0  0  0  0  0  0  0  0
   48.5430   33.0040   35.6030 N   0  0  0  0  0  0  0  0  0  0  0  0
   46.6730   33.2580   41.7030 C   0  0  0  0  0  0  0  0  0  0  0  0
   45.4110   34.0770   41.4990 C   0  0  0  0  0  0  0  0  0  0  0  0
   45.2240   35.1390   42.3500 C   0  0  0  0  0  0  0  0  0  0  0  0
   44.0530   35.9020   42.1410 C   0  0  0  0  0  0  0  0  0  0  0  0
   43.2030   35.5630   41.1500 N   0  0  0  0  0  0  0  0  0  0  0  0
   43.4250   34.5020   40.3290 C   0  0  0  0  0  0  0  0  0  0  0  0
   44.5100   33.7900   40.5160 N   0  0  0  0  0  0  0  0  0  0  0  0
   46.7110   32.0410   40.8710 C   0  0  0  0  0  0  0  0  0  0  0  0
   46.6100   32.8390   43.1740 C   0  0  0  0  0  0  0  0  0  0  0  0
   47.7791   35.0241   42.0126 H   0  0  0  0  0  0  0  0  0  0  0  0
   49.1655   32.3588   41.4802 H   0  0  0  0  0  0  0  0  0  0  0  0
   52.2246   33.9510   42.8150 H   0  0  0  0  0  0  0  0  0  0  0  0
   51.6205   32.5581   41.8783 H   0  0  0  0  0  0  0  0  0  0  0  0
   45.4381   32.5743   36.9399 H   0  0  0  0  0  0  0  0  0  0  0  0
   45.1994   31.4521   34.7382 H   0  0  0  0  0  0  0  0  0  0  0  0
   49.1771   32.3222   33.7011 H   0  0  0  0  0  0  0  0  0  0  0  0
   45.9429   35.3811   43.1466 H   0  0  0  0  0  0  0  0  0  0  0  0
   43.8357   36.7681   42.7833 H   0  0  0  0  0  0  0  0  0  0  0  0
   42.7135   34.2479   39.5295 H   0  0  0  0  0  0  0  0  0  0  0  0
   46.7387   31.1536   41.5204 H   0  0  0  0  0  0  0  0  0  0  0  0
   45.8136   32.0028   40.2360 H   0  0  0  0  0  0  0  0  0  0  0  0
   47.6090   32.0588   40.2360 H   0  0  0  0  0  0  0  0  0  0  0  0
   46.7431   33.7241   43.8134 H   0  0  0  0  0  0  0  0  0  0  0  0
   45.6327   32.3794   43.3828 H   0  0  0  0  0  0  0  0  0  0  0  0
   47.4090   32.1123   43.3828 H   0  0  0  0  0  0  0  0  0  0  0  0
  1 18  1  0
  1  2  1  0
  2  3  1  0
  3  4  2  0
  4  6  1  0
  5  3  1  0
  7  1  1  0
  8  7  2  0
  9  8  1  0
 10  9  1  0
 10 11  2  0
 11  7  1  0
 12 10  1  0
 13 12  2  0
 14 13  1  0
 15 16  1  0
 15 14  2  0
 16 17  2  0
 17 12  1  0
 18 26  1  0
 19 18  1  0
 19 20  2  0
 21 20  1  0
 22 21  2  0
 23 24  2  0
 23 22  1  0
 24 19  1  0
 25 18  1  0
  1 27  1  1
  2 28  1  0
  5 29  1  0
  5 30  1  0
 13 31  1  0
 14 32  1  0
 16 33  1  0
 20 34  1  0
 21 35  1  0
 23 36  1  0
 25 37  1  0
 25 38  1  0
 25 39  1  0
 26 40  1  0
 26 41  1  0
 26 42  1  0
M  ISO  8  27   8  31  14  32  14  33  14  34  14  35  14  36  14  37   8
M  ISO  5  38   8  39   8  40   8  41   8  42   8
M  END
>  <minimizedAffinity>  (1) 
-5.80766582

>  <minimizedRMSD>  (1) 
1.29834986

$$$$
