
     RDKit          3D

 39 41  0  0  1  0  0  0  0  0999 V2000
   47.7980   34.0260   41.7290 C   0  0  1  0  0  0  0  0  0  0  0  0
   49.0540   33.3220   41.9050 N   0  0  0  0  0  0  0  0  0  0  0  0
   50.1530   34.0110   42.4280 C   0  0  0  0  0  0  0  0  0  0  0  0
   50.1400   35.1270   43.0390 N   0  0  0  0  0  0  0  0  0  0  0  0
   51.4630   33.4800   42.3050 N   0  0  0  0  0  0  0  0  0  0  0  0
   49.2580   35.6350   43.2610 H   0  0  0  0  0  0  0  0  0  0  0  0
   47.7350   33.9960   40.1800 C   0  0  0  0  0  0  0  0  0  0  0  0
   48.4710   34.8490   39.4170 N   0  0  0  0  0  0  0  0  0  0  0  0
   48.2500   34.6460   38.1580 O   0  0  0  0  0  0  0  0  0  0  0  0
   47.3780   33.6720   38.0330 C   0  0  0  0  0  0  0  0  0  0  0  0
   47.0590   33.2710   39.2760 N   0  0  0  0  0  0  0  0  0  0  0  0
   46.8120   33.0790   36.8600 C   0  0  0  0  0  0  0  0  0  0  0  0
   45.5160   33.0650   36.5570 N   0  0  0  0  0  0  0  0  0  0  0  0
   45.3850   32.4450   35.4320 O   0  0  0  0  0  0  0  0  0  0  0  0
   46.5550   32.0570   34.9970 C   0  0  0  0  0  0  0  0  0  0  0  0
   47.4850   32.4520   35.8990 N   0  0  0  0  0  0  0  0  0  0  0  0
   46.6530   33.2000   42.1260 C   0  0  0  0  0  0  0  0  0  0  0  0
   45.3600   33.9800   41.9840 C   0  0  0  0  0  0  0  0  0  0  0  0
   45.3420   35.2380   42.5220 C   0  0  0  0  0  0  0  0  0  0  0  0
   44.1320   35.9580   42.3700 C   0  0  0  0  0  0  0  0  0  0  0  0
   43.0940   35.3910   41.7240 N   0  0  0  0  0  0  0  0  0  0  0  0
   43.1540   34.1360   41.2030 C   0  0  0  0  0  0  0  0  0  0  0  0
   44.2710   33.4670   41.3420 N   0  0  0  0  0  0  0  0  0  0  0  0
   46.6530   31.9370   41.3640 C   0  0  0  0  0  0  0  0  0  0  0  0
   46.7230   32.8530   43.6170 C   0  0  0  0  0  0  0  0  0  0  0  0
   47.7582   34.9817   42.2722 H   0  0  0  0  0  0  0  0  0  0  0  0
   49.1354   32.3279   41.6482 H   0  0  0  0  0  0  0  0  0  0  0  0
   52.2660   33.9949   42.6935 H   0  0  0  0  0  0  0  0  0  0  0  0
   51.6110   32.5796   41.8272 H   0  0  0  0  0  0  0  0  0  0  0  0
   46.7497   31.5074   34.0642 H   0  0  0  0  0  0  0  0  0  0  0  0
   46.2136   35.6638   43.0406 H   0  0  0  0  0  0  0  0  0  0  0  0
   44.0398   36.9756   42.7774 H   0  0  0  0  0  0  0  0  0  0  0  0
   42.2910   33.6967   40.6811 H   0  0  0  0  0  0  0  0  0  0  0  0
   47.6901   31.6231   41.1746 H   0  0  0  0  0  0  0  0  0  0  0  0
   46.1345   31.1591   41.9436 H   0  0  0  0  0  0  0  0  0  0  0  0
   46.1345   32.0870   40.4056 H   0  0  0  0  0  0  0  0  0  0  0  0
   46.5402   33.7591   44.2133 H   0  0  0  0  0  0  0  0  0  0  0  0
   45.9591   32.0978   43.8540 H   0  0  0  0  0  0  0  0  0  0  0  0
   47.7199   32.4530   43.8540 H   0  0  0  0  0  0  0  0  0  0  0  0
  1  2  1  0
  1 17  1  0
  2  3  1  0
  3  4  2  0
  4  6  1  0
  5  3  1  0
  7  1  1  0
  8  7  2  0
  9  8  1  0
 10  9  1  0
 10 11  2  0
 11  7  1  0
 12 10  1  0
 13 12  2  0
 14 13  1  0
 15 14  1  0
 15 16  2  0
 16 12  1  0
 17 25  1  0
 18 17  1  0
 18 19  2  0
 20 19  1  0
 21 20  2  0
 22 23  2  0
 22 21  1  0
 23 18  1  0
 24 17  1  0
  1 26  1  1
  2 27  1  0
  5 28  1  0
  5 29  1  0
 15 30  1  0
 19 31  1  0
 20 32  1  0
 22 33  1  0
 24 34  1  0
 24 35  1  0
 24 36  1  0
 25 37  1  0
 25 38  1  0
 25 39  1  0
M  ISO  8  26   8  30  14  31  14  32  14  33  14  34   8  35   8  36   8
M  ISO  3  37   8  38   8  39   8
M  END
>  <minimizedAffinity>  (1) 
-5.58688307

>  <minimizedRMSD>  (1) 
0.710095823

$$$$
