
     RDKit          3D

 40 42  0  0  1  0  0  0  0  0999 V2000
   47.7910   34.0320   41.6710 C   0  0  1  0  0  0  0  0  0  0  0  0
   49.0340   33.3130   41.9090 N   0  0  0  0  0  0  0  0  0  0  0  0
   50.1320   34.0090   42.4190 C   0  0  0  0  0  0  0  0  0  0  0  0
   50.1260   35.1530   42.9890 N   0  0  0  0  0  0  0  0  0  0  0  0
   51.4340   33.4590   42.3380 N   0  0  0  0  0  0  0  0  0  0  0  0
   49.2460   35.6760   43.1780 H   0  0  0  0  0  0  0  0  0  0  0  0
   47.7850   34.0040   40.1320 C   0  0  0  0  0  0  0  0  0  0  0  0
   48.4650   34.9340   39.4020 N   0  0  0  0  0  0  0  0  0  0  0  0
   48.3010   34.6980   38.1280 O   0  0  0  0  0  0  0  0  0  0  0  0
   47.5460   33.6570   37.9750 C   0  0  0  0  0  0  0  0  0  0  0  0
   47.2240   33.2250   39.2060 N   0  0  0  0  0  0  0  0  0  0  0  0
   47.0890   33.0170   36.7500 C   0  0  0  0  0  0  0  0  0  0  0  0
   45.6820   32.9110   36.5970 C   0  0  0  0  0  0  0  0  0  0  0  0
   45.4730   32.0610   34.9570 S   0  0  0  0  0  0  0  0  0  0  0  0
   47.3640   32.0030   34.7740 C   0  0  0  0  0  0  0  0  0  0  0  0
   47.7220   32.4970   35.7180 N   0  0  0  0  0  0  0  0  0  0  0  0
   46.6250   33.2100   42.0300 C   0  0  0  0  0  0  0  0  0  0  0  0
   45.3410   33.9860   41.8000 C   0  0  0  0  0  0  0  0  0  0  0  0
   45.2510   35.2100   42.4070 C   0  0  0  0  0  0  0  0  0  0  0  0
   44.0510   35.9240   42.1640 C   0  0  0  0  0  0  0  0  0  0  0  0
   43.0920   35.3830   41.3770 N   0  0  0  0  0  0  0  0  0  0  0  0
   43.2290   34.1600   40.7940 C   0  0  0  0  0  0  0  0  0  0  0  0
   44.3340   33.4940   41.0140 N   0  0  0  0  0  0  0  0  0  0  0  0
   46.6730   31.9250   41.3000 C   0  0  0  0  0  0  0  0  0  0  0  0
   46.6100   32.8890   43.5280 C   0  0  0  0  0  0  0  0  0  0  0  0
   47.7394   34.9935   42.2028 H   0  0  0  0  0  0  0  0  0  0  0  0
   49.1027   32.3059   41.7043 H   0  0  0  0  0  0  0  0  0  0  0  0
   52.2376   33.9800   42.7170 H   0  0  0  0  0  0  0  0  0  0  0  0
   51.5776   32.5379   41.9000 H   0  0  0  0  0  0  0  0  0  0  0  0
   44.8974   33.2525   37.2883 H   0  0  0  0  0  0  0  0  0  0  0  0
   47.9607   31.5884   33.9481 H   0  0  0  0  0  0  0  0  0  0  0  0
   46.0555   35.6120   43.0404 H   0  0  0  0  0  0  0  0  0  0  0  0
   43.8994   36.9161   42.6143 H   0  0  0  0  0  0  0  0  0  0  0  0
   42.4345   33.7441   40.1570 H   0  0  0  0  0  0  0  0  0  0  0  0
   46.7040   31.0947   42.0209 H   0  0  0  0  0  0  0  0  0  0  0  0
   45.7778   31.8287   40.6680 H   0  0  0  0  0  0  0  0  0  0  0  0
   47.5729   31.8957   40.6680 H   0  0  0  0  0  0  0  0  0  0  0  0
   46.6537   33.8251   44.1040 H   0  0  0  0  0  0  0  0  0  0  0  0
   45.6856   32.3476   43.7777 H   0  0  0  0  0  0  0  0  0  0  0  0
   47.4799   32.2638   43.7777 H   0  0  0  0  0  0  0  0  0  0  0  0
  1  2  1  0
  1 17  1  0
  2  3  1  0
  3  4  2  0
  4  6  1  0
  5  3  1  0
  7  1  1  0
  8  7  2  0
  9  8  1  0
 10  9  1  0
 10 11  2  0
 11  7  1  0
 12 10  1  0
 13 12  2  0
 14 13  1  0
 15 14  1  0
 15 16  2  0
 16 12  1  0
 17 25  1  0
 18 17  1  0
 18 19  2  0
 20 19  1  0
 21 20  2  0
 22 23  2  0
 22 21  1  0
 23 18  1  0
 24 17  1  0
  1 26  1  6
  2 27  1  0
  5 28  1  0
  5 29  1  0
 13 30  1  0
 15 31  1  0
 19 32  1  0
 20 33  1  0
 22 34  1  0
 24 35  1  0
 24 36  1  0
 24 37  1  0
 25 38  1  0
 25 39  1  0
 25 40  1  0
M  ISO  8  26   8  30  14  31  14  32  14  33  14  34  14  35   8  36   8
M  ISO  4  37   8  38   8  39   8  40   8
M  END
>  <minimizedAffinity>  (1) 
-5.59487581

>  <minimizedRMSD>  (1) 
0.833218575

$$$$
