
     RDKit          3D

 35 36  0  0  1  0  0  0  0  0999 V2000
   46.6830   33.3090   42.5390 C   0  0  0  0  0  0  0  0  0  0  0  0
   45.3660   34.0170   42.2740 C   0  0  0  0  0  0  0  0  0  0  0  0
   45.3240   35.3600   42.5600 C   0  0  0  0  0  0  0  0  0  0  0  0
   44.0960   36.0060   42.2930 C   0  0  0  0  0  0  0  0  0  0  0  0
   43.0620   35.3000   41.7900 N   0  0  0  0  0  0  0  0  0  0  0  0
   43.1480   33.9680   41.5200 C   0  0  0  0  0  0  0  0  0  0  0  0
   44.2870   33.3610   41.7660 N   0  0  0  0  0  0  0  0  0  0  0  0
   46.6860   31.9040   42.0890 C   0  0  0  0  0  0  0  0  0  0  0  0
   46.8190   33.3180   44.0630 C   0  0  0  0  0  0  0  0  0  0  0  0
   47.7930   34.0380   41.9130 C   0  0  1  0  0  0  0  0  0  0  0  0
   49.0500   33.3230   42.0510 N   0  0  0  0  0  0  0  0  0  0  0  0
   50.1810   34.0290   42.4700 C   0  0  0  0  0  0  0  0  0  0  0  0
   50.2220   35.1740   43.0190 N   0  0  0  0  0  0  0  0  0  0  0  0
   51.4760   33.4760   42.3000 N   0  0  0  0  0  0  0  0  0  0  0  0
   49.3540   35.7050   43.2700 H   0  0  0  0  0  0  0  0  0  0  0  0
   47.5630   33.7970   40.3980 C   0  0  0  0  0  0  0  0  0  0  0  0
   48.1380   34.5810   39.4490 N   0  0  0  0  0  0  0  0  0  0  0  0
   47.7980   34.1970   38.2610 O   0  0  0  0  0  0  0  0  0  0  0  0
   46.9960   33.1600   38.3640 C   0  0  0  0  0  0  0  0  0  0  0  0
   46.8530   32.9150   39.6780 N   0  0  0  0  0  0  0  0  0  0  0  0
   46.1930   32.1810   37.1370 S   0  0  0  0  0  0  0  0  0  0  0  0
   46.1910   35.8981   42.9707 H   0  0  0  0  0  0  0  0  0  0  0  0
   43.9833   37.0815   42.4947 H   0  0  0  0  0  0  0  0  0  0  0  0
   42.2897   33.4168   41.1083 H   0  0  0  0  0  0  0  0  0  0  0  0
   46.6874   31.2385   42.9648 H   0  0  0  0  0  0  0  0  0  0  0  0
   45.7883   31.7111   41.4833 H   0  0  0  0  0  0  0  0  0  0  0  0
   47.5846   31.7149   41.4833 H   0  0  0  0  0  0  0  0  0  0  0  0
   45.8209   33.2519   44.5206 H   0  0  0  0  0  0  0  0  0  0  0  0
   47.4263   32.4581   44.3820 H   0  0  0  0  0  0  0  0  0  0  0  0
   47.3076   34.2504   44.3820 H   0  0  0  0  0  0  0  0  0  0  0  0
   47.8279   35.0595   42.3195 H   0  0  0  0  0  0  0  0  0  0  0  0
   49.1066   32.3156   41.8441 H   0  0  0  0  0  0  0  0  0  0  0  0
   52.3054   34.0017   42.6110 H   0  0  0  0  0  0  0  0  0  0  0  0
   51.5871   32.5488   41.8655 H   0  0  0  0  0  0  0  0  0  0  0  0
   45.4150   31.2325   37.7468 H   0  0  0  0  0  0  0  0  0  0  0  0
  1  9  1  0
  2  1  1  0
  2  3  2  0
  4  3  1  0
  5  4  2  0
  6  7  2  0
  6  5  1  0
  7  2  1  0
  8  1  1  0
 10 11  1  0
 10  1  1  0
 11 12  1  0
 12 13  2  0
 13 15  1  0
 14 12  1  0
 16 10  1  0
 17 16  2  0
 18 19  1  0
 18 17  1  0
 19 20  2  0
 20 16  1  0
 21 19  1  0
  3 22  1  0
  4 23  1  0
  6 24  1  0
  8 25  1  0
  8 26  1  0
  8 27  1  0
  9 28  1  0
  9 29  1  0
  9 30  1  0
 10 31  1  6
 11 32  1  0
 14 33  1  0
 14 34  1  0
 21 35  1  0
M  ISO  8  22  14  23  14  24  14  25   8  26   8  27   8  28   8  29   8
M  ISO  3  30   8  31   8  35  11
M  END
>  <minimizedAffinity>  (1) 
-5.11579943

>  <minimizedRMSD>  (1) 
0.0721450225

$$$$
