
     RDKit          3D

 35 36  0  0  1  0  0  0  0  0999 V2000
   46.6920   33.2870   42.5610 C   0  0  0  0  0  0  0  0  0  0  0  0
   45.3720   33.9690   42.2560 C   0  0  0  0  0  0  0  0  0  0  0  0
   45.3080   35.3140   42.4890 C   0  0  0  0  0  0  0  0  0  0  0  0
   44.0730   35.9360   42.1890 C   0  0  0  0  0  0  0  0  0  0  0  0
   43.0530   35.1960   41.7050 N   0  0  0  0  0  0  0  0  0  0  0  0
   43.1550   33.8610   41.4890 C   0  0  0  0  0  0  0  0  0  0  0  0
   44.2970   33.2800   41.7640 N   0  0  0  0  0  0  0  0  0  0  0  0
   46.7180   31.8680   42.1460 C   0  0  0  0  0  0  0  0  0  0  0  0
   46.8020   33.3220   44.0890 C   0  0  0  0  0  0  0  0  0  0  0  0
   47.8010   34.0170   41.9370 C   0  0  1  0  0  0  0  0  0  0  0  0
   49.0590   33.3100   42.0920 N   0  0  0  0  0  0  0  0  0  0  0  0
   50.1980   34.0300   42.4840 C   0  0  0  0  0  0  0  0  0  0  0  0
   50.2330   35.1870   43.0000 N   0  0  0  0  0  0  0  0  0  0  0  0
   51.4950   33.4760   42.3180 N   0  0  0  0  0  0  0  0  0  0  0  0
   49.3670   35.7240   43.2310 H   0  0  0  0  0  0  0  0  0  0  0  0
   47.5820   33.7570   40.4230 C   0  0  0  0  0  0  0  0  0  0  0  0
   48.1010   34.5910   39.4780 N   0  0  0  0  0  0  0  0  0  0  0  0
   47.7830   34.1750   38.2860 O   0  0  0  0  0  0  0  0  0  0  0  0
   47.0650   33.0880   38.3940 C   0  0  0  0  0  0  0  0  0  0  0  0
   46.9410   32.8290   39.7010 N   0  0  0  0  0  0  0  0  0  0  0  0
   46.4710   32.2390   37.4690 O   0  0  0  0  0  0  0  0  0  0  0  0
   46.1645   35.8788   42.8857 H   0  0  0  0  0  0  0  0  0  0  0  0
   43.9448   37.0167   42.3493 H   0  0  0  0  0  0  0  0  0  0  0  0
   42.3055   33.2838   41.0952 H   0  0  0  0  0  0  0  0  0  0  0  0
   46.7298   31.2251   43.0385 H   0  0  0  0  0  0  0  0  0  0  0  0
   45.8238   31.6452   41.5454 H   0  0  0  0  0  0  0  0  0  0  0  0
   47.6198   31.6781   41.5454 H   0  0  0  0  0  0  0  0  0  0  0  0
   45.8429   33.0168   44.5327 H   0  0  0  0  0  0  0  0  0  0  0  0
   47.5934   32.6313   44.4156 H   0  0  0  0  0  0  0  0  0  0  0  0
   47.0487   34.3430   44.4156 H   0  0  0  0  0  0  0  0  0  0  0  0
   47.8280   35.0433   42.3320 H   0  0  0  0  0  0  0  0  0  0  0  0
   49.1149   32.2965   41.9172 H   0  0  0  0  0  0  0  0  0  0  0  0
   52.3251   34.0121   42.6087 H   0  0  0  0  0  0  0  0  0  0  0  0
   51.6057   32.5381   41.9069 H   0  0  0  0  0  0  0  0  0  0  0  0
   45.9580   31.4509   37.7785 H   0  0  0  0  0  0  0  0  0  0  0  0
  1  9  1  0
  2  3  2  0
  2  1  1  0
  4  3  1  0
  5  4  2  0
  6  5  1  0
  6  7  2  0
  7  2  1  0
  8  1  1  0
 10 11  1  0
 10  1  1  0
 11 12  1  0
 12 13  2  0
 13 15  1  0
 14 12  1  0
 16 10  1  0
 17 16  2  0
 18 19  1  0
 18 17  1  0
 19 20  2  0
 20 16  1  0
 21 19  1  0
  3 22  1  0
  4 23  1  0
  6 24  1  0
  8 25  1  0
  8 26  1  0
  8 27  1  0
  9 28  1  0
  9 29  1  0
  9 30  1  0
 10 31  1  6
 11 32  1  0
 14 33  1  0
 14 34  1  0
 21 35  1  0
M  ISO  8  22  14  23  14  24  14  25   8  26   8  27   8  28   8  29   8
M  ISO  3  30   8  31   8  35   3
M  END
>  <minimizedAffinity>  (1) 
-5.0839653

>  <minimizedRMSD>  (1) 
0.0646886006

$$$$
