
     RDKit          3D

 24 25  0  0  0  0  0  0  0  0999 V2000
   47.8810   34.8480   40.9840 C   0  0  0  0  0  0  0  0  0  0  0  0
   46.6400   34.5230   41.5040 C   0  0  0  0  0  0  0  0  0  0  0  0
   45.8390   33.7490   40.6450 C   0  0  0  0  0  0  0  0  0  0  0  0
   46.2700   33.3700   39.4260 N   0  0  0  0  0  0  0  0  0  0  0  0
   47.4890   33.7100   38.9660 C   0  0  0  0  0  0  0  0  0  0  0  0
   48.2420   34.4370   39.7690 N   0  0  0  0  0  0  0  0  0  0  0  0
   45.9740   34.8310   42.7370 C   0  0  0  0  0  0  0  0  0  0  0  0
   45.2560   35.9350   43.0920 C   0  0  0  0  0  0  0  0  0  0  0  0
   44.6770   36.1720   44.3080 C   0  0  0  0  0  0  0  0  0  0  0  0
   44.8090   35.2500   45.2730 N   0  0  0  0  0  0  0  0  0  0  0  0
   45.5080   34.1440   44.9750 C   0  0  0  0  0  0  0  0  0  0  0  0
   46.0420   33.9800   43.7700 N   0  0  0  0  0  0  0  0  0  0  0  0
   48.7440   35.7040   41.8240 C   0  0  0  0  0  0  0  0  0  0  0  0
   49.8050   34.9110   42.5460 C   0  0  0  0  0  0  0  0  0  0  0  0
   44.8352   33.4454   40.9769 H   0  0  0  0  0  0  0  0  0  0  0  0
   47.8392   33.3974   37.9712 H   0  0  0  0  0  0  0  0  0  0  0  0
   45.1302   36.7121   42.3237 H   0  0  0  0  0  0  0  0  0  0  0  0
   44.1147   37.0996   44.4909 H   0  0  0  0  0  0  0  0  0  0  0  0
   45.6404   33.3632   45.7384 H   0  0  0  0  0  0  0  0  0  0  0  0
   49.2351   36.4501   41.1820 H   0  0  0  0  0  0  0  0  0  0  0  0
   48.1075   36.1841   42.5819 H   0  0  0  0  0  0  0  0  0  0  0  0
   49.6653   35.0154   43.6321 H   0  0  0  0  0  0  0  0  0  0  0  0
   49.7240   33.8503   42.2662 H   0  0  0  0  0  0  0  0  0  0  0  0
   50.7994   35.2891   42.2662 H   0  0  0  0  0  0  0  0  0  0  0  0
  1  2  2  0
  1 13  1  0
  2  7  1  0
  3  2  1  0
  4  3  2  0
  5  4  1  0
  5  6  2  0
  6  1  1  0
  7  8  2  0
  7 12  1  0
  8  9  1  0
  9 10  2  0
 11 10  1  0
 12 11  2  0
 13 14  1  0
  3 15  1  0
  5 16  1  0
  8 17  1  0
  9 18  1  0
 11 19  1  0
 13 20  1  0
 13 21  1  0
 14 22  1  0
 14 23  1  0
 14 24  1  0
M  ISO  8  15  14  16  14  17  14  18  14  19  14  20   8  21   8  22   8
M  ISO  2  23   8  24   8
M  END
>  <minimizedAffinity>  (1) 
-4.98914337

>  <minimizedRMSD>  (1) 
3.92301583

$$$$
