
     RDKit          3D

 32 33  0  0  0  0  0  0  0  0999 V2000
   47.0180   34.3340   42.4100 C   0  0  0  0  0  0  0  0  0  0  0  0
   45.6050   34.2850   42.3010 C   0  0  0  0  0  0  0  0  0  0  0  0
   44.8960   33.7560   43.3800 C   0  0  0  0  0  0  0  0  0  0  0  0
   45.5590   33.3200   44.4700 N   0  0  0  0  0  0  0  0  0  0  0  0
   46.9180   33.3820   44.5430 C   0  0  0  0  0  0  0  0  0  0  0  0
   47.5990   33.8850   43.5140 N   0  0  0  0  0  0  0  0  0  0  0  0
   44.7920   34.7540   41.1250 C   0  0  0  0  0  0  0  0  0  0  0  0
   44.3860   33.6470   40.2310 C   0  0  0  0  0  0  0  0  0  0  0  0
   42.9520   33.4460   39.9470 C   0  0  0  0  0  0  0  0  0  0  0  0
   42.1360   34.7160   39.9480 C   0  0  0  0  0  0  0  0  0  0  0  0
   42.3330   35.3340   41.3120 C   0  0  0  0  0  0  0  0  0  0  0  0
   43.7450   35.7230   41.5460 C   0  0  0  0  0  0  0  0  0  0  0  0
   47.7110   34.8750   41.2400 C   0  0  0  0  0  0  0  0  0  0  0  0
   48.9040   35.7010   41.6170 C   0  0  0  0  0  0  0  0  0  0  0  0
   43.7984   33.6948   43.3414 H   0  0  0  0  0  0  0  0  0  0  0  0
   47.4456   33.0220   45.4386 H   0  0  0  0  0  0  0  0  0  0  0  0
   45.4298   35.3487   40.4545 H   0  0  0  0  0  0  0  0  0  0  0  0
   44.8857   33.8129   39.2652 H   0  0  0  0  0  0  0  0  0  0  0  0
   44.6747   32.7414   40.7847 H   0  0  0  0  0  0  0  0  0  0  0  0
   42.5403   32.7711   40.7119 H   0  0  0  0  0  0  0  0  0  0  0  0
   42.8868   33.0297   38.9309 H   0  0  0  0  0  0  0  0  0  0  0  0
   42.4916   35.3998   39.1632 H   0  0  0  0  0  0  0  0  0  0  0  0
   41.0738   34.5135   39.7461 H   0  0  0  0  0  0  0  0  0  0  0  0
   41.6998   36.2300   41.3909 H   0  0  0  0  0  0  0  0  0  0  0  0
   42.0568   34.5844   42.0682 H   0  0  0  0  0  0  0  0  0  0  0  0
   43.8671   35.8949   42.6256 H   0  0  0  0  0  0  0  0  0  0  0  0
   43.9054   36.6088   40.9138 H   0  0  0  0  0  0  0  0  0  0  0  0
   47.0095   35.5048   40.6732 H   0  0  0  0  0  0  0  0  0  0  0  0
   48.0662   34.0264   40.6370 H   0  0  0  0  0  0  0  0  0  0  0  0
   48.9814   35.7546   42.7130 H   0  0  0  0  0  0  0  0  0  0  0  0
   49.8142   35.2388   41.2073 H   0  0  0  0  0  0  0  0  0  0  0  0
   48.7917   36.7157   41.2073 H   0  0  0  0  0  0  0  0  0  0  0  0
  1  6  2  0
  2  1  1  0
  2  3  2  0
  3  4  1  0
  4  5  2  0
  6  5  1  0
  7 12  1  0
  7  2  1  0
  8  7  1  0
  9 10  1  0
  9  8  1  0
 10 11  1  0
 11 12  1  0
 13 14  1  0
 13  1  1  0
  3 15  1  0
  5 16  1  0
  7 17  1  0
  8 18  1  0
  8 19  1  0
  9 20  1  0
  9 21  1  0
 10 22  1  0
 10 23  1  0
 11 24  1  0
 11 25  1  0
 12 26  1  0
 12 27  1  0
 13 28  1  0
 13 29  1  0
 14 30  1  0
 14 31  1  0
 14 32  1  0
M  ISO  8  15  14  16  14  17  13  18  13  19  13  20  13  21  13  22  13
M  ISO  8  23  13  24  13  25  13  26  13  27  13  28   8  29   8  30   8
M  ISO  2  31   8  32   8
M  END
>  <minimizedAffinity>  (1) 
-4.37256527

>  <minimizedRMSD>  (1) 
1.99969673

$$$$
