
     RDKit          3D

 26 27  0  0  0  0  0  0  0  0999 V2000
   46.0870   34.0100   44.7090 C   0  0  0  0  0  0  0  0  0  0  0  0
   46.8330   34.2430   43.5410 C   0  0  0  0  0  0  0  0  0  0  0  0
   46.3550   35.2600   42.6730 C   0  0  0  0  0  0  0  0  0  0  0  0
   45.2190   35.9500   43.0050 N   0  0  0  0  0  0  0  0  0  0  0  0
   44.5450   35.6810   44.1430 C   0  0  0  0  0  0  0  0  0  0  0  0
   45.0010   34.7240   44.9540 N   0  0  0  0  0  0  0  0  0  0  0  0
   48.0010   33.6560   42.9580 C   0  0  0  0  0  0  0  0  0  0  0  0
   48.2070   32.3930   42.4430 C   0  0  0  0  0  0  0  0  0  0  0  0
   49.3710   31.9210   41.9290 C   0  0  0  0  0  0  0  0  0  0  0  0
   50.4450   32.7840   41.9220 C   0  0  0  0  0  0  0  0  0  0  0  0
   50.3840   34.0700   42.4030 C   0  0  0  0  0  0  0  0  0  0  0  0
   49.1510   34.4530   42.9040 C   0  0  0  0  0  0  0  0  0  0  0  0
   46.6650   32.9440   45.5260 C   0  0  0  0  0  0  0  0  0  0  0  0
   45.8960   32.7590   46.8310 C   0  0  0  0  0  0  0  0  0  0  0  0
   46.8924   35.4919   41.7417 H   0  0  0  0  0  0  0  0  0  0  0  0
   43.6338   36.2419   44.3982 H   0  0  0  0  0  0  0  0  0  0  0  0
   47.3487   31.7050   42.4495 H   0  0  0  0  0  0  0  0  0  0  0  0
   49.4532   30.8968   41.5362 H   0  0  0  0  0  0  0  0  0  0  0  0
   51.4000   32.4254   41.5104 H   0  0  0  0  0  0  0  0  0  0  0  0
   51.2516   34.7461   42.3909 H   0  0  0  0  0  0  0  0  0  0  0  0
   49.0674   35.4776   43.2955 H   0  0  0  0  0  0  0  0  0  0  0  0
   46.6360   32.0026   44.9577 H   0  0  0  0  0  0  0  0  0  0  0  0
   47.7005   33.2214   45.7724 H   0  0  0  0  0  0  0  0  0  0  0  0
   46.5735   32.9220   47.6821 H   0  0  0  0  0  0  0  0  0  0  0  0
   45.0700   33.4841   46.8758 H   0  0  0  0  0  0  0  0  0  0  0  0
   45.4901   31.7376   46.8758 H   0  0  0  0  0  0  0  0  0  0  0  0
  1  6  2  0
  1 13  1  0
  2  1  1  0
  3  4  1  0
  3  2  2  0
  4  5  2  0
  5  6  1  0
  7  2  1  0
  8  7  2  0
  9  8  1  0
 10  9  2  0
 10 11  1  0
 11 12  2  0
 12  7  1  0
 13 14  1  0
  3 15  1  0
  5 16  1  0
  8 17  1  0
  9 18  1  0
 10 19  1  0
 11 20  1  0
 12 21  1  0
 13 22  1  0
 13 23  1  0
 14 24  1  0
 14 25  1  0
 14 26  1  0
M  ISO  8  15  14  16  14  17  14  18  14  19  14  20  14  21  14  22   8
M  ISO  4  23   8  24   8  25   8  26   8
M  END
>  <minimizedAffinity>  (1) 
-4.59473991

>  <minimizedRMSD>  (1) 
5.11603642

$$$$
