
     RDKit          3D

 30 32  0  0  0  0  0  0  0  0999 V2000
   46.2070   33.9980   44.4850 C   0  0  0  0  0  0  0  0  0  0  0  0
   46.7120   34.5750   43.2970 C   0  0  0  0  0  0  0  0  0  0  0  0
   46.0370   35.7060   42.7880 C   0  0  0  0  0  0  0  0  0  0  0  0
   44.9440   36.1770   43.4620 N   0  0  0  0  0  0  0  0  0  0  0  0
   44.5020   35.5720   44.6130 C   0  0  0  0  0  0  0  0  0  0  0  0
   45.1450   34.5080   45.0830 N   0  0  0  0  0  0  0  0  0  0  0  0
   47.8720   34.1110   42.5400 C   0  0  0  0  0  0  0  0  0  0  0  0
   49.1910   34.5320   42.6540 C   0  0  0  0  0  0  0  0  0  0  0  0
   49.9680   33.8560   41.7690 N   0  0  0  0  0  0  0  0  0  0  0  0
   49.1770   33.0030   41.0820 C   0  0  0  0  0  0  0  0  0  0  0  0
   49.4790   32.0970   40.0770 C   0  0  0  0  0  0  0  0  0  0  0  0
   48.4640   31.3250   39.5270 C   0  0  0  0  0  0  0  0  0  0  0  0
   47.1530   31.4370   39.9590 C   0  0  0  0  0  0  0  0  0  0  0  0
   46.9060   32.3590   40.9670 C   0  0  0  0  0  0  0  0  0  0  0  0
   47.8890   33.1410   41.5360 C   0  0  0  0  0  0  0  0  0  0  0  0
   46.9960   32.8330   44.8990 C   0  0  0  0  0  0  0  0  0  0  0  0
   46.8250   32.5220   46.3630 C   0  0  0  0  0  0  0  0  0  0  0  0
   46.3834   36.1986   41.8675 H   0  0  0  0  0  0  0  0  0  0  0  0
   43.6217   35.9654   45.1424 H   0  0  0  0  0  0  0  0  0  0  0  0
   49.5519   35.2981   43.3560 H   0  0  0  0  0  0  0  0  0  0  0  0
   50.9836   33.9732   41.6434 H   0  0  0  0  0  0  0  0  0  0  0  0
   50.5134   31.9906   39.7184 H   0  0  0  0  0  0  0  0  0  0  0  0
   48.7071   30.6076   38.7294 H   0  0  0  0  0  0  0  0  0  0  0  0
   46.3477   30.8260   39.5251 H   0  0  0  0  0  0  0  0  0  0  0  0
   45.8738   32.4715   41.3302 H   0  0  0  0  0  0  0  0  0  0  0  0
   46.6746   31.9604   44.3114 H   0  0  0  0  0  0  0  0  0  0  0  0
   48.0572   33.0640   44.7242 H   0  0  0  0  0  0  0  0  0  0  0  0
   47.2690   33.3295   46.9637 H   0  0  0  0  0  0  0  0  0  0  0  0
   45.7535   32.4374   46.5972 H   0  0  0  0  0  0  0  0  0  0  0  0
   47.3276   31.5720   46.5972 H   0  0  0  0  0  0  0  0  0  0  0  0
  1 16  1  0
  1  6  2  0
  2  1  1  0
  3  2  2  0
  3  4  1  0
  4  5  2  0
  5  6  1  0
  7  8  2  0
  7  2  1  0
  9  8  1  0
 10 15  2  0
 10  9  1  0
 11 10  1  0
 12 13  1  0
 12 11  2  0
 13 14  2  0
 14 15  1  0
 15  7  1  0
 16 17  1  0
  3 18  1  0
  5 19  1  0
  8 20  1  0
  9 21  1  0
 11 22  1  0
 12 23  1  0
 13 24  1  0
 14 25  1  0
 16 26  1  0
 16 27  1  0
 17 28  1  0
 17 29  1  0
 17 30  1  0
M  ISO  8  18  14  19  14  20  14  21   9  22  14  23  14  24  14  25  14
M  ISO  5  26   8  27   8  28   8  29   8  30   8
M  END
>  <minimizedAffinity>  (1) 
-4.63793564

>  <minimizedRMSD>  (1) 
5.72127008

$$$$
