
     RDKit          3D

 26 27  0  0  0  0  0  0  0  0999 V2000
   46.4060   31.4800   45.9060 C   0  0  0  0  0  0  0  0  0  0  0  0
   45.9270   32.7990   45.9530 C   0  0  0  0  0  0  0  0  0  0  0  0
   45.4260   33.2410   47.2060 C   0  0  0  0  0  0  0  0  0  0  0  0
   45.4240   32.4090   48.2770 N   0  0  0  0  0  0  0  0  0  0  0  0
   45.9070   31.1310   48.1620 C   0  0  0  0  0  0  0  0  0  0  0  0
   46.3750   30.7250   46.9860 N   0  0  0  0  0  0  0  0  0  0  0  0
   45.7750   33.8720   44.9850 C   0  0  0  0  0  0  0  0  0  0  0  0
   44.8570   34.8780   45.3180 C   0  0  0  0  0  0  0  0  0  0  0  0
   44.5610   35.9690   44.5230 C   0  0  0  0  0  0  0  0  0  0  0  0
   45.2360   36.0280   43.3440 C   0  0  0  0  0  0  0  0  0  0  0  0
   46.1540   35.0890   42.9280 C   0  0  0  0  0  0  0  0  0  0  0  0
   46.3940   34.0390   43.7660 C   0  0  0  0  0  0  0  0  0  0  0  0
   46.8880   31.1430   44.5720 C   0  0  0  0  0  0  0  0  0  0  0  0
   48.1110   30.2320   44.6240 C   0  0  0  0  0  0  0  0  0  0  0  0
   45.0370   34.2648   47.3086 H   0  0  0  0  0  0  0  0  0  0  0  0
   45.9072   30.4531   49.0283 H   0  0  0  0  0  0  0  0  0  0  0  0
   44.3344   34.7927   46.2821 H   0  0  0  0  0  0  0  0  0  0  0  0
   43.8311   36.7354   44.8227 H   0  0  0  0  0  0  0  0  0  0  0  0
   45.0359   36.8812   42.6791 H   0  0  0  0  0  0  0  0  0  0  0  0
   46.6714   35.1816   41.9617 H   0  0  0  0  0  0  0  0  0  0  0  0
   47.1253   33.2809   43.4491 H   0  0  0  0  0  0  0  0  0  0  0  0
   47.1574   32.0708   44.0460 H   0  0  0  0  0  0  0  0  0  0  0  0
   46.0853   30.6075   44.0439 H   0  0  0  0  0  0  0  0  0  0  0  0
   48.3765   30.0342   45.6730 H   0  0  0  0  0  0  0  0  0  0  0  0
   47.8825   29.2823   44.1183 H   0  0  0  0  0  0  0  0  0  0  0  0
   48.9556   30.7228   44.1183 H   0  0  0  0  0  0  0  0  0  0  0  0
  1  2  2  0
  1  6  1  0
  2  3  1  0
  3  4  2  0
  5  4  1  0
  6  5  2  0
  7  8  2  0
  7  2  1  0
  9  8  1  0
 10  9  2  0
 11 10  1  0
 11 12  2  0
 12  7  1  0
 13 14  1  0
 13  1  1  0
  3 15  1  0
  5 16  1  0
  8 17  1  0
  9 18  1  0
 10 19  1  0
 11 20  1  0
 12 21  1  0
 13 22  1  0
 13 23  1  0
 14 24  1  0
 14 25  1  0
 14 26  1  0
M  ISO  8  15  14  16  14  17  14  18  14  19  14  20  14  21  14  22   8
M  ISO  4  23   8  24   8  25   8  26   8
M  END
>  <minimizedAffinity>  (1) 
-4.29225969

>  <minimizedRMSD>  (1) 
4.42785215

$$$$
