
     RDKit          3D

 29 30  0  0  0  0  0  0  0  0999 V2000
   45.8030   34.0210   44.9690 C   0  0  0  0  0  0  0  0  0  0  0  0
   46.3520   34.2060   43.6980 C   0  0  0  0  0  0  0  0  0  0  0  0
   45.9130   35.3070   42.9470 C   0  0  0  0  0  0  0  0  0  0  0  0
   44.9740   36.1460   43.4820 N   0  0  0  0  0  0  0  0  0  0  0  0
   44.4780   35.9140   44.7230 C   0  0  0  0  0  0  0  0  0  0  0  0
   44.8980   34.8720   45.4280 N   0  0  0  0  0  0  0  0  0  0  0  0
   47.3200   33.4710   42.9600 N   0  0  0  0  0  0  0  0  0  0  0  0
   48.7720   33.4910   42.9180 C   0  0  0  0  0  0  0  0  0  0  0  0
   49.2080   33.6040   41.4900 C   0  0  0  0  0  0  0  0  0  0  0  0
   48.7110   32.5010   40.7750 O   0  0  0  0  0  0  0  0  0  0  0  0
   47.3150   32.7160   40.6840 C   0  0  0  0  0  0  0  0  0  0  0  0
   46.7490   32.4720   42.0490 C   0  0  0  0  0  0  0  0  0  0  0  0
   46.3420   32.8430   45.6550 C   0  0  0  0  0  0  0  0  0  0  0  0
   45.7760   32.7030   47.0630 C   0  0  0  0  0  0  0  0  0  0  0  0
   46.3184   35.4931   41.9415 H   0  0  0  0  0  0  0  0  0  0  0  0
   43.7238   36.5934   45.1468 H   0  0  0  0  0  0  0  0  0  0  0  0
   49.1473   34.3529   43.4892 H   0  0  0  0  0  0  0  0  0  0  0  0
   49.1731   32.5675   43.3610 H   0  0  0  0  0  0  0  0  0  0  0  0
   48.8131   34.5343   41.0556 H   0  0  0  0  0  0  0  0  0  0  0  0
   50.3065   33.6200   41.4353 H   0  0  0  0  0  0  0  0  0  0  0  0
   47.1110   33.7500   40.3689 H   0  0  0  0  0  0  0  0  0  0  0  0
   46.8599   32.0432   39.9423 H   0  0  0  0  0  0  0  0  0  0  0  0
   45.6539   32.5728   42.0229 H   0  0  0  0  0  0  0  0  0  0  0  0
   46.9972   31.4562   42.3905 H   0  0  0  0  0  0  0  0  0  0  0  0
   46.0839   31.9440   45.0760 H   0  0  0  0  0  0  0  0  0  0  0  0
   47.4328   32.9612   45.7339 H   0  0  0  0  0  0  0  0  0  0  0  0
   46.5700   32.8994   47.7986 H   0  0  0  0  0  0  0  0  0  0  0  0
   44.9591   33.4261   47.2034 H   0  0  0  0  0  0  0  0  0  0  0  0
   45.3904   31.6824   47.2034 H   0  0  0  0  0  0  0  0  0  0  0  0
  1  6  2  0
  1 13  1  0
  2  1  1  0
  3  4  1  0
  3  2  2  0
  4  5  2  0
  5  6  1  0
  7  2  1  0
  8  7  1  0
  9  8  1  0
 10  9  1  0
 11 10  1  0
 11 12  1  0
 12  7  1  0
 13 14  1  0
  3 15  1  0
  5 16  1  0
  8 17  1  0
  8 18  1  0
  9 19  1  0
  9 20  1  0
 11 21  1  0
 11 22  1  0
 12 23  1  0
 12 24  1  0
 13 25  1  0
 13 26  1  0
 14 27  1  0
 14 28  1  0
 14 29  1  0
M  ISO  8  15  14  16  14  17  13  18  13  19  13  20  13  21  13  22  13
M  ISO  7  23  13  24  13  25   8  26   8  27   8  28   8  29   8
M  END
>  <minimizedAffinity>  (1) 
-3.95355868

>  <minimizedRMSD>  (1) 
4.7295022

$$$$
