
     RDKit          3D

 23 24  0  0  0  0  0  0  0  0999 V2000
   46.1640   33.9480   44.6630 C   0  0  0  0  0  0  0  0  0  0  0  0
   46.6910   34.3850   43.4430 C   0  0  0  0  0  0  0  0  0  0  0  0
   46.0410   35.5040   42.8680 C   0  0  0  0  0  0  0  0  0  0  0  0
   44.9920   36.0840   43.4820 N   0  0  0  0  0  0  0  0  0  0  0  0
   44.5180   35.6170   44.6740 C   0  0  0  0  0  0  0  0  0  0  0  0
   45.1220   34.5620   45.2250 N   0  0  0  0  0  0  0  0  0  0  0  0
   47.8230   33.8140   42.7300 C   0  0  0  0  0  0  0  0  0  0  0  0
   49.1140   34.2780   42.8170 C   0  0  0  0  0  0  0  0  0  0  0  0
   49.9240   33.5090   42.0150 C   0  0  0  0  0  0  0  0  0  0  0  0
   49.1350   32.5860   41.4430 N   0  0  0  0  0  0  0  0  0  0  0  0
   47.9190   32.7850   41.8760 N   0  0  0  0  0  0  0  0  0  0  0  0
   46.8130   32.7680   45.2550 C   0  0  0  0  0  0  0  0  0  0  0  0
   46.7000   32.7360   46.7530 C   0  0  0  0  0  0  0  0  0  0  0  0
   46.3974   35.9046   41.9076 H   0  0  0  0  0  0  0  0  0  0  0  0
   43.6605   36.0977   45.1676 H   0  0  0  0  0  0  0  0  0  0  0  0
   49.4461   35.1287   43.4303 H   0  0  0  0  0  0  0  0  0  0  0  0
   51.0080   33.6273   41.8703 H   0  0  0  0  0  0  0  0  0  0  0  0
   49.4341   31.8541   40.7828 H   0  0  0  0  0  0  0  0  0  0  0  0
   46.3388   31.8633   44.8467 H   0  0  0  0  0  0  0  0  0  0  0  0
   47.8827   32.8150   45.0029 H   0  0  0  0  0  0  0  0  0  0  0  0
   47.6672   33.0099   47.1996 H   0  0  0  0  0  0  0  0  0  0  0  0
   45.9303   33.4515   47.0780 H   0  0  0  0  0  0  0  0  0  0  0  0
   46.4197   31.7232   47.0780 H   0  0  0  0  0  0  0  0  0  0  0  0
  1  6  2  0
  1 12  1  0
  2  1  1  0
  3  2  2  0
  3  4  1  0
  4  5  2  0
  5  6  1  0
  7  8  1  0
  7  2  1  0
  9  8  2  0
 10 11  1  0
 10  9  1  0
 11  7  2  0
 12 13  1  0
  3 14  1  0
  5 15  1  0
  8 16  1  0
  9 17  1  0
 10 18  1  0
 12 19  1  0
 12 20  1  0
 13 21  1  0
 13 22  1  0
 13 23  1  0
M  ISO  8  14  14  15  14  16  14  17  14  18   9  19   8  20   8  21   8
M  ISO  2  22   8  23   8
M  END
>  <minimizedAffinity>  (1) 
-4.00320053

>  <minimizedRMSD>  (1) 
4.44727325

$$$$
