
     RDKit          3D

 19 19  0  0  0  0  0  0  0  0999 V2000
   46.9050   34.4130   43.0380 C   0  0  0  0  0  0  0  0  0  0  0  0
   45.7520   35.0240   43.5630 C   0  0  0  0  0  0  0  0  0  0  0  0
   45.2270   34.5490   44.7860 C   0  0  0  0  0  0  0  0  0  0  0  0
   45.8750   33.5140   45.3920 N   0  0  0  0  0  0  0  0  0  0  0  0
   46.9970   32.9500   44.8400 C   0  0  0  0  0  0  0  0  0  0  0  0
   47.4760   33.4120   43.6890 N   0  0  0  0  0  0  0  0  0  0  0  0
   47.3200   35.0210   41.7660 C   0  0  0  0  0  0  0  0  0  0  0  0
   48.7840   35.4240   41.8030 C   0  0  0  0  0  0  0  0  0  0  0  0
   45.0310   36.1520   42.9210 C   0  0  0  0  0  0  0  0  0  0  0  0
   44.3278   34.9982   45.2329 H   0  0  0  0  0  0  0  0  0  0  0  0
   47.5005   32.1153   45.3497 H   0  0  0  0  0  0  0  0  0  0  0  0
   46.7063   35.9144   41.5780 H   0  0  0  0  0  0  0  0  0  0  0  0
   47.1821   34.2807   40.9641 H   0  0  0  0  0  0  0  0  0  0  0  0
   49.1131   35.5146   42.8487 H   0  0  0  0  0  0  0  0  0  0  0  0
   49.3880   34.6587   41.2935 H   0  0  0  0  0  0  0  0  0  0  0  0
   48.9112   36.3906   41.2935 H   0  0  0  0  0  0  0  0  0  0  0  0
   44.6114   36.8084   43.6976 H   0  0  0  0  0  0  0  0  0  0  0  0
   45.7305   36.7254   42.2949 H   0  0  0  0  0  0  0  0  0  0  0  0
   44.2169   35.7579   42.2949 H   0  0  0  0  0  0  0  0  0  0  0  0
  1  2  2  0
  1  6  1  0
  2  3  1  0
  3  4  2  0
  5  4  1  0
  6  5  2  0
  7  8  1  0
  7  1  1  0
  9  2  1  0
  3 10  1  0
  5 11  1  0
  7 12  1  0
  7 13  1  0
  8 14  1  0
  8 15  1  0
  8 16  1  0
  9 17  1  0
  9 18  1  0
  9 19  1  0
M  ISO  8  10  14  11  14  12   8  13   8  14   8  15   8  16   8  17   8
M  ISO  2  18   8  19   8
M  END
>  <minimizedAffinity>  (1) 
-3.42271829

>  <minimizedRMSD>  (1) 
0.765010357

$$$$
