
     RDKit          3D

 18 18  0  0  0  0  0  0  0  0999 V2000
   46.9670   34.3640   43.0160 C   0  0  0  0  0  0  0  0  0  0  0  0
   45.8230   34.9640   43.5610 C   0  0  0  0  0  0  0  0  0  0  0  0
   45.3010   34.4490   44.7660 C   0  0  0  0  0  0  0  0  0  0  0  0
   45.9330   33.3960   45.3400 N   0  0  0  0  0  0  0  0  0  0  0  0
   47.0500   32.8410   44.7710 C   0  0  0  0  0  0  0  0  0  0  0  0
   47.5310   33.3380   43.6310 N   0  0  0  0  0  0  0  0  0  0  0  0
   47.3950   34.9990   41.7660 C   0  0  0  0  0  0  0  0  0  0  0  0
   48.8450   35.4440   41.8210 C   0  0  0  0  0  0  0  0  0  0  0  0
   45.0970   36.0730   43.0240 C   0  0  0  0  0  0  0  0  0  0  0  0
   45.1740   37.2960   43.3090 O   0  0  0  0  0  0  0  0  0  0  0  0
   44.4052   34.8900   45.2275 H   0  0  0  0  0  0  0  0  0  0  0  0
   47.5484   31.9875   45.2539 H   0  0  0  0  0  0  0  0  0  0  0  0
   46.7607   35.8781   41.5790 H   0  0  0  0  0  0  0  0  0  0  0  0
   47.2975   34.2586   40.9584 H   0  0  0  0  0  0  0  0  0  0  0  0
   49.1594   35.5405   42.8707 H   0  0  0  0  0  0  0  0  0  0  0  0
   49.4768   34.6984   41.3161 H   0  0  0  0  0  0  0  0  0  0  0  0
   48.9498   36.4156   41.3161 H   0  0  0  0  0  0  0  0  0  0  0  0
   44.3620   35.8189   42.2461 H   0  0  0  0  0  0  0  0  0  0  0  0
  1  2  2  0
  1  6  1  0
  2  3  1  0
  3  4  2  0
  5  4  1  0
  6  5  2  0
  7  8  1  0
  7  1  1  0
  9 10  2  0
  9  2  1  0
  3 11  1  0
  5 12  1  0
  7 13  1  0
  7 14  1  0
  8 15  1  0
  8 16  1  0
  8 17  1  0
  9 18  1  0
M  ISO  8  11  14  12  14  13   8  14   8  15   8  16   8  17   8  18   6
M  END
>  <minimizedAffinity>  (1) 
-3.44337034

>  <minimizedRMSD>  (1) 
0.866318822

$$$$
