
     RDKit          3D

 17 17  0  0  0  0  0  0  0  0999 V2000
   46.0170   33.8930   44.8330 C   0  0  0  0  0  0  0  0  0  0  0  0
   46.5060   34.2570   43.5640 C   0  0  0  0  0  0  0  0  0  0  0  0
   45.9760   35.3710   42.9210 C   0  0  0  0  0  0  0  0  0  0  0  0
   45.0020   36.0580   43.5600 N   0  0  0  0  0  0  0  0  0  0  0  0
   44.5490   35.6820   44.7870 C   0  0  0  0  0  0  0  0  0  0  0  0
   45.0510   34.6190   45.4070 N   0  0  0  0  0  0  0  0  0  0  0  0
   46.6870   32.6890   45.3750 C   0  0  0  0  0  0  0  0  0  0  0  0
   46.7250   32.7210   46.8820 C   0  0  0  0  0  0  0  0  0  0  0  0
   47.7960   33.3560   42.7050 S   0  0  0  0  0  0  0  0  0  0  0  0
   46.3360   35.6817   41.9291 H   0  0  0  0  0  0  0  0  0  0  0  0
   43.7547   36.2672   45.2734 H   0  0  0  0  0  0  0  0  0  0  0  0
   46.1370   31.7941   45.0484 H   0  0  0  0  0  0  0  0  0  0  0  0
   47.7208   32.6658   44.9999 H   0  0  0  0  0  0  0  0  0  0  0  0
   45.9414   32.0611   47.2826 H   0  0  0  0  0  0  0  0  0  0  0  0
   47.7092   32.3756   47.2314 H   0  0  0  0  0  0  0  0  0  0  0  0
   46.5521   33.7496   47.2314 H   0  0  0  0  0  0  0  0  0  0  0  0
   48.6320   32.7721   43.6199 H   0  0  0  0  0  0  0  0  0  0  0  0
  1  7  1  0
  1  6  2  0
  2  1  1  0
  3  4  1  0
  3  2  2  0
  4  5  2  0
  5  6  1  0
  7  8  1  0
  9  2  1  0
  3 10  1  0
  5 11  1  0
  7 12  1  0
  7 13  1  0
  8 14  1  0
  8 15  1  0
  8 16  1  0
  9 17  1  0
M  ISO  8  10  14  11  14  12   8  13   8  14   8  15   8  16   8  17  11
M  END
>  <minimizedAffinity>  (1) 
-3.20220709

>  <minimizedRMSD>  (1) 
3.57951665

$$$$
