
     RDKit          3D

 43 46  0  0  0  0  0  0  0  0999 V2000
   46.0390   34.0770   40.8580 C   0  0  0  0  0  0  0  0  0  0  0  0
   46.5190   34.8420   41.9460 C   0  0  0  0  0  0  0  0  0  0  0  0
   47.8230   35.3430   41.9100 C   0  0  0  0  0  0  0  0  0  0  0  0
   48.5730   35.0680   40.8210 N   0  0  0  0  0  0  0  0  0  0  0  0
   48.0740   34.3200   39.7820 C   0  0  0  0  0  0  0  0  0  0  0  0
   46.8270   33.8500   39.8330 N   0  0  0  0  0  0  0  0  0  0  0  0
   45.7700   35.1540   43.1040 N   0  0  0  0  0  0  0  0  0  0  0  0
   44.9050   36.1040   43.4900 C   0  0  0  0  0  0  0  0  0  0  0  0
   44.4890   35.8980   44.7480 N   0  0  0  0  0  0  0  0  0  0  0  0
   45.0950   34.7800   45.2090 C   0  0  0  0  0  0  0  0  0  0  0  0
   44.9440   34.2210   46.4490 C   0  0  0  0  0  0  0  0  0  0  0  0
   45.6690   33.0910   46.6670 N   0  0  0  0  0  0  0  0  0  0  0  0
   46.4670   32.6010   45.6860 C   0  0  0  0  0  0  0  0  0  0  0  0
   46.5730   33.1940   44.4890 N   0  0  0  0  0  0  0  0  0  0  0  0
   45.8800   34.3310   44.1910 C   0  0  0  0  0  0  0  0  0  0  0  0
   44.6520   33.6250   41.0510 C   0  0  0  0  0  0  0  0  0  0  0  0
   43.7820   33.9570   39.8760 C   0  0  0  0  0  0  0  0  0  0  0  0
   42.8820   35.1450   40.1150 C   0  0  0  0  0  0  0  0  0  0  0  0
   41.9680   35.2470   38.9090 C   0  0  0  0  0  0  0  0  0  0  0  0
   40.6430   34.6180   39.2840 C   0  0  0  0  0  0  0  0  0  0  0  0
   39.9260   35.6310   40.1680 C   0  0  0  0  0  0  0  0  0  0  0  0
   40.9090   36.0150   41.2530 C   0  0  0  0  0  0  0  0  0  0  0  0
   42.0510   35.0050   41.3570 C   0  0  0  0  0  0  0  0  0  0  0  0
   48.2252   35.9413   42.7408 H   0  0  0  0  0  0  0  0  0  0  0  0
   48.7047   34.1083   38.9060 H   0  0  0  0  0  0  0  0  0  0  0  0
   44.5794   36.9426   42.8570 H   0  0  0  0  0  0  0  0  0  0  0  0
   44.2836   34.6545   47.2145 H   0  0  0  0  0  0  0  0  0  0  0  0
   47.0466   31.6863   45.8794 H   0  0  0  0  0  0  0  0  0  0  0  0
   44.6512   32.5346   41.1961 H   0  0  0  0  0  0  0  0  0  0  0  0
   44.2456   34.1450   41.9310 H   0  0  0  0  0  0  0  0  0  0  0  0
   43.1536   33.0832   39.6492 H   0  0  0  0  0  0  0  0  0  0  0  0
   44.4488   34.2168   39.0406 H   0  0  0  0  0  0  0  0  0  0  0  0
   43.5010   36.0436   40.2543 H   0  0  0  0  0  0  0  0  0  0  0  0
   42.4102   34.7101   38.0568 H   0  0  0  0  0  0  0  0  0  0  0  0
   41.8278   36.2986   38.6185 H   0  0  0  0  0  0  0  0  0  0  0  0
   40.0494   34.4125   38.3810 H   0  0  0  0  0  0  0  0  0  0  0  0
   40.7875   33.6612   39.8071 H   0  0  0  0  0  0  0  0  0  0  0  0
   39.6417   36.5163   39.5802 H   0  0  0  0  0  0  0  0  0  0  0  0
   39.0035   35.2095   40.5938 H   0  0  0  0  0  0  0  0  0  0  0  0
   41.3278   37.0055   41.0217 H   0  0  0  0  0  0  0  0  0  0  0  0
   40.3737   36.0309   42.2138 H   0  0  0  0  0  0  0  0  0  0  0  0
   41.6464   33.9845   41.4266 H   0  0  0  0  0  0  0  0  0  0  0  0
   42.6572   35.1923   42.2555 H   0  0  0  0  0  0  0  0  0  0  0  0
  1 16  1  0
  1  2  1  0
  2  7  1  0
  3  2  2  0
  4  3  1  0
  5  6  1  0
  5  4  2  0
  6  1  2  0
  7  8  1  0
  7 15  1  0
  8  9  2  0
  9 10  1  0
 10 11  2  0
 11 12  1  0
 13 12  2  0
 14 13  1  0
 15 14  2  0
 15 10  1  0
 17 18  1  0
 17 16  1  0
 18 23  1  0
 19 20  1  0
 19 18  1  0
 20 21  1  0
 21 22  1  0
 22 23  1  0
  3 24  1  0
  5 25  1  0
  8 26  1  0
 11 27  1  0
 13 28  1  0
 16 29  1  0
 16 30  1  0
 17 31  1  0
 17 32  1  0
 18 33  1  0
 19 34  1  0
 19 35  1  0
 20 36  1  0
 20 37  1  0
 21 38  1  0
 21 39  1  0
 22 40  1  0
 22 41  1  0
 23 42  1  0
 23 43  1  0
M  ISO  8  24  14  25  14  26  14  27  14  28  14  29   8  30   8  31   8
M  ISO  8  32   8  33  13  34  13  35  13  36  13  37  13  38  13  39  13
M  ISO  4  40  13  41  13  42  13  43  13
M  END
>  <minimizedAffinity>  (1) 
-6.49232578

>  <minimizedRMSD>  (1) 
1.54575002

$$$$
