
     RDKit          3D

 39 41  0  0  0  0  0  0  0  0999 V2000
   47.6880   34.6770   41.5160 C   0  0  0  0  0  0  0  0  0  0  0  0
   47.3060   34.2050   40.1570 C   0  0  0  0  0  0  0  0  0  0  0  0
   48.1980   34.1880   39.0970 C   0  0  0  0  0  0  0  0  0  0  0  0
   47.9320   33.7680   37.8230 C   0  0  0  0  0  0  0  0  0  0  0  0
   46.6480   33.3290   37.6160 N   0  0  0  0  0  0  0  0  0  0  0  0
   45.7680   33.3390   38.6390 C   0  0  0  0  0  0  0  0  0  0  0  0
   46.0400   33.7550   39.8950 N   0  0  0  0  0  0  0  0  0  0  0  0
   44.4170   32.8540   38.3470 C   0  0  0  0  0  0  0  0  0  0  0  0
   43.3020   33.5580   38.7700 C   0  0  0  0  0  0  0  0  0  0  0  0
   42.0400   33.1070   38.5010 C   0  0  0  0  0  0  0  0  0  0  0  0
   41.8610   31.9760   37.8210 N   0  0  0  0  0  0  0  0  0  0  0  0
   42.9540   31.3010   37.4150 C   0  0  0  0  0  0  0  0  0  0  0  0
   44.2250   31.7230   37.6680 N   0  0  0  0  0  0  0  0  0  0  0  0
   47.1040   33.7400   42.5220 C   0  0  0  0  0  0  0  0  0  0  0  0
   44.6680   36.1080   44.1570 C   0  0  0  0  0  0  0  0  0  0  0  0
   45.5250   35.5190   43.2180 C   0  0  0  0  0  0  0  0  0  0  0  0
   46.2040   34.3630   43.4970 C   0  0  0  0  0  0  0  0  0  0  0  0
   46.0070   33.8240   44.7160 N   0  0  0  0  0  0  0  0  0  0  0  0
   45.1810   34.3830   45.6330 C   0  0  0  0  0  0  0  0  0  0  0  0
   44.5260   35.5130   45.3430 N   0  0  0  0  0  0  0  0  0  0  0  0
   44.9790   33.8080   46.9200 N   0  0  0  0  0  0  0  0  0  0  0  0
   45.8560   32.8250   47.4080 C   0  0  0  0  0  0  0  0  0  0  0  0
   47.1130   32.9140   47.2140 N   0  0  0  0  0  0  0  0  0  0  0  0
   45.3500   31.6920   48.1450 N   0  0  0  0  0  0  0  0  0  0  0  0
   47.5820   33.6810   46.7060 H   0  0  0  0  0  0  0  0  0  0  0  0
   47.2953   35.6912   41.6810 H   0  0  0  0  0  0  0  0  0  0  0  0
   48.7834   34.7015   41.6135 H   0  0  0  0  0  0  0  0  0  0  0  0
   49.2179   34.5467   39.2996 H   0  0  0  0  0  0  0  0  0  0  0  0
   48.6891   33.7810   37.0251 H   0  0  0  0  0  0  0  0  0  0  0  0
   43.4340   34.4948   39.3313 H   0  0  0  0  0  0  0  0  0  0  0  0
   41.1681   33.6810   38.8478 H   0  0  0  0  0  0  0  0  0  0  0  0
   42.8141   30.3657   36.8531 H   0  0  0  0  0  0  0  0  0  0  0  0
   46.5389   32.9667   41.9809 H   0  0  0  0  0  0  0  0  0  0  0  0
   47.9512   33.3383   43.0973 H   0  0  0  0  0  0  0  0  0  0  0  0
   44.1265   37.0364   43.9228 H   0  0  0  0  0  0  0  0  0  0  0  0
   45.6552   35.9956   42.2352 H   0  0  0  0  0  0  0  0  0  0  0  0
   44.1836   34.1153   47.4977 H   0  0  0  0  0  0  0  0  0  0  0  0
   46.0002   30.9760   48.4992 H   0  0  0  0  0  0  0  0  0  0  0  0
   44.3387   31.5994   48.3168 H   0  0  0  0  0  0  0  0  0  0  0  0
  1 14  1  0
  2  1  1  0
  3  2  2  0
  4  3  1  0
  5  4  2  0
  5  6  1  0
  6  7  2  0
  7  2  1  0
  8  6  1  0
  8  9  2  0
 10  9  1  0
 11 10  2  0
 12 13  2  0
 12 11  1  0
 13  8  1  0
 14 17  1  0
 15 20  2  0
 16 17  2  0
 16 15  1  0
 17 18  1  0
 18 19  2  0
 19 21  1  0
 20 19  1  0
 21 22  1  0
 22 24  1  0
 23 22  2  0
 25 23  1  0
  1 26  1  0
  1 27  1  0
  3 28  1  0
  4 29  1  0
  9 30  1  0
 10 31  1  0
 12 32  1  0
 14 33  1  0
 14 34  1  0
 15 35  1  0
 16 36  1  0
 21 37  1  0
 24 38  1  0
 24 39  1  0
M  ISO  8  26   8  27   8  28  14  29  14  30  14  31  14  32  14  33   8
M  ISO  3  34   8  35  14  36  14
M  END
>  <minimizedAffinity>  (1) 
-6.44936466

>  <minimizedRMSD>  (1) 
0.0664649159

$$$$
