
     RDKit          3D

 40 43  0  0  0  0  0  0  0  0999 V2000
   45.7860   34.2190   41.0110 C   0  0  0  0  0  0  0  0  0  0  0  0
   46.3730   34.7950   42.1500 C   0  0  0  0  0  0  0  0  0  0  0  0
   47.7290   35.1230   42.1400 C   0  0  0  0  0  0  0  0  0  0  0  0
   48.4270   34.8630   41.0040 N   0  0  0  0  0  0  0  0  0  0  0  0
   47.8310   34.3030   39.9160 C   0  0  0  0  0  0  0  0  0  0  0  0
   46.5250   33.9960   39.9490 N   0  0  0  0  0  0  0  0  0  0  0  0
   45.6870   35.0870   43.3620 N   0  0  0  0  0  0  0  0  0  0  0  0
   44.8820   36.0520   43.8130 C   0  0  0  0  0  0  0  0  0  0  0  0
   44.5130   35.8140   45.0800 N   0  0  0  0  0  0  0  0  0  0  0  0
   45.0870   34.6720   45.4690 C   0  0  0  0  0  0  0  0  0  0  0  0
   44.9830   34.0500   46.6990 C   0  0  0  0  0  0  0  0  0  0  0  0
   45.6710   32.8870   46.8430 N   0  0  0  0  0  0  0  0  0  0  0  0
   46.4030   32.4110   45.8060 C   0  0  0  0  0  0  0  0  0  0  0  0
   46.4750   33.0530   44.6260 N   0  0  0  0  0  0  0  0  0  0  0  0
   45.8120   34.2210   44.4120 C   0  0  0  0  0  0  0  0  0  0  0  0
   44.3620   33.9350   41.1830 C   0  0  0  0  0  0  0  0  0  0  0  0
   43.4880   34.9980   40.5390 C   0  0  0  0  0  0  0  0  0  0  0  0
   42.3790   34.4100   39.8120 N   0  0  0  0  0  0  0  0  0  0  0  0
   41.1310   34.4660   40.3490 C   0  0  0  0  0  0  0  0  0  0  0  0
   40.0810   33.9070   39.6560 C   0  0  0  0  0  0  0  0  0  0  0  0
   38.6650   33.9000   40.1320 C   0  0  0  0  0  0  0  0  0  0  0  0
   40.3110   33.2960   38.4230 C   0  0  0  0  0  0  0  0  0  0  0  0
   39.3970   32.7680   37.7420 O   0  0  0  0  0  0  0  0  0  0  0  0
   41.5580   33.2420   37.8910 N   0  0  0  0  0  0  0  0  0  0  0  0
   42.5390   33.8060   38.6170 C   0  0  0  0  0  0  0  0  0  0  0  0
   43.7030   33.7440   38.0980 O   0  0  0  0  0  0  0  0  0  0  0  0
   48.2141   35.5746   43.0179 H   0  0  0  0  0  0  0  0  0  0  0  0
   48.4202   34.1019   39.0091 H   0  0  0  0  0  0  0  0  0  0  0  0
   44.5641   36.9251   43.2242 H   0  0  0  0  0  0  0  0  0  0  0  0
   44.3778   34.4723   47.5147 H   0  0  0  0  0  0  0  0  0  0  0  0
   46.9563   31.4689   45.9336 H   0  0  0  0  0  0  0  0  0  0  0  0
   44.1357   32.9621   40.7223 H   0  0  0  0  0  0  0  0  0  0  0  0
   44.1454   33.9244   42.2614 H   0  0  0  0  0  0  0  0  0  0  0  0
   43.0902   35.6570   41.3248 H   0  0  0  0  0  0  0  0  0  0  0  0
   44.1049   35.5644   39.8258 H   0  0  0  0  0  0  0  0  0  0  0  0
   40.9630   34.9505   41.3222 H   0  0  0  0  0  0  0  0  0  0  0  0
   38.6479   33.8999   41.2319 H   0  0  0  0  0  0  0  0  0  0  0  0
   38.1478   34.7956   39.7573 H   0  0  0  0  0  0  0  0  0  0  0  0
   38.1567   32.9993   39.7573 H   0  0  0  0  0  0  0  0  0  0  0  0
   41.7427   32.7941   36.9821 H   0  0  0  0  0  0  0  0  0  0  0  0
  1 16  1  0
  1  2  1  0
  2  7  1  0
  3  2  2  0
  4  3  1  0
  5  6  1  0
  5  4  2  0
  6  1  2  0
  7  8  1  0
  7 15  1  0
  8  9  2  0
  9 10  1  0
 10 11  2  0
 11 12  1  0
 13 12  2  0
 14 13  1  0
 15 14  2  0
 15 10  1  0
 17 16  1  0
 18 19  1  0
 18 17  1  0
 20 21  1  0
 20 19  2  0
 22 20  1  0
 23 22  2  0
 24 22  1  0
 24 25  1  0
 25 18  1  0
 26 25  2  0
  3 27  1  0
  5 28  1  0
  8 29  1  0
 11 30  1  0
 13 31  1  0
 16 32  1  0
 16 33  1  0
 17 34  1  0
 17 35  1  0
 19 36  1  0
 21 37  1  0
 21 38  1  0
 21 39  1  0
 24 40  1  0
M  ISO  8  27  14  28  14  29  14  30  14  31  14  32   8  33   8  34   8
M  ISO  6  35   8  36  14  37   8  38   8  39   8  40   9
M  END
>  <minimizedAffinity>  (1) 
-6.64104557

>  <minimizedRMSD>  (1) 
1.33591866

$$$$
