
     RDKit          3D

 38 42  0  0  0  0  0  0  0  0999 V2000
   46.0540   34.1120   40.9070 C   0  0  0  0  0  0  0  0  0  0  0  0
   46.5390   34.8460   42.0030 C   0  0  0  0  0  0  0  0  0  0  0  0
   47.8480   35.3440   41.9860 C   0  0  0  0  0  0  0  0  0  0  0  0
   48.5990   35.0840   40.8850 N   0  0  0  0  0  0  0  0  0  0  0  0
   48.0980   34.3690   39.8390 C   0  0  0  0  0  0  0  0  0  0  0  0
   46.8420   33.9030   39.8760 N   0  0  0  0  0  0  0  0  0  0  0  0
   45.7930   35.1440   43.1790 N   0  0  0  0  0  0  0  0  0  0  0  0
   44.9370   36.1030   43.5680 C   0  0  0  0  0  0  0  0  0  0  0  0
   44.5220   35.8790   44.8260 N   0  0  0  0  0  0  0  0  0  0  0  0
   45.1120   34.7620   45.2630 C   0  0  0  0  0  0  0  0  0  0  0  0
   44.9670   34.1710   46.4990 C   0  0  0  0  0  0  0  0  0  0  0  0
   45.6760   33.0390   46.7000 N   0  0  0  0  0  0  0  0  0  0  0  0
   46.4760   32.5510   45.7040 C   0  0  0  0  0  0  0  0  0  0  0  0
   46.5830   33.1670   44.5140 N   0  0  0  0  0  0  0  0  0  0  0  0
   45.8970   34.3110   44.2410 C   0  0  0  0  0  0  0  0  0  0  0  0
   44.6740   33.6640   41.0780 C   0  0  0  0  0  0  0  0  0  0  0  0
   43.8070   34.0040   39.8770 C   0  0  0  0  0  0  0  0  0  0  0  0
   42.4570   34.4190   40.2890 N   0  0  0  0  0  0  0  0  0  0  0  0
   42.1500   35.0330   41.4630 C   0  0  0  0  0  0  0  0  0  0  0  0
   40.8230   35.2670   41.5080 N   0  0  0  0  0  0  0  0  0  0  0  0
   40.2550   34.8050   40.3570 C   0  0  0  0  0  0  0  0  0  0  0  0
   38.9870   34.7530   39.8300 C   0  0  0  0  0  0  0  0  0  0  0  0
   38.7310   34.2150   38.6270 N   0  0  0  0  0  0  0  0  0  0  0  0
   39.7650   33.7090   37.9210 C   0  0  0  0  0  0  0  0  0  0  0  0
   41.0330   33.7450   38.4180 N   0  0  0  0  0  0  0  0  0  0  0  0
   41.3000   34.2810   39.6190 C   0  0  0  0  0  0  0  0  0  0  0  0
   48.2513   35.9223   42.8303 H   0  0  0  0  0  0  0  0  0  0  0  0
   48.7282   34.1731   38.9589 H   0  0  0  0  0  0  0  0  0  0  0  0
   44.6203   36.9521   42.9445 H   0  0  0  0  0  0  0  0  0  0  0  0
   44.3133   34.5953   47.2753 H   0  0  0  0  0  0  0  0  0  0  0  0
   47.0481   31.6284   45.8816 H   0  0  0  0  0  0  0  0  0  0  0  0
   44.6707   32.5732   41.2198 H   0  0  0  0  0  0  0  0  0  0  0  0
   44.2566   34.1829   41.9535 H   0  0  0  0  0  0  0  0  0  0  0  0
   43.7271   33.1173   39.2309 H   0  0  0  0  0  0  0  0  0  0  0  0
   44.2762   34.8398   39.3372 H   0  0  0  0  0  0  0  0  0  0  0  0
   42.8704   35.2970   42.2512 H   0  0  0  0  0  0  0  0  0  0  0  0
   38.1521   35.1669   40.4146 H   0  0  0  0  0  0  0  0  0  0  0  0
   39.5813   33.2624   36.9327 H   0  0  0  0  0  0  0  0  0  0  0  0
  1 16  1  0
  1  2  1  0
  2  7  1  0
  3  2  2  0
  4  3  1  0
  5  6  1  0
  5  4  2  0
  6  1  2  0
  7  8  1  0
  7 15  1  0
  8  9  2  0
  9 10  1  0
 10 11  2  0
 11 12  1  0
 13 12  2  0
 14 13  1  0
 15 14  2  0
 15 10  1  0
 17 18  1  0
 17 16  1  0
 18 19  1  0
 19 20  2  0
 21 20  1  0
 22 21  2  0
 23 22  1  0
 24 25  1  0
 24 23  2  0
 25 26  2  0
 26 18  1  0
 26 21  1  0
  3 27  1  0
  5 28  1  0
  8 29  1  0
 11 30  1  0
 13 31  1  0
 16 32  1  0
 16 33  1  0
 17 34  1  0
 17 35  1  0
 19 36  1  0
 22 37  1  0
 24 38  1  0
M  ISO  8  27  14  28  14  29  14  30  14  31  14  32   8  33   8  34   8
M  ISO  4  35   8  36  14  37  14  38  14
M  END
>  <minimizedAffinity>  (1) 
-6.59288502

>  <minimizedRMSD>  (1) 
0.976947367

$$$$
