
     RDKit          3D

 40 43  0  0  0  0  0  0  0  0999 V2000
   45.8520   34.2690   40.9790 C   0  0  0  0  0  0  0  0  0  0  0  0
   46.4380   34.8320   42.1200 C   0  0  0  0  0  0  0  0  0  0  0  0
   47.7990   35.1390   42.1110 C   0  0  0  0  0  0  0  0  0  0  0  0
   48.5010   34.8800   40.9940 N   0  0  0  0  0  0  0  0  0  0  0  0
   47.9090   34.3320   39.8930 C   0  0  0  0  0  0  0  0  0  0  0  0
   46.6020   34.0420   39.9150 N   0  0  0  0  0  0  0  0  0  0  0  0
   45.7420   35.1230   43.3220 N   0  0  0  0  0  0  0  0  0  0  0  0
   44.9380   36.0980   43.7690 C   0  0  0  0  0  0  0  0  0  0  0  0
   44.5540   35.8540   45.0330 N   0  0  0  0  0  0  0  0  0  0  0  0
   45.1180   34.6980   45.4140 C   0  0  0  0  0  0  0  0  0  0  0  0
   44.9820   34.0810   46.6430 C   0  0  0  0  0  0  0  0  0  0  0  0
   45.6590   32.9130   46.7810 N   0  0  0  0  0  0  0  0  0  0  0  0
   46.4000   32.4290   45.7550 C   0  0  0  0  0  0  0  0  0  0  0  0
   46.4940   33.0760   44.5790 N   0  0  0  0  0  0  0  0  0  0  0  0
   45.8430   34.2560   44.3630 C   0  0  0  0  0  0  0  0  0  0  0  0
   44.4220   33.9990   41.1260 C   0  0  0  0  0  0  0  0  0  0  0  0
   43.5660   35.1280   40.6100 C   0  0  0  0  0  0  0  0  0  0  0  0
   39.7870   33.6920   39.2010 C   0  0  0  0  0  0  0  0  0  0  0  0
   40.8930   32.8720   39.3040 C   0  0  0  0  0  0  0  0  0  0  0  0
   42.0790   33.3940   39.7650 C   0  0  0  0  0  0  0  0  0  0  0  0
   42.2290   34.7320   40.1400 C   0  0  0  0  0  0  0  0  0  0  0  0
   41.1260   35.5130   40.0270 C   0  0  0  0  0  0  0  0  0  0  0  0
   39.9020   35.0200   39.5640 C   0  0  0  0  0  0  0  0  0  0  0  0
   38.2580   33.0680   38.6210 S   0  0  0  0  0  0  0  0  0  0  0  0
   38.3050   31.5610   38.6530 O   0  0  0  0  0  0  0  0  0  0  0  0
   37.9810   33.5110   37.2170 O   0  0  0  0  0  0  0  0  0  0  0  0
   48.2844   35.5809   42.9937 H   0  0  0  0  0  0  0  0  0  0  0  0
   48.5039   34.1292   38.9902 H   0  0  0  0  0  0  0  0  0  0  0  0
   44.6344   36.9771   43.1816 H   0  0  0  0  0  0  0  0  0  0  0  0
   44.3690   34.5061   47.4514 H   0  0  0  0  0  0  0  0  0  0  0  0
   46.9402   31.4799   45.8873 H   0  0  0  0  0  0  0  0  0  0  0  0
   44.1760   33.0850   40.5656 H   0  0  0  0  0  0  0  0  0  0  0  0
   44.2119   33.8835   42.1996 H   0  0  0  0  0  0  0  0  0  0  0  0
   43.4392   35.8586   41.4225 H   0  0  0  0  0  0  0  0  0  0  0  0
   44.0911   35.5352   39.7334 H   0  0  0  0  0  0  0  0  0  0  0  0
   40.8263   31.8114   39.0201 H   0  0  0  0  0  0  0  0  0  0  0  0
   42.9504   32.7271   39.8422 H   0  0  0  0  0  0  0  0  0  0  0  0
   41.1968   36.5736   40.3100 H   0  0  0  0  0  0  0  0  0  0  0  0
   39.0319   35.6888   39.4889 H   0  0  0  0  0  0  0  0  0  0  0  0
   37.2620   33.5482   39.4299 H   0  0  0  0  0  0  0  0  0  0  0  0
  1 16  1  0
  1  2  1  0
  2  7  1  0
  3  2  2  0
  4  3  1  0
  5  6  1  0
  5  4  2  0
  6  1  2  0
  7  8  1  0
  7 15  1  0
  8  9  2  0
  9 10  1  0
 10 11  2  0
 11 12  1  0
 13 12  2  0
 14 13  1  0
 15 14  2  0
 15 10  1  0
 17 16  1  0
 18 19  2  0
 18 23  1  0
 19 20  1  0
 20 21  2  0
 21 17  1  0
 22 21  1  0
 23 22  2  0
 24 25  2  0
 24 18  1  0
 26 24  2  0
  3 27  1  0
  5 28  1  0
  8 29  1  0
 11 30  1  0
 13 31  1  0
 16 32  1  0
 16 33  1  0
 17 34  1  0
 17 35  1  0
 19 36  1  0
 20 37  1  0
 22 38  1  0
 23 39  1  0
 24 40  1  0
M  ISO  8  27  14  28  14  29  14  30  14  31  14  32   8  33   8  34   8
M  ISO  6  35   8  36  14  37  14  38  14  39  14  40  11
M  END
>  <minimizedAffinity>  (1) 
-6.34156322

>  <minimizedRMSD>  (1) 
1.00033855

$$$$
