
     RDKit          3D

 40 43  0  0  0  0  0  0  0  0999 V2000
   45.9160   34.2340   40.9310 C   0  0  0  0  0  0  0  0  0  0  0  0
   46.4780   34.8390   42.0790 C   0  0  0  0  0  0  0  0  0  0  0  0
   47.8210   35.1750   42.0820 C   0  0  0  0  0  0  0  0  0  0  0  0
   48.5450   34.9060   40.9720 N   0  0  0  0  0  0  0  0  0  0  0  0
   47.9710   34.3220   39.8830 C   0  0  0  0  0  0  0  0  0  0  0  0
   46.6880   34.0040   39.8880 N   0  0  0  0  0  0  0  0  0  0  0  0
   45.7540   35.1370   43.2640 N   0  0  0  0  0  0  0  0  0  0  0  0
   44.9250   36.1010   43.6830 C   0  0  0  0  0  0  0  0  0  0  0  0
   44.5210   35.8750   44.9470 N   0  0  0  0  0  0  0  0  0  0  0  0
   45.1040   34.7320   45.3620 C   0  0  0  0  0  0  0  0  0  0  0  0
   44.9630   34.1390   46.5860 C   0  0  0  0  0  0  0  0  0  0  0  0
   45.6610   32.9800   46.7660 N   0  0  0  0  0  0  0  0  0  0  0  0
   46.4240   32.4980   45.7620 C   0  0  0  0  0  0  0  0  0  0  0  0
   46.5260   33.1270   44.5720 N   0  0  0  0  0  0  0  0  0  0  0  0
   45.8570   34.2860   44.3280 C   0  0  0  0  0  0  0  0  0  0  0  0
   44.4720   33.9290   41.0780 C   0  0  0  0  0  0  0  0  0  0  0  0
   43.6280   34.9850   40.4100 C   0  0  0  0  0  0  0  0  0  0  0  0
   42.2480   34.6690   40.2570 N   0  0  0  0  0  0  0  0  0  0  0  0
   41.5240   35.6460   41.0990 C   0  0  0  0  0  0  0  0  0  0  0  0
   40.1470   35.9230   40.5960 C   0  0  0  0  0  0  0  0  0  0  0  0
   39.6160   34.9720   39.7620 O   0  0  0  0  0  0  0  0  0  0  0  0
   40.4090   34.6400   38.6950 C   0  0  0  0  0  0  0  0  0  0  0  0
   41.8560   35.0420   38.8860 C   0  0  0  0  0  0  0  0  0  0  0  0
   48.2851   35.6465   42.9608 H   0  0  0  0  0  0  0  0  0  0  0  0
   48.5808   34.1133   38.9916 H   0  0  0  0  0  0  0  0  0  0  0  0
   44.6150   36.9636   43.0749 H   0  0  0  0  0  0  0  0  0  0  0  0
   44.3279   34.5684   47.3748 H   0  0  0  0  0  0  0  0  0  0  0  0
   46.9807   31.5623   45.9187 H   0  0  0  0  0  0  0  0  0  0  0  0
   44.2611   32.9536   40.6153 H   0  0  0  0  0  0  0  0  0  0  0  0
   44.2248   33.9076   42.1496 H   0  0  0  0  0  0  0  0  0  0  0  0
   43.6994   35.9040   41.0103 H   0  0  0  0  0  0  0  0  0  0  0  0
   44.0268   35.0855   39.3898 H   0  0  0  0  0  0  0  0  0  0  0  0
   41.4525   35.2462   42.1213 H   0  0  0  0  0  0  0  0  0  0  0  0
   42.0860   36.5912   41.0731 H   0  0  0  0  0  0  0  0  0  0  0  0
   39.4818   36.0182   41.4669 H   0  0  0  0  0  0  0  0  0  0  0  0
   40.2266   36.8397   39.9933 H   0  0  0  0  0  0  0  0  0  0  0  0
   40.0202   35.1453   37.7986 H   0  0  0  0  0  0  0  0  0  0  0  0
   40.3823   33.5451   38.5932 H   0  0  0  0  0  0  0  0  0  0  0  0
   42.4904   34.5146   38.1584 H   0  0  0  0  0  0  0  0  0  0  0  0
   41.9786   36.1242   38.7314 H   0  0  0  0  0  0  0  0  0  0  0  0
  1 16  1  0
  1  2  1  0
  2  3  2  0
  2  7  1  0
  4  3  1  0
  5  6  1  0
  5  4  2  0
  6  1  2  0
  7  8  1  0
  7 15  1  0
  8  9  2  0
  9 10  1  0
 10 11  2  0
 11 12  1  0
 13 12  2  0
 14 13  1  0
 15 14  2  0
 15 10  1  0
 17 16  1  0
 18 17  1  0
 18 19  1  0
 20 19  1  0
 21 20  1  0
 22 23  1  0
 22 21  1  0
 23 18  1  0
  3 24  1  0
  5 25  1  0
  8 26  1  0
 11 27  1  0
 13 28  1  0
 16 29  1  0
 16 30  1  0
 17 31  1  0
 17 32  1  0
 19 33  1  0
 19 34  1  0
 20 35  1  0
 20 36  1  0
 22 37  1  0
 22 38  1  0
 23 39  1  0
 23 40  1  0
M  ISO  8  24  14  25  14  26  14  27  14  28  14  29   8  30   8  31   8
M  ISO  8  32   8  33  13  34  13  35  13  36  13  37  13  38  13  39  13
M  ISO  1  40  13
M  END
>  <minimizedAffinity>  (1) 
-6.00801611

>  <minimizedRMSD>  (1) 
0.431394905

$$$$
