
     RDKit          3D

 37 40  0  0  0  0  0  0  0  0999 V2000
   45.8690   34.2060   40.9760 C   0  0  0  0  0  0  0  0  0  0  0  0
   46.4380   34.8300   42.1060 C   0  0  0  0  0  0  0  0  0  0  0  0
   47.7780   35.2040   42.0780 C   0  0  0  0  0  0  0  0  0  0  0  0
   48.4900   34.9520   40.9600 N   0  0  0  0  0  0  0  0  0  0  0  0
   47.9130   34.3450   39.8800 C   0  0  0  0  0  0  0  0  0  0  0  0
   46.6260   33.9870   39.9080 N   0  0  0  0  0  0  0  0  0  0  0  0
   45.7390   35.1180   43.3030 N   0  0  0  0  0  0  0  0  0  0  0  0
   44.9180   36.0890   43.7380 C   0  0  0  0  0  0  0  0  0  0  0  0
   44.5330   35.8490   45.0100 N   0  0  0  0  0  0  0  0  0  0  0  0
   45.1140   34.7030   45.4030 C   0  0  0  0  0  0  0  0  0  0  0  0
   44.9940   34.0910   46.6250 C   0  0  0  0  0  0  0  0  0  0  0  0
   45.6810   32.9380   46.7810 N   0  0  0  0  0  0  0  0  0  0  0  0
   46.4330   32.4530   45.7610 C   0  0  0  0  0  0  0  0  0  0  0  0
   46.5210   33.0910   44.5770 N   0  0  0  0  0  0  0  0  0  0  0  0
   45.8610   34.2500   44.3470 C   0  0  0  0  0  0  0  0  0  0  0  0
   44.4540   33.8670   41.1420 C   0  0  0  0  0  0  0  0  0  0  0  0
   43.5510   34.9190   40.5380 C   0  0  0  0  0  0  0  0  0  0  0  0
   42.1690   34.5350   40.5060 N   0  0  0  0  0  0  0  0  0  0  0  0
   41.3240   35.3680   39.8690 C   0  0  0  0  0  0  0  0  0  0  0  0
   39.9750   35.1070   39.7700 C   0  0  0  0  0  0  0  0  0  0  0  0
   39.5280   33.9420   40.3630 C   0  0  0  0  0  0  0  0  0  0  0  0
   38.3070   33.5700   40.3530 O   0  0  0  0  0  0  0  0  0  0  0  0
   40.3530   33.0830   41.0130 N   0  0  0  0  0  0  0  0  0  0  0  0
   41.6650   33.4140   41.0630 C   0  0  0  0  0  0  0  0  0  0  0  0
   42.5020   32.6580   41.6560 O   0  0  0  0  0  0  0  0  0  0  0  0
   48.2451   35.6929   42.9456 H   0  0  0  0  0  0  0  0  0  0  0  0
   48.5136   34.1494   38.9794 H   0  0  0  0  0  0  0  0  0  0  0  0
   44.6035   36.9579   43.1413 H   0  0  0  0  0  0  0  0  0  0  0  0
   44.3752   34.5139   47.4301 H   0  0  0  0  0  0  0  0  0  0  0  0
   46.9862   31.5131   45.9044 H   0  0  0  0  0  0  0  0  0  0  0  0
   44.2582   32.9035   40.6486 H   0  0  0  0  0  0  0  0  0  0  0  0
   44.2398   33.8095   42.2194 H   0  0  0  0  0  0  0  0  0  0  0  0
   43.6431   35.8401   41.1322 H   0  0  0  0  0  0  0  0  0  0  0  0
   43.8720   35.0621   39.4956 H   0  0  0  0  0  0  0  0  0  0  0  0
   41.7237   36.2859   39.4133 H   0  0  0  0  0  0  0  0  0  0  0  0
   39.2899   35.7901   39.2465 H   0  0  0  0  0  0  0  0  0  0  0  0
   39.9979   32.2196   41.4480 H   0  0  0  0  0  0  0  0  0  0  0  0
  1 16  1  0
  1  2  1  0
  2  7  1  0
  3  2  2  0
  4  3  1  0
  5  6  1  0
  5  4  2  0
  6  1  2  0
  7  8  1  0
  7 15  1  0
  8  9  2  0
  9 10  1  0
 10 11  2  0
 11 12  1  0
 13 12  2  0
 14 13  1  0
 15 14  2  0
 15 10  1  0
 17 16  1  0
 18 17  1  0
 18 24  1  0
 19 18  1  0
 20 19  2  0
 20 21  1  0
 21 23  1  0
 22 21  2  0
 23 24  1  0
 24 25  2  0
  3 26  1  0
  5 27  1  0
  8 28  1  0
 11 29  1  0
 13 30  1  0
 16 31  1  0
 16 32  1  0
 17 33  1  0
 17 34  1  0
 19 35  1  0
 20 36  1  0
 23 37  1  0
M  ISO  8  26  14  27  14  28  14  29  14  30  14  31   8  32   8  33   8
M  ISO  4  34   8  35  14  36  14  37   9
M  END
>  <minimizedAffinity>  (1) 
-6.44821405

>  <minimizedRMSD>  (1) 
0.421964735

$$$$
