
     RDKit          3D

 37 40  0  0  0  0  0  0  0  0999 V2000
   45.8500   34.2120   40.9690 C   0  0  0  0  0  0  0  0  0  0  0  0
   46.4210   34.8260   42.1030 C   0  0  0  0  0  0  0  0  0  0  0  0
   47.7670   35.1840   42.0850 C   0  0  0  0  0  0  0  0  0  0  0  0
   48.4740   34.9230   40.9630 N   0  0  0  0  0  0  0  0  0  0  0  0
   47.8920   34.3250   39.8760 C   0  0  0  0  0  0  0  0  0  0  0  0
   46.5960   33.9870   39.9130 N   0  0  0  0  0  0  0  0  0  0  0  0
   45.7190   35.1230   43.3070 N   0  0  0  0  0  0  0  0  0  0  0  0
   44.9040   36.0880   43.7340 C   0  0  0  0  0  0  0  0  0  0  0  0
   44.5240   35.8520   45.0020 N   0  0  0  0  0  0  0  0  0  0  0  0
   45.1060   34.7040   45.4080 C   0  0  0  0  0  0  0  0  0  0  0  0
   44.9810   34.1050   46.6380 C   0  0  0  0  0  0  0  0  0  0  0  0
   45.6780   32.9450   46.7910 N   0  0  0  0  0  0  0  0  0  0  0  0
   46.4210   32.4710   45.7680 C   0  0  0  0  0  0  0  0  0  0  0  0
   46.5030   33.1010   44.5930 N   0  0  0  0  0  0  0  0  0  0  0  0
   45.8360   34.2730   44.3510 C   0  0  0  0  0  0  0  0  0  0  0  0
   44.4340   33.8960   41.1400 C   0  0  0  0  0  0  0  0  0  0  0  0
   43.5350   34.9240   40.4780 C   0  0  0  0  0  0  0  0  0  0  0  0
   42.0990   34.5230   40.5610 C   0  0  0  0  0  0  0  0  0  0  0  0
   41.1730   35.4030   40.0140 C   0  0  0  0  0  0  0  0  0  0  0  0
   39.8050   35.2160   39.9910 C   0  0  0  0  0  0  0  0  0  0  0  0
   39.3450   34.0480   40.5640 C   0  0  0  0  0  0  0  0  0  0  0  0
   40.2410   33.1420   41.1210 C   0  0  0  0  0  0  0  0  0  0  0  0
   41.6070   33.3650   41.1260 C   0  0  0  0  0  0  0  0  0  0  0  0
   48.2390   35.6634   42.9553 H   0  0  0  0  0  0  0  0  0  0  0  0
   48.4882   34.1227   38.9740 H   0  0  0  0  0  0  0  0  0  0  0  0
   44.5875   36.9541   43.1342 H   0  0  0  0  0  0  0  0  0  0  0  0
   44.3625   34.5316   47.4414 H   0  0  0  0  0  0  0  0  0  0  0  0
   46.9784   31.5330   45.9071 H   0  0  0  0  0  0  0  0  0  0  0  0
   44.2342   32.9106   40.6939 H   0  0  0  0  0  0  0  0  0  0  0  0
   44.2144   33.8984   42.2179 H   0  0  0  0  0  0  0  0  0  0  0  0
   43.8195   35.0203   39.4198 H   0  0  0  0  0  0  0  0  0  0  0  0
   43.6586   35.8826   41.0031 H   0  0  0  0  0  0  0  0  0  0  0  0
   41.5626   36.3266   39.5611 H   0  0  0  0  0  0  0  0  0  0  0  0
   39.1231   35.9537   39.5429 H   0  0  0  0  0  0  0  0  0  0  0  0
   38.2664   33.8329   40.5802 H   0  0  0  0  0  0  0  0  0  0  0  0
   39.8513   32.2177   41.5725 H   0  0  0  0  0  0  0  0  0  0  0  0
   42.2906   32.6290   41.5743 H   0  0  0  0  0  0  0  0  0  0  0  0
  1 16  1  0
  1  2  1  0
  2  7  1  0
  3  2  2  0
  4  3  1  0
  5  6  1  0
  5  4  2  0
  6  1  2  0
  7  8  1  0
  7 15  1  0
  8  9  2  0
  9 10  1  0
 10 11  2  0
 11 12  1  0
 13 12  2  0
 14 13  1  0
 15 14  2  0
 15 10  1  0
 17 18  1  0
 17 16  1  0
 18 23  1  0
 19 18  2  0
 20 19  1  0
 20 21  2  0
 21 22  1  0
 22 23  2  0
  3 24  1  0
  5 25  1  0
  8 26  1  0
 11 27  1  0
 13 28  1  0
 16 29  1  0
 16 30  1  0
 17 31  1  0
 17 32  1  0
 19 33  1  0
 20 34  1  0
 21 35  1  0
 22 36  1  0
 23 37  1  0
M  ISO  8  24  14  25  14  26  14  27  14  28  14  29   8  30   8  31   8
M  ISO  6  32   8  33  14  34  14  35  14  36  14  37  14
M  END
>  <minimizedAffinity>  (1) 
-6.26057482

>  <minimizedRMSD>  (1) 
0.434453428

$$$$
