
     RDKit          3D

 34 37  0  0  0  0  0  0  0  0999 V2000
   46.0680   34.0750   40.8560 C   0  0  0  0  0  0  0  0  0  0  0  0
   46.5450   34.8330   41.9420 C   0  0  0  0  0  0  0  0  0  0  0  0
   47.8410   35.3420   41.9230 C   0  0  0  0  0  0  0  0  0  0  0  0
   48.5970   35.0740   40.8320 N   0  0  0  0  0  0  0  0  0  0  0  0
   48.1080   34.3370   39.7950 C   0  0  0  0  0  0  0  0  0  0  0  0
   46.8580   33.8570   39.8330 N   0  0  0  0  0  0  0  0  0  0  0  0
   45.7930   35.1410   43.1070 N   0  0  0  0  0  0  0  0  0  0  0  0
   44.9260   36.0990   43.4860 C   0  0  0  0  0  0  0  0  0  0  0  0
   44.5100   35.8860   44.7440 N   0  0  0  0  0  0  0  0  0  0  0  0
   45.1090   34.7760   45.2010 C   0  0  0  0  0  0  0  0  0  0  0  0
   44.9580   34.2060   46.4450 C   0  0  0  0  0  0  0  0  0  0  0  0
   45.6810   33.0710   46.6670 N   0  0  0  0  0  0  0  0  0  0  0  0
   46.4770   32.5870   45.6870 C   0  0  0  0  0  0  0  0  0  0  0  0
   46.5930   33.1800   44.4820 N   0  0  0  0  0  0  0  0  0  0  0  0
   45.8980   34.3190   44.1920 C   0  0  0  0  0  0  0  0  0  0  0  0
   44.6910   33.6220   41.0440 C   0  0  0  0  0  0  0  0  0  0  0  0
   43.8130   33.9550   39.8510 C   0  0  0  0  0  0  0  0  0  0  0  0
   42.6090   34.6740   40.1880 C   0  0  0  0  0  0  0  0  0  0  0  0
   42.0780   35.0780   41.3990 C   0  0  0  0  0  0  0  0  0  0  0  0
   40.9110   35.7530   41.4520 C   0  0  0  0  0  0  0  0  0  0  0  0
   40.2780   36.0140   40.1860 C   0  0  0  0  0  0  0  0  0  0  0  0
   41.4400   35.2400   38.9030 S   0  0  0  0  0  0  0  0  0  0  0  0
   48.2345   35.9374   42.7600 H   0  0  0  0  0  0  0  0  0  0  0  0
   48.7443   34.1349   38.9207 H   0  0  0  0  0  0  0  0  0  0  0  0
   44.6037   36.9389   42.8529 H   0  0  0  0  0  0  0  0  0  0  0  0
   44.2968   34.6381   47.2106 H   0  0  0  0  0  0  0  0  0  0  0  0
   47.0541   31.6709   45.8812 H   0  0  0  0  0  0  0  0  0  0  0  0
   44.6929   32.5317   41.1898 H   0  0  0  0  0  0  0  0  0  0  0  0
   44.2803   34.1411   41.9226 H   0  0  0  0  0  0  0  0  0  0  0  0
   43.5269   33.0136   39.3593 H   0  0  0  0  0  0  0  0  0  0  0  0
   44.4032   34.6138   39.1971 H   0  0  0  0  0  0  0  0  0  0  0  0
   42.6139   34.8461   42.3312 H   0  0  0  0  0  0  0  0  0  0  0  0
   40.4704   36.0835   42.4042 H   0  0  0  0  0  0  0  0  0  0  0  0
   39.3316   36.5441   40.0035 H   0  0  0  0  0  0  0  0  0  0  0  0
  1 16  1  0
  1  2  1  0
  2  7  1  0
  3  2  2  0
  4  3  1  0
  5  6  1  0
  5  4  2  0
  6  1  2  0
  7  8  1  0
  7 15  1  0
  8  9  2  0
  9 10  1  0
 10 11  2  0
 11 12  1  0
 13 12  2  0
 14 13  1  0
 15 14  2  0
 15 10  1  0
 17 18  1  0
 17 16  1  0
 18 19  2  0
 19 20  1  0
 21 20  2  0
 22 21  1  0
 22 18  1  0
  3 23  1  0
  5 24  1  0
  8 25  1  0
 11 26  1  0
 13 27  1  0
 16 28  1  0
 16 29  1  0
 17 30  1  0
 17 31  1  0
 19 32  1  0
 20 33  1  0
 21 34  1  0
M  ISO  8  23  14  24  14  25  14  26  14  27  14  28   8  29   8  30   8
M  ISO  4  31   8  32  14  33  14  34  14
M  END
>  <minimizedAffinity>  (1) 
-5.90374851

>  <minimizedRMSD>  (1) 
0.96822691

$$$$
