
     RDKit          3D

 46 50  0  0  0  0  0  0  0  0999 V2000
   47.8220   33.8540   41.8470 C   0  0  0  0  0  0  0  0  0  0  0  0
   44.9280   35.7830   43.3180 C   0  0  0  0  0  0  0  0  0  0  0  0
   45.9220   35.3420   42.4310 C   0  0  0  0  0  0  0  0  0  0  0  0
   46.7750   34.3230   42.7660 C   0  0  0  0  0  0  0  0  0  0  0  0
   46.6240   33.7560   43.9820 N   0  0  0  0  0  0  0  0  0  0  0  0
   45.6480   34.1980   44.8390 C   0  0  0  0  0  0  0  0  0  0  0  0
   44.8320   35.1780   44.5120 N   0  0  0  0  0  0  0  0  0  0  0  0
   45.5310   33.5650   46.1140 N   0  0  0  0  0  0  0  0  0  0  0  0
   44.8690   33.8870   47.2350 C   0  0  0  0  0  0  0  0  0  0  0  0
   45.0760   32.9530   48.1850 N   0  0  0  0  0  0  0  0  0  0  0  0
   45.8870   32.0310   47.6410 C   0  0  0  0  0  0  0  0  0  0  0  0
   46.3960   30.8610   48.2170 C   0  0  0  0  0  0  0  0  0  0  0  0
   46.1380   30.5120   49.3920 O   0  0  0  0  0  0  0  0  0  0  0  0
   47.1890   30.1320   47.4110 N   0  0  0  0  0  0  0  0  0  0  0  0
   47.4870   30.4750   46.1480 C   0  0  0  0  0  0  0  0  0  0  0  0
   48.3220   29.7220   45.2800 N   0  0  0  0  0  0  0  0  0  0  0  0
   46.9930   31.5980   45.6050 N   0  0  0  0  0  0  0  0  0  0  0  0
   46.1790   32.3990   46.3480 C   0  0  0  0  0  0  0  0  0  0  0  0
   48.2480   34.8580   40.8250 C   0  0  0  0  0  0  0  0  0  0  0  0
   47.8410   34.3560   39.4820 C   0  0  0  0  0  0  0  0  0  0  0  0
   48.6520   34.4600   38.3700 C   0  0  0  0  0  0  0  0  0  0  0  0
   48.3610   34.0220   37.1090 C   0  0  0  0  0  0  0  0  0  0  0  0
   47.1390   33.4280   36.9800 N   0  0  0  0  0  0  0  0  0  0  0  0
   46.3260   33.3130   38.0480 C   0  0  0  0  0  0  0  0  0  0  0  0
   46.6240   33.7510   39.2960 N   0  0  0  0  0  0  0  0  0  0  0  0
   45.0360   32.6620   37.8380 C   0  0  0  0  0  0  0  0  0  0  0  0
   43.9050   33.0490   38.5300 C   0  0  0  0  0  0  0  0  0  0  0  0
   42.6990   32.4420   38.3390 C   0  0  0  0  0  0  0  0  0  0  0  0
   42.5940   31.4480   37.4650 N   0  0  0  0  0  0  0  0  0  0  0  0
   43.6990   31.0720   36.7890 C   0  0  0  0  0  0  0  0  0  0  0  0
   44.9250   31.6590   36.9550 N   0  0  0  0  0  0  0  0  0  0  0  0
   48.7034   33.5767   42.4438 H   0  0  0  0  0  0  0  0  0  0  0  0
   47.3930   33.0067   41.2919 H   0  0  0  0  0  0  0  0  0  0  0  0
   44.2468   36.6015   43.0424 H   0  0  0  0  0  0  0  0  0  0  0  0
   46.0185   35.8240   41.4469 H   0  0  0  0  0  0  0  0  0  0  0  0
   44.2461   34.7848   47.3613 H   0  0  0  0  0  0  0  0  0  0  0  0
   47.5907   29.2603   47.7847 H   0  0  0  0  0  0  0  0  0  0  0  0
   48.5020   30.0545   44.3219 H   0  0  0  0  0  0  0  0  0  0  0  0
   48.7475   28.8435   45.6087 H   0  0  0  0  0  0  0  0  0  0  0  0
   47.7602   35.8234   41.0253 H   0  0  0  0  0  0  0  0  0  0  0  0
   49.3381   35.0005   40.8633 H   0  0  0  0  0  0  0  0  0  0  0  0
   49.6296   34.9435   38.5133 H   0  0  0  0  0  0  0  0  0  0  0  0
   49.0564   34.1388   36.2647 H   0  0  0  0  0  0  0  0  0  0  0  0
   43.9794   33.8713   39.2568 H   0  0  0  0  0  0  0  0  0  0  0  0
   41.8172   32.7743   38.9064 H   0  0  0  0  0  0  0  0  0  0  0  0
   43.6105   30.2488   36.0648 H   0  0  0  0  0  0  0  0  0  0  0  0
  1  4  1  0
  2  7  2  0
  3  4  2  0
  3  2  1  0
  4  5  1  0
  5  6  2  0
  6  8  1  0
  7  6  1  0
  8 18  1  0
  8  9  1  0
  9 10  2  0
 11 10  1  0
 11 12  1  0
 12 13  2  0
 14 12  1  0
 15 14  1  0
 16 15  1  0
 17 15  2  0
 17 18  1  0
 18 11  2  0
 19  1  1  0
 20 19  1  0
 21 20  2  0
 22 21  1  0
 23 22  2  0
 23 24  1  0
 24 25  2  0
 25 20  1  0
 26 24  1  0
 26 27  2  0
 28 27  1  0
 29 28  2  0
 30 31  2  0
 30 29  1  0
 31 26  1  0
  1 32  1  0
  1 33  1  0
  2 34  1  0
  3 35  1  0
  9 36  1  0
 14 37  1  0
 16 38  1  0
 16 39  1  0
 19 40  1  0
 19 41  1  0
 21 42  1  0
 22 43  1  0
 27 44  1  0
 28 45  1  0
 30 46  1  0
M  ISO  8  32   8  33   8  34  14  35  14  36  14  37   9  40   8  41   8
M  ISO  5  42  14  43  14  44  14  45  14  46  14
M  END
>  <minimizedAffinity>  (1) 
-6.31454802

>  <minimizedRMSD>  (1) 
0.969458163

$$$$
