
     RDKit          3D

 34 37  0  0  0  0  0  0  0  0999 V2000
   46.0420   34.0650   40.9040 C   0  0  0  0  0  0  0  0  0  0  0  0
   46.5170   34.8140   42.0070 C   0  0  0  0  0  0  0  0  0  0  0  0
   47.8060   35.3510   41.9640 C   0  0  0  0  0  0  0  0  0  0  0  0
   48.5430   35.1210   40.8470 N   0  0  0  0  0  0  0  0  0  0  0  0
   48.0480   34.3930   39.8040 C   0  0  0  0  0  0  0  0  0  0  0  0
   46.8200   33.8890   39.8610 N   0  0  0  0  0  0  0  0  0  0  0  0
   45.7790   35.0760   43.1900 N   0  0  0  0  0  0  0  0  0  0  0  0
   44.8880   35.9860   43.5970 C   0  0  0  0  0  0  0  0  0  0  0  0
   44.5050   35.7420   44.8640 N   0  0  0  0  0  0  0  0  0  0  0  0
   45.1570   34.6510   45.2910 C   0  0  0  0  0  0  0  0  0  0  0  0
   45.0650   34.0510   46.5210 C   0  0  0  0  0  0  0  0  0  0  0  0
   45.8360   32.9460   46.7120 N   0  0  0  0  0  0  0  0  0  0  0  0
   46.6330   32.5070   45.7030 C   0  0  0  0  0  0  0  0  0  0  0  0
   46.6930   33.1250   44.5120 N   0  0  0  0  0  0  0  0  0  0  0  0
   45.9460   34.2390   44.2550 C   0  0  0  0  0  0  0  0  0  0  0  0
   44.6750   33.5730   41.1070 C   0  0  0  0  0  0  0  0  0  0  0  0
   43.6630   34.4360   40.3940 C   0  0  0  0  0  0  0  0  0  0  0  0
   42.3260   34.3770   40.9850 C   0  0  0  0  0  0  0  0  0  0  0  0
   41.5070   33.2750   40.8390 C   0  0  0  0  0  0  0  0  0  0  0  0
   40.3360   33.5260   41.5010 C   0  0  0  0  0  0  0  0  0  0  0  0
   40.4690   34.7690   42.0330 N   0  0  0  0  0  0  0  0  0  0  0  0
   41.6600   35.2830   41.7260 N   0  0  0  0  0  0  0  0  0  0  0  0
   48.2085   35.9377   42.8029 H   0  0  0  0  0  0  0  0  0  0  0  0
   48.6687   34.2227   38.9120 H   0  0  0  0  0  0  0  0  0  0  0  0
   44.5188   36.8193   42.9812 H   0  0  0  0  0  0  0  0  0  0  0  0
   44.4046   34.4414   47.3093 H   0  0  0  0  0  0  0  0  0  0  0  0
   47.2518   31.6126   45.8676 H   0  0  0  0  0  0  0  0  0  0  0  0
   44.6041   32.5457   40.7201 H   0  0  0  0  0  0  0  0  0  0  0  0
   44.4548   33.6028   42.1843 H   0  0  0  0  0  0  0  0  0  0  0  0
   43.5963   34.1024   39.3479 H   0  0  0  0  0  0  0  0  0  0  0  0
   44.0085   35.4769   40.4787 H   0  0  0  0  0  0  0  0  0  0  0  0
   41.7529   32.3559   40.2870 H   0  0  0  0  0  0  0  0  0  0  0  0
   39.4658   32.8585   41.5851 H   0  0  0  0  0  0  0  0  0  0  0  0
   39.7503   35.2472   42.5948 H   0  0  0  0  0  0  0  0  0  0  0  0
  1 16  1  0
  1  2  1  0
  2  7  1  0
  3  2  2  0
  4  3  1  0
  5  6  1  0
  5  4  2  0
  6  1  2  0
  7  8  1  0
  7 15  1  0
  8  9  2  0
  9 10  1  0
 10 11  2  0
 11 12  1  0
 13 12  2  0
 14 13  1  0
 15 14  2  0
 15 10  1  0
 17 18  1  0
 17 16  1  0
 18 22  2  0
 19 18  1  0
 19 20  2  0
 20 21  1  0
 22 21  1  0
  3 23  1  0
  5 24  1  0
  8 25  1  0
 11 26  1  0
 13 27  1  0
 16 28  1  0
 16 29  1  0
 17 30  1  0
 17 31  1  0
 19 32  1  0
 20 33  1  0
 21 34  1  0
M  ISO  8  23  14  24  14  25  14  26  14  27  14  28   8  29   8  30   8
M  ISO  4  31   8  32  14  33  14  34   9
M  END
>  <minimizedAffinity>  (1) 
-5.8331852

>  <minimizedRMSD>  (1) 
0.53035903

$$$$
