
     RDKit          3D

 32 35  0  0  0  0  0  0  0  0999 V2000
   46.0060   34.0880   40.9120 C   0  0  0  0  0  0  0  0  0  0  0  0
   46.5030   34.8160   42.0090 C   0  0  0  0  0  0  0  0  0  0  0  0
   47.7920   35.3310   41.9810 C   0  0  0  0  0  0  0  0  0  0  0  0
   48.5320   35.0990   40.8610 N   0  0  0  0  0  0  0  0  0  0  0  0
   48.0280   34.3940   39.8200 C   0  0  0  0  0  0  0  0  0  0  0  0
   46.7880   33.9110   39.8700 N   0  0  0  0  0  0  0  0  0  0  0  0
   45.7690   35.0840   43.2010 N   0  0  0  0  0  0  0  0  0  0  0  0
   44.8840   36.0100   43.6090 C   0  0  0  0  0  0  0  0  0  0  0  0
   44.5060   35.7620   44.8790 N   0  0  0  0  0  0  0  0  0  0  0  0
   45.1510   34.6670   45.2990 C   0  0  0  0  0  0  0  0  0  0  0  0
   45.0530   34.0650   46.5400 C   0  0  0  0  0  0  0  0  0  0  0  0
   45.8120   32.9600   46.7160 N   0  0  0  0  0  0  0  0  0  0  0  0
   46.6100   32.5000   45.7050 C   0  0  0  0  0  0  0  0  0  0  0  0
   46.6650   33.1270   44.5170 N   0  0  0  0  0  0  0  0  0  0  0  0
   45.9290   34.2450   44.2670 C   0  0  0  0  0  0  0  0  0  0  0  0
   44.6330   33.6170   41.1050 C   0  0  0  0  0  0  0  0  0  0  0  0
   43.6330   34.4970   40.3980 C   0  0  0  0  0  0  0  0  0  0  0  0
   42.2700   34.3960   40.9040 C   0  0  0  0  0  0  0  0  0  0  0  0
   41.6290   35.4080   41.5200 N   0  0  0  0  0  0  0  0  0  0  0  0
   40.4420   35.0080   41.8510 O   0  0  0  0  0  0  0  0  0  0  0  0
   40.2470   33.7530   41.4810 C   0  0  0  0  0  0  0  0  0  0  0  0
   41.4050   33.3770   40.8870 N   0  0  0  0  0  0  0  0  0  0  0  0
   48.1989   35.9027   42.8281 H   0  0  0  0  0  0  0  0  0  0  0  0
   48.6469   34.2193   38.9276 H   0  0  0  0  0  0  0  0  0  0  0  0
   44.5211   36.8481   42.9958 H   0  0  0  0  0  0  0  0  0  0  0  0
   44.4000   34.4594   47.3325 H   0  0  0  0  0  0  0  0  0  0  0  0
   47.2193   31.5986   45.8672 H   0  0  0  0  0  0  0  0  0  0  0  0
   44.5489   32.5940   40.7096 H   0  0  0  0  0  0  0  0  0  0  0  0
   44.4108   33.6449   42.1820 H   0  0  0  0  0  0  0  0  0  0  0  0
   43.6250   34.2202   39.3334 H   0  0  0  0  0  0  0  0  0  0  0  0
   43.9536   35.5347   40.5722 H   0  0  0  0  0  0  0  0  0  0  0  0
   39.3408   33.1462   41.6246 H   0  0  0  0  0  0  0  0  0  0  0  0
  1 16  1  0
  1  2  1  0
  2  7  1  0
  3  2  2  0
  4  3  1  0
  5  6  1  0
  5  4  2  0
  6  1  2  0
  7  8  1  0
  7 15  1  0
  8  9  2  0
  9 10  1  0
 10 11  2  0
 11 12  1  0
 13 12  2  0
 14 13  1  0
 15 14  2  0
 15 10  1  0
 17 18  1  0
 17 16  1  0
 18 19  2  0
 19 20  1  0
 21 20  1  0
 22 18  1  0
 22 21  2  0
  3 23  1  0
  5 24  1  0
  8 25  1  0
 11 26  1  0
 13 27  1  0
 16 28  1  0
 16 29  1  0
 17 30  1  0
 17 31  1  0
 21 32  1  0
M  ISO  8  23  14  24  14  25  14  26  14  27  14  28   8  29   8  30   8
M  ISO  2  31   8  32  14
M  END
>  <minimizedAffinity>  (1) 
-5.7148037

>  <minimizedRMSD>  (1) 
0.60345602

$$$$
