
     RDKit          3D

 34 37  0  0  0  0  0  0  0  0999 V2000
   45.6630   34.2800   41.0780 C   0  0  0  0  0  0  0  0  0  0  0  0
   46.2950   34.7800   42.2370 C   0  0  0  0  0  0  0  0  0  0  0  0
   47.6650   34.9940   42.2460 C   0  0  0  0  0  0  0  0  0  0  0  0
   48.3460   34.7020   41.1130 N   0  0  0  0  0  0  0  0  0  0  0  0
   47.7100   34.2180   40.0070 C   0  0  0  0  0  0  0  0  0  0  0  0
   46.3870   34.0180   40.0140 N   0  0  0  0  0  0  0  0  0  0  0  0
   45.6250   35.1010   43.4490 N   0  0  0  0  0  0  0  0  0  0  0  0
   44.8580   36.1080   43.9010 C   0  0  0  0  0  0  0  0  0  0  0  0
   44.4850   35.8750   45.1760 N   0  0  0  0  0  0  0  0  0  0  0  0
   45.0110   34.7080   45.5600 C   0  0  0  0  0  0  0  0  0  0  0  0
   44.8790   34.0900   46.7880 C   0  0  0  0  0  0  0  0  0  0  0  0
   45.5170   32.9020   46.9280 N   0  0  0  0  0  0  0  0  0  0  0  0
   46.2270   32.3930   45.8900 C   0  0  0  0  0  0  0  0  0  0  0  0
   46.3220   33.0380   44.7130 N   0  0  0  0  0  0  0  0  0  0  0  0
   45.7170   34.2270   44.4940 C   0  0  0  0  0  0  0  0  0  0  0  0
   44.2170   34.1170   41.2450 C   0  0  0  0  0  0  0  0  0  0  0  0
   43.4390   35.2270   40.5950 C   0  0  0  0  0  0  0  0  0  0  0  0
   41.9910   34.9500   40.7330 C   0  0  0  0  0  0  0  0  0  0  0  0
   40.8870   35.3440   39.9880 C   0  0  0  0  0  0  0  0  0  0  0  0
   39.7980   34.8030   40.5620 N   0  0  0  0  0  0  0  0  0  0  0  0
   40.1570   34.0720   41.6500 C   0  0  0  0  0  0  0  0  0  0  0  0
   41.5070   34.1850   41.7230 N   0  0  0  0  0  0  0  0  0  0  0  0
   48.1775   35.3850   43.1373 H   0  0  0  0  0  0  0  0  0  0  0  0
   48.2905   33.9900   39.1009 H   0  0  0  0  0  0  0  0  0  0  0  0
   44.5751   36.9949   43.3151 H   0  0  0  0  0  0  0  0  0  0  0  0
   44.2911   34.5353   47.6041 H   0  0  0  0  0  0  0  0  0  0  0  0
   46.7387   31.4272   46.0140 H   0  0  0  0  0  0  0  0  0  0  0  0
   43.9142   33.1610   40.7930 H   0  0  0  0  0  0  0  0  0  0  0  0
   43.9981   34.1389   42.3228 H   0  0  0  0  0  0  0  0  0  0  0  0
   43.7026   35.2860   39.5287 H   0  0  0  0  0  0  0  0  0  0  0  0
   43.6811   36.1832   41.0818 H   0  0  0  0  0  0  0  0  0  0  0  0
   40.9010   35.9821   39.0921 H   0  0  0  0  0  0  0  0  0  0  0  0
   39.4956   33.5099   42.3257 H   0  0  0  0  0  0  0  0  0  0  0  0
   42.0875   33.7393   42.4477 H   0  0  0  0  0  0  0  0  0  0  0  0
  1 16  1  0
  1  2  1  0
  2  3  2  0
  2  7  1  0
  4  3  1  0
  5  6  1  0
  5  4  2  0
  6  1  2  0
  7  8  1  0
  7 15  1  0
  8  9  2  0
  9 10  1  0
 10 11  2  0
 11 12  1  0
 13 12  2  0
 14 13  1  0
 15 14  2  0
 15 10  1  0
 17 18  1  0
 17 16  1  0
 18 22  1  0
 19 20  1  0
 19 18  2  0
 20 21  2  0
 21 22  1  0
  3 23  1  0
  5 24  1  0
  8 25  1  0
 11 26  1  0
 13 27  1  0
 16 28  1  0
 16 29  1  0
 17 30  1  0
 17 31  1  0
 19 32  1  0
 21 33  1  0
 22 34  1  0
M  ISO  8  23  14  24  14  25  14  26  14  27  14  28   8  29   8  30   8
M  ISO  4  31   8  32  14  33  14  34   9
M  END
>  <minimizedAffinity>  (1) 
-5.75803232

>  <minimizedRMSD>  (1) 
0.727008164

$$$$
