
     RDKit          3D

 29 31  0  0  0  0  0  0  0  0999 V2000
   46.0150   34.1080   40.9210 C   0  0  0  0  0  0  0  0  0  0  0  0
   46.5220   34.8420   42.0190 C   0  0  0  0  0  0  0  0  0  0  0  0
   47.8130   35.3360   41.9910 C   0  0  0  0  0  0  0  0  0  0  0  0
   48.5580   35.0860   40.8790 N   0  0  0  0  0  0  0  0  0  0  0  0
   48.0430   34.3720   39.8290 C   0  0  0  0  0  0  0  0  0  0  0  0
   46.7910   33.9060   39.8830 N   0  0  0  0  0  0  0  0  0  0  0  0
   45.7830   35.1260   43.1970 N   0  0  0  0  0  0  0  0  0  0  0  0
   44.9160   36.0790   43.6020 C   0  0  0  0  0  0  0  0  0  0  0  0
   44.5150   35.8440   44.8630 N   0  0  0  0  0  0  0  0  0  0  0  0
   45.1270   34.7260   45.2860 C   0  0  0  0  0  0  0  0  0  0  0  0
   44.9990   34.1230   46.5270 C   0  0  0  0  0  0  0  0  0  0  0  0
   45.7250   32.9980   46.7080 N   0  0  0  0  0  0  0  0  0  0  0  0
   46.5150   32.5270   45.7100 C   0  0  0  0  0  0  0  0  0  0  0  0
   46.6070   33.1490   44.5180 N   0  0  0  0  0  0  0  0  0  0  0  0
   45.9060   34.2860   44.2610 C   0  0  0  0  0  0  0  0  0  0  0  0
   44.6390   33.6560   41.1050 C   0  0  0  0  0  0  0  0  0  0  0  0
   43.6560   34.5110   40.3300 C   0  0  0  0  0  0  0  0  0  0  0  0
   42.5570   35.0000   41.0990 N   0  0  0  0  0  0  0  0  0  0  0  0
   48.2229   35.9095   42.8354 H   0  0  0  0  0  0  0  0  0  0  0  0
   48.6613   34.1817   38.9393 H   0  0  0  0  0  0  0  0  0  0  0  0
   44.5846   36.9282   42.9863 H   0  0  0  0  0  0  0  0  0  0  0  0
   44.3487   34.5335   47.3135 H   0  0  0  0  0  0  0  0  0  0  0  0
   47.0979   31.6096   45.8792 H   0  0  0  0  0  0  0  0  0  0  0  0
   44.5567   32.6156   40.7575 H   0  0  0  0  0  0  0  0  0  0  0  0
   44.3931   33.7370   42.1741 H   0  0  0  0  0  0  0  0  0  0  0  0
   43.2541   33.9072   39.5030 H   0  0  0  0  0  0  0  0  0  0  0  0
   44.2144   35.3949   39.9880 H   0  0  0  0  0  0  0  0  0  0  0  0
   42.7706   34.9050   42.1021 H   0  0  0  0  0  0  0  0  0  0  0  0
   42.3956   35.9923   40.8748 H   0  0  0  0  0  0  0  0  0  0  0  0
  1 16  1  0
  1  2  2  0
  2  7  1  0
  3  2  1  0
  4  3  2  0
  5  6  2  0
  5  4  1  0
  6  1  1  0
  7  8  1  0
  7 15  1  0
  8  9  2  0
  9 10  1  0
 10 11  2  0
 11 12  1  0
 13 12  2  0
 14 13  1  0
 15 14  2  0
 15 10  1  0
 17 18  1  0
 17 16  1  0
  3 19  1  0
  5 20  1  0
  8 21  1  0
 11 22  1  0
 13 23  1  0
 16 24  1  0
 16 25  1  0
 17 26  1  0
 17 27  1  0
 18 28  1  0
 18 29  1  0
M  ISO  8  19  14  20  14  21  14  22  14  23  14  24   8  25   8  26   8
M  ISO  3  27   8  28   5  29   5
M  END
>  <minimizedAffinity>  (1) 
-4.83241606

>  <minimizedRMSD>  (1) 
0.27105853

$$$$
