
     RDKit          3D

 28 30  0  0  0  0  0  0  0  0999 V2000
   46.0430   34.1030   40.9170 C   0  0  0  0  0  0  0  0  0  0  0  0
   46.5270   34.8180   42.0210 C   0  0  0  0  0  0  0  0  0  0  0  0
   47.8160   35.3240   41.9850 C   0  0  0  0  0  0  0  0  0  0  0  0
   48.5560   35.1000   40.8750 N   0  0  0  0  0  0  0  0  0  0  0  0
   48.0540   34.3980   39.8140 C   0  0  0  0  0  0  0  0  0  0  0  0
   46.8200   33.9210   39.8620 N   0  0  0  0  0  0  0  0  0  0  0  0
   45.7910   35.0780   43.2060 N   0  0  0  0  0  0  0  0  0  0  0  0
   44.9020   36.0060   43.6060 C   0  0  0  0  0  0  0  0  0  0  0  0
   44.5120   35.7600   44.8770 N   0  0  0  0  0  0  0  0  0  0  0  0
   45.1580   34.6600   45.3000 C   0  0  0  0  0  0  0  0  0  0  0  0
   45.0640   34.0470   46.5330 C   0  0  0  0  0  0  0  0  0  0  0  0
   45.8240   32.9440   46.7120 N   0  0  0  0  0  0  0  0  0  0  0  0
   46.6200   32.4990   45.7090 C   0  0  0  0  0  0  0  0  0  0  0  0
   46.6760   33.1320   44.5200 N   0  0  0  0  0  0  0  0  0  0  0  0
   45.9410   34.2520   44.2610 C   0  0  0  0  0  0  0  0  0  0  0  0
   44.6630   33.6230   41.0860 C   0  0  0  0  0  0  0  0  0  0  0  0
   43.6680   34.4900   40.3450 C   0  0  0  0  0  0  0  0  0  0  0  0
   42.3800   34.0250   40.5670 O   0  0  0  0  0  0  0  0  0  0  0  0
   48.2257   35.8911   42.8338 H   0  0  0  0  0  0  0  0  0  0  0  0
   48.6749   34.2299   38.9217 H   0  0  0  0  0  0  0  0  0  0  0  0
   44.5446   36.8432   42.9884 H   0  0  0  0  0  0  0  0  0  0  0  0
   44.4072   34.4346   47.3257 H   0  0  0  0  0  0  0  0  0  0  0  0
   47.2344   31.6007   45.8689 H   0  0  0  0  0  0  0  0  0  0  0  0
   44.5946   32.5949   40.7009 H   0  0  0  0  0  0  0  0  0  0  0  0
   44.4175   33.6628   42.1575 H   0  0  0  0  0  0  0  0  0  0  0  0
   43.8870   34.4573   39.2675 H   0  0  0  0  0  0  0  0  0  0  0  0
   43.7474   35.5249   40.7091 H   0  0  0  0  0  0  0  0  0  0  0  0
   42.2141   33.9651   41.5412 H   0  0  0  0  0  0  0  0  0  0  0  0
  1 16  1  0
  1  2  2  0
  2  7  1  0
  3  2  1  0
  4  3  2  0
  5  6  2  0
  5  4  1  0
  6  1  1  0
  7  8  1  0
  7 15  1  0
  8  9  2  0
  9 10  1  0
 10 11  2  0
 11 12  1  0
 13 12  2  0
 14 13  1  0
 15 14  2  0
 15 10  1  0
 17 18  1  0
 17 16  1  0
  3 19  1  0
  5 20  1  0
  8 21  1  0
 11 22  1  0
 13 23  1  0
 16 24  1  0
 16 25  1  0
 17 26  1  0
 17 27  1  0
 18 28  1  0
M  ISO  8  19  14  20  14  21  14  22  14  23  14  24   8  25   8  26   8
M  ISO  2  27   8  28   3
M  END
>  <minimizedAffinity>  (1) 
-4.81088257

>  <minimizedRMSD>  (1) 
0.00947937928

$$$$
