
     RDKit          3D

 39 42  0  0  1  0  0  0  0  0999 V2000
   45.7700   34.1640   44.2630 C   0  0  2  0  0  0  0  0  0  0  0  0
   45.0180   35.0110   45.3320 C   0  0  0  0  0  0  0  0  0  0  0  0
   44.7100   36.1980   44.3900 C   0  0  0  0  0  0  0  0  0  0  0  0
   44.1100   35.4560   43.2280 C   0  0  0  0  0  0  0  0  0  0  0  0
   44.7300   34.0630   43.2210 C   0  0  1  0  0  0  0  0  0  0  0  0
   45.3150   33.6960   41.9180 C   0  0  0  0  0  0  0  0  0  0  0  0
   44.7980   32.7990   41.0140 C   0  0  0  0  0  0  0  0  0  0  0  0
   45.3580   32.4840   39.8000 C   0  0  0  0  0  0  0  0  0  0  0  0
   46.5310   33.0900   39.4140 C   0  0  0  0  0  0  0  0  0  0  0  0
   47.1020   33.9960   40.2670 C   0  0  0  0  0  0  0  0  0  0  0  0
   48.2720   34.5730   39.8440 C   0  0  0  0  0  0  0  0  0  0  0  0
   48.9140   35.4930   40.6460 C   0  0  0  0  0  0  0  0  0  0  0  0
   48.3590   35.8160   41.8700 C   0  0  0  0  0  0  0  0  0  0  0  0
   47.1880   35.2050   42.2370 C   0  0  0  0  0  0  0  0  0  0  0  0
   46.5090   34.2840   41.4780 C   0  0  0  0  0  0  0  0  0  0  0  0
   45.8290   32.5310   46.0840 C   0  0  0  0  0  0  0  0  0  0  0  0
   46.2770   32.9130   44.8080 C   0  0  0  0  0  0  0  0  0  0  0  0
   47.2160   32.0700   44.1440 C   0  0  0  0  0  0  0  0  0  0  0  0
   47.6300   30.9400   44.7790 N   0  0  0  0  0  0  0  0  0  0  0  0
   47.1720   30.6030   46.0180 C   0  0  0  0  0  0  0  0  0  0  0  0
   46.2760   31.3980   46.6640 N   0  0  0  0  0  0  0  0  0  0  0  0
   46.7037   34.5912   43.8685 H   0  0  0  0  0  0  0  0  0  0  0  0
   44.1098   34.5166   45.7071 H   0  0  0  0  0  0  0  0  0  0  0  0
   45.5500   35.2325   46.2690 H   0  0  0  0  0  0  0  0  0  0  0  0
   43.9937   36.9015   44.8396 H   0  0  0  0  0  0  0  0  0  0  0  0
   45.5752   36.8300   44.1408 H   0  0  0  0  0  0  0  0  0  0  0  0
   43.0191   35.3834   43.3488 H   0  0  0  0  0  0  0  0  0  0  0  0
   44.3106   35.9799   42.2818 H   0  0  0  0  0  0  0  0  0  0  0  0
   43.9842   33.2760   43.4065 H   0  0  0  0  0  0  0  0  0  0  0  0
   43.8599   32.2924   41.2846 H   0  0  0  0  0  0  0  0  0  0  0  0
   44.8711   31.7510   39.1400 H   0  0  0  0  0  0  0  0  0  0  0  0
   46.9975   32.8532   38.4464 H   0  0  0  0  0  0  0  0  0  0  0  0
   48.6977   34.3024   38.8665 H   0  0  0  0  0  0  0  0  0  0  0  0
   49.8528   35.9623   40.3169 H   0  0  0  0  0  0  0  0  0  0  0  0
   48.8454   36.5459   42.5338 H   0  0  0  0  0  0  0  0  0  0  0  0
   46.7596   35.4730   43.2141 H   0  0  0  0  0  0  0  0  0  0  0  0
   45.1043   33.1641   46.6169 H   0  0  0  0  0  0  0  0  0  0  0  0
   47.5959   32.3266   43.1441 H   0  0  0  0  0  0  0  0  0  0  0  0
   47.5296   29.6809   46.4996 H   0  0  0  0  0  0  0  0  0  0  0  0
  1 17  1  0
  1  2  1  0
  3  2  1  0
  4  3  1  0
  5  4  1  0
  5  1  1  0
  6  5  1  0
  7  6  2  0
  8  7  1  0
  9  8  2  0
  9 10  1  0
 10 15  2  0
 11 10  1  0
 11 12  2  0
 12 13  1  0
 13 14  2  0
 15  6  1  0
 15 14  1  0
 16 21  2  0
 17 16  1  0
 18 19  1  0
 18 17  2  0
 19 20  2  0
 20 21  1  0
  1 22  1  6
  2 23  1  0
  2 24  1  0
  3 25  1  0
  3 26  1  0
  4 27  1  0
  4 28  1  0
  5 29  1  1
  7 30  1  0
  8 31  1  0
  9 32  1  0
 11 33  1  0
 12 34  1  0
 13 35  1  0
 14 36  1  0
 16 37  1  0
 18 38  1  0
 20 39  1  0
M  ISO  8  22  13  23  13  24  13  25  13  26  13  27  13  28  13  29  13
M  ISO  8  30  14  31  14  32  14  33  14  34  14  35  14  36  14  37  14
M  ISO  2  38  14  39  14
M  END
>  <minimizedAffinity>  (1) 
-5.7801199

>  <minimizedRMSD>  (1) 
3.04788756

$$$$
