
     RDKit          3D

 32 33  0  0  1  0  0  0  0  0999 V2000
   46.6770   34.7110   41.9140 C   0  0  2  0  0  0  0  0  0  0  0  0
   45.9210   33.7890   40.9320 C   0  0  0  0  0  0  0  0  0  0  0  0
   46.9270   33.8370   39.7860 C   0  0  0  0  0  0  0  0  0  0  0  0
   48.2140   33.6310   40.5200 C   0  0  0  0  0  0  0  0  0  0  0  0
   47.9840   34.0830   41.9610 C   0  0  1  0  0  0  0  0  0  0  0  0
   45.1960   36.0430   43.3570 C   0  0  0  0  0  0  0  0  0  0  0  0
   45.9580   34.8640   43.1830 C   0  0  0  0  0  0  0  0  0  0  0  0
   46.0110   33.9120   44.2430 C   0  0  0  0  0  0  0  0  0  0  0  0
   45.3160   34.1990   45.3830 N   0  0  0  0  0  0  0  0  0  0  0  0
   44.5910   35.3490   45.5170 C   0  0  0  0  0  0  0  0  0  0  0  0
   44.5390   36.2590   44.5000 N   0  0  0  0  0  0  0  0  0  0  0  0
   49.1220   34.9430   42.4370 C   0  0  0  0  0  0  0  0  0  0  0  0
   49.3550   36.1710   41.5810 C   0  0  0  0  0  0  0  0  0  0  0  0
   50.4080   34.1430   42.4010 C   0  0  0  0  0  0  0  0  0  0  0  0
   46.7668   35.7659   41.6154 H   0  0  0  0  0  0  0  0  0  0  0  0
   45.7906   32.7721   41.3306 H   0  0  0  0  0  0  0  0  0  0  0  0
   44.8908   34.0851   40.6850 H   0  0  0  0  0  0  0  0  0  0  0  0
   46.9070   34.8096   39.2726 H   0  0  0  0  0  0  0  0  0  0  0  0
   46.7391   33.1021   38.9894 H   0  0  0  0  0  0  0  0  0  0  0  0
   48.4954   32.5678   40.4980 H   0  0  0  0  0  0  0  0  0  0  0  0
   49.0280   34.2055   40.0537 H   0  0  0  0  0  0  0  0  0  0  0  0
   47.9767   33.2774   42.7100 H   0  0  0  0  0  0  0  0  0  0  0  0
   45.1442   36.7856   42.5472 H   0  0  0  0  0  0  0  0  0  0  0  0
   46.5898   32.9816   44.1462 H   0  0  0  0  0  0  0  0  0  0  0  0
   44.0446   35.5436   46.4517 H   0  0  0  0  0  0  0  0  0  0  0  0
   48.8465   35.2672   43.4514 H   0  0  0  0  0  0  0  0  0  0  0  0
   49.5206   37.0439   42.2295 H   0  0  0  0  0  0  0  0  0  0  0  0
   50.2392   36.0129   40.9460 H   0  0  0  0  0  0  0  0  0  0  0  0
   48.4744   36.3478   40.9460 H   0  0  0  0  0  0  0  0  0  0  0  0
   50.7402   33.9364   43.4291 H   0  0  0  0  0  0  0  0  0  0  0  0
   50.2344   33.1933   41.8739 H   0  0  0  0  0  0  0  0  0  0  0  0
   51.1832   34.7185   41.8739 H   0  0  0  0  0  0  0  0  0  0  0  0
  1  5  1  0
  1  7  1  0
  2  1  1  0
  3  4  1  0
  3  2  1  0
  4  5  1  0
  5 12  1  0
  6 11  2  0
  7  6  1  0
  7  8  2  0
  8  9  1  0
  9 10  2  0
 11 10  1  0
 13 12  1  0
 14 12  1  0
  1 15  1  6
  2 16  1  0
  2 17  1  0
  3 18  1  0
  3 19  1  0
  4 20  1  0
  4 21  1  0
  5 22  1  1
  6 23  1  0
  8 24  1  0
 10 25  1  0
 12 26  1  0
 13 27  1  0
 13 28  1  0
 13 29  1  0
 14 30  1  0
 14 31  1  0
 14 32  1  0
M  ISO  8  15  13  16  13  17  13  18  13  19  13  20  13  21  13  22  13
M  ISO  8  23  14  24  14  25  14  26   8  27   8  28   8  29   8  30   8
M  ISO  2  31   8  32   8
M  END
>  <minimizedAffinity>  (1) 
-5.19944191

>  <minimizedRMSD>  (1) 
3.38158345

$$$$
