
     RDKit          3D

 30 32  0  0  1  0  0  0  0  0999 V2000
   45.8680   34.5300   42.0450 C   0  0  2  0  0  0  0  0  0  0  0  0
   45.1470   33.4260   41.2510 C   0  0  0  0  0  0  0  0  0  0  0  0
   45.8180   33.6670   39.9040 C   0  0  0  0  0  0  0  0  0  0  0  0
   47.2770   33.7270   40.3290 C   0  0  0  0  0  0  0  0  0  0  0  0
   47.2720   34.2510   41.7530 C   0  0  1  0  0  0  0  0  0  0  0  0
   44.7480   35.7320   43.8530 C   0  0  0  0  0  0  0  0  0  0  0  0
   45.4630   34.5960   43.4390 C   0  0  0  0  0  0  0  0  0  0  0  0
   45.7850   33.6050   44.4000 C   0  0  0  0  0  0  0  0  0  0  0  0
   45.3820   33.8060   45.6850 N   0  0  0  0  0  0  0  0  0  0  0  0
   44.6880   34.9200   46.0550 C   0  0  0  0  0  0  0  0  0  0  0  0
   44.3720   35.8810   45.1390 N   0  0  0  0  0  0  0  0  0  0  0  0
   48.2140   35.3940   41.9900 C   0  0  0  0  0  0  0  0  0  0  0  0
   49.6420   35.2450   42.2650 C   0  0  0  0  0  0  0  0  0  0  0  0
   49.1390   35.9380   41.0000 C   0  0  0  0  0  0  0  0  0  0  0  0
   45.6127   35.5597   41.7543 H   0  0  0  0  0  0  0  0  0  0  0  0
   45.3566   32.4218   41.6479 H   0  0  0  0  0  0  0  0  0  0  0  0
   44.0477   33.4636   41.2581 H   0  0  0  0  0  0  0  0  0  0  0  0
   45.4881   34.6127   39.4492 H   0  0  0  0  0  0  0  0  0  0  0  0
   45.5941   32.9100   39.1380 H   0  0  0  0  0  0  0  0  0  0  0  0
   47.7284   32.7246   40.2914 H   0  0  0  0  0  0  0  0  0  0  0  0
   47.8665   34.3732   39.6620 H   0  0  0  0  0  0  0  0  0  0  0  0
   47.6738   33.5106   42.4604 H   0  0  0  0  0  0  0  0  0  0  0  0
   44.4917   36.5098   43.1186 H   0  0  0  0  0  0  0  0  0  0  0  0
   46.3436   32.7009   44.1162 H   0  0  0  0  0  0  0  0  0  0  0  0
   44.3795   35.0454   47.1034 H   0  0  0  0  0  0  0  0  0  0  0  0
   47.3666   35.8178   42.5489 H   0  0  0  0  0  0  0  0  0  0  0  0
   50.1162   35.8304   43.0665 H   0  0  0  0  0  0  0  0  0  0  0  0
   50.3173   34.4055   42.4869 H   0  0  0  0  0  0  0  0  0  0  0  0
   49.2507   35.4512   40.0199 H   0  0  0  0  0  0  0  0  0  0  0  0
   49.2955   36.9177   40.5250 H   0  0  0  0  0  0  0  0  0  0  0  0
  1  7  1  0
  2  1  1  0
  3  4  1  0
  3  2  1  0
  4  5  1  0
  5 12  1  0
  5  1  1  0
  6 11  2  0
  7  6  1  0
  7  8  2  0
  8  9  1  0
  9 10  2  0
 11 10  1  0
 12 13  1  0
 14 12  1  0
 14 13  1  0
  1 15  1  6
  2 16  1  0
  2 17  1  0
  3 18  1  0
  3 19  1  0
  4 20  1  0
  4 21  1  0
  5 22  1  1
  6 23  1  0
  8 24  1  0
 10 25  1  0
 12 26  1  0
 13 27  1  0
 13 28  1  0
 14 29  1  0
 14 30  1  0
M  ISO  8  15  13  16  13  17  13  18  13  19  13  20  13  21  13  22  13
M  ISO  8  23  14  24  14  25  14  26  13  27  13  28  13  29  13  30  13
M  END
>  <minimizedAffinity>  (1) 
-4.70317459

>  <minimizedRMSD>  (1) 
2.85823083

$$$$
