
     RDKit          3D

 30 31  0  0  1  0  0  0  0  0999 V2000
   45.9570   34.2860   43.2510 C   0  0  2  0  0  0  0  0  0  0  0  0
   45.9070   35.7320   42.6910 C   0  0  0  0  0  0  0  0  0  0  0  0
   44.4890   36.0570   43.1620 C   0  0  0  0  0  0  0  0  0  0  0  0
   44.5810   35.6410   44.6010 C   0  0  0  0  0  0  0  0  0  0  0  0
   45.6280   34.5300   44.6570 C   0  0  1  0  0  0  0  0  0  0  0  0
   47.2050   32.2240   42.8220 C   0  0  0  0  0  0  0  0  0  0  0  0
   47.2350   33.6220   42.9710 C   0  0  0  0  0  0  0  0  0  0  0  0
   48.4750   34.3190   42.8730 C   0  0  0  0  0  0  0  0  0  0  0  0
   49.5910   33.5790   42.6350 N   0  0  0  0  0  0  0  0  0  0  0  0
   49.5340   32.2240   42.4950 C   0  0  0  0  0  0  0  0  0  0  0  0
   48.3640   31.5500   42.5850 N   0  0  0  0  0  0  0  0  0  0  0  0
   45.0860   33.3330   45.2940 N   0  0  0  0  0  0  0  0  0  0  0  0
   45.7690   32.9070   46.4700 C   0  0  0  0  0  0  0  0  0  0  0  0
   46.9360   33.2820   46.8410 N   0  0  0  0  0  0  0  0  0  0  0  0
   45.2820   31.9900   47.4540 N   0  0  0  0  0  0  0  0  0  0  0  0
   47.5420   33.9430   46.3350 H   0  0  0  0  0  0  0  0  0  0  0  0
   45.2679   33.5612   42.7929 H   0  0  0  0  0  0  0  0  0  0  0  0
   46.0057   35.7641   41.5959 H   0  0  0  0  0  0  0  0  0  0  0  0
   46.7052   36.4162   43.0147 H   0  0  0  0  0  0  0  0  0  0  0  0
   44.2629   37.1289   43.0621 H   0  0  0  0  0  0  0  0  0  0  0  0
   43.6898   35.5623   42.5905 H   0  0  0  0  0  0  0  0  0  0  0  0
   44.8937   36.4915   45.2246 H   0  0  0  0  0  0  0  0  0  0  0  0
   43.6085   35.2951   44.9814 H   0  0  0  0  0  0  0  0  0  0  0  0
   46.5113   34.8051   45.2521 H   0  0  0  0  0  0  0  0  0  0  0  0
   46.2523   31.6791   42.8964 H   0  0  0  0  0  0  0  0  0  0  0  0
   48.5270   35.4120   42.9854 H   0  0  0  0  0  0  0  0  0  0  0  0
   50.4619   31.6649   42.3042 H   0  0  0  0  0  0  0  0  0  0  0  0
   44.2677   32.8319   44.9197 H   0  0  0  0  0  0  0  0  0  0  0  0
   45.8646   31.7523   48.2695 H   0  0  0  0  0  0  0  0  0  0  0  0
   44.3488   31.5674   47.3470 H   0  0  0  0  0  0  0  0  0  0  0  0
  1  5  1  0
  2  3  1  0
  2  1  1  0
  3  4  1  0
  4  5  1  0
  5 12  1  0
  6  7  2  0
  7  1  1  0
  8  7  1  0
  9  8  2  0
 10 11  2  0
 10  9  1  0
 11  6  1  0
 12 13  1  0
 13 14  2  0
 13 15  1  0
 16 14  1  0
  1 17  1  6
  2 18  1  0
  2 19  1  0
  3 20  1  0
  3 21  1  0
  4 22  1  0
  4 23  1  0
  5 24  1  1
  6 25  1  0
  8 26  1  0
 10 27  1  0
 12 28  1  0
 15 29  1  0
 15 30  1  0
M  ISO  8  17  13  18  13  19  13  20  13  21  13  22  13  23  13  24  13
M  ISO  3  25  14  26  14  27  14
M  END
>  <minimizedAffinity>  (1) 
-4.76885986

>  <minimizedRMSD>  (1) 
5.63298035

$$$$
