
     RDKit          3D

 33 35  0  0  1  0  0  0  0  0999 V2000
   45.3750   34.0530   41.5230 C   0  0  2  0  0  0  0  0  0  0  0  0
   44.0650   33.7480   40.7550 C   0  0  0  0  0  0  0  0  0  0  0  0
   44.7050   33.4050   39.3990 C   0  0  0  0  0  0  0  0  0  0  0  0
   45.8100   32.4820   39.8330 C   0  0  0  0  0  0  0  0  0  0  0  0
   46.1100   32.8080   41.2890 C   0  0  1  0  0  0  0  0  0  0  0  0
   44.7330   35.7730   43.1310 C   0  0  0  0  0  0  0  0  0  0  0  0
   45.1450   34.4490   42.9070 C   0  0  0  0  0  0  0  0  0  0  0  0
   45.3450   33.5790   44.0140 C   0  0  0  0  0  0  0  0  0  0  0  0
   45.1240   34.0780   45.2610 N   0  0  0  0  0  0  0  0  0  0  0  0
   44.7230   35.3690   45.4500 C   0  0  0  0  0  0  0  0  0  0  0  0
   44.5280   36.2140   44.4020 N   0  0  0  0  0  0  0  0  0  0  0  0
   47.5380   32.8750   41.4990 N   0  0  0  0  0  0  0  0  0  0  0  0
   48.1810   31.9240   42.1960 C   0  0  0  0  0  0  0  0  0  0  0  0
   49.5590   31.9150   42.4420 C   0  0  0  0  0  0  0  0  0  0  0  0
   50.2850   32.9760   41.9180 C   0  0  0  0  0  0  0  0  0  0  0  0
   51.5320   33.0360   42.1000 O   0  0  0  0  0  0  0  0  0  0  0  0
   49.6550   33.9240   41.2260 N   0  0  0  0  0  0  0  0  0  0  0  0
   48.3270   33.8610   41.0310 C   0  0  0  0  0  0  0  0  0  0  0  0
   47.7700   34.7910   40.3630 O   0  0  0  0  0  0  0  0  0  0  0  0
   45.9445   34.9331   41.1896 H   0  0  0  0  0  0  0  0  0  0  0  0
   43.5149   32.8984   41.1856 H   0  0  0  0  0  0  0  0  0  0  0  0
   43.3057   34.5439   40.7492 H   0  0  0  0  0  0  0  0  0  0  0  0
   45.0998   34.3020   38.8995 H   0  0  0  0  0  0  0  0  0  0  0  0
   44.0106   32.9699   38.6652 H   0  0  0  0  0  0  0  0  0  0  0  0
   45.4875   31.4346   39.7383 H   0  0  0  0  0  0  0  0  0  0  0  0
   46.7043   32.6156   39.2066 H   0  0  0  0  0  0  0  0  0  0  0  0
   45.7875   32.0475   42.0154 H   0  0  0  0  0  0  0  0  0  0  0  0
   44.5763   36.4525   42.2803 H   0  0  0  0  0  0  0  0  0  0  0  0
   45.6675   32.5376   43.8675 H   0  0  0  0  0  0  0  0  0  0  0  0
   44.5536   35.7345   46.4736 H   0  0  0  0  0  0  0  0  0  0  0  0
   47.5833   31.0945   42.6018 H   0  0  0  0  0  0  0  0  0  0  0  0
   50.0402   31.1114   43.0188 H   0  0  0  0  0  0  0  0  0  0  0  0
   50.1909   34.7128   40.8367 H   0  0  0  0  0  0  0  0  0  0  0  0
  1  7  1  0
  2  1  1  0
  3  4  1  0
  3  2  1  0
  4  5  1  0
  5 12  1  0
  5  1  1  0
  6 11  2  0
  7  6  1  0
  7  8  2  0
  8  9  1  0
  9 10  2  0
 11 10  1  0
 12 13  1  0
 13 14  2  0
 15 16  2  0
 15 14  1  0
 17 15  1  0
 18 17  1  0
 18 12  1  0
 19 18  2  0
  1 20  1  6
  2 21  1  0
  2 22  1  0
  3 23  1  0
  3 24  1  0
  4 25  1  0
  4 26  1  0
  5 27  1  1
  6 28  1  0
  8 29  1  0
 10 30  1  0
 13 31  1  0
 14 32  1  0
 17 33  1  0
M  ISO  8  20  13  21  13  22  13  23  13  24  13  25  13  26  13  27  13
M  ISO  6  28  14  29  14  30  14  31  14  32  14  33   9
M  END
>  <minimizedAffinity>  (1) 
-4.68441248

>  <minimizedRMSD>  (1) 
2.3358283

$$$$
