
     RDKit          3D

 33 35  0  0  1  0  0  0  0  0999 V2000
   44.0670   34.8340   41.6650 C   0  0  2  0  0  0  0  0  0  0  0  0
   42.5290   34.8910   41.5060 C   0  0  0  0  0  0  0  0  0  0  0  0
   42.4880   35.1430   40.0020 C   0  0  0  0  0  0  0  0  0  0  0  0
   43.4630   34.0840   39.5170 C   0  0  0  0  0  0  0  0  0  0  0  0
   44.3920   33.8040   40.6790 C   0  0  1  0  0  0  0  0  0  0  0  0
   44.3640   35.6810   43.9390 C   0  0  0  0  0  0  0  0  0  0  0  0
   44.4950   34.6020   43.0450 C   0  0  0  0  0  0  0  0  0  0  0  0
   45.0450   33.3670   43.4970 C   0  0  0  0  0  0  0  0  0  0  0  0
   45.4280   33.2890   44.8010 N   0  0  0  0  0  0  0  0  0  0  0  0
   45.2910   34.3500   45.6470 C   0  0  0  0  0  0  0  0  0  0  0  0
   44.7660   35.5360   45.2280 N   0  0  0  0  0  0  0  0  0  0  0  0
   45.7890   33.8480   40.1760 C   0  0  0  0  0  0  0  0  0  0  0  0
   46.8660   34.4700   40.7720 C   0  0  0  0  0  0  0  0  0  0  0  0
   48.1180   34.4480   40.2180 C   0  0  0  0  0  0  0  0  0  0  0  0
   48.3530   33.7930   39.0250 C   0  0  0  0  0  0  0  0  0  0  0  0
   47.2790   33.1550   38.3990 C   0  0  0  0  0  0  0  0  0  0  0  0
   46.0220   33.1840   38.9670 C   0  0  0  0  0  0  0  0  0  0  0  0
   44.6109   35.7714   41.4766 H   0  0  0  0  0  0  0  0  0  0  0  0
   42.0447   33.9434   41.7843 H   0  0  0  0  0  0  0  0  0  0  0  0
   42.0026   35.6235   42.1356 H   0  0  0  0  0  0  0  0  0  0  0  0
   41.4798   34.9854   39.5912 H   0  0  0  0  0  0  0  0  0  0  0  0
   42.7412   36.1707   39.7024 H   0  0  0  0  0  0  0  0  0  0  0  0
   42.9224   33.1695   39.2317 H   0  0  0  0  0  0  0  0  0  0  0  0
   44.0191   34.4255   38.6315 H   0  0  0  0  0  0  0  0  0  0  0  0
   44.2793   32.8138   41.1445 H   0  0  0  0  0  0  0  0  0  0  0  0
   43.9387   36.6357   43.5959 H   0  0  0  0  0  0  0  0  0  0  0  0
   45.1558   32.5091   42.8175 H   0  0  0  0  0  0  0  0  0  0  0  0
   45.6123   34.2459   46.6939 H   0  0  0  0  0  0  0  0  0  0  0  0
   46.7143   35.0010   41.7233 H   0  0  0  0  0  0  0  0  0  0  0  0
   48.9472   34.9585   40.7296 H   0  0  0  0  0  0  0  0  0  0  0  0
   49.3586   33.7741   38.5796 H   0  0  0  0  0  0  0  0  0  0  0  0
   47.4367   32.6263   37.4474 H   0  0  0  0  0  0  0  0  0  0  0  0
   45.1883   32.6760   38.4602 H   0  0  0  0  0  0  0  0  0  0  0  0
  1  7  1  0
  2  1  1  0
  3  2  1  0
  4  3  1  0
  4  5  1  0
  5  1  1  0
  6 11  2  0
  7  8  2  0
  7  6  1  0
  8  9  1  0
  9 10  2  0
 11 10  1  0
 12  5  1  0
 12 13  2  0
 14 13  1  0
 15 14  2  0
 16 17  2  0
 16 15  1  0
 17 12  1  0
  1 18  1  6
  2 19  1  0
  2 20  1  0
  3 21  1  0
  3 22  1  0
  4 23  1  0
  4 24  1  0
  5 25  1  1
  6 26  1  0
  8 27  1  0
 10 28  1  0
 13 29  1  0
 14 30  1  0
 15 31  1  0
 16 32  1  0
 17 33  1  0
M  ISO  8  18  13  19  13  20  13  21  13  22  13  23  13  24  13  25  13
M  ISO  8  26  14  27  14  28  14  29  14  30  14  31  14  32  14  33  14
M  END
>  <minimizedAffinity>  (1) 
-4.84023237

>  <minimizedRMSD>  (1) 
1.07172477

$$$$
