
     RDKit          3D

 34 36  0  0  1  0  0  0  0  0999 V2000
   45.1670   34.4310   42.3410 C   0  0  2  0  0  0  0  0  0  0  0  0
   43.7900   34.1250   41.6850 C   0  0  0  0  0  0  0  0  0  0  0  0
   44.2320   34.3700   40.2270 C   0  0  0  0  0  0  0  0  0  0  0  0
   45.5240   33.6020   40.1770 C   0  0  0  0  0  0  0  0  0  0  0  0
   45.9650   33.4360   41.6210 C   0  0  1  0  0  0  0  0  0  0  0  0
   47.3920   33.4890   41.7410 N   0  0  0  0  0  0  0  0  0  0  0  0
   47.9590   32.2450   41.7100 C   0  0  0  0  0  0  0  0  0  0  0  0
   49.3330   32.1050   41.8130 C   0  0  0  0  0  0  0  0  0  0  0  0
   50.1640   33.1800   41.9480 C   0  0  0  0  0  0  0  0  0  0  0  0
   51.5770   33.0470   42.0540 N   0  0  0  0  0  0  0  0  0  0  0  0
   49.5510   34.3730   41.9710 N   0  0  0  0  0  0  0  0  0  0  0  0
   48.2210   34.5420   41.8740 C   0  0  0  0  0  0  0  0  0  0  0  0
   47.6220   35.6400   41.8920 O   0  0  0  0  0  0  0  0  0  0  0  0
   44.5660   35.4100   44.5000 C   0  0  0  0  0  0  0  0  0  0  0  0
   45.1290   34.3170   43.7990 C   0  0  0  0  0  0  0  0  0  0  0  0
   45.6390   33.1990   44.5180 C   0  0  0  0  0  0  0  0  0  0  0  0
   45.5580   33.2430   45.8720 N   0  0  0  0  0  0  0  0  0  0  0  0
   45.0130   34.3070   46.5270 C   0  0  0  0  0  0  0  0  0  0  0  0
   44.5230   35.3750   45.8620 N   0  0  0  0  0  0  0  0  0  0  0  0
   45.5600   35.4545   42.2516 H   0  0  0  0  0  0  0  0  0  0  0  0
   43.4597   33.0902   41.8584 H   0  0  0  0  0  0  0  0  0  0  0  0
   42.9277   34.7042   42.0467 H   0  0  0  0  0  0  0  0  0  0  0  0
   43.4983   33.9705   39.5114 H   0  0  0  0  0  0  0  0  0  0  0  0
   44.3290   35.4323   39.9584 H   0  0  0  0  0  0  0  0  0  0  0  0
   45.3670   32.6188   39.7093 H   0  0  0  0  0  0  0  0  0  0  0  0
   46.2839   34.1278   39.5803 H   0  0  0  0  0  0  0  0  0  0  0  0
   45.7732   32.4500   42.0693 H   0  0  0  0  0  0  0  0  0  0  0  0
   47.3228   31.3541   41.6031 H   0  0  0  0  0  0  0  0  0  0  0  0
   49.7688   31.0954   41.7852 H   0  0  0  0  0  0  0  0  0  0  0  0
   52.1671   33.8852   42.1546 H   0  0  0  0  0  0  0  0  0  0  0  0
   52.0095   32.1125   42.0301 H   0  0  0  0  0  0  0  0  0  0  0  0
   44.1680   36.2771   43.9525 H   0  0  0  0  0  0  0  0  0  0  0  0
   46.0801   32.3359   43.9980 H   0  0  0  0  0  0  0  0  0  0  0  0
   44.9713   34.2952   47.6261 H   0  0  0  0  0  0  0  0  0  0  0  0
  1 15  1  0
  2  1  1  0
  3  2  1  0
  4  3  1  0
  4  5  1  0
  5  6  1  0
  5  1  1  0
  6 12  1  0
  7  6  1  0
  7  8  2  0
  8  9  1  0
  9 11  2  0
  9 10  1  0
 12 13  2  0
 12 11  1  0
 14 19  2  0
 15 14  1  0
 15 16  2  0
 16 17  1  0
 17 18  2  0
 19 18  1  0
  1 20  1  1
  2 21  1  0
  2 22  1  0
  3 23  1  0
  3 24  1  0
  4 25  1  0
  4 26  1  0
  5 27  1  1
  7 28  1  0
  8 29  1  0
 10 30  1  0
 10 31  1  0
 14 32  1  0
 16 33  1  0
 18 34  1  0
M  ISO  8  20  13  21  13  22  13  23  13  24  13  25  13  26  13  27  13
M  ISO  5  28  14  29  14  32  14  33  14  34  14
M  END
>  <minimizedAffinity>  (1) 
-4.78860235

>  <minimizedRMSD>  (1) 
2.2800045

$$$$
