
     RDKit          3D

 29 31  0  0  1  0  0  0  0  0999 V2000
   44.2700   34.8240   41.8280 C   0  0  2  0  0  0  0  0  0  0  0  0
   42.7400   34.9130   41.6020 C   0  0  0  0  0  0  0  0  0  0  0  0
   42.7800   35.1950   40.0930 C   0  0  0  0  0  0  0  0  0  0  0  0
   43.7250   34.1030   39.6490 C   0  0  0  0  0  0  0  0  0  0  0  0
   44.6300   33.7980   40.8450 C   0  0  1  0  0  0  0  0  0  0  0  0
   44.3810   35.6000   44.1430 C   0  0  0  0  0  0  0  0  0  0  0  0
   44.6200   34.5640   43.2220 C   0  0  0  0  0  0  0  0  0  0  0  0
   45.2050   33.3480   43.6800 C   0  0  0  0  0  0  0  0  0  0  0  0
   45.5060   33.2510   45.0040 N   0  0  0  0  0  0  0  0  0  0  0  0
   45.2620   34.2710   45.8710 C   0  0  0  0  0  0  0  0  0  0  0  0
   44.7040   35.4390   45.4470 N   0  0  0  0  0  0  0  0  0  0  0  0
   46.0580   33.8550   40.4080 C   0  0  0  0  0  0  0  0  0  0  0  0
   46.3620   32.9320   39.3410 C   0  0  0  0  0  0  0  0  0  0  0  0
   48.1750   33.3530   39.1540 S   0  0  0  0  0  0  0  0  0  0  0  0
   48.1680   34.6240   40.4820 C   0  0  0  0  0  0  0  0  0  0  0  0
   46.8860   34.7050   41.0100 N   0  0  0  0  0  0  0  0  0  0  0  0
   44.8386   35.7526   41.6719 H   0  0  0  0  0  0  0  0  0  0  0  0
   42.2256   33.9700   41.8388 H   0  0  0  0  0  0  0  0  0  0  0  0
   42.1960   35.6414   42.2212 H   0  0  0  0  0  0  0  0  0  0  0  0
   41.7873   35.0890   39.6311 H   0  0  0  0  0  0  0  0  0  0  0  0
   43.0882   36.2149   39.8195 H   0  0  0  0  0  0  0  0  0  0  0  0
   43.1592   33.2045   39.3618 H   0  0  0  0  0  0  0  0  0  0  0  0
   44.3139   34.4179   38.7749 H   0  0  0  0  0  0  0  0  0  0  0  0
   44.5030   32.7943   41.2768 H   0  0  0  0  0  0  0  0  0  0  0  0
   43.9302   36.5437   43.8021 H   0  0  0  0  0  0  0  0  0  0  0  0
   45.4063   32.5170   42.9880 H   0  0  0  0  0  0  0  0  0  0  0  0
   45.5200   34.1501   46.9335 H   0  0  0  0  0  0  0  0  0  0  0  0
   45.7279   32.2093   38.8066 H   0  0  0  0  0  0  0  0  0  0  0  0
   49.0341   35.2205   40.8045 H   0  0  0  0  0  0  0  0  0  0  0  0
  1  7  1  0
  2  1  1  0
  3  2  1  0
  4  3  1  0
  4  5  1  0
  5  1  1  0
  6 11  2  0
  7  8  2  0
  7  6  1  0
  8  9  1  0
  9 10  2  0
 11 10  1  0
 12  5  1  0
 12 16  1  0
 13 12  2  0
 14 13  1  0
 14 15  1  0
 15 16  2  0
  1 17  1  6
  2 18  1  0
  2 19  1  0
  3 20  1  0
  3 21  1  0
  4 22  1  0
  4 23  1  0
  5 24  1  1
  6 25  1  0
  8 26  1  0
 10 27  1  0
 13 28  1  0
 15 29  1  0
M  ISO  8  17  13  18  13  19  13  20  13  21  13  22  13  23  13  24  13
M  ISO  5  25  14  26  14  27  14  28  14  29  14
M  END
>  <minimizedAffinity>  (1) 
-4.42634726

>  <minimizedRMSD>  (1) 
0.419920236

$$$$
