
     RDKit          3D

 24 25  0  0  1  0  0  0  0  0999 V2000
   43.9580   34.9660   41.6110 C   0  0  2  0  0  0  0  0  0  0  0  0
   42.4230   34.8730   41.4730 C   0  0  0  0  0  0  0  0  0  0  0  0
   42.3690   35.2400   39.9710 C   0  0  0  0  0  0  0  0  0  0  0  0
   43.3920   34.2640   39.4350 C   0  0  0  0  0  0  0  0  0  0  0  0
   44.3890   34.0330   40.5690 C   0  0  1  0  0  0  0  0  0  0  0  0
   44.2660   35.7380   43.9160 C   0  0  0  0  0  0  0  0  0  0  0  0
   44.4190   34.7100   42.9720 C   0  0  0  0  0  0  0  0  0  0  0  0
   45.0330   33.4880   43.3690 C   0  0  0  0  0  0  0  0  0  0  0  0
   45.4490   33.3710   44.6620 N   0  0  0  0  0  0  0  0  0  0  0  0
   45.2830   34.3920   45.5530 C   0  0  0  0  0  0  0  0  0  0  0  0
   44.6970   35.5640   45.1850 N   0  0  0  0  0  0  0  0  0  0  0  0
   45.6960   34.2400   40.1410 O   0  0  0  0  0  0  0  0  0  0  0  0
   44.3966   35.9636   41.4612 H   0  0  0  0  0  0  0  0  0  0  0  0
   42.0391   33.8626   41.6770 H   0  0  0  0  0  0  0  0  0  0  0  0
   41.8208   35.4859   42.1598 H   0  0  0  0  0  0  0  0  0  0  0  0
   41.3714   35.0648   39.5420 H   0  0  0  0  0  0  0  0  0  0  0  0
   42.5674   36.2973   39.7413 H   0  0  0  0  0  0  0  0  0  0  0  0
   42.9067   33.3176   39.1542 H   0  0  0  0  0  0  0  0  0  0  0  0
   43.8892   34.6554   38.5352 H   0  0  0  0  0  0  0  0  0  0  0  0
   44.3972   32.9983   40.9422 H   0  0  0  0  0  0  0  0  0  0  0  0
   43.7942   36.6872   43.6220 H   0  0  0  0  0  0  0  0  0  0  0  0
   45.1676   32.6632   42.6538 H   0  0  0  0  0  0  0  0  0  0  0  0
   45.6298   34.2649   46.5891 H   0  0  0  0  0  0  0  0  0  0  0  0
   46.2898   34.3340   40.9275 H   0  0  0  0  0  0  0  0  0  0  0  0
  1  7  1  0
  2  1  1  0
  3  2  1  0
  4  3  1  0
  4  5  1  0
  5  1  1  0
  6 11  2  0
  7  8  2  0
  7  6  1  0
  8  9  1  0
  9 10  2  0
 11 10  1  0
 12  5  1  0
  1 13  1  6
  2 14  1  0
  2 15  1  0
  3 16  1  0
  3 17  1  0
  4 18  1  0
  4 19  1  0
  5 20  1  1
  6 21  1  0
  8 22  1  0
 10 23  1  0
 12 24  1  0
M  ISO  8  13  13  14  13  15  13  16  13  17  13  18  13  19  13  20  13
M  ISO  4  21  14  22  14  23  14  24   3
M  END
>  <minimizedAffinity>  (1) 
-3.89100051

>  <minimizedRMSD>  (1) 
0.22432515

$$$$
