
     RDKit          3D

 29 31  0  0  1  0  0  0  0  0999 V2000
   44.2630   34.8640   41.8680 C   0  0  2  0  0  0  0  0  0  0  0  0
   42.7360   34.7600   41.6120 C   0  0  0  0  0  0  0  0  0  0  0  0
   42.7860   35.1430   40.1170 C   0  0  0  0  0  0  0  0  0  0  0  0
   43.8590   34.1960   39.6440 C   0  0  0  0  0  0  0  0  0  0  0  0
   44.7440   33.9180   40.8610 C   0  0  1  0  0  0  0  0  0  0  0  0
   44.3640   35.6110   44.2000 C   0  0  0  0  0  0  0  0  0  0  0  0
   44.6210   34.5790   43.2590 C   0  0  0  0  0  0  0  0  0  0  0  0
   45.2180   33.3590   43.6950 C   0  0  0  0  0  0  0  0  0  0  0  0
   45.5130   33.2500   45.0100 N   0  0  0  0  0  0  0  0  0  0  0  0
   45.2600   34.2500   45.8980 C   0  0  0  0  0  0  0  0  0  0  0  0
   44.6910   35.4210   45.5030 N   0  0  0  0  0  0  0  0  0  0  0  0
   46.1370   34.0360   40.4950 N   0  0  0  0  0  0  0  0  0  0  0  0
   46.8200   33.4230   39.4840 C   0  0  0  0  0  0  0  0  0  0  0  0
   48.1150   33.8080   39.4840 N   0  0  0  0  0  0  0  0  0  0  0  0
   48.2280   34.6710   40.5100 C   0  0  0  0  0  0  0  0  0  0  0  0
   47.0190   34.8020   41.1170 N   0  0  0  0  0  0  0  0  0  0  0  0
   44.7142   35.8616   41.7619 H   0  0  0  0  0  0  0  0  0  0  0  0
   42.3475   33.7441   41.7760 H   0  0  0  0  0  0  0  0  0  0  0  0
   42.0804   35.3616   42.2587 H   0  0  0  0  0  0  0  0  0  0  0  0
   41.8254   34.9562   39.6147 H   0  0  0  0  0  0  0  0  0  0  0  0
   42.9830   36.2064   39.9160 H   0  0  0  0  0  0  0  0  0  0  0  0
   43.4093   33.2615   39.2772 H   0  0  0  0  0  0  0  0  0  0  0  0
   44.4390   34.6268   38.8145 H   0  0  0  0  0  0  0  0  0  0  0  0
   44.6802   32.8970   41.2652 H   0  0  0  0  0  0  0  0  0  0  0  0
   43.9039   36.5560   43.8754 H   0  0  0  0  0  0  0  0  0  0  0  0
   45.4296   32.5410   42.9907 H   0  0  0  0  0  0  0  0  0  0  0  0
   45.5210   34.1085   46.9572 H   0  0  0  0  0  0  0  0  0  0  0  0
   46.3773   32.7141   38.7688 H   0  0  0  0  0  0  0  0  0  0  0  0
   49.1515   35.1880   40.8097 H   0  0  0  0  0  0  0  0  0  0  0  0
  1  7  1  0
  2  1  1  0
  3  2  1  0
  4  3  1  0
  4  5  1  0
  5  1  1  0
  6 11  2  0
  7  8  2  0
  7  6  1  0
  8  9  1  0
  9 10  2  0
 11 10  1  0
 12  5  1  0
 12 16  1  0
 13 12  1  0
 14 13  2  0
 14 15  1  0
 15 16  2  0
  1 17  1  6
  2 18  1  0
  2 19  1  0
  3 20  1  0
  3 21  1  0
  4 22  1  0
  4 23  1  0
  5 24  1  1
  6 25  1  0
  8 26  1  0
 10 27  1  0
 13 28  1  0
 15 29  1  0
M  ISO  8  17  13  18  13  19  13  20  13  21  13  22  13  23  13  24  13
M  ISO  5  25  14  26  14  27  14  28  14  29  14
M  END
>  <minimizedAffinity>  (1) 
-4.40117598

>  <minimizedRMSD>  (1) 
0.893731773

$$$$
