
     RDKit          3D

 37 40  0  0  1  0  0  0  0  0999 V2000
   43.9920   34.4760   40.5380 C   0  0  2  0  0  0  0  0  0  0  0  0
   42.4410   34.5800   40.5640 C   0  0  0  0  0  0  0  0  0  0  0  0
   42.2410   34.8740   39.0710 C   0  0  0  0  0  0  0  0  0  0  0  0
   43.1180   33.8250   38.4550 C   0  0  0  0  0  0  0  0  0  0  0  0
   44.1380   33.4360   39.5200 C   0  0  1  0  0  0  0  0  0  0  0  0
   45.4490   33.2700   38.9450 N   0  0  0  0  0  0  0  0  0  0  0  0
   46.6060   33.2740   39.6390 C   0  0  0  0  0  0  0  0  0  0  0  0
   47.6450   33.0980   38.8220 N   0  0  0  0  0  0  0  0  0  0  0  0
   47.1260   32.9810   37.5850 C   0  0  0  0  0  0  0  0  0  0  0  0
   47.7930   32.7850   36.3970 C   0  0  0  0  0  0  0  0  0  0  0  0
   49.0580   32.6880   36.3530 O   0  0  0  0  0  0  0  0  0  0  0  0
   47.0340   32.7000   35.2820 N   0  0  0  0  0  0  0  0  0  0  0  0
   45.6750   32.8030   35.3270 C   0  0  0  0  0  0  0  0  0  0  0  0
   45.0180   32.6930   34.0700 N   0  0  0  0  0  0  0  0  0  0  0  0
   45.0510   32.9960   36.5250 N   0  0  0  0  0  0  0  0  0  0  0  0
   45.7520   33.0880   37.6570 C   0  0  0  0  0  0  0  0  0  0  0  0
   45.2390   35.2480   42.5040 C   0  0  0  0  0  0  0  0  0  0  0  0
   44.5500   34.1920   41.8620 C   0  0  0  0  0  0  0  0  0  0  0  0
   44.4510   32.9230   42.5020 C   0  0  0  0  0  0  0  0  0  0  0  0
   45.0360   32.7910   43.7220 N   0  0  0  0  0  0  0  0  0  0  0  0
   45.6940   33.8260   44.3190 C   0  0  0  0  0  0  0  0  0  0  0  0
   45.7960   35.0450   43.7180 N   0  0  0  0  0  0  0  0  0  0  0  0
   44.5549   35.3888   40.2932 H   0  0  0  0  0  0  0  0  0  0  0  0
   41.9624   33.6394   40.8743 H   0  0  0  0  0  0  0  0  0  0  0  0
   42.0107   35.3072   41.2683 H   0  0  0  0  0  0  0  0  0  0  0  0
   41.1899   34.7491   38.7716 H   0  0  0  0  0  0  0  0  0  0  0  0
   42.4875   35.9040   38.7738 H   0  0  0  0  0  0  0  0  0  0  0  0
   42.5180   32.9497   38.1653 H   0  0  0  0  0  0  0  0  0  0  0  0
   43.6130   34.2018   37.5478 H   0  0  0  0  0  0  0  0  0  0  0  0
   43.9749   32.4521   39.9840 H   0  0  0  0  0  0  0  0  0  0  0  0
   46.6817   33.4045   40.7286 H   0  0  0  0  0  0  0  0  0  0  0  0
   47.4950   32.5533   34.3727 H   0  0  0  0  0  0  0  0  0  0  0  0
   43.9915   32.7600   34.0178 H   0  0  0  0  0  0  0  0  0  0  0  0
   45.5688   32.5463   33.2121 H   0  0  0  0  0  0  0  0  0  0  0  0
   45.3208   36.2306   42.0165 H   0  0  0  0  0  0  0  0  0  0  0  0
   43.9221   32.0832   42.0277 H   0  0  0  0  0  0  0  0  0  0  0  0
   46.1524   33.6735   45.3072 H   0  0  0  0  0  0  0  0  0  0  0  0
  1  2  1  0
  1 18  1  0
  3  2  1  0
  4  3  1  0
  4  5  1  0
  5  1  1  0
  6  5  1  0
  6  7  1  0
  8  7  2  0
  9 16  2  0
  9  8  1  0
 10  9  1  0
 11 10  2  0
 12 13  1  0
 12 10  1  0
 13 15  2  0
 14 13  1  0
 15 16  1  0
 16  6  1  0
 17 22  2  0
 18 19  2  0
 18 17  1  0
 19 20  1  0
 20 21  2  0
 22 21  1  0
  1 23  1  6
  2 24  1  0
  2 25  1  0
  3 26  1  0
  3 27  1  0
  4 28  1  0
  4 29  1  0
  5 30  1  1
  7 31  1  0
 12 32  1  0
 14 33  1  0
 14 34  1  0
 17 35  1  0
 19 36  1  0
 21 37  1  0
M  ISO  8  23  13  24  13  25  13  26  13  27  13  28  13  29  13  30  13
M  ISO  5  31  14  32   9  35  14  36  14  37  14
M  END
>  <minimizedAffinity>  (1) 
-5.70926142

>  <minimizedRMSD>  (1) 
1.60228932

$$$$
