
     RDKit          3D

 46 49  0  0  0  0  0  0  0  0999 V2000
   47.3190   34.8080   41.9550 C   0  0  0  0  0  0  0  0  0  0  0  0
   47.0780   34.2810   40.5840 C   0  0  0  0  0  0  0  0  0  0  0  0
   48.0760   34.2180   39.6280 C   0  0  0  0  0  0  0  0  0  0  0  0
   47.9490   33.7490   38.3460 C   0  0  0  0  0  0  0  0  0  0  0  0
   46.6880   33.3070   38.0240 N   0  0  0  0  0  0  0  0  0  0  0  0
   45.7030   33.3610   38.9460 C   0  0  0  0  0  0  0  0  0  0  0  0
   45.8420   33.8270   40.2090 N   0  0  0  0  0  0  0  0  0  0  0  0
   44.3880   32.8720   38.5320 C   0  0  0  0  0  0  0  0  0  0  0  0
   43.2300   33.5040   38.9680 C   0  0  0  0  0  0  0  0  0  0  0  0
   41.9990   33.0450   38.5810 C   0  0  0  0  0  0  0  0  0  0  0  0
   41.8900   31.9880   37.7800 N   0  0  0  0  0  0  0  0  0  0  0  0
   43.0300   31.3810   37.3620 C   0  0  0  0  0  0  0  0  0  0  0  0
   44.2780   31.8050   37.7240 N   0  0  0  0  0  0  0  0  0  0  0  0
   47.4930   33.6450   42.8790 C   0  0  0  0  0  0  0  0  0  0  0  0
   44.9800   34.7360   45.4710 C   0  0  0  0  0  0  0  0  0  0  0  0
   45.7410   34.6840   44.2960 C   0  0  0  0  0  0  0  0  0  0  0  0
   46.6820   33.7110   44.1000 C   0  0  0  0  0  0  0  0  0  0  0  0
   46.8430   32.8060   45.0850 N   0  0  0  0  0  0  0  0  0  0  0  0
   46.0960   32.8560   46.2400 C   0  0  0  0  0  0  0  0  0  0  0  0
   45.1900   33.8110   46.4030 N   0  0  0  0  0  0  0  0  0  0  0  0
   46.3060   31.8750   47.2530 N   0  0  0  0  0  0  0  0  0  0  0  0
   46.4240   30.4740   46.8800 C   0  0  0  0  0  0  0  0  0  0  0  0
   45.3450   29.7530   47.6590 C   0  0  0  0  0  0  0  0  0  0  0  0
   45.3940   30.0570   49.0680 N   0  0  0  0  0  0  0  0  0  0  0  0
   45.2980   31.4720   49.3430 C   0  0  0  0  0  0  0  0  0  0  0  0
   46.4050   32.2470   48.6570 C   0  0  0  0  0  0  0  0  0  0  0  0
   46.4596   35.4142   42.2773 H   0  0  0  0  0  0  0  0  0  0  0  0
   48.2192   35.4401   41.9662 H   0  0  0  0  0  0  0  0  0  0  0  0
   49.0708   34.5804   39.9263 H   0  0  0  0  0  0  0  0  0  0  0  0
   48.7871   33.7282   37.6339 H   0  0  0  0  0  0  0  0  0  0  0  0
   43.3025   34.3800   39.6293 H   0  0  0  0  0  0  0  0  0  0  0  0
   41.0914   33.5552   38.9359 H   0  0  0  0  0  0  0  0  0  0  0  0
   42.9454   30.5062   36.7004 H   0  0  0  0  0  0  0  0  0  0  0  0
   47.2196   32.7294   42.3341 H   0  0  0  0  0  0  0  0  0  0  0  0
   48.5447   33.6561   43.2011 H   0  0  0  0  0  0  0  0  0  0  0  0
   44.2264   35.5235   45.6192 H   0  0  0  0  0  0  0  0  0  0  0  0
   45.5784   35.4413   43.5149 H   0  0  0  0  0  0  0  0  0  0  0  0
   46.2649   30.3498   45.7987 H   0  0  0  0  0  0  0  0  0  0  0  0
   47.4241   30.0756   47.1058 H   0  0  0  0  0  0  0  0  0  0  0  0
   44.3629   30.0543   47.2657 H   0  0  0  0  0  0  0  0  0  0  0  0
   45.5092   28.6717   47.5412 H   0  0  0  0  0  0  0  0  0  0  0  0
   44.6107   29.5779   49.5347 H   0  0  0  0  0  0  0  0  0  0  0  0
   44.3266   31.8412   48.9824 H   0  0  0  0  0  0  0  0  0  0  0  0
   45.3944   31.6201   50.4287 H   0  0  0  0  0  0  0  0  0  0  0  0
   47.3865   31.9632   49.0646 H   0  0  0  0  0  0  0  0  0  0  0  0
   46.3057   33.3323   48.8065 H   0  0  0  0  0  0  0  0  0  0  0  0
  1 14  1  0
  2  1  1  0
  3  2  2  0
  4  3  1  0
  5  4  2  0
  5  6  1  0
  6  7  2  0
  7  2  1  0
  8  6  1  0
  8  9  2  0
 10  9  1  0
 11 10  2  0
 12 13  2  0
 12 11  1  0
 13  8  1  0
 14 17  1  0
 15 20  2  0
 16 15  1  0
 17 16  2  0
 17 18  1  0
 18 19  2  0
 19 20  1  0
 19 21  1  0
 21 26  1  0
 22 21  1  0
 22 23  1  0
 23 24  1  0
 24 25  1  0
 26 25  1  0
  1 27  1  0
  1 28  1  0
  3 29  1  0
  4 30  1  0
  9 31  1  0
 10 32  1  0
 12 33  1  0
 14 34  1  0
 14 35  1  0
 15 36  1  0
 16 37  1  0
 22 38  1  0
 22 39  1  0
 23 40  1  0
 23 41  1  0
 24 42  1  0
 25 43  1  0
 25 44  1  0
 26 45  1  0
 26 46  1  0
M  ISO  8  27   8  28   8  29  14  30  14  31  14  32  14  33  14  34   8
M  ISO  8  35   8  36  14  37  14  38  13  39  13  40  13  41  13  42   5
M  ISO  4  43  13  44  13  45  13  46  13
M  END
>  <minimizedAffinity>  (1) 
-6.11965656

>  <minimizedRMSD>  (1) 
1.55000651

$$$$
