
     RDKit          3D

 48 52  0  0  1  0  0  0  0  0999 V2000
   43.9060   34.3680   40.7710 C   0  0  2  0  0  0  0  0  0  0  0  0
   42.3680   34.5140   40.7770 C   0  0  0  0  0  0  0  0  0  0  0  0
   42.2100   35.0130   39.3350 C   0  0  0  0  0  0  0  0  0  0  0  0
   43.1290   34.1200   38.5900 C   0  0  0  0  0  0  0  0  0  0  0  0
   44.0730   33.4870   39.6250 C   0  0  1  0  0  0  0  0  0  0  0  0
   44.9840   34.8990   42.9290 C   0  0  0  0  0  0  0  0  0  0  0  0
   44.4340   33.9230   42.0610 C   0  0  0  0  0  0  0  0  0  0  0  0
   44.4410   32.5650   42.4360 C   0  0  0  0  0  0  0  0  0  0  0  0
   44.9860   32.2220   43.6450 N   0  0  0  0  0  0  0  0  0  0  0  0
   45.5100   33.2000   44.4570 C   0  0  0  0  0  0  0  0  0  0  0  0
   45.5140   34.5160   44.1170 N   0  0  0  0  0  0  0  0  0  0  0  0
   46.0330   32.6550   45.6670 N   0  0  0  0  0  0  0  0  0  0  0  0
   46.9070   31.6360   45.5740 C   0  0  0  0  0  0  0  0  0  0  0  0
   47.4200   31.1000   46.7590 C   0  0  0  0  0  0  0  0  0  0  0  0
   46.9890   31.6620   47.9480 C   0  0  0  0  0  0  0  0  0  0  0  0
   47.4360   31.2080   49.2380 N   0  0  0  0  0  0  0  0  0  0  0  0
   46.1100   32.6840   47.9830 N   0  0  0  0  0  0  0  0  0  0  0  0
   45.6110   33.2030   46.8230 C   0  0  0  0  0  0  0  0  0  0  0  0
   44.7900   34.1590   46.8270 O   0  0  0  0  0  0  0  0  0  0  0  0
   45.3920   33.3580   39.0640 N   0  0  0  0  0  0  0  0  0  0  0  0
   46.5440   33.4350   39.7690 C   0  0  0  0  0  0  0  0  0  0  0  0
   47.5980   33.2830   38.9640 N   0  0  0  0  0  0  0  0  0  0  0  0
   47.0960   33.1070   37.7280 C   0  0  0  0  0  0  0  0  0  0  0  0
   47.7740   32.9130   36.5470 C   0  0  0  0  0  0  0  0  0  0  0  0
   49.0390   32.8740   36.5110 O   0  0  0  0  0  0  0  0  0  0  0  0
   47.0420   32.7660   35.4300 N   0  0  0  0  0  0  0  0  0  0  0  0
   45.6720   32.8070   35.4620 C   0  0  0  0  0  0  0  0  0  0  0  0
   45.0150   32.6490   34.2100 N   0  0  0  0  0  0  0  0  0  0  0  0
   45.0330   33.0010   36.6490 N   0  0  0  0  0  0  0  0  0  0  0  0
   45.7100   33.1530   37.7830 C   0  0  0  0  0  0  0  0  0  0  0  0
   44.4945   35.2907   40.6601 H   0  0  0  0  0  0  0  0  0  0  0  0
   41.8568   33.5549   40.9468 H   0  0  0  0  0  0  0  0  0  0  0  0
   41.9415   35.1532   41.5641 H   0  0  0  0  0  0  0  0  0  0  0  0
   41.1733   34.8993   38.9853 H   0  0  0  0  0  0  0  0  0  0  0  0
   42.4375   36.0821   39.2111 H   0  0  0  0  0  0  0  0  0  0  0  0
   42.5572   33.3368   38.0707 H   0  0  0  0  0  0  0  0  0  0  0  0
   43.6951   34.6813   37.8321 H   0  0  0  0  0  0  0  0  0  0  0  0
   43.8636   32.4518   39.9325 H   0  0  0  0  0  0  0  0  0  0  0  0
   44.9810   35.9606   42.6409 H   0  0  0  0  0  0  0  0  0  0  0  0
   44.0179   31.7967   41.7722 H   0  0  0  0  0  0  0  0  0  0  0  0
   47.2089   31.2366   44.5946 H   0  0  0  0  0  0  0  0  0  0  0  0
   48.1368   30.2657   46.7468 H   0  0  0  0  0  0  0  0  0  0  0  0
   47.0842   31.6608   50.0936 H   0  0  0  0  0  0  0  0  0  0  0  0
   48.1078   30.4302   49.3059 H   0  0  0  0  0  0  0  0  0  0  0  0
   46.6039   33.6000   40.8549 H   0  0  0  0  0  0  0  0  0  0  0  0
   47.5206   32.6193   34.5298 H   0  0  0  0  0  0  0  0  0  0  0  0
   43.9863   32.6697   34.1620 H   0  0  0  0  0  0  0  0  0  0  0  0
   45.5680   32.5139   33.3516 H   0  0  0  0  0  0  0  0  0  0  0  0
  1  2  1  0
  1  7  1  0
  3  2  1  0
  4  3  1  0
  4  5  1  0
  5  1  1  0
  6 11  2  0
  7  8  2  0
  7  6  1  0
  8  9  1  0
  9 10  2  0
 10 12  1  0
 11 10  1  0
 12 18  1  0
 13 12  1  0
 13 14  2  0
 14 15  1  0
 15 17  2  0
 15 16  1  0
 18 19  2  0
 18 17  1  0
 20  5  1  0
 20 21  1  0
 22 21  2  0
 23 30  2  0
 23 22  1  0
 24 23  1  0
 25 24  2  0
 26 27  1  0
 26 24  1  0
 27 29  2  0
 28 27  1  0
 29 30  1  0
 30 20  1  0
  1 31  1  6
  2 32  1  0
  2 33  1  0
  3 34  1  0
  3 35  1  0
  4 36  1  0
  4 37  1  0
  5 38  1  1
  6 39  1  0
  8 40  1  0
 13 41  1  0
 14 42  1  0
 16 43  1  0
 16 44  1  0
 21 45  1  0
 26 46  1  0
 28 47  1  0
 28 48  1  0
M  ISO  8  31  13  32  13  33  13  34  13  35  13  36  13  37  13  38  13
M  ISO  6  39  14  40  14  41  14  42  14  45  14  46   9
M  END
>  <minimizedAffinity>  (1) 
-7.66679382

>  <minimizedRMSD>  (1) 
0.648416221

$$$$
