
     RDKit          3D

 44 48  0  0  1  0  0  0  0  0999 V2000
   43.8090   34.4960   40.5320 C   0  0  2  0  0  0  0  0  0  0  0  0
   42.2590   34.6640   40.4880 C   0  0  0  0  0  0  0  0  0  0  0  0
   42.1360   35.0700   39.0140 C   0  0  0  0  0  0  0  0  0  0  0  0
   43.0740   34.1430   38.3460 C   0  0  0  0  0  0  0  0  0  0  0  0
   43.9810   33.5570   39.4410 C   0  0  1  0  0  0  0  0  0  0  0  0
   45.3130   33.3750   38.9230 N   0  0  0  0  0  0  0  0  0  0  0  0
   46.4390   33.4080   39.6590 C   0  0  0  0  0  0  0  0  0  0  0  0
   47.5130   33.2130   38.8940 N   0  0  0  0  0  0  0  0  0  0  0  0
   47.0400   33.0530   37.6400 C   0  0  0  0  0  0  0  0  0  0  0  0
   47.7490   32.8270   36.4800 C   0  0  0  0  0  0  0  0  0  0  0  0
   49.0200   32.7380   36.4910 O   0  0  0  0  0  0  0  0  0  0  0  0
   47.0380   32.7070   35.3410 N   0  0  0  0  0  0  0  0  0  0  0  0
   45.6880   32.8030   35.3370 C   0  0  0  0  0  0  0  0  0  0  0  0
   45.0620   32.6640   34.0570 N   0  0  0  0  0  0  0  0  0  0  0  0
   45.0200   33.0250   36.4950 N   0  0  0  0  0  0  0  0  0  0  0  0
   45.6610   33.1540   37.6510 C   0  0  0  0  0  0  0  0  0  0  0  0
   44.8170   35.1210   42.6880 C   0  0  0  0  0  0  0  0  0  0  0  0
   44.2970   34.1160   41.8550 C   0  0  0  0  0  0  0  0  0  0  0  0
   44.2750   32.7800   42.3060 C   0  0  0  0  0  0  0  0  0  0  0  0
   44.7620   32.5080   43.5410 N   0  0  0  0  0  0  0  0  0  0  0  0
   45.2650   33.5140   44.3330 C   0  0  0  0  0  0  0  0  0  0  0  0
   45.2910   34.7990   43.9110 N   0  0  0  0  0  0  0  0  0  0  0  0
   45.7910   33.2220   45.6630 C   0  0  0  0  0  0  0  0  0  0  0  0
   46.9500   32.4600   45.8130 C   0  0  0  0  0  0  0  0  0  0  0  0
   47.1850   32.3640   47.1810 C   0  0  0  0  0  0  0  0  0  0  0  0
   46.2070   33.0400   47.8070 N   0  0  0  0  0  0  0  0  0  0  0  0
   45.3670   33.5580   46.8970 N   0  0  0  0  0  0  0  0  0  0  0  0
   44.4200   35.3997   40.3907 H   0  0  0  0  0  0  0  0  0  0  0  0
   41.7307   33.7245   40.7079 H   0  0  0  0  0  0  0  0  0  0  0  0
   41.8258   35.3608   41.2207 H   0  0  0  0  0  0  0  0  0  0  0  0
   41.1087   34.9283   38.6473 H   0  0  0  0  0  0  0  0  0  0  0  0
   42.3638   36.1305   38.8314 H   0  0  0  0  0  0  0  0  0  0  0  0
   42.5170   33.3374   37.8453 H   0  0  0  0  0  0  0  0  0  0  0  0
   43.6677   34.6670   37.5825 H   0  0  0  0  0  0  0  0  0  0  0  0
   43.7387   32.5453   39.7986 H   0  0  0  0  0  0  0  0  0  0  0  0
   46.4691   33.5737   40.7460 H   0  0  0  0  0  0  0  0  0  0  0  0
   47.5333   32.5385   34.4538 H   0  0  0  0  0  0  0  0  0  0  0  0
   44.0371   32.7256   33.9755 H   0  0  0  0  0  0  0  0  0  0  0  0
   45.6365   32.5024   33.2176 H   0  0  0  0  0  0  0  0  0  0  0  0
   44.8380   36.1661   42.3453 H   0  0  0  0  0  0  0  0  0  0  0  0
   43.8721   31.9777   41.6704 H   0  0  0  0  0  0  0  0  0  0  0  0
   47.5583   32.0215   45.0082 H   0  0  0  0  0  0  0  0  0  0  0  0
   48.0190   31.8320   47.6621 H   0  0  0  0  0  0  0  0  0  0  0  0
   46.1159   33.1446   48.8276 H   0  0  0  0  0  0  0  0  0  0  0  0
  1 18  1  0
  2  1  1  0
  3  2  1  0
  4  3  1  0
  4  5  1  0
  5  1  1  0
  6  5  1  0
  6  7  1  0
  8  7  2  0
  9 16  2  0
  9  8  1  0
 10 11  2  0
 10  9  1  0
 12 10  1  0
 13 12  1  0
 13 15  2  0
 14 13  1  0
 15 16  1  0
 16  6  1  0
 17 22  2  0
 18 19  2  0
 18 17  1  0
 19 20  1  0
 20 21  2  0
 21 23  1  0
 22 21  1  0
 23 24  1  0
 23 27  2  0
 24 25  2  0
 25 26  1  0
 27 26  1  0
  1 28  1  6
  2 29  1  0
  2 30  1  0
  3 31  1  0
  3 32  1  0
  4 33  1  0
  4 34  1  0
  5 35  1  1
  7 36  1  0
 12 37  1  0
 14 38  1  0
 14 39  1  0
 17 40  1  0
 19 41  1  0
 24 42  1  0
 25 43  1  0
 26 44  1  0
M  ISO  8  28  13  29  13  30  13  31  13  32  13  33  13  34  13  35  13
M  ISO  7  36  14  37   9  40  14  41  14  42  14  43  14  44   9
M  END
>  <minimizedAffinity>  (1) 
-6.69528961

>  <minimizedRMSD>  (1) 
0.515055478

$$$$
