
     RDKit          3D

 47 51  0  0  1  0  0  0  0  0999 V2000
   44.1280   34.1470   40.7300 C   0  0  2  0  0  0  0  0  0  0  0  0
   42.5850   34.3180   40.8010 C   0  0  0  0  0  0  0  0  0  0  0  0
   42.3960   34.9300   39.4050 C   0  0  0  0  0  0  0  0  0  0  0  0
   43.2640   34.0660   38.5710 C   0  0  0  0  0  0  0  0  0  0  0  0
   44.2290   33.3430   39.5270 C   0  0  1  0  0  0  0  0  0  0  0  0
   45.5240   33.2220   38.9060 N   0  0  0  0  0  0  0  0  0  0  0  0
   46.6990   33.2840   39.5630 C   0  0  0  0  0  0  0  0  0  0  0  0
   47.7180   33.1450   38.7140 N   0  0  0  0  0  0  0  0  0  0  0  0
   47.1610   32.9930   37.4960 C   0  0  0  0  0  0  0  0  0  0  0  0
   47.7980   32.8190   36.2840 C   0  0  0  0  0  0  0  0  0  0  0  0
   49.0540   32.7790   36.1920 O   0  0  0  0  0  0  0  0  0  0  0  0
   47.0150   32.6940   35.1970 N   0  0  0  0  0  0  0  0  0  0  0  0
   45.6460   32.7390   35.2920 C   0  0  0  0  0  0  0  0  0  0  0  0
   44.9370   32.6050   34.0600 N   0  0  0  0  0  0  0  0  0  0  0  0
   45.0610   32.9120   36.5020 N   0  0  0  0  0  0  0  0  0  0  0  0
   45.7880   33.0400   37.6070 C   0  0  0  0  0  0  0  0  0  0  0  0
   45.4680   34.4650   42.7760 C   0  0  0  0  0  0  0  0  0  0  0  0
   44.6930   33.5990   41.9670 C   0  0  0  0  0  0  0  0  0  0  0  0
   44.5060   32.2550   42.3510 C   0  0  0  0  0  0  0  0  0  0  0  0
   45.0880   31.8250   43.5060 N   0  0  0  0  0  0  0  0  0  0  0  0
   45.8350   32.6940   44.2670 C   0  0  0  0  0  0  0  0  0  0  0  0
   46.0240   33.9870   43.9140 N   0  0  0  0  0  0  0  0  0  0  0  0
   46.4540   32.2180   45.5030 C   0  0  0  0  0  0  0  0  0  0  0  0
   46.4820   33.0420   46.6150 C   0  0  0  0  0  0  0  0  0  0  0  0
   47.0810   32.5330   47.7510 C   0  0  0  0  0  0  0  0  0  0  0  0
   47.6460   31.2780   47.8570 C   0  0  0  0  0  0  0  0  0  0  0  0
   47.6140   30.4500   46.7320 C   0  0  0  0  0  0  0  0  0  0  0  0
   47.0140   30.9590   45.5890 C   0  0  0  0  0  0  0  0  0  0  0  0
   44.7312   35.0644   40.6627 H   0  0  0  0  0  0  0  0  0  0  0  0
   42.0605   33.3576   40.9133 H   0  0  0  0  0  0  0  0  0  0  0  0
   42.1941   34.8995   41.6489 H   0  0  0  0  0  0  0  0  0  0  0  0
   41.3460   34.8726   39.0821 H   0  0  0  0  0  0  0  0  0  0  0  0
   42.6500   35.9989   39.3508 H   0  0  0  0  0  0  0  0  0  0  0  0
   42.6535   33.3324   38.0241 H   0  0  0  0  0  0  0  0  0  0  0  0
   43.8175   34.6625   37.8309 H   0  0  0  0  0  0  0  0  0  0  0  0
   44.0042   32.2952   39.7752 H   0  0  0  0  0  0  0  0  0  0  0  0
   46.8031   33.4291   40.6484 H   0  0  0  0  0  0  0  0  0  0  0  0
   47.4520   32.5617   34.2737 H   0  0  0  0  0  0  0  0  0  0  0  0
   43.9073   32.6292   34.0531 H   0  0  0  0  0  0  0  0  0  0  0  0
   45.4552   32.4841   33.1781 H   0  0  0  0  0  0  0  0  0  0  0  0
   45.6167   35.5148   42.4829 H   0  0  0  0  0  0  0  0  0  0  0  0
   43.9054   31.5707   41.7337 H   0  0  0  0  0  0  0  0  0  0  0  0
   46.0484   34.0528   46.5950 H   0  0  0  0  0  0  0  0  0  0  0  0
   47.1100   33.1786   48.6412 H   0  0  0  0  0  0  0  0  0  0  0  0
   48.1067   30.9406   48.7971 H   0  0  0  0  0  0  0  0  0  0  0  0
   48.0457   29.4385   46.7515 H   0  0  0  0  0  0  0  0  0  0  0  0
   46.9826   30.3189   44.6949 H   0  0  0  0  0  0  0  0  0  0  0  0
  1  2  1  0
  1 18  1  0
  3  2  1  0
  4  3  1  0
  4  5  1  0
  5  1  1  0
  6  5  1  0
  6  7  1  0
  8  7  2  0
  9 16  2  0
  9  8  1  0
 10  9  1  0
 11 10  2  0
 12 13  1  0
 12 10  1  0
 13 15  2  0
 14 13  1  0
 15 16  1  0
 16  6  1  0
 17 22  2  0
 18 19  2  0
 18 17  1  0
 19 20  1  0
 20 21  2  0
 21 23  1  0
 22 21  1  0
 23 28  1  0
 23 24  2  0
 24 25  1  0
 25 26  2  0
 27 26  1  0
 28 27  2  0
  1 29  1  6
  2 30  1  0
  2 31  1  0
  3 32  1  0
  3 33  1  0
  4 34  1  0
  4 35  1  0
  5 36  1  1
  7 37  1  0
 12 38  1  0
 14 39  1  0
 14 40  1  0
 17 41  1  0
 19 42  1  0
 24 43  1  0
 25 44  1  0
 26 45  1  0
 27 46  1  0
 28 47  1  0
M  ISO  8  29  13  30  13  31  13  32  13  33  13  34  13  35  13  36  13
M  ISO  8  37  14  38   9  41  14  42  14  43  14  44  14  45  14  46  14
M  ISO  1  47  14
M  END
>  <minimizedAffinity>  (1) 
-6.66822767

>  <minimizedRMSD>  (1) 
1.09693825

$$$$
