
     RDKit          3D

 53 57  0  0  1  0  0  0  0  0999 V2000
   44.0900   34.3340   41.6830 C   0  0  2  0  0  0  0  0  0  0  0  0
   42.5270   34.3390   41.7440 C   0  0  0  0  0  0  0  0  0  0  0  0
   42.2790   34.9530   40.3570 C   0  0  0  0  0  0  0  0  0  0  0  0
   43.2380   34.2020   39.5140 C   0  0  0  0  0  0  0  0  0  0  0  0
   44.2710   33.5720   40.4620 C   0  0  1  0  0  0  0  0  0  0  0  0
   45.5720   33.5860   39.8550 N   0  0  0  0  0  0  0  0  0  0  0  0
   46.7310   33.7760   40.5070 C   0  0  0  0  0  0  0  0  0  0  0  0
   47.7600   33.7390   39.6590 N   0  0  0  0  0  0  0  0  0  0  0  0
   47.2230   33.5180   38.4390 C   0  0  0  0  0  0  0  0  0  0  0  0
   47.8760   33.4020   37.2340 C   0  0  0  0  0  0  0  0  0  0  0  0
   49.1440   33.4940   37.1460 O   0  0  0  0  0  0  0  0  0  0  0  0
   47.1150   33.1860   36.1510 N   0  0  0  0  0  0  0  0  0  0  0  0
   45.7530   33.0840   36.2340 C   0  0  0  0  0  0  0  0  0  0  0  0
   45.0670   32.8640   35.0100 N   0  0  0  0  0  0  0  0  0  0  0  0
   45.1570   33.2070   37.4500 N   0  0  0  0  0  0  0  0  0  0  0  0
   45.8540   33.4210   38.5550 C   0  0  0  0  0  0  0  0  0  0  0  0
   45.1020   34.7670   43.8790 C   0  0  0  0  0  0  0  0  0  0  0  0
   44.7000   33.8310   42.9070 C   0  0  0  0  0  0  0  0  0  0  0  0
   44.9060   32.4560   43.1400 C   0  0  0  0  0  0  0  0  0  0  0  0
   45.4880   32.0720   44.3010 N   0  0  0  0  0  0  0  0  0  0  0  0
   45.8700   33.0070   45.2300 C   0  0  0  0  0  0  0  0  0  0  0  0
   45.6780   34.3510   45.0210 N   0  0  0  0  0  0  0  0  0  0  0  0
   46.5120   32.6840   46.5230 C   0  0  0  0  0  0  0  0  0  0  0  0
   47.0970   31.2870   46.5230 C   0  0  0  0  0  0  0  0  0  0  0  0
   47.1830   30.8320   47.9720 C   0  0  0  0  0  0  0  0  0  0  0  0
   45.8170   30.5380   48.5330 C   0  0  0  0  0  0  0  0  0  0  0  0
   44.8400   31.5520   47.9760 C   0  0  0  0  0  0  0  0  0  0  0  0
   45.5310   32.8430   47.6720 C   0  0  0  0  0  0  0  0  0  0  0  0
   44.6014   35.3070   41.6412 H   0  0  0  0  0  0  0  0  0  0  0  0
   42.1075   33.3263   41.8356 H   0  0  0  0  0  0  0  0  0  0  0  0
   42.0723   34.8613   42.5987 H   0  0  0  0  0  0  0  0  0  0  0  0
   41.2426   34.7894   40.0266 H   0  0  0  0  0  0  0  0  0  0  0  0
   42.4169   36.0438   40.3229 H   0  0  0  0  0  0  0  0  0  0  0  0
   42.7122   33.4161   38.9519 H   0  0  0  0  0  0  0  0  0  0  0  0
   43.7265   34.8672   38.7868 H   0  0  0  0  0  0  0  0  0  0  0  0
   44.1472   32.5022   40.6860 H   0  0  0  0  0  0  0  0  0  0  0  0
   46.8194   33.9396   41.5912 H   0  0  0  0  0  0  0  0  0  0  0  0
   47.5686   33.0943   35.2308 H   0  0  0  0  0  0  0  0  0  0  0  0
   44.0406   32.7779   35.0031 H   0  0  0  0  0  0  0  0  0  0  0  0
   45.5959   32.7906   34.1292 H   0  0  0  0  0  0  0  0  0  0  0  0
   44.9445   35.8415   43.7039 H   0  0  0  0  0  0  0  0  0  0  0  0
   44.5998   31.7090   42.3928 H   0  0  0  0  0  0  0  0  0  0  0  0
   47.3374   33.3974   46.6631 H   0  0  0  0  0  0  0  0  0  0  0  0
   46.4471   30.6068   45.9529 H   0  0  0  0  0  0  0  0  0  0  0  0
   48.0918   31.2816   46.0537 H   0  0  0  0  0  0  0  0  0  0  0  0
   47.7967   29.9207   48.0260 H   0  0  0  0  0  0  0  0  0  0  0  0
   47.6359   31.6406   48.5644 H   0  0  0  0  0  0  0  0  0  0  0  0
   45.5063   29.5241   48.2408 H   0  0  0  0  0  0  0  0  0  0  0  0
   45.8393   30.6001   49.6310 H   0  0  0  0  0  0  0  0  0  0  0  0
   44.3953   31.1545   47.0518 H   0  0  0  0  0  0  0  0  0  0  0  0
   44.0584   31.7385   48.7272 H   0  0  0  0  0  0  0  0  0  0  0  0
   46.0772   33.1769   48.5665 H   0  0  0  0  0  0  0  0  0  0  0  0
   44.7719   33.5843   47.3817 H   0  0  0  0  0  0  0  0  0  0  0  0
  1  2  1  0
  1 18  1  0
  3  2  1  0
  4  3  1  0
  4  5  1  0
  5  1  1  0
  6  5  1  0
  6  7  1  0
  8  7  2  0
  9 16  2  0
  9  8  1  0
 10  9  1  0
 11 10  2  0
 12 13  1  0
 12 10  1  0
 13 15  2  0
 14 13  1  0
 15 16  1  0
 16  6  1  0
 17 22  2  0
 18 19  2  0
 18 17  1  0
 19 20  1  0
 20 21  2  0
 21 23  1  0
 22 21  1  0
 23 24  1  0
 23 28  1  0
 24 25  1  0
 25 26  1  0
 27 26  1  0
 28 27  1  0
  1 29  1  6
  2 30  1  0
  2 31  1  0
  3 32  1  0
  3 33  1  0
  4 34  1  0
  4 35  1  0
  5 36  1  1
  7 37  1  0
 12 38  1  0
 14 39  1  0
 14 40  1  0
 17 41  1  0
 19 42  1  0
 23 43  1  0
 24 44  1  0
 24 45  1  0
 25 46  1  0
 25 47  1  0
 26 48  1  0
 26 49  1  0
 27 50  1  0
 27 51  1  0
 28 52  1  0
 28 53  1  0
M  ISO  8  29  13  30  13  31  13  32  13  33  13  34  13  35  13  36  13
M  ISO  8  37  14  38   9  41  14  42  14  43  13  44  13  45  13  46  13
M  ISO  7  47  13  48  13  49  13  50  13  51  13  52  13  53  13
M  END
>  <minimizedAffinity>  (1) 
-6.67712879

>  <minimizedRMSD>  (1) 
1.19448841

$$$$
