
     RDKit          3D

 39 42  0  0  0  0  0  0  0  0999 V2000
   47.3590   34.8280   41.8780 C   0  0  0  0  0  0  0  0  0  0  0  0
   47.1040   34.2910   40.5140 C   0  0  0  0  0  0  0  0  0  0  0  0
   48.0910   34.2180   39.5470 C   0  0  0  0  0  0  0  0  0  0  0  0
   47.9380   33.7390   38.2750 C   0  0  0  0  0  0  0  0  0  0  0  0
   46.6770   33.2990   37.9710 N   0  0  0  0  0  0  0  0  0  0  0  0
   45.7010   33.3620   38.8990 C   0  0  0  0  0  0  0  0  0  0  0  0
   45.8600   33.8390   40.1590 N   0  0  0  0  0  0  0  0  0  0  0  0
   44.3730   32.8730   38.5070 C   0  0  0  0  0  0  0  0  0  0  0  0
   43.2230   33.5020   38.9420 C   0  0  0  0  0  0  0  0  0  0  0  0
   41.9910   33.0380   38.5690 C   0  0  0  0  0  0  0  0  0  0  0  0
   41.8850   31.9800   37.7880 N   0  0  0  0  0  0  0  0  0  0  0  0
   43.0210   31.3690   37.3640 C   0  0  0  0  0  0  0  0  0  0  0  0
   44.2720   31.7980   37.7100 N   0  0  0  0  0  0  0  0  0  0  0  0
   47.1880   33.7180   42.8610 C   0  0  0  0  0  0  0  0  0  0  0  0
   44.6360   35.3830   45.0850 C   0  0  0  0  0  0  0  0  0  0  0  0
   45.4540   35.0920   43.9840 C   0  0  0  0  0  0  0  0  0  0  0  0
   46.3250   34.0340   44.0090 C   0  0  0  0  0  0  0  0  0  0  0  0
   46.3660   33.2830   45.1360 N   0  0  0  0  0  0  0  0  0  0  0  0
   45.5600   33.5860   46.1980 C   0  0  0  0  0  0  0  0  0  0  0  0
   44.7240   34.6040   46.1680 N   0  0  0  0  0  0  0  0  0  0  0  0
   45.6580   32.7320   47.3790 C   0  0  0  0  0  0  0  0  0  0  0  0
   46.7930   32.2510   47.9750 C   0  0  0  0  0  0  0  0  0  0  0  0
   46.4510   31.5030   49.0370 N   0  0  0  0  0  0  0  0  0  0  0  0
   45.1230   31.4910   49.1400 C   0  0  0  0  0  0  0  0  0  0  0  0
   44.6540   32.2400   48.1270 N   0  0  0  0  0  0  0  0  0  0  0  0
   46.6439   35.6339   42.0996 H   0  0  0  0  0  0  0  0  0  0  0  0
   48.3796   35.2336   41.9397 H   0  0  0  0  0  0  0  0  0  0  0  0
   49.0917   34.5787   39.8273 H   0  0  0  0  0  0  0  0  0  0  0  0
   48.7654   33.7094   37.5507 H   0  0  0  0  0  0  0  0  0  0  0  0
   43.2982   34.3844   39.5945 H   0  0  0  0  0  0  0  0  0  0  0  0
   41.0838   33.5500   38.9223 H   0  0  0  0  0  0  0  0  0  0  0  0
   42.9305   30.4879   36.7118 H   0  0  0  0  0  0  0  0  0  0  0  0
   46.7516   32.8577   42.3323 H   0  0  0  0  0  0  0  0  0  0  0  0
   48.1873   33.5150   43.2734 H   0  0  0  0  0  0  0  0  0  0  0  0
   43.9379   36.2327   45.0583 H   0  0  0  0  0  0  0  0  0  0  0  0
   45.3957   35.7234   43.0851 H   0  0  0  0  0  0  0  0  0  0  0  0
   47.8216   32.4462   47.6377 H   0  0  0  0  0  0  0  0  0  0  0  0
   44.5270   30.9704   49.9040 H   0  0  0  0  0  0  0  0  0  0  0  0
   43.6550   32.4146   47.9469 H   0  0  0  0  0  0  0  0  0  0  0  0
  1 14  1  0
  2  1  1  0
  3  2  2  0
  4  3  1  0
  5  4  2  0
  5  6  1  0
  6  7  2  0
  7  2  1  0
  8  6  1  0
  8  9  2  0
 10  9  1  0
 11 10  2  0
 12 13  2  0
 12 11  1  0
 13  8  1  0
 14 17  1  0
 15 20  2  0
 16 17  2  0
 16 15  1  0
 17 18  1  0
 18 19  2  0
 19 21  1  0
 20 19  1  0
 21 22  2  0
 21 25  1  0
 22 23  1  0
 23 24  2  0
 25 24  1  0
  1 26  1  0
  1 27  1  0
  3 28  1  0
  4 29  1  0
  9 30  1  0
 10 31  1  0
 12 32  1  0
 14 33  1  0
 14 34  1  0
 15 35  1  0
 16 36  1  0
 22 37  1  0
 24 38  1  0
 25 39  1  0
M  ISO  8  26   8  27   8  28  14  29  14  30  14  31  14  32  14  33   8
M  ISO  6  34   8  35  14  36  14  37  14  38  14  39   9
M  END
>  <minimizedAffinity>  (1) 
-6.06504202

>  <minimizedRMSD>  (1) 
0.927151799

$$$$
