
     RDKit          3D

 46 49  0  0  1  0  0  0  0  0999 V2000
   44.0390   34.3390   40.5840 C   0  0  2  0  0  0  0  0  0  0  0  0
   42.4870   34.4750   40.6230 C   0  0  0  0  0  0  0  0  0  0  0  0
   42.2690   34.8650   39.1570 C   0  0  0  0  0  0  0  0  0  0  0  0
   43.1870   33.9490   38.4470 C   0  0  0  0  0  0  0  0  0  0  0  0
   44.1660   33.3920   39.4940 C   0  0  1  0  0  0  0  0  0  0  0  0
   45.4760   33.2450   38.8950 N   0  0  0  0  0  0  0  0  0  0  0  0
   46.6370   33.2830   39.5730 C   0  0  0  0  0  0  0  0  0  0  0  0
   47.6720   33.1230   38.7470 N   0  0  0  0  0  0  0  0  0  0  0  0
   47.1350   32.9820   37.5190 C   0  0  0  0  0  0  0  0  0  0  0  0
   47.7850   32.7920   36.3190 C   0  0  0  0  0  0  0  0  0  0  0  0
   49.0490   32.7250   36.2530 O   0  0  0  0  0  0  0  0  0  0  0  0
   47.0220   32.6820   35.2210 N   0  0  0  0  0  0  0  0  0  0  0  0
   45.6560   32.7540   35.2880 C   0  0  0  0  0  0  0  0  0  0  0  0
   44.9690   32.6290   34.0420 N   0  0  0  0  0  0  0  0  0  0  0  0
   45.0520   32.9410   36.4870 N   0  0  0  0  0  0  0  0  0  0  0  0
   45.7570   33.0560   37.6050 C   0  0  0  0  0  0  0  0  0  0  0  0
   45.3360   34.9800   42.5710 C   0  0  0  0  0  0  0  0  0  0  0  0
   44.6120   33.9900   41.8780 C   0  0  0  0  0  0  0  0  0  0  0  0
   44.4680   32.7040   42.4380 C   0  0  0  0  0  0  0  0  0  0  0  0
   45.0370   32.4490   43.6400 N   0  0  0  0  0  0  0  0  0  0  0  0
   45.7400   33.4280   44.2990 C   0  0  0  0  0  0  0  0  0  0  0  0
   45.8860   34.6840   43.7650 N   0  0  0  0  0  0  0  0  0  0  0  0
   46.3920   33.2430   45.6100 C   0  0  0  0  0  0  0  0  0  0  0  0
   45.4190   33.4430   46.7590 C   0  0  0  0  0  0  0  0  0  0  0  0
   47.0330   31.8560   45.7170 C   0  0  0  0  0  0  0  0  0  0  0  0
   44.6234   35.2529   40.4016 H   0  0  0  0  0  0  0  0  0  0  0  0
   41.9922   33.5267   40.8797 H   0  0  0  0  0  0  0  0  0  0  0  0
   42.0825   35.1711   41.3726 H   0  0  0  0  0  0  0  0  0  0  0  0
   41.2254   34.6987   38.8516 H   0  0  0  0  0  0  0  0  0  0  0  0
   42.4614   35.9283   38.9509 H   0  0  0  0  0  0  0  0  0  0  0  0
   42.6190   33.1273   37.9863 H   0  0  0  0  0  0  0  0  0  0  0  0
   43.7267   34.4768   37.6469 H   0  0  0  0  0  0  0  0  0  0  0  0
   43.9660   32.3791   39.8736 H   0  0  0  0  0  0  0  0  0  0  0  0
   46.7214   33.4265   40.6603 H   0  0  0  0  0  0  0  0  0  0  0  0
   47.4740   32.5401   34.3064 H   0  0  0  0  0  0  0  0  0  0  0  0
   43.9403   32.6734   34.0144 H   0  0  0  0  0  0  0  0  0  0  0  0
   45.5023   32.4945   33.1711 H   0  0  0  0  0  0  0  0  0  0  0  0
   45.4514   35.9859   42.1412 H   0  0  0  0  0  0  0  0  0  0  0  0
   43.9038   31.9223   41.9082 H   0  0  0  0  0  0  0  0  0  0  0  0
   47.1771   34.0099   45.6833 H   0  0  0  0  0  0  0  0  0  0  0  0
   45.9526   33.3333   47.7146 H   0  0  0  0  0  0  0  0  0  0  0  0
   44.9807   34.4500   46.6972 H   0  0  0  0  0  0  0  0  0  0  0  0
   44.6190   32.6905   46.6972 H   0  0  0  0  0  0  0  0  0  0  0  0
   47.1561   31.5897   46.7772 H   0  0  0  0  0  0  0  0  0  0  0  0
   46.3864   31.1143   45.2253 H   0  0  0  0  0  0  0  0  0  0  0  0
   48.0169   31.8679   45.2253 H   0  0  0  0  0  0  0  0  0  0  0  0
  1  2  1  0
  1 18  1  0
  3  2  1  0
  4  3  1  0
  4  5  1  0
  5  1  1  0
  6  5  1  0
  6  7  1  0
  8  7  2  0
  9 16  2  0
  9  8  1  0
 10  9  1  0
 11 10  2  0
 12 13  1  0
 12 10  1  0
 13 15  2  0
 14 13  1  0
 15 16  1  0
 16  6  1  0
 17 22  2  0
 18 19  2  0
 18 17  1  0
 19 20  1  0
 20 21  2  0
 21 23  1  0
 22 21  1  0
 23 25  1  0
 23 24  1  0
  1 26  1  6
  2 27  1  0
  2 28  1  0
  3 29  1  0
  3 30  1  0
  4 31  1  0
  4 32  1  0
  5 33  1  1
  7 34  1  0
 12 35  1  0
 14 36  1  0
 14 37  1  0
 17 38  1  0
 19 39  1  0
 23 40  1  0
 24 41  1  0
 24 42  1  0
 24 43  1  0
 25 44  1  0
 25 45  1  0
 25 46  1  0
M  ISO  8  26  13  27  13  28  13  29  13  30  13  31  13  32  13  33  13
M  ISO  8  34  14  35   9  38  14  39  14  40   8  41   8  42   8  43   8
M  ISO  3  44   8  45   8  46   8
M  END
>  <minimizedAffinity>  (1) 
-6.14046478

>  <minimizedRMSD>  (1) 
0.261622608

$$$$
