
     RDKit          3D

 30 32  0  0  1  0  0  0  0  0999 V2000
   45.4780   34.1210   40.8420 C   0  0  2  0  0  0  0  0  0  0  0  0
   46.9180   34.2970   40.6750 C   0  0  0  0  0  0  0  0  0  0  0  0
   47.4430   35.0890   41.8760 C   0  0  0  0  0  0  0  0  0  0  0  0
   46.2740   35.2930   42.8090 C   0  0  1  0  0  0  0  0  0  0  0  0
   45.0910   35.1680   41.9260 C   0  0  0  0  0  0  0  0  0  0  0  0
   44.9960   32.8320   41.3550 C   0  0  0  0  0  0  0  0  0  0  0  0
   45.8270   31.7010   41.2340 C   0  0  0  0  0  0  0  0  0  0  0  0
   45.3910   30.4760   41.7360 C   0  0  0  0  0  0  0  0  0  0  0  0
   44.1570   30.4520   42.3270 N   0  0  0  0  0  0  0  0  0  0  0  0
   43.3790   31.5610   42.4270 C   0  0  0  0  0  0  0  0  0  0  0  0
   43.8010   32.7300   41.9460 N   0  0  0  0  0  0  0  0  0  0  0  0
   46.2430   34.3580   43.9040 N   0  0  0  0  0  0  0  0  0  0  0  0
   45.3280   34.1620   44.8400 N   0  0  0  0  0  0  0  0  0  0  0  0
   45.7050   33.1740   45.6780 C   0  0  0  0  0  0  0  0  0  0  0  0
   46.9420   32.7460   45.2050 C   0  0  0  0  0  0  0  0  0  0  0  0
   47.2630   33.5050   44.0860 C   0  0  0  0  0  0  0  0  0  0  0  0
   45.0371   34.2118   39.8383 H   0  0  0  0  0  0  0  0  0  0  0  0
   47.4111   33.3147   40.6318 H   0  0  0  0  0  0  0  0  0  0  0  0
   47.1301   34.8369   39.7404 H   0  0  0  0  0  0  0  0  0  0  0  0
   48.2385   34.5239   42.3837 H   0  0  0  0  0  0  0  0  0  0  0  0
   47.8670   36.0529   41.5581 H   0  0  0  0  0  0  0  0  0  0  0  0
   46.3252   36.2669   43.3178 H   0  0  0  0  0  0  0  0  0  0  0  0
   44.8589   36.1359   41.4577 H   0  0  0  0  0  0  0  0  0  0  0  0
   44.1981   34.8569   42.4880 H   0  0  0  0  0  0  0  0  0  0  0  0
   46.8104   31.7838   40.7481 H   0  0  0  0  0  0  0  0  0  0  0  0
   46.0104   29.5701   41.6606 H   0  0  0  0  0  0  0  0  0  0  0  0
   42.3925   31.4936   42.9090 H   0  0  0  0  0  0  0  0  0  0  0  0
   45.1531   32.7893   46.5483 H   0  0  0  0  0  0  0  0  0  0  0  0
   47.5584   31.9461   45.6411 H   0  0  0  0  0  0  0  0  0  0  0  0
   48.1719   33.4230   43.4719 H   0  0  0  0  0  0  0  0  0  0  0  0
  1  6  1  0
  1  5  1  0
  2  1  1  0
  2  3  1  0
  3  4  1  0
  4 12  1  0
  5  4  1  0
  6 11  1  0
  7  6  2  0
  7  8  1  0
  8  9  2  0
  9 10  1  0
 11 10  2  0
 12 16  1  0
 12 13  1  0
 13 14  2  0
 15 14  1  0
 16 15  2  0
  1 17  1  6
  2 18  1  0
  2 19  1  0
  3 20  1  0
  3 21  1  0
  4 22  1  1
  5 23  1  0
  5 24  1  0
  7 25  1  0
  8 26  1  0
 10 27  1  0
 14 28  1  0
 15 29  1  0
 16 30  1  0
M  ISO  8  17  13  18  13  19  13  20  13  21  13  22  13  23  13  24  13
M  ISO  6  25  14  26  14  27  14  28  14  29  14  30  14
M  END
>  <minimizedAffinity>  (1) 
-3.73647833

>  <minimizedRMSD>  (1) 
1.82643604

$$$$
