
     RDKit          3D

 30 31  0  0  1  0  0  0  0  0999 V2000
   46.8600   34.0140   42.2390 C   0  0  2  0  0  0  0  0  0  0  0  0
   47.7050   35.1970   42.1240 C   0  0  0  0  0  0  0  0  0  0  0  0
   48.4150   35.1410   40.7710 C   0  0  0  0  0  0  0  0  0  0  0  0
   47.8890   33.9260   40.0410 C   0  0  2  0  0  0  0  0  0  0  0  0
   47.3980   33.0550   41.1390 C   0  0  0  0  0  0  0  0  0  0  0  0
   45.4240   34.1650   41.9590 C   0  0  0  0  0  0  0  0  0  0  0  0
   44.8230   35.4240   42.1400 C   0  0  0  0  0  0  0  0  0  0  0  0
   43.4660   35.5860   41.8590 C   0  0  0  0  0  0  0  0  0  0  0  0
   42.7930   34.4780   41.4130 N   0  0  0  0  0  0  0  0  0  0  0  0
   43.4030   33.2750   41.2490 C   0  0  0  0  0  0  0  0  0  0  0  0
   44.7040   33.1270   41.5210 N   0  0  0  0  0  0  0  0  0  0  0  0
   48.9510   33.3410   39.2630 N   0  0  0  0  0  0  0  0  0  0  0  0
   48.9780   33.4540   37.8530 C   0  0  0  0  0  0  0  0  0  0  0  0
   47.9640   34.0150   37.2810 N   0  0  0  0  0  0  0  0  0  0  0  0
   50.0830   32.9680   37.0960 N   0  0  0  0  0  0  0  0  0  0  0  0
   47.9240   34.1290   36.2390 H   0  0  0  0  0  0  0  0  0  0  0  0
   46.9149   33.6940   43.2900 H   0  0  0  0  0  0  0  0  0  0  0  0
   47.0865   36.1047   42.1837 H   0  0  0  0  0  0  0  0  0  0  0  0
   48.4411   35.2216   42.9410 H   0  0  0  0  0  0  0  0  0  0  0  0
   48.1976   36.0514   40.1932 H   0  0  0  0  0  0  0  0  0  0  0  0
   49.5050   35.0755   40.9040 H   0  0  0  0  0  0  0  0  0  0  0  0
   47.0868   34.1269   39.3157 H   0  0  0  0  0  0  0  0  0  0  0  0
   46.5925   32.3997   40.7759 H   0  0  0  0  0  0  0  0  0  0  0  0
   48.1971   32.4057   41.5262 H   0  0  0  0  0  0  0  0  0  0  0  0
   45.4191   36.2752   42.5007 H   0  0  0  0  0  0  0  0  0  0  0  0
   42.9612   36.5547   41.9889 H   0  0  0  0  0  0  0  0  0  0  0  0
   42.8208   32.4140   40.8888 H   0  0  0  0  0  0  0  0  0  0  0  0
   49.7058   32.8302   39.7429 H   0  0  0  0  0  0  0  0  0  0  0  0
   50.0844   33.0594   36.0701 H   0  0  0  0  0  0  0  0  0  0  0  0
   50.8803   32.5253   37.5747 H   0  0  0  0  0  0  0  0  0  0  0  0
  2  1  1  0
  3  2  1  0
  4  3  1  0
  4  5  1  0
  5  1  1  0
  6  7  2  0
  6  1  1  0
  8  7  1  0
  9  8  2  0
 10  9  1  0
 10 11  2  0
 11  6  1  0
 12  4  1  0
 13 12  1  0
 14 13  2  0
 15 13  1  0
 16 14  1  0
  1 17  1  1
  2 18  1  0
  2 19  1  0
  3 20  1  0
  3 21  1  0
  4 22  1  6
  5 23  1  0
  5 24  1  0
  7 25  1  0
  8 26  1  0
 10 27  1  0
 12 28  1  0
 15 29  1  0
 15 30  1  0
M  ISO  8  17  13  18  13  19  13  20  13  21  13  22  13  23  13  24  13
M  ISO  3  25  14  26  14  27  14
M  END
>  <minimizedAffinity>  (1) 
-4.37123823

>  <minimizedRMSD>  (1) 
4.15649557

$$$$
