
     RDKit          3D

 30 32  0  0  1  0  0  0  0  0999 V2000
   46.1170   35.2340   42.7950 C   0  0  2  0  0  0  0  0  0  0  0  0
   44.9820   36.1380   42.9740 C   0  0  0  0  0  0  0  0  0  0  0  0
   43.8700   35.6710   42.0360 C   0  0  0  0  0  0  0  0  0  0  0  0
   44.3270   34.3790   41.4090 C   0  0  2  0  0  0  0  0  0  0  0  0
   45.8090   34.4750   41.4720 C   0  0  0  0  0  0  0  0  0  0  0  0
   46.3210   34.1860   43.8070 C   0  0  0  0  0  0  0  0  0  0  0  0
   45.6140   34.2620   45.0230 C   0  0  0  0  0  0  0  0  0  0  0  0
   45.7800   33.2660   45.9810 C   0  0  0  0  0  0  0  0  0  0  0  0
   46.6480   32.2480   45.6630 N   0  0  0  0  0  0  0  0  0  0  0  0
   47.3140   32.2010   44.4910 C   0  0  0  0  0  0  0  0  0  0  0  0
   47.1500   33.1660   43.5680 N   0  0  0  0  0  0  0  0  0  0  0  0
   43.7710   34.1260   40.0620 C   0  0  0  0  0  0  0  0  0  0  0  0
   43.0000   32.8820   39.8310 C   0  0  0  0  0  0  0  0  0  0  0  0
   44.2880   33.0710   39.1600 C   0  0  0  0  0  0  0  0  0  0  0  0
   47.0190   35.8621   42.8380 H   0  0  0  0  0  0  0  0  0  0  0  0
   44.6337   36.1015   44.0168 H   0  0  0  0  0  0  0  0  0  0  0  0
   45.2722   37.1740   42.7450 H   0  0  0  0  0  0  0  0  0  0  0  0
   42.9425   35.5065   42.6040 H   0  0  0  0  0  0  0  0  0  0  0  0
   43.6671   36.4284   41.2645 H   0  0  0  0  0  0  0  0  0  0  0  0
   43.9520   33.4932   41.9426 H   0  0  0  0  0  0  0  0  0  0  0  0
   46.2594   33.4716   41.4899 H   0  0  0  0  0  0  0  0  0  0  0  0
   46.2233   34.9950   40.5956 H   0  0  0  0  0  0  0  0  0  0  0  0
   44.9337   35.1049   45.2146 H   0  0  0  0  0  0  0  0  0  0  0  0
   45.2450   33.2918   46.9418 H   0  0  0  0  0  0  0  0  0  0  0  0
   47.9987   31.3645   44.2876 H   0  0  0  0  0  0  0  0  0  0  0  0
   43.6106   35.2082   39.9477 H   0  0  0  0  0  0  0  0  0  0  0  0
   42.9041   32.1381   40.6357 H   0  0  0  0  0  0  0  0  0  0  0  0
   41.9772   32.6541   39.4965 H   0  0  0  0  0  0  0  0  0  0  0  0
   45.1576   32.4687   39.4616 H   0  0  0  0  0  0  0  0  0  0  0  0
   44.6293   33.0432   38.1147 H   0  0  0  0  0  0  0  0  0  0  0  0
  1  2  1  0
  1  6  1  0
  3  2  1  0
  4  5  1  0
  4  3  1  0
  5  1  1  0
  6  7  2  0
  7  8  1  0
  9  8  2  0
 10  9  1  0
 11  6  1  0
 11 10  2  0
 12  4  1  0
 13 12  1  0
 14 13  1  0
 14 12  1  0
  1 15  1  6
  2 16  1  0
  2 17  1  0
  3 18  1  0
  3 19  1  0
  4 20  1  1
  5 21  1  0
  5 22  1  0
  7 23  1  0
  8 24  1  0
 10 25  1  0
 12 26  1  0
 13 27  1  0
 13 28  1  0
 14 29  1  0
 14 30  1  0
M  ISO  8  15  13  16  13  17  13  18  13  19  13  20  13  21  13  22  13
M  ISO  8  23  14  24  14  25  14  26  13  27  13  28  13  29  13  30  13
M  END
>  <minimizedAffinity>  (1) 
-3.93683648

>  <minimizedRMSD>  (1) 
4.94240141

$$$$
