
     RDKit          3D

 24 25  0  0  1  0  0  0  0  0999 V2000
   46.2750   34.4410   41.1000 C   0  0  2  0  0  0  0  0  0  0  0  0
   47.5320   34.4030   40.3540 C   0  0  0  0  0  0  0  0  0  0  0  0
   48.6780   34.5770   41.3540 C   0  0  0  0  0  0  0  0  0  0  0  0
   48.0650   34.5960   42.7340 C   0  0  1  0  0  0  0  0  0  0  0  0
   46.6700   35.0360   42.4830 C   0  0  0  0  0  0  0  0  0  0  0  0
   45.6270   33.1540   41.4030 C   0  0  0  0  0  0  0  0  0  0  0  0
   46.0530   31.9980   40.7210 C   0  0  0  0  0  0  0  0  0  0  0  0
   45.4650   30.7700   41.0090 C   0  0  0  0  0  0  0  0  0  0  0  0
   44.4790   30.7740   41.9680 N   0  0  0  0  0  0  0  0  0  0  0  0
   44.0890   31.8940   42.6060 C   0  0  0  0  0  0  0  0  0  0  0  0
   44.6630   33.0820   42.3230 N   0  0  0  0  0  0  0  0  0  0  0  0
   48.1260   33.3250   43.3000 O   0  0  0  0  0  0  0  0  0  0  0  0
   45.5565   34.9935   40.4767 H   0  0  0  0  0  0  0  0  0  0  0  0
   47.6306   33.4372   39.8368 H   0  0  0  0  0  0  0  0  0  0  0  0
   47.5552   35.2047   39.6012 H   0  0  0  0  0  0  0  0  0  0  0  0
   49.3851   33.7389   41.2669 H   0  0  0  0  0  0  0  0  0  0  0  0
   49.2300   35.5081   41.1583 H   0  0  0  0  0  0  0  0  0  0  0  0
   48.5807   35.2574   43.4457 H   0  0  0  0  0  0  0  0  0  0  0  0
   46.6145   36.1343   42.4566 H   0  0  0  0  0  0  0  0  0  0  0  0
   45.9905   34.6943   43.2777 H   0  0  0  0  0  0  0  0  0  0  0  0
   46.8476   32.0654   39.9634 H   0  0  0  0  0  0  0  0  0  0  0  0
   45.7722   29.8460   40.4973 H   0  0  0  0  0  0  0  0  0  0  0  0
   43.2948   31.8399   43.3652 H   0  0  0  0  0  0  0  0  0  0  0  0
   48.1223   33.4027   44.2869 H   0  0  0  0  0  0  0  0  0  0  0  0
  1  6  1  0
  1  5  1  0
  2  1  1  0
  2  3  1  0
  3  4  1  0
  4 12  1  0
  5  4  1  0
  6 11  2  0
  7  8  2  0
  7  6  1  0
  8  9  1  0
  9 10  2  0
 11 10  1  0
  1 13  1  6
  2 14  1  0
  2 15  1  0
  3 16  1  0
  3 17  1  0
  4 18  1  1
  5 19  1  0
  5 20  1  0
  7 21  1  0
  8 22  1  0
 10 23  1  0
 12 24  1  0
M  ISO  8  13  13  14  13  15  13  16  13  17  13  18  13  19  13  20  13
M  ISO  4  21  14  22  14  23  14  24   3
M  END
>  <minimizedAffinity>  (1) 
-2.90731096

>  <minimizedRMSD>  (1) 
0.0299142636

$$$$
