
     RDKit          3D

 42 44  0  0  1  0  0  0  0  0999 V2000
   46.1060   35.2340   42.7960 C   0  0  2  0  0  0  0  0  0  0  0  0
   45.1690   36.2950   43.0740 C   0  0  0  0  0  0  0  0  0  0  0  0
   43.8390   35.9560   42.3640 C   0  0  0  0  0  0  0  0  0  0  0  0
   44.0330   34.6310   41.7160 C   0  0  2  0  0  0  0  0  0  0  0  0
   45.4980   34.4980   41.5490 C   0  0  0  0  0  0  0  0  0  0  0  0
   46.3340   34.1690   43.7740 C   0  0  0  0  0  0  0  0  0  0  0  0
   45.6630   34.2610   45.0210 C   0  0  0  0  0  0  0  0  0  0  0  0
   45.8260   33.2570   45.9660 C   0  0  0  0  0  0  0  0  0  0  0  0
   46.6540   32.2260   45.6040 N   0  0  0  0  0  0  0  0  0  0  0  0
   47.2830   32.1520   44.4210 C   0  0  0  0  0  0  0  0  0  0  0  0
   47.1160   33.1310   43.5110 N   0  0  0  0  0  0  0  0  0  0  0  0
   43.2040   34.3800   40.5180 C   0  0  1  0  0  0  0  0  0  0  0  0
   42.7510   32.9420   40.4720 C   0  0  0  0  0  0  0  0  0  0  0  0
   41.9610   35.2360   40.6520 C   0  0  0  0  0  0  0  0  0  0  0  0
   40.9180   34.8390   39.6830 N   0  0  0  0  0  0  0  0  0  0  0  0
   39.8410   34.1410   40.0880 C   0  0  0  0  0  0  0  0  0  0  0  0
   38.7800   33.7090   39.3230 C   0  0  0  0  0  0  0  0  0  0  0  0
   38.8690   34.0500   37.9900 C   0  0  0  0  0  0  0  0  0  0  0  0
   37.9390   33.6950   37.2160 O   0  0  0  0  0  0  0  0  0  0  0  0
   39.9360   34.7470   37.5610 N   0  0  0  0  0  0  0  0  0  0  0  0
   40.9240   35.1290   38.3690 C   0  0  0  0  0  0  0  0  0  0  0  0
   41.8940   35.7770   37.9000 O   0  0  0  0  0  0  0  0  0  0  0  0
   47.0786   35.7426   42.7222 H   0  0  0  0  0  0  0  0  0  0  0  0
   45.0039   36.3724   44.1588 H   0  0  0  0  0  0  0  0  0  0  0  0
   45.5616   37.2563   42.7110 H   0  0  0  0  0  0  0  0  0  0  0  0
   43.0195   35.9049   43.0960 H   0  0  0  0  0  0  0  0  0  0  0  0
   43.5749   36.7262   41.6243 H   0  0  0  0  0  0  0  0  0  0  0  0
   43.6475   33.8158   42.3459 H   0  0  0  0  0  0  0  0  0  0  0  0
   45.7935   33.4385   41.5409 H   0  0  0  0  0  0  0  0  0  0  0  0
   45.8506   34.9255   40.5988 H   0  0  0  0  0  0  0  0  0  0  0  0
   45.0165   35.1241   45.2380 H   0  0  0  0  0  0  0  0  0  0  0  0
   45.3225   33.2869   46.9436 H   0  0  0  0  0  0  0  0  0  0  0  0
   47.9333   31.2941   44.1949 H   0  0  0  0  0  0  0  0  0  0  0  0
   43.7872   34.6077   39.6136 H   0  0  0  0  0  0  0  0  0  0  0  0
   42.6314   32.5623   41.4974 H   0  0  0  0  0  0  0  0  0  0  0  0
   41.7890   32.8774   39.9425 H   0  0  0  0  0  0  0  0  0  0  0  0
   43.5023   32.3377   39.9425 H   0  0  0  0  0  0  0  0  0  0  0  0
   41.5612   35.1272   41.6710 H   0  0  0  0  0  0  0  0  0  0  0  0
   42.2397   36.2804   40.4479 H   0  0  0  0  0  0  0  0  0  0  0  0
   39.8035   33.8850   41.1571 H   0  0  0  0  0  0  0  0  0  0  0  0
   37.9350   33.1412   39.7395 H   0  0  0  0  0  0  0  0  0  0  0  0
   39.9919   34.9967   36.5633 H   0  0  0  0  0  0  0  0  0  0  0  0
  1  2  1  0
  1  6  1  0
  3  2  1  0
  4  3  1  0
  5  4  1  0
  5  1  1  0
  6  7  2  0
  7  8  1  0
  9  8  2  0
 10  9  1  0
 11  6  1  0
 11 10  2  0
 12 14  1  0
 12  4  1  0
 13 12  1  0
 15 16  1  0
 15 14  1  0
 17 16  2  0
 18 17  1  0
 19 18  2  0
 20 18  1  0
 20 21  1  0
 21 15  1  0
 22 21  2  0
  1 23  1  6
  2 24  1  0
  2 25  1  0
  3 26  1  0
  3 27  1  0
  4 28  1  1
  5 29  1  0
  5 30  1  0
  7 31  1  0
  8 32  1  0
 10 33  1  0
 12 34  1  6
 13 35  1  0
 13 36  1  0
 13 37  1  0
 14 38  1  0
 14 39  1  0
 16 40  1  0
 17 41  1  0
 20 42  1  0
M  ISO  8  23  13  24  13  25  13  26  13  27  13  28  13  29  13  30  13
M  ISO  8  31  14  32  14  33  14  34   8  35   8  36   8  37   8  38   8
M  ISO  4  39   8  40  14  41  14  42   9
M  END
>  <minimizedAffinity>  (1) 
-5.82537079

>  <minimizedRMSD>  (1) 
1.63876617

$$$$
