
     RDKit          3D

 46 49  0  0  1  0  0  0  0  0999 V2000
   46.3340   35.0180   43.0690 C   0  0  2  0  0  0  0  0  0  0  0  0
   45.2820   35.9180   43.4640 C   0  0  0  0  0  0  0  0  0  0  0  0
   44.0040   35.5430   42.6740 C   0  0  0  0  0  0  0  0  0  0  0  0
   44.3690   34.3740   41.8310 C   0  0  2  0  0  0  0  0  0  0  0  0
   45.8350   34.4340   41.7010 C   0  0  0  0  0  0  0  0  0  0  0  0
   46.6560   33.8430   43.8890 C   0  0  0  0  0  0  0  0  0  0  0  0
   46.1490   33.8030   45.2120 C   0  0  0  0  0  0  0  0  0  0  0  0
   46.4230   32.6880   45.9940 C   0  0  0  0  0  0  0  0  0  0  0  0
   47.1630   31.7070   45.4290 N   0  0  0  0  0  0  0  0  0  0  0  0
   47.6420   31.7560   44.1620 C   0  0  0  0  0  0  0  0  0  0  0  0
   47.3730   32.8330   43.4200 N   0  0  0  0  0  0  0  0  0  0  0  0
   43.6080   34.2440   40.5720 C   0  0  1  0  0  0  0  0  0  0  0  0
   43.6390   32.8200   40.0820 C   0  0  0  0  0  0  0  0  0  0  0  0
   42.1590   34.5300   40.8900 C   0  0  0  0  0  0  0  0  0  0  0  0
   41.4740   34.8330   39.5620 C   0  0  0  0  0  0  0  0  0  0  0  0
   42.0080   35.7540   38.7260 N   0  0  0  0  0  0  0  0  0  0  0  0
   41.4730   36.1020   37.5660 C   0  0  0  0  0  0  0  0  0  0  0  0
   40.3330   35.5380   37.1400 N   0  0  0  0  0  0  0  0  0  0  0  0
   39.7690   34.6180   37.9390 C   0  0  0  0  0  0  0  0  0  0  0  0
   38.6030   33.9730   37.5950 C   0  0  0  0  0  0  0  0  0  0  0  0
   37.9380   33.0110   38.3240 C   0  0  0  0  0  0  0  0  0  0  0  0
   38.5490   32.6880   39.5340 C   0  0  0  0  0  0  0  0  0  0  0  0
   39.7280   33.2880   39.9640 C   0  0  0  0  0  0  0  0  0  0  0  0
   40.3010   34.2370   39.1480 C   0  0  0  0  0  0  0  0  0  0  0  0
   47.2515   35.6232   43.1124 H   0  0  0  0  0  0  0  0  0  0  0  0
   45.0945   35.8211   44.5436 H   0  0  0  0  0  0  0  0  0  0  0  0
   45.5704   36.9577   43.2497 H   0  0  0  0  0  0  0  0  0  0  0  0
   43.1919   35.2759   43.3662 H   0  0  0  0  0  0  0  0  0  0  0  0
   43.6483   36.3848   42.0617 H   0  0  0  0  0  0  0  0  0  0  0  0
   44.0693   33.4295   42.3087 H   0  0  0  0  0  0  0  0  0  0  0  0
   46.2508   33.4295   41.5336 H   0  0  0  0  0  0  0  0  0  0  0  0
   46.1516   35.0495   40.8461 H   0  0  0  0  0  0  0  0  0  0  0  0
   45.5518   34.6363   45.6107 H   0  0  0  0  0  0  0  0  0  0  0  0
   46.0544   32.6066   47.0272 H   0  0  0  0  0  0  0  0  0  0  0  0
   48.2390   30.9270   43.7541 H   0  0  0  0  0  0  0  0  0  0  0  0
   44.0385   34.9235   39.8217 H   0  0  0  0  0  0  0  0  0  0  0  0
   43.6539   32.1361   40.9434 H   0  0  0  0  0  0  0  0  0  0  0  0
   42.7449   32.6225   39.4724 H   0  0  0  0  0  0  0  0  0  0  0  0
   44.5408   32.6616   39.4724 H   0  0  0  0  0  0  0  0  0  0  0  0
   41.6945   33.6536   41.3655 H   0  0  0  0  0  0  0  0  0  0  0  0
   42.0650   35.3756   41.5872 H   0  0  0  0  0  0  0  0  0  0  0  0
   41.9690   36.8622   36.9446 H   0  0  0  0  0  0  0  0  0  0  0  0
   38.1523   34.2565   36.6324 H   0  0  0  0  0  0  0  0  0  0  0  0
   37.0057   32.5390   37.9805 H   0  0  0  0  0  0  0  0  0  0  0  0
   38.0798   31.9274   40.1754 H   0  0  0  0  0  0  0  0  0  0  0  0
   40.1875   33.0130   40.9249 H   0  0  0  0  0  0  0  0  0  0  0  0
  1  2  1  0
  1  6  1  0
  3  2  1  0
  4  3  1  0
  5  4  1  0
  5  1  1  0
  6  7  2  0
  7  8  1  0
  9  8  2  0
 10  9  1  0
 11  6  1  0
 11 10  2  0
 12 14  1  0
 12  4  1  0
 13 12  1  0
 15 14  1  0
 16 15  2  0
 17 16  1  0
 18 17  2  0
 18 19  1  0
 19 24  2  0
 20 19  1  0
 20 21  2  0
 21 22  1  0
 22 23  2  0
 24 15  1  0
 24 23  1  0
  1 25  1  6
  2 26  1  0
  2 27  1  0
  3 28  1  0
  3 29  1  0
  4 30  1  1
  5 31  1  0
  5 32  1  0
  7 33  1  0
  8 34  1  0
 10 35  1  0
 12 36  1  6
 13 37  1  0
 13 38  1  0
 13 39  1  0
 14 40  1  0
 14 41  1  0
 17 42  1  0
 20 43  1  0
 21 44  1  0
 22 45  1  0
 23 46  1  0
M  ISO  8  25  13  26  13  27  13  28  13  29  13  30  13  31  13  32  13
M  ISO  8  33  14  34  14  35  14  36   8  37   8  38   8  39   8  40   8
M  ISO  6  41   8  42  14  43  14  44  14  45  14  46  14
M  END
>  <minimizedAffinity>  (1) 
-6.2008605

>  <minimizedRMSD>  (1) 
1.07614064

$$$$
