
     RDKit          3D

 46 49  0  0  1  0  0  0  0  0999 V2000
   46.3540   35.1240   42.9140 C   0  0  2  0  0  0  0  0  0  0  0  0
   45.3920   36.1380   43.2570 C   0  0  0  0  0  0  0  0  0  0  0  0
   44.0970   35.8540   42.4610 C   0  0  0  0  0  0  0  0  0  0  0  0
   44.3500   34.6090   41.6870 C   0  0  2  0  0  0  0  0  0  0  0  0
   45.8160   34.5160   41.5690 C   0  0  0  0  0  0  0  0  0  0  0  0
   46.5610   33.9750   43.7950 C   0  0  0  0  0  0  0  0  0  0  0  0
   45.9010   33.9630   45.0500 C   0  0  0  0  0  0  0  0  0  0  0  0
   46.0580   32.8690   45.8900 C   0  0  0  0  0  0  0  0  0  0  0  0
   46.8530   31.8650   45.4340 N   0  0  0  0  0  0  0  0  0  0  0  0
   47.4710   31.8900   44.2440 C   0  0  0  0  0  0  0  0  0  0  0  0
   47.3230   32.9540   43.4210 N   0  0  0  0  0  0  0  0  0  0  0  0
   43.5700   34.4790   40.4310 C   0  0  1  0  0  0  0  0  0  0  0  0
   43.1690   33.0470   40.1990 C   0  0  0  0  0  0  0  0  0  0  0  0
   42.3150   35.2980   40.5990 C   0  0  0  0  0  0  0  0  0  0  0  0
   41.4390   35.1690   39.3930 C   0  0  0  0  0  0  0  0  0  0  0  0
   41.6730   35.7300   38.1270 C   0  0  0  0  0  0  0  0  0  0  0  0
   40.7200   35.3890   37.2440 N   0  0  0  0  0  0  0  0  0  0  0  0
   39.8440   34.6110   37.8740 C   0  0  0  0  0  0  0  0  0  0  0  0
   38.6650   33.9900   37.4580 C   0  0  0  0  0  0  0  0  0  0  0  0
   37.8930   33.2280   38.3170 C   0  0  0  0  0  0  0  0  0  0  0  0
   38.3180   33.0880   39.6320 C   0  0  0  0  0  0  0  0  0  0  0  0
   39.4850   33.7160   39.9990 C   0  0  0  0  0  0  0  0  0  0  0  0
   40.2740   34.4780   39.1680 C   0  0  0  0  0  0  0  0  0  0  0  0
   47.3224   35.6454   42.9312 H   0  0  0  0  0  0  0  0  0  0  0  0
   45.1822   36.1042   44.3363 H   0  0  0  0  0  0  0  0  0  0  0  0
   45.7827   37.1360   43.0093 H   0  0  0  0  0  0  0  0  0  0  0  0
   43.2506   35.7101   43.1486 H   0  0  0  0  0  0  0  0  0  0  0  0
   43.8421   36.6936   41.7975 H   0  0  0  0  0  0  0  0  0  0  0  0
   43.9636   33.7227   42.2115 H   0  0  0  0  0  0  0  0  0  0  0  0
   46.1324   33.4680   41.4612 H   0  0  0  0  0  0  0  0  0  0  0  0
   46.2006   35.0460   40.6851 H   0  0  0  0  0  0  0  0  0  0  0  0
   45.2711   34.8118   45.3548 H   0  0  0  0  0  0  0  0  0  0  0  0
   45.5654   32.8173   46.8722 H   0  0  0  0  0  0  0  0  0  0  0  0
   48.1006   31.0423   43.9357 H   0  0  0  0  0  0  0  0  0  0  0  0
   44.1775   34.8190   39.5793 H   0  0  0  0  0  0  0  0  0  0  0  0
   43.0282   32.5442   41.1672 H   0  0  0  0  0  0  0  0  0  0  0  0
   42.2280   33.0173   39.6301 H   0  0  0  0  0  0  0  0  0  0  0  0
   43.9577   32.5329   39.6301 H   0  0  0  0  0  0  0  0  0  0  0  0
   41.7669   34.9428   41.4841 H   0  0  0  0  0  0  0  0  0  0  0  0
   42.5941   36.3546   40.7242 H   0  0  0  0  0  0  0  0  0  0  0  0
   42.5336   36.3718   37.8872 H   0  0  0  0  0  0  0  0  0  0  0  0
   40.6755   35.6780   36.2564 H   0  0  0  0  0  0  0  0  0  0  0  0
   38.3394   34.1103   36.4142 H   0  0  0  0  0  0  0  0  0  0  0  0
   36.9678   32.7461   37.9680 H   0  0  0  0  0  0  0  0  0  0  0  0
   37.7402   32.4945   40.3558 H   0  0  0  0  0  0  0  0  0  0  0  0
   39.8147   33.5998   41.0420 H   0  0  0  0  0  0  0  0  0  0  0  0
  1  2  1  0
  1  6  1  0
  3  2  1  0
  4  3  1  0
  5  4  1  0
  5  1  1  0
  6  7  2  0
  7  8  1  0
  9  8  2  0
 10  9  1  0
 11  6  1  0
 11 10  2  0
 12 14  1  0
 12  4  1  0
 13 12  1  0
 15 14  1  0
 16 15  2  0
 17 18  1  0
 17 16  1  0
 18 23  2  0
 19 18  1  0
 19 20  2  0
 20 21  1  0
 21 22  2  0
 23 15  1  0
 23 22  1  0
  1 24  1  6
  2 25  1  0
  2 26  1  0
  3 27  1  0
  3 28  1  0
  4 29  1  1
  5 30  1  0
  5 31  1  0
  7 32  1  0
  8 33  1  0
 10 34  1  0
 12 35  1  6
 13 36  1  0
 13 37  1  0
 13 38  1  0
 14 39  1  0
 14 40  1  0
 16 41  1  0
 17 42  1  0
 19 43  1  0
 20 44  1  0
 21 45  1  0
 22 46  1  0
M  ISO  8  24  13  25  13  26  13  27  13  28  13  29  13  30  13  31  13
M  ISO  8  32  14  33  14  34  14  35   8  36   8  37   8  38   8  39   8
M  ISO  7  40   8  41  14  42   9  43  14  44  14  45  14  46  14
M  END
>  <minimizedAffinity>  (1) 
-6.66171026

>  <minimizedRMSD>  (1) 
1.07343745

$$$$
