
     RDKit          3D

 39 42  0  0  0  0  0  0  0  0999 V2000
   47.5990   34.7650   41.6550 C   0  0  0  0  0  0  0  0  0  0  0  0
   47.3160   34.2770   40.2750 C   0  0  0  0  0  0  0  0  0  0  0  0
   48.2400   34.3470   39.2530 C   0  0  0  0  0  0  0  0  0  0  0  0
   48.0600   33.9190   37.9670 C   0  0  0  0  0  0  0  0  0  0  0  0
   46.8280   33.3750   37.7080 N   0  0  0  0  0  0  0  0  0  0  0  0
   45.9100   33.2990   38.6930 C   0  0  0  0  0  0  0  0  0  0  0  0
   46.0930   33.7230   39.9670 N   0  0  0  0  0  0  0  0  0  0  0  0
   44.6160   32.7020   38.3430 C   0  0  0  0  0  0  0  0  0  0  0  0
   43.4240   33.3180   38.7080 C   0  0  0  0  0  0  0  0  0  0  0  0
   42.2230   32.7490   38.3800 C   0  0  0  0  0  0  0  0  0  0  0  0
   42.1710   31.6150   37.7180 N   0  0  0  0  0  0  0  0  0  0  0  0
   43.3400   31.0230   37.3690 C   0  0  0  0  0  0  0  0  0  0  0  0
   44.5700   31.5450   37.6680 N   0  0  0  0  0  0  0  0  0  0  0  0
   47.4000   33.6380   42.6040 C   0  0  0  0  0  0  0  0  0  0  0  0
   44.7790   35.2170   44.8240 C   0  0  0  0  0  0  0  0  0  0  0  0
   45.5960   34.9270   43.7140 C   0  0  0  0  0  0  0  0  0  0  0  0
   46.5530   33.9500   43.7600 C   0  0  0  0  0  0  0  0  0  0  0  0
   46.6980   33.2500   44.9320 N   0  0  0  0  0  0  0  0  0  0  0  0
   45.8830   33.5600   45.9900 C   0  0  0  0  0  0  0  0  0  0  0  0
   44.9630   34.5010   45.9480 N   0  0  0  0  0  0  0  0  0  0  0  0
   46.0930   32.7880   47.1730 N   0  0  0  0  0  0  0  0  0  0  0  0
   45.1530   32.2830   48.0230 C   0  0  0  0  0  0  0  0  0  0  0  0
   45.7450   31.5920   49.0530 C   0  0  0  0  0  0  0  0  0  0  0  0
   47.0600   31.6730   48.8330 N   0  0  0  0  0  0  0  0  0  0  0  0
   47.2620   32.3820   47.7210 C   0  0  0  0  0  0  0  0  0  0  0  0
   46.9125   35.5870   41.9060 H   0  0  0  0  0  0  0  0  0  0  0  0
   48.6333   35.1339   41.7196 H   0  0  0  0  0  0  0  0  0  0  0  0
   49.2168   34.7904   39.4965 H   0  0  0  0  0  0  0  0  0  0  0  0
   48.8431   34.0044   37.1992 H   0  0  0  0  0  0  0  0  0  0  0  0
   43.4463   34.2674   39.2631 H   0  0  0  0  0  0  0  0  0  0  0  0
   41.2881   33.2481   38.6748 H   0  0  0  0  0  0  0  0  0  0  0  0
   43.2979   30.0729   36.8163 H   0  0  0  0  0  0  0  0  0  0  0  0
   46.9360   32.8057   42.0545 H   0  0  0  0  0  0  0  0  0  0  0  0
   48.3941   33.3921   43.0057 H   0  0  0  0  0  0  0  0  0  0  0  0
   44.0134   36.0053   44.7734 H   0  0  0  0  0  0  0  0  0  0  0  0
   45.4612   35.5011   42.7854 H   0  0  0  0  0  0  0  0  0  0  0  0
   44.0674   32.4116   47.9005 H   0  0  0  0  0  0  0  0  0  0  0  0
   45.2409   31.0790   49.8853 H   0  0  0  0  0  0  0  0  0  0  0  0
   48.2538   32.6081   47.3023 H   0  0  0  0  0  0  0  0  0  0  0  0
  1 14  1  0
  2  1  1  0
  3  2  2  0
  4  3  1  0
  5  4  2  0
  5  6  1  0
  6  7  2  0
  7  2  1  0
  8  6  1  0
  8  9  2  0
 10  9  1  0
 11 10  2  0
 12 13  2  0
 12 11  1  0
 13  8  1  0
 14 17  1  0
 15 20  2  0
 16 17  2  0
 16 15  1  0
 17 18  1  0
 18 19  2  0
 19 21  1  0
 20 19  1  0
 21 25  1  0
 21 22  1  0
 22 23  2  0
 24 23  1  0
 25 24  2  0
  1 26  1  0
  1 27  1  0
  3 28  1  0
  4 29  1  0
  9 30  1  0
 10 31  1  0
 12 32  1  0
 14 33  1  0
 14 34  1  0
 15 35  1  0
 16 36  1  0
 22 37  1  0
 23 38  1  0
 25 39  1  0
M  ISO  8  26   8  27   8  28  14  29  14  30  14  31  14  32  14  33   8
M  ISO  6  34   8  35  14  36  14  37  14  38  14  39  14
M  END
>  <minimizedAffinity>  (1) 
-6.00001955

>  <minimizedRMSD>  (1) 
0.891876698

$$$$
