
     RDKit          3D

 48 50  0  0  1  0  0  0  0  0999 V2000
   46.2150   35.1830   42.8320 C   0  0  2  0  0  0  0  0  0  0  0  0
   45.1950   36.1650   43.1100 C   0  0  0  0  0  0  0  0  0  0  0  0
   43.9400   35.8040   42.2860 C   0  0  0  0  0  0  0  0  0  0  0  0
   44.2560   34.5440   41.5730 C   0  0  2  0  0  0  0  0  0  0  0  0
   45.7430   34.5010   41.5000 C   0  0  0  0  0  0  0  0  0  0  0  0
   46.4390   34.0700   43.7560 C   0  0  0  0  0  0  0  0  0  0  0  0
   45.7800   34.1020   45.0060 C   0  0  0  0  0  0  0  0  0  0  0  0
   45.9470   33.0520   45.9000 C   0  0  0  0  0  0  0  0  0  0  0  0
   46.7660   32.0340   45.4810 N   0  0  0  0  0  0  0  0  0  0  0  0
   47.3830   32.0200   44.2910 C   0  0  0  0  0  0  0  0  0  0  0  0
   47.2150   33.0440   43.4310 N   0  0  0  0  0  0  0  0  0  0  0  0
   43.5340   34.3340   40.2870 C   0  0  1  0  0  0  0  0  0  0  0  0
   43.7810   32.9560   39.7690 C   0  0  0  0  0  0  0  0  0  0  0  0
   42.0780   34.5460   40.5620 C   0  0  0  0  0  0  0  0  0  0  0  0
   41.2960   35.4500   39.6950 C   0  0  0  0  0  0  0  0  0  0  0  0
   39.8410   35.5340   40.2330 C   0  0  0  0  0  0  0  0  0  0  0  0
   39.0660   34.2830   39.9840 C   0  0  0  0  0  0  0  0  0  0  0  0
   38.8220   34.2520   38.4650 C   0  0  0  0  0  0  0  0  0  0  0  0
   40.2350   33.9930   37.9110 C   0  0  0  0  0  0  0  0  0  0  0  0
   41.1410   35.1550   38.2590 C   0  0  0  0  0  0  0  0  0  0  0  0
   47.1572   35.7501   42.8595 H   0  0  0  0  0  0  0  0  0  0  0  0
   44.9515   36.1555   44.1827 H   0  0  0  0  0  0  0  0  0  0  0  0
   45.5512   37.1698   42.8391 H   0  0  0  0  0  0  0  0  0  0  0  0
   43.0767   35.6581   42.9519 H   0  0  0  0  0  0  0  0  0  0  0  0
   43.6814   36.6074   41.5805 H   0  0  0  0  0  0  0  0  0  0  0  0
   43.8716   33.6734   42.1246 H   0  0  0  0  0  0  0  0  0  0  0  0
   46.1008   33.4622   41.4457 H   0  0  0  0  0  0  0  0  0  0  0  0
   46.1353   35.0076   40.6059 H   0  0  0  0  0  0  0  0  0  0  0  0
   45.1375   34.9550   45.2698 H   0  0  0  0  0  0  0  0  0  0  0  0
   45.4533   33.0376   46.8829 H   0  0  0  0  0  0  0  0  0  0  0  0
   48.0272   31.1718   44.0161 H   0  0  0  0  0  0  0  0  0  0  0  0
   43.8881   35.0371   39.5187 H   0  0  0  0  0  0  0  0  0  0  0  0
   43.9052   32.2633   40.6144 H   0  0  0  0  0  0  0  0  0  0  0  0
   42.9259   32.6362   39.1554 H   0  0  0  0  0  0  0  0  0  0  0  0
   44.6940   32.9531   39.1554 H   0  0  0  0  0  0  0  0  0  0  0  0
   41.5962   33.5585   40.5110 H   0  0  0  0  0  0  0  0  0  0  0  0
   42.0719   35.0556   41.5368 H   0  0  0  0  0  0  0  0  0  0  0  0
   41.9111   36.3607   39.7438 H   0  0  0  0  0  0  0  0  0  0  0  0
   39.8759   35.7174   41.3170 H   0  0  0  0  0  0  0  0  0  0  0  0
   39.3346   36.3523   39.7002 H   0  0  0  0  0  0  0  0  0  0  0  0
   39.6445   33.4022   40.2994 H   0  0  0  0  0  0  0  0  0  0  0  0
   38.1237   34.2646   40.5512 H   0  0  0  0  0  0  0  0  0  0  0  0
   38.1312   33.4417   38.1889 H   0  0  0  0  0  0  0  0  0  0  0  0
   38.3572   35.1694   38.0747 H   0  0  0  0  0  0  0  0  0  0  0  0
   40.1846   33.8835   36.8176 H   0  0  0  0  0  0  0  0  0  0  0  0
   40.6375   33.0714   38.3566 H   0  0  0  0  0  0  0  0  0  0  0  0
   42.1390   34.9366   37.8513 H   0  0  0  0  0  0  0  0  0  0  0  0
   40.6603   36.0442   37.8252 H   0  0  0  0  0  0  0  0  0  0  0  0
  1  2  1  0
  1  6  1  0
  3  2  1  0
  4  3  1  0
  5  4  1  0
  5  1  1  0
  6  7  2  0
  7  8  1  0
  9  8  2  0
 10  9  1  0
 11  6  1  0
 11 10  2  0
 12 14  1  0
 12  4  1  0
 13 12  1  0
 15 16  1  0
 15 14  1  0
 17 16  1  0
 18 17  1  0
 19 20  1  0
 19 18  1  0
 20 15  1  0
  1 21  1  6
  2 22  1  0
  2 23  1  0
  3 24  1  0
  3 25  1  0
  4 26  1  1
  5 27  1  0
  5 28  1  0
  7 29  1  0
  8 30  1  0
 10 31  1  0
 12 32  1  6
 13 33  1  0
 13 34  1  0
 13 35  1  0
 14 36  1  0
 14 37  1  0
 15 38  1  0
 16 39  1  0
 16 40  1  0
 17 41  1  0
 17 42  1  0
 18 43  1  0
 18 44  1  0
 19 45  1  0
 19 46  1  0
 20 47  1  0
 20 48  1  0
M  ISO  8  21  13  22  13  23  13  24  13  25  13  26  13  27  13  28  13
M  ISO  8  29  14  30  14  31  14  32   8  33   8  34   8  35   8  36   8
M  ISO  8  37   8  38  13  39  13  40  13  41  13  42  13  43  13  44  13
M  ISO  4  45  13  46  13  47  13  48  13
M  END
>  <minimizedAffinity>  (1) 
-5.98702478

>  <minimizedRMSD>  (1) 
1.19375765

$$$$
