
     RDKit          3D

 46 48  0  0  1  0  0  0  0  0999 V2000
   45.9860   35.3450   42.8130 C   0  0  2  0  0  0  0  0  0  0  0  0
   44.8360   36.2080   42.7980 C   0  0  0  0  0  0  0  0  0  0  0  0
   43.7670   35.5730   41.8740 C   0  0  0  0  0  0  0  0  0  0  0  0
   44.3570   34.3030   41.3690 C   0  0  2  0  0  0  0  0  0  0  0  0
   45.8180   34.4610   41.5220 C   0  0  0  0  0  0  0  0  0  0  0  0
   46.1910   34.3820   43.8880 C   0  0  0  0  0  0  0  0  0  0  0  0
   45.3830   34.5040   45.0490 C   0  0  0  0  0  0  0  0  0  0  0  0
   45.5230   33.5980   46.0920 C   0  0  0  0  0  0  0  0  0  0  0  0
   46.4640   32.6240   45.9070 N   0  0  0  0  0  0  0  0  0  0  0  0
   47.2220   32.5140   44.8110 C   0  0  0  0  0  0  0  0  0  0  0  0
   47.0810   33.4010   43.7980 N   0  0  0  0  0  0  0  0  0  0  0  0
   43.8940   33.8620   40.0370 C   0  0  1  0  0  0  0  0  0  0  0  0
   44.6570   32.6180   39.6080 C   0  0  0  0  0  0  0  0  0  0  0  0
   42.4620   33.3750   40.2150 C   0  0  0  0  0  0  0  0  0  0  0  0
   41.7050   34.0100   39.1680 N   0  0  0  0  0  0  0  0  0  0  0  0
   40.7950   33.2310   38.4340 C   0  0  0  0  0  0  0  0  0  0  0  0
   39.7180   34.1830   37.8940 C   0  0  0  0  0  0  0  0  0  0  0  0
   40.3400   35.2850   37.1940 N   0  0  0  0  0  0  0  0  0  0  0  0
   41.2690   36.0250   38.0220 C   0  0  0  0  0  0  0  0  0  0  0  0
   42.3530   35.0070   38.4120 C   0  0  0  0  0  0  0  0  0  0  0  0
   46.8360   36.0355   42.9166 H   0  0  0  0  0  0  0  0  0  0  0  0
   44.4341   36.3107   43.8168 H   0  0  0  0  0  0  0  0  0  0  0  0
   45.1142   37.2058   42.4278 H   0  0  0  0  0  0  0  0  0  0  0  0
   42.8468   35.3673   42.4405 H   0  0  0  0  0  0  0  0  0  0  0  0
   43.4995   36.2476   41.0473 H   0  0  0  0  0  0  0  0  0  0  0  0
   43.9966   33.4489   41.9612 H   0  0  0  0  0  0  0  0  0  0  0  0
   46.3030   33.4827   41.6549 H   0  0  0  0  0  0  0  0  0  0  0  0
   46.2839   34.9199   40.6375 H   0  0  0  0  0  0  0  0  0  0  0  0
   44.6455   35.3168   45.1224 H   0  0  0  0  0  0  0  0  0  0  0  0
   44.9162   33.6601   47.0074 H   0  0  0  0  0  0  0  0  0  0  0  0
   47.9604   31.7025   44.7324 H   0  0  0  0  0  0  0  0  0  0  0  0
   44.0167   34.6836   39.3160 H   0  0  0  0  0  0  0  0  0  0  0  0
   44.9938   32.0688   40.4996 H   0  0  0  0  0  0  0  0  0  0  0  0
   43.9989   31.9732   39.0071 H   0  0  0  0  0  0  0  0  0  0  0  0
   45.5301   32.9124   39.0071 H   0  0  0  0  0  0  0  0  0  0  0  0
   42.4132   32.2807   40.1147 H   0  0  0  0  0  0  0  0  0  0  0  0
   42.0678   33.6242   41.2113 H   0  0  0  0  0  0  0  0  0  0  0  0
   41.3113   32.7335   37.5998 H   0  0  0  0  0  0  0  0  0  0  0  0
   40.3465   32.4519   39.0679 H   0  0  0  0  0  0  0  0  0  0  0  0
   39.0614   33.6355   37.2018 H   0  0  0  0  0  0  0  0  0  0  0  0
   39.1277   34.5757   38.7350 H   0  0  0  0  0  0  0  0  0  0  0  0
   40.8498   34.9119   36.3805 H   0  0  0  0  0  0  0  0  0  0  0  0
   41.7086   36.8607   37.4578 H   0  0  0  0  0  0  0  0  0  0  0  0
   40.7780   36.4635   38.9033 H   0  0  0  0  0  0  0  0  0  0  0  0
   42.8052   34.5679   37.5105 H   0  0  0  0  0  0  0  0  0  0  0  0
   43.1607   35.4833   38.9870 H   0  0  0  0  0  0  0  0  0  0  0  0
  1  6  1  0
  2  1  1  0
  3  2  1  0
  4  5  1  0
  4  3  1  0
  5  1  1  0
  6  7  2  0
  7  8  1  0
  9  8  2  0
 10  9  1  0
 11  6  1  0
 11 10  2  0
 12 14  1  0
 12  4  1  0
 13 12  1  0
 15 14  1  0
 16 15  1  0
 17 16  1  0
 18 17  1  0
 18 19  1  0
 19 20  1  0
 20 15  1  0
  1 21  1  6
  2 22  1  0
  2 23  1  0
  3 24  1  0
  3 25  1  0
  4 26  1  1
  5 27  1  0
  5 28  1  0
  7 29  1  0
  8 30  1  0
 10 31  1  0
 12 32  1  6
 13 33  1  0
 13 34  1  0
 13 35  1  0
 14 36  1  0
 14 37  1  0
 16 38  1  0
 16 39  1  0
 17 40  1  0
 17 41  1  0
 18 42  1  0
 19 43  1  0
 19 44  1  0
 20 45  1  0
 20 46  1  0
M  ISO  8  21  13  22  13  23  13  24  13  25  13  26  13  27  13  28  13
M  ISO  8  29  14  30  14  31  14  32   8  33   8  34   8  35   8  36   8
M  ISO  8  37   8  38  13  39  13  40  13  41  13  42   5  43  13  44  13
M  ISO  2  45  13  46  13
M  END
>  <minimizedAffinity>  (1) 
-5.15809822

>  <minimizedRMSD>  (1) 
0.962545693

$$$$
