
     RDKit          3D

 39 40  0  0  1  0  0  0  0  0999 V2000
   45.8520   35.1960   42.7160 C   0  0  2  0  0  0  0  0  0  0  0  0
   44.7830   36.1300   42.9640 C   0  0  0  0  0  0  0  0  0  0  0  0
   43.5170   35.5870   42.2560 C   0  0  0  0  0  0  0  0  0  0  0  0
   43.8760   34.2950   41.6210 C   0  0  2  0  0  0  0  0  0  0  0  0
   45.3620   34.3900   41.4670 C   0  0  0  0  0  0  0  0  0  0  0  0
   46.1970   34.1760   43.7160 C   0  0  0  0  0  0  0  0  0  0  0  0
   45.5650   34.2440   44.9810 C   0  0  0  0  0  0  0  0  0  0  0  0
   45.8730   33.2650   45.9270 C   0  0  0  0  0  0  0  0  0  0  0  0
   46.7670   32.3130   45.5550 N   0  0  0  0  0  0  0  0  0  0  0  0
   47.3530   32.2700   44.3550 C   0  0  0  0  0  0  0  0  0  0  0  0
   47.0590   33.2120   43.4380 N   0  0  0  0  0  0  0  0  0  0  0  0
   43.1730   33.9800   40.3550 C   0  0  1  0  0  0  0  0  0  0  0  0
   42.9340   32.4780   40.3070 C   0  0  0  0  0  0  0  0  0  0  0  0
   41.7730   34.5910   40.4920 C   0  0  0  0  0  0  0  0  0  0  0  0
   40.7560   33.6030   40.4420 N   0  0  0  0  0  0  0  0  0  0  0  0
   39.7090   33.4880   41.3590 C   0  0  0  0  0  0  0  0  0  0  0  0
   39.8780   33.8870   42.5680 N   0  0  0  0  0  0  0  0  0  0  0  0
   38.4260   32.9480   41.0810 N   0  0  0  0  0  0  0  0  0  0  0  0
   40.8000   34.2900   42.8420 H   0  0  0  0  0  0  0  0  0  0  0  0
   46.7586   35.8161   42.6556 H   0  0  0  0  0  0  0  0  0  0  0  0
   44.6014   36.2145   44.0456 H   0  0  0  0  0  0  0  0  0  0  0  0
   45.0434   37.1277   42.5808 H   0  0  0  0  0  0  0  0  0  0  0  0
   42.7134   35.4329   42.9911 H   0  0  0  0  0  0  0  0  0  0  0  0
   43.1607   36.3025   41.5003 H   0  0  0  0  0  0  0  0  0  0  0  0
   43.5515   33.4474   42.2425 H   0  0  0  0  0  0  0  0  0  0  0  0
   45.8135   33.3870   41.4534 H   0  0  0  0  0  0  0  0  0  0  0  0
   45.6477   34.8786   40.5238 H   0  0  0  0  0  0  0  0  0  0  0  0
   44.8500   35.0473   45.2123 H   0  0  0  0  0  0  0  0  0  0  0  0
   45.4134   33.2647   46.9264 H   0  0  0  0  0  0  0  0  0  0  0  0
   48.0706   31.4709   44.1175 H   0  0  0  0  0  0  0  0  0  0  0  0
   43.7415   34.3390   39.4844 H   0  0  0  0  0  0  0  0  0  0  0  0
   42.8713   32.0838   41.3320 H   0  0  0  0  0  0  0  0  0  0  0  0
   41.9920   32.2734   39.7771 H   0  0  0  0  0  0  0  0  0  0  0  0
   43.7660   31.9911   39.7771 H   0  0  0  0  0  0  0  0  0  0  0  0
   41.7084   35.1191   41.4548 H   0  0  0  0  0  0  0  0  0  0  0  0
   41.6189   35.2810   39.6493 H   0  0  0  0  0  0  0  0  0  0  0  0
   40.7926   32.9197   39.6721 H   0  0  0  0  0  0  0  0  0  0  0  0
   37.7139   32.9037   41.8239 H   0  0  0  0  0  0  0  0  0  0  0  0
   38.2072   32.6005   40.1364 H   0  0  0  0  0  0  0  0  0  0  0  0
  1  2  1  0
  1  6  1  0
  3  2  1  0
  4  3  1  0
  5  4  1  0
  5  1  1  0
  6  7  2  0
  7  8  1  0
  9  8  2  0
 10  9  1  0
 11  6  1  0
 11 10  2  0
 12 14  1  0
 12  4  1  0
 13 12  1  0
 15 14  1  0
 15 16  1  0
 16 17  2  0
 17 19  1  0
 18 16  1  0
  1 20  1  6
  2 21  1  0
  2 22  1  0
  3 23  1  0
  3 24  1  0
  4 25  1  1
  5 26  1  0
  5 27  1  0
  7 28  1  0
  8 29  1  0
 10 30  1  0
 12 31  1  6
 13 32  1  0
 13 33  1  0
 13 34  1  0
 14 35  1  0
 14 36  1  0
 15 37  1  0
 18 38  1  0
 18 39  1  0
M  ISO  8  20  13  21  13  22  13  23  13  24  13  25  13  26  13  27  13
M  ISO  8  28  14  29  14  30  14  31   8  32   8  33   8  34   8  35   8
M  ISO  1  36   8
M  END
>  <minimizedAffinity>  (1) 
-5.33999586

>  <minimizedRMSD>  (1) 
1.36568534

$$$$
