
     RDKit          3D

 43 46  0  0  1  0  0  0  0  0999 V2000
   46.3540   35.1080   42.8870 C   0  0  2  0  0  0  0  0  0  0  0  0
   45.4340   36.1530   43.2550 C   0  0  0  0  0  0  0  0  0  0  0  0
   44.1110   35.8900   42.5050 C   0  0  0  0  0  0  0  0  0  0  0  0
   44.2790   34.6140   41.7670 C   0  0  2  0  0  0  0  0  0  0  0  0
   45.7340   34.4730   41.5870 C   0  0  0  0  0  0  0  0  0  0  0  0
   46.5750   33.9650   43.7810 C   0  0  0  0  0  0  0  0  0  0  0  0
   45.9250   33.9750   45.0410 C   0  0  0  0  0  0  0  0  0  0  0  0
   46.0870   32.8940   45.8970 C   0  0  0  0  0  0  0  0  0  0  0  0
   46.8830   31.8810   45.4410 N   0  0  0  0  0  0  0  0  0  0  0  0
   47.4910   31.8840   44.2500 C   0  0  0  0  0  0  0  0  0  0  0  0
   47.3310   32.9360   43.4240 N   0  0  0  0  0  0  0  0  0  0  0  0
   43.4330   34.4710   40.5670 C   0  0  1  0  0  0  0  0  0  0  0  0
   43.0810   33.0260   40.3190 C   0  0  0  0  0  0  0  0  0  0  0  0
   42.1430   35.2080   40.8230 C   0  0  0  0  0  0  0  0  0  0  0  0
   41.3510   35.0970   39.5690 N   0  0  0  0  0  0  0  0  0  0  0  0
   41.6440   35.6890   38.3890 C   0  0  0  0  0  0  0  0  0  0  0  0
   40.7000   35.3530   37.4830 N   0  0  0  0  0  0  0  0  0  0  0  0
   39.8040   34.5490   38.0780 C   0  0  0  0  0  0  0  0  0  0  0  0
   38.6770   33.9660   37.5510 C   0  0  0  0  0  0  0  0  0  0  0  0
   37.9610   33.1970   38.4090 N   0  0  0  0  0  0  0  0  0  0  0  0
   38.3520   33.0350   39.6910 C   0  0  0  0  0  0  0  0  0  0  0  0
   39.4630   33.6240   40.1680 N   0  0  0  0  0  0  0  0  0  0  0  0
   40.2170   34.3980   39.3680 C   0  0  0  0  0  0  0  0  0  0  0  0
   47.3302   35.6131   42.8442 H   0  0  0  0  0  0  0  0  0  0  0  0
   45.2602   36.1354   44.3410 H   0  0  0  0  0  0  0  0  0  0  0  0
   45.8411   37.1397   42.9891 H   0  0  0  0  0  0  0  0  0  0  0  0
   43.2805   35.8059   43.2214 H   0  0  0  0  0  0  0  0  0  0  0  0
   43.8789   36.7153   41.8158 H   0  0  0  0  0  0  0  0  0  0  0  0
   43.8908   33.7537   42.3319 H   0  0  0  0  0  0  0  0  0  0  0  0
   46.0143   33.4129   41.5001 H   0  0  0  0  0  0  0  0  0  0  0  0
   46.0920   34.9634   40.6697 H   0  0  0  0  0  0  0  0  0  0  0  0
   45.2992   34.8298   45.3371 H   0  0  0  0  0  0  0  0  0  0  0  0
   45.6032   32.8552   46.8841 H   0  0  0  0  0  0  0  0  0  0  0  0
   48.1180   31.0326   43.9466 H   0  0  0  0  0  0  0  0  0  0  0  0
   43.9800   34.8662   39.6984 H   0  0  0  0  0  0  0  0  0  0  0  0
   42.9550   32.5089   41.2817 H   0  0  0  0  0  0  0  0  0  0  0  0
   42.1430   32.9700   39.7472 H   0  0  0  0  0  0  0  0  0  0  0  0
   43.8882   32.5449   39.7472 H   0  0  0  0  0  0  0  0  0  0  0  0
   41.5991   34.7468   41.6605 H   0  0  0  0  0  0  0  0  0  0  0  0
   42.3261   36.2588   41.0919 H   0  0  0  0  0  0  0  0  0  0  0  0
   42.5107   36.3389   38.1979 H   0  0  0  0  0  0  0  0  0  0  0  0
   38.3755   34.1130   36.5034 H   0  0  0  0  0  0  0  0  0  0  0  0
   37.7475   32.4063   40.3613 H   0  0  0  0  0  0  0  0  0  0  0  0
  1  2  1  0
  1  6  1  0
  3  2  1  0
  4  3  1  0
  5  4  1  0
  5  1  1  0
  6  7  2  0
  7  8  1  0
  9  8  2  0
 10  9  1  0
 11  6  1  0
 11 10  2  0
 12 14  1  0
 12  4  1  0
 13 12  1  0
 15 14  1  0
 16 15  1  0
 17 18  1  0
 17 16  2  0
 18 23  2  0
 19 18  1  0
 19 20  2  0
 20 21  1  0
 21 22  2  0
 23 15  1  0
 23 22  1  0
  1 24  1  6
  2 25  1  0
  2 26  1  0
  3 27  1  0
  3 28  1  0
  4 29  1  1
  5 30  1  0
  5 31  1  0
  7 32  1  0
  8 33  1  0
 10 34  1  0
 12 35  1  6
 13 36  1  0
 13 37  1  0
 13 38  1  0
 14 39  1  0
 14 40  1  0
 16 41  1  0
 19 42  1  0
 21 43  1  0
M  ISO  8  24  13  25  13  26  13  27  13  28  13  29  13  30  13  31  13
M  ISO  8  32  14  33  14  34  14  35   8  36   8  37   8  38   8  39   8
M  ISO  4  40   8  41  14  42  14  43  14
M  END
>  <minimizedAffinity>  (1) 
-5.7403388

>  <minimizedRMSD>  (1) 
1.0935123

$$$$
