
     RDKit          3D

 44 46  0  0  1  0  0  0  0  0999 V2000
   45.9910   35.3200   42.8040 C   0  0  2  0  0  0  0  0  0  0  0  0
   44.8020   36.1380   42.8180 C   0  0  0  0  0  0  0  0  0  0  0  0
   43.7710   35.5150   41.8480 C   0  0  0  0  0  0  0  0  0  0  0  0
   44.4020   34.2760   41.3120 C   0  0  2  0  0  0  0  0  0  0  0  0
   45.8510   34.4820   41.4740 C   0  0  0  0  0  0  0  0  0  0  0  0
   46.2180   34.3200   43.8430 C   0  0  0  0  0  0  0  0  0  0  0  0
   45.4600   34.4210   45.0280 C   0  0  0  0  0  0  0  0  0  0  0  0
   45.6160   33.4800   46.0440 C   0  0  0  0  0  0  0  0  0  0  0  0
   46.5240   32.4970   45.8050 N   0  0  0  0  0  0  0  0  0  0  0  0
   47.2510   32.4010   44.6700 C   0  0  0  0  0  0  0  0  0  0  0  0
   47.0890   33.3180   43.6990 N   0  0  0  0  0  0  0  0  0  0  0  0
   43.9770   33.8630   39.9570 C   0  0  1  0  0  0  0  0  0  0  0  0
   44.5220   32.4840   39.6340 C   0  0  0  0  0  0  0  0  0  0  0  0
   42.4600   33.6630   40.0230 C   0  0  0  0  0  0  0  0  0  0  0  0
   42.0240   34.0230   38.6650 N   0  0  0  0  0  0  0  0  0  0  0  0
   42.0160   35.4290   38.4250 C   0  0  0  0  0  0  0  0  0  0  0  0
   40.8050   35.7160   37.5570 C   0  0  0  0  0  0  0  0  0  0  0  0
   39.8630   34.6170   37.9090 C   0  0  0  0  0  0  0  0  0  0  0  0
   40.7670   33.4720   38.2940 C   0  0  0  0  0  0  0  0  0  0  0  0
   46.8199   36.0309   42.9368 H   0  0  0  0  0  0  0  0  0  0  0  0
   44.3841   36.1690   43.8350 H   0  0  0  0  0  0  0  0  0  0  0  0
   45.0448   37.1640   42.5044 H   0  0  0  0  0  0  0  0  0  0  0  0
   42.8427   35.2690   42.3844 H   0  0  0  0  0  0  0  0  0  0  0  0
   43.5076   36.2131   41.0398 H   0  0  0  0  0  0  0  0  0  0  0  0
   44.0557   33.3987   41.8780 H   0  0  0  0  0  0  0  0  0  0  0  0
   46.3718   33.5176   41.5667 H   0  0  0  0  0  0  0  0  0  0  0  0
   46.2972   34.9958   40.6098 H   0  0  0  0  0  0  0  0  0  0  0  0
   44.7427   35.2459   45.1508 H   0  0  0  0  0  0  0  0  0  0  0  0
   45.0407   33.5296   46.9803 H   0  0  0  0  0  0  0  0  0  0  0  0
   47.9703   31.5788   44.5409 H   0  0  0  0  0  0  0  0  0  0  0  0
   44.3150   34.6098   39.2235 H   0  0  0  0  0  0  0  0  0  0  0  0
   44.7348   31.9455   40.5693 H   0  0  0  0  0  0  0  0  0  0  0  0
   43.7778   31.9233   39.0493 H   0  0  0  0  0  0  0  0  0  0  0  0
   45.4484   32.5836   39.0493 H   0  0  0  0  0  0  0  0  0  0  0  0
   42.2080   32.6179   40.2560 H   0  0  0  0  0  0  0  0  0  0  0  0
   41.9758   34.2615   40.8087 H   0  0  0  0  0  0  0  0  0  0  0  0
   41.9386   35.9756   39.3764 H   0  0  0  0  0  0  0  0  0  0  0  0
   42.9436   35.7512   37.9292 H   0  0  0  0  0  0  0  0  0  0  0  0
   41.0684   35.6825   36.4895 H   0  0  0  0  0  0  0  0  0  0  0  0
   40.3814   36.7169   37.7264 H   0  0  0  0  0  0  0  0  0  0  0  0
   39.2198   34.9083   38.7525 H   0  0  0  0  0  0  0  0  0  0  0  0
   39.1831   34.3609   37.0831 H   0  0  0  0  0  0  0  0  0  0  0  0
   40.3340   32.9209   39.1419 H   0  0  0  0  0  0  0  0  0  0  0  0
   40.8846   32.7729   37.4529 H   0  0  0  0  0  0  0  0  0  0  0  0
  1  2  1  0
  1  6  1  0
  3  2  1  0
  4  5  1  0
  4  3  1  0
  5  1  1  0
  6  7  2  0
  7  8  1  0
  9  8  2  0
 10  9  1  0
 11  6  1  0
 11 10  2  0
 12 14  1  0
 12  4  1  0
 13 12  1  0
 15 14  1  0
 16 15  1  0
 17 18  1  0
 17 16  1  0
 18 19  1  0
 19 15  1  0
  1 20  1  6
  2 21  1  0
  2 22  1  0
  3 23  1  0
  3 24  1  0
  4 25  1  1
  5 26  1  0
  5 27  1  0
  7 28  1  0
  8 29  1  0
 10 30  1  0
 12 31  1  6
 13 32  1  0
 13 33  1  0
 13 34  1  0
 14 35  1  0
 14 36  1  0
 16 37  1  0
 16 38  1  0
 17 39  1  0
 17 40  1  0
 18 41  1  0
 18 42  1  0
 19 43  1  0
 19 44  1  0
M  ISO  8  20  13  21  13  22  13  23  13  24  13  25  13  26  13  27  13
M  ISO  8  28  14  29  14  30  14  31   8  32   8  33   8  34   8  35   8
M  ISO  8  36   8  37  13  38  13  39  13  40  13  41  13  42  13  43  13
M  ISO  1  44  13
M  END
>  <minimizedAffinity>  (1) 
-5.16886044

>  <minimizedRMSD>  (1) 
1.50592768

$$$$
