
     RDKit          3D

 39 41  0  0  1  0  0  0  0  0999 V2000
   46.0900   35.2550   42.7720 C   0  0  2  0  0  0  0  0  0  0  0  0
   44.9980   36.1830   42.9240 C   0  0  0  0  0  0  0  0  0  0  0  0
   43.8280   35.6930   42.0390 C   0  0  0  0  0  0  0  0  0  0  0  0
   44.2860   34.4250   41.4040 C   0  0  2  0  0  0  0  0  0  0  0  0
   45.7570   34.4820   41.4460 C   0  0  0  0  0  0  0  0  0  0  0  0
   46.3180   34.2000   43.7600 C   0  0  0  0  0  0  0  0  0  0  0  0
   45.6060   34.2800   44.9850 C   0  0  0  0  0  0  0  0  0  0  0  0
   45.7650   33.2880   45.9440 C   0  0  0  0  0  0  0  0  0  0  0  0
   46.6320   32.2790   45.6110 N   0  0  0  0  0  0  0  0  0  0  0  0
   47.2980   32.2130   44.4580 C   0  0  0  0  0  0  0  0  0  0  0  0
   47.1390   33.1830   43.5280 N   0  0  0  0  0  0  0  0  0  0  0  0
   43.6680   34.0990   40.1020 C   0  0  1  0  0  0  0  0  0  0  0  0
   42.9510   32.7700   40.1650 C   0  0  0  0  0  0  0  0  0  0  0  0
   42.5840   35.1410   39.8570 C   0  0  0  0  0  0  0  0  0  0  0  0
   42.1350   34.9830   38.3960 C   0  0  0  0  0  0  0  0  0  0  0  0
   41.5030   36.1280   37.7060 C   0  0  0  0  0  0  0  0  0  0  0  0
   40.6370   34.9930   38.2100 C   0  0  0  0  0  0  0  0  0  0  0  0
   46.9896   35.8841   42.8423 H   0  0  0  0  0  0  0  0  0  0  0  0
   44.6809   36.2172   43.9767 H   0  0  0  0  0  0  0  0  0  0  0  0
   45.3098   37.1932   42.6204 H   0  0  0  0  0  0  0  0  0  0  0  0
   42.9354   35.5096   42.6551 H   0  0  0  0  0  0  0  0  0  0  0  0
   43.5576   36.4441   41.2822 H   0  0  0  0  0  0  0  0  0  0  0  0
   43.9278   33.5481   41.9631 H   0  0  0  0  0  0  0  0  0  0  0  0
   46.1837   33.4684   41.4706 H   0  0  0  0  0  0  0  0  0  0  0  0
   46.1792   34.9772   40.5591 H   0  0  0  0  0  0  0  0  0  0  0  0
   44.9293   35.1262   45.1747 H   0  0  0  0  0  0  0  0  0  0  0  0
   45.2315   33.3102   46.9057 H   0  0  0  0  0  0  0  0  0  0  0  0
   47.9769   31.3699   44.2626 H   0  0  0  0  0  0  0  0  0  0  0  0
   44.4485   34.0733   39.3273 H   0  0  0  0  0  0  0  0  0  0  0  0
   42.7976   32.4856   41.2165 H   0  0  0  0  0  0  0  0  0  0  0  0
   41.9763   32.8550   39.6622 H   0  0  0  0  0  0  0  0  0  0  0  0
   43.5572   32.0021   39.6622 H   0  0  0  0  0  0  0  0  0  0  0  0
   41.7345   34.9696   40.5344 H   0  0  0  0  0  0  0  0  0  0  0  0
   42.9641   36.1561   40.0445 H   0  0  0  0  0  0  0  0  0  0  0  0
   42.9745   34.3250   38.1272 H   0  0  0  0  0  0  0  0  0  0  0  0
   41.6511   36.2665   36.6248 H   0  0  0  0  0  0  0  0  0  0  0  0
   41.5108   37.2186   37.8490 H   0  0  0  0  0  0  0  0  0  0  0  0
   39.9726   35.1445   39.0735 H   0  0  0  0  0  0  0  0  0  0  0  0
   39.8954   34.3128   37.7657 H   0  0  0  0  0  0  0  0  0  0  0  0
  1  2  1  0
  1  6  1  0
  3  2  1  0
  4  5  1  0
  4  3  1  0
  5  1  1  0
  6  7  2  0
  7  8  1  0
  9  8  2  0
 10  9  1  0
 11  6  1  0
 11 10  2  0
 12 13  1  0
 12  4  1  0
 14 12  1  0
 15 14  1  0
 16 17  1  0
 16 15  1  0
 17 15  1  0
  1 18  1  6
  2 19  1  0
  2 20  1  0
  3 21  1  0
  3 22  1  0
  4 23  1  1
  5 24  1  0
  5 25  1  0
  7 26  1  0
  8 27  1  0
 10 28  1  0
 12 29  1  6
 13 30  1  0
 13 31  1  0
 13 32  1  0
 14 33  1  0
 14 34  1  0
 15 35  1  0
 16 36  1  0
 16 37  1  0
 17 38  1  0
 17 39  1  0
M  ISO  8  18  13  19  13  20  13  21  13  22  13  23  13  24  13  25  13
M  ISO  8  26  14  27  14  28  14  29   8  30   8  31   8  32   8  33   8
M  ISO  6  34   8  35  13  36  13  37  13  38  13  39  13
M  END
>  <minimizedAffinity>  (1) 
-4.95825863

>  <minimizedRMSD>  (1) 
0.369936436

$$$$
