
     RDKit          3D

 39 41  0  0  1  0  0  0  0  0999 V2000
   46.0940   34.9810   42.7870 C   0  0  2  0  0  0  0  0  0  0  0  0
   45.2440   36.0910   43.1370 C   0  0  0  0  0  0  0  0  0  0  0  0
   43.8030   35.7650   42.6800 C   0  0  0  0  0  0  0  0  0  0  0  0
   43.8540   34.4040   42.0830 C   0  0  2  0  0  0  0  0  0  0  0  0
   45.2670   34.1980   41.7030 C   0  0  0  0  0  0  0  0  0  0  0  0
   46.4390   33.9660   43.7850 C   0  0  0  0  0  0  0  0  0  0  0  0
   45.9180   34.1180   45.0940 C   0  0  0  0  0  0  0  0  0  0  0  0
   46.2000   33.1620   46.0610 C   0  0  0  0  0  0  0  0  0  0  0  0
   46.9840   32.1160   45.6570 N   0  0  0  0  0  0  0  0  0  0  0  0
   47.4710   31.9860   44.4100 C   0  0  0  0  0  0  0  0  0  0  0  0
   47.1930   32.9190   43.4740 N   0  0  0  0  0  0  0  0  0  0  0  0
   42.8570   34.1340   41.0290 C   0  0  1  0  0  0  0  0  0  0  0  0
   42.3370   32.7210   41.1420 C   0  0  0  0  0  0  0  0  0  0  0  0
   41.6790   35.0540   41.2820 C   0  0  0  0  0  0  0  0  0  0  0  0
   40.8060   34.8510   40.0370 C   0  0  0  0  0  0  0  0  0  0  0  0
   39.4610   34.4700   40.0010 C   0  0  0  0  0  0  0  0  0  0  0  0
   38.9290   34.3640   38.7490 C   0  0  0  0  0  0  0  0  0  0  0  0
   39.6770   34.6170   37.6220 C   0  0  0  0  0  0  0  0  0  0  0  0
   41.3140   35.0550   38.3600 S   0  0  0  0  0  0  0  0  0  0  0  0
   47.0589   35.4423   42.5296 H   0  0  0  0  0  0  0  0  0  0  0  0
   45.2627   36.2443   44.2261 H   0  0  0  0  0  0  0  0  0  0  0  0
   45.5984   37.0085   42.6445 H   0  0  0  0  0  0  0  0  0  0  0  0
   43.1180   35.7783   43.5406 H   0  0  0  0  0  0  0  0  0  0  0  0
   43.4352   36.5065   41.9555 H   0  0  0  0  0  0  0  0  0  0  0  0
   43.5383   33.6443   42.8133 H   0  0  0  0  0  0  0  0  0  0  0  0
   45.5207   33.1278   41.7207 H   0  0  0  0  0  0  0  0  0  0  0  0
   45.4783   34.5532   40.6836 H   0  0  0  0  0  0  0  0  0  0  0  0
   45.2935   34.9887   45.3429 H   0  0  0  0  0  0  0  0  0  0  0  0
   45.8165   33.2409   47.0890 H   0  0  0  0  0  0  0  0  0  0  0  0
   48.0965   31.1187   44.1522 H   0  0  0  0  0  0  0  0  0  0  0  0
   43.3176   34.2848   40.0415 H   0  0  0  0  0  0  0  0  0  0  0  0
   42.2375   32.4507   42.2036 H   0  0  0  0  0  0  0  0  0  0  0  0
   41.3544   32.6516   40.6524 H   0  0  0  0  0  0  0  0  0  0  0  0
   43.0402   32.0312   40.6524 H   0  0  0  0  0  0  0  0  0  0  0  0
   41.1390   34.7623   42.1949 H   0  0  0  0  0  0  0  0  0  0  0  0
   41.9743   36.1022   41.4371 H   0  0  0  0  0  0  0  0  0  0  0  0
   38.8770   34.2711   40.9117 H   0  0  0  0  0  0  0  0  0  0  0  0
   37.8752   34.0688   38.6377 H   0  0  0  0  0  0  0  0  0  0  0  0
   39.3799   34.5709   36.5639 H   0  0  0  0  0  0  0  0  0  0  0  0
  1  2  1  0
  1  6  1  0
  3  2  1  0
  4  3  1  0
  5  4  1  0
  5  1  1  0
  6  7  2  0
  7  8  1  0
  9  8  2  0
 10  9  1  0
 11  6  1  0
 11 10  2  0
 12 13  1  0
 12 14  1  0
 12  4  1  0
 15 14  1  0
 16 15  2  0
 17 16  1  0
 18 19  1  0
 18 17  2  0
 19 15  1  0
  1 20  1  6
  2 21  1  0
  2 22  1  0
  3 23  1  0
  3 24  1  0
  4 25  1  1
  5 26  1  0
  5 27  1  0
  7 28  1  0
  8 29  1  0
 10 30  1  0
 12 31  1  6
 13 32  1  0
 13 33  1  0
 13 34  1  0
 14 35  1  0
 14 36  1  0
 16 37  1  0
 17 38  1  0
 18 39  1  0
M  ISO  8  20  13  21  13  22  13  23  13  24  13  25  13  26  13  27  13
M  ISO  8  28  14  29  14  30  14  31   8  32   8  33   8  34   8  35   8
M  ISO  4  36   8  37  14  38  14  39  14
M  END
>  <minimizedAffinity>  (1) 
-5.06787777

>  <minimizedRMSD>  (1) 
1.55719197

$$$$
