
     RDKit          3D

 37 39  0  0  1  0  0  0  0  0999 V2000
   46.1140   35.2270   42.7980 C   0  0  2  0  0  0  0  0  0  0  0  0
   45.1130   36.2390   43.0040 C   0  0  0  0  0  0  0  0  0  0  0  0
   43.8650   35.8260   42.1920 C   0  0  0  0  0  0  0  0  0  0  0  0
   44.1900   34.5250   41.5430 C   0  0  2  0  0  0  0  0  0  0  0  0
   45.6610   34.4780   41.4900 C   0  0  0  0  0  0  0  0  0  0  0  0
   46.3240   34.1730   43.7750 C   0  0  0  0  0  0  0  0  0  0  0  0
   45.6530   34.2560   44.9980 C   0  0  0  0  0  0  0  0  0  0  0  0
   45.8110   33.2630   45.9840 C   0  0  0  0  0  0  0  0  0  0  0  0
   46.6590   32.2430   45.6280 N   0  0  0  0  0  0  0  0  0  0  0  0
   47.2940   32.1800   44.4470 C   0  0  0  0  0  0  0  0  0  0  0  0
   47.1230   33.1440   43.5280 N   0  0  0  0  0  0  0  0  0  0  0  0
   43.4640   34.2490   40.2850 C   0  0  1  0  0  0  0  0  0  0  0  0
   43.6860   32.8230   39.8460 C   0  0  0  0  0  0  0  0  0  0  0  0
   41.9870   34.3870   40.5820 C   0  0  0  0  0  0  0  0  0  0  0  0
   41.2250   34.6660   39.3090 C   0  0  0  0  0  0  0  0  0  0  0  0
   41.5870   35.5760   38.3920 N   0  0  0  0  0  0  0  0  0  0  0  0
   40.6940   35.5460   37.4200 O   0  0  0  0  0  0  0  0  0  0  0  0
   39.7990   34.6380   37.7270 C   0  0  0  0  0  0  0  0  0  0  0  0
   40.1060   34.0590   38.9240 N   0  0  0  0  0  0  0  0  0  0  0  0
   47.0599   35.7882   42.8151 H   0  0  0  0  0  0  0  0  0  0  0  0
   44.8609   36.3066   44.0726 H   0  0  0  0  0  0  0  0  0  0  0  0
   45.4816   37.2224   42.6767 H   0  0  0  0  0  0  0  0  0  0  0  0
   42.9987   35.7108   42.8600 H   0  0  0  0  0  0  0  0  0  0  0  0
   43.6089   36.5897   41.4428 H   0  0  0  0  0  0  0  0  0  0  0  0
   43.8135   33.6740   42.1296 H   0  0  0  0  0  0  0  0  0  0  0  0
   46.0191   33.4379   41.4912 H   0  0  0  0  0  0  0  0  0  0  0  0
   46.0664   34.9384   40.5769 H   0  0  0  0  0  0  0  0  0  0  0  0
   44.9900   35.1116   45.1939 H   0  0  0  0  0  0  0  0  0  0  0  0
   45.2987   33.3011   46.9567 H   0  0  0  0  0  0  0  0  0  0  0  0
   47.9599   31.3317   44.2303 H   0  0  0  0  0  0  0  0  0  0  0  0
   43.8136   34.9392   39.5030 H   0  0  0  0  0  0  0  0  0  0  0  0
   43.7864   32.1782   40.7315 H   0  0  0  0  0  0  0  0  0  0  0  0
   42.8293   32.4873   39.2432 H   0  0  0  0  0  0  0  0  0  0  0  0
   44.6042   32.7636   39.2432 H   0  0  0  0  0  0  0  0  0  0  0  0
   41.6173   33.4528   41.0299 H   0  0  0  0  0  0  0  0  0  0  0  0
   41.8373   35.2227   41.2814 H   0  0  0  0  0  0  0  0  0  0  0  0
   38.9265   34.3802   37.1087 H   0  0  0  0  0  0  0  0  0  0  0  0
  1  2  1  0
  1  6  1  0
  3  2  1  0
  4  3  1  0
  5  4  1  0
  5  1  1  0
  6  7  2  0
  7  8  1  0
  9  8  2  0
 10  9  1  0
 11  6  1  0
 11 10  2  0
 12 14  1  0
 12  4  1  0
 13 12  1  0
 15 14  1  0
 16 15  2  0
 17 18  1  0
 17 16  1  0
 18 19  2  0
 19 15  1  0
  1 20  1  6
  2 21  1  0
  2 22  1  0
  3 23  1  0
  3 24  1  0
  4 25  1  1
  5 26  1  0
  5 27  1  0
  7 28  1  0
  8 29  1  0
 10 30  1  0
 12 31  1  6
 13 32  1  0
 13 33  1  0
 13 34  1  0
 14 35  1  0
 14 36  1  0
 18 37  1  0
M  ISO  8  20  13  21  13  22  13  23  13  24  13  25  13  26  13  27  13
M  ISO  8  28  14  29  14  30  14  31   8  32   8  33   8  34   8  35   8
M  ISO  2  36   8  37  14
M  END
>  <minimizedAffinity>  (1) 
-4.95447111

>  <minimizedRMSD>  (1) 
0.763845026

$$$$
