
     RDKit          3D

 45 47  0  0  1  0  0  0  0  0999 V2000
   45.9520   35.3760   42.7970 C   0  0  2  0  0  0  0  0  0  0  0  0
   44.7620   36.1890   42.7760 C   0  0  0  0  0  0  0  0  0  0  0  0
   43.7480   35.5400   41.8040 C   0  0  0  0  0  0  0  0  0  0  0  0
   44.3870   34.2890   41.3110 C   0  0  2  0  0  0  0  0  0  0  0  0
   45.8340   34.4990   41.4930 C   0  0  0  0  0  0  0  0  0  0  0  0
   46.1600   34.4010   43.8790 C   0  0  0  0  0  0  0  0  0  0  0  0
   45.3710   34.5120   45.0300 C   0  0  0  0  0  0  0  0  0  0  0  0
   45.5110   33.6020   46.0740 C   0  0  0  0  0  0  0  0  0  0  0  0
   46.4550   32.6300   45.8690 N   0  0  0  0  0  0  0  0  0  0  0  0
   47.2030   32.5300   44.7710 C   0  0  0  0  0  0  0  0  0  0  0  0
   47.0500   33.4200   43.7790 N   0  0  0  0  0  0  0  0  0  0  0  0
   43.9580   33.8550   39.9640 C   0  0  1  0  0  0  0  0  0  0  0  0
   44.5380   32.4920   39.6430 C   0  0  0  0  0  0  0  0  0  0  0  0
   42.4540   33.6750   40.0080 C   0  0  0  0  0  0  0  0  0  0  0  0
   42.0570   33.8240   38.5880 N   0  0  0  0  0  0  0  0  0  0  0  0
   41.7020   35.1880   38.3560 C   0  0  0  0  0  0  0  0  0  0  0  0
   40.4180   35.3140   37.5700 C   0  0  0  0  0  0  0  0  0  0  0  0
   39.3850   34.6180   38.1560 O   0  0  0  0  0  0  0  0  0  0  0  0
   39.6930   33.3400   38.5590 C   0  0  0  0  0  0  0  0  0  0  0  0
   41.0630   32.8900   38.1880 C   0  0  0  0  0  0  0  0  0  0  0  0
   46.7801   36.0907   42.9133 H   0  0  0  0  0  0  0  0  0  0  0  0
   44.3288   36.2406   43.7858 H   0  0  0  0  0  0  0  0  0  0  0  0
   45.0055   37.2092   42.4445 H   0  0  0  0  0  0  0  0  0  0  0  0
   42.8105   35.3074   42.3303 H   0  0  0  0  0  0  0  0  0  0  0  0
   43.4993   36.2171   40.9735 H   0  0  0  0  0  0  0  0  0  0  0  0
   44.0538   33.4148   41.8896 H   0  0  0  0  0  0  0  0  0  0  0  0
   46.3517   33.5374   41.6245 H   0  0  0  0  0  0  0  0  0  0  0  0
   46.2960   34.9860   40.6216 H   0  0  0  0  0  0  0  0  0  0  0  0
   44.6344   35.3250   45.1101 H   0  0  0  0  0  0  0  0  0  0  0  0
   44.9098   33.6588   46.9934 H   0  0  0  0  0  0  0  0  0  0  0  0
   47.9428   31.7212   44.6783 H   0  0  0  0  0  0  0  0  0  0  0  0
   44.2849   34.5959   39.2195 H   0  0  0  0  0  0  0  0  0  0  0  0
   44.7643   31.9602   40.5789 H   0  0  0  0  0  0  0  0  0  0  0  0
   43.8089   31.9116   39.0586 H   0  0  0  0  0  0  0  0  0  0  0  0
   45.4617   32.6150   39.0586 H   0  0  0  0  0  0  0  0  0  0  0  0
   42.1864   32.6790   40.3906 H   0  0  0  0  0  0  0  0  0  0  0  0
   41.9518   34.3910   40.6752 H   0  0  0  0  0  0  0  0  0  0  0  0
   41.5754   35.6917   39.3257 H   0  0  0  0  0  0  0  0  0  0  0  0
   42.5069   35.6527   37.7677 H   0  0  0  0  0  0  0  0  0  0  0  0
   40.5819   34.9198   36.5562 H   0  0  0  0  0  0  0  0  0  0  0  0
   40.1390   36.3777   37.5427 H   0  0  0  0  0  0  0  0  0  0  0  0
   39.6006   33.2932   39.6541 H   0  0  0  0  0  0  0  0  0  0  0  0
   38.9918   32.6702   38.0397 H   0  0  0  0  0  0  0  0  0  0  0  0
   41.2646   31.9256   38.6771 H   0  0  0  0  0  0  0  0  0  0  0  0
   41.1051   32.7973   37.0927 H   0  0  0  0  0  0  0  0  0  0  0  0
  1  6  1  0
  2  1  1  0
  3  2  1  0
  4  5  1  0
  4  3  1  0
  5  1  1  0
  6  7  2  0
  7  8  1  0
  9  8  2  0
 10  9  1  0
 11  6  1  0
 11 10  2  0
 12 14  1  0
 12  4  1  0
 13 12  1  0
 15 14  1  0
 16 15  1  0
 17 18  1  0
 17 16  1  0
 18 19  1  0
 20 19  1  0
 20 15  1  0
  1 21  1  6
  2 22  1  0
  2 23  1  0
  3 24  1  0
  3 25  1  0
  4 26  1  1
  5 27  1  0
  5 28  1  0
  7 29  1  0
  8 30  1  0
 10 31  1  0
 12 32  1  6
 13 33  1  0
 13 34  1  0
 13 35  1  0
 14 36  1  0
 14 37  1  0
 16 38  1  0
 16 39  1  0
 17 40  1  0
 17 41  1  0
 19 42  1  0
 19 43  1  0
 20 44  1  0
 20 45  1  0
M  ISO  8  21  13  22  13  23  13  24  13  25  13  26  13  27  13  28  13
M  ISO  8  29  14  30  14  31  14  32   8  33   8  34   8  35   8  36   8
M  ISO  8  37   8  38  13  39  13  40  13  41  13  42  13  43  13  44  13
M  ISO  1  45  13
M  END
>  <minimizedAffinity>  (1) 
-5.00893927

>  <minimizedRMSD>  (1) 
0.931622505

$$$$
