
     RDKit          3D

 17 18  0  0  0  0  0  0  0  0999 V2000
   45.7370   35.6420   42.8450 C   0  0  0  0  0  0  0  0  0  0  0  0
   46.8560   34.7870   42.7230 C   0  0  0  0  0  0  0  0  0  0  0  0
   47.0710   33.8380   43.7490 C   0  0  0  0  0  0  0  0  0  0  0  0
   46.1900   33.8130   44.7810 N   0  0  0  0  0  0  0  0  0  0  0  0
   45.1360   34.6410   44.8670 C   0  0  0  0  0  0  0  0  0  0  0  0
   44.9120   35.5560   43.8950 N   0  0  0  0  0  0  0  0  0  0  0  0
   47.7650   34.9030   41.5390 C   0  0  0  0  0  0  0  0  0  0  0  0
   48.9300   35.8040   41.5880 C   0  0  0  0  0  0  0  0  0  0  0  0
   49.0990   34.2940   41.6420 C   0  0  0  0  0  0  0  0  0  0  0  0
   45.5411   36.3908   42.0634 H   0  0  0  0  0  0  0  0  0  0  0  0
   47.9233   33.1436   43.7119 H   0  0  0  0  0  0  0  0  0  0  0  0
   44.4544   34.5755   45.7279 H   0  0  0  0  0  0  0  0  0  0  0  0
   46.9173   34.8100   40.8442 H   0  0  0  0  0  0  0  0  0  0  0  0
   49.2351   36.3632   40.6912 H   0  0  0  0  0  0  0  0  0  0  0  0
   49.2408   36.6515   42.2165 H   0  0  0  0  0  0  0  0  0  0  0  0
   49.4132   33.8061   42.5765 H   0  0  0  0  0  0  0  0  0  0  0  0
   49.6663   33.5480   41.0662 H   0  0  0  0  0  0  0  0  0  0  0  0
  1  6  2  0
  2  1  1  0
  2  3  2  0
  3  4  1  0
  4  5  2  0
  6  5  1  0
  7  8  1  0
  7  9  1  0
  7  2  1  0
  8  9  1  0
  1 10  1  0
  3 11  1  0
  5 12  1  0
  7 13  1  0
  8 14  1  0
  8 15  1  0
  9 16  1  0
  9 17  1  0
M  ISO  8  10  14  11  14  12  14  13  13  14  13  15  13  16  13  17  13
M  END
>  <minimizedAffinity>  (1) 
-3.65500021

>  <minimizedRMSD>  (1) 
2.32888317

$$$$
