
     RDKit          3D

 33 34  0  0  1  0  0  0  0  0999 V2000
   46.0910   35.2470   42.7850 C   0  0  2  0  0  0  0  0  0  0  0  0
   44.9780   36.1500   42.9210 C   0  0  0  0  0  0  0  0  0  0  0  0
   43.8330   35.6390   42.0140 C   0  0  0  0  0  0  0  0  0  0  0  0
   44.3240   34.3790   41.3880 C   0  0  2  0  0  0  0  0  0  0  0  0
   45.7960   34.4650   41.4550 C   0  0  0  0  0  0  0  0  0  0  0  0
   46.3220   34.1940   43.7770 C   0  0  0  0  0  0  0  0  0  0  0  0
   45.6070   34.2750   44.9990 C   0  0  0  0  0  0  0  0  0  0  0  0
   45.7690   33.2870   45.9620 C   0  0  0  0  0  0  0  0  0  0  0  0
   46.6430   32.2790   45.6340 N   0  0  0  0  0  0  0  0  0  0  0  0
   47.3110   32.2160   44.4800 C   0  0  0  0  0  0  0  0  0  0  0  0
   47.1470   33.1780   43.5530 N   0  0  0  0  0  0  0  0  0  0  0  0
   43.7380   34.0630   40.0720 C   0  0  1  0  0  0  0  0  0  0  0  0
   43.0540   32.7130   40.1060 C   0  0  0  0  0  0  0  0  0  0  0  0
   42.6410   35.0790   39.8140 C   0  0  0  0  0  0  0  0  0  0  0  0
   41.5300   34.2300   38.6040 S   0  0  0  0  0  0  0  0  0  0  0  0
   46.9753   35.8959   42.8677 H   0  0  0  0  0  0  0  0  0  0  0  0
   44.6423   36.1734   43.9683 H   0  0  0  0  0  0  0  0  0  0  0  0
   45.2737   37.1676   42.6259 H   0  0  0  0  0  0  0  0  0  0  0  0
   42.9324   35.4403   42.6135 H   0  0  0  0  0  0  0  0  0  0  0  0
   43.5643   36.3851   41.2517 H   0  0  0  0  0  0  0  0  0  0  0  0
   43.9760   33.4917   41.9372 H   0  0  0  0  0  0  0  0  0  0  0  0
   46.2419   33.4600   41.4891 H   0  0  0  0  0  0  0  0  0  0  0  0
   46.2236   34.9666   40.5743 H   0  0  0  0  0  0  0  0  0  0  0  0
   44.9255   35.1184   45.1839 H   0  0  0  0  0  0  0  0  0  0  0  0
   45.2335   33.3102   46.9226 H   0  0  0  0  0  0  0  0  0  0  0  0
   47.9960   31.3773   44.2865 H   0  0  0  0  0  0  0  0  0  0  0  0
   44.5324   34.0711   39.3111 H   0  0  0  0  0  0  0  0  0  0  0  0
   42.8989   32.4068   41.1511 H   0  0  0  0  0  0  0  0  0  0  0  0
   42.0819   32.7815   39.5958 H   0  0  0  0  0  0  0  0  0  0  0  0
   43.6842   31.9697   39.5958 H   0  0  0  0  0  0  0  0  0  0  0  0
   42.1007   35.3167   40.7422 H   0  0  0  0  0  0  0  0  0  0  0  0
   43.0283   36.0369   39.4366 H   0  0  0  0  0  0  0  0  0  0  0  0
   40.5841   33.5071   39.2819 H   0  0  0  0  0  0  0  0  0  0  0  0
  1  2  1  0
  1  6  1  0
  3  2  1  0
  4  5  1  0
  4  3  1  0
  5  1  1  0
  6  7  2  0
  7  8  1  0
  9  8  2  0
 10  9  1  0
 11  6  1  0
 11 10  2  0
 12 13  1  0
 12  4  1  0
 14 12  1  0
 15 14  1  0
  1 16  1  6
  2 17  1  0
  2 18  1  0
  3 19  1  0
  3 20  1  0
  4 21  1  1
  5 22  1  0
  5 23  1  0
  7 24  1  0
  8 25  1  0
 10 26  1  0
 12 27  1  6
 13 28  1  0
 13 29  1  0
 13 30  1  0
 14 31  1  0
 14 32  1  0
 15 33  1  0
M  ISO  8  16  13  17  13  18  13  19  13  20  13  21  13  22  13  23  13
M  ISO  8  24  14  25  14  26  14  27   8  28   8  29   8  30   8  31   8
M  ISO  2  32   8  33  11
M  END
>  <minimizedAffinity>  (1) 
-4.12138414

>  <minimizedRMSD>  (1) 
0.200824142

$$$$
