
     RDKit          3D

 33 34  0  0  1  0  0  0  0  0999 V2000
   46.1050   35.2440   42.8030 C   0  0  2  0  0  0  0  0  0  0  0  0
   44.9980   36.1540   42.9410 C   0  0  0  0  0  0  0  0  0  0  0  0
   43.8520   35.6520   42.0320 C   0  0  0  0  0  0  0  0  0  0  0  0
   44.3370   34.3940   41.3990 C   0  0  2  0  0  0  0  0  0  0  0  0
   45.8070   34.4730   41.4680 C   0  0  0  0  0  0  0  0  0  0  0  0
   46.3280   34.1880   43.7960 C   0  0  0  0  0  0  0  0  0  0  0  0
   45.6120   34.2670   45.0180 C   0  0  0  0  0  0  0  0  0  0  0  0
   45.7760   33.2710   45.9700 C   0  0  0  0  0  0  0  0  0  0  0  0
   46.6410   32.2640   45.6440 N   0  0  0  0  0  0  0  0  0  0  0  0
   47.3150   32.2040   44.4810 C   0  0  0  0  0  0  0  0  0  0  0  0
   47.1500   33.1770   43.5580 N   0  0  0  0  0  0  0  0  0  0  0  0
   43.7470   34.0800   40.0850 C   0  0  1  0  0  0  0  0  0  0  0  0
   43.0970   32.7130   40.1030 C   0  0  0  0  0  0  0  0  0  0  0  0
   42.6210   35.0730   39.8540 C   0  0  0  0  0  0  0  0  0  0  0  0
   42.3410   34.9810   38.4530 O   0  0  0  0  0  0  0  0  0  0  0  0
   46.9960   35.8835   42.8884 H   0  0  0  0  0  0  0  0  0  0  0  0
   44.6615   36.1768   43.9880 H   0  0  0  0  0  0  0  0  0  0  0  0
   45.3000   37.1708   42.6496 H   0  0  0  0  0  0  0  0  0  0  0  0
   42.9508   35.4536   42.6307 H   0  0  0  0  0  0  0  0  0  0  0  0
   43.5867   36.4032   41.2736 H   0  0  0  0  0  0  0  0  0  0  0  0
   43.9847   33.5053   41.9431 H   0  0  0  0  0  0  0  0  0  0  0  0
   46.2483   33.4658   41.4954 H   0  0  0  0  0  0  0  0  0  0  0  0
   46.2372   34.9792   40.5913 H   0  0  0  0  0  0  0  0  0  0  0  0
   44.9326   35.1107   45.2093 H   0  0  0  0  0  0  0  0  0  0  0  0
   45.2411   33.2906   46.9310 H   0  0  0  0  0  0  0  0  0  0  0  0
   47.9984   31.3653   44.2822 H   0  0  0  0  0  0  0  0  0  0  0  0
   44.5342   34.1171   39.3176 H   0  0  0  0  0  0  0  0  0  0  0  0
   42.9449   32.3930   41.1444 H   0  0  0  0  0  0  0  0  0  0  0  0
   42.1258   32.7620   39.5889 H   0  0  0  0  0  0  0  0  0  0  0  0
   43.7480   31.9906   39.5889 H   0  0  0  0  0  0  0  0  0  0  0  0
   41.7349   34.8001   40.4460 H   0  0  0  0  0  0  0  0  0  0  0  0
   42.8955   36.0937   40.1587 H   0  0  0  0  0  0  0  0  0  0  0  0
   41.4087   34.6747   38.3222 H   0  0  0  0  0  0  0  0  0  0  0  0
  1  2  1  0
  1  6  1  0
  3  2  1  0
  4  5  1  0
  4  3  1  0
  5  1  1  0
  6  7  2  0
  7  8  1  0
  9  8  2  0
 10  9  1  0
 11  6  1  0
 11 10  2  0
 12 13  1  0
 12  4  1  0
 14 12  1  0
 15 14  1  0
  1 16  1  6
  2 17  1  0
  2 18  1  0
  3 19  1  0
  3 20  1  0
  4 21  1  1
  5 22  1  0
  5 23  1  0
  7 24  1  0
  8 25  1  0
 10 26  1  0
 12 27  1  6
 13 28  1  0
 13 29  1  0
 13 30  1  0
 14 31  1  0
 14 32  1  0
 15 33  1  0
M  ISO  8  16  13  17  13  18  13  19  13  20  13  21  13  22  13  23  13
M  ISO  8  24  14  25  14  26  14  27   8  28   8  29   8  30   8  31   8
M  ISO  2  32   8  33   3
M  END
>  <minimizedAffinity>  (1) 
-4.12252474

>  <minimizedRMSD>  (1) 
0.108449996

$$$$
