
     RDKit          3D

 27 29  0  0  1  0  0  0  0  0999 V2000
   46.6000   35.2290   42.0160 C   0  0  1  0  0  0  0  0  0  0  0  0
   48.0840   35.3540   41.8970 C   0  0  0  0  0  0  0  0  0  0  0  0
   47.3150   34.1500   41.3630 C   0  0  2  0  0  0  0  0  0  0  0  0
   46.5340   33.8530   44.1140 C   0  0  0  0  0  0  0  0  0  0  0  0
   46.0180   34.9530   43.3800 C   0  0  0  0  0  0  0  0  0  0  0  0
   44.9880   35.7600   43.9540 C   0  0  0  0  0  0  0  0  0  0  0  0
   44.5680   35.4100   45.1820 N   0  0  0  0  0  0  0  0  0  0  0  0
   45.0730   34.3610   45.8570 C   0  0  0  0  0  0  0  0  0  0  0  0
   46.0430   33.5860   45.3400 N   0  0  0  0  0  0  0  0  0  0  0  0
   47.2900   33.9580   39.8810 C   0  0  0  0  0  0  0  0  0  0  0  0
   46.2330   33.2490   39.3290 C   0  0  0  0  0  0  0  0  0  0  0  0
   46.1740   33.0480   37.9460 C   0  0  0  0  0  0  0  0  0  0  0  0
   47.2130   33.5930   37.2150 C   0  0  0  0  0  0  0  0  0  0  0  0
   48.2570   34.2930   37.7460 C   0  0  0  0  0  0  0  0  0  0  0  0
   48.3040   34.4830   39.1040 C   0  0  0  0  0  0  0  0  0  0  0  0
   45.7571   35.8750   41.7294 H   0  0  0  0  0  0  0  0  0  0  0  0
   48.5278   36.0837   41.2038 H   0  0  0  0  0  0  0  0  0  0  0  0
   48.9241   35.5150   42.5886 H   0  0  0  0  0  0  0  0  0  0  0  0
   47.3194   33.0600   41.5112 H   0  0  0  0  0  0  0  0  0  0  0  0
   47.3281   33.2238   43.6855 H   0  0  0  0  0  0  0  0  0  0  0  0
   44.5615   36.6217   43.4195 H   0  0  0  0  0  0  0  0  0  0  0  0
   44.6817   34.1311   46.8590 H   0  0  0  0  0  0  0  0  0  0  0  0
   45.4421   32.8453   39.9783 H   0  0  0  0  0  0  0  0  0  0  0  0
   45.3530   32.4916   37.4703 H   0  0  0  0  0  0  0  0  0  0  0  0
   47.1970   33.4519   36.1242 H   0  0  0  0  0  0  0  0  0  0  0  0
   49.0472   34.6979   37.0966 H   0  0  0  0  0  0  0  0  0  0  0  0
   49.1321   35.0419   39.5644 H   0  0  0  0  0  0  0  0  0  0  0  0
  1  5  1  0
  2  1  1  0
  3  2  1  0
  3  1  1  0
  4  9  2  0
  5  6  2  0
  5  4  1  0
  6  7  1  0
  7  8  2  0
  9  8  1  0
 10  3  1  0
 11 10  2  0
 12 11  1  0
 13 14  1  0
 13 12  2  0
 14 15  2  0
 15 10  1  0
  1 16  1  6
  2 17  1  0
  2 18  1  0
  3 19  1  1
  4 20  1  0
  6 21  1  0
  8 22  1  0
 11 23  1  0
 12 24  1  0
 13 25  1  0
 14 26  1  0
 15 27  1  0
M  ISO  8  16  13  17  13  18  13  19  13  20  14  21  14  22  14  23  14
M  ISO  4  24  14  25  14  26  14  27  14
M  END
>  <minimizedAffinity>  (1) 
-4.95297718

>  <minimizedRMSD>  (1) 
2.80652857

$$$$
