
     RDKit          3D

 28 30  0  0  1  0  0  0  0  0999 V2000
   46.8600   35.1950   41.6970 C   0  0  1  0  0  0  0  0  0  0  0  0
   48.3480   35.1110   41.6730 C   0  0  0  0  0  0  0  0  0  0  0  0
   47.4800   34.0150   41.1320 C   0  0  2  0  0  0  0  0  0  0  0  0
   47.3160   33.8350   39.7100 N   0  0  0  0  0  0  0  0  0  0  0  0
   48.1430   34.2610   38.7240 C   0  0  0  0  0  0  0  0  0  0  0  0
   47.8160   33.9940   37.4060 C   0  0  0  0  0  0  0  0  0  0  0  0
   46.6580   33.3000   37.1130 C   0  0  0  0  0  0  0  0  0  0  0  0
   46.3150   33.0190   35.7480 N   0  0  0  0  0  0  0  0  0  0  0  0
   45.8630   32.8940   38.1190 N   0  0  0  0  0  0  0  0  0  0  0  0
   46.1880   33.1600   39.4180 C   0  0  0  0  0  0  0  0  0  0  0  0
   45.3580   32.7210   40.2220 O   0  0  0  0  0  0  0  0  0  0  0  0
   45.2070   36.0590   43.3850 C   0  0  0  0  0  0  0  0  0  0  0  0
   46.1570   35.0940   43.0240 C   0  0  0  0  0  0  0  0  0  0  0  0
   46.4260   34.0180   43.9210 C   0  0  0  0  0  0  0  0  0  0  0  0
   45.7410   33.9850   45.0900 N   0  0  0  0  0  0  0  0  0  0  0  0
   44.8300   34.9370   45.4030 C   0  0  0  0  0  0  0  0  0  0  0  0
   44.5710   35.9670   44.5460 N   0  0  0  0  0  0  0  0  0  0  0  0
   46.1188   35.9201   41.3298 H   0  0  0  0  0  0  0  0  0  0  0  0
   48.9295   35.7476   40.9900 H   0  0  0  0  0  0  0  0  0  0  0  0
   49.1553   35.1849   42.4165 H   0  0  0  0  0  0  0  0  0  0  0  0
   47.4517   32.9300   41.3110 H   0  0  0  0  0  0  0  0  0  0  0  0
   49.0629   34.8123   38.9685 H   0  0  0  0  0  0  0  0  0  0  0  0
   48.4762   34.3334   36.5942 H   0  0  0  0  0  0  0  0  0  0  0  0
   45.4515   32.5015   35.5300 H   0  0  0  0  0  0  0  0  0  0  0  0
   46.9323   33.3348   34.9864 H   0  0  0  0  0  0  0  0  0  0  0  0
   44.9880   36.8948   42.7042 H   0  0  0  0  0  0  0  0  0  0  0  0
   47.1643   33.2414   43.6724 H   0  0  0  0  0  0  0  0  0  0  0  0
   44.2918   34.8793   46.3606 H   0  0  0  0  0  0  0  0  0  0  0  0
  1 13  1  0
  2  1  1  0
  3  2  1  0
  3  1  1  0
  4  3  1  0
  5  4  1  0
  6  5  2  0
  7  6  1  0
  7  9  2  0
  8  7  1  0
  9 10  1  0
 10  4  1  0
 10 11  2  0
 12 17  2  0
 13 12  1  0
 13 14  2  0
 14 15  1  0
 15 16  2  0
 17 16  1  0
  1 18  1  6
  2 19  1  0
  2 20  1  0
  3 21  1  1
  5 22  1  0
  6 23  1  0
  8 24  1  0
  8 25  1  0
 12 26  1  0
 14 27  1  0
 16 28  1  0
M  ISO  8  18  13  19  13  20  13  21  13  22  14  23  14  26  14  27  14
M  ISO  1  28  14
M  END
>  <minimizedAffinity>  (1) 
-5.1310792

>  <minimizedRMSD>  (1) 
2.39226484

$$$$
