
     RDKit          3D

 33 36  0  0  1  0  0  0  0  0999 V2000
   46.7130   35.1910   41.8590 C   0  0  1  0  0  0  0  0  0  0  0  0
   48.1940   35.2440   41.7350 C   0  0  0  0  0  0  0  0  0  0  0  0
   47.3720   34.0590   41.2280 C   0  0  2  0  0  0  0  0  0  0  0  0
   47.1860   33.8700   39.7720 C   0  0  0  0  0  0  0  0  0  0  0  0
   48.2680   34.4220   39.0750 C   0  0  0  0  0  0  0  0  0  0  0  0
   48.3480   34.3270   37.6840 C   0  0  0  0  0  0  0  0  0  0  0  0
   47.3270   33.6740   37.0270 C   0  0  0  0  0  0  0  0  0  0  0  0
   46.2500   33.1230   37.6900 C   0  0  0  0  0  0  0  0  0  0  0  0
   45.1930   32.4680   37.0910 C   0  0  0  0  0  0  0  0  0  0  0  0
   44.1510   31.9630   37.8700 C   0  0  0  0  0  0  0  0  0  0  0  0
   44.1250   32.0910   39.2590 C   0  0  0  0  0  0  0  0  0  0  0  0
   45.1850   32.7450   39.8510 C   0  0  0  0  0  0  0  0  0  0  0  0
   46.2010   33.2330   39.0610 C   0  0  0  0  0  0  0  0  0  0  0  0
   45.1130   35.8870   43.6600 C   0  0  0  0  0  0  0  0  0  0  0  0
   46.1000   34.9910   43.2230 C   0  0  0  0  0  0  0  0  0  0  0  0
   46.4670   33.9270   44.0600 C   0  0  0  0  0  0  0  0  0  0  0  0
   45.8490   33.8060   45.2650 N   0  0  0  0  0  0  0  0  0  0  0  0
   44.9010   34.6890   45.6550 C   0  0  0  0  0  0  0  0  0  0  0  0
   44.5360   35.7280   44.8490 N   0  0  0  0  0  0  0  0  0  0  0  0
   45.9026   35.8714   41.5585 H   0  0  0  0  0  0  0  0  0  0  0  0
   48.6685   35.9368   41.0244 H   0  0  0  0  0  0  0  0  0  0  0  0
   49.0414   35.3832   42.4225 H   0  0  0  0  0  0  0  0  0  0  0  0
   47.4034   32.9721   41.3943 H   0  0  0  0  0  0  0  0  0  0  0  0
   49.0654   34.9372   39.6305 H   0  0  0  0  0  0  0  0  0  0  0  0
   49.1961   34.7582   37.1319 H   0  0  0  0  0  0  0  0  0  0  0  0
   47.3729   33.5890   35.9313 H   0  0  0  0  0  0  0  0  0  0  0  0
   45.1719   32.3439   35.9982 H   0  0  0  0  0  0  0  0  0  0  0  0
   43.3193   31.4448   37.3703 H   0  0  0  0  0  0  0  0  0  0  0  0
   43.2943   31.6874   39.8566 H   0  0  0  0  0  0  0  0  0  0  0  0
   45.2182   32.8753   40.9428 H   0  0  0  0  0  0  0  0  0  0  0  0
   44.8138   36.7268   43.0156 H   0  0  0  0  0  0  0  0  0  0  0  0
   47.2376   33.2065   43.7485 H   0  0  0  0  0  0  0  0  0  0  0  0
   44.4176   34.5677   46.6356 H   0  0  0  0  0  0  0  0  0  0  0  0
  1 15  1  0
  2  1  1  0
  3  2  1  0
  3  1  1  0
  4  3  1  0
  5  4  2  0
  6  5  1  0
  7  6  2  0
  7  8  1  0
  8 13  2  0
  9  8  1  0
  9 10  2  0
 10 11  1  0
 11 12  2  0
 13  4  1  0
 13 12  1  0
 14 19  2  0
 15 14  1  0
 15 16  2  0
 16 17  1  0
 17 18  2  0
 19 18  1  0
  1 20  1  6
  2 21  1  0
  2 22  1  0
  3 23  1  1
  5 24  1  0
  6 25  1  0
  7 26  1  0
  9 27  1  0
 10 28  1  0
 11 29  1  0
 12 30  1  0
 14 31  1  0
 16 32  1  0
 18 33  1  0
M  ISO  8  20  13  21  13  22  13  23  13  24  14  25  14  26  14  27  14
M  ISO  6  28  14  29  14  30  14  31  14  32  14  33  14
M  END
>  <minimizedAffinity>  (1) 
-5.51507044

>  <minimizedRMSD>  (1) 
3.53513312

$$$$
