
     RDKit          3D

 23 25  0  0  1  0  0  0  0  0999 V2000
   47.2180   35.1510   41.6340 C   0  0  1  0  0  0  0  0  0  0  0  0
   48.6570   35.5150   41.7070 C   0  0  0  0  0  0  0  0  0  0  0  0
   48.1830   34.1070   41.3340 C   0  0  2  0  0  0  0  0  0  0  0  0
   45.4330   36.0420   43.1250 C   0  0  0  0  0  0  0  0  0  0  0  0
   46.4100   35.0650   42.8800 C   0  0  0  0  0  0  0  0  0  0  0  0
   46.5830   34.0060   43.8150 C   0  0  0  0  0  0  0  0  0  0  0  0
   45.7730   34.0060   44.9100 N   0  0  0  0  0  0  0  0  0  0  0  0
   44.8370   34.9620   45.1210 C   0  0  0  0  0  0  0  0  0  0  0  0
   44.6600   35.9830   44.2320 N   0  0  0  0  0  0  0  0  0  0  0  0
   48.3840   33.6650   39.9040 C   0  0  0  0  0  0  0  0  0  0  0  0
   48.9890   32.4400   39.6610 C   0  0  0  0  0  0  0  0  0  0  0  0
   49.0160   32.3380   37.8090 S   0  0  0  0  0  0  0  0  0  0  0  0
   48.1710   34.0360   37.7040 C   0  0  0  0  0  0  0  0  0  0  0  0
   48.0460   34.3150   38.8010 N   0  0  0  0  0  0  0  0  0  0  0  0
   46.3559   35.5716   41.0956 H   0  0  0  0  0  0  0  0  0  0  0  0
   49.1044   36.1715   40.9462 H   0  0  0  0  0  0  0  0  0  0  0  0
   49.3263   35.9509   42.4633 H   0  0  0  0  0  0  0  0  0  0  0  0
   48.3510   33.0873   41.7107 H   0  0  0  0  0  0  0  0  0  0  0  0
   45.2948   36.8649   42.4082 H   0  0  0  0  0  0  0  0  0  0  0  0
   47.3383   33.2214   43.6600 H   0  0  0  0  0  0  0  0  0  0  0  0
   44.2093   34.9151   46.0231 H   0  0  0  0  0  0  0  0  0  0  0  0
   49.3625   31.7064   40.3906 H   0  0  0  0  0  0  0  0  0  0  0  0
   47.8769   34.6055   36.8100 H   0  0  0  0  0  0  0  0  0  0  0  0
  1  2  1  0
  1  5  1  0
  3  1  1  0
  3  2  1  0
  4  9  2  0
  5  4  1  0
  5  6  2  0
  6  7  1  0
  7  8  2  0
  9  8  1  0
 10  3  1  0
 11 10  2  0
 12 11  1  0
 13 12  1  0
 13 14  2  0
 14 10  1  0
  1 15  1  6
  2 16  1  0
  2 17  1  0
  3 18  1  1
  4 19  1  0
  6 20  1  0
  8 21  1  0
 11 22  1  0
 13 23  1  0
M  ISO  8  15  13  16  13  17  13  18  13  19  14  20  14  21  14  22  14
M  ISO  1  23  14
M  END
>  <minimizedAffinity>  (1) 
-4.52540255

>  <minimizedRMSD>  (1) 
1.11984527

$$$$
