
     RDKit          3D

 24 25  0  0  1  0  0  0  0  0999 V2000
   47.5610   35.1300   41.4510 C   0  0  1  0  0  0  0  0  0  0  0  0
   48.9140   35.7390   41.5340 C   0  0  0  0  0  0  0  0  0  0  0  0
   48.6820   34.3100   41.0470 C   0  0  1  0  0  0  0  0  0  0  0  0
   45.6180   35.5050   43.0190 C   0  0  0  0  0  0  0  0  0  0  0  0
   46.8060   34.8320   42.7000 C   0  0  0  0  0  0  0  0  0  0  0  0
   47.2870   33.8340   43.5870 C   0  0  0  0  0  0  0  0  0  0  0  0
   46.5700   33.5910   44.6940 N   0  0  0  0  0  0  0  0  0  0  0  0
   45.4250   34.2550   44.9820 C   0  0  0  0  0  0  0  0  0  0  0  0
   44.9550   35.2060   44.1460 N   0  0  0  0  0  0  0  0  0  0  0  0
   49.3880   33.3290   41.8060 N   0  0  0  0  0  0  0  0  0  0  0  0
   50.3880   32.4190   41.3750 C   0  0  0  0  0  0  0  0  0  0  0  0
   50.1220   31.7130   40.3420 N   0  0  0  0  0  0  0  0  0  0  0  0
   51.6060   32.3250   42.1050 N   0  0  0  0  0  0  0  0  0  0  0  0
   49.2530   31.7370   39.7890 H   0  0  0  0  0  0  0  0  0  0  0  0
   46.6192   35.4154   40.9595 H   0  0  0  0  0  0  0  0  0  0  0  0
   49.2149   36.5265   40.8274 H   0  0  0  0  0  0  0  0  0  0  0  0
   49.5196   36.2222   42.3148 H   0  0  0  0  0  0  0  0  0  0  0  0
   48.7830   33.6692   40.1587 H   0  0  0  0  0  0  0  0  0  0  0  0
   45.2286   36.2805   42.3430 H   0  0  0  0  0  0  0  0  0  0  0  0
   48.2134   33.2804   43.3744 H   0  0  0  0  0  0  0  0  0  0  0  0
   44.8737   34.0178   45.9039 H   0  0  0  0  0  0  0  0  0  0  0  0
   49.1373   33.2739   42.8035 H   0  0  0  0  0  0  0  0  0  0  0  0
   52.3389   31.6680   41.8015 H   0  0  0  0  0  0  0  0  0  0  0  0
   51.7546   32.9139   42.9369 H   0  0  0  0  0  0  0  0  0  0  0  0
  1  2  1  0
  1  5  1  0
  3  1  1  0
  3  2  1  0
  3 10  1  0
  4  9  2  0
  5  4  1  0
  5  6  2  0
  6  7  1  0
  7  8  2  0
  9  8  1  0
 11 10  1  0
 11 13  1  0
 12 11  2  0
 14 12  1  0
  1 15  1  6
  2 16  1  0
  2 17  1  0
  3 18  1  6
  4 19  1  0
  6 20  1  0
  8 21  1  0
 10 22  1  0
 13 23  1  0
 13 24  1  0
M  ISO  7  15  13  16  13  17  13  18  13  19  14  20  14  21  14
M  END
>  <minimizedAffinity>  (1) 
-4.37099171

>  <minimizedRMSD>  (1) 
1.24379802

$$$$
