
     RDKit          3D

 29 30  0  0  1  0  0  0  0  0999 V2000
   46.7930   34.8860   41.7890 C   0  0  1  0  0  0  0  0  0  0  0  0
   48.2250   35.2980   41.7300 C   0  0  0  0  0  0  0  0  0  0  0  0
   47.7810   33.8440   41.5990 C   0  0  2  0  0  0  0  0  0  0  0  0
   45.1940   36.0100   43.3510 C   0  0  0  0  0  0  0  0  0  0  0  0
   46.0810   34.9530   43.1160 C   0  0  0  0  0  0  0  0  0  0  0  0
   46.2720   33.9630   44.1220 C   0  0  0  0  0  0  0  0  0  0  0  0
   45.5740   34.1040   45.2630 N   0  0  0  0  0  0  0  0  0  0  0  0
   44.7180   35.1330   45.4740 C   0  0  0  0  0  0  0  0  0  0  0  0
   44.5230   36.0900   44.5210 N   0  0  0  0  0  0  0  0  0  0  0  0
   48.1190   33.2310   40.2680 C   0  0  0  0  0  0  0  0  0  0  0  0
   49.4030   32.4290   40.3180 C   0  0  0  0  0  0  0  0  0  0  0  0
   47.0290   32.2280   39.9420 C   0  0  0  0  0  0  0  0  0  0  0  0
   48.1180   34.2330   39.1300 C   0  0  0  0  0  0  0  0  0  0  0  0
   45.8900   35.1937   41.2414 H   0  0  0  0  0  0  0  0  0  0  0  0
   48.6124   35.8431   40.8566 H   0  0  0  0  0  0  0  0  0  0  0  0
   48.9153   35.8613   42.3752 H   0  0  0  0  0  0  0  0  0  0  0  0
   47.9081   32.8779   42.1093 H   0  0  0  0  0  0  0  0  0  0  0  0
   45.0425   36.7792   42.5794 H   0  0  0  0  0  0  0  0  0  0  0  0
   46.9612   33.1189   43.9721 H   0  0  0  0  0  0  0  0  0  0  0  0
   44.1726   35.1978   46.4270 H   0  0  0  0  0  0  0  0  0  0  0  0
   49.6848   32.2530   41.3666 H   0  0  0  0  0  0  0  0  0  0  0  0
   49.2525   31.4640   39.8118 H   0  0  0  0  0  0  0  0  0  0  0  0
   50.2041   32.9875   39.8118 H   0  0  0  0  0  0  0  0  0  0  0  0
   46.6015   31.8346   40.8760 H   0  0  0  0  0  0  0  0  0  0  0  0
   46.2393   32.7219   39.3568 H   0  0  0  0  0  0  0  0  0  0  0  0
   47.4557   31.4001   39.3568 H   0  0  0  0  0  0  0  0  0  0  0  0
   48.1170   35.2537   39.5402 H   0  0  0  0  0  0  0  0  0  0  0  0
   49.0163   34.0870   38.5121 H   0  0  0  0  0  0  0  0  0  0  0  0
   47.2200   34.0852   38.5121 H   0  0  0  0  0  0  0  0  0  0  0  0
  1  5  1  0
  2  1  1  0
  3  2  1  0
  3  1  1  0
  4  9  2  0
  5  4  1  0
  5  6  2  0
  6  7  1  0
  7  8  2  0
  9  8  1  0
 10 11  1  0
 10  3  1  0
 12 10  1  0
 13 10  1  0
  1 14  1  6
  2 15  1  0
  2 16  1  0
  3 17  1  1
  4 18  1  0
  6 19  1  0
  8 20  1  0
 11 21  1  0
 11 22  1  0
 11 23  1  0
 12 24  1  0
 12 25  1  0
 12 26  1  0
 13 27  1  0
 13 28  1  0
 13 29  1  0
M  ISO  8  14  13  15  13  16  13  17  13  18  14  19  14  20  14  21   8
M  ISO  8  22   8  23   8  24   8  25   8  26   8  27   8  28   8  29   8
M  END
>  <minimizedAffinity>  (1) 
-4.31374168

>  <minimizedRMSD>  (1) 
1.45261836

$$$$
