
     RDKit          3D

 23 24  0  0  1  0  0  0  0  0999 V2000
   47.2920   34.3950   42.1010 C   0  0  1  0  0  0  0  0  0  0  0  0
   48.2470   35.4500   41.6490 C   0  0  0  0  0  0  0  0  0  0  0  0
   48.6980   34.2120   42.4070 C   0  0  2  0  0  0  0  0  0  0  0  0
   45.5290   35.8720   43.1310 C   0  0  0  0  0  0  0  0  0  0  0  0
   46.3550   34.7240   43.2210 C   0  0  0  0  0  0  0  0  0  0  0  0
   46.2500   33.9020   44.3830 C   0  0  0  0  0  0  0  0  0  0  0  0
   45.3590   34.2750   45.3350 N   0  0  0  0  0  0  0  0  0  0  0  0
   44.5930   35.3770   45.2050 C   0  0  0  0  0  0  0  0  0  0  0  0
   44.6780   36.1730   44.1070 N   0  0  0  0  0  0  0  0  0  0  0  0
   49.5750   33.2650   41.6150 C   0  0  0  0  0  0  0  0  0  0  0  0
   50.9040   33.1400   42.3110 C   0  0  0  0  0  0  0  0  0  0  0  0
   46.5345   33.7783   41.5951 H   0  0  0  0  0  0  0  0  0  0  0  0
   48.4838   35.5659   40.5811 H   0  0  0  0  0  0  0  0  0  0  0  0
   48.3451   36.5379   41.7792 H   0  0  0  0  0  0  0  0  0  0  0  0
   49.2206   33.9722   43.3448 H   0  0  0  0  0  0  0  0  0  0  0  0
   45.5926   36.5205   42.2448 H   0  0  0  0  0  0  0  0  0  0  0  0
   46.8683   33.0001   44.5019 H   0  0  0  0  0  0  0  0  0  0  0  0
   43.8841   35.6372   46.0049 H   0  0  0  0  0  0  0  0  0  0  0  0
   49.7249   33.6612   40.5998 H   0  0  0  0  0  0  0  0  0  0  0  0
   49.0940   32.2781   41.5467 H   0  0  0  0  0  0  0  0  0  0  0  0
   50.7503   33.1545   43.4001 H   0  0  0  0  0  0  0  0  0  0  0  0
   51.3823   32.1929   42.0207 H   0  0  0  0  0  0  0  0  0  0  0  0
   51.5505   33.9813   42.0207 H   0  0  0  0  0  0  0  0  0  0  0  0
  1  3  1  0
  1  5  1  0
  2  1  1  0
  2  3  1  0
  4  5  2  0
  4  9  1  0
  5  6  1  0
  6  7  2  0
  8  7  1  0
  9  8  2  0
 10 11  1  0
 10  3  1  0
  1 12  1  6
  2 13  1  0
  2 14  1  0
  3 15  1  1
  4 16  1  0
  6 17  1  0
  8 18  1  0
 10 19  1  0
 10 20  1  0
 11 21  1  0
 11 22  1  0
 11 23  1  0
M  ISO  8  12  13  13  13  14  13  15  13  16  14  17  14  18  14  19   8
M  ISO  4  20   8  21   8  22   8  23   8
M  END
>  <minimizedAffinity>  (1) 
-4.08966255

>  <minimizedRMSD>  (1) 
1.00198603

$$$$
