
     RDKit          3D

 20 21  0  0  1  0  0  0  0  0999 V2000
   45.8200   35.6660   42.8220 C   0  0  0  0  0  0  0  0  0  0  0  0
   46.8220   34.7060   42.6370 C   0  0  0  0  0  0  0  0  0  0  0  0
   46.9760   33.7210   43.6220 C   0  0  0  0  0  0  0  0  0  0  0  0
   46.1670   33.7330   44.6980 N   0  0  0  0  0  0  0  0  0  0  0  0
   45.2040   34.6750   44.8540 C   0  0  0  0  0  0  0  0  0  0  0  0
   45.0380   35.6390   43.9090 N   0  0  0  0  0  0  0  0  0  0  0  0
   47.6960   34.6970   41.4360 C   0  0  1  0  0  0  0  0  0  0  0  0
   48.7210   35.7530   41.2460 C   0  0  0  0  0  0  0  0  0  0  0  0
   49.0770   34.2860   41.5100 C   0  0  1  0  0  0  0  0  0  0  0  0
   49.9730   34.1760   42.6900 C   0  0  0  0  0  0  0  0  0  0  0  0
   45.6733   36.4514   42.0660 H   0  0  0  0  0  0  0  0  0  0  0  0
   47.7498   32.9462   43.5170 H   0  0  0  0  0  0  0  0  0  0  0  0
   44.5577   34.6595   45.7440 H   0  0  0  0  0  0  0  0  0  0  0  0
   46.8381   34.3465   40.8435 H   0  0  0  0  0  0  0  0  0  0  0  0
   48.8868   36.1973   40.2535 H   0  0  0  0  0  0  0  0  0  0  0  0
   48.9570   36.7231   41.7077 H   0  0  0  0  0  0  0  0  0  0  0  0
   49.5293   33.3851   41.0698 H   0  0  0  0  0  0  0  0  0  0  0  0
   49.3766   34.2492   43.6114 H   0  0  0  0  0  0  0  0  0  0  0  0
   50.4935   33.2072   42.6661 H   0  0  0  0  0  0  0  0  0  0  0  0
   50.7124   34.9901   42.6661 H   0  0  0  0  0  0  0  0  0  0  0  0
  1  6  2  0
  2  1  1  0
  2  3  2  0
  3  4  1  0
  4  5  2  0
  6  5  1  0
  7  9  1  0
  7  2  1  0
  8  7  1  0
  8  9  1  0
  9 10  1  0
  1 11  1  0
  3 12  1  0
  5 13  1  0
  7 14  1  6
  8 15  1  0
  8 16  1  0
  9 17  1  6
 10 18  1  0
 10 19  1  0
 10 20  1  0
M  ISO  8  11  14  12  14  13  14  14  13  15  13  16  13  17  13  18   8
M  ISO  2  19   8  20   8
M  END
>  <minimizedAffinity>  (1) 
-3.91962171

>  <minimizedRMSD>  (1) 
0.196629182

$$$$
