
     RDKit          3D

 22 24  0  0  1  0  0  0  0  0999 V2000
   48.2460   35.2070   41.8660 C   0  0  1  0  0  0  0  0  0  0  0  0
   49.1350   34.1170   41.4110 C   0  0  0  0  0  0  0  0  0  0  0  0
   48.2160   34.8660   40.4730 C   0  0  1  0  0  0  0  0  0  0  0  0
   47.1220   33.8750   43.7300 C   0  0  0  0  0  0  0  0  0  0  0  0
   47.1240   34.9170   42.7840 C   0  0  0  0  0  0  0  0  0  0  0  0
   45.9850   35.7260   42.7540 C   0  0  0  0  0  0  0  0  0  0  0  0
   44.9600   35.4860   43.6020 N   0  0  0  0  0  0  0  0  0  0  0  0
   45.0080   34.4680   44.4950 C   0  0  0  0  0  0  0  0  0  0  0  0
   46.0910   33.6760   44.5480 N   0  0  0  0  0  0  0  0  0  0  0  0
   47.3170   33.9360   39.7650 C   0  0  0  0  0  0  0  0  0  0  0  0
   46.2340   33.2520   40.1930 N   0  0  0  0  0  0  0  0  0  0  0  0
   45.7160   32.5370   39.2480 O   0  0  0  0  0  0  0  0  0  0  0  0
   46.4240   32.7130   38.1630 C   0  0  0  0  0  0  0  0  0  0  0  0
   47.4210   33.5730   38.4490 N   0  0  0  0  0  0  0  0  0  0  0  0
   48.3909   36.1577   42.4001 H   0  0  0  0  0  0  0  0  0  0  0  0
   50.2235   34.2687   41.3638 H   0  0  0  0  0  0  0  0  0  0  0  0
   49.3037   33.0648   41.6840 H   0  0  0  0  0  0  0  0  0  0  0  0
   48.2012   35.5528   39.6138 H   0  0  0  0  0  0  0  0  0  0  0  0
   47.9945   33.2082   43.7950 H   0  0  0  0  0  0  0  0  0  0  0  0
   45.9224   36.5596   42.0391 H   0  0  0  0  0  0  0  0  0  0  0  0
   44.1617   34.2908   45.1750 H   0  0  0  0  0  0  0  0  0  0  0  0
   46.2381   32.2412   37.1869 H   0  0  0  0  0  0  0  0  0  0  0  0
  1  5  1  0
  2  1  1  0
  3  2  1  0
  3  1  1  0
  4  9  2  0
  5  4  1  0
  6  5  2  0
  6  7  1  0
  7  8  2  0
  8  9  1  0
 10 11  2  0
 10  3  1  0
 12 11  1  0
 13 14  2  0
 13 12  1  0
 14 10  1  0
  1 15  1  6
  2 16  1  0
  2 17  1  0
  3 18  1  6
  4 19  1  0
  6 20  1  0
  8 21  1  0
 13 22  1  0
M  ISO  8  15  13  16  13  17  13  18  13  19  14  20  14  21  14  22  14
M  END
>  <minimizedAffinity>  (1) 
-3.84965992

>  <minimizedRMSD>  (1) 
4.02890348

$$$$
