
     RDKit          3D

 23 25  0  0  1  0  0  0  0  0999 V2000
   47.9380   35.2100   41.3850 C   0  0  1  0  0  0  0  0  0  0  0  0
   49.3080   35.5530   41.8530 C   0  0  0  0  0  0  0  0  0  0  0  0
   49.0140   34.3880   40.8970 C   0  0  1  0  0  0  0  0  0  0  0  0
   47.3290   34.1380   43.6120 C   0  0  0  0  0  0  0  0  0  0  0  0
   46.9470   34.6930   42.3600 C   0  0  0  0  0  0  0  0  0  0  0  0
   45.5730   34.7630   42.0780 C   0  0  0  0  0  0  0  0  0  0  0  0
   44.6910   34.3070   42.9920 N   0  0  0  0  0  0  0  0  0  0  0  0
   45.1030   33.7850   44.1730 C   0  0  0  0  0  0  0  0  0  0  0  0
   46.4100   33.7030   44.4770 N   0  0  0  0  0  0  0  0  0  0  0  0
   49.5320   33.1640   41.4150 N   0  0  0  0  0  0  0  0  0  0  0  0
   50.7200   33.1090   42.0990 C   0  0  0  0  0  0  0  0  0  0  0  0
   50.9450   31.8450   42.4750 N   0  0  0  0  0  0  0  0  0  0  0  0
   49.8870   31.1250   42.0170 C   0  0  0  0  0  0  0  0  0  0  0  0
   49.0190   31.9190   41.3680 N   0  0  0  0  0  0  0  0  0  0  0  0
   47.1347   35.7635   40.8767 H   0  0  0  0  0  0  0  0  0  0  0  0
   49.8117   36.4607   41.4891 H   0  0  0  0  0  0  0  0  0  0  0  0
   49.8092   35.6787   42.8241 H   0  0  0  0  0  0  0  0  0  0  0  0
   49.1635   34.0224   39.8704 H   0  0  0  0  0  0  0  0  0  0  0  0
   48.3956   34.0661   43.8712 H   0  0  0  0  0  0  0  0  0  0  0  0
   45.2204   35.1839   41.1248 H   0  0  0  0  0  0  0  0  0  0  0  0
   44.3559   33.4226   44.8944 H   0  0  0  0  0  0  0  0  0  0  0  0
   51.3799   33.9647   42.3047 H   0  0  0  0  0  0  0  0  0  0  0  0
   49.7591   30.0416   42.1582 H   0  0  0  0  0  0  0  0  0  0  0  0
  1  2  1  0
  1  5  1  0
  3  1  1  0
  3 10  1  0
  3  2  1  0
  4  9  2  0
  5  4  1  0
  6  5  2  0
  6  7  1  0
  7  8  2  0
  8  9  1  0
 10 11  1  0
 11 12  2  0
 13 12  1  0
 14 10  1  0
 14 13  2  0
  1 15  1  6
  2 16  1  0
  2 17  1  0
  3 18  1  6
  4 19  1  0
  6 20  1  0
  8 21  1  0
 11 22  1  0
 13 23  1  0
M  ISO  8  15  13  16  13  17  13  18  13  19  14  20  14  21  14  22  14
M  ISO  1  23  14
M  END
>  <minimizedAffinity>  (1) 
-3.66574526

>  <minimizedRMSD>  (1) 
2.03691578

$$$$
