
     RDKit          3D

 32 34  0  0  1  0  0  0  0  0999 V2000
   47.2360   34.9290   41.3330 C   0  0  1  0  0  0  0  0  0  0  0  0
   48.6270   35.4480   41.3520 C   0  0  0  0  0  0  0  0  0  0  0  0
   48.1210   34.5010   40.2850 C   0  0  1  0  0  0  0  0  0  0  0  0
   47.3110   34.0160   43.6800 C   0  0  0  0  0  0  0  0  0  0  0  0
   46.7710   34.0000   42.3870 C   0  0  0  0  0  0  0  0  0  0  0  0
   45.7340   33.0640   42.1060 C   0  0  0  0  0  0  0  0  0  0  0  0
   45.3430   32.2580   43.1070 N   0  0  0  0  0  0  0  0  0  0  0  0
   45.8800   32.2940   44.3400 C   0  0  0  0  0  0  0  0  0  0  0  0
   46.8730   33.1840   44.6230 N   0  0  0  0  0  0  0  0  0  0  0  0
   48.8970   33.3340   40.1290 N   0  0  0  0  0  0  0  0  0  0  0  0
   49.4600   32.8350   41.3810 C   0  0  0  0  0  0  0  0  0  0  0  0
   50.5710   31.8500   41.1410 C   0  0  0  0  0  0  0  0  0  0  0  0
   50.3390   31.2010   39.7950 C   0  0  0  0  0  0  0  0  0  0  0  0
   48.8480   30.9240   39.7020 C   0  0  0  0  0  0  0  0  0  0  0  0
   48.0830   32.2580   39.5960 C   0  0  0  0  0  0  0  0  0  0  0  0
   46.2386   35.3929   41.3365 H   0  0  0  0  0  0  0  0  0  0  0  0
   48.8323   36.5014   41.1106 H   0  0  0  0  0  0  0  0  0  0  0  0
   49.4592   35.4615   42.0712 H   0  0  0  0  0  0  0  0  0  0  0  0
   47.9027   34.4231   39.2097 H   0  0  0  0  0  0  0  0  0  0  0  0
   48.1125   34.7299   43.9208 H   0  0  0  0  0  0  0  0  0  0  0  0
   45.2722   33.0039   41.1094 H   0  0  0  0  0  0  0  0  0  0  0  0
   45.5183   31.6063   45.1186 H   0  0  0  0  0  0  0  0  0  0  0  0
   49.8557   33.6845   41.9569 H   0  0  0  0  0  0  0  0  0  0  0  0
   48.6605   32.3202   41.9340 H   0  0  0  0  0  0  0  0  0  0  0  0
   51.5392   32.3722   41.1415 H   0  0  0  0  0  0  0  0  0  0  0  0
   50.5840   31.0885   41.9347 H   0  0  0  0  0  0  0  0  0  0  0  0
   50.6508   31.8793   38.9871 H   0  0  0  0  0  0  0  0  0  0  0  0
   50.9232   30.2745   39.6937 H   0  0  0  0  0  0  0  0  0  0  0  0
   48.6436   30.3123   38.8109 H   0  0  0  0  0  0  0  0  0  0  0  0
   48.5188   30.3831   40.6015 H   0  0  0  0  0  0  0  0  0  0  0  0
   47.8514   32.4635   38.5405 H   0  0  0  0  0  0  0  0  0  0  0  0
   47.1491   32.1884   40.1731 H   0  0  0  0  0  0  0  0  0  0  0  0
  1  2  1  0
  1  5  1  0
  3  1  1  0
  3  2  1  0
  4  9  2  0
  5  4  1  0
  6  5  2  0
  6  7  1  0
  7  8  2  0
  8  9  1  0
 10  3  1  0
 10 11  1  0
 12 11  1  0
 13 12  1  0
 14 13  1  0
 15 14  1  0
 15 10  1  0
  1 16  1  6
  2 17  1  0
  2 18  1  0
  3 19  1  6
  4 20  1  0
  6 21  1  0
  8 22  1  0
 11 23  1  0
 11 24  1  0
 12 25  1  0
 12 26  1  0
 13 27  1  0
 13 28  1  0
 14 29  1  0
 14 30  1  0
 15 31  1  0
 15 32  1  0
M  ISO  8  16  13  17  13  18  13  19  13  20  14  21  14  22  14  23  13
M  ISO  8  24  13  25  13  26  13  27  13  28  13  29  13  30  13  31  13
M  ISO  1  32  13
M  END
>  <minimizedAffinity>  (1) 
-3.54024792

>  <minimizedRMSD>  (1) 
3.02673435

$$$$
