
     RDKit          3D

 44 49  0  0  1  0  0  0  0  0999 V2000
   45.9050   33.9610   43.9720 N   0  0  0  0  0  0  0  0  0  0  0  0
   45.1050   34.8730   44.5840 C   0  0  0  0  0  0  0  0  0  0  0  0
   44.9370   34.5680   45.8920 N   0  0  0  0  0  0  0  0  0  0  0  0
   45.6110   33.4720   46.1540 C   0  0  0  0  0  0  0  0  0  0  0  0
   45.8010   32.7210   47.3060 C   0  0  0  0  0  0  0  0  0  0  0  0
   46.5660   31.6260   47.2750 N   0  0  0  0  0  0  0  0  0  0  0  0
   47.1600   31.2360   46.1380 C   0  0  0  0  0  0  0  0  0  0  0  0
   46.9770   31.9660   45.0100 N   0  0  0  0  0  0  0  0  0  0  0  0
   46.2070   33.0910   44.9870 C   0  0  0  0  0  0  0  0  0  0  0  0
   47.9980   30.0430   46.0920 C   0  0  0  0  0  0  0  0  0  0  0  0
   48.0940   29.1530   45.0430 C   0  0  0  0  0  0  0  0  0  0  0  0
   48.9710   28.1960   45.3990 N   0  0  0  0  0  0  0  0  0  0  0  0
   49.4430   28.4460   46.6560 C   0  0  0  0  0  0  0  0  0  0  0  0
   50.3600   27.7290   47.4220 C   0  0  0  0  0  0  0  0  0  0  0  0
   50.6520   28.2360   48.6890 C   0  0  0  0  0  0  0  0  0  0  0  0
   50.0470   29.4080   49.1530 C   0  0  0  0  0  0  0  0  0  0  0  0
   49.1330   30.0940   48.3470 C   0  0  0  0  0  0  0  0  0  0  0  0
   48.8310   29.6200   47.1070 C   0  0  0  0  0  0  0  0  0  0  0  0
   45.7570   34.0470   41.3910 C   0  0  1  0  0  0  0  0  0  0  0  0
   46.5670   35.1480   41.9490 C   0  0  0  0  0  0  0  0  0  0  0  0
   46.4090   33.7990   42.6570 C   0  0  1  0  0  0  0  0  0  0  0  0
   43.6430   35.4260   41.1760 C   0  0  0  0  0  0  0  0  0  0  0  0
   44.3020   34.1800   41.2360 C   0  0  0  0  0  0  0  0  0  0  0  0
   43.5060   33.0510   41.1370 C   0  0  0  0  0  0  0  0  0  0  0  0
   42.1630   33.1920   40.9900 N   0  0  0  0  0  0  0  0  0  0  0  0
   41.5660   34.4040   40.9350 C   0  0  0  0  0  0  0  0  0  0  0  0
   42.3190   35.5260   41.0290 N   0  0  0  0  0  0  0  0  0  0  0  0
   45.1880   33.1030   48.5370 N   0  0  0  0  0  0  0  0  0  0  0  0
   44.6543   35.7427   44.0835 H   0  0  0  0  0  0  0  0  0  0  0  0
   47.5518   29.2141   44.0879 H   0  0  0  0  0  0  0  0  0  0  0  0
   49.2450   27.3954   44.8117 H   0  0  0  0  0  0  0  0  0  0  0  0
   50.8307   26.8085   47.0464 H   0  0  0  0  0  0  0  0  0  0  0  0
   51.3692   27.7054   49.3325 H   0  0  0  0  0  0  0  0  0  0  0  0
   50.2906   29.7915   50.1548 H   0  0  0  0  0  0  0  0  0  0  0  0
   48.6585   31.0158   48.7146 H   0  0  0  0  0  0  0  0  0  0  0  0
   45.7492   33.4959   40.4390 H   0  0  0  0  0  0  0  0  0  0  0  0
   47.5253   35.4249   41.4854 H   0  0  0  0  0  0  0  0  0  0  0  0
   46.3985   36.2037   42.2079 H   0  0  0  0  0  0  0  0  0  0  0  0
   46.9529   32.8971   42.9743 H   0  0  0  0  0  0  0  0  0  0  0  0
   44.2399   36.3468   41.2529 H   0  0  0  0  0  0  0  0  0  0  0  0
   43.9575   32.0487   41.1771 H   0  0  0  0  0  0  0  0  0  0  0  0
   40.4751   34.4784   40.8146 H   0  0  0  0  0  0  0  0  0  0  0  0
   45.3374   32.5366   49.3842 H   0  0  0  0  0  0  0  0  0  0  0  0
   44.5962   33.9450   48.5781 H   0  0  0  0  0  0  0  0  0  0  0  0
  1  2  1  0
  1  9  1  0
  2  3  2  0
  3  4  1  0
  4  5  2  0
  5 28  1  0
  6  5  1  0
  7  6  2  0
  8  7  1  0
  9  8  2  0
  9  4  1  0
 10  7  1  0
 10 18  1  0
 11 12  1  0
 11 10  2  0
 12 13  1  0
 13 18  2  0
 13 14  1  0
 14 15  2  0
 15 16  1  0
 17 16  2  0
 18 17  1  0
 19 20  1  0
 19 21  1  0
 20 21  1  0
 21  1  1  0
 22 23  2  0
 23 19  1  0
 24 23  1  0
 25 24  2  0
 26 25  1  0
 26 27  2  0
 27 22  1  0
  2 29  1  0
 11 30  1  0
 12 31  1  0
 14 32  1  0
 15 33  1  0
 16 34  1  0
 17 35  1  0
 19 36  1  6
 20 37  1  0
 20 38  1  0
 21 39  1  6
 22 40  1  0
 24 41  1  0
 26 42  1  0
 28 43  1  0
 28 44  1  0
M  ISO  8  29  14  30  14  31   9  32  14  33  14  34  14  35  14  36  13
M  ISO  6  37  13  38  13  39  13  40  14  41  14  42  14
M  END
>  <minimizedAffinity>  (1) 
-6.12353563

>  <minimizedRMSD>  (1) 
0.644565701

$$$$
