
     RDKit          3D

 45 49  0  0  1  0  0  0  0  0999 V2000
   45.8580   33.9430   43.9500 N   0  0  0  0  0  0  0  0  0  0  0  0
   45.1030   34.8440   44.6300 C   0  0  0  0  0  0  0  0  0  0  0  0
   45.0080   34.5100   45.9350 N   0  0  0  0  0  0  0  0  0  0  0  0
   45.6890   33.4010   46.1260 C   0  0  0  0  0  0  0  0  0  0  0  0
   45.9470   32.6220   47.2510 C   0  0  0  0  0  0  0  0  0  0  0  0
   46.7040   31.5320   47.1460 N   0  0  0  0  0  0  0  0  0  0  0  0
   47.2280   31.1660   45.9660 C   0  0  0  0  0  0  0  0  0  0  0  0
   46.9780   31.9220   44.8740 N   0  0  0  0  0  0  0  0  0  0  0  0
   46.2110   33.0510   44.9130 C   0  0  0  0  0  0  0  0  0  0  0  0
   48.0360   29.9990   45.8680 N   0  0  0  0  0  0  0  0  0  0  0  0
   48.3270   29.4280   44.5730 C   0  0  0  0  0  0  0  0  0  0  0  0
   49.8520   29.4150   44.4710 C   0  0  0  0  0  0  0  0  0  0  0  0
   50.3690   28.5700   45.5920 C   0  0  0  0  0  0  0  0  0  0  0  0
   50.0740   29.2040   46.9170 C   0  0  0  0  0  0  0  0  0  0  0  0
   48.5750   29.3680   47.0560 C   0  0  0  0  0  0  0  0  0  0  0  0
   45.5710   34.1090   41.3810 C   0  0  1  0  0  0  0  0  0  0  0  0
   46.4280   35.1840   41.9230 C   0  0  0  0  0  0  0  0  0  0  0  0
   46.2840   33.8130   42.6040 C   0  0  1  0  0  0  0  0  0  0  0  0
   43.4730   35.5290   41.2890 C   0  0  0  0  0  0  0  0  0  0  0  0
   44.1100   34.2710   41.3170 C   0  0  0  0  0  0  0  0  0  0  0  0
   43.2900   33.1560   41.2740 C   0  0  0  0  0  0  0  0  0  0  0  0
   41.9440   33.3250   41.2060 N   0  0  0  0  0  0  0  0  0  0  0  0
   41.3690   34.5470   41.1810 C   0  0  0  0  0  0  0  0  0  0  0  0
   42.1430   35.6580   41.2230 N   0  0  0  0  0  0  0  0  0  0  0  0
   45.4070   32.9800   48.5240 N   0  0  0  0  0  0  0  0  0  0  0  0
   44.6313   35.7288   44.1777 H   0  0  0  0  0  0  0  0  0  0  0  0
   47.9276   28.4054   44.5043 H   0  0  0  0  0  0  0  0  0  0  0  0
   47.8665   30.0052   43.7576 H   0  0  0  0  0  0  0  0  0  0  0  0
   50.1605   28.9880   43.5053 H   0  0  0  0  0  0  0  0  0  0  0  0
   50.2541   30.4367   44.5379 H   0  0  0  0  0  0  0  0  0  0  0  0
   49.8877   27.5818   45.5501 H   0  0  0  0  0  0  0  0  0  0  0  0
   51.4591   28.4703   45.4841 H   0  0  0  0  0  0  0  0  0  0  0  0
   50.4524   28.5624   47.7264 H   0  0  0  0  0  0  0  0  0  0  0  0
   50.5650   30.1864   46.9791 H   0  0  0  0  0  0  0  0  0  0  0  0
   48.3564   29.9948   47.9331 H   0  0  0  0  0  0  0  0  0  0  0  0
   48.1123   28.3780   47.1821 H   0  0  0  0  0  0  0  0  0  0  0  0
   45.5050   33.5862   40.4154 H   0  0  0  0  0  0  0  0  0  0  0  0
   47.3648   35.4590   41.4162 H   0  0  0  0  0  0  0  0  0  0  0  0
   46.2914   36.2348   42.2182 H   0  0  0  0  0  0  0  0  0  0  0  0
   46.8261   32.8926   42.8667 H   0  0  0  0  0  0  0  0  0  0  0  0
   44.0924   36.4374   41.3227 H   0  0  0  0  0  0  0  0  0  0  0  0
   43.7236   32.1453   41.2947 H   0  0  0  0  0  0  0  0  0  0  0  0
   40.2743   34.6398   41.1266 H   0  0  0  0  0  0  0  0  0  0  0  0
   45.6042   32.3966   49.3496 H   0  0  0  0  0  0  0  0  0  0  0  0
   44.8204   33.8216   48.6164 H   0  0  0  0  0  0  0  0  0  0  0  0
  1  2  1  0
  1  9  1  0
  2  3  2  0
  3  4  1  0
  4  5  2  0
  5 25  1  0
  6  5  1  0
  7  6  2  0
  8  9  2  0
  8  7  1  0
  9  4  1  0
 10  7  1  0
 10 15  1  0
 11 10  1  0
 12 11  1  0
 12 13  1  0
 13 14  1  0
 14 15  1  0
 16 17  1  0
 16 18  1  0
 17 18  1  0
 18  1  1  0
 19 20  2  0
 20 16  1  0
 21 20  1  0
 22 21  2  0
 23 22  1  0
 23 24  2  0
 24 19  1  0
  2 26  1  0
 11 27  1  0
 11 28  1  0
 12 29  1  0
 12 30  1  0
 13 31  1  0
 13 32  1  0
 14 33  1  0
 14 34  1  0
 15 35  1  0
 15 36  1  0
 16 37  1  6
 17 38  1  0
 17 39  1  0
 18 40  1  6
 19 41  1  0
 21 42  1  0
 23 43  1  0
 25 44  1  0
 25 45  1  0
M  ISO  8  26  14  27  13  28  13  29  13  30  13  31  13  32  13  33  13
M  ISO  8  34  13  35  13  36  13  37  13  38  13  39  13  40  13  41  14
M  ISO  2  42  14  43  14
M  END
>  <minimizedAffinity>  (1) 
-6.07392931

>  <minimizedRMSD>  (1) 
0.051182799

$$$$
