
     RDKit          3D

 46 51  0  0  1  0  0  0  0  0999 V2000
   45.9010   33.9520   43.9730 N   0  0  0  0  0  0  0  0  0  0  0  0
   45.1000   34.8850   44.5760 C   0  0  0  0  0  0  0  0  0  0  0  0
   44.9240   34.5980   45.8840 N   0  0  0  0  0  0  0  0  0  0  0  0
   45.5940   33.4910   46.1580 C   0  0  0  0  0  0  0  0  0  0  0  0
   45.7800   32.7500   47.3140 C   0  0  0  0  0  0  0  0  0  0  0  0
   46.5340   31.6620   47.2880 N   0  0  0  0  0  0  0  0  0  0  0  0
   47.1370   31.2390   46.1620 C   0  0  0  0  0  0  0  0  0  0  0  0
   46.9470   31.9720   45.0380 N   0  0  0  0  0  0  0  0  0  0  0  0
   46.1890   33.0950   44.9960 C   0  0  0  0  0  0  0  0  0  0  0  0
   47.9900   30.0850   45.9250 C   0  0  0  0  0  0  0  0  0  0  0  0
   48.0340   29.4220   44.7070 C   0  0  0  0  0  0  0  0  0  0  0  0
   48.8260   28.3350   44.4580 C   0  0  0  0  0  0  0  0  0  0  0  0
   49.6500   27.8170   45.4230 C   0  0  0  0  0  0  0  0  0  0  0  0
   49.6470   28.4350   46.6520 C   0  0  0  0  0  0  0  0  0  0  0  0
   50.4750   27.9050   47.6090 C   0  0  0  0  0  0  0  0  0  0  0  0
   50.5300   28.4640   48.8660 C   0  0  0  0  0  0  0  0  0  0  0  0
   49.7190   29.5750   49.1170 C   0  0  0  0  0  0  0  0  0  0  0  0
   48.9120   30.0540   48.1080 C   0  0  0  0  0  0  0  0  0  0  0  0
   48.8340   29.5250   46.8560 C   0  0  0  0  0  0  0  0  0  0  0  0
   45.7570   34.0190   41.3950 C   0  0  1  0  0  0  0  0  0  0  0  0
   46.5750   35.1200   41.9420 C   0  0  0  0  0  0  0  0  0  0  0  0
   46.4070   33.7790   42.6590 C   0  0  1  0  0  0  0  0  0  0  0  0
   43.6560   35.4150   41.1650 C   0  0  0  0  0  0  0  0  0  0  0  0
   44.3020   34.1570   41.2330 C   0  0  0  0  0  0  0  0  0  0  0  0
   43.5030   33.0330   41.1330 C   0  0  0  0  0  0  0  0  0  0  0  0
   42.1620   33.1790   40.9750 N   0  0  0  0  0  0  0  0  0  0  0  0
   41.5790   34.4050   40.9130 C   0  0  0  0  0  0  0  0  0  0  0  0
   42.3340   35.5250   41.0100 N   0  0  0  0  0  0  0  0  0  0  0  0
   45.1720   33.1320   48.5430 N   0  0  0  0  0  0  0  0  0  0  0  0
   44.6588   35.7525   44.0634 H   0  0  0  0  0  0  0  0  0  0  0  0
   47.3937   29.7927   43.8930 H   0  0  0  0  0  0  0  0  0  0  0  0
   48.8011   27.8669   43.4629 H   0  0  0  0  0  0  0  0  0  0  0  0
   50.2874   26.9431   45.2230 H   0  0  0  0  0  0  0  0  0  0  0  0
   51.0975   27.0298   47.3710 H   0  0  0  0  0  0  0  0  0  0  0  0
   51.1883   28.0514   49.6448 H   0  0  0  0  0  0  0  0  0  0  0  0
   49.7251   30.0592   50.1047 H   0  0  0  0  0  0  0  0  0  0  0  0
   48.2839   30.9291   48.3308 H   0  0  0  0  0  0  0  0  0  0  0  0
   45.7442   33.4588   40.4484 H   0  0  0  0  0  0  0  0  0  0  0  0
   47.5349   35.3862   41.4754 H   0  0  0  0  0  0  0  0  0  0  0  0
   46.4147   36.1791   42.1921 H   0  0  0  0  0  0  0  0  0  0  0  0
   46.9471   32.8773   42.9835 H   0  0  0  0  0  0  0  0  0  0  0  0
   44.2616   36.3300   41.2422 H   0  0  0  0  0  0  0  0  0  0  0  0
   43.9497   32.0289   41.1810 H   0  0  0  0  0  0  0  0  0  0  0  0
   40.4898   34.4879   40.7835 H   0  0  0  0  0  0  0  0  0  0  0  0
   45.3238   32.5664   49.3903 H   0  0  0  0  0  0  0  0  0  0  0  0
   44.5802   33.9740   48.5850 H   0  0  0  0  0  0  0  0  0  0  0  0
  1  2  1  0
  1  9  1  0
  2  3  2  0
  3  4  1  0
  4  5  2  0
  5 29  1  0
  6  5  1  0
  7  6  2  0
  8  7  1  0
  9  8  2  0
  9  4  1  0
 10  7  1  0
 10 19  1  0
 11 10  2  0
 12 11  1  0
 12 13  2  0
 13 14  1  0
 14 19  2  0
 14 15  1  0
 15 16  2  0
 16 17  1  0
 18 17  2  0
 19 18  1  0
 20 21  1  0
 20 22  1  0
 21 22  1  0
 22  1  1  0
 23 24  2  0
 24 20  1  0
 25 24  1  0
 26 25  2  0
 27 26  1  0
 27 28  2  0
 28 23  1  0
  2 30  1  0
 11 31  1  0
 12 32  1  0
 13 33  1  0
 15 34  1  0
 16 35  1  0
 17 36  1  0
 18 37  1  0
 20 38  1  6
 21 39  1  0
 21 40  1  0
 22 41  1  6
 23 42  1  0
 25 43  1  0
 27 44  1  0
 29 45  1  0
 29 46  1  0
M  ISO  8  30  14  31  14  32  14  33  14  34  14  35  14  36  14  37  14
M  ISO  7  38  13  39  13  40  13  41  13  42  14  43  14  44  14
M  END
>  <minimizedAffinity>  (1) 
-6.25834894

>  <minimizedRMSD>  (1) 
0.655068815

$$$$
