
     RDKit          3D

 43 47  0  0  1  0  0  0  0  0999 V2000
   45.8720   33.9980   43.9600 N   0  0  0  0  0  0  0  0  0  0  0  0
   45.0720   34.8960   44.5920 C   0  0  0  0  0  0  0  0  0  0  0  0
   44.9340   34.5800   45.9020 N   0  0  0  0  0  0  0  0  0  0  0  0
   45.6330   33.4870   46.1410 C   0  0  0  0  0  0  0  0  0  0  0  0
   45.8630   32.7280   47.2860 C   0  0  0  0  0  0  0  0  0  0  0  0
   46.6390   31.6550   47.2310 N   0  0  0  0  0  0  0  0  0  0  0  0
   47.2180   31.2790   46.0750 C   0  0  0  0  0  0  0  0  0  0  0  0
   46.9950   32.0160   44.9620 N   0  0  0  0  0  0  0  0  0  0  0  0
   46.2070   33.1280   44.9570 C   0  0  0  0  0  0  0  0  0  0  0  0
   48.0590   30.1340   45.9660 N   0  0  0  0  0  0  0  0  0  0  0  0
   48.2560   29.4210   47.1060 C   0  0  0  0  0  0  0  0  0  0  0  0
   49.0650   28.2920   47.0760 C   0  0  0  0  0  0  0  0  0  0  0  0
   49.3230   27.4570   48.3000 C   0  0  0  0  0  0  0  0  0  0  0  0
   49.6820   27.8680   45.9090 C   0  0  0  0  0  0  0  0  0  0  0  0
   50.4240   26.8550   45.8270 O   0  0  0  0  0  0  0  0  0  0  0  0
   49.4330   28.6340   44.8270 N   0  0  0  0  0  0  0  0  0  0  0  0
   48.6630   29.7180   44.8310 C   0  0  0  0  0  0  0  0  0  0  0  0
   48.4570   30.4100   43.7830 O   0  0  0  0  0  0  0  0  0  0  0  0
   45.6800   34.1100   41.3800 C   0  0  1  0  0  0  0  0  0  0  0  0
   46.4950   35.2070   41.9390 C   0  0  0  0  0  0  0  0  0  0  0  0
   46.3530   33.8520   42.6330 C   0  0  1  0  0  0  0  0  0  0  0  0
   43.5620   35.4940   41.2180 C   0  0  0  0  0  0  0  0  0  0  0  0
   44.2200   34.2470   41.2550 C   0  0  0  0  0  0  0  0  0  0  0  0
   43.4240   33.1180   41.1600 C   0  0  0  0  0  0  0  0  0  0  0  0
   42.0760   33.2650   41.0390 N   0  0  0  0  0  0  0  0  0  0  0  0
   41.4800   34.4720   41.0070 C   0  0  0  0  0  0  0  0  0  0  0  0
   42.2320   35.5960   41.0980 N   0  0  0  0  0  0  0  0  0  0  0  0
   45.2580   33.1050   48.5260 N   0  0  0  0  0  0  0  0  0  0  0  0
   44.6001   35.7625   44.1057 H   0  0  0  0  0  0  0  0  0  0  0  0
   47.7784   29.7355   48.0457 H   0  0  0  0  0  0  0  0  0  0  0  0
   49.1367   28.0598   49.2010 H   0  0  0  0  0  0  0  0  0  0  0  0
   48.6524   26.5851   48.2971 H   0  0  0  0  0  0  0  0  0  0  0  0
   50.3686   27.1154   48.2971 H   0  0  0  0  0  0  0  0  0  0  0  0
   49.8699   28.3601   43.9354 H   0  0  0  0  0  0  0  0  0  0  0  0
   45.6590   33.5678   40.4231 H   0  0  0  0  0  0  0  0  0  0  0  0
   47.4452   35.4926   41.4641 H   0  0  0  0  0  0  0  0  0  0  0  0
   46.3268   36.2590   42.2128 H   0  0  0  0  0  0  0  0  0  0  0  0
   46.9040   32.9480   42.9315 H   0  0  0  0  0  0  0  0  0  0  0  0
   44.1613   36.4136   41.2901 H   0  0  0  0  0  0  0  0  0  0  0  0
   43.8751   32.1150   41.1820 H   0  0  0  0  0  0  0  0  0  0  0  0
   40.3870   34.5456   40.9074 H   0  0  0  0  0  0  0  0  0  0  0  0
   45.4275   32.5443   49.3732 H   0  0  0  0  0  0  0  0  0  0  0  0
   44.6528   33.9372   48.5717 H   0  0  0  0  0  0  0  0  0  0  0  0
  1  2  1  0
  1  9  1  0
  2  3  2  0
  3  4  1  0
  4  5  2  0
  5 28  1  0
  6  5  1  0
  7  6  2  0
  8  7  1  0
  9  8  2  0
  9  4  1  0
 10  7  1  0
 10 11  1  0
 12 11  2  0
 12 13  1  0
 14 12  1  0
 15 14  2  0
 16 17  1  0
 16 14  1  0
 17 10  1  0
 18 17  2  0
 19 20  1  0
 19 21  1  0
 20 21  1  0
 21  1  1  0
 22 23  2  0
 23 19  1  0
 24 23  1  0
 25 24  2  0
 26 25  1  0
 26 27  2  0
 27 22  1  0
  2 29  1  0
 11 30  1  0
 13 31  1  0
 13 32  1  0
 13 33  1  0
 16 34  1  0
 19 35  1  6
 20 36  1  0
 20 37  1  0
 21 38  1  6
 22 39  1  0
 24 40  1  0
 26 41  1  0
 28 42  1  0
 28 43  1  0
M  ISO  8  29  14  30  14  31   8  32   8  33   8  34   9  35  13  36  13
M  ISO  5  37  13  38  13  39  14  40  14  41  14
M  END
>  <minimizedAffinity>  (1) 
-6.19269085

>  <minimizedRMSD>  (1) 
0.186078936

$$$$
