
     RDKit          3D

 46 50  0  0  1  0  0  0  0  0999 V2000
   45.5540   33.8380   43.7100 N   0  0  0  0  0  0  0  0  0  0  0  0
   45.0660   34.9240   44.3680 C   0  0  0  0  0  0  0  0  0  0  0  0
   45.0230   34.7040   45.7010 N   0  0  0  0  0  0  0  0  0  0  0  0
   45.4750   33.4920   45.9380 C   0  0  0  0  0  0  0  0  0  0  0  0
   45.6580   32.7610   47.0920 C   0  0  0  0  0  0  0  0  0  0  0  0
   46.1590   31.5140   47.0310 N   0  0  0  0  0  0  0  0  0  0  0  0
   46.4890   30.9650   45.8410 C   0  0  0  0  0  0  0  0  0  0  0  0
   46.3060   31.6870   44.7150 N   0  0  0  0  0  0  0  0  0  0  0  0
   45.8020   32.9530   44.7270 C   0  0  0  0  0  0  0  0  0  0  0  0
   45.0110   33.7940   41.1820 C   0  0  1  0  0  0  0  0  0  0  0  0
   46.0350   34.8000   41.5250 C   0  0  0  0  0  0  0  0  0  0  0  0
   45.8190   33.5330   42.3510 C   0  0  1  0  0  0  0  0  0  0  0  0
   43.0850   35.4310   41.2370 C   0  0  0  0  0  0  0  0  0  0  0  0
   43.5770   34.1080   41.2390 C   0  0  0  0  0  0  0  0  0  0  0  0
   42.6400   33.0910   41.2900 C   0  0  0  0  0  0  0  0  0  0  0  0
   41.3180   33.4030   41.3340 N   0  0  0  0  0  0  0  0  0  0  0  0
   40.8810   34.6830   41.3310 C   0  0  0  0  0  0  0  0  0  0  0  0
   41.7750   35.7000   41.2820 N   0  0  0  0  0  0  0  0  0  0  0  0
   47.0320   29.5940   45.8540 C   0  0  0  0  0  0  0  0  0  0  0  0
   46.5270   28.8150   47.0430 C   0  0  0  0  0  0  0  0  0  0  0  0
   47.4510   27.6970   47.3900 C   0  0  0  0  0  0  0  0  0  0  0  0
   48.8220   28.1180   47.8050 C   0  0  0  0  0  0  0  0  0  0  0  0
   49.0970   29.5140   47.2930 C   0  0  0  0  0  0  0  0  0  0  0  0
   48.5450   29.5730   45.8780 C   0  0  0  0  0  0  0  0  0  0  0  0
   45.3370   33.2880   48.3730 N   0  0  0  0  0  0  0  0  0  0  0  0
   44.7485   35.8573   43.8801 H   0  0  0  0  0  0  0  0  0  0  0  0
   44.7810   33.2005   40.2849 H   0  0  0  0  0  0  0  0  0  0  0  0
   46.9353   34.9126   40.9031 H   0  0  0  0  0  0  0  0  0  0  0  0
   46.0478   35.8820   41.7225 H   0  0  0  0  0  0  0  0  0  0  0  0
   46.2871   32.5848   42.6538 H   0  0  0  0  0  0  0  0  0  0  0  0
   43.8000   36.2660   41.1973 H   0  0  0  0  0  0  0  0  0  0  0  0
   42.9623   32.0393   41.2949 H   0  0  0  0  0  0  0  0  0  0  0  0
   39.8028   34.8978   41.3682 H   0  0  0  0  0  0  0  0  0  0  0  0
   46.6840   29.1257   44.9215 H   0  0  0  0  0  0  0  0  0  0  0  0
   46.4437   29.4921   47.9059 H   0  0  0  0  0  0  0  0  0  0  0  0
   45.5459   28.3882   46.7874 H   0  0  0  0  0  0  0  0  0  0  0  0
   47.0031   27.1286   48.2184 H   0  0  0  0  0  0  0  0  0  0  0  0
   47.5758   27.1047   46.4715 H   0  0  0  0  0  0  0  0  0  0  0  0
   48.8916   28.1097   48.9028 H   0  0  0  0  0  0  0  0  0  0  0  0
   49.5624   27.4210   47.3855 H   0  0  0  0  0  0  0  0  0  0  0  0
   48.5935   30.2575   47.9283 H   0  0  0  0  0  0  0  0  0  0  0  0
   50.1739   29.7378   47.3088 H   0  0  0  0  0  0  0  0  0  0  0  0
   48.8957   28.6897   45.3240 H   0  0  0  0  0  0  0  0  0  0  0  0
   48.9026   30.5045   45.4150 H   0  0  0  0  0  0  0  0  0  0  0  0
   45.4853   32.7164   49.2169 H   0  0  0  0  0  0  0  0  0  0  0  0
   44.9562   34.2413   48.4570 H   0  0  0  0  0  0  0  0  0  0  0  0
  1  2  1  0
  1  9  1  0
  2  3  2  0
  3  4  1  0
  4  5  2  0
  5 25  1  0
  6  5  1  0
  7 19  1  0
  7  6  2  0
  8  9  2  0
  8  7  1  0
  9  4  1  0
 10 14  1  0
 10 11  1  0
 10 12  1  0
 11 12  1  0
 12  1  1  0
 13 14  2  0
 13 18  1  0
 14 15  1  0
 15 16  2  0
 17 16  1  0
 18 17  2  0
 19 24  1  0
 19 20  1  0
 20 21  1  0
 21 22  1  0
 23 22  1  0
 24 23  1  0
  2 26  1  0
 10 27  1  6
 11 28  1  0
 11 29  1  0
 12 30  1  1
 13 31  1  0
 15 32  1  0
 17 33  1  0
 19 34  1  0
 20 35  1  0
 20 36  1  0
 21 37  1  0
 21 38  1  0
 22 39  1  0
 22 40  1  0
 23 41  1  0
 23 42  1  0
 24 43  1  0
 24 44  1  0
 25 45  1  0
 25 46  1  0
M  ISO  8  26  14  27  13  28  13  29  13  30  13  31  14  32  14  33  14
M  ISO  8  34  13  35  13  36  13  37  13  38  13  39  13  40  13  41  13
M  ISO  3  42  13  43  13  44  13
M  END
>  <minimizedAffinity>  (1) 
-5.83473063

>  <minimizedRMSD>  (1) 
0.682720125

$$$$
