
     RDKit          3D

 43 47  0  0  1  0  0  0  0  0999 V2000
   45.8460   33.9880   43.9590 N   0  0  0  0  0  0  0  0  0  0  0  0
   45.0490   34.8660   44.6270 C   0  0  0  0  0  0  0  0  0  0  0  0
   44.9490   34.5300   45.9320 N   0  0  0  0  0  0  0  0  0  0  0  0
   45.6680   33.4450   46.1340 C   0  0  0  0  0  0  0  0  0  0  0  0
   45.9350   32.6870   47.2650 C   0  0  0  0  0  0  0  0  0  0  0  0
   46.7400   31.6160   47.1700 N   0  0  0  0  0  0  0  0  0  0  0  0
   47.2950   31.2650   45.9930 C   0  0  0  0  0  0  0  0  0  0  0  0
   47.0240   32.0150   44.8970 N   0  0  0  0  0  0  0  0  0  0  0  0
   46.2150   33.1110   44.9300 C   0  0  0  0  0  0  0  0  0  0  0  0
   48.1450   30.1250   45.9230 N   0  0  0  0  0  0  0  0  0  0  0  0
   48.6530   29.5700   47.1520 C   0  0  0  0  0  0  0  0  0  0  0  0
   49.8990   28.7520   46.9290 C   0  0  0  0  0  0  0  0  0  0  0  0
   49.6680   27.8860   45.8630 O   0  0  0  0  0  0  0  0  0  0  0  0
   49.6920   28.6600   44.7090 C   0  0  0  0  0  0  0  0  0  0  0  0
   48.4820   29.5460   44.6420 C   0  0  0  0  0  0  0  0  0  0  0  0
   45.6030   34.1630   41.3840 C   0  0  1  0  0  0  0  0  0  0  0  0
   46.4290   35.2500   41.9490 C   0  0  0  0  0  0  0  0  0  0  0  0
   46.2970   33.8740   42.6190 C   0  0  1  0  0  0  0  0  0  0  0  0
   43.4800   35.5440   41.2960 C   0  0  0  0  0  0  0  0  0  0  0  0
   44.1410   34.2970   41.2970 C   0  0  0  0  0  0  0  0  0  0  0  0
   43.3410   33.1710   41.2030 C   0  0  0  0  0  0  0  0  0  0  0  0
   41.9930   33.3130   41.1160 N   0  0  0  0  0  0  0  0  0  0  0  0
   41.3960   34.5260   41.1180 C   0  0  0  0  0  0  0  0  0  0  0  0
   42.1480   35.6490   41.2090 N   0  0  0  0  0  0  0  0  0  0  0  0
   45.3800   33.0150   48.5260 N   0  0  0  0  0  0  0  0  0  0  0  0
   44.5528   35.7329   44.1663 H   0  0  0  0  0  0  0  0  0  0  0  0
   48.8873   30.3929   47.8433 H   0  0  0  0  0  0  0  0  0  0  0  0
   47.8813   28.9069   47.5702 H   0  0  0  0  0  0  0  0  0  0  0  0
   50.7430   29.4166   46.6923 H   0  0  0  0  0  0  0  0  0  0  0  0
   50.1445   28.1800   47.8359 H   0  0  0  0  0  0  0  0  0  0  0  0
   50.5976   29.2844   44.7112 H   0  0  0  0  0  0  0  0  0  0  0  0
   49.6920   27.9929   43.8344 H   0  0  0  0  0  0  0  0  0  0  0  0
   48.6803   30.3597   43.9289 H   0  0  0  0  0  0  0  0  0  0  0  0
   47.6318   28.9251   44.3232 H   0  0  0  0  0  0  0  0  0  0  0  0
   45.5659   33.6463   40.4136 H   0  0  0  0  0  0  0  0  0  0  0  0
   47.3704   35.5450   41.4625 H   0  0  0  0  0  0  0  0  0  0  0  0
   46.2671   36.2964   42.2472 H   0  0  0  0  0  0  0  0  0  0  0  0
   46.8495   32.9614   42.8872 H   0  0  0  0  0  0  0  0  0  0  0  0
   44.0807   36.4626   41.3693 H   0  0  0  0  0  0  0  0  0  0  0  0
   43.7938   32.1685   41.1988 H   0  0  0  0  0  0  0  0  0  0  0  0
   40.3009   34.6009   41.0458 H   0  0  0  0  0  0  0  0  0  0  0  0
   45.5947   32.4351   49.3497 H   0  0  0  0  0  0  0  0  0  0  0  0
   44.7617   33.8334   48.6194 H   0  0  0  0  0  0  0  0  0  0  0  0
  1  2  1  0
  1  9  1  0
  2  3  2  0
  3  4  1  0
  4  5  2  0
  5 25  1  0
  6  5  1  0
  7  6  2  0
  8  9  2  0
  8  7  1  0
  9  4  1  0
 10  7  1  0
 10 11  1  0
 12 11  1  0
 13 12  1  0
 14 13  1  0
 15 14  1  0
 15 10  1  0
 16 17  1  0
 16 18  1  0
 17 18  1  0
 18  1  1  0
 19 20  2  0
 20 16  1  0
 21 20  1  0
 22 23  1  0
 22 21  2  0
 23 24  2  0
 24 19  1  0
  2 26  1  0
 11 27  1  0
 11 28  1  0
 12 29  1  0
 12 30  1  0
 14 31  1  0
 14 32  1  0
 15 33  1  0
 15 34  1  0
 16 35  1  6
 17 36  1  0
 17 37  1  0
 18 38  1  6
 19 39  1  0
 21 40  1  0
 23 41  1  0
 25 42  1  0
 25 43  1  0
M  ISO  8  26  14  27  13  28  13  29  13  30  13  31  13  32  13  33  13
M  ISO  8  34  13  35  13  36  13  37  13  38  13  39  14  40  14  41  14
M  END
>  <minimizedAffinity>  (1) 
-5.93710423

>  <minimizedRMSD>  (1) 
0.0862174481

$$$$
