
     RDKit          3D

 36 40  0  0  1  0  0  0  0  0999 V2000
   45.8780   33.9890   43.9530 N   0  0  0  0  0  0  0  0  0  0  0  0
   45.0780   34.8780   44.6000 C   0  0  0  0  0  0  0  0  0  0  0  0
   44.9490   34.5570   45.9050 N   0  0  0  0  0  0  0  0  0  0  0  0
   45.6500   33.4710   46.1360 C   0  0  0  0  0  0  0  0  0  0  0  0
   45.8820   32.7150   47.2650 C   0  0  0  0  0  0  0  0  0  0  0  0
   46.6650   31.6320   47.2080 N   0  0  0  0  0  0  0  0  0  0  0  0
   47.2450   31.2570   46.0390 C   0  0  0  0  0  0  0  0  0  0  0  0
   47.0130   32.0030   44.9370 N   0  0  0  0  0  0  0  0  0  0  0  0
   46.2220   33.1130   44.9500 C   0  0  0  0  0  0  0  0  0  0  0  0
   48.0800   30.1070   45.9640 N   0  0  0  0  0  0  0  0  0  0  0  0
   48.3210   29.2440   44.9600 C   0  0  0  0  0  0  0  0  0  0  0  0
   49.1930   28.2920   45.3390 N   0  0  0  0  0  0  0  0  0  0  0  0
   49.4990   28.5770   46.6190 C   0  0  0  0  0  0  0  0  0  0  0  0
   48.8190   29.6900   47.0060 N   0  0  0  0  0  0  0  0  0  0  0  0
   45.6640   34.1330   41.3800 C   0  0  1  0  0  0  0  0  0  0  0  0
   46.4920   35.2180   41.9430 C   0  0  0  0  0  0  0  0  0  0  0  0
   46.3490   33.8560   42.6220 C   0  0  1  0  0  0  0  0  0  0  0  0
   43.5520   35.5060   41.2370 C   0  0  0  0  0  0  0  0  0  0  0  0
   44.2050   34.2550   41.2660 C   0  0  0  0  0  0  0  0  0  0  0  0
   43.4130   33.1250   41.1730 C   0  0  0  0  0  0  0  0  0  0  0  0
   42.0650   33.2620   41.0590 N   0  0  0  0  0  0  0  0  0  0  0  0
   41.4670   34.4760   41.0330 C   0  0  0  0  0  0  0  0  0  0  0  0
   42.2190   35.5990   41.1230 N   0  0  0  0  0  0  0  0  0  0  0  0
   45.3200   33.0560   48.5250 N   0  0  0  0  0  0  0  0  0  0  0  0
   44.5986   35.7453   44.1226 H   0  0  0  0  0  0  0  0  0  0  0  0
   47.8651   29.3084   43.9610 H   0  0  0  0  0  0  0  0  0  0  0  0
   50.1899   28.0007   47.2519 H   0  0  0  0  0  0  0  0  0  0  0  0
   45.6296   33.6117   40.4120 H   0  0  0  0  0  0  0  0  0  0  0  0
   47.4387   35.5034   41.4611 H   0  0  0  0  0  0  0  0  0  0  0  0
   46.3335   36.2677   42.2312 H   0  0  0  0  0  0  0  0  0  0  0  0
   46.8998   32.9466   42.9042 H   0  0  0  0  0  0  0  0  0  0  0  0
   44.1504   36.4261   41.3096 H   0  0  0  0  0  0  0  0  0  0  0  0
   43.8695   32.1244   41.1911 H   0  0  0  0  0  0  0  0  0  0  0  0
   40.3735   34.5504   40.9391 H   0  0  0  0  0  0  0  0  0  0  0  0
   45.5125   32.4704   49.3502 H   0  0  0  0  0  0  0  0  0  0  0  0
   44.7202   33.8887   48.6130 H   0  0  0  0  0  0  0  0  0  0  0  0
  1  2  1  0
  1  9  1  0
  2  3  2  0
  3  4  1  0
  4  5  2  0
  5 24  1  0
  6  5  1  0
  7  6  2  0
  8  9  2  0
  8  7  1  0
  9  4  1  0
 10  7  1  0
 10 14  1  0
 11 12  2  0
 11 10  1  0
 12 13  1  0
 13 14  2  0
 15 16  1  0
 15 17  1  0
 16 17  1  0
 17  1  1  0
 18 19  2  0
 19 15  1  0
 20 19  1  0
 21 20  2  0
 22 21  1  0
 22 23  2  0
 23 18  1  0
  2 25  1  0
 11 26  1  0
 13 27  1  0
 15 28  1  6
 16 29  1  0
 16 30  1  0
 17 31  1  6
 18 32  1  0
 20 33  1  0
 22 34  1  0
 24 35  1  0
 24 36  1  0
M  ISO  8  25  14  26  14  27  14  28  13  29  13  30  13  31  13  32  14
M  ISO  2  33  14  34  14
M  END
>  <minimizedAffinity>  (1) 
-5.85796928

>  <minimizedRMSD>  (1) 
0.128439888

$$$$
