
     RDKit          3D

 40 44  0  0  1  0  0  0  0  0999 V2000
   45.8510   33.9940   43.9460 N   0  0  0  0  0  0  0  0  0  0  0  0
   45.0600   34.8780   44.6090 C   0  0  0  0  0  0  0  0  0  0  0  0
   44.9510   34.5490   45.9150 N   0  0  0  0  0  0  0  0  0  0  0  0
   45.6560   33.4620   46.1290 C   0  0  0  0  0  0  0  0  0  0  0  0
   45.9020   32.7040   47.2550 C   0  0  0  0  0  0  0  0  0  0  0  0
   46.6870   31.6210   47.1800 N   0  0  0  0  0  0  0  0  0  0  0  0
   47.2500   31.2550   45.9990 C   0  0  0  0  0  0  0  0  0  0  0  0
   47.0030   32.0030   44.9020 N   0  0  0  0  0  0  0  0  0  0  0  0
   46.2120   33.1120   44.9320 C   0  0  0  0  0  0  0  0  0  0  0  0
   48.1070   30.0760   45.9120 C   0  0  0  0  0  0  0  0  0  0  0  0
   48.3880   29.3730   47.0670 C   0  0  0  0  0  0  0  0  0  0  0  0
   49.1910   28.2420   47.0880 C   0  0  0  0  0  0  0  0  0  0  0  0
   49.6980   27.8600   45.8620 C   0  0  0  0  0  0  0  0  0  0  0  0
   49.4510   28.5250   44.6790 C   0  0  0  0  0  0  0  0  0  0  0  0
   48.6340   29.6620   44.7060 C   0  0  0  0  0  0  0  0  0  0  0  0
   45.6010   34.1490   41.3760 C   0  0  1  0  0  0  0  0  0  0  0  0
   46.4360   35.2330   41.9330 C   0  0  0  0  0  0  0  0  0  0  0  0
   46.3030   33.8670   42.6090 C   0  0  1  0  0  0  0  0  0  0  0  0
   43.4870   35.5360   41.2870 C   0  0  0  0  0  0  0  0  0  0  0  0
   44.1410   34.2850   41.2830 C   0  0  0  0  0  0  0  0  0  0  0  0
   43.3410   33.1620   41.1810 C   0  0  0  0  0  0  0  0  0  0  0  0
   41.9910   33.3140   41.0900 N   0  0  0  0  0  0  0  0  0  0  0  0
   41.3990   34.5240   41.0960 C   0  0  0  0  0  0  0  0  0  0  0  0
   42.1570   35.6420   41.1950 N   0  0  0  0  0  0  0  0  0  0  0  0
   45.3480   33.0350   48.5190 N   0  0  0  0  0  0  0  0  0  0  0  0
   44.5725   35.7473   44.1436 H   0  0  0  0  0  0  0  0  0  0  0  0
   47.9549   29.7263   48.0144 H   0  0  0  0  0  0  0  0  0  0  0  0
   49.4080   27.6897   48.0142 H   0  0  0  0  0  0  0  0  0  0  0  0
   50.3404   26.9678   45.8263 H   0  0  0  0  0  0  0  0  0  0  0  0
   49.8869   28.1694   43.7337 H   0  0  0  0  0  0  0  0  0  0  0  0
   48.4160   30.2159   43.7810 H   0  0  0  0  0  0  0  0  0  0  0  0
   45.5539   33.6257   40.4096 H   0  0  0  0  0  0  0  0  0  0  0  0
   47.3761   35.5211   41.4399 H   0  0  0  0  0  0  0  0  0  0  0  0
   46.2804   36.2813   42.2276 H   0  0  0  0  0  0  0  0  0  0  0  0
   46.8576   32.9566   42.8802 H   0  0  0  0  0  0  0  0  0  0  0  0
   44.0902   36.4523   41.3683 H   0  0  0  0  0  0  0  0  0  0  0  0
   43.7898   32.1577   41.1735 H   0  0  0  0  0  0  0  0  0  0  0  0
   40.3045   34.6037   41.0208 H   0  0  0  0  0  0  0  0  0  0  0  0
   45.5516   32.4477   49.3403 H   0  0  0  0  0  0  0  0  0  0  0  0
   44.7423   33.8625   48.6151 H   0  0  0  0  0  0  0  0  0  0  0  0
  1  2  1  0
  1  9  1  0
  2  3  2  0
  3  4  1  0
  4  5  2  0
  5 25  1  0
  6  5  1  0
  7  6  2  0
  8  9  2  0
  8  7  1  0
  9  4  1  0
 10  7  1  0
 10 11  2  0
 11 12  1  0
 13 12  2  0
 14 15  2  0
 14 13  1  0
 15 10  1  0
 16 17  1  0
 16 18  1  0
 17 18  1  0
 18  1  1  0
 20 19  2  0
 20 16  1  0
 21 20  1  0
 22 23  1  0
 22 21  2  0
 23 24  2  0
 24 19  1  0
  2 26  1  0
 11 27  1  0
 12 28  1  0
 13 29  1  0
 14 30  1  0
 15 31  1  0
 16 32  1  6
 17 33  1  0
 17 34  1  0
 18 35  1  6
 19 36  1  0
 21 37  1  0
 23 38  1  0
 25 39  1  0
 25 40  1  0
M  ISO  8  26  14  27  14  28  14  29  14  30  14  31  14  32  13  33  13
M  ISO  5  34  13  35  13  36  14  37  14  38  14
M  END
>  <minimizedAffinity>  (1) 
-5.74846125

>  <minimizedRMSD>  (1) 
0.613357246

$$$$
