
     RDKit          3D

 37 41  0  0  1  0  0  0  0  0999 V2000
   45.8610   33.9810   43.9410 N   0  0  0  0  0  0  0  0  0  0  0  0
   45.0840   34.8810   44.5980 C   0  0  0  0  0  0  0  0  0  0  0  0
   44.9640   34.5590   45.9040 N   0  0  0  0  0  0  0  0  0  0  0  0
   45.6470   33.4580   46.1250 C   0  0  0  0  0  0  0  0  0  0  0  0
   45.8820   32.6830   47.2560 C   0  0  0  0  0  0  0  0  0  0  0  0
   46.6490   31.5850   47.1720 N   0  0  0  0  0  0  0  0  0  0  0  0
   47.1970   31.2190   46.0040 C   0  0  0  0  0  0  0  0  0  0  0  0
   46.9680   31.9690   44.9100 N   0  0  0  0  0  0  0  0  0  0  0  0
   46.2000   33.0960   44.9310 C   0  0  0  0  0  0  0  0  0  0  0  0
   45.6230   34.1100   41.3680 C   0  0  1  0  0  0  0  0  0  0  0  0
   46.4610   35.1940   41.9180 C   0  0  0  0  0  0  0  0  0  0  0  0
   46.3180   33.8370   42.6080 C   0  0  1  0  0  0  0  0  0  0  0  0
   43.5210   35.5200   41.2570 C   0  0  0  0  0  0  0  0  0  0  0  0
   44.1650   34.2640   41.2690 C   0  0  0  0  0  0  0  0  0  0  0  0
   43.3540   33.1440   41.1750 C   0  0  0  0  0  0  0  0  0  0  0  0
   42.0080   33.3000   41.0760 N   0  0  0  0  0  0  0  0  0  0  0  0
   41.4250   34.5210   41.0670 C   0  0  0  0  0  0  0  0  0  0  0  0
   42.1930   35.6340   41.1590 N   0  0  0  0  0  0  0  0  0  0  0  0
   48.0380   30.0380   45.8460 C   0  0  0  0  0  0  0  0  0  0  0  0
   48.7100   29.5080   46.9420 C   0  0  0  0  0  0  0  0  0  0  0  0
   49.4190   28.4060   46.4930 C   0  0  0  0  0  0  0  0  0  0  0  0
   49.1680   28.2910   45.1570 N   0  0  0  0  0  0  0  0  0  0  0  0
   48.3440   29.2650   44.7730 N   0  0  0  0  0  0  0  0  0  0  0  0
   45.3210   33.0430   48.5140 N   0  0  0  0  0  0  0  0  0  0  0  0
   44.6141   35.7574   44.1278 H   0  0  0  0  0  0  0  0  0  0  0  0
   45.5772   33.5731   40.4090 H   0  0  0  0  0  0  0  0  0  0  0  0
   47.4050   35.4718   41.4264 H   0  0  0  0  0  0  0  0  0  0  0  0
   46.3095   36.2461   42.2009 H   0  0  0  0  0  0  0  0  0  0  0  0
   46.8663   32.9265   42.8916 H   0  0  0  0  0  0  0  0  0  0  0  0
   44.1306   36.4326   41.3305 H   0  0  0  0  0  0  0  0  0  0  0  0
   43.7965   32.1370   41.1805 H   0  0  0  0  0  0  0  0  0  0  0  0
   40.3317   34.6100   40.9853 H   0  0  0  0  0  0  0  0  0  0  0  0
   48.6835   29.8919   47.9725 H   0  0  0  0  0  0  0  0  0  0  0  0
   50.0615   27.7493   47.0979 H   0  0  0  0  0  0  0  0  0  0  0  0
   49.5559   27.5631   44.5400 H   0  0  0  0  0  0  0  0  0  0  0  0
   45.5023   32.4610   49.3442 H   0  0  0  0  0  0  0  0  0  0  0  0
   44.7338   33.8855   48.5939 H   0  0  0  0  0  0  0  0  0  0  0  0
  1  2  1  0
  1  9  1  0
  2  3  2  0
  3  4  1  0
  4  5  2  0
  5 24  1  0
  6  5  1  0
  7  6  2  0
  8  9  2  0
  8  7  1  0
  9  4  1  0
 10 11  1  0
 10 12  1  0
 11 12  1  0
 12  1  1  0
 13 14  2  0
 14 10  1  0
 15 14  1  0
 16 15  2  0
 17 16  1  0
 17 18  2  0
 18 13  1  0
 19  7  1  0
 19 20  1  0
 21 20  2  0
 22 21  1  0
 23 22  1  0
 23 19  2  0
  2 25  1  0
 10 26  1  6
 11 27  1  0
 11 28  1  0
 12 29  1  6
 13 30  1  0
 15 31  1  0
 17 32  1  0
 20 33  1  0
 21 34  1  0
 22 35  1  0
 24 36  1  0
 24 37  1  0
M  ISO  8  25  14  26  13  27  13  28  13  29  13  30  14  31  14  32  14
M  ISO  3  33  14  34  14  35   9
M  END
>  <minimizedAffinity>  (1) 
-5.5720849

>  <minimizedRMSD>  (1) 
0.172561809

$$$$
