
     RDKit          3D

 33 36  0  0  1  0  0  0  0  0999 V2000
   45.8670   33.9910   43.9420 N   0  0  0  0  0  0  0  0  0  0  0  0
   45.0990   34.9040   44.5930 C   0  0  0  0  0  0  0  0  0  0  0  0
   44.9630   34.5840   45.8960 N   0  0  0  0  0  0  0  0  0  0  0  0
   45.6250   33.4750   46.1220 C   0  0  0  0  0  0  0  0  0  0  0  0
   45.8360   32.7090   47.2540 C   0  0  0  0  0  0  0  0  0  0  0  0
   46.5890   31.5970   47.1870 N   0  0  0  0  0  0  0  0  0  0  0  0
   47.1500   31.2120   46.0160 C   0  0  0  0  0  0  0  0  0  0  0  0
   46.9380   31.9650   44.9180 N   0  0  0  0  0  0  0  0  0  0  0  0
   46.1830   33.1010   44.9310 C   0  0  0  0  0  0  0  0  0  0  0  0
   45.6440   34.1000   41.3650 C   0  0  1  0  0  0  0  0  0  0  0  0
   46.4770   35.1910   41.9120 C   0  0  0  0  0  0  0  0  0  0  0  0
   46.3330   33.8440   42.6100 C   0  0  1  0  0  0  0  0  0  0  0  0
   43.5350   35.5060   41.2440 C   0  0  0  0  0  0  0  0  0  0  0  0
   44.1830   34.2530   41.2590 C   0  0  0  0  0  0  0  0  0  0  0  0
   43.3780   33.1310   41.1600 C   0  0  0  0  0  0  0  0  0  0  0  0
   42.0310   33.2880   41.0550 N   0  0  0  0  0  0  0  0  0  0  0  0
   41.4440   34.5020   41.0430 C   0  0  0  0  0  0  0  0  0  0  0  0
   42.2060   35.6180   41.1400 N   0  0  0  0  0  0  0  0  0  0  0  0
   47.9790   29.9780   45.9650 C   0  0  0  0  0  0  0  0  0  0  0  0
   47.2570   28.8230   45.9000 F   0  0  0  0  0  0  0  0  0  0  0  0
   48.7990   30.0820   44.8350 F   0  0  0  0  0  0  0  0  0  0  0  0
   48.8760   29.9580   47.0390 F   0  0  0  0  0  0  0  0  0  0  0  0
   45.2850   33.0640   48.5110 N   0  0  0  0  0  0  0  0  0  0  0  0
   44.6475   35.7881   44.1192 H   0  0  0  0  0  0  0  0  0  0  0  0
   45.6043   33.5529   40.4115 H   0  0  0  0  0  0  0  0  0  0  0  0
   47.4236   35.4668   41.4242 H   0  0  0  0  0  0  0  0  0  0  0  0
   46.3215   36.2451   42.1853 H   0  0  0  0  0  0  0  0  0  0  0  0
   46.8849   32.9395   42.9054 H   0  0  0  0  0  0  0  0  0  0  0  0
   44.1420   36.4202   41.3203 H   0  0  0  0  0  0  0  0  0  0  0  0
   43.8224   32.1248   41.1662 H   0  0  0  0  0  0  0  0  0  0  0  0
   40.3508   34.5858   40.9548 H   0  0  0  0  0  0  0  0  0  0  0  0
   45.4605   32.4725   49.3358 H   0  0  0  0  0  0  0  0  0  0  0  0
   44.7092   33.9134   48.5995 H   0  0  0  0  0  0  0  0  0  0  0  0
  1  2  1  0
  1  9  1  0
  2  3  2  0
  3  4  1  0
  4  5  2  0
  5 23  1  0
  6  5  1  0
  7  6  2  0
  8  9  2  0
  8  7  1  0
  9  4  1  0
 10 11  1  0
 10 12  1  0
 11 12  1  0
 12  1  1  0
 13 14  2  0
 14 10  1  0
 15 14  1  0
 16 15  2  0
 17 16  1  0
 17 18  2  0
 18 13  1  0
 19  7  1  0
 19 22  1  0
 20 19  1  0
 21 19  1  0
  2 24  1  0
 10 25  1  6
 11 26  1  0
 11 27  1  0
 12 28  1  6
 13 29  1  0
 15 30  1  0
 17 31  1  0
 23 32  1  0
 23 33  1  0
M  ISO  8  24  14  25  13  26  13  27  13  28  13  29  14  30  14  31  14
M  END
>  <minimizedAffinity>  (1) 
-5.61335754

>  <minimizedRMSD>  (1) 
0.315297008

$$$$
