
     RDKit          3D

 42 45  0  0  1  0  0  0  0  0999 V2000
   45.7880   33.9310   43.9250 N   0  0  0  0  0  0  0  0  0  0  0  0
   45.0880   34.8810   44.5990 C   0  0  0  0  0  0  0  0  0  0  0  0
   44.9960   34.5720   45.9120 N   0  0  0  0  0  0  0  0  0  0  0  0
   45.6250   33.4320   46.1140 C   0  0  0  0  0  0  0  0  0  0  0  0
   45.8500   32.6720   47.2480 C   0  0  0  0  0  0  0  0  0  0  0  0
   46.5530   31.5330   47.1510 N   0  0  0  0  0  0  0  0  0  0  0  0
   47.0420   31.1190   45.9700 C   0  0  0  0  0  0  0  0  0  0  0  0
   46.8170   31.8700   44.8680 N   0  0  0  0  0  0  0  0  0  0  0  0
   46.1100   33.0360   44.9010 C   0  0  0  0  0  0  0  0  0  0  0  0
   45.4600   34.0310   41.3570 C   0  0  1  0  0  0  0  0  0  0  0  0
   46.3470   35.1020   41.8570 C   0  0  0  0  0  0  0  0  0  0  0  0
   46.1870   33.7570   42.5760 C   0  0  1  0  0  0  0  0  0  0  0  0
   43.3940   35.5020   41.2880 C   0  0  0  0  0  0  0  0  0  0  0  0
   44.0030   34.2270   41.3140 C   0  0  0  0  0  0  0  0  0  0  0  0
   43.1500   33.1380   41.2900 C   0  0  0  0  0  0  0  0  0  0  0  0
   41.8090   33.3400   41.2420 N   0  0  0  0  0  0  0  0  0  0  0  0
   41.2650   34.5780   41.2170 C   0  0  0  0  0  0  0  0  0  0  0  0
   42.0670   35.6690   41.2400 N   0  0  0  0  0  0  0  0  0  0  0  0
   47.8290   29.8740   45.7790 C   0  0  0  0  0  0  0  0  0  0  0  0
   48.6320   29.9110   44.4990 C   0  0  0  0  0  0  0  0  0  0  0  0
   46.9210   28.6490   45.6690 C   0  0  0  0  0  0  0  0  0  0  0  0
   48.7760   29.6010   46.9260 C   0  0  0  0  0  0  0  0  0  0  0  0
   45.3600   33.0660   48.5220 N   0  0  0  0  0  0  0  0  0  0  0  0
   44.6544   35.7807   44.1381 H   0  0  0  0  0  0  0  0  0  0  0  0
   45.3674   33.4810   40.4089 H   0  0  0  0  0  0  0  0  0  0  0  0
   47.2811   35.3438   41.3288 H   0  0  0  0  0  0  0  0  0  0  0  0
   46.2360   36.1630   42.1254 H   0  0  0  0  0  0  0  0  0  0  0  0
   46.7150   32.8335   42.8559 H   0  0  0  0  0  0  0  0  0  0  0  0
   44.0373   36.3941   41.3080 H   0  0  0  0  0  0  0  0  0  0  0  0
   43.5559   32.1158   41.3097 H   0  0  0  0  0  0  0  0  0  0  0  0
   40.1723   34.6986   41.1780 H   0  0  0  0  0  0  0  0  0  0  0  0
   49.7041   29.9604   44.7400 H   0  0  0  0  0  0  0  0  0  0  0  0
   48.4295   29.0026   43.9127 H   0  0  0  0  0  0  0  0  0  0  0  0
   48.3468   30.7970   43.9127 H   0  0  0  0  0  0  0  0  0  0  0  0
   46.6588   28.2952   46.6770 H   0  0  0  0  0  0  0  0  0  0  0  0
   46.0039   28.9200   45.1254 H   0  0  0  0  0  0  0  0  0  0  0  0
   47.4470   27.8503   45.1254 H   0  0  0  0  0  0  0  0  0  0  0  0
   48.2498   29.7527   47.8800 H   0  0  0  0  0  0  0  0  0  0  0  0
   49.1347   28.5629   46.8662 H   0  0  0  0  0  0  0  0  0  0  0  0
   49.6323   30.2889   46.8662 H   0  0  0  0  0  0  0  0  0  0  0  0
   45.5436   32.4792   49.3484 H   0  0  0  0  0  0  0  0  0  0  0  0
   44.8212   33.9384   48.6193 H   0  0  0  0  0  0  0  0  0  0  0  0
  1  2  1  0
  1  9  1  0
  2  3  2  0
  3  4  1  0
  4  5  2  0
  5 23  1  0
  6  5  1  0
  7  6  2  0
  8  9  2  0
  8  7  1  0
  9  4  1  0
 10 11  1  0
 10 12  1  0
 11 12  1  0
 12  1  1  0
 13 14  2  0
 14 10  1  0
 15 14  1  0
 16 15  2  0
 17 18  2  0
 17 16  1  0
 18 13  1  0
 19  7  1  0
 19 22  1  0
 20 19  1  0
 21 19  1  0
  2 24  1  0
 10 25  1  6
 11 26  1  0
 11 27  1  0
 12 28  1  1
 13 29  1  0
 15 30  1  0
 17 31  1  0
 20 32  1  0
 20 33  1  0
 20 34  1  0
 21 35  1  0
 21 36  1  0
 21 37  1  0
 22 38  1  0
 22 39  1  0
 22 40  1  0
 23 41  1  0
 23 42  1  0
M  ISO  8  24  14  25  13  26  13  27  13  28  13  29  14  30  14  31  14
M  ISO  8  32   8  33   8  34   8  35   8  36   8  37   8  38   8  39   8
M  ISO  1  40   8
M  END
>  <minimizedAffinity>  (1) 
-5.60339069

>  <minimizedRMSD>  (1) 
0.221419156

$$$$
