
     RDKit          3D

 38 42  0  0  1  0  0  0  0  0999 V2000
   45.8560   33.9850   43.9530 N   0  0  0  0  0  0  0  0  0  0  0  0
   45.0770   34.8970   44.5940 C   0  0  0  0  0  0  0  0  0  0  0  0
   44.9420   34.5840   45.9000 N   0  0  0  0  0  0  0  0  0  0  0  0
   45.6170   33.4830   46.1330 C   0  0  0  0  0  0  0  0  0  0  0  0
   45.8330   32.7280   47.2740 C   0  0  0  0  0  0  0  0  0  0  0  0
   46.5990   31.6230   47.2120 N   0  0  0  0  0  0  0  0  0  0  0  0
   47.1630   31.2350   46.0500 C   0  0  0  0  0  0  0  0  0  0  0  0
   46.9460   31.9800   44.9430 N   0  0  0  0  0  0  0  0  0  0  0  0
   46.1790   33.1070   44.9490 C   0  0  0  0  0  0  0  0  0  0  0  0
   45.6520   34.1090   41.3740 C   0  0  1  0  0  0  0  0  0  0  0  0
   46.4850   35.1930   41.9290 C   0  0  0  0  0  0  0  0  0  0  0  0
   46.3250   33.8360   42.6230 C   0  0  1  0  0  0  0  0  0  0  0  0
   43.5450   35.5040   41.2360 C   0  0  0  0  0  0  0  0  0  0  0  0
   44.1920   34.2490   41.2570 C   0  0  0  0  0  0  0  0  0  0  0  0
   43.3900   33.1260   41.1570 C   0  0  0  0  0  0  0  0  0  0  0  0
   42.0440   33.2800   41.0440 N   0  0  0  0  0  0  0  0  0  0  0  0
   41.4540   34.4930   41.0250 C   0  0  0  0  0  0  0  0  0  0  0  0
   42.2140   35.6110   41.1230 N   0  0  0  0  0  0  0  0  0  0  0  0
   47.9920   30.0340   45.9910 C   0  0  0  0  0  0  0  0  0  0  0  0
   48.1140   29.2510   47.1170 C   0  0  0  0  0  0  0  0  0  0  0  0
   48.9260   28.1190   46.9750 C   0  0  0  0  0  0  0  0  0  0  0  0
   49.5520   27.8220   45.7990 N   0  0  0  0  0  0  0  0  0  0  0  0
   49.3910   28.6250   44.7480 C   0  0  0  0  0  0  0  0  0  0  0  0
   48.6110   29.7380   44.8350 N   0  0  0  0  0  0  0  0  0  0  0  0
   45.2760   33.0900   48.5250 N   0  0  0  0  0  0  0  0  0  0  0  0
   44.6181   35.7730   44.1123 H   0  0  0  0  0  0  0  0  0  0  0  0
   45.6204   33.5777   40.4114 H   0  0  0  0  0  0  0  0  0  0  0  0
   47.4371   35.4649   41.4499 H   0  0  0  0  0  0  0  0  0  0  0  0
   46.3340   36.2472   42.2045 H   0  0  0  0  0  0  0  0  0  0  0  0
   46.8614   32.9218   42.9171 H   0  0  0  0  0  0  0  0  0  0  0  0
   44.1503   36.4191   41.3146 H   0  0  0  0  0  0  0  0  0  0  0  0
   43.8361   32.1206   41.1688 H   0  0  0  0  0  0  0  0  0  0  0  0
   40.3611   34.5744   40.9304 H   0  0  0  0  0  0  0  0  0  0  0  0
   47.6087   29.4976   48.0625 H   0  0  0  0  0  0  0  0  0  0  0  0
   49.0634   27.4493   47.8367 H   0  0  0  0  0  0  0  0  0  0  0  0
   49.8938   28.3862   43.7992 H   0  0  0  0  0  0  0  0  0  0  0  0
   45.4546   32.5082   49.3560 H   0  0  0  0  0  0  0  0  0  0  0  0
   44.6924   33.9350   48.6037 H   0  0  0  0  0  0  0  0  0  0  0  0
  1  2  1  0
  1  9  1  0
  2  3  2  0
  3  4  1  0
  4  5  2  0
  5 25  1  0
  6  5  1  0
  7  6  2  0
  8  9  2  0
  8  7  1  0
  9  4  1  0
 10 11  1  0
 10 12  1  0
 11 12  1  0
 12  1  1  0
 13 14  2  0
 14 10  1  0
 15 14  1  0
 16 15  2  0
 17 16  1  0
 17 18  2  0
 18 13  1  0
 19  7  1  0
 19 20  2  0
 21 20  1  0
 22 21  2  0
 23 24  2  0
 23 22  1  0
 24 19  1  0
  2 26  1  0
 10 27  1  6
 11 28  1  0
 11 29  1  0
 12 30  1  6
 13 31  1  0
 15 32  1  0
 17 33  1  0
 20 34  1  0
 21 35  1  0
 23 36  1  0
 25 37  1  0
 25 38  1  0
M  ISO  8  26  14  27  13  28  13  29  13  30  13  31  14  32  14  33  14
M  ISO  3  34  14  35  14  36  14
M  END
>  <minimizedAffinity>  (1) 
-5.64169121

>  <minimizedRMSD>  (1) 
0.251440614

$$$$
