
     RDKit          3D

 32 35  0  0  1  0  0  0  0  0999 V2000
   45.5650   34.1360   41.3810 C   0  0  1  0  0  0  0  0  0  0  0  0
   46.4150   35.2090   41.9360 C   0  0  0  0  0  0  0  0  0  0  0  0
   46.2760   33.8360   42.6020 C   0  0  1  0  0  0  0  0  0  0  0  0
   45.8470   33.9580   43.9470 N   0  0  0  0  0  0  0  0  0  0  0  0
   45.0800   34.8500   44.6290 C   0  0  0  0  0  0  0  0  0  0  0  0
   44.9900   34.5140   45.9350 N   0  0  0  0  0  0  0  0  0  0  0  0
   45.6820   33.4180   46.1240 C   0  0  0  0  0  0  0  0  0  0  0  0
   45.9440   32.6380   47.2470 C   0  0  0  0  0  0  0  0  0  0  0  0
   46.7100   31.5530   47.1430 N   0  0  0  0  0  0  0  0  0  0  0  0
   47.2420   31.1880   45.9650 C   0  0  0  0  0  0  0  0  0  0  0  0
   46.9890   31.9440   44.8720 N   0  0  0  0  0  0  0  0  0  0  0  0
   46.2130   33.0630   44.9200 C   0  0  0  0  0  0  0  0  0  0  0  0
   48.0650   30.0310   45.8280 N   0  0  0  0  0  0  0  0  0  0  0  0
   45.4040   32.9830   48.5220 N   0  0  0  0  0  0  0  0  0  0  0  0
   43.4570   35.5400   41.2960 C   0  0  0  0  0  0  0  0  0  0  0  0
   44.1050   34.2880   41.3140 C   0  0  0  0  0  0  0  0  0  0  0  0
   43.2870   33.1720   41.2580 C   0  0  0  0  0  0  0  0  0  0  0  0
   41.9400   33.3290   41.1890 N   0  0  0  0  0  0  0  0  0  0  0  0
   41.3580   34.5500   41.1730 C   0  0  0  0  0  0  0  0  0  0  0  0
   42.1260   35.6630   41.2280 N   0  0  0  0  0  0  0  0  0  0  0  0
   45.5038   33.6222   40.4103 H   0  0  0  0  0  0  0  0  0  0  0  0
   47.3521   35.4929   41.4349 H   0  0  0  0  0  0  0  0  0  0  0  0
   46.2724   36.2563   42.2405 H   0  0  0  0  0  0  0  0  0  0  0  0
   46.8209   32.9154   42.8579 H   0  0  0  0  0  0  0  0  0  0  0  0
   44.5967   35.7289   44.1774 H   0  0  0  0  0  0  0  0  0  0  0  0
   48.4554   29.7827   44.9078 H   0  0  0  0  0  0  0  0  0  0  0  0
   48.2689   29.4438   46.6493 H   0  0  0  0  0  0  0  0  0  0  0  0
   45.6071   32.3956   49.3434 H   0  0  0  0  0  0  0  0  0  0  0  0
   44.8111   33.8194   48.6210 H   0  0  0  0  0  0  0  0  0  0  0  0
   44.0699   36.4524   41.3396 H   0  0  0  0  0  0  0  0  0  0  0  0
   43.7262   32.1635   41.2694 H   0  0  0  0  0  0  0  0  0  0  0  0
   40.2630   34.6381   41.1154 H   0  0  0  0  0  0  0  0  0  0  0  0
  1  2  1  0
  1  3  1  0
  2  3  1  0
  3  4  1  0
  4  5  1  0
  4 12  1  0
  5  6  2  0
  6  7  1  0
  7  8  2  0
  8 14  1  0
  9  8  1  0
 10  9  2  0
 11 12  2  0
 11 10  1  0
 12  7  1  0
 13 10  1  0
 15 16  2  0
 16  1  1  0
 17 16  1  0
 18 17  2  0
 19 18  1  0
 19 20  2  0
 20 15  1  0
  1 21  1  6
  2 22  1  0
  2 23  1  0
  3 24  1  6
  5 25  1  0
 13 26  1  0
 13 27  1  0
 14 28  1  0
 14 29  1  0
 15 30  1  0
 17 31  1  0
 19 32  1  0
M  ISO  8  21  13  22  13  23  13  24  13  25  14  30  14  31  14  32  14
M  END
>  <minimizedAffinity>  (1) 
-5.47714615

>  <minimizedRMSD>  (1) 
0.0219046026

$$$$
