
     RDKit          3D

 43 47  0  0  1  0  0  0  0  0999 V2000
   45.8700   33.9910   43.9580 N   0  0  0  0  0  0  0  0  0  0  0  0
   45.0720   34.8840   44.5990 C   0  0  0  0  0  0  0  0  0  0  0  0
   44.9400   34.5670   45.9060 N   0  0  0  0  0  0  0  0  0  0  0  0
   45.6390   33.4760   46.1410 C   0  0  0  0  0  0  0  0  0  0  0  0
   45.8740   32.7150   47.2800 C   0  0  0  0  0  0  0  0  0  0  0  0
   46.6600   31.6300   47.2140 N   0  0  0  0  0  0  0  0  0  0  0  0
   47.2280   31.2640   46.0540 C   0  0  0  0  0  0  0  0  0  0  0  0
   46.9990   32.0040   44.9510 N   0  0  0  0  0  0  0  0  0  0  0  0
   46.2110   33.1170   44.9540 C   0  0  0  0  0  0  0  0  0  0  0  0
   45.6650   34.1120   41.3820 C   0  0  1  0  0  0  0  0  0  0  0  0
   46.4870   35.2050   41.9390 C   0  0  0  0  0  0  0  0  0  0  0  0
   46.3450   33.8470   42.6310 C   0  0  1  0  0  0  0  0  0  0  0  0
   43.5490   35.4990   41.2320 C   0  0  0  0  0  0  0  0  0  0  0  0
   44.2050   34.2500   41.2640 C   0  0  0  0  0  0  0  0  0  0  0  0
   43.4080   33.1230   41.1710 C   0  0  0  0  0  0  0  0  0  0  0  0
   42.0620   33.2670   41.0560 N   0  0  0  0  0  0  0  0  0  0  0  0
   41.4670   34.4790   41.0290 C   0  0  0  0  0  0  0  0  0  0  0  0
   42.2190   35.6030   41.1180 N   0  0  0  0  0  0  0  0  0  0  0  0
   49.6950   27.8690   45.8060 C   0  0  0  0  0  0  0  0  0  0  0  0
   49.4190   28.5860   44.6420 C   0  0  0  0  0  0  0  0  0  0  0  0
   48.6050   29.6920   44.7700 C   0  0  0  0  0  0  0  0  0  0  0  0
   48.0830   30.0860   45.9760 C   0  0  0  0  0  0  0  0  0  0  0  0
   48.3640   29.3660   47.1190 C   0  0  0  0  0  0  0  0  0  0  0  0
   49.1850   28.2360   47.0390 C   0  0  0  0  0  0  0  0  0  0  0  0
   50.7180   26.4690   45.6720 S   0  0  0  0  0  0  0  0  0  0  0  0
   51.8280   26.7090   44.6940 O   0  0  0  0  0  0  0  0  0  0  0  0
   51.3620   26.2320   47.0280 O   0  0  0  0  0  0  0  0  0  0  0  0
   45.2960   33.0730   48.5310 N   0  0  0  0  0  0  0  0  0  0  0  0
   44.5959   35.7510   44.1176 H   0  0  0  0  0  0  0  0  0  0  0  0
   45.6366   33.5741   40.4229 H   0  0  0  0  0  0  0  0  0  0  0  0
   47.4351   35.4890   41.4590 H   0  0  0  0  0  0  0  0  0  0  0  0
   46.3238   36.2568   42.2167 H   0  0  0  0  0  0  0  0  0  0  0  0
   46.8958   32.9410   42.9239 H   0  0  0  0  0  0  0  0  0  0  0  0
   44.1502   36.4175   41.3031 H   0  0  0  0  0  0  0  0  0  0  0  0
   43.8597   32.1202   41.1900 H   0  0  0  0  0  0  0  0  0  0  0  0
   40.3736   34.5538   40.9349 H   0  0  0  0  0  0  0  0  0  0  0  0
   49.8310   28.2837   43.6679 H   0  0  0  0  0  0  0  0  0  0  0  0
   48.3654   30.2800   43.8718 H   0  0  0  0  0  0  0  0  0  0  0  0
   47.9452   29.6785   48.0870 H   0  0  0  0  0  0  0  0  0  0  0  0
   49.4208   27.6501   47.9396 H   0  0  0  0  0  0  0  0  0  0  0  0
   49.9610   25.4057   45.2558 H   0  0  0  0  0  0  0  0  0  0  0  0
   45.4796   32.4989   49.3662 H   0  0  0  0  0  0  0  0  0  0  0  0
   44.6943   33.9061   48.6007 H   0  0  0  0  0  0  0  0  0  0  0  0
  1  2  1  0
  1  9  1  0
  2  3  2  0
  3  4  1  0
  4  5  2  0
  5 28  1  0
  6  5  1  0
  7  6  2  0
  8  9  2  0
  8  7  1  0
  9  4  1  0
 10 11  1  0
 10 12  1  0
 11 12  1  0
 12  1  1  0
 13 14  2  0
 14 10  1  0
 15 14  1  0
 16 15  2  0
 17 16  1  0
 17 18  2  0
 18 13  1  0
 19 24  2  0
 20 21  2  0
 20 19  1  0
 21 22  1  0
 22  7  1  0
 22 23  2  0
 24 23  1  0
 25 19  1  0
 25 27  2  0
 26 25  2  0
  2 29  1  0
 10 30  1  6
 11 31  1  0
 11 32  1  0
 12 33  1  6
 13 34  1  0
 15 35  1  0
 17 36  1  0
 20 37  1  0
 21 38  1  0
 23 39  1  0
 24 40  1  0
 25 41  1  0
 28 42  1  0
 28 43  1  0
M  ISO  8  29  14  30  13  31  13  32  13  33  13  34  14  35  14  36  14
M  ISO  5  37  14  38  14  39  14  40  14  41  11
M  END
>  <minimizedAffinity>  (1) 
-5.52901936

>  <minimizedRMSD>  (1) 
0.597293735

$$$$
