
     RDKit          3D

 31 34  0  0  1  0  0  0  0  0999 V2000
   45.5640   34.1390   41.3890 C   0  0  1  0  0  0  0  0  0  0  0  0
   46.4180   35.2080   41.9410 C   0  0  0  0  0  0  0  0  0  0  0  0
   46.2760   33.8370   42.6110 C   0  0  1  0  0  0  0  0  0  0  0  0
   45.8450   33.9630   43.9540 N   0  0  0  0  0  0  0  0  0  0  0  0
   45.0680   34.8480   44.6330 C   0  0  0  0  0  0  0  0  0  0  0  0
   44.9800   34.5170   45.9380 N   0  0  0  0  0  0  0  0  0  0  0  0
   45.6860   33.4210   46.1370 C   0  0  0  0  0  0  0  0  0  0  0  0
   45.9570   32.6440   47.2590 C   0  0  0  0  0  0  0  0  0  0  0  0
   46.7380   31.5600   47.1520 N   0  0  0  0  0  0  0  0  0  0  0  0
   47.2670   31.2090   45.9700 C   0  0  0  0  0  0  0  0  0  0  0  0
   47.0050   31.9620   44.8840 N   0  0  0  0  0  0  0  0  0  0  0  0
   46.2180   33.0760   44.9290 C   0  0  0  0  0  0  0  0  0  0  0  0
   45.4180   32.9890   48.5320 N   0  0  0  0  0  0  0  0  0  0  0  0
   48.0840   30.0920   45.8110 O   0  0  0  0  0  0  0  0  0  0  0  0
   43.4630   35.5450   41.2950 C   0  0  0  0  0  0  0  0  0  0  0  0
   44.1040   34.2870   41.3180 C   0  0  0  0  0  0  0  0  0  0  0  0
   43.2910   33.1680   41.2640 C   0  0  0  0  0  0  0  0  0  0  0  0
   41.9440   33.3200   41.1910 N   0  0  0  0  0  0  0  0  0  0  0  0
   41.3630   34.5480   41.1710 C   0  0  0  0  0  0  0  0  0  0  0  0
   42.1330   35.6620   41.2230 N   0  0  0  0  0  0  0  0  0  0  0  0
   45.4997   33.6274   40.4173 H   0  0  0  0  0  0  0  0  0  0  0  0
   47.3554   35.4876   41.4379 H   0  0  0  0  0  0  0  0  0  0  0  0
   46.2792   36.2563   42.2439 H   0  0  0  0  0  0  0  0  0  0  0  0
   46.8197   32.9162   42.8688 H   0  0  0  0  0  0  0  0  0  0  0  0
   44.5754   35.7200   44.1780 H   0  0  0  0  0  0  0  0  0  0  0  0
   45.6263   32.4054   49.3548 H   0  0  0  0  0  0  0  0  0  0  0  0
   44.8201   33.8220   48.6295 H   0  0  0  0  0  0  0  0  0  0  0  0
   48.4525   29.8712   44.9191 H   0  0  0  0  0  0  0  0  0  0  0  0
   44.0768   36.4568   41.3376 H   0  0  0  0  0  0  0  0  0  0  0  0
   43.7339   32.1612   41.2801 H   0  0  0  0  0  0  0  0  0  0  0  0
   40.2682   34.6380   41.1126 H   0  0  0  0  0  0  0  0  0  0  0  0
  1  2  1  0
  1  3  1  0
  2  3  1  0
  3  4  1  0
  4  5  1  0
  4 12  1  0
  5  6  2  0
  6  7  1  0
  7  8  2  0
  8 13  1  0
  9  8  1  0
 10  9  2  0
 11 12  2  0
 11 10  1  0
 12  7  1  0
 14 10  1  0
 15 16  2  0
 16  1  1  0
 17 16  1  0
 18 17  2  0
 19 18  1  0
 19 20  2  0
 20 15  1  0
  1 21  1  6
  2 22  1  0
  2 23  1  0
  3 24  1  6
  5 25  1  0
 13 26  1  0
 13 27  1  0
 14 28  1  0
 15 29  1  0
 17 30  1  0
 19 31  1  0
M  ISO  8  21  13  22  13  23  13  24  13  25  14  28   3  29  14  30  14
M  ISO  1  31  14
M  END
>  <minimizedAffinity>  (1) 
-5.48308849

>  <minimizedRMSD>  (1) 
0.0232242756

$$$$
