
     RDKit          3D

 36 39  0  0  1  0  0  0  0  0999 V2000
   45.5790   34.1340   41.3700 C   0  0  1  0  0  0  0  0  0  0  0  0
   46.4220   35.2120   41.9260 C   0  0  0  0  0  0  0  0  0  0  0  0
   46.2880   33.8470   42.5990 C   0  0  1  0  0  0  0  0  0  0  0  0
   45.8490   33.9740   43.9410 N   0  0  0  0  0  0  0  0  0  0  0  0
   45.0850   34.8690   44.6190 C   0  0  0  0  0  0  0  0  0  0  0  0
   44.9810   34.5330   45.9230 N   0  0  0  0  0  0  0  0  0  0  0  0
   45.6630   33.4300   46.1200 C   0  0  0  0  0  0  0  0  0  0  0  0
   45.9080   32.6530   47.2390 C   0  0  0  0  0  0  0  0  0  0  0  0
   46.6680   31.5570   47.1410 N   0  0  0  0  0  0  0  0  0  0  0  0
   47.2110   31.1870   45.9540 C   0  0  0  0  0  0  0  0  0  0  0  0
   46.9660   31.9500   44.8690 N   0  0  0  0  0  0  0  0  0  0  0  0
   46.1980   33.0770   44.9140 C   0  0  0  0  0  0  0  0  0  0  0  0
   45.3830   32.9910   48.5110 N   0  0  0  0  0  0  0  0  0  0  0  0
   48.0460   29.9630   45.8970 C   0  0  0  0  0  0  0  0  0  0  0  0
   48.7030   29.6050   47.1900 C   0  0  0  0  0  0  0  0  0  0  0  0
   43.4730   35.5450   41.3000 C   0  0  0  0  0  0  0  0  0  0  0  0
   44.1180   34.2890   41.2960 C   0  0  0  0  0  0  0  0  0  0  0  0
   43.3100   33.1670   41.2050 C   0  0  0  0  0  0  0  0  0  0  0  0
   41.9630   33.3230   41.1250 N   0  0  0  0  0  0  0  0  0  0  0  0
   41.3760   34.5430   41.1310 C   0  0  0  0  0  0  0  0  0  0  0  0
   42.1430   35.6560   41.2210 N   0  0  0  0  0  0  0  0  0  0  0  0
   45.5237   33.6105   40.4041 H   0  0  0  0  0  0  0  0  0  0  0  0
   47.3605   35.4975   41.4283 H   0  0  0  0  0  0  0  0  0  0  0  0
   46.2723   36.2601   42.2245 H   0  0  0  0  0  0  0  0  0  0  0  0
   46.8389   32.9326   42.8644 H   0  0  0  0  0  0  0  0  0  0  0  0
   44.6124   35.7526   44.1652 H   0  0  0  0  0  0  0  0  0  0  0  0
   45.5824   32.3933   49.3258 H   0  0  0  0  0  0  0  0  0  0  0  0
   44.8020   33.8344   48.6208 H   0  0  0  0  0  0  0  0  0  0  0  0
   47.4048   29.1227   45.5924 H   0  0  0  0  0  0  0  0  0  0  0  0
   48.8543   30.1668   45.1793 H   0  0  0  0  0  0  0  0  0  0  0  0
   48.0760   29.9466   48.0268 H   0  0  0  0  0  0  0  0  0  0  0  0
   48.8286   28.5137   47.2477 H   0  0  0  0  0  0  0  0  0  0  0  0
   49.6881   30.0910   47.2477 H   0  0  0  0  0  0  0  0  0  0  0  0
   44.0822   36.4582   41.3701 H   0  0  0  0  0  0  0  0  0  0  0  0
   43.7546   32.1609   41.1976 H   0  0  0  0  0  0  0  0  0  0  0  0
   40.2816   34.6300   41.0631 H   0  0  0  0  0  0  0  0  0  0  0  0
  1  2  1  0
  1  3  1  0
  2  3  1  0
  3  4  1  0
  4  5  1  0
  4 12  1  0
  5  6  2  0
  6  7  1  0
  7  8  2  0
  8 13  1  0
  9  8  1  0
 10  9  2  0
 11 12  2  0
 11 10  1  0
 12  7  1  0
 14 10  1  0
 14 15  1  0
 17 16  2  0
 17  1  1  0
 18 17  1  0
 19 20  1  0
 19 18  2  0
 20 21  2  0
 21 16  1  0
  1 22  1  6
  2 23  1  0
  2 24  1  0
  3 25  1  6
  5 26  1  0
 13 27  1  0
 13 28  1  0
 14 29  1  0
 14 30  1  0
 15 31  1  0
 15 32  1  0
 15 33  1  0
 16 34  1  0
 18 35  1  0
 20 36  1  0
M  ISO  8  22  13  23  13  24  13  25  13  26  14  29   8  30   8  31   8
M  ISO  5  32   8  33   8  34  14  35  14  36  14
M  END
>  <minimizedAffinity>  (1) 
-5.4256916

>  <minimizedRMSD>  (1) 
0.122812495

$$$$
