
     RDKit          3D

 36 39  0  0  0  0  0  0  0  0999 V2000
   46.5170   34.3750   41.6600 N   0  0  0  0  0  0  0  0  0  0  0  0
   45.9160   33.7860   40.6130 C   0  0  0  0  0  0  0  0  0  0  0  0
   46.5200   33.5960   39.3880 C   0  0  0  0  0  0  0  0  0  0  0  0
   47.8170   34.0730   39.3330 C   0  0  0  0  0  0  0  0  0  0  0  0
   48.4740   33.9560   38.2540 O   0  0  0  0  0  0  0  0  0  0  0  0
   48.4590   34.6720   40.3620 N   0  0  0  0  0  0  0  0  0  0  0  0
   47.8060   34.8290   41.5440 C   0  0  0  0  0  0  0  0  0  0  0  0
   48.4380   35.3810   42.4510 O   0  0  0  0  0  0  0  0  0  0  0  0
   44.6490   36.0600   44.3520 C   0  0  0  0  0  0  0  0  0  0  0  0
   45.2250   35.7660   43.0950 C   0  0  0  0  0  0  0  0  0  0  0  0
   45.9760   34.6010   42.9300 C   0  0  0  0  0  0  0  0  0  0  0  0
   46.1210   33.7810   44.0190 N   0  0  0  0  0  0  0  0  0  0  0  0
   45.5550   34.0980   45.2000 C   0  0  0  0  0  0  0  0  0  0  0  0
   44.8310   35.2040   45.3920 N   0  0  0  0  0  0  0  0  0  0  0  0
   45.7650   33.1660   46.2840 C   0  0  0  0  0  0  0  0  0  0  0  0
   45.2290   33.0580   47.5110 C   0  0  0  0  0  0  0  0  0  0  0  0
   45.5920   32.0730   48.3660 C   0  0  0  0  0  0  0  0  0  0  0  0
   46.5980   31.1710   47.8290 C   0  0  0  0  0  0  0  0  0  0  0  0
   46.9240   31.8090   46.1720 S   0  0  0  0  0  0  0  0  0  0  0  0
   45.8390   32.9530   38.2740 C   0  0  0  0  0  0  0  0  0  0  0  0
   44.4250   32.8160   38.3910 N   0  0  0  0  0  0  0  0  0  0  0  0
   43.7540   31.6400   38.5900 C   0  0  0  0  0  0  0  0  0  0  0  0
   42.4100   31.8590   38.6450 N   0  0  0  0  0  0  0  0  0  0  0  0
   42.2640   33.1710   38.4780 C   0  0  0  0  0  0  0  0  0  0  0  0
   43.4730   33.7400   38.3270 N   0  0  0  0  0  0  0  0  0  0  0  0
   44.8814   33.4346   40.7402 H   0  0  0  0  0  0  0  0  0  0  0  0
   49.4277   35.0041   40.2517 H   0  0  0  0  0  0  0  0  0  0  0  0
   44.0565   36.9768   44.4878 H   0  0  0  0  0  0  0  0  0  0  0  0
   45.0817   36.4539   42.2486 H   0  0  0  0  0  0  0  0  0  0  0  0
   44.4734   33.7909   47.8303 H   0  0  0  0  0  0  0  0  0  0  0  0
   45.1652   31.9651   49.3740 H   0  0  0  0  0  0  0  0  0  0  0  0
   47.0556   30.2995   48.3199 H   0  0  0  0  0  0  0  0  0  0  0  0
   46.2646   31.9454   38.1579 H   0  0  0  0  0  0  0  0  0  0  0  0
   45.9985   33.6163   37.4111 H   0  0  0  0  0  0  0  0  0  0  0  0
   44.2329   30.6549   38.6915 H   0  0  0  0  0  0  0  0  0  0  0  0
   41.3035   33.7069   38.4654 H   0  0  0  0  0  0  0  0  0  0  0  0
  1 11  1  0
  2  1  1  0
  3  2  2  0
  4  3  1  0
  4  6  1  0
  5  4  2  0
  6  7  1  0
  7  1  1  0
  7  8  2  0
  9 14  2  0
 10  9  1  0
 11 10  2  0
 11 12  1  0
 12 13  2  0
 13 14  1  0
 13 15  1  0
 15 16  2  0
 16 17  1  0
 18 17  2  0
 19 15  1  0
 19 18  1  0
 20 21  1  0
 20  3  1  0
 21 22  1  0
 22 23  2  0
 24 23  1  0
 25 21  1  0
 25 24  2  0
  2 26  1  0
  6 27  1  0
  9 28  1  0
 10 29  1  0
 16 30  1  0
 17 31  1  0
 18 32  1  0
 20 33  1  0
 20 34  1  0
 22 35  1  0
 24 36  1  0
M  ISO  8  26  14  27   9  28  14  29  14  30  14  31  14  32  14  33   8
M  ISO  3  34   8  35  14  36  14
M  END
>  <minimizedAffinity>  (1) 
-6.01361704

>  <minimizedRMSD>  (1) 
2.23224998

$$$$
