
     RDKit          3D

 41 44  0  0  0  0  0  0  0  0999 V2000
   46.4940   34.3440   41.6450 N   0  0  0  0  0  0  0  0  0  0  0  0
   45.9030   33.6880   40.6320 C   0  0  0  0  0  0  0  0  0  0  0  0
   46.5040   33.5070   39.4040 C   0  0  0  0  0  0  0  0  0  0  0  0
   47.7660   34.0570   39.3030 C   0  0  0  0  0  0  0  0  0  0  0  0
   48.3890   33.9370   38.2060 O   0  0  0  0  0  0  0  0  0  0  0  0
   48.3920   34.7250   40.3060 N   0  0  0  0  0  0  0  0  0  0  0  0
   47.7430   34.8650   41.4850 C   0  0  0  0  0  0  0  0  0  0  0  0
   48.3630   35.4820   42.3630 O   0  0  0  0  0  0  0  0  0  0  0  0
   44.6520   36.0640   44.3510 C   0  0  0  0  0  0  0  0  0  0  0  0
   45.2180   35.7590   43.0890 C   0  0  0  0  0  0  0  0  0  0  0  0
   45.9630   34.5790   42.9190 C   0  0  0  0  0  0  0  0  0  0  0  0
   46.1030   33.7680   44.0140 N   0  0  0  0  0  0  0  0  0  0  0  0
   45.5470   34.0990   45.1900 C   0  0  0  0  0  0  0  0  0  0  0  0
   44.8330   35.2090   45.3890 N   0  0  0  0  0  0  0  0  0  0  0  0
   45.7580   33.1680   46.2810 C   0  0  0  0  0  0  0  0  0  0  0  0
   45.2390   33.0540   47.5040 C   0  0  0  0  0  0  0  0  0  0  0  0
   45.5920   32.0810   48.3800 C   0  0  0  0  0  0  0  0  0  0  0  0
   46.5980   31.1830   47.8330 C   0  0  0  0  0  0  0  0  0  0  0  0
   46.9150   31.8120   46.1760 S   0  0  0  0  0  0  0  0  0  0  0  0
   45.8210   32.7820   38.3160 C   0  0  0  0  0  0  0  0  0  0  0  0
   44.4100   32.8280   38.5090 N   0  0  0  0  0  0  0  0  0  0  0  0
   43.5620   33.8640   38.4030 C   0  0  0  0  0  0  0  0  0  0  0  0
   42.2110   33.8010   38.6210 C   0  0  0  0  0  0  0  0  0  0  0  0
   41.6430   32.5930   38.9820 C   0  0  0  0  0  0  0  0  0  0  0  0
   40.2430   32.5080   39.2140 N   0  0  0  0  0  0  0  0  0  0  0  0
   42.4940   31.5630   39.0870 N   0  0  0  0  0  0  0  0  0  0  0  0
   43.8200   31.6630   38.8640 C   0  0  0  0  0  0  0  0  0  0  0  0
   44.4720   30.5910   39.0090 O   0  0  0  0  0  0  0  0  0  0  0  0
   44.8948   33.2770   40.7893 H   0  0  0  0  0  0  0  0  0  0  0  0
   49.3360   35.1148   40.1728 H   0  0  0  0  0  0  0  0  0  0  0  0
   44.0700   36.9872   44.4887 H   0  0  0  0  0  0  0  0  0  0  0  0
   45.0746   36.4456   42.2417 H   0  0  0  0  0  0  0  0  0  0  0  0
   44.4837   33.7890   47.8193 H   0  0  0  0  0  0  0  0  0  0  0  0
   45.1663   31.9818   49.3894 H   0  0  0  0  0  0  0  0  0  0  0  0
   47.0614   30.3138   48.3226 H   0  0  0  0  0  0  0  0  0  0  0  0
   46.1539   31.7336   38.3120 H   0  0  0  0  0  0  0  0  0  0  0  0
   46.0692   33.2565   37.3551 H   0  0  0  0  0  0  0  0  0  0  0  0
   43.9851   34.8389   38.1191 H   0  0  0  0  0  0  0  0  0  0  0  0
   41.5862   34.6996   38.5103 H   0  0  0  0  0  0  0  0  0  0  0  0
   39.8192   31.6086   39.4829 H   0  0  0  0  0  0  0  0  0  0  0  0
   39.6525   33.3459   39.1132 H   0  0  0  0  0  0  0  0  0  0  0  0
  1 11  1  0
  2  1  1  0
  3  2  2  0
  4  3  1  0
  4  6  1  0
  5  4  2  0
  6  7  1  0
  7  1  1  0
  7  8  2  0
  9 14  2  0
 10  9  1  0
 11 10  2  0
 11 12  1  0
 12 13  2  0
 13 14  1  0
 13 15  1  0
 15 16  2  0
 16 17  1  0
 18 17  2  0
 19 15  1  0
 19 18  1  0
 20 21  1  0
 20  3  1  0
 21 27  1  0
 22 21  1  0
 22 23  2  0
 23 24  1  0
 24 26  2  0
 24 25  1  0
 27 28  2  0
 27 26  1  0
  2 29  1  0
  6 30  1  0
  9 31  1  0
 10 32  1  0
 16 33  1  0
 17 34  1  0
 18 35  1  0
 20 36  1  0
 20 37  1  0
 22 38  1  0
 23 39  1  0
 25 40  1  0
 25 41  1  0
M  ISO  8  29  14  30   9  31  14  32  14  33  14  34  14  35  14  36   8
M  ISO  3  37   8  38  14  39  14
M  END
>  <minimizedAffinity>  (1) 
-6.30585051

>  <minimizedRMSD>  (1) 
3.0598824

$$$$
