
     RDKit          3D

 44 48  0  0  0  0  0  0  0  0999 V2000
   45.0660   33.9870   41.7790 N   0  0  0  0  0  0  0  0  0  0  0  0
   44.0850   33.4310   41.0410 C   0  0  0  0  0  0  0  0  0  0  0  0
   44.2310   33.1010   39.7150 C   0  0  0  0  0  0  0  0  0  0  0  0
   45.4910   33.3980   39.2050 C   0  0  0  0  0  0  0  0  0  0  0  0
   45.7230   33.1270   37.9790 O   0  0  0  0  0  0  0  0  0  0  0  0
   46.5060   33.9590   39.9210 N   0  0  0  0  0  0  0  0  0  0  0  0
   46.2840   34.2560   41.2260 C   0  0  0  0  0  0  0  0  0  0  0  0
   47.2310   34.7620   41.8330 O   0  0  0  0  0  0  0  0  0  0  0  0
   44.4130   36.0740   44.7580 C   0  0  0  0  0  0  0  0  0  0  0  0
   44.5120   35.6410   43.4130 C   0  0  0  0  0  0  0  0  0  0  0  0
   44.9950   34.3520   43.1310 C   0  0  0  0  0  0  0  0  0  0  0  0
   45.3540   33.5690   44.1990 N   0  0  0  0  0  0  0  0  0  0  0  0
   45.2420   34.0260   45.4560 C   0  0  0  0  0  0  0  0  0  0  0  0
   44.7870   35.2410   45.7620 N   0  0  0  0  0  0  0  0  0  0  0  0
   45.6460   33.1140   46.5040 C   0  0  0  0  0  0  0  0  0  0  0  0
   45.2200   32.9020   47.7480 C   0  0  0  0  0  0  0  0  0  0  0  0
   45.7570   31.9640   48.5720 C   0  0  0  0  0  0  0  0  0  0  0  0
   46.8420   31.2270   47.9370 C   0  0  0  0  0  0  0  0  0  0  0  0
   46.9650   31.9340   46.2930 S   0  0  0  0  0  0  0  0  0  0  0  0
   43.1700   32.4990   38.9260 C   0  0  0  0  0  0  0  0  0  0  0  0
   42.1990   33.5210   38.4980 C   0  0  0  0  0  0  0  0  0  0  0  0
   42.3440   34.8690   38.2410 C   0  0  0  0  0  0  0  0  0  0  0  0
   41.1640   35.4260   37.8660 N   0  0  0  0  0  0  0  0  0  0  0  0
   40.2700   34.4150   37.8880 C   0  0  0  0  0  0  0  0  0  0  0  0
   38.9110   34.3660   37.6040 C   0  0  0  0  0  0  0  0  0  0  0  0
   38.1260   33.2440   37.6740 C   0  0  0  0  0  0  0  0  0  0  0  0
   38.7580   32.0720   38.0610 C   0  0  0  0  0  0  0  0  0  0  0  0
   40.1110   32.0800   38.3540 C   0  0  0  0  0  0  0  0  0  0  0  0
   40.8580   33.2430   38.2670 C   0  0  0  0  0  0  0  0  0  0  0  0
   43.1176   33.2310   41.5249 H   0  0  0  0  0  0  0  0  0  0  0  0
   47.4178   34.1524   39.4827 H   0  0  0  0  0  0  0  0  0  0  0  0
   44.0346   37.0810   44.9877 H   0  0  0  0  0  0  0  0  0  0  0  0
   44.2122   36.3105   42.5933 H   0  0  0  0  0  0  0  0  0  0  0  0
   44.3912   33.5175   48.1279 H   0  0  0  0  0  0  0  0  0  0  0  0
   45.4121   31.7820   49.6005 H   0  0  0  0  0  0  0  0  0  0  0  0
   47.4496   30.4182   48.3691 H   0  0  0  0  0  0  0  0  0  0  0  0
   43.6072   32.0209   38.0371 H   0  0  0  0  0  0  0  0  0  0  0  0
   42.6497   31.7514   39.5428 H   0  0  0  0  0  0  0  0  0  0  0  0
   43.2919   35.4203   38.3285 H   0  0  0  0  0  0  0  0  0  0  0  0
   40.9885   36.4101   37.6177 H   0  0  0  0  0  0  0  0  0  0  0  0
   38.4249   35.3041   37.2979 H   0  0  0  0  0  0  0  0  0  0  0  0
   37.0524   33.2721   37.4359 H   0  0  0  0  0  0  0  0  0  0  0  0
   38.1845   31.1363   38.1352 H   0  0  0  0  0  0  0  0  0  0  0  0
   40.6020   31.1450   38.6617 H   0  0  0  0  0  0  0  0  0  0  0  0
  1 11  1  0
  2  1  1  0
  3  2  2  0
  4  3  1  0
  4  6  1  0
  5  4  2  0
  6  7  1  0
  7  1  1  0
  7  8  2  0
  9 14  2  0
 10  9  1  0
 11 10  2  0
 11 12  1  0
 12 13  2  0
 13 14  1  0
 13 15  1  0
 15 16  2  0
 16 17  1  0
 18 17  2  0
 19 15  1  0
 19 18  1  0
 20  3  1  0
 21 20  1  0
 22 21  2  0
 23 24  1  0
 23 22  1  0
 24 29  2  0
 25 26  2  0
 25 24  1  0
 26 27  1  0
 27 28  2  0
 29 28  1  0
 29 21  1  0
  2 30  1  0
  6 31  1  0
  9 32  1  0
 10 33  1  0
 16 34  1  0
 17 35  1  0
 18 36  1  0
 20 37  1  0
 20 38  1  0
 22 39  1  0
 23 40  1  0
 25 41  1  0
 26 42  1  0
 27 43  1  0
 28 44  1  0
M  ISO  8  30  14  31   9  32  14  33  14  34  14  35  14  36  14  37   8
M  ISO  7  38   8  39  14  40   9  41  14  42  14  43  14  44  14
M  END
>  <minimizedAffinity>  (1) 
-7.51008034

>  <minimizedRMSD>  (1) 
2.75352192

$$$$
