
     RDKit          3D

 45 48  0  0  0  0  0  0  0  0999 V2000
   46.5590   34.3950   41.6450 N   0  0  0  0  0  0  0  0  0  0  0  0
   45.9580   33.8240   40.5790 C   0  0  0  0  0  0  0  0  0  0  0  0
   46.5750   33.6490   39.3770 C   0  0  0  0  0  0  0  0  0  0  0  0
   47.8900   34.1110   39.3290 C   0  0  0  0  0  0  0  0  0  0  0  0
   48.5340   33.9830   38.2400 O   0  0  0  0  0  0  0  0  0  0  0  0
   48.5220   34.6900   40.3850 N   0  0  0  0  0  0  0  0  0  0  0  0
   47.8400   34.8260   41.5440 C   0  0  0  0  0  0  0  0  0  0  0  0
   48.4780   35.3640   42.4660 O   0  0  0  0  0  0  0  0  0  0  0  0
   44.6490   36.0580   44.3270 C   0  0  0  0  0  0  0  0  0  0  0  0
   45.2400   35.7780   43.0690 C   0  0  0  0  0  0  0  0  0  0  0  0
   46.0050   34.6110   42.9100 C   0  0  0  0  0  0  0  0  0  0  0  0
   46.1400   33.7920   44.0020 N   0  0  0  0  0  0  0  0  0  0  0  0
   45.5620   34.1010   45.1710 C   0  0  0  0  0  0  0  0  0  0  0  0
   44.8260   35.2010   45.3620 N   0  0  0  0  0  0  0  0  0  0  0  0
   45.7660   33.1680   46.2550 C   0  0  0  0  0  0  0  0  0  0  0  0
   45.2490   33.0440   47.4780 C   0  0  0  0  0  0  0  0  0  0  0  0
   45.5980   32.0620   48.3480 C   0  0  0  0  0  0  0  0  0  0  0  0
   46.5960   31.1680   47.7910 C   0  0  0  0  0  0  0  0  0  0  0  0
   46.9150   31.8070   46.1420 S   0  0  0  0  0  0  0  0  0  0  0  0
   45.9080   33.0300   38.2250 C   0  0  0  0  0  0  0  0  0  0  0  0
   45.7390   31.6230   38.2730 N   0  0  0  0  0  0  0  0  0  0  0  0
   46.4570   31.0010   37.1900 C   0  0  0  0  0  0  0  0  0  0  0  0
   45.7310   29.8240   36.5970 C   0  0  0  0  0  0  0  0  0  0  0  0
   44.3590   30.2160   36.0810 C   0  0  0  0  0  0  0  0  0  0  0  0
   43.7720   31.3300   36.9450 C   0  0  0  0  0  0  0  0  0  0  0  0
   44.4090   31.1400   38.3190 C   0  0  0  0  0  0  0  0  0  0  0  0
   44.9178   33.4830   40.6866 H   0  0  0  0  0  0  0  0  0  0  0  0
   49.4955   35.0165   40.3036 H   0  0  0  0  0  0  0  0  0  0  0  0
   44.0479   36.9692   44.4628 H   0  0  0  0  0  0  0  0  0  0  0  0
   45.1005   36.4690   42.2246 H   0  0  0  0  0  0  0  0  0  0  0  0
   44.4970   33.7793   47.8002 H   0  0  0  0  0  0  0  0  0  0  0  0
   45.1737   31.9564   49.3574 H   0  0  0  0  0  0  0  0  0  0  0  0
   47.0559   30.2922   48.2721 H   0  0  0  0  0  0  0  0  0  0  0  0
   46.5015   33.2650   37.3291 H   0  0  0  0  0  0  0  0  0  0  0  0
   44.8896   33.4457   38.2202 H   0  0  0  0  0  0  0  0  0  0  0  0
   46.6144   31.7494   36.3993 H   0  0  0  0  0  0  0  0  0  0  0  0
   47.4070   30.6270   37.5995 H   0  0  0  0  0  0  0  0  0  0  0  0
   46.3246   29.4218   35.7628 H   0  0  0  0  0  0  0  0  0  0  0  0
   45.5990   29.0684   37.3855 H   0  0  0  0  0  0  0  0  0  0  0  0
   44.4479   30.5691   35.0430 H   0  0  0  0  0  0  0  0  0  0  0  0
   43.6949   29.3401   36.1228 H   0  0  0  0  0  0  0  0  0  0  0  0
   44.0300   32.3164   36.5321 H   0  0  0  0  0  0  0  0  0  0  0  0
   42.6738   31.2847   36.9884 H   0  0  0  0  0  0  0  0  0  0  0  0
   44.4119   30.0717   38.5812 H   0  0  0  0  0  0  0  0  0  0  0  0
   43.8355   31.6925   39.0778 H   0  0  0  0  0  0  0  0  0  0  0  0
  1 11  1  0
  2  1  1  0
  3  2  2  0
  4  3  1  0
  4  6  1  0
  5  4  2  0
  6  7  1  0
  7  1  1  0
  7  8  2  0
  9 14  2  0
 10  9  1  0
 11 10  2  0
 11 12  1  0
 12 13  2  0
 13 14  1  0
 13 15  1  0
 15 16  2  0
 16 17  1  0
 18 17  2  0
 19 15  1  0
 19 18  1  0
 20 21  1  0
 20  3  1  0
 21 26  1  0
 22 21  1  0
 23 22  1  0
 24 23  1  0
 24 25  1  0
 25 26  1  0
  2 27  1  0
  6 28  1  0
  9 29  1  0
 10 30  1  0
 16 31  1  0
 17 32  1  0
 18 33  1  0
 20 34  1  0
 20 35  1  0
 22 36  1  0
 22 37  1  0
 23 38  1  0
 23 39  1  0
 24 40  1  0
 24 41  1  0
 25 42  1  0
 25 43  1  0
 26 44  1  0
 26 45  1  0
M  ISO  8  27  14  28   9  29  14  30  14  31  14  32  14  33  14  34   8
M  ISO  8  35   8  36  13  37  13  38  13  39  13  40  13  41  13  42  13
M  ISO  3  43  13  44  13  45  13
M  END
>  <minimizedAffinity>  (1) 
-5.9391427

>  <minimizedRMSD>  (1) 
1.47869134

$$$$
