
     RDKit          3D

 42 45  0  0  0  0  0  0  0  0999 V2000
   46.5620   34.3770   41.6380 N   0  0  0  0  0  0  0  0  0  0  0  0
   45.9740   33.7730   40.5870 C   0  0  0  0  0  0  0  0  0  0  0  0
   46.6000   33.5990   39.3760 C   0  0  0  0  0  0  0  0  0  0  0  0
   47.8930   34.0980   39.3210 C   0  0  0  0  0  0  0  0  0  0  0  0
   48.5560   33.9840   38.2400 O   0  0  0  0  0  0  0  0  0  0  0  0
   48.5120   34.7120   40.3650 N   0  0  0  0  0  0  0  0  0  0  0  0
   47.8380   34.8510   41.5350 C   0  0  0  0  0  0  0  0  0  0  0  0
   48.4550   35.4180   42.4480 O   0  0  0  0  0  0  0  0  0  0  0  0
   44.6550   36.0530   44.3200 C   0  0  0  0  0  0  0  0  0  0  0  0
   45.2440   35.7670   43.0630 C   0  0  0  0  0  0  0  0  0  0  0  0
   46.0070   34.6010   42.9080 C   0  0  0  0  0  0  0  0  0  0  0  0
   46.1480   33.7810   44.0000 N   0  0  0  0  0  0  0  0  0  0  0  0
   45.5680   34.0970   45.1740 C   0  0  0  0  0  0  0  0  0  0  0  0
   44.8350   35.1970   45.3590 N   0  0  0  0  0  0  0  0  0  0  0  0
   45.7720   33.1690   46.2590 C   0  0  0  0  0  0  0  0  0  0  0  0
   45.2420   33.0520   47.4850 C   0  0  0  0  0  0  0  0  0  0  0  0
   45.6000   32.0660   48.3410 C   0  0  0  0  0  0  0  0  0  0  0  0
   46.6010   31.1640   47.8050 C   0  0  0  0  0  0  0  0  0  0  0  0
   46.9260   31.8090   46.1490 S   0  0  0  0  0  0  0  0  0  0  0  0
   45.9400   32.9480   38.2520 C   0  0  0  0  0  0  0  0  0  0  0  0
   44.7300   32.2810   38.6860 N   0  0  0  0  0  0  0  0  0  0  0  0
   44.7790   30.8730   38.4510 C   0  0  0  0  0  0  0  0  0  0  0  0
   43.6630   30.5180   37.5080 C   0  0  0  0  0  0  0  0  0  0  0  0
   42.6670   31.6570   37.7140 C   0  0  0  0  0  0  0  0  0  0  0  0
   43.5340   32.8340   38.1200 C   0  0  0  0  0  0  0  0  0  0  0  0
   44.9451   33.4019   40.7036 H   0  0  0  0  0  0  0  0  0  0  0  0
   49.4749   35.0651   40.2695 H   0  0  0  0  0  0  0  0  0  0  0  0
   44.0544   36.9648   44.4536 H   0  0  0  0  0  0  0  0  0  0  0  0
   45.1036   36.4544   42.2158 H   0  0  0  0  0  0  0  0  0  0  0  0
   44.4878   33.7848   47.8076 H   0  0  0  0  0  0  0  0  0  0  0  0
   45.1717   31.9591   49.3486 H   0  0  0  0  0  0  0  0  0  0  0  0
   47.0566   30.2900   48.2933 H   0  0  0  0  0  0  0  0  0  0  0  0
   46.6232   32.2066   37.8120 H   0  0  0  0  0  0  0  0  0  0  0  0
   45.6750   33.7121   37.5064 H   0  0  0  0  0  0  0  0  0  0  0  0
   45.7464   30.6033   38.0022 H   0  0  0  0  0  0  0  0  0  0  0  0
   44.6671   30.3244   39.3978 H   0  0  0  0  0  0  0  0  0  0  0  0
   43.2154   29.5484   37.7717 H   0  0  0  0  0  0  0  0  0  0  0  0
   43.9932   30.4132   36.4640 H   0  0  0  0  0  0  0  0  0  0  0  0
   42.1237   31.8745   36.7826 H   0  0  0  0  0  0  0  0  0  0  0  0
   41.8996   31.4176   38.4648 H   0  0  0  0  0  0  0  0  0  0  0  0
   43.7781   33.4477   37.2404 H   0  0  0  0  0  0  0  0  0  0  0  0
   43.0142   33.4814   38.8416 H   0  0  0  0  0  0  0  0  0  0  0  0
  1 11  1  0
  2  1  1  0
  3  2  2  0
  4  3  1  0
  4  6  1  0
  5  4  2  0
  6  7  1  0
  7  1  1  0
  7  8  2  0
  9 14  2  0
 10  9  1  0
 11 10  2  0
 11 12  1  0
 12 13  2  0
 13 14  1  0
 13 15  1  0
 15 16  2  0
 16 17  1  0
 18 17  2  0
 19 15  1  0
 19 18  1  0
 20 21  1  0
 20  3  1  0
 22 21  1  0
 23 24  1  0
 23 22  1  0
 24 25  1  0
 25 21  1  0
  2 26  1  0
  6 27  1  0
  9 28  1  0
 10 29  1  0
 16 30  1  0
 17 31  1  0
 18 32  1  0
 20 33  1  0
 20 34  1  0
 22 35  1  0
 22 36  1  0
 23 37  1  0
 23 38  1  0
 24 39  1  0
 24 40  1  0
 25 41  1  0
 25 42  1  0
M  ISO  8  26  14  27   9  28  14  29  14  30  14  31  14  32  14  33   8
M  ISO  8  34   8  35  13  36  13  37  13  38  13  39  13  40  13  41  13
M  ISO  1  42  13
M  END
>  <minimizedAffinity>  (1) 
-5.87471771

>  <minimizedRMSD>  (1) 
1.76731372

$$$$
