
     RDKit          3D

 46 50  0  0  0  0  0  0  0  0999 V2000
   46.9310   33.8180   41.5610 N   0  0  0  0  0  0  0  0  0  0  0  0
   46.6910   32.7600   40.7850 C   0  0  0  0  0  0  0  0  0  0  0  0
   47.3590   32.4430   39.6430 C   0  0  0  0  0  0  0  0  0  0  0  0
   48.3660   33.3690   39.3450 C   0  0  0  0  0  0  0  0  0  0  0  0
   49.0900   33.2200   38.3070 O   0  0  0  0  0  0  0  0  0  0  0  0
   48.6540   34.4700   40.1070 N   0  0  0  0  0  0  0  0  0  0  0  0
   47.9160   34.6830   41.2280 C   0  0  0  0  0  0  0  0  0  0  0  0
   48.2170   35.6940   41.8820 O   0  0  0  0  0  0  0  0  0  0  0  0
   44.7250   35.7110   43.8320 C   0  0  0  0  0  0  0  0  0  0  0  0
   45.4270   35.2940   42.6760 C   0  0  0  0  0  0  0  0  0  0  0  0
   46.2620   34.1750   42.7400 C   0  0  0  0  0  0  0  0  0  0  0  0
   46.3560   33.5300   43.9420 N   0  0  0  0  0  0  0  0  0  0  0  0
   45.6720   33.9580   45.0150 C   0  0  0  0  0  0  0  0  0  0  0  0
   44.8690   35.0200   44.9910 N   0  0  0  0  0  0  0  0  0  0  0  0
   45.8390   33.1920   46.2410 C   0  0  0  0  0  0  0  0  0  0  0  0
   45.2160   33.2130   47.4250 C   0  0  0  0  0  0  0  0  0  0  0  0
   45.5520   32.3730   48.4340 C   0  0  0  0  0  0  0  0  0  0  0  0
   46.6370   31.4680   48.1010 C   0  0  0  0  0  0  0  0  0  0  0  0
   47.0590   31.9050   46.4060 S   0  0  0  0  0  0  0  0  0  0  0  0
   47.1100   31.2820   38.8140 C   0  0  0  0  0  0  0  0  0  0  0  0
   46.6890   31.5640   37.4260 C   0  0  0  0  0  0  0  0  0  0  0  0
   45.5490   32.3690   37.3080 C   0  0  0  0  0  0  0  0  0  0  0  0
   44.9900   32.7250   36.0960 C   0  0  0  0  0  0  0  0  0  0  0  0
   45.5410   32.2960   34.9220 C   0  0  0  0  0  0  0  0  0  0  0  0
   46.6610   31.5070   35.0330 C   0  0  0  0  0  0  0  0  0  0  0  0
   47.2990   31.0280   33.8820 C   0  0  0  0  0  0  0  0  0  0  0  0
   48.4410   30.2350   33.9690 C   0  0  0  0  0  0  0  0  0  0  0  0
   48.9640   29.9060   35.2000 C   0  0  0  0  0  0  0  0  0  0  0  0
   48.3530   30.3650   36.3350 C   0  0  0  0  0  0  0  0  0  0  0  0
   47.2400   31.1370   36.2470 C   0  0  0  0  0  0  0  0  0  0  0  0
   45.8811   32.0838   41.0960 H   0  0  0  0  0  0  0  0  0  0  0  0
   49.4082   35.1179   39.8381 H   0  0  0  0  0  0  0  0  0  0  0  0
   44.0660   36.5908   43.7912 H   0  0  0  0  0  0  0  0  0  0  0  0
   45.3160   35.8477   41.7320 H   0  0  0  0  0  0  0  0  0  0  0  0
   44.4033   33.9369   47.5848 H   0  0  0  0  0  0  0  0  0  0  0  0
   45.0500   32.3766   49.4128 H   0  0  0  0  0  0  0  0  0  0  0  0
   47.0947   30.6953   48.7362 H   0  0  0  0  0  0  0  0  0  0  0  0
   48.0370   30.6913   38.7726 H   0  0  0  0  0  0  0  0  0  0  0  0
   46.2656   30.7549   39.2821 H   0  0  0  0  0  0  0  0  0  0  0  0
   45.0737   32.7372   38.2291 H   0  0  0  0  0  0  0  0  0  0  0  0
   44.0922   33.3603   36.0761 H   0  0  0  0  0  0  0  0  0  0  0  0
   45.1135   32.5661   33.9451 H   0  0  0  0  0  0  0  0  0  0  0  0
   46.8914   31.2823   32.8924 H   0  0  0  0  0  0  0  0  0  0  0  0
   48.9266   29.8704   33.0518 H   0  0  0  0  0  0  0  0  0  0  0  0
   49.8654   29.2794   35.2701 H   0  0  0  0  0  0  0  0  0  0  0  0
   48.7651   30.1076   37.3219 H   0  0  0  0  0  0  0  0  0  0  0  0
  1 11  1  0
  2  1  1  0
  3  2  2  0
  4  3  1  0
  4  6  1  0
  5  4  2  0
  6  7  1  0
  7  1  1  0
  7  8  2  0
  9 14  2  0
 10 11  2  0
 10  9  1  0
 11 12  1  0
 12 13  2  0
 13 15  1  0
 14 13  1  0
 15 19  1  0
 15 16  2  0
 16 17  1  0
 18 17  2  0
 19 18  1  0
 20  3  1  0
 21 20  1  0
 22 21  2  0
 23 22  1  0
 24 25  1  0
 24 23  2  0
 25 30  2  0
 26 27  2  0
 26 25  1  0
 27 28  1  0
 28 29  2  0
 30 29  1  0
 30 21  1  0
  2 31  1  0
  6 32  1  0
  9 33  1  0
 10 34  1  0
 16 35  1  0
 17 36  1  0
 18 37  1  0
 20 38  1  0
 20 39  1  0
 22 40  1  0
 23 41  1  0
 24 42  1  0
 26 43  1  0
 27 44  1  0
 28 45  1  0
 29 46  1  0
M  ISO  8  31  14  32   9  33  14  34  14  35  14  36  14  37  14  38   8
M  ISO  8  39   8  40  14  41  14  42  14  43  14  44  14  45  14  46  14
M  END
>  <minimizedAffinity>  (1) 
-5.95270491

>  <minimizedRMSD>  (1) 
1.99814403

$$$$
