
     RDKit          3D

 43 46  0  0  0  0  0  0  0  0999 V2000
   46.5590   34.3900   41.6400 N   0  0  0  0  0  0  0  0  0  0  0  0
   45.9660   33.8110   40.5960 C   0  0  0  0  0  0  0  0  0  0  0  0
   46.5550   33.6200   39.3810 C   0  0  0  0  0  0  0  0  0  0  0  0
   47.8700   34.0920   39.3120 C   0  0  0  0  0  0  0  0  0  0  0  0
   48.5450   33.9810   38.2380 O   0  0  0  0  0  0  0  0  0  0  0  0
   48.5150   34.6920   40.3590 N   0  0  0  0  0  0  0  0  0  0  0  0
   47.8340   34.8330   41.5250 C   0  0  0  0  0  0  0  0  0  0  0  0
   48.4730   35.3900   42.4430 O   0  0  0  0  0  0  0  0  0  0  0  0
   44.6530   36.0560   44.3250 C   0  0  0  0  0  0  0  0  0  0  0  0
   45.2420   35.7780   43.0680 C   0  0  0  0  0  0  0  0  0  0  0  0
   46.0020   34.6100   42.9100 C   0  0  0  0  0  0  0  0  0  0  0  0
   46.1410   33.7820   43.9950 N   0  0  0  0  0  0  0  0  0  0  0  0
   45.5680   34.0820   45.1670 C   0  0  0  0  0  0  0  0  0  0  0  0
   44.8290   35.1950   45.3610 N   0  0  0  0  0  0  0  0  0  0  0  0
   45.7660   33.1630   46.2540 C   0  0  0  0  0  0  0  0  0  0  0  0
   45.2500   33.0410   47.4770 C   0  0  0  0  0  0  0  0  0  0  0  0
   45.6090   32.0670   48.3510 C   0  0  0  0  0  0  0  0  0  0  0  0
   46.6160   31.1760   47.8020 C   0  0  0  0  0  0  0  0  0  0  0  0
   46.9230   31.8180   46.1500 S   0  0  0  0  0  0  0  0  0  0  0  0
   45.9010   33.0120   38.2350 C   0  0  0  0  0  0  0  0  0  0  0  0
   45.9500   31.5520   38.0920 C   0  0  0  0  0  0  0  0  0  0  0  0
   44.6670   30.8090   37.9850 C   0  0  0  0  0  0  0  0  0  0  0  0
   45.2140   29.3710   37.8470 C   0  0  0  0  0  0  0  0  0  0  0  0
   46.4180   29.5360   36.9230 C   0  0  0  0  0  0  0  0  0  0  0  0
   46.7630   31.0230   36.9390 C   0  0  0  0  0  0  0  0  0  0  0  0
   44.9302   33.4633   40.7233 H   0  0  0  0  0  0  0  0  0  0  0  0
   49.4850   35.0256   40.2656 H   0  0  0  0  0  0  0  0  0  0  0  0
   44.0536   36.9680   44.4627 H   0  0  0  0  0  0  0  0  0  0  0  0
   45.1050   36.4706   42.2244 H   0  0  0  0  0  0  0  0  0  0  0  0
   44.4908   33.7705   47.7955 H   0  0  0  0  0  0  0  0  0  0  0  0
   45.1853   31.9640   49.3609 H   0  0  0  0  0  0  0  0  0  0  0  0
   47.0844   30.3064   48.2862 H   0  0  0  0  0  0  0  0  0  0  0  0
   44.8398   33.2984   38.2774 H   0  0  0  0  0  0  0  0  0  0  0  0
   46.4704   33.3857   37.3712 H   0  0  0  0  0  0  0  0  0  0  0  0
   46.4208   31.3624   39.0679 H   0  0  0  0  0  0  0  0  0  0  0  0
   44.0480   30.9275   38.8866 H   0  0  0  0  0  0  0  0  0  0  0  0
   44.0032   31.1369   37.1714 H   0  0  0  0  0  0  0  0  0  0  0  0
   45.5205   28.9712   38.8249 H   0  0  0  0  0  0  0  0  0  0  0  0
   44.4674   28.6638   37.4565 H   0  0  0  0  0  0  0  0  0  0  0  0
   46.1630   29.2142   35.9025 H   0  0  0  0  0  0  0  0  0  0  0  0
   47.2679   28.9226   37.2568 H   0  0  0  0  0  0  0  0  0  0  0  0
   47.8385   31.1767   37.1113 H   0  0  0  0  0  0  0  0  0  0  0  0
   46.5414   31.5278   35.9871 H   0  0  0  0  0  0  0  0  0  0  0  0
  1 11  1  0
  2  1  1  0
  3  2  2  0
  4  3  1  0
  4  6  1  0
  5  4  2  0
  6  7  1  0
  7  1  1  0
  7  8  2  0
  9 14  2  0
 10  9  1  0
 11 10  2  0
 11 12  1  0
 12 13  2  0
 13 14  1  0
 13 15  1  0
 15 16  2  0
 16 17  1  0
 18 17  2  0
 19 15  1  0
 19 18  1  0
 20  3  1  0
 21 20  1  0
 22 21  1  0
 23 22  1  0
 24 25  1  0
 24 23  1  0
 25 21  1  0
  2 26  1  0
  6 27  1  0
  9 28  1  0
 10 29  1  0
 16 30  1  0
 17 31  1  0
 18 32  1  0
 20 33  1  0
 20 34  1  0
 21 35  1  0
 22 36  1  0
 22 37  1  0
 23 38  1  0
 23 39  1  0
 24 40  1  0
 24 41  1  0
 25 42  1  0
 25 43  1  0
M  ISO  8  26  14  27   9  28  14  29  14  30  14  31  14  32  14  33   8
M  ISO  8  34   8  35  13  36  13  37  13  38  13  39  13  40  13  41  13
M  ISO  2  42  13  43  13
M  END
>  <minimizedAffinity>  (1) 
-5.72340345

>  <minimizedRMSD>  (1) 
0.319625705

$$$$
