
     RDKit          3D

 37 40  0  0  0  0  0  0  0  0999 V2000
   46.5780   34.3960   41.6250 N   0  0  0  0  0  0  0  0  0  0  0  0
   45.9870   33.8210   40.5640 C   0  0  0  0  0  0  0  0  0  0  0  0
   46.5980   33.6500   39.3510 C   0  0  0  0  0  0  0  0  0  0  0  0
   47.9110   34.1300   39.3060 C   0  0  0  0  0  0  0  0  0  0  0  0
   48.5540   34.0140   38.2260 O   0  0  0  0  0  0  0  0  0  0  0  0
   48.5420   34.7210   40.3680 N   0  0  0  0  0  0  0  0  0  0  0  0
   47.8580   34.8470   41.5280 C   0  0  0  0  0  0  0  0  0  0  0  0
   48.4840   35.3920   42.4570 O   0  0  0  0  0  0  0  0  0  0  0  0
   44.6530   36.0470   44.3090 C   0  0  0  0  0  0  0  0  0  0  0  0
   45.2470   35.7710   43.0530 C   0  0  0  0  0  0  0  0  0  0  0  0
   46.0200   34.6060   42.8890 C   0  0  0  0  0  0  0  0  0  0  0  0
   46.1530   33.7880   43.9800 N   0  0  0  0  0  0  0  0  0  0  0  0
   45.5740   34.0860   45.1500 C   0  0  0  0  0  0  0  0  0  0  0  0
   44.8290   35.1890   45.3440 N   0  0  0  0  0  0  0  0  0  0  0  0
   45.7800   33.1560   46.2340 C   0  0  0  0  0  0  0  0  0  0  0  0
   45.2640   33.0350   47.4570 C   0  0  0  0  0  0  0  0  0  0  0  0
   45.6210   32.0550   48.3220 C   0  0  0  0  0  0  0  0  0  0  0  0
   46.6190   31.1600   47.7720 C   0  0  0  0  0  0  0  0  0  0  0  0
   46.9320   31.7970   46.1190 S   0  0  0  0  0  0  0  0  0  0  0  0
   45.9390   33.0230   38.2150 C   0  0  0  0  0  0  0  0  0  0  0  0
   46.2140   31.5770   38.1070 C   0  0  0  0  0  0  0  0  0  0  0  0
   45.8080   30.4860   38.8650 C   0  0  0  0  0  0  0  0  0  0  0  0
   46.3600   29.3650   38.3180 C   0  0  0  0  0  0  0  0  0  0  0  0
   47.0700   29.7890   37.2680 N   0  0  0  0  0  0  0  0  0  0  0  0
   47.0070   31.1010   37.1090 N   0  0  0  0  0  0  0  0  0  0  0  0
   44.9516   33.4670   40.6768 H   0  0  0  0  0  0  0  0  0  0  0  0
   49.5110   35.0603   40.2856 H   0  0  0  0  0  0  0  0  0  0  0  0
   44.0495   36.9566   44.4445 H   0  0  0  0  0  0  0  0  0  0  0  0
   45.1050   36.4634   42.2102 H   0  0  0  0  0  0  0  0  0  0  0  0
   44.5101   33.7678   47.7805 H   0  0  0  0  0  0  0  0  0  0  0  0
   45.1989   31.9502   49.3324 H   0  0  0  0  0  0  0  0  0  0  0  0
   47.0813   30.2873   48.2563 H   0  0  0  0  0  0  0  0  0  0  0  0
   44.8532   33.1653   38.3188 H   0  0  0  0  0  0  0  0  0  0  0  0
   46.3338   33.4990   37.3053 H   0  0  0  0  0  0  0  0  0  0  0  0
   45.1562   30.5201   39.7504 H   0  0  0  0  0  0  0  0  0  0  0  0
   46.2449   28.3285   38.6679 H   0  0  0  0  0  0  0  0  0  0  0  0
   47.6070   29.1634   36.6507 H   0  0  0  0  0  0  0  0  0  0  0  0
  1 11  1  0
  2  1  1  0
  3  2  2  0
  4  3  1  0
  4  6  1  0
  5  4  2  0
  6  7  1  0
  7  1  1  0
  7  8  2  0
  9 14  2  0
 10  9  1  0
 11 10  2  0
 11 12  1  0
 12 13  2  0
 13 14  1  0
 13 15  1  0
 15 16  2  0
 16 17  1  0
 18 17  2  0
 19 15  1  0
 19 18  1  0
 20  3  1  0
 21 20  1  0
 21 22  1  0
 23 22  2  0
 24 23  1  0
 25 24  1  0
 25 21  2  0
  2 26  1  0
  6 27  1  0
  9 28  1  0
 10 29  1  0
 16 30  1  0
 17 31  1  0
 18 32  1  0
 20 33  1  0
 20 34  1  0
 22 35  1  0
 23 36  1  0
 24 37  1  0
M  ISO  8  26  14  27   9  28  14  29  14  30  14  31  14  32  14  33   8
M  ISO  4  34   8  35  14  36  14  37   9
M  END
>  <minimizedAffinity>  (1) 
-5.68490314

>  <minimizedRMSD>  (1) 
0.263250381

$$$$
