
     RDKit          3D

 34 36  0  0  0  0  0  0  0  0999 V2000
   47.7330   34.7740   41.4930 C   0  0  0  0  0  0  0  0  0  0  0  0
   47.3440   34.2600   40.1490 C   0  0  0  0  0  0  0  0  0  0  0  0
   48.2290   34.2090   39.0870 C   0  0  0  0  0  0  0  0  0  0  0  0
   47.9600   33.7520   37.8270 C   0  0  0  0  0  0  0  0  0  0  0  0
   46.6750   33.3100   37.6430 N   0  0  0  0  0  0  0  0  0  0  0  0
   45.7970   33.3510   38.6640 C   0  0  0  0  0  0  0  0  0  0  0  0
   46.0750   33.8060   39.9060 N   0  0  0  0  0  0  0  0  0  0  0  0
   44.4460   32.8620   38.3920 C   0  0  0  0  0  0  0  0  0  0  0  0
   43.3340   33.6000   38.7900 C   0  0  0  0  0  0  0  0  0  0  0  0
   42.0700   33.1360   38.5310 C   0  0  0  0  0  0  0  0  0  0  0  0
   41.8860   31.9860   37.9040 N   0  0  0  0  0  0  0  0  0  0  0  0
   42.9710   31.2830   37.5240 C   0  0  0  0  0  0  0  0  0  0  0  0
   44.2560   31.6960   37.7550 N   0  0  0  0  0  0  0  0  0  0  0  0
   47.5330   33.6750   42.4860 C   0  0  0  0  0  0  0  0  0  0  0  0
   44.8720   35.3500   44.5730 C   0  0  0  0  0  0  0  0  0  0  0  0
   45.7300   35.0320   43.5070 C   0  0  0  0  0  0  0  0  0  0  0  0
   46.6320   34.0060   43.5980 C   0  0  0  0  0  0  0  0  0  0  0  0
   46.6740   33.3030   44.7480 N   0  0  0  0  0  0  0  0  0  0  0  0
   45.8280   33.6240   45.7850 C   0  0  0  0  0  0  0  0  0  0  0  0
   44.9630   34.6130   45.6930 N   0  0  0  0  0  0  0  0  0  0  0  0
   45.9640   32.7960   46.9790 C   0  0  0  0  0  0  0  0  0  0  0  0
   45.0700   32.8210   47.8650 O   0  0  0  0  0  0  0  0  0  0  0  0
   47.1036   35.6360   41.7590 H   0  0  0  0  0  0  0  0  0  0  0  0
   48.7847   35.0965   41.4880 H   0  0  0  0  0  0  0  0  0  0  0  0
   49.2502   34.5721   39.2750 H   0  0  0  0  0  0  0  0  0  0  0  0
   48.7134   33.7398   37.0256 H   0  0  0  0  0  0  0  0  0  0  0  0
   43.4701   34.5578   39.3136 H   0  0  0  0  0  0  0  0  0  0  0  0
   41.1985   33.7273   38.8485 H   0  0  0  0  0  0  0  0  0  0  0  0
   42.8164   30.3277   37.0010 H   0  0  0  0  0  0  0  0  0  0  0  0
   47.1168   32.8059   41.9554 H   0  0  0  0  0  0  0  0  0  0  0  0
   48.5185   33.4790   42.9337 H   0  0  0  0  0  0  0  0  0  0  0  0
   44.1492   36.1754   44.4935 H   0  0  0  0  0  0  0  0  0  0  0  0
   45.6759   35.6201   42.5790 H   0  0  0  0  0  0  0  0  0  0  0  0
   46.8462   32.1511   47.1046 H   0  0  0  0  0  0  0  0  0  0  0  0
  1 14  1  0
  2  1  1  0
  3  2  2  0
  4  3  1  0
  5  4  2  0
  5  6  1  0
  6  7  2  0
  7  2  1  0
  8  6  1  0
  8  9  2  0
 10  9  1  0
 11 10  2  0
 12 13  2  0
 12 11  1  0
 13  8  1  0
 14 17  1  0
 15 20  2  0
 16 17  2  0
 16 15  1  0
 17 18  1  0
 18 19  2  0
 19 21  1  0
 20 19  1  0
 21 22  2  0
  1 23  1  0
  1 24  1  0
  3 25  1  0
  4 26  1  0
  9 27  1  0
 10 28  1  0
 12 29  1  0
 14 30  1  0
 14 31  1  0
 15 32  1  0
 16 33  1  0
 21 34  1  0
M  ISO  8  23   8  24   8  25  14  26  14  27  14  28  14  29  14  30   8
M  ISO  4  31   8  32  14  33  14  34   6
M  END
>  <minimizedAffinity>  (1) 
-4.92506552

>  <minimizedRMSD>  (1) 
0.575867057

$$$$
