
     RDKit          3D

 31 33  0  0  0  0  0  0  0  0999 V2000
   44.6570   36.0530   44.3090 C   0  0  0  0  0  0  0  0  0  0  0  0
   45.2450   35.7750   43.0520 C   0  0  0  0  0  0  0  0  0  0  0  0
   46.0060   34.6140   42.8870 C   0  0  0  0  0  0  0  0  0  0  0  0
   46.1460   33.7920   43.9740 N   0  0  0  0  0  0  0  0  0  0  0  0
   45.5680   34.0920   45.1610 C   0  0  0  0  0  0  0  0  0  0  0  0
   44.8350   35.1950   45.3490 N   0  0  0  0  0  0  0  0  0  0  0  0
   46.5680   34.3950   41.6180 N   0  0  0  0  0  0  0  0  0  0  0  0
   45.9820   33.7960   40.5810 C   0  0  0  0  0  0  0  0  0  0  0  0
   46.6110   33.6170   39.3660 C   0  0  0  0  0  0  0  0  0  0  0  0
   47.8990   34.1100   39.3120 C   0  0  0  0  0  0  0  0  0  0  0  0
   48.5520   33.9900   38.2330 O   0  0  0  0  0  0  0  0  0  0  0  0
   48.5250   34.7270   40.3590 N   0  0  0  0  0  0  0  0  0  0  0  0
   47.8470   34.8720   41.5330 C   0  0  0  0  0  0  0  0  0  0  0  0
   48.4590   35.4360   42.4460 O   0  0  0  0  0  0  0  0  0  0  0  0
   45.9620   32.9500   38.2440 C   0  0  0  0  0  0  0  0  0  0  0  0
   46.2390   31.1510   38.4710 S   0  0  0  0  0  0  0  0  0  0  0  0
   45.7780   33.1570   46.2400 C   0  0  0  0  0  0  0  0  0  0  0  0
   45.2450   33.0520   47.4710 C   0  0  0  0  0  0  0  0  0  0  0  0
   45.6070   32.0740   48.3330 C   0  0  0  0  0  0  0  0  0  0  0  0
   46.6100   31.1750   47.7940 C   0  0  0  0  0  0  0  0  0  0  0  0
   46.9280   31.8110   46.1310 S   0  0  0  0  0  0  0  0  0  0  0  0
   44.0555   36.9639   44.4449 H   0  0  0  0  0  0  0  0  0  0  0  0
   45.1040   36.4684   42.2098 H   0  0  0  0  0  0  0  0  0  0  0  0
   44.9520   33.4284   40.6992 H   0  0  0  0  0  0  0  0  0  0  0  0
   49.4895   35.0754   40.2629 H   0  0  0  0  0  0  0  0  0  0  0  0
   46.4058   33.2854   37.2950 H   0  0  0  0  0  0  0  0  0  0  0  0
   44.8878   33.1846   38.2110 H   0  0  0  0  0  0  0  0  0  0  0  0
   46.2836   30.8611   39.8092 H   0  0  0  0  0  0  0  0  0  0  0  0
   44.4894   33.7862   47.7873 H   0  0  0  0  0  0  0  0  0  0  0  0
   45.1828   31.9707   49.3426 H   0  0  0  0  0  0  0  0  0  0  0  0
   47.0716   30.3054   48.2846 H   0  0  0  0  0  0  0  0  0  0  0  0
  1  6  2  0
  2  1  1  0
  3  2  2  0
  3  4  1  0
  4  5  2  0
  5  6  1  0
  5 17  1  0
  7  3  1  0
  8  7  1  0
  9  8  2  0
 10  9  1  0
 10 12  1  0
 11 10  2  0
 12 13  1  0
 13  7  1  0
 13 14  2  0
 15 16  1  0
 15  9  1  0
 17 18  2  0
 18 19  1  0
 20 19  2  0
 21 17  1  0
 21 20  1  0
  1 22  1  0
  2 23  1  0
  8 24  1  0
 12 25  1  0
 15 26  1  0
 15 27  1  0
 16 28  1  0
 18 29  1  0
 19 30  1  0
 20 31  1  0
M  ISO  8  22  14  23  14  24  14  25   9  26   8  27   8  28  11  29  14
M  ISO  2  30  14  31  14
M  END
>  <minimizedAffinity>  (1) 
-5.7062974

>  <minimizedRMSD>  (1) 
0.109356545

$$$$
