
     RDKit          3D

 37 40  0  0  0  0  0  0  0  0999 V2000
   46.5590   34.3940   41.6340 N   0  0  0  0  0  0  0  0  0  0  0  0
   45.9640   33.8070   40.5890 C   0  0  0  0  0  0  0  0  0  0  0  0
   46.5830   33.6270   39.3680 C   0  0  0  0  0  0  0  0  0  0  0  0
   47.8780   34.1090   39.3200 C   0  0  0  0  0  0  0  0  0  0  0  0
   48.5430   33.9960   38.2360 O   0  0  0  0  0  0  0  0  0  0  0  0
   48.5140   34.7110   40.3670 N   0  0  0  0  0  0  0  0  0  0  0  0
   47.8450   34.8540   41.5370 C   0  0  0  0  0  0  0  0  0  0  0  0
   48.4690   35.4060   42.4490 O   0  0  0  0  0  0  0  0  0  0  0  0
   44.6540   36.0590   44.3210 C   0  0  0  0  0  0  0  0  0  0  0  0
   45.2420   35.7760   43.0690 C   0  0  0  0  0  0  0  0  0  0  0  0
   45.9960   34.6160   42.9070 C   0  0  0  0  0  0  0  0  0  0  0  0
   46.1350   33.7900   43.9880 N   0  0  0  0  0  0  0  0  0  0  0  0
   45.5560   34.0980   45.1690 C   0  0  0  0  0  0  0  0  0  0  0  0
   44.8290   35.2020   45.3540 N   0  0  0  0  0  0  0  0  0  0  0  0
   45.7690   33.1620   46.2510 C   0  0  0  0  0  0  0  0  0  0  0  0
   45.2430   33.0490   47.4770 C   0  0  0  0  0  0  0  0  0  0  0  0
   45.6030   32.0820   48.3350 C   0  0  0  0  0  0  0  0  0  0  0  0
   46.6040   31.1880   47.8040 C   0  0  0  0  0  0  0  0  0  0  0  0
   46.9280   31.8150   46.1410 S   0  0  0  0  0  0  0  0  0  0  0  0
   45.9270   32.9770   38.2460 C   0  0  0  0  0  0  0  0  0  0  0  0
   46.0680   31.4750   38.3840 C   0  0  0  0  0  0  0  0  0  0  0  0
   45.5600   30.5880   37.3000 C   0  0  0  0  0  0  0  0  0  0  0  0
   47.0440   30.7830   37.5280 C   0  0  0  0  0  0  0  0  0  0  0  0
   44.9304   33.4501   40.7087 H   0  0  0  0  0  0  0  0  0  0  0  0
   49.4819   35.0495   40.2700 H   0  0  0  0  0  0  0  0  0  0  0  0
   44.0560   36.9723   44.4564 H   0  0  0  0  0  0  0  0  0  0  0  0
   45.1053   36.4684   42.2253 H   0  0  0  0  0  0  0  0  0  0  0  0
   44.4840   33.7793   47.7942 H   0  0  0  0  0  0  0  0  0  0  0  0
   45.1770   31.9806   49.3441 H   0  0  0  0  0  0  0  0  0  0  0  0
   47.0652   30.3211   48.2997 H   0  0  0  0  0  0  0  0  0  0  0  0
   46.3955   33.3051   37.3064 H   0  0  0  0  0  0  0  0  0  0  0  0
   44.8608   33.2472   38.2361 H   0  0  0  0  0  0  0  0  0  0  0  0
   45.8904   31.5325   39.4681 H   0  0  0  0  0  0  0  0  0  0  0  0
   45.0746   31.0203   36.4126 H   0  0  0  0  0  0  0  0  0  0  0  0
   44.8803   29.7249   37.2448 H   0  0  0  0  0  0  0  0  0  0  0  0
   47.6505   29.9618   37.9375 H   0  0  0  0  0  0  0  0  0  0  0  0
   47.8930   31.0978   36.9034 H   0  0  0  0  0  0  0  0  0  0  0  0
  1 11  1  0
  2  1  1  0
  3  2  2  0
  4  3  1  0
  4  6  1  0
  5  4  2  0
  6  7  1  0
  7  1  1  0
  7  8  2  0
  9 14  2  0
 10  9  1  0
 11 10  2  0
 11 12  1  0
 12 13  2  0
 13 14  1  0
 13 15  1  0
 15 16  2  0
 16 17  1  0
 18 17  2  0
 19 15  1  0
 19 18  1  0
 20 21  1  0
 20  3  1  0
 22 23  1  0
 22 21  1  0
 23 21  1  0
  2 24  1  0
  6 25  1  0
  9 26  1  0
 10 27  1  0
 16 28  1  0
 17 29  1  0
 18 30  1  0
 20 31  1  0
 20 32  1  0
 21 33  1  0
 22 34  1  0
 22 35  1  0
 23 36  1  0
 23 37  1  0
M  ISO  8  24  14  25   9  26  14  27  14  28  14  29  14  30  14  31   8
M  ISO  6  32   8  33  13  34  13  35  13  36  13  37  13
M  END
>  <minimizedAffinity>  (1) 
-5.62142324

>  <minimizedRMSD>  (1) 
0.260177791

$$$$
