
     RDKit          3D

 43 46  0  0  0  0  0  0  0  0999 V2000
   46.5870   34.4250   41.6340 N   0  0  0  0  0  0  0  0  0  0  0  0
   46.0110   33.8350   40.5780 C   0  0  0  0  0  0  0  0  0  0  0  0
   46.6410   33.6690   39.3590 C   0  0  0  0  0  0  0  0  0  0  0  0
   47.9250   34.1640   39.3240 C   0  0  0  0  0  0  0  0  0  0  0  0
   48.5860   34.0560   38.2390 O   0  0  0  0  0  0  0  0  0  0  0  0
   48.5510   34.7700   40.3710 N   0  0  0  0  0  0  0  0  0  0  0  0
   47.8650   34.8980   41.5390 C   0  0  0  0  0  0  0  0  0  0  0  0
   48.4760   35.4530   42.4540 O   0  0  0  0  0  0  0  0  0  0  0  0
   44.6510   36.0400   44.3210 C   0  0  0  0  0  0  0  0  0  0  0  0
   45.2480   35.7790   43.0640 C   0  0  0  0  0  0  0  0  0  0  0  0
   46.0210   34.6340   42.9000 C   0  0  0  0  0  0  0  0  0  0  0  0
   46.1740   33.7910   43.9840 N   0  0  0  0  0  0  0  0  0  0  0  0
   45.5830   34.0890   45.1550 C   0  0  0  0  0  0  0  0  0  0  0  0
   44.8330   35.1770   45.3550 N   0  0  0  0  0  0  0  0  0  0  0  0
   45.7920   33.1450   46.2330 C   0  0  0  0  0  0  0  0  0  0  0  0
   45.2700   33.0250   47.4530 C   0  0  0  0  0  0  0  0  0  0  0  0
   45.6200   32.0390   48.3160 C   0  0  0  0  0  0  0  0  0  0  0  0
   46.6190   31.1350   47.7580 C   0  0  0  0  0  0  0  0  0  0  0  0
   46.9400   31.7820   46.1060 S   0  0  0  0  0  0  0  0  0  0  0  0
   45.9780   33.0000   38.2290 C   0  0  0  0  0  0  0  0  0  0  0  0
   47.6640   29.1300   37.5720 C   0  0  0  0  0  0  0  0  0  0  0  0
   47.5930   30.0770   36.5580 C   0  0  0  0  0  0  0  0  0  0  0  0
   47.0280   31.3050   36.8660 C   0  0  0  0  0  0  0  0  0  0  0  0
   46.5340   31.6300   38.1330 C   0  0  0  0  0  0  0  0  0  0  0  0
   46.6350   30.6490   39.0930 C   0  0  0  0  0  0  0  0  0  0  0  0
   47.1840   29.4270   38.8340 C   0  0  0  0  0  0  0  0  0  0  0  0
   48.3860   27.5860   37.1270 S   0  0  0  0  0  0  0  0  0  0  0  0
   49.5670   27.8350   36.2250 O   0  0  0  0  0  0  0  0  0  0  0  0
   48.8610   26.9070   38.3760 O   0  0  0  0  0  0  0  0  0  0  0  0
   44.9816   33.4628   40.6870 H   0  0  0  0  0  0  0  0  0  0  0  0
   49.5152   35.1210   40.2812 H   0  0  0  0  0  0  0  0  0  0  0  0
   44.0387   36.9430   44.4610 H   0  0  0  0  0  0  0  0  0  0  0  0
   45.1020   36.4751   42.2249 H   0  0  0  0  0  0  0  0  0  0  0  0
   44.5190   33.7611   47.7758 H   0  0  0  0  0  0  0  0  0  0  0  0
   45.1968   31.9329   49.3258 H   0  0  0  0  0  0  0  0  0  0  0  0
   47.0744   30.2559   48.2373 H   0  0  0  0  0  0  0  0  0  0  0  0
   44.8931   32.9534   38.4044 H   0  0  0  0  0  0  0  0  0  0  0  0
   46.1516   33.5545   37.2950 H   0  0  0  0  0  0  0  0  0  0  0  0
   47.9711   29.8605   35.5480 H   0  0  0  0  0  0  0  0  0  0  0  0
   46.9650   32.0635   36.0718 H   0  0  0  0  0  0  0  0  0  0  0  0
   46.2596   30.8576   40.1057 H   0  0  0  0  0  0  0  0  0  0  0  0
   47.2450   28.6741   39.6336 H   0  0  0  0  0  0  0  0  0  0  0  0
   47.4673   26.8031   36.4790 H   0  0  0  0  0  0  0  0  0  0  0  0
  1 11  1  0
  2  1  1  0
  3  2  2  0
  4  3  1  0
  4  6  1  0
  5  4  2  0
  6  7  1  0
  7  1  1  0
  7  8  2  0
  9 14  2  0
 10  9  1  0
 11 10  2  0
 11 12  1  0
 12 13  2  0
 13 14  1  0
 13 15  1  0
 15 16  2  0
 16 17  1  0
 18 17  2  0
 19 15  1  0
 19 18  1  0
 20  3  1  0
 21 26  2  0
 22 23  2  0
 22 21  1  0
 23 24  1  0
 24 20  1  0
 24 25  2  0
 26 25  1  0
 27 21  1  0
 27 29  2  0
 28 27  2  0
  2 30  1  0
  6 31  1  0
  9 32  1  0
 10 33  1  0
 16 34  1  0
 17 35  1  0
 18 36  1  0
 20 37  1  0
 20 38  1  0
 22 39  1  0
 23 40  1  0
 25 41  1  0
 26 42  1  0
 27 43  1  0
M  ISO  8  30  14  31   9  32  14  33  14  34  14  35  14  36  14  37   8
M  ISO  6  38   8  39  14  40  14  41  14  42  14  43  11
M  END
>  <minimizedAffinity>  (1) 
-5.49495125

>  <minimizedRMSD>  (1) 
0.220136434

$$$$
