
     RDKit          3D

 19 19  0  0  0  0  0  0  0  0999 V2000
   45.5660   34.5930   44.4600 C   0  0  0  0  0  0  0  0  0  0  0  0
   46.4980   34.2360   43.4840 C   0  0  0  0  0  0  0  0  0  0  0  0
   47.3460   33.1880   43.8250 C   0  0  0  0  0  0  0  0  0  0  0  0
   47.1940   32.6180   45.0490 N   0  0  0  0  0  0  0  0  0  0  0  0
   46.2910   32.9860   45.9550 C   0  0  0  0  0  0  0  0  0  0  0  0
   45.4740   33.9850   45.6460 N   0  0  0  0  0  0  0  0  0  0  0  0
   46.5520   34.9260   42.2240 C   0  0  0  0  0  0  0  0  0  0  0  0
   48.0310   35.2190   41.9120 C   0  0  0  0  0  0  0  0  0  0  0  0
   44.5950   35.6540   44.3030 C   0  0  0  0  0  0  0  0  0  0  0  0
   44.7770   36.8910   44.4580 O   0  0  0  0  0  0  0  0  0  0  0  0
   43.2810   35.8950   43.9850 O   0  0  0  0  0  0  0  0  0  0  0  0
   48.1162   32.8314   43.1253 H   0  0  0  0  0  0  0  0  0  0  0  0
   46.2241   32.4784   46.9286 H   0  0  0  0  0  0  0  0  0  0  0  0
   46.1204   34.2952   41.4329 H   0  0  0  0  0  0  0  0  0  0  0  0
   45.9765   35.8621   42.2731 H   0  0  0  0  0  0  0  0  0  0  0  0
   48.5894   35.3296   42.8533 H   0  0  0  0  0  0  0  0  0  0  0  0
   48.4547   34.3873   41.3299 H   0  0  0  0  0  0  0  0  0  0  0  0
   48.1056   36.1494   41.3299 H   0  0  0  0  0  0  0  0  0  0  0  0
   42.6789   35.1409   43.7638 H   0  0  0  0  0  0  0  0  0  0  0  0
  1  6  2  0
  2  3  2  0
  2  1  1  0
  3  4  1  0
  4  5  2  0
  6  5  1  0
  7  2  1  0
  8  7  1  0
  9 10  2  0
  9  1  1  0
 11  9  1  0
  3 12  1  0
  5 13  1  0
  7 14  1  0
  7 15  1  0
  8 16  1  0
  8 17  1  0
  8 18  1  0
 11 19  1  0
M  ISO  8  12  14  13  14  14   8  15   8  16   8  17   8  18   8  19   3
M  END
>  <minimizedAffinity>  (1) 
-4.29699278

>  <minimizedRMSD>  (1) 
0.962436974

$$$$
