
     RDKit          3D

 30 32  0  0  0  0  0  0  0  0999 V2000
   48.3620   32.7480   40.3970 C   0  0  0  0  0  0  0  0  0  0  0  0
   48.1710   32.6100   39.0160 C   0  0  0  0  0  0  0  0  0  0  0  0
   48.7200   31.4820   38.4130 C   0  0  0  0  0  0  0  0  0  0  0  0
   49.3940   30.6010   39.1860 N   0  0  0  0  0  0  0  0  0  0  0  0
   49.5580   30.7700   40.5220 C   0  0  0  0  0  0  0  0  0  0  0  0
   49.0400   31.8520   41.1390 N   0  0  0  0  0  0  0  0  0  0  0  0
   47.8630   33.8470   41.1650 N   0  0  0  0  0  0  0  0  0  0  0  0
   48.3600   35.0860   41.4370 C   0  0  0  0  0  0  0  0  0  0  0  0
   47.4940   35.7490   42.2180 N   0  0  0  0  0  0  0  0  0  0  0  0
   46.4240   34.9550   42.4650 C   0  0  0  0  0  0  0  0  0  0  0  0
   45.2820   35.2010   43.2150 C   0  0  0  0  0  0  0  0  0  0  0  0
   45.1560   36.3240   43.7850 O   0  0  0  0  0  0  0  0  0  0  0  0
   44.3690   34.2170   43.2900 N   0  0  0  0  0  0  0  0  0  0  0  0
   44.5940   33.0600   42.6490 C   0  0  0  0  0  0  0  0  0  0  0  0
   43.6160   32.0320   42.7410 N   0  0  0  0  0  0  0  0  0  0  0  0
   45.7050   32.8290   41.9240 N   0  0  0  0  0  0  0  0  0  0  0  0
   46.6810   33.7660   41.7920 C   0  0  0  0  0  0  0  0  0  0  0  0
   47.4280   33.6280   38.3180 C   0  0  0  0  0  0  0  0  0  0  0  0
   48.4150   34.4860   37.5350 C   0  0  0  0  0  0  0  0  0  0  0  0
   48.6080   31.3112   37.3321 H   0  0  0  0  0  0  0  0  0  0  0  0
   50.1156   30.0218   41.1045 H   0  0  0  0  0  0  0  0  0  0  0  0
   49.3203   35.4806   41.0734 H   0  0  0  0  0  0  0  0  0  0  0  0
   43.5049   34.3501   43.8345 H   0  0  0  0  0  0  0  0  0  0  0  0
   43.7652   31.1346   42.2580 H   0  0  0  0  0  0  0  0  0  0  0  0
   42.7584   32.1848   43.2906 H   0  0  0  0  0  0  0  0  0  0  0  0
   46.7126   33.1587   37.6267 H   0  0  0  0  0  0  0  0  0  0  0  0
   46.8697   34.2489   39.0340 H   0  0  0  0  0  0  0  0  0  0  0  0
   49.0545   35.0419   38.2365 H   0  0  0  0  0  0  0  0  0  0  0  0
   49.0406   33.8398   36.9017 H   0  0  0  0  0  0  0  0  0  0  0  0
   47.8622   35.1955   36.9017 H   0  0  0  0  0  0  0  0  0  0  0  0
  1  6  1  0
  1  7  1  0
  2  1  2  0
  3  2  1  0
  3  4  2  0
  4  5  1  0
  5  6  2  0
  7  8  1  0
  7 17  1  0
  8  9  2  0
  9 10  1  0
 10 11  1  0
 11 13  1  0
 11 12  2  0
 14 15  1  0
 14 13  1  0
 16 14  2  0
 17 16  1  0
 17 10  2  0
 18  2  1  0
 19 18  1  0
  3 20  1  0
  5 21  1  0
  8 22  1  0
 13 23  1  0
 15 24  1  0
 15 25  1  0
 18 26  1  0
 18 27  1  0
 19 28  1  0
 19 29  1  0
 19 30  1  0
M  ISO  8  20  14  21  14  22  14  23   9  26   8  27   8  28   8  29   8
M  ISO  1  30   8
M  END
>  <minimizedAffinity>  (1) 
-4.57559347

>  <minimizedRMSD>  (1) 
5.16565132

$$$$
