
     RDKit          3D

 29 31  0  0  0  0  0  0  0  0999 V2000
   48.7700   33.3650   42.1910 C   0  0  0  0  0  0  0  0  0  0  0  0
   48.7480   32.2100   41.3970 C   0  0  0  0  0  0  0  0  0  0  0  0
   49.9680   31.6290   41.0650 C   0  0  0  0  0  0  0  0  0  0  0  0
   51.1120   32.2060   41.5260 N   0  0  0  0  0  0  0  0  0  0  0  0
   51.0980   33.3250   42.2940 C   0  0  0  0  0  0  0  0  0  0  0  0
   49.9310   33.9120   42.6310 N   0  0  0  0  0  0  0  0  0  0  0  0
   47.5840   34.0470   42.5930 N   0  0  0  0  0  0  0  0  0  0  0  0
   46.9450   34.9510   41.7930 C   0  0  0  0  0  0  0  0  0  0  0  0
   45.8740   35.4070   42.4600 N   0  0  0  0  0  0  0  0  0  0  0  0
   45.7860   34.8280   43.6800 C   0  0  0  0  0  0  0  0  0  0  0  0
   44.9060   34.9330   44.7400 C   0  0  0  0  0  0  0  0  0  0  0  0
   45.1430   34.1740   45.8340 N   0  0  0  0  0  0  0  0  0  0  0  0
   46.2190   33.3500   45.8600 C   0  0  0  0  0  0  0  0  0  0  0  0
   47.0890   33.2420   44.8210 N   0  0  0  0  0  0  0  0  0  0  0  0
   46.8720   33.9880   43.7210 C   0  0  0  0  0  0  0  0  0  0  0  0
   43.8160   35.8380   44.5830 N   0  0  0  0  0  0  0  0  0  0  0  0
   47.4750   31.6870   40.9660 C   0  0  0  0  0  0  0  0  0  0  0  0
   47.3170   31.9530   39.4700 C   0  0  0  0  0  0  0  0  0  0  0  0
   50.0075   30.7225   40.4431 H   0  0  0  0  0  0  0  0  0  0  0  0
   52.0468   33.7572   42.6448 H   0  0  0  0  0  0  0  0  0  0  0  0
   47.2538   35.2519   40.7810 H   0  0  0  0  0  0  0  0  0  0  0  0
   46.3957   32.7429   46.7601 H   0  0  0  0  0  0  0  0  0  0  0  0
   43.1302   35.9549   45.3425 H   0  0  0  0  0  0  0  0  0  0  0  0
   43.7142   36.3750   43.7100 H   0  0  0  0  0  0  0  0  0  0  0  0
   47.4365   30.6041   41.1555 H   0  0  0  0  0  0  0  0  0  0  0  0
   46.6614   32.1764   41.5215 H   0  0  0  0  0  0  0  0  0  0  0  0
   46.7604   32.8900   39.3210 H   0  0  0  0  0  0  0  0  0  0  0  0
   48.3106   32.0389   39.0059 H   0  0  0  0  0  0  0  0  0  0  0  0
   46.7662   31.1216   39.0059 H   0  0  0  0  0  0  0  0  0  0  0  0
  1  7  1  0
  1  6  1  0
  2  1  2  0
  3  2  1  0
  3  4  2  0
  4  5  1  0
  5  6  2  0
  7 15  1  0
  8  9  2  0
  8  7  1  0
  9 10  1  0
 10 15  2  0
 10 11  1  0
 11 12  2  0
 12 13  1  0
 14 13  2  0
 15 14  1  0
 16 11  1  0
 17  2  1  0
 18 17  1  0
  3 19  1  0
  5 20  1  0
  8 21  1  0
 13 22  1  0
 16 23  1  0
 16 24  1  0
 17 25  1  0
 17 26  1  0
 18 27  1  0
 18 28  1  0
 18 29  1  0
M  ISO  8  19  14  20  14  21  14  22  14  25   8  26   8  27   8  28   8
M  ISO  1  29   8
M  END
>  <minimizedAffinity>  (1) 
-5.00435162

>  <minimizedRMSD>  (1) 
5.05518389

$$$$
