
     RDKit          3D

 28 29  0  0  0  0  0  0  0  0999 V2000
   46.6670   34.3760   43.4530 C   0  0  0  0  0  0  0  0  0  0  0  0
   46.2110   33.8710   44.6740 C   0  0  0  0  0  0  0  0  0  0  0  0
   45.1220   34.5090   45.2630 C   0  0  0  0  0  0  0  0  0  0  0  0
   44.5750   35.5750   44.6190 N   0  0  0  0  0  0  0  0  0  0  0  0
   45.0330   36.0370   43.4490 C   0  0  0  0  0  0  0  0  0  0  0  0
   46.0820   35.4430   42.8570 N   0  0  0  0  0  0  0  0  0  0  0  0
   47.7650   33.8360   42.7280 N   0  0  0  0  0  0  0  0  0  0  0  0
   48.0180   32.6700   41.8690 C   0  0  0  0  0  0  0  0  0  0  0  0
   49.4030   32.2580   42.3890 C   0  0  0  0  0  0  0  0  0  0  0  0
   50.0930   33.5990   42.2500 C   0  0  0  0  0  0  0  0  0  0  0  0
   49.0340   34.5390   42.7720 C   0  0  0  0  0  0  0  0  0  0  0  0
   46.8810   32.7310   45.2530 C   0  0  0  0  0  0  0  0  0  0  0  0
   46.6650   32.7610   46.7700 C   0  0  0  0  0  0  0  0  0  0  0  0
   44.7150   34.1601   46.2235 H   0  0  0  0  0  0  0  0  0  0  0  0
   44.5502   36.9030   42.9726 H   0  0  0  0  0  0  0  0  0  0  0  0
   48.0459   32.9447   40.8042 H   0  0  0  0  0  0  0  0  0  0  0  0
   47.2508   31.8831   41.9148 H   0  0  0  0  0  0  0  0  0  0  0  0
   49.3697   31.9137   43.4332 H   0  0  0  0  0  0  0  0  0  0  0  0
   49.8809   31.4149   41.8686 H   0  0  0  0  0  0  0  0  0  0  0  0
   51.0072   33.6454   42.8599 H   0  0  0  0  0  0  0  0  0  0  0  0
   50.4292   33.8261   41.2275 H   0  0  0  0  0  0  0  0  0  0  0  0
   48.9867   35.4388   42.1410 H   0  0  0  0  0  0  0  0  0  0  0  0
   49.2674   34.8521   43.8003 H   0  0  0  0  0  0  0  0  0  0  0  0
   46.4621   31.8031   44.8365 H   0  0  0  0  0  0  0  0  0  0  0  0
   47.9562   32.7684   45.0239 H   0  0  0  0  0  0  0  0  0  0  0  0
   47.6301   32.6270   47.2805 H   0  0  0  0  0  0  0  0  0  0  0  0
   46.2285   33.7284   47.0592 H   0  0  0  0  0  0  0  0  0  0  0  0
   45.9814   31.9492   47.0592 H   0  0  0  0  0  0  0  0  0  0  0  0
  1  2  2  0
  2 12  1  0
  2  3  1  0
  4  3  2  0
  5  4  1  0
  6  5  2  0
  6  1  1  0
  7 11  1  0
  7  1  1  0
  8  9  1  0
  8  7  1  0
 10  9  1  0
 10 11  1  0
 12 13  1  0
  3 14  1  0
  5 15  1  0
  8 16  1  0
  8 17  1  0
  9 18  1  0
  9 19  1  0
 10 20  1  0
 10 21  1  0
 11 22  1  0
 11 23  1  0
 12 24  1  0
 12 25  1  0
 13 26  1  0
 13 27  1  0
 13 28  1  0
M  ISO  8  14  14  15  14  16  13  17  13  18  13  19  13  20  13  21  13
M  ISO  7  22  13  23  13  24   8  25   8  26   8  27   8  28   8
M  END
>  <minimizedAffinity>  (1) 
-4.08659506

>  <minimizedRMSD>  (1) 
4.73246241

$$$$
