
     RDKit          3D

 30 31  0  0  0  0  0  0  0  0999 V2000
   45.9170   33.4010   45.9010 C   0  0  0  0  0  0  0  0  0  0  0  0
   46.3850   33.5330   44.5810 C   0  0  0  0  0  0  0  0  0  0  0  0
   45.8690   34.5920   43.8420 C   0  0  0  0  0  0  0  0  0  0  0  0
   44.9690   35.4110   44.4240 N   0  0  0  0  0  0  0  0  0  0  0  0
   44.5440   35.2520   45.6920 C   0  0  0  0  0  0  0  0  0  0  0  0
   45.0180   34.2490   46.4260 N   0  0  0  0  0  0  0  0  0  0  0  0
   46.3410   32.3750   46.7940 N   0  0  0  0  0  0  0  0  0  0  0  0
   47.5230   32.1630   47.5950 C   0  0  0  0  0  0  0  0  0  0  0  0
   47.0940   31.8990   49.0180 C   0  0  0  0  0  0  0  0  0  0  0  0
   45.7030   32.2420   49.1820 N   0  0  0  0  0  0  0  0  0  0  0  0
   44.8810   31.2960   48.4330 C   0  0  0  0  0  0  0  0  0  0  0  0
   45.4470   31.2500   47.0090 C   0  0  0  0  0  0  0  0  0  0  0  0
   47.3540   32.5820   44.0890 C   0  0  0  0  0  0  0  0  0  0  0  0
   48.2860   33.2840   43.1210 C   0  0  0  0  0  0  0  0  0  0  0  0
   46.1887   34.7586   42.8027 H   0  0  0  0  0  0  0  0  0  0  0  0
   43.8078   35.9488   46.1190 H   0  0  0  0  0  0  0  0  0  0  0  0
   48.0828   31.2982   47.2093 H   0  0  0  0  0  0  0  0  0  0  0  0
   48.1710   33.0510   47.5544 H   0  0  0  0  0  0  0  0  0  0  0  0
   47.2369   30.8334   49.2505 H   0  0  0  0  0  0  0  0  0  0  0  0
   47.7015   32.5126   49.6996 H   0  0  0  0  0  0  0  0  0  0  0  0
   45.4535   32.1992   50.1804 H   0  0  0  0  0  0  0  0  0  0  0  0
   44.9349   30.2990   48.8945 H   0  0  0  0  0  0  0  0  0  0  0  0
   43.8257   31.6062   48.4290 H   0  0  0  0  0  0  0  0  0  0  0  0
   44.6193   31.2989   46.2861 H   0  0  0  0  0  0  0  0  0  0  0  0
   46.0062   30.3126   46.8724 H   0  0  0  0  0  0  0  0  0  0  0  0
   47.9339   32.1769   44.9314 H   0  0  0  0  0  0  0  0  0  0  0  0
   46.8381   31.7568   43.5763 H   0  0  0  0  0  0  0  0  0  0  0  0
   49.0403   33.8522   43.6851 H   0  0  0  0  0  0  0  0  0  0  0  0
   48.7873   32.5372   42.4878 H   0  0  0  0  0  0  0  0  0  0  0  0
   47.7066   33.9720   42.4878 H   0  0  0  0  0  0  0  0  0  0  0  0
  1  6  1  0
  1  7  1  0
  2  1  2  0
  3  4  2  0
  3  2  1  0
  4  5  1  0
  5  6  2  0
  7 12  1  0
  7  8  1  0
  8  9  1  0
  9 10  1  0
 11 10  1  0
 12 11  1  0
 13  2  1  0
 14 13  1  0
  3 15  1  0
  5 16  1  0
  8 17  1  0
  8 18  1  0
  9 19  1  0
  9 20  1  0
 10 21  1  0
 11 22  1  0
 11 23  1  0
 12 24  1  0
 12 25  1  0
 13 26  1  0
 13 27  1  0
 14 28  1  0
 14 29  1  0
 14 30  1  0
M  ISO  8  15  14  16  14  17  13  18  13  19  13  20  13  21   5  22  13
M  ISO  8  23  13  24  13  25  13  26   8  27   8  28   8  29   8  30   8
M  END
>  <minimizedAffinity>  (1) 
-4.19058275

>  <minimizedRMSD>  (1) 
5.53396988

$$$$
