
     RDKit          3D

 23 24  0  0  0  0  0  0  0  0999 V2000
   46.7130   34.5880   43.1670 C   0  0  0  0  0  0  0  0  0  0  0  0
   46.3420   33.8890   44.3190 C   0  0  0  0  0  0  0  0  0  0  0  0
   45.2520   34.3720   45.0410 C   0  0  0  0  0  0  0  0  0  0  0  0
   44.6080   35.4870   44.5950 N   0  0  0  0  0  0  0  0  0  0  0  0
   44.9970   36.1360   43.4730 C   0  0  0  0  0  0  0  0  0  0  0  0
   46.0350   35.6900   42.7730 N   0  0  0  0  0  0  0  0  0  0  0  0
   47.0820   32.7170   44.7120 C   0  0  0  0  0  0  0  0  0  0  0  0
   46.8620   32.4330   46.1810 C   0  0  0  0  0  0  0  0  0  0  0  0
   47.8680   34.1410   42.3360 C   0  0  0  0  0  0  0  0  0  0  0  0
   48.3640   35.1490   41.3740 C   0  0  0  0  0  0  0  0  0  0  0  0
   49.1900   34.8080   42.5600 C   0  0  0  0  0  0  0  0  0  0  0  0
   44.9171   33.8614   45.9560 H   0  0  0  0  0  0  0  0  0  0  0  0
   44.4539   37.0329   43.1403 H   0  0  0  0  0  0  0  0  0  0  0  0
   46.7406   31.8553   44.1196 H   0  0  0  0  0  0  0  0  0  0  0  0
   48.1536   32.8912   44.5351 H   0  0  0  0  0  0  0  0  0  0  0  0
   47.4256   33.1605   46.7835 H   0  0  0  0  0  0  0  0  0  0  0  0
   45.7902   32.5160   46.4140 H   0  0  0  0  0  0  0  0  0  0  0  0
   47.2102   31.4159   46.4140 H   0  0  0  0  0  0  0  0  0  0  0  0
   47.5416   33.0914   42.2946 H   0  0  0  0  0  0  0  0  0  0  0  0
   48.6895   34.8358   40.3710 H   0  0  0  0  0  0  0  0  0  0  0  0
   47.9606   36.0825   40.9546 H   0  0  0  0  0  0  0  0  0  0  0  0
   49.3094   35.5354   43.3765 H   0  0  0  0  0  0  0  0  0  0  0  0
   50.2220   34.4624   42.7198 H   0  0  0  0  0  0  0  0  0  0  0  0
  1  2  2  0
  2  7  1  0
  2  3  1  0
  4  3  2  0
  5  4  1  0
  6  1  1  0
  6  5  2  0
  7  8  1  0
  9 11  1  0
  9  1  1  0
 10  9  1  0
 10 11  1  0
  3 12  1  0
  5 13  1  0
  7 14  1  0
  7 15  1  0
  8 16  1  0
  8 17  1  0
  8 18  1  0
  9 19  1  0
 10 20  1  0
 10 21  1  0
 11 22  1  0
 11 23  1  0
M  ISO  8  12  14  13  14  14   8  15   8  16   8  17   8  18   8  19  13
M  ISO  4  20  13  21  13  22  13  23  13
M  END
>  <minimizedAffinity>  (1) 
-3.99640179

>  <minimizedRMSD>  (1) 
3.90391278

$$$$
