
     RDKit          3D

 21 22  0  0  0  0  0  0  0  0999 V2000
   46.6700   34.5360   43.3340 C   0  0  0  0  0  0  0  0  0  0  0  0
   46.2330   33.9270   44.5320 C   0  0  0  0  0  0  0  0  0  0  0  0
   45.1240   34.4920   45.1520 C   0  0  0  0  0  0  0  0  0  0  0  0
   44.5420   35.5710   44.5800 N   0  0  0  0  0  0  0  0  0  0  0  0
   44.9800   36.1230   43.4460 C   0  0  0  0  0  0  0  0  0  0  0  0
   46.0380   35.6120   42.8230 N   0  0  0  0  0  0  0  0  0  0  0  0
   47.8380   34.0300   42.5800 C   0  0  0  0  0  0  0  0  0  0  0  0
   49.1610   34.2180   42.6950 N   0  0  0  0  0  0  0  0  0  0  0  0
   49.7300   33.5300   41.7650 O   0  0  0  0  0  0  0  0  0  0  0  0
   48.8240   32.9080   41.0570 C   0  0  0  0  0  0  0  0  0  0  0  0
   47.5990   33.1980   41.5420 N   0  0  0  0  0  0  0  0  0  0  0  0
   46.9440   32.7690   45.0470 C   0  0  0  0  0  0  0  0  0  0  0  0
   46.7020   32.7020   46.5570 C   0  0  0  0  0  0  0  0  0  0  0  0
   44.7283   34.0705   46.0878 H   0  0  0  0  0  0  0  0  0  0  0  0
   44.4658   37.0005   43.0270 H   0  0  0  0  0  0  0  0  0  0  0  0
   49.0287   32.2505   40.1992 H   0  0  0  0  0  0  0  0  0  0  0  0
   46.5660   31.8543   44.5669 H   0  0  0  0  0  0  0  0  0  0  0  0
   48.0199   32.8541   44.8346 H   0  0  0  0  0  0  0  0  0  0  0  0
   47.6300   32.9589   47.0888 H   0  0  0  0  0  0  0  0  0  0  0  0
   45.9114   33.4150   46.8336 H   0  0  0  0  0  0  0  0  0  0  0  0
   46.3907   31.6839   46.8336 H   0  0  0  0  0  0  0  0  0  0  0  0
  1  2  2  0
  2 12  1  0
  2  3  1  0
  4  3  2  0
  5  4  1  0
  6  1  1  0
  6  5  2  0
  7  8  2  0
  7  1  1  0
  9  8  1  0
 10 11  2  0
 10  9  1  0
 11  7  1  0
 12 13  1  0
  3 14  1  0
  5 15  1  0
 10 16  1  0
 12 17  1  0
 12 18  1  0
 13 19  1  0
 13 20  1  0
 13 21  1  0
M  ISO  8  14  14  15  14  16  14  17   8  18   8  19   8  20   8  21   8
M  END
>  <minimizedAffinity>  (1) 
-3.86586761

>  <minimizedRMSD>  (1) 
4.6475997

$$$$
