
     RDKit          3D

 17 17  0  0  0  0  0  0  0  0999 V2000
   45.1510   35.2780   44.1060 C   0  0  0  0  0  0  0  0  0  0  0  0
   46.1770   34.6380   43.3990 C   0  0  0  0  0  0  0  0  0  0  0  0
   46.8430   33.6080   44.0500 C   0  0  0  0  0  0  0  0  0  0  0  0
   46.4850   33.2740   45.3060 N   0  0  0  0  0  0  0  0  0  0  0  0
   45.4850   33.9130   45.9660 C   0  0  0  0  0  0  0  0  0  0  0  0
   44.8210   34.9120   45.3670 N   0  0  0  0  0  0  0  0  0  0  0  0
   46.4800   35.0740   42.0580 C   0  0  0  0  0  0  0  0  0  0  0  0
   47.9890   35.2240   41.9170 C   0  0  0  0  0  0  0  0  0  0  0  0
   44.4660   36.3150   43.4770 O   0  0  0  0  0  0  0  0  0  0  0  0
   47.6572   33.0683   43.5442 H   0  0  0  0  0  0  0  0  0  0  0  0
   45.2202   33.6116   46.9902 H   0  0  0  0  0  0  0  0  0  0  0  0
   46.1139   34.3292   41.3360 H   0  0  0  0  0  0  0  0  0  0  0  0
   45.9895   36.0385   41.8600 H   0  0  0  0  0  0  0  0  0  0  0  0
   48.4478   35.2696   42.9157 H   0  0  0  0  0  0  0  0  0  0  0  0
   48.3934   34.3616   41.3667 H   0  0  0  0  0  0  0  0  0  0  0  0
   48.2157   36.1491   41.3667 H   0  0  0  0  0  0  0  0  0  0  0  0
   44.7089   36.5810   42.5549 H   0  0  0  0  0  0  0  0  0  0  0  0
  1  6  2  0
  2  3  2  0
  2  1  1  0
  3  4  1  0
  4  5  2  0
  6  5  1  0
  7  2  1  0
  8  7  1  0
  9  1  1  0
  3 10  1  0
  5 11  1  0
  7 12  1  0
  7 13  1  0
  8 14  1  0
  8 15  1  0
  8 16  1  0
  9 17  1  0
M  ISO  8  10  14  11  14  12   8  13   8  14   8  15   8  16   8  17   3
M  END
>  <minimizedAffinity>  (1) 
-3.57125235

>  <minimizedRMSD>  (1) 
0.0857358947

$$$$
