
     RDKit          3D

 37 39  0  0  0  0  0  0  0  0999 V2000
   44.9920   35.0210   43.3010 C   0  0  0  0  0  0  0  0  0  0  0  0
   45.8010   33.9030   43.5680 C   0  0  0  0  0  0  0  0  0  0  0  0
   45.9650   33.5610   44.8990 C   0  0  0  0  0  0  0  0  0  0  0  0
   45.3420   34.3140   45.8650 N   0  0  0  0  0  0  0  0  0  0  0  0
   44.5730   35.3820   45.5640 C   0  0  0  0  0  0  0  0  0  0  0  0
   44.4030   35.7280   44.2860 N   0  0  0  0  0  0  0  0  0  0  0  0
   44.7080   35.5240   41.9860 N   0  0  0  0  0  0  0  0  0  0  0  0
   43.3920   35.4220   41.3930 C   0  0  0  0  0  0  0  0  0  0  0  0
   42.3790   35.3150   42.2070 N   0  0  0  0  0  0  0  0  0  0  0  0
   43.2000   35.4390   39.9630 N   0  0  0  0  0  0  0  0  0  0  0  0
   41.4270   35.2410   41.7740 H   0  0  0  0  0  0  0  0  0  0  0  0
   46.3980   33.1960   42.4680 C   0  0  0  0  0  0  0  0  0  0  0  0
   47.8350   33.7010   42.3070 C   0  0  0  0  0  0  0  0  0  0  0  0
   48.5110   32.8690   41.2800 C   0  0  0  0  0  0  0  0  0  0  0  0
   49.1920   31.6630   41.4060 C   0  0  0  0  0  0  0  0  0  0  0  0
   49.6460   31.2750   40.1830 N   0  0  0  0  0  0  0  0  0  0  0  0
   49.2850   32.1880   39.2660 C   0  0  0  0  0  0  0  0  0  0  0  0
   49.4460   32.3520   37.9070 C   0  0  0  0  0  0  0  0  0  0  0  0
   48.9630   33.4140   37.1810 C   0  0  0  0  0  0  0  0  0  0  0  0
   48.2550   34.4110   37.8560 C   0  0  0  0  0  0  0  0  0  0  0  0
   48.0830   34.2650   39.2210 C   0  0  0  0  0  0  0  0  0  0  0  0
   48.5810   33.1860   39.9210 C   0  0  0  0  0  0  0  0  0  0  0  0
   46.5860   32.6976   45.1800 H   0  0  0  0  0  0  0  0  0  0  0  0
   44.0908   35.9619   46.3647 H   0  0  0  0  0  0  0  0  0  0  0  0
   45.4644   35.9711   41.4485 H   0  0  0  0  0  0  0  0  0  0  0  0
   42.2509   35.3646   39.5699 H   0  0  0  0  0  0  0  0  0  0  0  0
   44.0121   35.5255   39.3353 H   0  0  0  0  0  0  0  0  0  0  0  0
   46.4027   32.1160   42.6765 H   0  0  0  0  0  0  0  0  0  0  0  0
   45.8254   33.3701   41.5451 H   0  0  0  0  0  0  0  0  0  0  0  0
   47.8254   34.7530   41.9857 H   0  0  0  0  0  0  0  0  0  0  0  0
   48.3708   33.6288   43.2649 H   0  0  0  0  0  0  0  0  0  0  0  0
   49.3402   31.1102   42.3454 H   0  0  0  0  0  0  0  0  0  0  0  0
   50.1819   30.4166   39.9908 H   0  0  0  0  0  0  0  0  0  0  0  0
   50.0027   31.5747   37.3630 H   0  0  0  0  0  0  0  0  0  0  0  0
   49.1297   33.4774   36.0956 H   0  0  0  0  0  0  0  0  0  0  0  0
   47.8484   35.2819   37.3210 H   0  0  0  0  0  0  0  0  0  0  0  0
   47.5273   35.0398   39.7695 H   0  0  0  0  0  0  0  0  0  0  0  0
  1  2  2  0
  1  6  1  0
  2  3  1  0
  3  4  2  0
  5  4  1  0
  6  5  2  0
  7  1  1  0
  8  7  1  0
  8  9  2  0
 10  8  1  0
 11  9  1  0
 12  2  1  0
 13 12  1  0
 14 15  2  0
 14 13  1  0
 16 15  1  0
 17 22  2  0
 17 16  1  0
 18 17  1  0
 19 20  1  0
 19 18  2  0
 20 21  2  0
 21 22  1  0
 22 14  1  0
  3 23  1  0
  5 24  1  0
  7 25  1  0
 10 26  1  0
 10 27  1  0
 12 28  1  0
 12 29  1  0
 13 30  1  0
 13 31  1  0
 15 32  1  0
 16 33  1  0
 18 34  1  0
 19 35  1  0
 20 36  1  0
 21 37  1  0
M  ISO  8  23  14  24  14  28   8  29   8  30   8  31   8  32  14  33   9
M  ISO  4  34  14  35  14  36  14  37  14
M  END
>  <minimizedAffinity>  (1) 
-5.49396801

>  <minimizedRMSD>  (1) 
0.578861594

$$$$
