
     RDKit          3D

 36 38  0  0  0  0  0  0  0  0999 V2000
   46.1460   32.9340   42.4980 C   0  0  0  0  0  0  0  0  0  0  0  0
   44.9330   34.9150   43.2820 C   0  0  0  0  0  0  0  0  0  0  0  0
   45.6310   33.7430   43.5650 C   0  0  0  0  0  0  0  0  0  0  0  0
   45.7890   33.4160   44.9120 C   0  0  0  0  0  0  0  0  0  0  0  0
   45.2610   34.2500   45.8680 N   0  0  0  0  0  0  0  0  0  0  0  0
   44.5980   35.3680   45.5540 C   0  0  0  0  0  0  0  0  0  0  0  0
   44.4380   35.6920   44.2780 N   0  0  0  0  0  0  0  0  0  0  0  0
   44.6750   35.4050   41.9660 N   0  0  0  0  0  0  0  0  0  0  0  0
   43.3660   35.3860   41.3790 C   0  0  0  0  0  0  0  0  0  0  0  0
   42.3420   35.3650   42.2010 N   0  0  0  0  0  0  0  0  0  0  0  0
   43.1660   35.3900   39.9500 N   0  0  0  0  0  0  0  0  0  0  0  0
   41.3950   35.3670   41.7660 H   0  0  0  0  0  0  0  0  0  0  0  0
   47.6340   33.3070   42.2810 C   0  0  0  0  0  0  0  0  0  0  0  0
   47.8810   33.2870   40.8510 N   0  0  0  0  0  0  0  0  0  0  0  0
   47.0880   33.9460   39.9700 C   0  0  0  0  0  0  0  0  0  0  0  0
   47.5680   33.7410   38.7140 N   0  0  0  0  0  0  0  0  0  0  0  0
   48.6710   32.9490   38.7840 C   0  0  0  0  0  0  0  0  0  0  0  0
   49.5870   32.3900   37.9230 C   0  0  0  0  0  0  0  0  0  0  0  0
   50.5990   31.6200   38.3730 N   0  0  0  0  0  0  0  0  0  0  0  0
   50.7520   31.3710   39.6770 C   0  0  0  0  0  0  0  0  0  0  0  0
   49.8700   31.9020   40.5640 N   0  0  0  0  0  0  0  0  0  0  0  0
   48.8400   32.6830   40.1280 C   0  0  0  0  0  0  0  0  0  0  0  0
   49.4170   32.6620   36.5370 N   0  0  0  0  0  0  0  0  0  0  0  0
   46.0641   31.8700   42.7648 H   0  0  0  0  0  0  0  0  0  0  0  0
   45.5721   33.1111   41.5765 H   0  0  0  0  0  0  0  0  0  0  0  0
   46.3287   32.5033   45.2047 H   0  0  0  0  0  0  0  0  0  0  0  0
   44.1894   36.0125   46.3462 H   0  0  0  0  0  0  0  0  0  0  0  0
   45.4585   35.7867   41.4171 H   0  0  0  0  0  0  0  0  0  0  0  0
   42.2113   35.3759   39.5636 H   0  0  0  0  0  0  0  0  0  0  0  0
   43.9779   35.4069   39.3164 H   0  0  0  0  0  0  0  0  0  0  0  0
   47.8326   34.3114   42.6831 H   0  0  0  0  0  0  0  0  0  0  0  0
   48.2930   32.5951   42.7995 H   0  0  0  0  0  0  0  0  0  0  0  0
   46.2034   34.5466   40.2283 H   0  0  0  0  0  0  0  0  0  0  0  0
   51.5835   30.7426   40.0288 H   0  0  0  0  0  0  0  0  0  0  0  0
   48.6354   33.2533   36.2203 H   0  0  0  0  0  0  0  0  0  0  0  0
   50.0755   32.2676   35.8502 H   0  0  0  0  0  0  0  0  0  0  0  0
  1  3  1  0
  2  3  2  0
  2  7  1  0
  3  4  1  0
  4  5  2  0
  6  5  1  0
  7  6  2  0
  8  2  1  0
  9  8  1  0
  9 10  2  0
 11  9  1  0
 12 10  1  0
 13  1  1  0
 14 13  1  0
 15 14  1  0
 16 17  1  0
 16 15  2  0
 17 22  2  0
 18 19  2  0
 18 17  1  0
 19 20  1  0
 20 21  2  0
 22 21  1  0
 22 14  1  0
 23 18  1  0
  1 24  1  0
  1 25  1  0
  4 26  1  0
  6 27  1  0
  8 28  1  0
 11 29  1  0
 11 30  1  0
 13 31  1  0
 13 32  1  0
 15 33  1  0
 20 34  1  0
 23 35  1  0
 23 36  1  0
M  ISO  8  24   8  25   8  26  14  27  14  31   8  32   8  33  14  34  14
M  END
>  <minimizedAffinity>  (1) 
-5.44630098

>  <minimizedRMSD>  (1) 
1.93272841

$$$$
