
     RDKit          3D

 33 34  0  0  0  0  0  0  0  0999 V2000
   45.1410   34.9450   43.5720 C   0  0  0  0  0  0  0  0  0  0  0  0
   45.9610   33.8650   43.8710 C   0  0  0  0  0  0  0  0  0  0  0  0
   46.0530   33.4880   45.1950 C   0  0  0  0  0  0  0  0  0  0  0  0
   45.3410   34.1850   46.1420 N   0  0  0  0  0  0  0  0  0  0  0  0
   44.5500   35.2370   45.8130 C   0  0  0  0  0  0  0  0  0  0  0  0
   44.4560   35.6030   44.5510 N   0  0  0  0  0  0  0  0  0  0  0  0
   44.9210   35.4800   42.2570 N   0  0  0  0  0  0  0  0  0  0  0  0
   43.6490   35.4130   41.6040 C   0  0  0  0  0  0  0  0  0  0  0  0
   42.5890   35.3080   42.3580 N   0  0  0  0  0  0  0  0  0  0  0  0
   43.5160   35.4570   40.1680 N   0  0  0  0  0  0  0  0  0  0  0  0
   41.6670   35.2180   41.8730 H   0  0  0  0  0  0  0  0  0  0  0  0
   46.6590   33.2080   42.8010 C   0  0  0  0  0  0  0  0  0  0  0  0
   48.1340   33.6110   42.8480 C   0  0  0  0  0  0  0  0  0  0  0  0
   48.8570   32.8880   41.7990 N   0  0  0  0  0  0  0  0  0  0  0  0
   48.2110   32.1260   40.8750 C   0  0  0  0  0  0  0  0  0  0  0  0
   48.9730   31.4810   39.9230 C   0  0  0  0  0  0  0  0  0  0  0  0
   50.3660   31.5970   39.8980 C   0  0  0  0  0  0  0  0  0  0  0  0
   51.0840   31.0300   39.0570 O   0  0  0  0  0  0  0  0  0  0  0  0
   50.9830   32.3650   40.8350 N   0  0  0  0  0  0  0  0  0  0  0  0
   50.1930   32.9730   41.7400 C   0  0  0  0  0  0  0  0  0  0  0  0
   50.7810   33.6870   42.6090 O   0  0  0  0  0  0  0  0  0  0  0  0
   46.6885   32.6398   45.4893 H   0  0  0  0  0  0  0  0  0  0  0  0
   43.9931   35.7786   46.5918 H   0  0  0  0  0  0  0  0  0  0  0  0
   45.7076   35.9283   41.7659 H   0  0  0  0  0  0  0  0  0  0  0  0
   42.5826   35.4061   39.7354 H   0  0  0  0  0  0  0  0  0  0  0  0
   44.3544   35.5393   39.5754 H   0  0  0  0  0  0  0  0  0  0  0  0
   46.2245   33.5102   41.8367 H   0  0  0  0  0  0  0  0  0  0  0  0
   46.5677   32.1174   42.9117 H   0  0  0  0  0  0  0  0  0  0  0  0
   48.2263   34.6943   42.6807 H   0  0  0  0  0  0  0  0  0  0  0  0
   48.5573   33.3616   43.8322 H   0  0  0  0  0  0  0  0  0  0  0  0
   47.1155   32.0274   40.8868 H   0  0  0  0  0  0  0  0  0  0  0  0
   48.4725   30.8604   39.1652 H   0  0  0  0  0  0  0  0  0  0  0  0
   52.0068   32.4765   40.8517 H   0  0  0  0  0  0  0  0  0  0  0  0
  1  2  2  0
  1  6  1  0
  2  3  1  0
  3  4  2  0
  5  4  1  0
  6  5  2  0
  7  1  1  0
  8  7  1  0
  8  9  2  0
 10  8  1  0
 11  9  1  0
 12 13  1  0
 12  2  1  0
 14 13  1  0
 15 14  1  0
 16 15  2  0
 17 16  1  0
 17 19  1  0
 18 17  2  0
 19 20  1  0
 20 14  1  0
 20 21  2  0
  3 22  1  0
  5 23  1  0
  7 24  1  0
 10 25  1  0
 10 26  1  0
 12 27  1  0
 12 28  1  0
 13 29  1  0
 13 30  1  0
 15 31  1  0
 16 32  1  0
 19 33  1  0
M  ISO  8  22  14  23  14  27   8  28   8  29   8  30   8  31  14  32  14
M  ISO  1  33   9
M  END
>  <minimizedAffinity>  (1) 
-5.238801

>  <minimizedRMSD>  (1) 
0.649128318

$$$$
