
     RDKit          3D

 34 35  0  0  0  0  0  0  0  0999 V2000
   44.9280   34.8240   43.4020 C   0  0  0  0  0  0  0  0  0  0  0  0
   45.5260   33.6240   43.7610 C   0  0  0  0  0  0  0  0  0  0  0  0
   45.6260   33.3560   45.1240 C   0  0  0  0  0  0  0  0  0  0  0  0
   45.1370   34.2790   46.0210 N   0  0  0  0  0  0  0  0  0  0  0  0
   44.5600   35.4370   45.6210 C   0  0  0  0  0  0  0  0  0  0  0  0
   44.4610   35.6990   44.3210 N   0  0  0  0  0  0  0  0  0  0  0  0
   44.7470   35.2510   42.0490 N   0  0  0  0  0  0  0  0  0  0  0  0
   43.4580   35.3210   41.4160 C   0  0  0  0  0  0  0  0  0  0  0  0
   42.4160   35.4430   42.2100 N   0  0  0  0  0  0  0  0  0  0  0  0
   43.2980   35.2630   39.9870 N   0  0  0  0  0  0  0  0  0  0  0  0
   41.4860   35.4940   41.7490 H   0  0  0  0  0  0  0  0  0  0  0  0
   46.0070   32.7240   42.7670 C   0  0  0  0  0  0  0  0  0  0  0  0
   47.5340   32.9130   42.6150 C   0  0  0  0  0  0  0  0  0  0  0  0
   47.8300   33.3160   41.2530 N   0  0  0  0  0  0  0  0  0  0  0  0
   47.8510   32.3610   40.2870 C   0  0  0  0  0  0  0  0  0  0  0  0
   48.1320   32.7370   38.9900 C   0  0  0  0  0  0  0  0  0  0  0  0
   48.3760   34.0740   38.7600 C   0  0  0  0  0  0  0  0  0  0  0  0
   48.6730   34.5410   37.4500 N   0  0  0  0  0  0  0  0  0  0  0  0
   48.3430   34.9870   39.7600 N   0  0  0  0  0  0  0  0  0  0  0  0
   48.0700   34.6270   41.0220 C   0  0  0  0  0  0  0  0  0  0  0  0
   48.0300   35.4410   41.9770 O   0  0  0  0  0  0  0  0  0  0  0  0
   46.0879   32.4225   45.4780 H   0  0  0  0  0  0  0  0  0  0  0  0
   44.1774   36.1530   46.3633 H   0  0  0  0  0  0  0  0  0  0  0  0
   45.5779   35.5206   41.5033 H   0  0  0  0  0  0  0  0  0  0  0  0
   42.3570   35.3164   39.5716 H   0  0  0  0  0  0  0  0  0  0  0  0
   44.1245   35.1681   39.3797 H   0  0  0  0  0  0  0  0  0  0  0  0
   45.7918   31.6890   43.0711 H   0  0  0  0  0  0  0  0  0  0  0  0
   45.5094   32.9287   41.8076 H   0  0  0  0  0  0  0  0  0  0  0  0
   47.8801   33.6901   43.3124 H   0  0  0  0  0  0  0  0  0  0  0  0
   48.0485   31.9675   42.8415 H   0  0  0  0  0  0  0  0  0  0  0  0
   47.6479   31.3086   40.5343 H   0  0  0  0  0  0  0  0  0  0  0  0
   48.1602   32.0006   38.1733 H   0  0  0  0  0  0  0  0  0  0  0  0
   48.8538   35.5421   37.2888 H   0  0  0  0  0  0  0  0  0  0  0  0
   48.7073   33.8781   36.6624 H   0  0  0  0  0  0  0  0  0  0  0  0
  1  2  2  0
  1  6  1  0
  2  3  1  0
  3  4  2  0
  5  4  1  0
  6  5  2  0
  7  1  1  0
  8  7  1  0
  8  9  2  0
 10  8  1  0
 11  9  1  0
 12  2  1  0
 13 12  1  0
 14 13  1  0
 15 14  1  0
 16 15  2  0
 17 16  1  0
 17 19  2  0
 18 17  1  0
 19 20  1  0
 20 14  1  0
 20 21  2  0
  3 22  1  0
  5 23  1  0
  7 24  1  0
 10 25  1  0
 10 26  1  0
 12 27  1  0
 12 28  1  0
 13 29  1  0
 13 30  1  0
 15 31  1  0
 16 32  1  0
 18 33  1  0
 18 34  1  0
M  ISO  8  22  14  23  14  27   8  28   8  29   8  30   8  31  14  32  14
M  END
>  <minimizedAffinity>  (1) 
-5.40423965

>  <minimizedRMSD>  (1) 
1.93249011

$$$$
