
     RDKit          3D

 31 32  0  0  0  0  0  0  0  0999 V2000
   45.2030   35.0100   43.6450 C   0  0  0  0  0  0  0  0  0  0  0  0
   46.1450   33.9990   43.8910 C   0  0  0  0  0  0  0  0  0  0  0  0
   46.2690   33.5420   45.1910 C   0  0  0  0  0  0  0  0  0  0  0  0
   45.4780   34.0910   46.1640 N   0  0  0  0  0  0  0  0  0  0  0  0
   44.5750   35.0670   45.9020 C   0  0  0  0  0  0  0  0  0  0  0  0
   44.4430   35.5170   44.6560 N   0  0  0  0  0  0  0  0  0  0  0  0
   44.9440   35.5940   42.3760 N   0  0  0  0  0  0  0  0  0  0  0  0
   43.6840   35.4300   41.6990 C   0  0  0  0  0  0  0  0  0  0  0  0
   42.6270   35.1590   42.4460 N   0  0  0  0  0  0  0  0  0  0  0  0
   43.5440   35.5500   40.2600 N   0  0  0  0  0  0  0  0  0  0  0  0
   41.7250   35.0500   41.9410 H   0  0  0  0  0  0  0  0  0  0  0  0
   46.9180   33.5000   42.7980 C   0  0  0  0  0  0  0  0  0  0  0  0
   48.2620   34.2280   42.7410 C   0  0  0  0  0  0  0  0  0  0  0  0
   49.1370   33.3430   41.8940 C   0  0  0  0  0  0  0  0  0  0  0  0
   50.4320   33.1170   42.3260 C   0  0  0  0  0  0  0  0  0  0  0  0
   51.2170   32.2980   41.5280 C   0  0  0  0  0  0  0  0  0  0  0  0
   50.7460   31.7530   40.3960 N   0  0  0  0  0  0  0  0  0  0  0  0
   49.4750   31.9850   39.9880 C   0  0  0  0  0  0  0  0  0  0  0  0
   48.6950   32.7780   40.7490 N   0  0  0  0  0  0  0  0  0  0  0  0
   46.9915   32.7504   45.4387 H   0  0  0  0  0  0  0  0  0  0  0  0
   43.9570   35.4834   46.7111 H   0  0  0  0  0  0  0  0  0  0  0  0
   45.6822   36.1533   41.9253 H   0  0  0  0  0  0  0  0  0  0  0  0
   42.6212   35.4242   39.8201 H   0  0  0  0  0  0  0  0  0  0  0  0
   44.3674   35.7610   39.6783 H   0  0  0  0  0  0  0  0  0  0  0  0
   47.0916   32.4224   42.9350 H   0  0  0  0  0  0  0  0  0  0  0  0
   46.3719   33.6702   41.8584 H   0  0  0  0  0  0  0  0  0  0  0  0
   48.1476   35.2191   42.2776 H   0  0  0  0  0  0  0  0  0  0  0  0
   48.6862   34.4001   43.7412 H   0  0  0  0  0  0  0  0  0  0  0  0
   50.8187   33.5636   43.2539 H   0  0  0  0  0  0  0  0  0  0  0  0
   52.2536   32.0897   41.8313 H   0  0  0  0  0  0  0  0  0  0  0  0
   49.0898   31.5378   39.0598 H   0  0  0  0  0  0  0  0  0  0  0  0
  1  2  2  0
  1  6  1  0
  2  3  1  0
  3  4  2  0
  5  4  1  0
  6  5  2  0
  7  1  1  0
  8  7  1  0
  8  9  2  0
 10  8  1  0
 11  9  1  0
 12  2  1  0
 13 12  1  0
 14 15  2  0
 14 13  1  0
 16 15  1  0
 17 16  2  0
 18 17  1  0
 18 19  2  0
 19 14  1  0
  3 20  1  0
  5 21  1  0
  7 22  1  0
 10 23  1  0
 10 24  1  0
 12 25  1  0
 12 26  1  0
 13 27  1  0
 13 28  1  0
 15 29  1  0
 16 30  1  0
 18 31  1  0
M  ISO  8  20  14  21  14  25   8  26   8  27   8  28   8  29  14  30  14
M  ISO  1  31  14
M  END
>  <minimizedAffinity>  (1) 
-4.93828917

>  <minimizedRMSD>  (1) 
0.62551403

$$$$
