
     RDKit          3D

 33 34  0  0  0  0  0  0  0  0999 V2000
   45.1630   35.0140   43.6180 C   0  0  0  0  0  0  0  0  0  0  0  0
   46.1050   34.0110   43.8300 C   0  0  0  0  0  0  0  0  0  0  0  0
   46.2540   33.5670   45.1310 C   0  0  0  0  0  0  0  0  0  0  0  0
   45.4810   34.1250   46.1260 N   0  0  0  0  0  0  0  0  0  0  0  0
   44.5760   35.1000   45.8690 C   0  0  0  0  0  0  0  0  0  0  0  0
   44.4300   35.5300   44.6250 N   0  0  0  0  0  0  0  0  0  0  0  0
   44.8860   35.5870   42.3290 N   0  0  0  0  0  0  0  0  0  0  0  0
   43.6240   35.4350   41.6680 C   0  0  0  0  0  0  0  0  0  0  0  0
   42.5860   35.1690   42.4350 N   0  0  0  0  0  0  0  0  0  0  0  0
   43.4980   35.5670   40.2410 N   0  0  0  0  0  0  0  0  0  0  0  0
   41.6740   35.0410   41.9320 H   0  0  0  0  0  0  0  0  0  0  0  0
   46.8640   33.4880   42.7420 C   0  0  0  0  0  0  0  0  0  0  0  0
   48.1980   34.2190   42.6490 C   0  0  0  0  0  0  0  0  0  0  0  0
   49.0930   33.3340   41.8470 C   0  0  0  0  0  0  0  0  0  0  0  0
   48.6630   32.7150   40.6880 C   0  0  0  0  0  0  0  0  0  0  0  0
   49.5330   31.8910   39.9640 C   0  0  0  0  0  0  0  0  0  0  0  0
   50.8110   31.7390   40.4630 C   0  0  0  0  0  0  0  0  0  0  0  0
   51.2830   32.3360   41.6150 C   0  0  0  0  0  0  0  0  0  0  0  0
   50.3990   33.1440   42.3090 C   0  0  0  0  0  0  0  0  0  0  0  0
   46.9816   32.7771   45.3691 H   0  0  0  0  0  0  0  0  0  0  0  0
   43.9712   35.5282   46.6819 H   0  0  0  0  0  0  0  0  0  0  0  0
   45.6259   36.1296   41.8610 H   0  0  0  0  0  0  0  0  0  0  0  0
   42.5779   35.4526   39.7925 H   0  0  0  0  0  0  0  0  0  0  0  0
   44.3279   35.7759   39.6679 H   0  0  0  0  0  0  0  0  0  0  0  0
   47.0453   32.4153   42.9047 H   0  0  0  0  0  0  0  0  0  0  0  0
   46.3045   33.6298   41.8056 H   0  0  0  0  0  0  0  0  0  0  0  0
   48.0688   35.1891   42.1467 H   0  0  0  0  0  0  0  0  0  0  0  0
   48.6178   34.4227   43.6451 H   0  0  0  0  0  0  0  0  0  0  0  0
   47.6334   32.8705   40.3333 H   0  0  0  0  0  0  0  0  0  0  0  0
   49.2128   31.3877   39.0398 H   0  0  0  0  0  0  0  0  0  0  0  0
   51.5041   31.0951   39.9018 H   0  0  0  0  0  0  0  0  0  0  0  0
   52.3136   32.1769   41.9650 H   0  0  0  0  0  0  0  0  0  0  0  0
   50.7272   33.6417   43.2334 H   0  0  0  0  0  0  0  0  0  0  0  0
  1  2  2  0
  1  6  1  0
  2  3  1  0
  3  4  2  0
  5  4  1  0
  6  5  2  0
  7  1  1  0
  8  7  1  0
  8  9  2  0
 10  8  1  0
 11  9  1  0
 12  2  1  0
 13 12  1  0
 14 19  1  0
 14 13  1  0
 15 14  2  0
 16 17  2  0
 16 15  1  0
 17 18  1  0
 18 19  2  0
  3 20  1  0
  5 21  1  0
  7 22  1  0
 10 23  1  0
 10 24  1  0
 12 25  1  0
 12 26  1  0
 13 27  1  0
 13 28  1  0
 15 29  1  0
 16 30  1  0
 17 31  1  0
 18 32  1  0
 19 33  1  0
M  ISO  8  20  14  21  14  25   8  26   8  27   8  28   8  29  14  30  14
M  ISO  3  31  14  32  14  33  14
M  END
>  <minimizedAffinity>  (1) 
-4.99797583

>  <minimizedRMSD>  (1) 
0.459420919

$$$$
