
     RDKit          3D

 30 31  0  0  0  0  0  0  0  0999 V2000
   45.1200   34.9860   43.5560 C   0  0  0  0  0  0  0  0  0  0  0  0
   45.9890   33.9210   43.8340 C   0  0  0  0  0  0  0  0  0  0  0  0
   46.1000   33.5370   45.1560 C   0  0  0  0  0  0  0  0  0  0  0  0
   45.3700   34.2040   46.1020 N   0  0  0  0  0  0  0  0  0  0  0  0
   44.5450   35.2230   45.8000 C   0  0  0  0  0  0  0  0  0  0  0  0
   44.4270   35.6030   44.5390 N   0  0  0  0  0  0  0  0  0  0  0  0
   44.8890   35.5110   42.2350 N   0  0  0  0  0  0  0  0  0  0  0  0
   43.6140   35.4250   41.5930 C   0  0  0  0  0  0  0  0  0  0  0  0
   42.5600   35.2750   42.3620 N   0  0  0  0  0  0  0  0  0  0  0  0
   43.4810   35.5000   40.1530 N   0  0  0  0  0  0  0  0  0  0  0  0
   41.6350   35.2250   41.8800 H   0  0  0  0  0  0  0  0  0  0  0  0
   46.7060   33.2960   42.7450 C   0  0  0  0  0  0  0  0  0  0  0  0
   48.1040   33.8960   42.6770 C   0  0  0  0  0  0  0  0  0  0  0  0
   49.0310   33.1290   41.8800 C   0  0  0  0  0  0  0  0  0  0  0  0
   50.3290   32.9870   42.2100 C   0  0  0  0  0  0  0  0  0  0  0  0
   51.3020   32.3150   41.5800 C   0  0  0  0  0  0  0  0  0  0  0  0
   50.7100   31.7020   40.3770 C   0  0  0  0  0  0  0  0  0  0  0  0
   48.8710   32.2290   40.4150 S   0  0  0  0  0  0  0  0  0  0  0  0
   46.7642   32.7087   45.4437 H   0  0  0  0  0  0  0  0  0  0  0  0
   43.9763   35.7331   46.5914 H   0  0  0  0  0  0  0  0  0  0  0  0
   45.6681   35.9635   41.7359 H   0  0  0  0  0  0  0  0  0  0  0  0
   42.5497   35.4351   39.7177 H   0  0  0  0  0  0  0  0  0  0  0  0
   44.3177   35.6182   39.5640 H   0  0  0  0  0  0  0  0  0  0  0  0
   46.7758   32.2124   42.9207 H   0  0  0  0  0  0  0  0  0  0  0  0
   46.1758   33.4695   41.7970 H   0  0  0  0  0  0  0  0  0  0  0  0
   48.0275   34.9046   42.2447 H   0  0  0  0  0  0  0  0  0  0  0  0
   48.4978   33.9058   43.7041 H   0  0  0  0  0  0  0  0  0  0  0  0
   50.6359   33.4988   43.1341 H   0  0  0  0  0  0  0  0  0  0  0  0
   52.3509   32.2353   41.9016 H   0  0  0  0  0  0  0  0  0  0  0  0
   51.2143   31.0790   39.6236 H   0  0  0  0  0  0  0  0  0  0  0  0
  1  2  2  0
  1  6  1  0
  2  3  1  0
  3  4  2  0
  5  4  1  0
  6  5  2  0
  7  1  1  0
  8  7  1  0
  8  9  2  0
 10  8  1  0
 11  9  1  0
 12  2  1  0
 13 12  1  0
 14 15  2  0
 14 13  1  0
 16 15  1  0
 17 18  1  0
 17 16  2  0
 18 14  1  0
  3 19  1  0
  5 20  1  0
  7 21  1  0
 10 22  1  0
 10 23  1  0
 12 24  1  0
 12 25  1  0
 13 26  1  0
 13 27  1  0
 15 28  1  0
 16 29  1  0
 17 30  1  0
M  ISO  8  19  14  20  14  24   8  25   8  26   8  27   8  28  14  29  14
M  ISO  1  30  14
M  END
>  <minimizedAffinity>  (1) 
-4.7834096

>  <minimizedRMSD>  (1) 
0.413579255

$$$$
