
     RDKit          3D

 30 31  0  0  0  0  0  0  0  0999 V2000
   45.1660   35.0850   43.5360 C   0  0  0  0  0  0  0  0  0  0  0  0
   46.1660   34.1150   43.7030 C   0  0  0  0  0  0  0  0  0  0  0  0
   46.3490   33.6450   44.9900 C   0  0  0  0  0  0  0  0  0  0  0  0
   45.5750   34.1260   46.0110 N   0  0  0  0  0  0  0  0  0  0  0  0
   44.6200   35.0650   45.8000 C   0  0  0  0  0  0  0  0  0  0  0  0
   44.4310   35.5240   44.5790 N   0  0  0  0  0  0  0  0  0  0  0  0
   44.8340   35.6860   42.2730 N   0  0  0  0  0  0  0  0  0  0  0  0
   43.5660   35.4870   41.6380 C   0  0  0  0  0  0  0  0  0  0  0  0
   42.5610   35.1310   42.4060 N   0  0  0  0  0  0  0  0  0  0  0  0
   43.3890   35.6640   40.2190 N   0  0  0  0  0  0  0  0  0  0  0  0
   41.6400   35.0060   41.9310 H   0  0  0  0  0  0  0  0  0  0  0  0
   46.9210   33.6790   42.5610 C   0  0  0  0  0  0  0  0  0  0  0  0
   48.1670   34.5910   42.4350 C   0  0  0  0  0  0  0  0  0  0  0  0
   49.3530   33.7620   42.1400 C   0  0  0  0  0  0  0  0  0  0  0  0
   49.2500   32.7390   41.2000 C   0  0  0  0  0  0  0  0  0  0  0  0
   50.4600   32.1540   41.1310 N   0  0  0  0  0  0  0  0  0  0  0  0
   51.3190   32.7650   41.9860 C   0  0  0  0  0  0  0  0  0  0  0  0
   50.6200   33.7430   42.5910 N   0  0  0  0  0  0  0  0  0  0  0  0
   47.1169   32.8842   45.1935 H   0  0  0  0  0  0  0  0  0  0  0  0
   44.0112   35.4387   46.6365 H   0  0  0  0  0  0  0  0  0  0  0  0
   45.5338   36.2816   41.8078 H   0  0  0  0  0  0  0  0  0  0  0  0
   42.4636   35.5131   39.7927 H   0  0  0  0  0  0  0  0  0  0  0  0
   44.1879   35.9415   39.6310 H   0  0  0  0  0  0  0  0  0  0  0  0
   47.2356   32.6339   42.6982 H   0  0  0  0  0  0  0  0  0  0  0  0
   46.3074   33.7420   41.6502 H   0  0  0  0  0  0  0  0  0  0  0  0
   48.0122   35.3135   41.6201 H   0  0  0  0  0  0  0  0  0  0  0  0
   48.3229   35.1331   43.3794 H   0  0  0  0  0  0  0  0  0  0  0  0
   48.3535   32.4629   40.6255 H   0  0  0  0  0  0  0  0  0  0  0  0
   52.3764   32.5112   42.1515 H   0  0  0  0  0  0  0  0  0  0  0  0
   51.0014   34.3861   43.2994 H   0  0  0  0  0  0  0  0  0  0  0  0
  1  2  2  0
  1  6  1  0
  2  3  1  0
  3  4  2  0
  5  4  1  0
  6  5  2  0
  7  1  1  0
  8  7  1  0
  8  9  2  0
 10  8  1  0
 11  9  1  0
 12  2  1  0
 13 12  1  0
 14 13  1  0
 14 18  1  0
 15 14  2  0
 16 15  1  0
 16 17  2  0
 17 18  1  0
  3 19  1  0
  5 20  1  0
  7 21  1  0
 10 22  1  0
 10 23  1  0
 12 24  1  0
 12 25  1  0
 13 26  1  0
 13 27  1  0
 15 28  1  0
 17 29  1  0
 18 30  1  0
M  ISO  8  19  14  20  14  24   8  25   8  26   8  27   8  28  14  29  14
M  ISO  1  30   9
M  END
>  <minimizedAffinity>  (1) 
-4.76960421

>  <minimizedRMSD>  (1) 
1.00459456

$$$$
