
     RDKit          3D

 30 31  0  0  0  0  0  0  0  0999 V2000
   45.2440   34.9970   43.5890 C   0  0  0  0  0  0  0  0  0  0  0  0
   46.2280   34.0320   43.7690 C   0  0  0  0  0  0  0  0  0  0  0  0
   46.3930   33.5590   45.0650 C   0  0  0  0  0  0  0  0  0  0  0  0
   45.5950   34.0590   46.0690 N   0  0  0  0  0  0  0  0  0  0  0  0
   44.6570   34.9930   45.8410 C   0  0  0  0  0  0  0  0  0  0  0  0
   44.4840   35.4590   44.6020 N   0  0  0  0  0  0  0  0  0  0  0  0
   44.9390   35.5940   42.3180 N   0  0  0  0  0  0  0  0  0  0  0  0
   43.6670   35.4330   41.6730 C   0  0  0  0  0  0  0  0  0  0  0  0
   42.6410   35.1390   42.4390 N   0  0  0  0  0  0  0  0  0  0  0  0
   43.4960   35.5830   40.2510 N   0  0  0  0  0  0  0  0  0  0  0  0
   41.7240   35.0160   41.9620 H   0  0  0  0  0  0  0  0  0  0  0  0
   47.0140   33.5660   42.6740 C   0  0  0  0  0  0  0  0  0  0  0  0
   48.3260   34.3660   42.6190 C   0  0  0  0  0  0  0  0  0  0  0  0
   49.3090   33.4780   42.0260 N   0  0  0  0  0  0  0  0  0  0  0  0
   49.1000   32.5890   41.0420 C   0  0  0  0  0  0  0  0  0  0  0  0
   50.2430   31.8950   40.7010 C   0  0  0  0  0  0  0  0  0  0  0  0
   51.1830   32.4090   41.5380 N   0  0  0  0  0  0  0  0  0  0  0  0
   50.6180   33.3470   42.3180 C   0  0  0  0  0  0  0  0  0  0  0  0
   47.1521   32.7942   45.2860 H   0  0  0  0  0  0  0  0  0  0  0  0
   44.0371   35.3704   46.6676 H   0  0  0  0  0  0  0  0  0  0  0  0
   45.6620   36.1600   41.8513 H   0  0  0  0  0  0  0  0  0  0  0  0
   42.5650   35.4588   39.8283 H   0  0  0  0  0  0  0  0  0  0  0  0
   44.3047   35.8145   39.6566 H   0  0  0  0  0  0  0  0  0  0  0  0
   47.2394   32.4980   42.8107 H   0  0  0  0  0  0  0  0  0  0  0  0
   46.4578   33.7018   41.7347 H   0  0  0  0  0  0  0  0  0  0  0  0
   48.1998   35.2657   41.9989 H   0  0  0  0  0  0  0  0  0  0  0  0
   48.6365   34.7016   43.6195 H   0  0  0  0  0  0  0  0  0  0  0  0
   48.1239   32.4310   40.5600 H   0  0  0  0  0  0  0  0  0  0  0  0
   50.3643   31.1139   39.9360 H   0  0  0  0  0  0  0  0  0  0  0  0
   51.1499   33.9265   43.0870 H   0  0  0  0  0  0  0  0  0  0  0  0
  1  2  2  0
  1  6  1  0
  2  3  1  0
  3  4  2  0
  5  4  1  0
  6  5  2  0
  7  1  1  0
  8  7  1  0
  8  9  2  0
 10  8  1  0
 11  9  1  0
 12  2  1  0
 13 12  1  0
 14 18  1  0
 14 13  1  0
 15 14  1  0
 16 15  2  0
 16 17  1  0
 17 18  2  0
  3 19  1  0
  5 20  1  0
  7 21  1  0
 10 22  1  0
 10 23  1  0
 12 24  1  0
 12 25  1  0
 13 26  1  0
 13 27  1  0
 15 28  1  0
 16 29  1  0
 18 30  1  0
M  ISO  8  19  14  20  14  24   8  25   8  26   8  27   8  28  14  29  14
M  ISO  1  30  14
M  END
>  <minimizedAffinity>  (1) 
-4.66146469

>  <minimizedRMSD>  (1) 
0.636481106

$$$$
