
     RDKit          3D

 35 36  0  0  0  0  0  0  0  0999 V2000
   45.0800   35.0150   43.5140 C   0  0  0  0  0  0  0  0  0  0  0  0
   45.9370   33.9300   43.7790 C   0  0  0  0  0  0  0  0  0  0  0  0
   46.0400   33.5580   45.0990 C   0  0  0  0  0  0  0  0  0  0  0  0
   45.3450   34.2170   46.0630 N   0  0  0  0  0  0  0  0  0  0  0  0
   44.5310   35.2560   45.7610 C   0  0  0  0  0  0  0  0  0  0  0  0
   44.4040   35.6450   44.5060 N   0  0  0  0  0  0  0  0  0  0  0  0
   44.8360   35.5600   42.2040 N   0  0  0  0  0  0  0  0  0  0  0  0
   43.6420   35.2560   41.4620 C   0  0  0  0  0  0  0  0  0  0  0  0
   42.5820   34.8770   42.1390 N   0  0  0  0  0  0  0  0  0  0  0  0
   43.5910   35.3550   40.0220 N   0  0  0  0  0  0  0  0  0  0  0  0
   41.7300   34.6890   41.5930 H   0  0  0  0  0  0  0  0  0  0  0  0
   46.6320   33.3260   42.6720 C   0  0  0  0  0  0  0  0  0  0  0  0
   48.0140   34.0040   42.5530 C   0  0  0  0  0  0  0  0  0  0  0  0
   48.9630   32.9750   43.0240 N   0  0  0  0  0  0  0  0  0  0  0  0
   50.1800   33.2160   42.2710 C   0  0  0  0  0  0  0  0  0  0  0  0
   50.0200   32.3920   41.0130 C   0  0  0  0  0  0  0  0  0  0  0  0
   49.5020   31.1080   41.6380 C   0  0  0  0  0  0  0  0  0  0  0  0
   48.4880   31.6620   42.6110 C   0  0  0  0  0  0  0  0  0  0  0  0
   46.6925   32.7174   45.3776 H   0  0  0  0  0  0  0  0  0  0  0  0
   43.9777   35.7739   46.5583 H   0  0  0  0  0  0  0  0  0  0  0  0
   45.5380   36.1868   41.7853 H   0  0  0  0  0  0  0  0  0  0  0  0
   44.4253   35.6527   39.4964 H   0  0  0  0  0  0  0  0  0  0  0  0
   42.7204   35.1279   39.5207 H   0  0  0  0  0  0  0  0  0  0  0  0
   46.7586   32.2484   42.8532 H   0  0  0  0  0  0  0  0  0  0  0  0
   46.0592   33.4574   41.7421 H   0  0  0  0  0  0  0  0  0  0  0  0
   48.2245   34.2806   41.5094 H   0  0  0  0  0  0  0  0  0  0  0  0
   48.0785   34.9352   43.1350 H   0  0  0  0  0  0  0  0  0  0  0  0
   50.2799   34.2837   42.0258 H   0  0  0  0  0  0  0  0  0  0  0  0
   51.0821   32.9415   42.8374 H   0  0  0  0  0  0  0  0  0  0  0  0
   50.9778   32.2413   40.4935 H   0  0  0  0  0  0  0  0  0  0  0  0
   49.3791   32.8332   40.2355 H   0  0  0  0  0  0  0  0  0  0  0  0
   49.0308   30.4538   40.8896 H   0  0  0  0  0  0  0  0  0  0  0  0
   50.2778   30.4767   42.0958 H   0  0  0  0  0  0  0  0  0  0  0  0
   47.5066   31.7524   42.1224 H   0  0  0  0  0  0  0  0  0  0  0  0
   48.3744   30.9961   43.4792 H   0  0  0  0  0  0  0  0  0  0  0  0
  1  2  2  0
  1  6  1  0
  2  3  1  0
  3  4  2  0
  5  4  1  0
  6  5  2  0
  7  1  1  0
  8  9  2  0
  8  7  1  0
 10  8  1  0
 11  9  1  0
 12  2  1  0
 13 12  1  0
 13 14  1  0
 15 14  1  0
 16 17  1  0
 16 15  1  0
 17 18  1  0
 18 14  1  0
  3 19  1  0
  5 20  1  0
  7 21  1  0
 10 22  1  0
 10 23  1  0
 12 24  1  0
 12 25  1  0
 13 26  1  0
 13 27  1  0
 15 28  1  0
 15 29  1  0
 16 30  1  0
 16 31  1  0
 17 32  1  0
 17 33  1  0
 18 34  1  0
 18 35  1  0
M  ISO  8  19  14  20  14  24   8  25   8  26   8  27   8  28  13  29  13
M  ISO  6  30  13  31  13  32  13  33  13  34  13  35  13
M  END
>  <minimizedAffinity>  (1) 
-4.30558538

>  <minimizedRMSD>  (1) 
1.49149251

$$$$
