
     RDKit          3D

 29 30  0  0  0  0  0  0  0  0999 V2000
   45.2160   34.9890   43.5490 C   0  0  0  0  0  0  0  0  0  0  0  0
   46.1750   33.9930   43.7650 C   0  0  0  0  0  0  0  0  0  0  0  0
   46.3320   33.5450   45.0750 C   0  0  0  0  0  0  0  0  0  0  0  0
   45.5620   34.0870   46.0590 N   0  0  0  0  0  0  0  0  0  0  0  0
   44.6470   35.0440   45.8190 C   0  0  0  0  0  0  0  0  0  0  0  0
   44.4730   35.4920   44.5780 N   0  0  0  0  0  0  0  0  0  0  0  0
   44.9180   35.5640   42.2810 N   0  0  0  0  0  0  0  0  0  0  0  0
   43.6310   35.4160   41.6500 C   0  0  0  0  0  0  0  0  0  0  0  0
   42.6080   35.1580   42.4220 N   0  0  0  0  0  0  0  0  0  0  0  0
   43.4780   35.5470   40.2110 N   0  0  0  0  0  0  0  0  0  0  0  0
   41.6910   35.0560   41.9500 H   0  0  0  0  0  0  0  0  0  0  0  0
   46.9340   33.4920   42.6470 C   0  0  0  0  0  0  0  0  0  0  0  0
   48.2830   34.2290   42.6250 C   0  0  0  0  0  0  0  0  0  0  0  0
   49.3320   33.4150   42.0520 N   0  0  0  0  0  0  0  0  0  0  0  0
   50.6440   33.3500   42.3400 C   0  0  0  0  0  0  0  0  0  0  0  0
   51.1840   32.4340   41.5210 N   0  0  0  0  0  0  0  0  0  0  0  0
   50.2500   31.9160   40.7240 C   0  0  0  0  0  0  0  0  0  0  0  0
   49.1130   32.5510   41.0840 N   0  0  0  0  0  0  0  0  0  0  0  0
   47.0688   32.7632   45.3115 H   0  0  0  0  0  0  0  0  0  0  0  0
   44.0460   35.4538   46.6442 H   0  0  0  0  0  0  0  0  0  0  0  0
   45.6487   36.1053   41.7973 H   0  0  0  0  0  0  0  0  0  0  0  0
   42.5490   35.4375   39.7798 H   0  0  0  0  0  0  0  0  0  0  0  0
   44.2985   35.7493   39.6222 H   0  0  0  0  0  0  0  0  0  0  0  0
   47.1004   32.4108   42.7624 H   0  0  0  0  0  0  0  0  0  0  0  0
   46.3890   33.6612   41.7066 H   0  0  0  0  0  0  0  0  0  0  0  0
   48.1776   35.1462   42.0270 H   0  0  0  0  0  0  0  0  0  0  0  0
   48.5611   34.4628   43.6633 H   0  0  0  0  0  0  0  0  0  0  0  0
   51.1750   33.9374   43.1036 H   0  0  0  0  0  0  0  0  0  0  0  0
   50.3761   31.1459   39.9487 H   0  0  0  0  0  0  0  0  0  0  0  0
  1  2  2  0
  1  6  1  0
  2  3  1  0
  3  4  2  0
  5  4  1  0
  6  5  2  0
  7  1  1  0
  8  7  1  0
  8  9  2  0
 10  8  1  0
 11  9  1  0
 12  2  1  0
 13 12  1  0
 14 15  1  0
 14 13  1  0
 16 15  2  0
 17 18  2  0
 17 16  1  0
 18 14  1  0
  3 19  1  0
  5 20  1  0
  7 21  1  0
 10 22  1  0
 10 23  1  0
 12 24  1  0
 12 25  1  0
 13 26  1  0
 13 27  1  0
 15 28  1  0
 17 29  1  0
M  ISO  8  19  14  20  14  24   8  25   8  26   8  27   8  28  14  29  14
M  END
>  <minimizedAffinity>  (1) 
-4.68537426

>  <minimizedRMSD>  (1) 
0.663717628

$$$$
