
     RDKit          3D

 42 43  0  0  1  0  0  0  0  0999 V2000
   47.4140   32.5690   42.7920 C   0  0  0  0  0  0  0  0  0  0  0  0
   48.2330   32.8600   41.5790 C   0  0  1  0  0  0  0  0  0  0  0  0
   48.3870   31.7200   40.6410 C   0  0  0  0  0  0  0  0  0  0  0  0
   49.2500   32.1900   39.4770 C   0  0  0  0  0  0  0  0  0  0  0  0
   48.6270   33.3160   38.7280 C   0  0  0  0  0  0  0  0  0  0  0  0
   47.3720   33.7980   39.4180 C   0  0  0  0  0  0  0  0  0  0  0  0
   47.6010   34.0410   40.8800 C   0  0  2  0  0  0  0  0  0  0  0  0
   48.5770   35.2230   41.0870 C   0  0  0  0  0  0  0  0  0  0  0  0
   48.8710   35.8720   39.9350 F   0  0  0  0  0  0  0  0  0  0  0  0
   49.7330   34.6800   41.6220 F   0  0  0  0  0  0  0  0  0  0  0  0
   48.0360   36.0160   42.0780 F   0  0  0  0  0  0  0  0  0  0  0  0
   45.9460   32.8700   42.5980 C   0  0  0  0  0  0  0  0  0  0  0  0
   44.8860   34.9240   43.3580 C   0  0  0  0  0  0  0  0  0  0  0  0
   45.4910   33.7190   43.6620 C   0  0  0  0  0  0  0  0  0  0  0  0
   45.6240   33.4000   45.0070 C   0  0  0  0  0  0  0  0  0  0  0  0
   45.1590   34.2750   45.9480 N   0  0  0  0  0  0  0  0  0  0  0  0
   44.5730   35.4420   45.6140 C   0  0  0  0  0  0  0  0  0  0  0  0
   44.4330   35.7720   44.3230 N   0  0  0  0  0  0  0  0  0  0  0  0
   44.6700   35.4560   42.0450 N   0  0  0  0  0  0  0  0  0  0  0  0
   43.3450   35.4100   41.4340 C   0  0  0  0  0  0  0  0  0  0  0  0
   42.2760   35.3580   42.2380 N   0  0  0  0  0  0  0  0  0  0  0  0
   43.1500   35.4320   40.0070 N   0  0  0  0  0  0  0  0  0  0  0  0
   41.3650   35.4420   41.7820 H   0  0  0  0  0  0  0  0  0  0  0  0
   47.5235   31.5033   43.0418 H   0  0  0  0  0  0  0  0  0  0  0  0
   47.7797   33.2193   43.6003 H   0  0  0  0  0  0  0  0  0  0  0  0
   49.2585   33.0754   41.9136 H   0  0  0  0  0  0  0  0  0  0  0  0
   48.8750   30.8774   41.1527 H   0  0  0  0  0  0  0  0  0  0  0  0
   47.4040   31.3832   40.2799 H   0  0  0  0  0  0  0  0  0  0  0  0
   50.2225   32.5218   39.8695 H   0  0  0  0  0  0  0  0  0  0  0  0
   49.3636   31.3458   38.7809 H   0  0  0  0  0  0  0  0  0  0  0  0
   48.3715   32.9754   37.7138 H   0  0  0  0  0  0  0  0  0  0  0  0
   49.3450   34.1483   38.6861 H   0  0  0  0  0  0  0  0  0  0  0  0
   47.0448   34.7370   38.9476 H   0  0  0  0  0  0  0  0  0  0  0  0
   46.6036   33.0174   39.3165 H   0  0  0  0  0  0  0  0  0  0  0  0
   46.6044   34.2406   41.3007 H   0  0  0  0  0  0  0  0  0  0  0  0
   45.7996   33.3788   41.6338 H   0  0  0  0  0  0  0  0  0  0  0  0
   45.3733   31.9309   42.6055 H   0  0  0  0  0  0  0  0  0  0  0  0
   46.0977   32.4549   45.3111 H   0  0  0  0  0  0  0  0  0  0  0  0
   44.2106   36.1217   46.3993 H   0  0  0  0  0  0  0  0  0  0  0  0
   45.4564   35.8744   41.5279 H   0  0  0  0  0  0  0  0  0  0  0  0
   42.1974   35.3979   39.6168 H   0  0  0  0  0  0  0  0  0  0  0  0
   43.9632   35.4819   39.3768 H   0  0  0  0  0  0  0  0  0  0  0  0
  2  1  1  0
  3  2  1  0
  4  3  1  0
  5  6  1  0
  5  4  1  0
  6  7  1  0
  7  8  1  0
  7  2  1  0
  8 10  1  0
  8 11  1  0
  9  8  1  0
 12  1  1  0
 12 14  1  0
 13 14  2  0
 13 18  1  0
 14 15  1  0
 15 16  2  0
 17 16  1  0
 18 17  2  0
 19 13  1  0
 20 19  1  0
 20 21  2  0
 22 20  1  0
 23 21  1  0
  1 24  1  0
  1 25  1  0
  2 26  1  1
  3 27  1  0
  3 28  1  0
  4 29  1  0
  4 30  1  0
  5 31  1  0
  5 32  1  0
  6 33  1  0
  6 34  1  0
  7 35  1  1
 12 36  1  0
 12 37  1  0
 15 38  1  0
 17 39  1  0
 19 40  1  0
 22 41  1  0
 22 42  1  0
M  ISO  8  24   8  25   8  26  13  27  13  28  13  29  13  30  13  31  13
M  ISO  8  32  13  33  13  34  13  35  13  36   8  37   8  38  14  39  14
M  END
>  <minimizedAffinity>  (1) 
-5.95334196

>  <minimizedRMSD>  (1) 
0.83221668

$$$$
