
     RDKit          3D

 46 48  0  0  1  0  0  0  0  0999 V2000
   47.9650   33.6800   42.6970 C   0  0  0  0  0  0  0  0  0  0  0  0
   48.7210   33.2350   41.4770 C   0  0  1  0  0  0  0  0  0  0  0  0
   49.9130   32.3830   41.8180 C   0  0  0  0  0  0  0  0  0  0  0  0
   50.5750   31.9650   40.5170 C   0  0  0  0  0  0  0  0  0  0  0  0
   49.6550   31.2130   39.6180 C   0  0  0  0  0  0  0  0  0  0  0  0
   48.2800   31.1220   40.2440 C   0  0  0  0  0  0  0  0  0  0  0  0
   47.7780   32.5190   40.5830 C   0  0  2  0  0  0  0  0  0  0  0  0
   47.8380   33.0930   39.2030 N   0  0  0  0  0  0  0  0  0  0  0  0
   47.4480   32.5950   38.0560 C   0  0  0  0  0  0  0  0  0  0  0  0
   47.6880   33.4630   37.0110 C   0  0  0  0  0  0  0  0  0  0  0  0
   48.2510   34.5410   37.5550 N   0  0  0  0  0  0  0  0  0  0  0  0
   48.3390   34.3200   38.8560 C   0  0  0  0  0  0  0  0  0  0  0  0
   46.5620   33.1500   42.7980 C   0  0  0  0  0  0  0  0  0  0  0  0
   45.0940   34.9480   43.5700 C   0  0  0  0  0  0  0  0  0  0  0  0
   45.8800   33.8540   43.8610 C   0  0  0  0  0  0  0  0  0  0  0  0
   45.9660   33.4920   45.1950 C   0  0  0  0  0  0  0  0  0  0  0  0
   45.2940   34.2090   46.1320 N   0  0  0  0  0  0  0  0  0  0  0  0
   44.5370   35.2730   45.8020 C   0  0  0  0  0  0  0  0  0  0  0  0
   44.4370   35.6420   44.5220 N   0  0  0  0  0  0  0  0  0  0  0  0
   44.8920   35.4760   42.2440 N   0  0  0  0  0  0  0  0  0  0  0  0
   43.5870   35.4170   41.5900 C   0  0  0  0  0  0  0  0  0  0  0  0
   42.5200   35.3180   42.3610 N   0  0  0  0  0  0  0  0  0  0  0  0
   43.4650   35.4640   40.1510 N   0  0  0  0  0  0  0  0  0  0  0  0
   41.6120   35.2900   41.8750 H   0  0  0  0  0  0  0  0  0  0  0  0
   47.9157   34.7788   42.6870 H   0  0  0  0  0  0  0  0  0  0  0  0
   48.5108   33.2776   43.5631 H   0  0  0  0  0  0  0  0  0  0  0  0
   49.1279   34.1194   40.9648 H   0  0  0  0  0  0  0  0  0  0  0  0
   50.6221   32.9600   42.4297 H   0  0  0  0  0  0  0  0  0  0  0  0
   49.6000   31.4975   42.3906 H   0  0  0  0  0  0  0  0  0  0  0  0
   50.9197   32.8680   39.9918 H   0  0  0  0  0  0  0  0  0  0  0  0
   51.4112   31.2967   40.7701 H   0  0  0  0  0  0  0  0  0  0  0  0
   50.0502   30.1990   39.4578 H   0  0  0  0  0  0  0  0  0  0  0  0
   49.5796   31.7401   38.6555 H   0  0  0  0  0  0  0  0  0  0  0  0
   47.5862   30.6459   39.5354 H   0  0  0  0  0  0  0  0  0  0  0  0
   48.3372   30.5218   41.1640 H   0  0  0  0  0  0  0  0  0  0  0  0
   46.8110   32.5682   41.1049 H   0  0  0  0  0  0  0  0  0  0  0  0
   46.9849   31.6040   37.9400 H   0  0  0  0  0  0  0  0  0  0  0  0
   47.4612   33.2988   35.9472 H   0  0  0  0  0  0  0  0  0  0  0  0
   48.7641   35.0365   39.5743 H   0  0  0  0  0  0  0  0  0  0  0  0
   46.0344   33.3135   41.8467 H   0  0  0  0  0  0  0  0  0  0  0  0
   46.5816   32.0714   43.0128 H   0  0  0  0  0  0  0  0  0  0  0  0
   46.5762   32.6271   45.4943 H   0  0  0  0  0  0  0  0  0  0  0  0
   44.0037   35.8354   46.5826 H   0  0  0  0  0  0  0  0  0  0  0  0
   45.6856   35.9045   41.7464 H   0  0  0  0  0  0  0  0  0  0  0  0
   42.5345   35.4209   39.7114 H   0  0  0  0  0  0  0  0  0  0  0  0
   44.3085   35.5406   39.5649 H   0  0  0  0  0  0  0  0  0  0  0  0
  1 13  1  0
  2  3  1  0
  2  1  1  0
  4  3  1  0
  5  6  1  0
  5  4  1  0
  6  7  1  0
  7  2  1  0
  8  7  1  0
  9  8  1  0
 10 11  1  0
 10  9  2  0
 11 12  2  0
 12  8  1  0
 13 15  1  0
 14 15  2  0
 14 19  1  0
 15 16  1  0
 16 17  2  0
 18 17  1  0
 19 18  2  0
 20 14  1  0
 21 20  1  0
 21 22  2  0
 23 21  1  0
 24 22  1  0
  1 25  1  0
  1 26  1  0
  2 27  1  6
  3 28  1  0
  3 29  1  0
  4 30  1  0
  4 31  1  0
  5 32  1  0
  5 33  1  0
  6 34  1  0
  6 35  1  0
  7 36  1  1
  9 37  1  0
 10 38  1  0
 12 39  1  0
 13 40  1  0
 13 41  1  0
 16 42  1  0
 18 43  1  0
 20 44  1  0
 23 45  1  0
 23 46  1  0
M  ISO  8  25   8  26   8  27  13  28  13  29  13  30  13  31  13  32  13
M  ISO  8  33  13  34  13  35  13  36  13  37  14  38  14  39  14  40   8
M  ISO  3  41   8  42  14  43  14
M  END
>  <minimizedAffinity>  (1) 
-5.33679581

>  <minimizedRMSD>  (1) 
2.02506781

$$$$
