
     RDKit          3D

 41 42  0  0  1  0  0  0  0  0999 V2000
   47.9100   33.4670   42.8970 C   0  0  0  0  0  0  0  0  0  0  0  0
   48.4960   33.5140   41.5300 C   0  0  1  0  0  0  0  0  0  0  0  0
   48.5340   32.1710   40.8480 C   0  0  0  0  0  0  0  0  0  0  0  0
   49.1420   32.3640   39.4660 C   0  0  0  0  0  0  0  0  0  0  0  0
   48.3670   33.3280   38.6300 C   0  0  0  0  0  0  0  0  0  0  0  0
   47.2050   33.8820   39.4210 C   0  0  0  0  0  0  0  0  0  0  0  0
   47.7410   34.5000   40.7090 C   0  0  2  0  0  0  0  0  0  0  0  0
   48.8510   35.3010   40.0830 N   0  0  0  0  0  0  0  0  0  0  0  0
   46.4640   33.0500   42.9400 C   0  0  0  0  0  0  0  0  0  0  0  0
   45.0690   34.9260   43.6560 C   0  0  0  0  0  0  0  0  0  0  0  0
   45.8030   33.8000   43.9800 C   0  0  0  0  0  0  0  0  0  0  0  0
   45.8550   33.4580   45.3200 C   0  0  0  0  0  0  0  0  0  0  0  0
   45.1980   34.2280   46.2370 N   0  0  0  0  0  0  0  0  0  0  0  0
   44.4910   35.3220   45.8710 C   0  0  0  0  0  0  0  0  0  0  0  0
   44.4250   35.6720   44.5830 N   0  0  0  0  0  0  0  0  0  0  0  0
   44.9050   35.4340   42.3180 N   0  0  0  0  0  0  0  0  0  0  0  0
   43.6170   35.4020   41.6360 C   0  0  0  0  0  0  0  0  0  0  0  0
   42.5320   35.3390   42.3850 N   0  0  0  0  0  0  0  0  0  0  0  0
   43.5260   35.4380   40.2060 N   0  0  0  0  0  0  0  0  0  0  0  0
   41.6320   35.3430   41.8810 H   0  0  0  0  0  0  0  0  0  0  0  0
   47.9921   34.4700   43.3412 H   0  0  0  0  0  0  0  0  0  0  0  0
   48.4734   32.7038   43.4539 H   0  0  0  0  0  0  0  0  0  0  0  0
   49.5457   33.8264   41.6325 H   0  0  0  0  0  0  0  0  0  0  0  0
   49.1502   31.4723   41.4329 H   0  0  0  0  0  0  0  0  0  0  0  0
   47.5191   31.7550   40.7650 H   0  0  0  0  0  0  0  0  0  0  0  0
   50.1681   32.7431   39.5818 H   0  0  0  0  0  0  0  0  0  0  0  0
   49.1259   31.3901   38.9548 H   0  0  0  0  0  0  0  0  0  0  0  0
   47.9860   32.8110   37.7370 H   0  0  0  0  0  0  0  0  0  0  0  0
   49.0261   34.1559   38.3298 H   0  0  0  0  0  0  0  0  0  0  0  0
   46.6872   34.6510   38.8289 H   0  0  0  0  0  0  0  0  0  0  0  0
   46.4951   33.0761   39.6589 H   0  0  0  0  0  0  0  0  0  0  0  0
   46.9608   34.9674   41.3278 H   0  0  0  0  0  0  0  0  0  0  0  0
   49.4317   35.7200   40.8233 H   0  0  0  0  0  0  0  0  0  0  0  0
   49.4326   34.6836   39.4986 H   0  0  0  0  0  0  0  0  0  0  0  0
   45.9880   33.2603   41.9709 H   0  0  0  0  0  0  0  0  0  0  0  0
   46.3881   31.9721   43.1458 H   0  0  0  0  0  0  0  0  0  0  0  0
   46.4213   32.5725   45.6442 H   0  0  0  0  0  0  0  0  0  0  0  0
   43.9714   35.9223   46.6324 H   0  0  0  0  0  0  0  0  0  0  0  0
   45.7204   35.8308   41.8296 H   0  0  0  0  0  0  0  0  0  0  0  0
   42.6038   35.4143   39.7479 H   0  0  0  0  0  0  0  0  0  0  0  0
   44.3828   35.4876   39.6365 H   0  0  0  0  0  0  0  0  0  0  0  0
  1  9  1  0
  2  1  1  0
  3  2  1  0
  4  3  1  0
  5  6  1  0
  5  4  1  0
  6  7  1  0
  7  2  1  0
  8  7  1  0
  9 11  1  0
 10 11  2  0
 10 15  1  0
 11 12  1  0
 12 13  2  0
 14 13  1  0
 15 14  2  0
 16 10  1  0
 17 16  1  0
 17 18  2  0
 19 17  1  0
 20 18  1  0
  1 21  1  0
  1 22  1  0
  2 23  1  1
  3 24  1  0
  3 25  1  0
  4 26  1  0
  4 27  1  0
  5 28  1  0
  5 29  1  0
  6 30  1  0
  6 31  1  0
  7 32  1  1
  8 33  1  0
  8 34  1  0
  9 35  1  0
  9 36  1  0
 12 37  1  0
 14 38  1  0
 16 39  1  0
 19 40  1  0
 19 41  1  0
M  ISO  8  21   8  22   8  23  13  24  13  25  13  26  13  27  13  28  13
M  ISO  8  29  13  30  13  31  13  32  13  33   5  34   5  35   8  36   8
M  ISO  2  37  14  38  14
M  END
>  <minimizedAffinity>  (1) 
-5.40917873

>  <minimizedRMSD>  (1) 
0.283863962

$$$$
