
     RDKit          3D

 40 41  0  0  1  0  0  0  0  0999 V2000
   47.9600   33.1550   43.1630 C   0  0  0  0  0  0  0  0  0  0  0  0
   48.5750   33.1470   41.8060 C   0  0  1  0  0  0  0  0  0  0  0  0
   48.1800   31.9860   40.9450 C   0  0  0  0  0  0  0  0  0  0  0  0
   48.8940   32.1390   39.6070 C   0  0  0  0  0  0  0  0  0  0  0  0
   48.5070   33.3920   38.8990 C   0  0  0  0  0  0  0  0  0  0  0  0
   47.5980   34.2450   39.7700 C   0  0  0  0  0  0  0  0  0  0  0  0
   48.2590   34.4370   41.1250 C   0  0  1  0  0  0  0  0  0  0  0  0
   48.1720   35.5770   41.7760 O   0  0  0  0  0  0  0  0  0  0  0  0
   46.4840   32.8580   43.1350 C   0  0  0  0  0  0  0  0  0  0  0  0
   45.1480   34.8170   43.6820 C   0  0  0  0  0  0  0  0  0  0  0  0
   45.8220   33.6870   44.0970 C   0  0  0  0  0  0  0  0  0  0  0  0
   45.8090   33.4040   45.4650 C   0  0  0  0  0  0  0  0  0  0  0  0
   45.1370   34.2520   46.3050 N   0  0  0  0  0  0  0  0  0  0  0  0
   44.4910   35.3450   45.8570 C   0  0  0  0  0  0  0  0  0  0  0  0
   44.4930   35.6340   44.5480 N   0  0  0  0  0  0  0  0  0  0  0  0
   45.0590   35.2970   42.3410 N   0  0  0  0  0  0  0  0  0  0  0  0
   43.7910   35.3110   41.6250 C   0  0  0  0  0  0  0  0  0  0  0  0
   42.6590   35.3040   42.3400 N   0  0  0  0  0  0  0  0  0  0  0  0
   43.7350   35.3450   40.2030 N   0  0  0  0  0  0  0  0  0  0  0  0
   41.7890   35.4060   41.8080 H   0  0  0  0  0  0  0  0  0  0  0  0
   48.4602   32.3943   43.7803 H   0  0  0  0  0  0  0  0  0  0  0  0
   48.0873   34.1653   43.5790 H   0  0  0  0  0  0  0  0  0  0  0  0
   49.6590   33.0312   41.9525 H   0  0  0  0  0  0  0  0  0  0  0  0
   48.4816   31.0434   41.4252 H   0  0  0  0  0  0  0  0  0  0  0  0
   47.0897   31.9662   40.8005 H   0  0  0  0  0  0  0  0  0  0  0  0
   49.9794   32.1542   39.7850 H   0  0  0  0  0  0  0  0  0  0  0  0
   48.6028   31.2898   38.9713 H   0  0  0  0  0  0  0  0  0  0  0  0
   49.4146   33.9641   38.6561 H   0  0  0  0  0  0  0  0  0  0  0  0
   47.9655   33.1249   37.9795 H   0  0  0  0  0  0  0  0  0  0  0  0
   47.4407   35.2237   39.2932 H   0  0  0  0  0  0  0  0  0  0  0  0
   46.6251   33.7473   39.8954 H   0  0  0  0  0  0  0  0  0  0  0  0
   49.2523   34.8632   40.9207 H   0  0  0  0  0  0  0  0  0  0  0  0
   48.1853   35.4024   42.7504 H   0  0  0  0  0  0  0  0  0  0  0  0
   46.0849   33.0671   42.1315 H   0  0  0  0  0  0  0  0  0  0  0  0
   46.3139   31.7988   43.3783 H   0  0  0  0  0  0  0  0  0  0  0  0
   46.3280   32.5180   45.8596 H   0  0  0  0  0  0  0  0  0  0  0  0
   43.9620   36.0004   46.5646 H   0  0  0  0  0  0  0  0  0  0  0  0
   45.9084   35.6403   41.8703 H   0  0  0  0  0  0  0  0  0  0  0  0
   44.6060   35.3504   39.6533 H   0  0  0  0  0  0  0  0  0  0  0  0
   42.8235   35.3642   39.7238 H   0  0  0  0  0  0  0  0  0  0  0  0
  2  1  1  0
  3  2  1  0
  4  3  1  0
  5  4  1  0
  5  6  1  0
  6  7  1  0
  7  8  1  0
  7  2  1  0
  9  1  1  0
  9 11  1  0
 10 11  2  0
 10 15  1  0
 11 12  1  0
 12 13  2  0
 14 13  1  0
 15 14  2  0
 16 10  1  0
 17 18  2  0
 17 16  1  0
 19 17  1  0
 20 18  1  0
  1 21  1  0
  1 22  1  0
  2 23  1  1
  3 24  1  0
  3 25  1  0
  4 26  1  0
  4 27  1  0
  5 28  1  0
  5 29  1  0
  6 30  1  0
  6 31  1  0
  7 32  1  6
  8 33  1  0
  9 34  1  0
  9 35  1  0
 12 36  1  0
 14 37  1  0
 16 38  1  0
 19 39  1  0
 19 40  1  0
M  ISO  8  21   8  22   8  23  13  24  13  25  13  26  13  27  13  28  13
M  ISO  8  29  13  30  13  31  13  32  13  33   3  34   8  35   8  36  14
M  ISO  1  37  14
M  END
>  <minimizedAffinity>  (1) 
-5.08985853

>  <minimizedRMSD>  (1) 
0.47218141

$$$$
