
     RDKit          3D

 45 46  0  0  1  0  0  0  0  0999 V2000
   47.8820   33.0980   42.8300 C   0  0  0  0  0  0  0  0  0  0  0  0
   48.5180   33.1350   41.4770 C   0  0  1  0  0  0  0  0  0  0  0  0
   48.3800   31.8490   40.7260 C   0  0  0  0  0  0  0  0  0  0  0  0
   49.0740   32.0010   39.3840 C   0  0  0  0  0  0  0  0  0  0  0  0
   48.4800   33.1020   38.5700 C   0  0  0  0  0  0  0  0  0  0  0  0
   47.4120   33.8160   39.3270 C   0  0  0  0  0  0  0  0  0  0  0  0
   47.9220   34.2530   40.6950 C   0  0  2  0  0  0  0  0  0  0  0  0
   48.7230   35.5150   40.6700 C   0  0  0  0  0  0  0  0  0  0  0  0
   49.3060   36.0250   41.9180 C   0  0  0  0  0  0  0  0  0  0  0  0
   46.3800   32.9410   42.7750 C   0  0  0  0  0  0  0  0  0  0  0  0
   45.0760   34.8610   43.4950 C   0  0  0  0  0  0  0  0  0  0  0  0
   45.7760   33.7220   43.8180 C   0  0  0  0  0  0  0  0  0  0  0  0
   45.8560   33.3890   45.1670 C   0  0  0  0  0  0  0  0  0  0  0  0
   45.2550   34.1840   46.0910 N   0  0  0  0  0  0  0  0  0  0  0  0
   44.5710   35.3010   45.7310 C   0  0  0  0  0  0  0  0  0  0  0  0
   44.4780   35.6430   44.4390 N   0  0  0  0  0  0  0  0  0  0  0  0
   44.8890   35.4020   42.1850 N   0  0  0  0  0  0  0  0  0  0  0  0
   43.5770   35.3820   41.5450 C   0  0  0  0  0  0  0  0  0  0  0  0
   42.4910   35.3290   42.3270 N   0  0  0  0  0  0  0  0  0  0  0  0
   43.4170   35.4280   40.1170 N   0  0  0  0  0  0  0  0  0  0  0  0
   41.5910   35.4250   41.8550 H   0  0  0  0  0  0  0  0  0  0  0  0
   48.3022   32.2504   43.3913 H   0  0  0  0  0  0  0  0  0  0  0  0
   48.0934   34.0608   43.3182 H   0  0  0  0  0  0  0  0  0  0  0  0
   49.5971   33.2922   41.6212 H   0  0  0  0  0  0  0  0  0  0  0  0
   48.8487   31.0335   41.2964 H   0  0  0  0  0  0  0  0  0  0  0  0
   47.3166   31.6106   40.5768 H   0  0  0  0  0  0  0  0  0  0  0  0
   50.1378   32.2211   39.5570 H   0  0  0  0  0  0  0  0  0  0  0  0
   48.9482   31.0605   38.8275 H   0  0  0  0  0  0  0  0  0  0  0  0
   48.0466   32.6766   37.6529 H   0  0  0  0  0  0  0  0  0  0  0  0
   49.2746   33.8222   38.3254 H   0  0  0  0  0  0  0  0  0  0  0  0
   47.0980   34.7036   38.7582 H   0  0  0  0  0  0  0  0  0  0  0  0
   46.5615   33.1328   39.4682 H   0  0  0  0  0  0  0  0  0  0  0  0
   47.0304   34.5398   41.2719 H   0  0  0  0  0  0  0  0  0  0  0  0
   49.5562   35.3516   39.9707 H   0  0  0  0  0  0  0  0  0  0  0  0
   47.9860   36.2840   40.3953 H   0  0  0  0  0  0  0  0  0  0  0  0
   48.7883   35.5721   42.7764 H   0  0  0  0  0  0  0  0  0  0  0  0
   50.3745   35.7664   41.9561 H   0  0  0  0  0  0  0  0  0  0  0  0
   49.1918   37.1184   41.9561 H   0  0  0  0  0  0  0  0  0  0  0  0
   46.0112   33.2870   41.7981 H   0  0  0  0  0  0  0  0  0  0  0  0
   46.1179   31.8816   42.9131 H   0  0  0  0  0  0  0  0  0  0  0  0
   46.4022   32.4881   45.4833 H   0  0  0  0  0  0  0  0  0  0  0  0
   44.0932   35.9250   46.5006 H   0  0  0  0  0  0  0  0  0  0  0  0
   45.6913   35.8117   41.6856 H   0  0  0  0  0  0  0  0  0  0  0  0
   42.4737   35.4119   39.7037 H   0  0  0  0  0  0  0  0  0  0  0  0
   44.2457   35.4770   39.5072 H   0  0  0  0  0  0  0  0  0  0  0  0
  2  1  1  0
  3  2  1  0
  4  3  1  0
  5  6  1  0
  5  4  1  0
  6  7  1  0
  7  2  1  0
  8  7  1  0
  8  9  1  0
 10  1  1  0
 10 12  1  0
 11 12  2  0
 11 16  1  0
 12 13  1  0
 13 14  2  0
 15 14  1  0
 16 15  2  0
 17 11  1  0
 18 17  1  0
 18 19  2  0
 20 18  1  0
 21 19  1  0
  1 22  1  0
  1 23  1  0
  2 24  1  1
  3 25  1  0
  3 26  1  0
  4 27  1  0
  4 28  1  0
  5 29  1  0
  5 30  1  0
  6 31  1  0
  6 32  1  0
  7 33  1  1
  8 34  1  0
  8 35  1  0
  9 36  1  0
  9 37  1  0
  9 38  1  0
 10 39  1  0
 10 40  1  0
 13 41  1  0
 15 42  1  0
 17 43  1  0
 20 44  1  0
 20 45  1  0
M  ISO  8  22   8  23   8  24  13  25  13  26  13  27  13  28  13  29  13
M  ISO  8  30  13  31  13  32  13  33  13  34   8  35   8  36   8  37   8
M  ISO  5  38   8  39   8  40   8  41  14  42  14
M  END
>  <minimizedAffinity>  (1) 
-5.58743572

>  <minimizedRMSD>  (1) 
0.515232265

$$$$
