
     RDKit          3D

 40 41  0  0  1  0  0  0  0  0999 V2000
   48.0550   33.2850   43.1500 C   0  0  0  0  0  0  0  0  0  0  0  0
   48.4760   32.6200   41.8910 C   0  0  2  0  0  0  0  0  0  0  0  0
   49.7350   32.2240   41.7030 C   0  0  0  0  0  0  0  0  0  0  0  0
   50.1180   31.8880   40.2820 C   0  0  0  0  0  0  0  0  0  0  0  0
   49.0120   31.7810   39.3040 C   0  0  0  0  0  0  0  0  0  0  0  0
   47.6830   31.6910   39.9920 C   0  0  0  0  0  0  0  0  0  0  0  0
   47.4830   32.8970   40.8720 C   0  0  2  0  0  0  0  0  0  0  0  0
   48.0430   34.3250   39.8240 S   0  0  0  0  0  0  0  0  0  0  0  0
   46.6240   32.9700   43.1320 C   0  0  0  0  0  0  0  0  0  0  0  0
   45.1590   34.8690   43.6720 C   0  0  0  0  0  0  0  0  0  0  0  0
   45.9060   33.7680   44.0710 C   0  0  0  0  0  0  0  0  0  0  0  0
   45.9160   33.4610   45.4220 C   0  0  0  0  0  0  0  0  0  0  0  0
   45.2010   34.2420   46.2840 N   0  0  0  0  0  0  0  0  0  0  0  0
   44.4900   35.2990   45.8640 C   0  0  0  0  0  0  0  0  0  0  0  0
   44.4610   35.6220   44.5650 N   0  0  0  0  0  0  0  0  0  0  0  0
   45.0450   35.3360   42.3420 N   0  0  0  0  0  0  0  0  0  0  0  0
   43.7870   35.3310   41.6150 C   0  0  0  0  0  0  0  0  0  0  0  0
   42.6610   35.2930   42.3330 N   0  0  0  0  0  0  0  0  0  0  0  0
   43.7280   35.3710   40.1830 N   0  0  0  0  0  0  0  0  0  0  0  0
   41.7820   35.3470   41.8000 H   0  0  0  0  0  0  0  0  0  0  0  0
   48.5578   32.8539   44.0283 H   0  0  0  0  0  0  0  0  0  0  0  0
   48.2947   34.3567   43.2128 H   0  0  0  0  0  0  0  0  0  0  0  0
   48.5537   31.5228   41.8784 H   0  0  0  0  0  0  0  0  0  0  0  0
   50.3970   33.0320   42.0479 H   0  0  0  0  0  0  0  0  0  0  0  0
   49.8381   31.2856   42.2676 H   0  0  0  0  0  0  0  0  0  0  0  0
   50.8026   32.6723   39.9268 H   0  0  0  0  0  0  0  0  0  0  0  0
   50.5593   30.8816   40.3313 H   0  0  0  0  0  0  0  0  0  0  0  0
   49.1606   30.8789   38.6923 H   0  0  0  0  0  0  0  0  0  0  0  0
   49.0167   32.6832   38.6747 H   0  0  0  0  0  0  0  0  0  0  0  0
   46.8830   31.6521   39.2380 H   0  0  0  0  0  0  0  0  0  0  0  0
   47.6539   30.7812   40.6095 H   0  0  0  0  0  0  0  0  0  0  0  0
   46.4780   33.0973   41.2719 H   0  0  0  0  0  0  0  0  0  0  0  0
   48.4467   35.3544   40.6329 H   0  0  0  0  0  0  0  0  0  0  0  0
   46.2279   33.1599   42.1235 H   0  0  0  0  0  0  0  0  0  0  0  0
   46.4978   31.9124   43.4069 H   0  0  0  0  0  0  0  0  0  0  0  0
   46.4915   32.6008   45.7946 H   0  0  0  0  0  0  0  0  0  0  0  0
   43.9277   35.9037   46.5907 H   0  0  0  0  0  0  0  0  0  0  0  0
   45.8875   35.6940   41.8698 H   0  0  0  0  0  0  0  0  0  0  0  0
   44.5980   35.4002   39.6323 H   0  0  0  0  0  0  0  0  0  0  0  0
   42.8157   35.3705   39.7049 H   0  0  0  0  0  0  0  0  0  0  0  0
  2  1  1  0
  3  2  1  0
  4  3  1  0
  5  6  1  0
  5  4  1  0
  6  7  1  0
  7  2  1  0
  8  7  1  0
  9  1  1  0
  9 11  1  0
 10 11  2  0
 10 15  1  0
 11 12  1  0
 12 13  2  0
 14 13  1  0
 15 14  2  0
 16 10  1  0
 17 18  2  0
 17 16  1  0
 19 17  1  0
 20 18  1  0
  1 21  1  0
  1 22  1  0
  2 23  1  1
  3 24  1  0
  3 25  1  0
  4 26  1  0
  4 27  1  0
  5 28  1  0
  5 29  1  0
  6 30  1  0
  6 31  1  0
  7 32  1  1
  8 33  1  0
  9 34  1  0
  9 35  1  0
 12 36  1  0
 14 37  1  0
 16 38  1  0
 19 39  1  0
 19 40  1  0
M  ISO  8  21   8  22   8  23  13  24  13  25  13  26  13  27  13  28  13
M  ISO  8  29  13  30  13  31  13  32  13  33  11  34   8  35   8  36  14
M  ISO  1  37  14
M  END
>  <minimizedAffinity>  (1) 
-4.81985712

>  <minimizedRMSD>  (1) 
1.09457529

$$$$
