
     RDKit          3D

 27 29  0  0  0  0  0  0  0  0999 V2000
   44.4410   35.9940   44.6470 C   0  0  0  0  0  0  0  0  0  0  0  0
   45.1280   35.9410   43.4310 C   0  0  0  0  0  0  0  0  0  0  0  0
   46.0570   34.9330   43.2020 C   0  0  0  0  0  0  0  0  0  0  0  0
   46.2590   34.0190   44.2010 N   0  0  0  0  0  0  0  0  0  0  0  0
   45.5790   34.0890   45.3790 C   0  0  0  0  0  0  0  0  0  0  0  0
   44.6780   35.0740   45.5900 N   0  0  0  0  0  0  0  0  0  0  0  0
   45.8830   33.0760   46.3350 N   0  0  0  0  0  0  0  0  0  0  0  0
   45.2760   33.1430   47.5340 C   0  0  0  0  0  0  0  0  0  0  0  0
   45.5860   32.1510   48.4470 C   0  0  0  0  0  0  0  0  0  0  0  0
   46.4860   31.1810   48.0540 C   0  0  0  0  0  0  0  0  0  0  0  0
   46.8810   30.1200   48.8900 N   0  0  0  0  0  0  0  0  0  0  0  0
   47.0640   31.1620   46.8380 N   0  0  0  0  0  0  0  0  0  0  0  0
   46.7640   32.1340   45.9390 C   0  0  0  0  0  0  0  0  0  0  0  0
   47.2820   32.1510   44.7950 O   0  0  0  0  0  0  0  0  0  0  0  0
   46.8100   34.7870   42.0050 N   0  0  0  0  0  0  0  0  0  0  0  0
   46.6040   34.1780   40.8230 C   0  0  0  0  0  0  0  0  0  0  0  0
   47.6750   34.3600   40.0250 N   0  0  0  0  0  0  0  0  0  0  0  0
   48.5400   35.0880   40.7330 C   0  0  0  0  0  0  0  0  0  0  0  0
   48.0250   35.3670   41.9710 N   0  0  0  0  0  0  0  0  0  0  0  0
   43.7057   36.7916   44.8291 H   0  0  0  0  0  0  0  0  0  0  0  0
   44.9335   36.6967   42.6557 H   0  0  0  0  0  0  0  0  0  0  0  0
   44.5670   33.9483   47.7767 H   0  0  0  0  0  0  0  0  0  0  0  0
   45.1322   32.1358   49.4489 H   0  0  0  0  0  0  0  0  0  0  0  0
   47.5563   29.4205   48.5501 H   0  0  0  0  0  0  0  0  0  0  0  0
   46.4948   30.0430   49.8417 H   0  0  0  0  0  0  0  0  0  0  0  0
   45.6986   33.6165   40.5493 H   0  0  0  0  0  0  0  0  0  0  0  0
   49.5262   35.4172   40.3738 H   0  0  0  0  0  0  0  0  0  0  0  0
  1  6  2  0
  2  1  1  0
  3  2  2  0
  3  4  1  0
  4  5  2  0
  5  6  1  0
  5  7  1  0
  7  8  1  0
  8  9  2  0
 10  9  1  0
 10 11  1  0
 12 10  2  0
 13  7  1  0
 13 12  1  0
 14 13  2  0
 15  3  1  0
 16 15  1  0
 17 18  1  0
 17 16  2  0
 18 19  2  0
 19 15  1  0
  1 20  1  0
  2 21  1  0
  8 22  1  0
  9 23  1  0
 11 24  1  0
 11 25  1  0
 16 26  1  0
 18 27  1  0
M  ISO  6  20  14  21  14  22  14  23  14  26  14  27  14
M  END
>  <minimizedAffinity>  (1) 
-6.41804266

>  <minimizedRMSD>  (1) 
0.130364105

$$$$
