
     RDKit          3D

 29 31  0  0  0  0  0  0  0  0999 V2000
   44.4900   36.0820   44.4460 C   0  0  0  0  0  0  0  0  0  0  0  0
   45.1890   35.9940   43.2430 C   0  0  0  0  0  0  0  0  0  0  0  0
   46.1240   34.9810   43.0480 C   0  0  0  0  0  0  0  0  0  0  0  0
   46.3110   34.0950   44.0880 N   0  0  0  0  0  0  0  0  0  0  0  0
   45.6130   34.2090   45.2530 C   0  0  0  0  0  0  0  0  0  0  0  0
   44.7200   35.1870   45.4200 N   0  0  0  0  0  0  0  0  0  0  0  0
   45.8520   33.2630   46.2890 N   0  0  0  0  0  0  0  0  0  0  0  0
   46.7970   32.3150   46.1500 C   0  0  0  0  0  0  0  0  0  0  0  0
   47.0600   31.3780   47.1330 C   0  0  0  0  0  0  0  0  0  0  0  0
   48.1140   30.3260   46.9640 C   0  0  0  0  0  0  0  0  0  0  0  0
   46.3100   31.4380   48.2940 C   0  0  0  0  0  0  0  0  0  0  0  0
   46.4840   30.6250   49.2380 O   0  0  0  0  0  0  0  0  0  0  0  0
   45.3900   32.4120   48.3550 N   0  0  0  0  0  0  0  0  0  0  0  0
   45.1280   33.3170   47.4190 C   0  0  0  0  0  0  0  0  0  0  0  0
   44.2500   34.2100   47.5310 O   0  0  0  0  0  0  0  0  0  0  0  0
   46.8880   34.7950   41.8730 N   0  0  0  0  0  0  0  0  0  0  0  0
   46.6980   34.1140   40.7150 C   0  0  0  0  0  0  0  0  0  0  0  0
   47.7800   34.2890   39.9240 N   0  0  0  0  0  0  0  0  0  0  0  0
   48.6230   35.0730   40.6000 C   0  0  0  0  0  0  0  0  0  0  0  0
   48.0750   35.3910   41.8110 N   0  0  0  0  0  0  0  0  0  0  0  0
   43.7515   36.8831   44.5969 H   0  0  0  0  0  0  0  0  0  0  0  0
   45.0012   36.7275   42.4451 H   0  0  0  0  0  0  0  0  0  0  0  0
   47.3825   32.2841   45.2193 H   0  0  0  0  0  0  0  0  0  0  0  0
   48.4546   29.9860   47.9531 H   0  0  0  0  0  0  0  0  0  0  0  0
   47.6960   29.4742   46.4074 H   0  0  0  0  0  0  0  0  0  0  0  0
   48.9650   30.7456   46.4074 H   0  0  0  0  0  0  0  0  0  0  0  0
   44.8286   32.4634   49.2170 H   0  0  0  0  0  0  0  0  0  0  0  0
   45.8093   33.5174   40.4615 H   0  0  0  0  0  0  0  0  0  0  0  0
   49.6056   35.4105   40.2386 H   0  0  0  0  0  0  0  0  0  0  0  0
  1  6  2  0
  2  1  1  0
  3  2  2  0
  3  4  1  0
  4  5  2  0
  5  6  1  0
  5  7  1  0
  7 14  1  0
  8  7  1  0
  8  9  2  0
  9 11  1  0
 10  9  1  0
 11 13  1  0
 11 12  2  0
 14 15  2  0
 14 13  1  0
 16  3  1  0
 17 16  1  0
 18 19  1  0
 18 17  2  0
 19 20  2  0
 20 16  1  0
  1 21  1  0
  2 22  1  0
  8 23  1  0
 10 24  1  0
 10 25  1  0
 10 26  1  0
 13 27  1  0
 17 28  1  0
 19 29  1  0
M  ISO  8  21  14  22  14  23  14  24   8  25   8  26   8  27   9  28  14
M  ISO  1  29  14
M  END
>  <minimizedAffinity>  (1) 
-6.23783159

>  <minimizedRMSD>  (1) 
0.2348786

$$$$
