
     RDKit          3D

 30 33  0  0  0  0  0  0  0  0999 V2000
   44.5340   36.0490   44.5280 C   0  0  0  0  0  0  0  0  0  0  0  0
   45.2150   36.0110   43.3040 C   0  0  0  0  0  0  0  0  0  0  0  0
   46.1100   34.9610   43.0590 C   0  0  0  0  0  0  0  0  0  0  0  0
   46.2680   34.0270   44.0340 N   0  0  0  0  0  0  0  0  0  0  0  0
   45.5930   34.0900   45.2120 C   0  0  0  0  0  0  0  0  0  0  0  0
   44.7410   35.0940   45.4400 N   0  0  0  0  0  0  0  0  0  0  0  0
   45.7570   33.1150   46.2350 N   0  0  0  0  0  0  0  0  0  0  0  0
   45.2300   33.0590   47.4920 C   0  0  0  0  0  0  0  0  0  0  0  0
   45.6730   31.9300   48.1070 N   0  0  0  0  0  0  0  0  0  0  0  0
   46.4830   31.2630   47.2400 C   0  0  0  0  0  0  0  0  0  0  0  0
   47.2060   30.0760   47.3090 C   0  0  0  0  0  0  0  0  0  0  0  0
   47.1750   29.3860   48.3630 O   0  0  0  0  0  0  0  0  0  0  0  0
   47.9360   29.6750   46.2450 N   0  0  0  0  0  0  0  0  0  0  0  0
   47.9610   30.4200   45.1300 C   0  0  0  0  0  0  0  0  0  0  0  0
   48.6940   30.0910   43.9570 N   0  0  0  0  0  0  0  0  0  0  0  0
   47.2790   31.5730   45.0170 N   0  0  0  0  0  0  0  0  0  0  0  0
   46.5370   32.0080   46.0600 C   0  0  0  0  0  0  0  0  0  0  0  0
   46.8530   34.8250   41.8570 N   0  0  0  0  0  0  0  0  0  0  0  0
   46.6710   34.2180   40.6810 C   0  0  0  0  0  0  0  0  0  0  0  0
   47.7170   34.4100   39.8720 N   0  0  0  0  0  0  0  0  0  0  0  0
   48.5800   35.1620   40.5690 C   0  0  0  0  0  0  0  0  0  0  0  0
   48.0580   35.4290   41.8060 N   0  0  0  0  0  0  0  0  0  0  0  0
   43.8281   36.8659   44.7386 H   0  0  0  0  0  0  0  0  0  0  0  0
   45.0497   36.7926   42.5478 H   0  0  0  0  0  0  0  0  0  0  0  0
   44.5559   33.8061   47.9362 H   0  0  0  0  0  0  0  0  0  0  0  0
   48.4732   28.7973   46.2902 H   0  0  0  0  0  0  0  0  0  0  0  0
   48.6632   30.7154   43.1384 H   0  0  0  0  0  0  0  0  0  0  0  0
   49.2558   29.2283   43.9258 H   0  0  0  0  0  0  0  0  0  0  0  0
   45.7767   33.6360   40.4135 H   0  0  0  0  0  0  0  0  0  0  0  0
   49.5571   35.5109   40.2035 H   0  0  0  0  0  0  0  0  0  0  0  0
  1  6  2  0
  2  1  1  0
  3  2  2  0
  3  4  1  0
  4  5  2  0
  5  6  1  0
  5  7  1  0
  7  8  1  0
  8  9  2  0
 10 11  1  0
 10  9  1  0
 11 12  2  0
 13 11  1  0
 14 13  1  0
 15 14  1  0
 16 14  2  0
 16 17  1  0
 17  7  1  0
 17 10  2  0
 18  3  1  0
 19 18  1  0
 20 21  1  0
 20 19  2  0
 21 22  2  0
 22 18  1  0
  1 23  1  0
  2 24  1  0
  8 25  1  0
 13 26  1  0
 15 27  1  0
 15 28  1  0
 19 29  1  0
 21 30  1  0
M  ISO  6  23  14  24  14  25  14  26   9  29  14  30  14
M  END
>  <minimizedAffinity>  (1) 
-6.09175539

>  <minimizedRMSD>  (1) 
0.13729611

$$$$
