
     RDKit          3D

 29 32  0  0  0  0  0  0  0  0999 V2000
   44.4670   36.1150   44.7490 C   0  0  0  0  0  0  0  0  0  0  0  0
   45.1130   36.0400   43.5040 C   0  0  0  0  0  0  0  0  0  0  0  0
   45.9520   34.9520   43.2580 C   0  0  0  0  0  0  0  0  0  0  0  0
   46.0920   34.0210   44.2470 N   0  0  0  0  0  0  0  0  0  0  0  0
   45.4520   34.1200   45.4410 C   0  0  0  0  0  0  0  0  0  0  0  0
   44.6440   35.1770   45.6700 N   0  0  0  0  0  0  0  0  0  0  0  0
   45.7340   33.0420   46.3420 N   0  0  0  0  0  0  0  0  0  0  0  0
   45.2960   32.8510   47.6210 C   0  0  0  0  0  0  0  0  0  0  0  0
   45.8230   31.6830   48.0820 N   0  0  0  0  0  0  0  0  0  0  0  0
   46.5720   31.1540   47.1190 C   0  0  0  0  0  0  0  0  0  0  0  0
   47.3480   30.0280   46.9470 C   0  0  0  0  0  0  0  0  0  0  0  0
   48.0250   29.7410   45.8000 N   0  0  0  0  0  0  0  0  0  0  0  0
   47.9370   30.6100   44.7550 C   0  0  0  0  0  0  0  0  0  0  0  0
   47.1970   31.7100   44.8800 N   0  0  0  0  0  0  0  0  0  0  0  0
   46.5330   31.9840   46.0170 C   0  0  0  0  0  0  0  0  0  0  0  0
   46.6650   34.7520   42.0500 N   0  0  0  0  0  0  0  0  0  0  0  0
   46.4050   34.1520   40.8780 C   0  0  0  0  0  0  0  0  0  0  0  0
   47.4500   34.2490   40.0410 N   0  0  0  0  0  0  0  0  0  0  0  0
   48.3910   34.9360   40.7310 C   0  0  0  0  0  0  0  0  0  0  0  0
   47.9030   35.2440   41.9650 N   0  0  0  0  0  0  0  0  0  0  0  0
   47.4610   29.1000   48.0170 N   0  0  0  0  0  0  0  0  0  0  0  0
   43.8034   36.9656   44.9637 H   0  0  0  0  0  0  0  0  0  0  0  0
   44.9615   36.8189   42.7422 H   0  0  0  0  0  0  0  0  0  0  0  0
   44.6318   33.5246   48.1824 H   0  0  0  0  0  0  0  0  0  0  0  0
   48.4724   30.4050   43.8162 H   0  0  0  0  0  0  0  0  0  0  0  0
   45.4587   33.6465   40.6349 H   0  0  0  0  0  0  0  0  0  0  0  0
   49.3898   35.2027   40.3552 H   0  0  0  0  0  0  0  0  0  0  0  0
   48.0367   28.2532   47.9057 H   0  0  0  0  0  0  0  0  0  0  0  0
   46.9672   29.2741   48.9040 H   0  0  0  0  0  0  0  0  0  0  0  0
  1  6  2  0
  2  1  1  0
  3  2  2  0
  3  4  1  0
  4  5  2  0
  5  6  1  0
  5  7  1  0
  7  8  1  0
  8  9  2  0
 10  9  1  0
 11 10  2  0
 11 21  1  0
 12 11  1  0
 13 14  1  0
 13 12  2  0
 14 15  2  0
 15  7  1  0
 15 10  1  0
 16  3  1  0
 17 16  1  0
 18 19  1  0
 18 17  2  0
 19 20  2  0
 20 16  1  0
  1 22  1  0
  2 23  1  0
  8 24  1  0
 13 25  1  0
 17 26  1  0
 19 27  1  0
 21 28  1  0
 21 29  1  0
M  ISO  6  22  14  23  14  24  14  25  14  26  14  27  14
M  END
>  <minimizedAffinity>  (1) 
-6.3861742

>  <minimizedRMSD>  (1) 
0.205639705

$$$$
