
     RDKit          3D

 32 35  0  0  0  0  0  0  0  0999 V2000
   44.4550   36.1120   44.6730 C   0  0  0  0  0  0  0  0  0  0  0  0
   45.1020   36.0670   43.4260 C   0  0  0  0  0  0  0  0  0  0  0  0
   45.9600   35.0070   43.1970 C   0  0  0  0  0  0  0  0  0  0  0  0
   46.0880   34.1180   44.2060 N   0  0  0  0  0  0  0  0  0  0  0  0
   45.4750   34.1540   45.3970 C   0  0  0  0  0  0  0  0  0  0  0  0
   44.6550   35.1800   45.5950 N   0  0  0  0  0  0  0  0  0  0  0  0
   45.8430   33.0320   46.2510 C   0  0  0  0  0  0  0  0  0  0  0  0
   45.4010   32.9430   47.5520 C   0  0  0  0  0  0  0  0  0  0  0  0
   45.7210   31.9040   48.3990 C   0  0  0  0  0  0  0  0  0  0  0  0
   46.5250   30.8710   47.9730 C   0  0  0  0  0  0  0  0  0  0  0  0
   46.9910   30.9190   46.6770 C   0  0  0  0  0  0  0  0  0  0  0  0
   47.7930   29.8880   46.2520 C   0  0  0  0  0  0  0  0  0  0  0  0
   48.3000   29.8630   44.9690 C   0  0  0  0  0  0  0  0  0  0  0  0
   47.9530   30.9330   44.1410 C   0  0  0  0  0  0  0  0  0  0  0  0
   47.1480   31.9360   44.6200 C   0  0  0  0  0  0  0  0  0  0  0  0
   46.6380   31.9810   45.8770 C   0  0  0  0  0  0  0  0  0  0  0  0
   46.7030   34.8020   41.9930 N   0  0  0  0  0  0  0  0  0  0  0  0
   46.4870   34.1860   40.8280 C   0  0  0  0  0  0  0  0  0  0  0  0
   47.5600   34.3040   40.0240 N   0  0  0  0  0  0  0  0  0  0  0  0
   48.4510   35.0100   40.7210 C   0  0  0  0  0  0  0  0  0  0  0  0
   47.9450   35.3280   41.9390 N   0  0  0  0  0  0  0  0  0  0  0  0
   43.7654   36.9412   44.8896 H   0  0  0  0  0  0  0  0  0  0  0  0
   44.9329   36.8424   42.6643 H   0  0  0  0  0  0  0  0  0  0  0  0
   44.7560   33.7466   47.9371 H   0  0  0  0  0  0  0  0  0  0  0  0
   45.3296   31.9001   49.4270 H   0  0  0  0  0  0  0  0  0  0  0  0
   46.7859   30.0380   48.6424 H   0  0  0  0  0  0  0  0  0  0  0  0
   48.0349   29.0692   46.9456 H   0  0  0  0  0  0  0  0  0  0  0  0
   48.9436   29.0435   44.6167 H   0  0  0  0  0  0  0  0  0  0  0  0
   48.3245   30.9717   43.1063 H   0  0  0  0  0  0  0  0  0  0  0  0
   46.8986   32.7615   43.9371 H   0  0  0  0  0  0  0  0  0  0  0  0
   45.5606   33.6557   40.5623 H   0  0  0  0  0  0  0  0  0  0  0  0
   49.4510   35.2934   40.3608 H   0  0  0  0  0  0  0  0  0  0  0  0
  1  6  2  0
  2  1  1  0
  3  2  2  0
  3  4  1  0
  4  5  2  0
  5  6  1  0
  5  7  1  0
  7  8  2  0
  8  9  1  0
 10  9  2  0
 11 10  1  0
 12 11  2  0
 13 12  1  0
 14 15  1  0
 14 13  2  0
 15 16  2  0
 16  7  1  0
 16 11  1  0
 17  3  1  0
 18 17  1  0
 19 20  1  0
 19 18  2  0
 20 21  2  0
 21 17  1  0
  1 22  1  0
  2 23  1  0
  8 24  1  0
  9 25  1  0
 10 26  1  0
 12 27  1  0
 13 28  1  0
 14 29  1  0
 15 30  1  0
 18 31  1  0
 20 32  1  0
M  ISO  8  22  14  23  14  24  14  25  14  26  14  27  14  28  14  29  14
M  ISO  3  30  14  31  14  32  14
M  END
>  <minimizedAffinity>  (1) 
-6.34474993

>  <minimizedRMSD>  (1) 
0.518409789

$$$$
