
     RDKit          3D

 26 28  0  0  0  0  0  0  0  0999 V2000
   44.4540   35.8930   44.8020 C   0  0  0  0  0  0  0  0  0  0  0  0
   45.0860   35.8680   43.5470 C   0  0  0  0  0  0  0  0  0  0  0  0
   46.0230   34.8700   43.2930 C   0  0  0  0  0  0  0  0  0  0  0  0
   46.2880   33.9520   44.2840 N   0  0  0  0  0  0  0  0  0  0  0  0
   45.6460   34.0240   45.4860 C   0  0  0  0  0  0  0  0  0  0  0  0
   44.7440   34.9850   45.7280 N   0  0  0  0  0  0  0  0  0  0  0  0
   45.9650   33.0280   46.4960 C   0  0  0  0  0  0  0  0  0  0  0  0
   45.1950   32.9580   47.6460 C   0  0  0  0  0  0  0  0  0  0  0  0
   45.4790   32.0140   48.6310 C   0  0  0  0  0  0  0  0  0  0  0  0
   46.5520   31.1680   48.3980 C   0  0  0  0  0  0  0  0  0  0  0  0
   47.3340   31.2160   47.2660 C   0  0  0  0  0  0  0  0  0  0  0  0
   47.0250   32.1660   46.3060 C   0  0  0  0  0  0  0  0  0  0  0  0
   46.7360   34.7320   42.0570 N   0  0  0  0  0  0  0  0  0  0  0  0
   46.4650   34.1610   40.8760 C   0  0  0  0  0  0  0  0  0  0  0  0
   47.5120   34.3290   40.0360 N   0  0  0  0  0  0  0  0  0  0  0  0
   48.4330   35.0190   40.7360 C   0  0  0  0  0  0  0  0  0  0  0  0
   47.9510   35.2690   41.9840 N   0  0  0  0  0  0  0  0  0  0  0  0
   43.7103   36.6735   45.0204 H   0  0  0  0  0  0  0  0  0  0  0  0
   44.8455   36.6208   42.7818 H   0  0  0  0  0  0  0  0  0  0  0  0
   44.3532   33.6528   47.7824 H   0  0  0  0  0  0  0  0  0  0  0  0
   44.8796   31.9435   49.5506 H   0  0  0  0  0  0  0  0  0  0  0  0
   46.7927   30.4143   49.1622 H   0  0  0  0  0  0  0  0  0  0  0  0
   48.1768   30.5226   47.1282 H   0  0  0  0  0  0  0  0  0  0  0  0
   47.6276   32.2331   45.3882 H   0  0  0  0  0  0  0  0  0  0  0  0
   45.5317   33.6348   40.6268 H   0  0  0  0  0  0  0  0  0  0  0  0
   49.4182   35.3309   40.3589 H   0  0  0  0  0  0  0  0  0  0  0  0
  1  6  2  0
  2  1  1  0
  3  2  2  0
  3  4  1  0
  4  5  2  0
  5  6  1  0
  5  7  1  0
  7  8  2  0
  8  9  1  0
 10  9  2  0
 11 10  1  0
 12  7  1  0
 12 11  2  0
 13  3  1  0
 14 13  1  0
 15 16  1  0
 15 14  2  0
 16 17  2  0
 17 13  1  0
  1 18  1  0
  2 19  1  0
  8 20  1  0
  9 21  1  0
 10 22  1  0
 11 23  1  0
 12 24  1  0
 14 25  1  0
 16 26  1  0
M  ISO  8  18  14  19  14  20  14  21  14  22  14  23  14  24  14  25  14
M  ISO  1  26  14
M  END
>  <minimizedAffinity>  (1) 
-5.79738092

>  <minimizedRMSD>  (1) 
0.435146928

$$$$
