
     RDKit          3D

 23 24  0  0  0  0  0  0  0  0999 V2000
   44.5650   36.0630   44.4730 C   0  0  0  0  0  0  0  0  0  0  0  0
   45.2500   36.0280   43.2400 C   0  0  0  0  0  0  0  0  0  0  0  0
   46.1070   34.9640   42.9870 C   0  0  0  0  0  0  0  0  0  0  0  0
   46.2430   33.9990   43.9600 N   0  0  0  0  0  0  0  0  0  0  0  0
   45.5600   34.0720   45.1420 C   0  0  0  0  0  0  0  0  0  0  0  0
   44.7380   35.0960   45.3800 N   0  0  0  0  0  0  0  0  0  0  0  0
   45.7500   33.0390   46.1000 N   0  0  0  0  0  0  0  0  0  0  0  0
   45.3240   33.2270   47.4440 C   0  0  0  0  0  0  0  0  0  0  0  0
   44.3520   34.0420   47.6660 N   0  0  0  0  0  0  0  0  0  0  0  0
   45.9850   32.5100   48.5030 N   0  0  0  0  0  0  0  0  0  0  0  0
   43.9760   34.2410   48.5980 H   0  0  0  0  0  0  0  0  0  0  0  0
   46.8580   34.7940   41.7900 N   0  0  0  0  0  0  0  0  0  0  0  0
   46.6230   34.1390   40.6260 C   0  0  0  0  0  0  0  0  0  0  0  0
   47.6840   34.2960   39.8020 N   0  0  0  0  0  0  0  0  0  0  0  0
   48.5620   35.0560   40.4920 C   0  0  0  0  0  0  0  0  0  0  0  0
   48.0540   35.3660   41.7210 N   0  0  0  0  0  0  0  0  0  0  0  0
   43.8803   36.8960   44.6907 H   0  0  0  0  0  0  0  0  0  0  0  0
   45.1087   36.8254   42.4955 H   0  0  0  0  0  0  0  0  0  0  0  0
   46.1965   32.1538   45.8207 H   0  0  0  0  0  0  0  0  0  0  0  0
   45.6834   32.6398   49.4793 H   0  0  0  0  0  0  0  0  0  0  0  0
   46.7596   31.8672   48.2844 H   0  0  0  0  0  0  0  0  0  0  0  0
   45.7123   33.5694   40.3891 H   0  0  0  0  0  0  0  0  0  0  0  0
   49.5447   35.3787   40.1177 H   0  0  0  0  0  0  0  0  0  0  0  0
  1  6  2  0
  2  1  1  0
  3  2  2  0
  3  4  1  0
  4  5  2  0
  5  6  1  0
  5  7  1  0
  7  8  1  0
  8  9  2  0
  8 10  1  0
  9 11  1  0
 12  3  1  0
 13 12  1  0
 14 15  1  0
 14 13  2  0
 15 16  2  0
 16 12  1  0
  1 17  1  0
  2 18  1  0
  7 19  1  0
 10 20  1  0
 10 21  1  0
 13 22  1  0
 15 23  1  0
M  ISO  4  17  14  18  14  22  14  23  14
M  END
>  <minimizedAffinity>  (1) 
-6.02912569

>  <minimizedRMSD>  (1) 
0.183461726

$$$$
