
     RDKit          3D

 32 34  0  0  0  0  0  0  0  0999 V2000
   44.5170   35.8630   44.9140 C   0  0  0  0  0  0  0  0  0  0  0  0
   45.1560   35.8750   43.6630 C   0  0  0  0  0  0  0  0  0  0  0  0
   46.0220   34.8230   43.3590 C   0  0  0  0  0  0  0  0  0  0  0  0
   46.1990   33.8410   44.2940 N   0  0  0  0  0  0  0  0  0  0  0  0
   45.5640   33.8680   45.4860 C   0  0  0  0  0  0  0  0  0  0  0  0
   44.7340   34.8660   45.7920 N   0  0  0  0  0  0  0  0  0  0  0  0
   46.7330   34.7140   42.1250 N   0  0  0  0  0  0  0  0  0  0  0  0
   46.4710   34.1680   40.9270 C   0  0  0  0  0  0  0  0  0  0  0  0
   47.5120   34.3520   40.0930 N   0  0  0  0  0  0  0  0  0  0  0  0
   48.4300   35.0290   40.8070 C   0  0  0  0  0  0  0  0  0  0  0  0
   47.9590   35.2550   42.0590 N   0  0  0  0  0  0  0  0  0  0  0  0
   45.7900   32.7820   46.4670 C   0  0  0  0  0  0  0  0  0  0  0  0
   45.0300   33.0400   47.7530 C   0  0  0  0  0  0  0  0  0  0  0  0
   45.0300   31.7140   48.4870 C   0  0  0  0  0  0  0  0  0  0  0  0
   46.4250   31.2590   48.7740 C   0  0  0  0  0  0  0  0  0  0  0  0
   47.5120   32.0810   48.1630 C   0  0  0  0  0  0  0  0  0  0  0  0
   47.2450   32.5820   46.7870 C   0  0  0  0  0  0  0  0  0  0  0  0
   43.8297   36.6797   45.1798 H   0  0  0  0  0  0  0  0  0  0  0  0
   44.9793   36.6889   42.9445 H   0  0  0  0  0  0  0  0  0  0  0  0
   45.5395   33.6452   40.6643 H   0  0  0  0  0  0  0  0  0  0  0  0
   49.4130   35.3504   40.4324 H   0  0  0  0  0  0  0  0  0  0  0  0
   45.4156   31.8634   45.9916 H   0  0  0  0  0  0  0  0  0  0  0  0
   45.5354   33.8123   48.3515 H   0  0  0  0  0  0  0  0  0  0  0  0
   44.0098   33.4043   47.5618 H   0  0  0  0  0  0  0  0  0  0  0  0
   44.4868   31.8288   49.4366 H   0  0  0  0  0  0  0  0  0  0  0  0
   44.5406   30.9619   47.8508 H   0  0  0  0  0  0  0  0  0  0  0  0
   46.5662   31.2688   49.8649 H   0  0  0  0  0  0  0  0  0  0  0  0
   46.5139   30.2600   48.3221 H   0  0  0  0  0  0  0  0  0  0  0  0
   47.6833   32.9519   48.8127 H   0  0  0  0  0  0  0  0  0  0  0  0
   48.3812   31.4125   48.0759 H   0  0  0  0  0  0  0  0  0  0  0  0
   47.6574   31.8558   46.0711 H   0  0  0  0  0  0  0  0  0  0  0  0
   47.7192   33.5721   46.7174 H   0  0  0  0  0  0  0  0  0  0  0  0
  1  6  2  0
  2  1  1  0
  3  2  2  0
  3  4  1  0
  4  5  2  0
  5  6  1  0
  5 12  1  0
  7  3  1  0
  8  7  1  0
  9 10  1  0
  9  8  2  0
 10 11  2  0
 11  7  1  0
 12 17  1  0
 12 13  1  0
 13 14  1  0
 14 15  1  0
 16 15  1  0
 17 16  1  0
  1 18  1  0
  2 19  1  0
  8 20  1  0
 10 21  1  0
 12 22  1  0
 13 23  1  0
 13 24  1  0
 14 25  1  0
 14 26  1  0
 15 27  1  0
 15 28  1  0
 16 29  1  0
 16 30  1  0
 17 31  1  0
 17 32  1  0
M  ISO  8  18  14  19  14  20  14  21  14  22  13  23  13  24  13  25  13
M  ISO  7  26  13  27  13  28  13  29  13  30  13  31  13  32  13
M  END
>  <minimizedAffinity>  (1) 
-5.7181797

>  <minimizedRMSD>  (1) 
0.670585752

$$$$
