
     RDKit          3D

 29 31  0  0  0  0  0  0  0  0999 V2000
   44.4780   35.9160   44.6870 C   0  0  0  0  0  0  0  0  0  0  0  0
   45.1440   35.9070   43.4530 C   0  0  0  0  0  0  0  0  0  0  0  0
   46.0860   34.9030   43.2080 C   0  0  0  0  0  0  0  0  0  0  0  0
   46.3100   33.9760   44.1970 N   0  0  0  0  0  0  0  0  0  0  0  0
   45.6520   34.0120   45.3750 C   0  0  0  0  0  0  0  0  0  0  0  0
   44.7500   34.9740   45.6100 N   0  0  0  0  0  0  0  0  0  0  0  0
   45.9360   33.0190   46.3530 N   0  0  0  0  0  0  0  0  0  0  0  0
   45.2220   33.0800   47.6020 C   0  0  0  0  0  0  0  0  0  0  0  0
   45.3930   31.8930   48.4760 C   0  0  0  0  0  0  0  0  0  0  0  0
   46.1630   30.8730   47.9770 O   0  0  0  0  0  0  0  0  0  0  0  0
   47.3180   31.4180   47.4280 C   0  0  0  0  0  0  0  0  0  0  0  0
   46.9180   31.9840   46.0830 C   0  0  0  0  0  0  0  0  0  0  0  0
   46.8270   34.7810   42.0010 N   0  0  0  0  0  0  0  0  0  0  0  0
   46.6140   34.1810   40.8080 C   0  0  0  0  0  0  0  0  0  0  0  0
   47.6550   34.3730   39.9930 N   0  0  0  0  0  0  0  0  0  0  0  0
   48.5380   35.1100   40.7010 C   0  0  0  0  0  0  0  0  0  0  0  0
   48.0320   35.3700   41.9530 N   0  0  0  0  0  0  0  0  0  0  0  0
   43.7313   36.6947   44.9016 H   0  0  0  0  0  0  0  0  0  0  0  0
   44.9299   36.6736   42.6937 H   0  0  0  0  0  0  0  0  0  0  0  0
   45.5730   33.9645   48.1538 H   0  0  0  0  0  0  0  0  0  0  0  0
   44.1532   33.1239   47.3455 H   0  0  0  0  0  0  0  0  0  0  0  0
   45.8551   32.2326   49.4147 H   0  0  0  0  0  0  0  0  0  0  0  0
   44.3850   31.4681   48.5916 H   0  0  0  0  0  0  0  0  0  0  0  0
   47.7091   32.2157   48.0766 H   0  0  0  0  0  0  0  0  0  0  0  0
   48.1096   30.6611   47.3256 H   0  0  0  0  0  0  0  0  0  0  0  0
   46.4781   31.1963   45.4537 H   0  0  0  0  0  0  0  0  0  0  0  0
   47.7877   32.3883   45.5444 H   0  0  0  0  0  0  0  0  0  0  0  0
   45.7091   33.6135   40.5451 H   0  0  0  0  0  0  0  0  0  0  0  0
   49.5161   35.4514   40.3313 H   0  0  0  0  0  0  0  0  0  0  0  0
  1  6  2  0
  2  1  1  0
  3  2  2  0
  3  4  1  0
  4  5  2  0
  5  6  1  0
  5  7  1  0
  7  8  1  0
  8  9  1  0
 10  9  1  0
 11 10  1  0
 12  7  1  0
 12 11  1  0
 13  3  1  0
 14 13  1  0
 15 16  1  0
 15 14  2  0
 16 17  2  0
 17 13  1  0
  1 18  1  0
  2 19  1  0
  8 20  1  0
  8 21  1  0
  9 22  1  0
  9 23  1  0
 11 24  1  0
 11 25  1  0
 12 26  1  0
 12 27  1  0
 14 28  1  0
 16 29  1  0
M  ISO  8  18  14  19  14  20  13  21  13  22  13  23  13  24  13  25  13
M  ISO  4  26  13  27  13  28  14  29  14
M  END
>  <minimizedAffinity>  (1) 
-5.70174217

>  <minimizedRMSD>  (1) 
0.17395246

$$$$
