
     RDKit          3D

 22 24  0  0  0  0  0  0  0  0999 V2000
   44.4950   35.9110   44.7010 C   0  0  0  0  0  0  0  0  0  0  0  0
   45.1520   35.8890   43.4680 C   0  0  0  0  0  0  0  0  0  0  0  0
   46.0880   34.8880   43.2050 C   0  0  0  0  0  0  0  0  0  0  0  0
   46.3140   33.9720   44.1790 N   0  0  0  0  0  0  0  0  0  0  0  0
   45.6660   34.0060   45.3760 C   0  0  0  0  0  0  0  0  0  0  0  0
   44.7640   34.9770   45.6170 N   0  0  0  0  0  0  0  0  0  0  0  0
   46.8190   34.7670   41.9820 N   0  0  0  0  0  0  0  0  0  0  0  0
   46.6010   34.1780   40.7990 C   0  0  0  0  0  0  0  0  0  0  0  0
   47.6570   34.3850   39.9790 N   0  0  0  0  0  0  0  0  0  0  0  0
   48.5330   35.1170   40.6840 C   0  0  0  0  0  0  0  0  0  0  0  0
   48.0280   35.3620   41.9280 N   0  0  0  0  0  0  0  0  0  0  0  0
   45.9530   32.9790   46.4020 C   0  0  0  0  0  0  0  0  0  0  0  0
   46.9740   31.9680   46.2740 C   0  0  0  0  0  0  0  0  0  0  0  0
   46.7840   31.0830   47.8320 S   0  0  0  0  0  0  0  0  0  0  0  0
   45.3620   32.2110   48.4110 C   0  0  0  0  0  0  0  0  0  0  0  0
   45.2350   32.9790   47.5110 N   0  0  0  0  0  0  0  0  0  0  0  0
   43.7566   36.6972   44.9171 H   0  0  0  0  0  0  0  0  0  0  0  0
   44.9329   36.6554   42.7099 H   0  0  0  0  0  0  0  0  0  0  0  0
   45.6972   33.6100   40.5334 H   0  0  0  0  0  0  0  0  0  0  0  0
   49.5089   35.4662   40.3157 H   0  0  0  0  0  0  0  0  0  0  0  0
   47.6781   31.7865   45.4486 H   0  0  0  0  0  0  0  0  0  0  0  0
   44.7943   32.1637   49.3520 H   0  0  0  0  0  0  0  0  0  0  0  0
  1  6  2  0
  2  1  1  0
  3  2  2  0
  3  4  1  0
  4  5  2  0
  5  6  1  0
  5 12  1  0
  7  3  1  0
  8  7  1  0
  9 10  1  0
  9  8  2  0
 10 11  2  0
 11  7  1  0
 12 16  1  0
 13 12  2  0
 13 14  1  0
 14 15  1  0
 16 15  2  0
  1 17  1  0
  2 18  1  0
  8 19  1  0
 10 20  1  0
 13 21  1  0
 15 22  1  0
M  ISO  6  17  14  18  14  19  14  20  14  21  14  22  14
M  END
>  <minimizedAffinity>  (1) 
-5.2819891

>  <minimizedRMSD>  (1) 
0.500592053

$$$$
