
     RDKit          3D

 23 25  0  0  0  0  0  0  0  0999 V2000
   44.5180   35.7130   44.9270 C   0  0  0  0  0  0  0  0  0  0  0  0
   45.1320   35.7500   43.6640 C   0  0  0  0  0  0  0  0  0  0  0  0
   46.0900   34.7630   43.3620 C   0  0  0  0  0  0  0  0  0  0  0  0
   46.3580   33.8370   44.3180 N   0  0  0  0  0  0  0  0  0  0  0  0
   45.7550   33.8190   45.5300 C   0  0  0  0  0  0  0  0  0  0  0  0
   44.8350   34.7730   45.8100 N   0  0  0  0  0  0  0  0  0  0  0  0
   46.7880   34.6870   42.1160 N   0  0  0  0  0  0  0  0  0  0  0  0
   46.5020   34.1330   40.9130 C   0  0  0  0  0  0  0  0  0  0  0  0
   47.5430   34.3690   40.0780 N   0  0  0  0  0  0  0  0  0  0  0  0
   48.4420   35.0590   40.7800 C   0  0  0  0  0  0  0  0  0  0  0  0
   47.9840   35.2630   42.0490 N   0  0  0  0  0  0  0  0  0  0  0  0
   46.0200   32.8610   46.5430 C   0  0  0  0  0  0  0  0  0  0  0  0
   45.2950   32.8710   47.6720 C   0  0  0  0  0  0  0  0  0  0  0  0
   45.3890   32.0540   48.7440 C   0  0  0  0  0  0  0  0  0  0  0  0
   46.4580   31.0750   48.5160 C   0  0  0  0  0  0  0  0  0  0  0  0
   47.1450   31.5120   46.7820 S   0  0  0  0  0  0  0  0  0  0  0  0
   43.7655   36.4718   45.1878 H   0  0  0  0  0  0  0  0  0  0  0  0
   44.8717   36.5282   42.9314 H   0  0  0  0  0  0  0  0  0  0  0  0
   45.5826   33.5856   40.6579 H   0  0  0  0  0  0  0  0  0  0  0  0
   49.4096   35.4116   40.3935 H   0  0  0  0  0  0  0  0  0  0  0  0
   44.5198   33.6490   47.7330 H   0  0  0  0  0  0  0  0  0  0  0  0
   44.7624   32.1134   49.6462 H   0  0  0  0  0  0  0  0  0  0  0  0
   46.7901   30.2710   49.1893 H   0  0  0  0  0  0  0  0  0  0  0  0
  1  6  2  0
  2  1  1  0
  3  2  2  0
  3  4  1  0
  4  5  2  0
  5  6  1  0
  5 12  1  0
  7  3  1  0
  8  7  1  0
  9 10  1  0
  9  8  2  0
 10 11  2  0
 11  7  1  0
 12 16  1  0
 12 13  2  0
 13 14  1  0
 15 14  2  0
 16 15  1  0
  1 17  1  0
  2 18  1  0
  8 19  1  0
 10 20  1  0
 13 21  1  0
 14 22  1  0
 15 23  1  0
M  ISO  7  17  14  18  14  19  14  20  14  21  14  22  14  23  14
M  END
>  <minimizedAffinity>  (1) 
-5.3772068

>  <minimizedRMSD>  (1) 
0.616525829

$$$$
