
     RDKit          3D

 29 31  0  0  0  0  0  0  0  0999 V2000
   44.8510   35.0140   45.1130 C   0  0  0  0  0  0  0  0  0  0  0  0
   45.3980   35.2380   43.8380 C   0  0  0  0  0  0  0  0  0  0  0  0
   46.4490   34.4280   43.4180 C   0  0  0  0  0  0  0  0  0  0  0  0
   46.9000   33.4540   44.2690 N   0  0  0  0  0  0  0  0  0  0  0  0
   46.3430   33.2700   45.4940 C   0  0  0  0  0  0  0  0  0  0  0  0
   45.3340   34.0400   45.9090 N   0  0  0  0  0  0  0  0  0  0  0  0
   47.0890   34.5550   42.1470 N   0  0  0  0  0  0  0  0  0  0  0  0
   46.8540   34.0950   40.9090 C   0  0  0  0  0  0  0  0  0  0  0  0
   47.8030   34.5360   40.0630 N   0  0  0  0  0  0  0  0  0  0  0  0
   48.6360   35.2800   40.7970 C   0  0  0  0  0  0  0  0  0  0  0  0
   48.2060   35.3010   42.0900 N   0  0  0  0  0  0  0  0  0  0  0  0
   46.9180   32.1810   46.3230 C   0  0  0  0  0  0  0  0  0  0  0  0
   45.9200   31.0680   46.3920 C   0  0  0  0  0  0  0  0  0  0  0  0
   45.3170   31.0730   47.7810 C   0  0  0  0  0  0  0  0  0  0  0  0
   45.9370   32.2390   48.5130 C   0  0  0  0  0  0  0  0  0  0  0  0
   47.1600   32.6420   47.7440 C   0  0  0  0  0  0  0  0  0  0  0  0
   44.0188   35.6412   45.4653 H   0  0  0  0  0  0  0  0  0  0  0  0
   45.0052   36.0338   43.1881 H   0  0  0  0  0  0  0  0  0  0  0  0
   46.0083   33.4508   40.6264 H   0  0  0  0  0  0  0  0  0  0  0  0
   49.5301   35.7955   40.4164 H   0  0  0  0  0  0  0  0  0  0  0  0
   47.8697   31.8677   45.8690 H   0  0  0  0  0  0  0  0  0  0  0  0
   45.1316   31.2251   45.6412 H   0  0  0  0  0  0  0  0  0  0  0  0
   46.4060   30.1026   46.1874 H   0  0  0  0  0  0  0  0  0  0  0  0
   44.2258   31.1986   47.7212 H   0  0  0  0  0  0  0  0  0  0  0  0
   45.5135   30.1252   48.3035 H   0  0  0  0  0  0  0  0  0  0  0  0
   45.2263   33.0773   48.5580 H   0  0  0  0  0  0  0  0  0  0  0  0
   46.1973   31.9601   49.5447 H   0  0  0  0  0  0  0  0  0  0  0  0
   48.0533   32.1527   48.1595 H   0  0  0  0  0  0  0  0  0  0  0  0
   47.3340   33.7269   47.7957 H   0  0  0  0  0  0  0  0  0  0  0  0
  1  6  2  0
  2  1  1  0
  3  2  2  0
  3  4  1  0
  4  5  2  0
  5  6  1  0
  5 12  1  0
  7  3  1  0
  8  7  1  0
  9 10  1  0
  9  8  2  0
 10 11  2  0
 11  7  1  0
 12 13  1  0
 12 16  1  0
 13 14  1  0
 14 15  1  0
 16 15  1  0
  1 17  1  0
  2 18  1  0
  8 19  1  0
 10 20  1  0
 12 21  1  0
 13 22  1  0
 13 23  1  0
 14 24  1  0
 14 25  1  0
 15 26  1  0
 15 27  1  0
 16 28  1  0
 16 29  1  0
M  ISO  8  17  14  18  14  19  14  20  14  21  13  22  13  23  13  24  13
M  ISO  5  25  13  26  13  27  13  28  13  29  13
M  END
>  <minimizedAffinity>  (1) 
-5.08618069

>  <minimizedRMSD>  (1) 
1.15986347

$$$$
