
     RDKit          3D

 18 19  0  0  0  0  0  0  0  0999 V2000
   44.5120   36.1660   44.6430 C   0  0  0  0  0  0  0  0  0  0  0  0
   45.1990   36.1020   43.4220 C   0  0  0  0  0  0  0  0  0  0  0  0
   46.0110   34.9760   43.1700 C   0  0  0  0  0  0  0  0  0  0  0  0
   46.0810   34.0140   44.1260 N   0  0  0  0  0  0  0  0  0  0  0  0
   45.4020   34.1070   45.2980 C   0  0  0  0  0  0  0  0  0  0  0  0
   44.6300   35.1760   45.5410 N   0  0  0  0  0  0  0  0  0  0  0  0
   45.5880   33.0100   46.1900 N   0  0  0  0  0  0  0  0  0  0  0  0
   46.7540   34.8000   41.9700 N   0  0  0  0  0  0  0  0  0  0  0  0
   46.5280   34.1880   40.7980 C   0  0  0  0  0  0  0  0  0  0  0  0
   47.5900   34.3290   39.9880 N   0  0  0  0  0  0  0  0  0  0  0  0
   48.4860   35.0450   40.6810 C   0  0  0  0  0  0  0  0  0  0  0  0
   47.9700   35.3350   41.9030 N   0  0  0  0  0  0  0  0  0  0  0  0
   43.8726   37.0329   44.8658 H   0  0  0  0  0  0  0  0  0  0  0  0
   45.1072   36.9088   42.6800 H   0  0  0  0  0  0  0  0  0  0  0  0
   45.1089   33.0007   47.1018 H   0  0  0  0  0  0  0  0  0  0  0  0
   46.2014   32.2270   45.9225 H   0  0  0  0  0  0  0  0  0  0  0  0
   45.6055   33.6483   40.5377 H   0  0  0  0  0  0  0  0  0  0  0  0
   49.4791   35.3487   40.3184 H   0  0  0  0  0  0  0  0  0  0  0  0
  1  6  2  0
  2  1  1  0
  3  2  2  0
  3  4  1  0
  4  5  2  0
  5  6  1  0
  5  7  1  0
  8  3  1  0
  9  8  1  0
 10 11  1  0
 10  9  2  0
 11 12  2  0
 12  8  1  0
  1 13  1  0
  2 14  1  0
  7 15  1  0
  7 16  1  0
  9 17  1  0
 11 18  1  0
M  ISO  4  13  14  14  14  17  14  18  14
M  END
>  <minimizedAffinity>  (1) 
-4.49784851

>  <minimizedRMSD>  (1) 
0.109265849

$$$$
