
     RDKit          3D

 25 26  0  0  0  0  0  0  0  0999 V2000
   44.5360   35.6820   44.8190 C   0  0  0  0  0  0  0  0  0  0  0  0
   45.1460   35.7250   43.5590 C   0  0  0  0  0  0  0  0  0  0  0  0
   46.1530   34.7790   43.2740 C   0  0  0  0  0  0  0  0  0  0  0  0
   46.4670   33.8770   44.2500 N   0  0  0  0  0  0  0  0  0  0  0  0
   45.8520   33.8700   45.4560 C   0  0  0  0  0  0  0  0  0  0  0  0
   44.8940   34.7740   45.7210 N   0  0  0  0  0  0  0  0  0  0  0  0
   46.8560   34.7060   42.0360 N   0  0  0  0  0  0  0  0  0  0  0  0
   46.6230   34.1450   40.8450 C   0  0  0  0  0  0  0  0  0  0  0  0
   47.6490   34.3930   40.0100 N   0  0  0  0  0  0  0  0  0  0  0  0
   48.5340   35.1290   40.7170 C   0  0  0  0  0  0  0  0  0  0  0  0
   48.0470   35.3270   41.9790 N   0  0  0  0  0  0  0  0  0  0  0  0
   46.2650   32.8530   46.4450 C   0  0  0  0  0  0  0  0  0  0  0  0
   45.2800   32.8020   47.6140 C   0  0  0  0  0  0  0  0  0  0  0  0
   46.3360   31.4810   45.8440 C   0  0  0  0  0  0  0  0  0  0  0  0
   43.7493   36.4102   45.0656 H   0  0  0  0  0  0  0  0  0  0  0  0
   44.8481   36.4757   42.8122 H   0  0  0  0  0  0  0  0  0  0  0  0
   45.7246   33.5657   40.5856 H   0  0  0  0  0  0  0  0  0  0  0  0
   49.4941   35.5087   40.3375 H   0  0  0  0  0  0  0  0  0  0  0  0
   47.2650   33.1497   46.7941 H   0  0  0  0  0  0  0  0  0  0  0  0
   45.8355   32.8308   48.5630 H   0  0  0  0  0  0  0  0  0  0  0  0
   44.6016   33.6662   47.5599 H   0  0  0  0  0  0  0  0  0  0  0  0
   44.6945   31.8723   47.5599 H   0  0  0  0  0  0  0  0  0  0  0  0
   46.3748   30.7304   46.6472 H   0  0  0  0  0  0  0  0  0  0  0  0
   45.4457   31.3067   45.2220 H   0  0  0  0  0  0  0  0  0  0  0  0
   47.2396   31.3995   45.2220 H   0  0  0  0  0  0  0  0  0  0  0  0
  1  6  2  0
  2  1  1  0
  3  2  2  0
  3  4  1  0
  4  5  2  0
  5  6  1  0
  5 12  1  0
  7  3  1  0
  8  7  1  0
  9 10  1  0
  9  8  2  0
 10 11  2  0
 11  7  1  0
 12 13  1  0
 14 12  1  0
  1 15  1  0
  2 16  1  0
  8 17  1  0
 10 18  1  0
 12 19  1  0
 13 20  1  0
 13 21  1  0
 13 22  1  0
 14 23  1  0
 14 24  1  0
 14 25  1  0
M  ISO  8  15  14  16  14  17  14  18  14  19   8  20   8  21   8  22   8
M  ISO  3  23   8  24   8  25   8
M  END
>  <minimizedAffinity>  (1) 
-4.7387023

>  <minimizedRMSD>  (1) 
0.361561269

$$$$
