
     RDKit          3D

 19 20  0  0  0  0  0  0  0  0999 V2000
   44.4740   36.0130   44.5870 C   0  0  0  0  0  0  0  0  0  0  0  0
   45.1520   35.9670   43.3640 C   0  0  0  0  0  0  0  0  0  0  0  0
   46.0830   34.9600   43.1250 C   0  0  0  0  0  0  0  0  0  0  0  0
   46.2820   34.0470   44.1340 N   0  0  0  0  0  0  0  0  0  0  0  0
   45.6060   34.1190   45.3140 C   0  0  0  0  0  0  0  0  0  0  0  0
   44.7160   35.0940   45.5260 N   0  0  0  0  0  0  0  0  0  0  0  0
   46.8340   34.8070   41.9270 N   0  0  0  0  0  0  0  0  0  0  0  0
   46.6190   34.1840   40.7550 C   0  0  0  0  0  0  0  0  0  0  0  0
   47.6740   34.3530   39.9460 N   0  0  0  0  0  0  0  0  0  0  0  0
   48.5500   35.0990   40.6480 C   0  0  0  0  0  0  0  0  0  0  0  0
   48.0350   35.3850   41.8810 N   0  0  0  0  0  0  0  0  0  0  0  0
   45.9580   33.0480   46.2730 C   0  0  0  0  0  0  0  0  0  0  0  0
   43.7388   36.8090   44.7762 H   0  0  0  0  0  0  0  0  0  0  0  0
   44.9498   36.7250   42.5929 H   0  0  0  0  0  0  0  0  0  0  0  0
   45.7109   33.6189   40.4981 H   0  0  0  0  0  0  0  0  0  0  0  0
   49.5337   35.4287   40.2825 H   0  0  0  0  0  0  0  0  0  0  0  0
   45.8354   33.4211   47.3005 H   0  0  0  0  0  0  0  0  0  0  0  0
   45.2969   32.1831   46.1156 H   0  0  0  0  0  0  0  0  0  0  0  0
   47.0034   32.7439   46.1156 H   0  0  0  0  0  0  0  0  0  0  0  0
  1  6  2  0
  2  1  1  0
  3  2  2  0
  3  4  1  0
  4  5  2  0
  5  6  1  0
  5 12  1  0
  7  3  1  0
  8  7  1  0
  9 10  1  0
  9  8  2  0
 10 11  2  0
 11  7  1  0
  1 13  1  0
  2 14  1  0
  8 15  1  0
 10 16  1  0
 12 17  1  0
 12 18  1  0
 12 19  1  0
M  ISO  7  13  14  14  14  15  14  16  14  17   8  18   8  19   8
M  END
>  <minimizedAffinity>  (1) 
-4.4267149

>  <minimizedRMSD>  (1) 
0.0612331927

$$$$
