
     RDKit          3D

 29 32  0  0  0  0  0  0  0  0999 V2000
   44.4820   36.0200   44.7660 C   0  0  0  0  0  0  0  0  0  0  0  0
   44.7770   35.7660   43.4130 C   0  0  0  0  0  0  0  0  0  0  0  0
   45.3790   34.5480   43.0820 C   0  0  0  0  0  0  0  0  0  0  0  0
   45.6500   33.6670   44.0900 N   0  0  0  0  0  0  0  0  0  0  0  0
   45.3470   33.9540   45.3840 C   0  0  0  0  0  0  0  0  0  0  0  0
   44.7750   35.1070   45.7100 N   0  0  0  0  0  0  0  0  0  0  0  0
   45.6580   32.9790   46.3830 N   0  0  0  0  0  0  0  0  0  0  0  0
   46.3300   31.8390   46.2140 C   0  0  0  0  0  0  0  0  0  0  0  0
   46.3990   31.2150   47.4070 N   0  0  0  0  0  0  0  0  0  0  0  0
   45.7760   31.9510   48.3340 C   0  0  0  0  0  0  0  0  0  0  0  0
   45.3220   33.0460   47.6730 N   0  0  0  0  0  0  0  0  0  0  0  0
   45.7280   34.1690   41.7600 N   0  0  0  0  0  0  0  0  0  0  0  0
   45.1200   33.4840   40.7760 C   0  0  0  0  0  0  0  0  0  0  0  0
   45.9130   33.4070   39.6900 N   0  0  0  0  0  0  0  0  0  0  0  0
   47.0410   34.0700   40.0350 C   0  0  0  0  0  0  0  0  0  0  0  0
   46.9300   34.5410   41.3090 N   0  0  0  0  0  0  0  0  0  0  0  0
   48.2410   34.2680   39.1620 C   0  0  0  0  0  0  0  0  0  0  0  0
   48.6900   32.9930   38.3770 C   0  0  0  0  0  0  0  0  0  0  0  0
   48.0620   34.1600   37.7040 C   0  0  0  0  0  0  0  0  0  0  0  0
   44.0091   36.9707   45.0532 H   0  0  0  0  0  0  0  0  0  0  0  0
   44.5398   36.5072   42.6356 H   0  0  0  0  0  0  0  0  0  0  0  0
   46.7535   31.4725   45.2673 H   0  0  0  0  0  0  0  0  0  0  0  0
   45.6571   31.7187   49.4026 H   0  0  0  0  0  0  0  0  0  0  0  0
   44.1133   33.0465   40.8479 H   0  0  0  0  0  0  0  0  0  0  0  0
   48.7049   35.0130   39.8251 H   0  0  0  0  0  0  0  0  0  0  0  0
   49.7587   32.7763   38.2325 H   0  0  0  0  0  0  0  0  0  0  0  0
   48.4887   31.9134   38.4400 H   0  0  0  0  0  0  0  0  0  0  0  0
   48.6700   34.7899   37.0379 H   0  0  0  0  0  0  0  0  0  0  0  0
   47.1920   34.2704   37.0399 H   0  0  0  0  0  0  0  0  0  0  0  0
  1  6  2  0
  2  1  1  0
  3  2  2  0
  3  4  1  0
  4  5  2  0
  5  6  1  0
  5  7  1  0
  7 11  1  0
  8  7  1  0
  8  9  2  0
  9 10  1  0
 11 10  2  0
 12  3  1  0
 13 12  1  0
 14 15  1  0
 14 13  2  0
 15 16  2  0
 16 12  1  0
 17 15  1  0
 18 17  1  0
 19 18  1  0
 19 17  1  0
  1 20  1  0
  2 21  1  0
  8 22  1  0
 10 23  1  0
 13 24  1  0
 17 25  1  0
 18 26  1  0
 18 27  1  0
 19 28  1  0
 19 29  1  0
M  ISO  8  20  14  21  14  22  14  23  14  24  14  25  13  26  13  27  13
M  ISO  2  28  13  29  13
M  END
>  <minimizedAffinity>  (1) 
-5.4107461

>  <minimizedRMSD>  (1) 
1.43267381

$$$$
