
     RDKit          3D

 25 27  0  0  0  0  0  0  0  0999 V2000
   44.4380   35.8410   45.0010 C   0  0  0  0  0  0  0  0  0  0  0  0
   44.8230   35.5740   43.6770 C   0  0  0  0  0  0  0  0  0  0  0  0
   45.5160   34.3850   43.4120 C   0  0  0  0  0  0  0  0  0  0  0  0
   45.7770   33.5550   44.4520 N   0  0  0  0  0  0  0  0  0  0  0  0
   45.3880   33.8480   45.7230 C   0  0  0  0  0  0  0  0  0  0  0  0
   44.7340   34.9700   45.9780 N   0  0  0  0  0  0  0  0  0  0  0  0
   45.7000   32.9260   46.7640 N   0  0  0  0  0  0  0  0  0  0  0  0
   46.5090   31.8460   46.6720 C   0  0  0  0  0  0  0  0  0  0  0  0
   46.5330   31.2480   47.8740 N   0  0  0  0  0  0  0  0  0  0  0  0
   45.7460   31.9350   48.7310 C   0  0  0  0  0  0  0  0  0  0  0  0
   45.2470   32.9650   48.0170 N   0  0  0  0  0  0  0  0  0  0  0  0
   45.9600   34.0000   42.1110 N   0  0  0  0  0  0  0  0  0  0  0  0
   45.6130   33.0520   41.2410 C   0  0  0  0  0  0  0  0  0  0  0  0
   46.3840   33.1450   40.1280 N   0  0  0  0  0  0  0  0  0  0  0  0
   47.2060   34.1720   40.3470 C   0  0  0  0  0  0  0  0  0  0  0  0
   46.9590   34.7150   41.5710 N   0  0  0  0  0  0  0  0  0  0  0  0
   48.2270   34.6560   39.4220 C   0  0  0  0  0  0  0  0  0  0  0  0
   48.3680   34.0900   38.3070 O   0  0  0  0  0  0  0  0  0  0  0  0
   49.0440   35.7300   39.7530 O   0  0  0  0  0  0  0  0  0  0  0  0
   43.8925   36.7664   45.2377 H   0  0  0  0  0  0  0  0  0  0  0  0
   44.5864   36.2807   42.8679 H   0  0  0  0  0  0  0  0  0  0  0  0
   47.0506   31.5164   45.7731 H   0  0  0  0  0  0  0  0  0  0  0  0
   45.5528   31.7031   49.7888 H   0  0  0  0  0  0  0  0  0  0  0  0
   44.8206   32.3060   41.4010 H   0  0  0  0  0  0  0  0  0  0  0  0
   49.7311   36.0448   39.1135 H   0  0  0  0  0  0  0  0  0  0  0  0
  1  6  2  0
  2  1  1  0
  3  2  2  0
  3  4  1  0
  4  5  2  0
  5  6  1  0
  5  7  1  0
  7 11  1  0
  8  7  1  0
  8  9  2  0
  9 10  1  0
 11 10  2  0
 12  3  1  0
 13 12  1  0
 14 15  1  0
 14 13  2  0
 15 16  2  0
 16 12  1  0
 17 19  1  0
 17 15  1  0
 18 17  2  0
  1 20  1  0
  2 21  1  0
  8 22  1  0
 10 23  1  0
 13 24  1  0
 19 25  1  0
M  ISO  6  20  14  21  14  22  14  23  14  24  14  25   3
M  END
>  <minimizedAffinity>  (1) 
-5.50414085

>  <minimizedRMSD>  (1) 
1.1731894

$$$$
