
     RDKit          3D

 25 27  0  0  0  0  0  0  0  0999 V2000
   44.4350   36.0080   44.8600 C   0  0  0  0  0  0  0  0  0  0  0  0
   44.7270   35.7500   43.5020 C   0  0  0  0  0  0  0  0  0  0  0  0
   45.3430   34.5140   43.1770 C   0  0  0  0  0  0  0  0  0  0  0  0
   45.6150   33.6600   44.1850 N   0  0  0  0  0  0  0  0  0  0  0  0
   45.3160   33.9490   45.4860 C   0  0  0  0  0  0  0  0  0  0  0  0
   44.7410   35.0990   45.8010 N   0  0  0  0  0  0  0  0  0  0  0  0
   45.6330   32.9980   46.4830 N   0  0  0  0  0  0  0  0  0  0  0  0
   46.3720   31.8860   46.3330 C   0  0  0  0  0  0  0  0  0  0  0  0
   46.4300   31.2620   47.5280 N   0  0  0  0  0  0  0  0  0  0  0  0
   45.7380   31.9580   48.4430 C   0  0  0  0  0  0  0  0  0  0  0  0
   45.2580   33.0270   47.7640 N   0  0  0  0  0  0  0  0  0  0  0  0
   45.6840   34.1420   41.8540 N   0  0  0  0  0  0  0  0  0  0  0  0
   45.0920   33.4530   40.8870 C   0  0  0  0  0  0  0  0  0  0  0  0
   45.8850   33.3960   39.7840 N   0  0  0  0  0  0  0  0  0  0  0  0
   46.9930   34.0820   40.1190 C   0  0  0  0  0  0  0  0  0  0  0  0
   46.8840   34.5510   41.4000 N   0  0  0  0  0  0  0  0  0  0  0  0
   48.1650   34.2990   39.2290 C   0  0  0  0  0  0  0  0  0  0  0  0
   48.7950   35.4900   39.5230 F   0  0  0  0  0  0  0  0  0  0  0  0
   47.7630   34.4190   37.8970 F   0  0  0  0  0  0  0  0  0  0  0  0
   49.0040   33.2200   39.2990 F   0  0  0  0  0  0  0  0  0  0  0  0
   43.9559   36.9555   45.1477 H   0  0  0  0  0  0  0  0  0  0  0  0
   44.4841   36.4850   42.7205 H   0  0  0  0  0  0  0  0  0  0  0  0
   46.8459   31.5446   45.4009 H   0  0  0  0  0  0  0  0  0  0  0  0
   45.5931   31.7149   49.5060 H   0  0  0  0  0  0  0  0  0  0  0  0
   44.0967   32.9914   40.9666 H   0  0  0  0  0  0  0  0  0  0  0  0
  1  6  2  0
  2  1  1  0
  3  2  2  0
  3  4  1  0
  4  5  2  0
  5  6  1  0
  5  7  1  0
  7 11  1  0
  8  7  1  0
  8  9  2  0
  9 10  1  0
 11 10  2  0
 12  3  1  0
 13 12  1  0
 14 15  1  0
 14 13  2  0
 15 16  2  0
 16 12  1  0
 17 20  1  0
 17 18  1  0
 17 15  1  0
 19 17  1  0
  1 21  1  0
  2 22  1  0
  8 23  1  0
 10 24  1  0
 13 25  1  0
M  ISO  5  21  14  22  14  23  14  24  14  25  14
M  END
>  <minimizedAffinity>  (1) 
-5.75993013

>  <minimizedRMSD>  (1) 
1.41199803

$$$$
