
     RDKit          3D

 34 38  0  0  0  0  0  0  0  0999 V2000
   47.4790   33.9980   42.2900 N   0  0  0  0  0  0  0  0  0  0  0  0
   48.5790   33.2790   42.1600 C   0  0  0  0  0  0  0  0  0  0  0  0
   49.0100   33.3730   40.8840 N   0  0  0  0  0  0  0  0  0  0  0  0
   48.1630   34.1560   40.2370 C   0  0  0  0  0  0  0  0  0  0  0  0
   47.1720   34.5710   41.1110 N   0  0  0  0  0  0  0  0  0  0  0  0
   44.7720   35.4980   44.4150 C   0  0  0  0  0  0  0  0  0  0  0  0
   45.5950   35.3040   43.3070 C   0  0  0  0  0  0  0  0  0  0  0  0
   46.5780   34.2860   43.3710 C   0  0  0  0  0  0  0  0  0  0  0  0
   46.6620   33.5600   44.5030 N   0  0  0  0  0  0  0  0  0  0  0  0
   45.8380   33.7810   45.5690 C   0  0  0  0  0  0  0  0  0  0  0  0
   44.9160   34.7290   45.5200 N   0  0  0  0  0  0  0  0  0  0  0  0
   45.9950   32.9710   46.7280 N   0  0  0  0  0  0  0  0  0  0  0  0
   46.9510   32.0810   46.9600 C   0  0  0  0  0  0  0  0  0  0  0  0
   46.7310   31.5410   48.1670 N   0  0  0  0  0  0  0  0  0  0  0  0
   45.6320   32.0840   48.7120 C   0  0  0  0  0  0  0  0  0  0  0  0
   45.1940   32.9700   47.7960 N   0  0  0  0  0  0  0  0  0  0  0  0
   48.1530   34.5680   38.9080 O   0  0  0  0  0  0  0  0  0  0  0  0
   45.1020   31.9970   36.4780 N   0  0  0  0  0  0  0  0  0  0  0  0
   44.5290   32.4120   37.6280 C   0  0  0  0  0  0  0  0  0  0  0  0
   45.4530   33.1360   38.2670 N   0  0  0  0  0  0  0  0  0  0  0  0
   46.5560   33.1560   37.5160 C   0  0  0  0  0  0  0  0  0  0  0  0
   47.6950   33.8110   37.8800 C   0  0  0  0  0  0  0  0  0  0  0  0
   48.7170   33.7120   36.9730 N   0  0  0  0  0  0  0  0  0  0  0  0
   48.5640   33.0050   35.8170 C   0  0  0  0  0  0  0  0  0  0  0  0
   47.3970   32.3690   35.5100 N   0  0  0  0  0  0  0  0  0  0  0  0
   46.3740   32.4380   36.3620 C   0  0  0  0  0  0  0  0  0  0  0  0
   49.0640   32.6993   42.9592 H   0  0  0  0  0  0  0  0  0  0  0  0
   44.0001   36.2813   44.3915 H   0  0  0  0  0  0  0  0  0  0  0  0
   45.4841   35.9253   42.4061 H   0  0  0  0  0  0  0  0  0  0  0  0
   47.7792   31.8301   46.2809 H   0  0  0  0  0  0  0  0  0  0  0  0
   45.1863   31.8561   49.6915 H   0  0  0  0  0  0  0  0  0  0  0  0
   44.6268   31.4144   35.7740 H   0  0  0  0  0  0  0  0  0  0  0  0
   43.5060   32.1971   37.9706 H   0  0  0  0  0  0  0  0  0  0  0  0
   49.4060   32.9459   35.1117 H   0  0  0  0  0  0  0  0  0  0  0  0
  1  8  1  0
  2  1  1  0
  3  2  2  0
  4  3  1  0
  4  5  2  0
  5  1  1  0
  6 11  2  0
  7  8  2  0
  7  6  1  0
  8  9  1  0
  9 10  2  0
 10 12  1  0
 11 10  1  0
 12 13  1  0
 12 16  1  0
 13 14  2  0
 14 15  1  0
 16 15  2  0
 17  4  1  0
 18 19  1  0
 19 20  2  0
 21 22  2  0
 21 20  1  0
 22 17  1  0
 23 22  1  0
 24 23  2  0
 25 24  1  0
 25 26  2  0
 26 18  1  0
 26 21  1  0
  2 27  1  0
  6 28  1  0
  7 29  1  0
 13 30  1  0
 15 31  1  0
 18 32  1  0
 19 33  1  0
 24 34  1  0
M  ISO  8  27  14  28  14  29  14  30  14  31  14  32   9  33  14  34  14
M  END
>  <minimizedAffinity>  (1) 
-6.60024405

>  <minimizedRMSD>  (1) 
2.55685472

$$$$
