
     RDKit          3D

 25 27  0  0  0  0  0  0  0  0999 V2000
   44.4570   35.9770   44.7930 C   0  0  0  0  0  0  0  0  0  0  0  0
   44.8470   35.7130   43.4690 C   0  0  0  0  0  0  0  0  0  0  0  0
   45.5270   34.5180   43.1960 C   0  0  0  0  0  0  0  0  0  0  0  0
   45.7760   33.6720   44.2330 N   0  0  0  0  0  0  0  0  0  0  0  0
   45.3860   33.9570   45.4980 C   0  0  0  0  0  0  0  0  0  0  0  0
   44.7390   35.0900   45.7670 N   0  0  0  0  0  0  0  0  0  0  0  0
   45.6700   33.0430   46.5350 N   0  0  0  0  0  0  0  0  0  0  0  0
   46.4460   31.9520   46.4460 C   0  0  0  0  0  0  0  0  0  0  0  0
   46.4720   31.3390   47.6420 N   0  0  0  0  0  0  0  0  0  0  0  0
   45.7080   32.0390   48.5060 C   0  0  0  0  0  0  0  0  0  0  0  0
   45.2310   33.0800   47.7910 N   0  0  0  0  0  0  0  0  0  0  0  0
   45.9720   34.1380   41.8970 N   0  0  0  0  0  0  0  0  0  0  0  0
   45.5370   33.2800   40.9640 C   0  0  0  0  0  0  0  0  0  0  0  0
   46.3480   33.3070   39.8860 N   0  0  0  0  0  0  0  0  0  0  0  0
   47.3020   34.2160   40.1900 C   0  0  0  0  0  0  0  0  0  0  0  0
   47.0840   34.7390   41.4300 N   0  0  0  0  0  0  0  0  0  0  0  0
   48.4590   34.6260   39.3180 C   0  0  0  0  0  0  0  0  0  0  0  0
   43.9218   36.9073   45.0340 H   0  0  0  0  0  0  0  0  0  0  0  0
   44.6235   36.4287   42.6641 H   0  0  0  0  0  0  0  0  0  0  0  0
   46.9744   31.6145   45.5422 H   0  0  0  0  0  0  0  0  0  0  0  0
   45.5153   31.8107   49.5647 H   0  0  0  0  0  0  0  0  0  0  0  0
   44.6451   32.6438   41.0630 H   0  0  0  0  0  0  0  0  0  0  0  0
   49.3069   34.9265   39.9511 H   0  0  0  0  0  0  0  0  0  0  0  0
   48.7577   33.7790   38.6829 H   0  0  0  0  0  0  0  0  0  0  0  0
   48.1577   35.4721   38.6829 H   0  0  0  0  0  0  0  0  0  0  0  0
  1  6  2  0
  2  1  1  0
  3  2  2  0
  3  4  1  0
  4  5  2  0
  5  6  1  0
  5  7  1  0
  7 11  1  0
  8  7  1  0
  8  9  2  0
  9 10  1  0
 11 10  2  0
 12  3  1  0
 13 12  1  0
 14 15  1  0
 14 13  2  0
 15 16  2  0
 16 12  1  0
 17 15  1  0
  1 18  1  0
  2 19  1  0
  8 20  1  0
 10 21  1  0
 13 22  1  0
 17 23  1  0
 17 24  1  0
 17 25  1  0
M  ISO  8  18  14  19  14  20  14  21  14  22  14  23   8  24   8  25   8
M  END
>  <minimizedAffinity>  (1) 
-5.17435551

>  <minimizedRMSD>  (1) 
0.892458439

$$$$
