
     RDKit          3D

 30 33  0  0  0  0  0  0  0  0999 V2000
   44.7320   35.4560   44.5820 C   0  0  0  0  0  0  0  0  0  0  0  0
   45.5610   35.2890   43.4550 C   0  0  0  0  0  0  0  0  0  0  0  0
   46.5480   34.2900   43.5120 C   0  0  0  0  0  0  0  0  0  0  0  0
   46.6430   33.5500   44.6450 N   0  0  0  0  0  0  0  0  0  0  0  0
   45.8240   33.7420   45.7120 C   0  0  0  0  0  0  0  0  0  0  0  0
   44.8890   34.6800   45.6740 N   0  0  0  0  0  0  0  0  0  0  0  0
   45.9780   32.9340   46.8630 N   0  0  0  0  0  0  0  0  0  0  0  0
   46.9770   32.0630   47.1040 C   0  0  0  0  0  0  0  0  0  0  0  0
   46.7630   31.4960   48.2970 N   0  0  0  0  0  0  0  0  0  0  0  0
   45.6440   31.9850   48.8330 C   0  0  0  0  0  0  0  0  0  0  0  0
   45.1790   32.8740   47.9220 N   0  0  0  0  0  0  0  0  0  0  0  0
   47.4580   34.0130   42.4370 N   0  0  0  0  0  0  0  0  0  0  0  0
   48.4380   33.1570   42.2270 C   0  0  0  0  0  0  0  0  0  0  0  0
   48.9610   33.3570   40.9990 N   0  0  0  0  0  0  0  0  0  0  0  0
   48.2630   34.3730   40.4630 C   0  0  0  0  0  0  0  0  0  0  0  0
   47.3060   34.8100   41.3460 N   0  0  0  0  0  0  0  0  0  0  0  0
   48.4320   34.9490   39.2000 O   0  0  0  0  0  0  0  0  0  0  0  0
   47.9170   33.3160   36.0900 N   0  0  0  0  0  0  0  0  0  0  0  0
   48.5570   34.1390   36.8920 N   0  0  0  0  0  0  0  0  0  0  0  0
   47.9840   34.1680   38.1200 C   0  0  0  0  0  0  0  0  0  0  0  0
   46.9050   33.2970   38.0770 C   0  0  0  0  0  0  0  0  0  0  0  0
   46.9020   32.7860   36.7840 C   0  0  0  0  0  0  0  0  0  0  0  0
   43.9482   36.2277   44.5712 H   0  0  0  0  0  0  0  0  0  0  0  0
   45.4399   35.9188   42.5613 H   0  0  0  0  0  0  0  0  0  0  0  0
   47.8242   31.8536   46.4343 H   0  0  0  0  0  0  0  0  0  0  0  0
   45.1961   31.7237   49.8031 H   0  0  0  0  0  0  0  0  0  0  0  0
   48.7780   32.3951   42.9439 H   0  0  0  0  0  0  0  0  0  0  0  0
   48.1534   33.1158   35.1077 H   0  0  0  0  0  0  0  0  0  0  0  0
   46.2031   33.0615   38.8906 H   0  0  0  0  0  0  0  0  0  0  0  0
   46.1769   32.0579   36.3914 H   0  0  0  0  0  0  0  0  0  0  0  0
  1  6  2  0
  2  3  2  0
  2  1  1  0
  3  4  1  0
  4  5  2  0
  5  7  1  0
  6  5  1  0
  7  8  1  0
  7 11  1  0
  8  9  2  0
  9 10  1  0
 11 10  2  0
 12  3  1  0
 13 12  1  0
 14 13  2  0
 15 14  1  0
 15 16  2  0
 16 12  1  0
 17 15  1  0
 18 22  1  0
 18 19  1  0
 19 20  2  0
 20 17  1  0
 21 20  1  0
 22 21  2  0
  1 23  1  0
  2 24  1  0
  8 25  1  0
 10 26  1  0
 13 27  1  0
 18 28  1  0
 21 29  1  0
 22 30  1  0
M  ISO  8  23  14  24  14  25  14  26  14  27  14  28   9  29  14  30  14
M  END
>  <minimizedAffinity>  (1) 
-6.17197323

>  <minimizedRMSD>  (1) 
1.54972196

$$$$
