
     RDKit          3D

 39 42  0  0  0  0  0  0  0  0999 V2000
   44.4500   35.9910   44.8900 C   0  0  0  0  0  0  0  0  0  0  0  0
   44.7750   35.7670   43.5460 C   0  0  0  0  0  0  0  0  0  0  0  0
   45.4200   34.5510   43.2220 C   0  0  0  0  0  0  0  0  0  0  0  0
   45.6810   33.6890   44.2260 N   0  0  0  0  0  0  0  0  0  0  0  0
   45.3440   33.9560   45.5100 C   0  0  0  0  0  0  0  0  0  0  0  0
   44.7420   35.0850   45.8270 N   0  0  0  0  0  0  0  0  0  0  0  0
   45.6630   32.9790   46.5050 N   0  0  0  0  0  0  0  0  0  0  0  0
   46.4020   31.8810   46.3630 C   0  0  0  0  0  0  0  0  0  0  0  0
   46.4540   31.2420   47.5310 N   0  0  0  0  0  0  0  0  0  0  0  0
   45.7400   31.9280   48.4450 C   0  0  0  0  0  0  0  0  0  0  0  0
   45.2500   33.0170   47.7850 N   0  0  0  0  0  0  0  0  0  0  0  0
   45.8030   34.2070   41.8860 N   0  0  0  0  0  0  0  0  0  0  0  0
   45.2390   33.4970   40.9050 C   0  0  0  0  0  0  0  0  0  0  0  0
   46.0640   33.5010   39.8310 N   0  0  0  0  0  0  0  0  0  0  0  0
   47.1320   34.2220   40.1770 C   0  0  0  0  0  0  0  0  0  0  0  0
   47.0020   34.6850   41.4740 N   0  0  0  0  0  0  0  0  0  0  0  0
   48.2710   34.5270   39.4250 O   0  0  0  0  0  0  0  0  0  0  0  0
   48.6340   33.6200   38.4140 C   0  0  0  0  0  0  0  0  0  0  0  0
   47.7370   33.7820   37.1810 C   0  0  0  0  0  0  0  0  0  0  0  0
   48.5100   33.0850   36.0590 C   0  0  0  0  0  0  0  0  0  0  0  0
   48.6110   31.6250   36.3760 C   0  0  0  0  0  0  0  0  0  0  0  0
   49.1010   31.3160   37.7490 C   0  0  0  0  0  0  0  0  0  0  0  0
   48.5600   32.1880   38.8330 C   0  0  0  0  0  0  0  0  0  0  0  0
   43.9473   36.9261   45.1778 H   0  0  0  0  0  0  0  0  0  0  0  0
   44.5371   36.5101   42.7707 H   0  0  0  0  0  0  0  0  0  0  0  0
   46.8902   31.5544   45.4329 H   0  0  0  0  0  0  0  0  0  0  0  0
   45.5847   31.6651   49.5018 H   0  0  0  0  0  0  0  0  0  0  0  0
   44.2636   32.9916   40.9605 H   0  0  0  0  0  0  0  0  0  0  0  0
   49.6818   33.8639   38.1846 H   0  0  0  0  0  0  0  0  0  0  0  0
   46.7622   33.2984   37.3417 H   0  0  0  0  0  0  0  0  0  0  0  0
   47.5222   34.8363   36.9523 H   0  0  0  0  0  0  0  0  0  0  0  0
   49.5187   33.5170   35.9815 H   0  0  0  0  0  0  0  0  0  0  0  0
   47.9855   33.2239   35.1021 H   0  0  0  0  0  0  0  0  0  0  0  0
   47.6116   31.1800   36.2611 H   0  0  0  0  0  0  0  0  0  0  0  0
   49.3544   31.2079   35.6808 H   0  0  0  0  0  0  0  0  0  0  0  0
   48.8269   30.2763   37.9812 H   0  0  0  0  0  0  0  0  0  0  0  0
   50.1865   31.4933   37.7306 H   0  0  0  0  0  0  0  0  0  0  0  0
   49.1534   32.0440   39.7480 H   0  0  0  0  0  0  0  0  0  0  0  0
   47.5109   31.9195   39.0259 H   0  0  0  0  0  0  0  0  0  0  0  0
  1  6  2  0
  2  1  1  0
  3  2  2  0
  3  4  1  0
  4  5  2  0
  5  6  1  0
  5  7  1  0
  7 11  1  0
  8  7  1  0
  8  9  2  0
  9 10  1  0
 11 10  2  0
 12  3  1  0
 13 12  1  0
 14 15  1  0
 14 13  2  0
 15 16  2  0
 16 12  1  0
 17 15  1  0
 18 23  1  0
 18 17  1  0
 19 18  1  0
 20 21  1  0
 20 19  1  0
 21 22  1  0
 22 23  1  0
  1 24  1  0
  2 25  1  0
  8 26  1  0
 10 27  1  0
 13 28  1  0
 18 29  1  0
 19 30  1  0
 19 31  1  0
 20 32  1  0
 20 33  1  0
 21 34  1  0
 21 35  1  0
 22 36  1  0
 22 37  1  0
 23 38  1  0
 23 39  1  0
M  ISO  8  24  14  25  14  26  14  27  14  28  14  29  13  30  13  31  13
M  ISO  8  32  13  33  13  34  13  35  13  36  13  37  13  38  13  39  13
M  END
>  <minimizedAffinity>  (1) 
-5.61549473

>  <minimizedRMSD>  (1) 
1.46342659

$$$$
