
     RDKit          3D

 25 27  0  0  0  0  0  0  0  0999 V2000
   44.4250   35.9750   44.6970 C   0  0  0  0  0  0  0  0  0  0  0  0
   45.1450   35.9660   43.4900 C   0  0  0  0  0  0  0  0  0  0  0  0
   46.1270   34.9700   43.3250 C   0  0  0  0  0  0  0  0  0  0  0  0
   46.3200   34.0810   44.3330 N   0  0  0  0  0  0  0  0  0  0  0  0
   45.5860   34.1440   45.4810 C   0  0  0  0  0  0  0  0  0  0  0  0
   44.6600   35.0730   45.6520 N   0  0  0  0  0  0  0  0  0  0  0  0
   45.8450   33.1770   46.4940 N   0  0  0  0  0  0  0  0  0  0  0  0
   46.8590   32.2910   46.5300 C   0  0  0  0  0  0  0  0  0  0  0  0
   46.7430   31.5650   47.6460 N   0  0  0  0  0  0  0  0  0  0  0  0
   45.6700   31.9680   48.3330 C   0  0  0  0  0  0  0  0  0  0  0  0
   45.1160   32.9810   47.5980 N   0  0  0  0  0  0  0  0  0  0  0  0
   46.9310   34.8470   42.1460 N   0  0  0  0  0  0  0  0  0  0  0  0
   48.1550   35.2500   41.7910 C   0  0  0  0  0  0  0  0  0  0  0  0
   48.3980   34.8370   40.5200 N   0  0  0  0  0  0  0  0  0  0  0  0
   47.3140   34.1870   40.1260 C   0  0  0  0  0  0  0  0  0  0  0  0
   46.3550   34.1660   41.1230 N   0  0  0  0  0  0  0  0  0  0  0  0
   47.0760   33.5710   38.8900 O   0  0  0  0  0  0  0  0  0  0  0  0
   47.9350   33.7240   37.8100 C   0  0  0  0  0  0  0  0  0  0  0  0
   48.2430   34.7400   37.1180 O   0  0  0  0  0  0  0  0  0  0  0  0
   43.6521   36.7411   44.8577 H   0  0  0  0  0  0  0  0  0  0  0  0
   44.9488   36.7094   42.7033 H   0  0  0  0  0  0  0  0  0  0  0  0
   47.6476   32.1835   45.7707 H   0  0  0  0  0  0  0  0  0  0  0  0
   45.3070   31.5682   49.2913 H   0  0  0  0  0  0  0  0  0  0  0  0
   48.8504   35.8215   42.4234 H   0  0  0  0  0  0  0  0  0  0  0  0
   48.4387   32.7968   37.4992 H   0  0  0  0  0  0  0  0  0  0  0  0
  1  6  2  0
  2  1  1  0
  3  2  2  0
  3  4  1  0
  4  5  2  0
  5  6  1  0
  5  7  1  0
  7  8  1  0
  7 11  1  0
  8  9  2  0
  9 10  1  0
 11 10  2  0
 12  3  1  0
 13 12  1  0
 14 13  2  0
 15 14  1  0
 15 16  2  0
 16 12  1  0
 17 15  1  0
 18 17  1  0
 19 18  2  0
  1 20  1  0
  2 21  1  0
  8 22  1  0
 10 23  1  0
 13 24  1  0
 18 25  1  0
M  ISO  6  20  14  21  14  22  14  23  14  24  14  25   6
M  END
>  <minimizedAffinity>  (1) 
-5.7357645

>  <minimizedRMSD>  (1) 
1.51100969

$$$$
