
     RDKit          3D

 35 38  0  0  1  0  0  0  0  0999 V2000
   44.4250   35.9690   44.6000 C   0  0  0  0  0  0  0  0  0  0  0  0
   45.1730   35.9710   43.4240 C   0  0  0  0  0  0  0  0  0  0  0  0
   46.1780   34.9990   43.2820 C   0  0  0  0  0  0  0  0  0  0  0  0
   46.3620   34.1130   44.3040 N   0  0  0  0  0  0  0  0  0  0  0  0
   45.5970   34.1630   45.4310 C   0  0  0  0  0  0  0  0  0  0  0  0
   44.6550   35.0670   45.5730 N   0  0  0  0  0  0  0  0  0  0  0  0
   45.8660   33.1870   46.4460 N   0  0  0  0  0  0  0  0  0  0  0  0
   46.8650   32.3160   46.4960 C   0  0  0  0  0  0  0  0  0  0  0  0
   46.7400   31.5900   47.6160 N   0  0  0  0  0  0  0  0  0  0  0  0
   45.6450   32.0010   48.2930 C   0  0  0  0  0  0  0  0  0  0  0  0
   45.1150   33.0030   47.5410 N   0  0  0  0  0  0  0  0  0  0  0  0
   47.0190   34.8900   42.1280 N   0  0  0  0  0  0  0  0  0  0  0  0
   48.2570   35.2820   41.8170 C   0  0  0  0  0  0  0  0  0  0  0  0
   48.5420   34.9020   40.5570 N   0  0  0  0  0  0  0  0  0  0  0  0
   47.4600   34.2750   40.1130 C   0  0  0  0  0  0  0  0  0  0  0  0
   46.4610   34.2390   41.0710 N   0  0  0  0  0  0  0  0  0  0  0  0
   47.2500   33.6820   38.8430 O   0  0  0  0  0  0  0  0  0  0  0  0
   45.2960   33.4960   37.4950 N   0  0  0  0  0  0  0  0  0  0  0  0
   45.5570   32.8840   36.2250 C   0  0  0  0  0  0  0  0  0  0  0  0
   46.8400   32.1020   36.3990 C   0  0  0  0  0  0  0  0  0  0  0  0
   46.7080   31.6270   37.8450 C   0  0  0  0  0  0  0  0  0  0  0  0
   46.1650   32.9150   38.4790 C   0  0  1  0  0  0  0  0  0  0  0  0
   43.6315   36.7186   44.7359 H   0  0  0  0  0  0  0  0  0  0  0  0
   44.9827   36.7102   42.6319 H   0  0  0  0  0  0  0  0  0  0  0  0
   47.6616   32.2076   45.7452 H   0  0  0  0  0  0  0  0  0  0  0  0
   45.2639   31.6092   49.2476 H   0  0  0  0  0  0  0  0  0  0  0  0
   48.9376   35.8297   42.4855 H   0  0  0  0  0  0  0  0  0  0  0  0
   44.3144   33.3337   37.7617 H   0  0  0  0  0  0  0  0  0  0  0  0
   45.6795   33.6525   35.4476 H   0  0  0  0  0  0  0  0  0  0  0  0
   44.7268   32.2343   35.9110 H   0  0  0  0  0  0  0  0  0  0  0  0
   46.8927   31.2543   35.7000 H   0  0  0  0  0  0  0  0  0  0  0  0
   47.7522   32.6828   36.1974 H   0  0  0  0  0  0  0  0  0  0  0  0
   45.9994   30.7910   37.9404 H   0  0  0  0  0  0  0  0  0  0  0  0
   47.6300   31.2324   38.2968 H   0  0  0  0  0  0  0  0  0  0  0  0
   45.5749   32.7804   39.3975 H   0  0  0  0  0  0  0  0  0  0  0  0
  1  6  2  0
  2  1  1  0
  3  2  2  0
  3  4  1  0
  4  5  2  0
  5  6  1  0
  5  7  1  0
  7  8  1  0
  7 11  1  0
  8  9  2  0
  9 10  1  0
 11 10  2  0
 12  3  1  0
 13 12  1  0
 14 13  2  0
 15 14  1  0
 15 16  2  0
 16 12  1  0
 17 15  1  0
 18 22  1  0
 19 20  1  0
 19 18  1  0
 20 21  1  0
 21 22  1  0
 22 17  1  0
  1 23  1  0
  2 24  1  0
  8 25  1  0
 10 26  1  0
 13 27  1  0
 18 28  1  0
 19 29  1  0
 19 30  1  0
 20 31  1  0
 20 32  1  0
 21 33  1  0
 21 34  1  0
 22 35  1  1
M  ISO  8  23  14  24  14  25  14  26  14  27  14  28   5  29  13  30  13
M  ISO  5  31  13  32  13  33  13  34  13  35  13
M  END
>  <minimizedAffinity>  (1) 
-6.0688405

>  <minimizedRMSD>  (1) 
3.726336

$$$$
