
     RDKit          3D

 30 33  0  0  0  0  0  0  0  0999 V2000
   44.7530   35.4820   44.4950 C   0  0  0  0  0  0  0  0  0  0  0  0
   45.5810   35.3090   43.3810 C   0  0  0  0  0  0  0  0  0  0  0  0
   46.5780   34.2980   43.4480 C   0  0  0  0  0  0  0  0  0  0  0  0
   46.6620   33.5690   44.5830 N   0  0  0  0  0  0  0  0  0  0  0  0
   45.8310   33.7780   45.6420 C   0  0  0  0  0  0  0  0  0  0  0  0
   44.8970   34.7200   45.5850 N   0  0  0  0  0  0  0  0  0  0  0  0
   45.9970   32.9590   46.7950 N   0  0  0  0  0  0  0  0  0  0  0  0
   46.9670   32.0800   47.0300 C   0  0  0  0  0  0  0  0  0  0  0  0
   46.7430   31.5300   48.2300 N   0  0  0  0  0  0  0  0  0  0  0  0
   45.6370   32.0450   48.7740 C   0  0  0  0  0  0  0  0  0  0  0  0
   45.1780   32.9470   47.8530 N   0  0  0  0  0  0  0  0  0  0  0  0
   47.4860   34.0260   42.3730 N   0  0  0  0  0  0  0  0  0  0  0  0
   48.5140   33.2160   42.1980 C   0  0  0  0  0  0  0  0  0  0  0  0
   49.0100   33.3830   40.9500 N   0  0  0  0  0  0  0  0  0  0  0  0
   48.2600   34.3100   40.3750 C   0  0  0  0  0  0  0  0  0  0  0  0
   47.2870   34.7360   41.2490 N   0  0  0  0  0  0  0  0  0  0  0  0
   48.3340   34.8680   39.0770 O   0  0  0  0  0  0  0  0  0  0  0  0
   47.9550   34.0350   38.0330 C   0  0  0  0  0  0  0  0  0  0  0  0
   46.9130   33.2520   37.5850 C   0  0  0  0  0  0  0  0  0  0  0  0
   47.2910   32.6880   36.3840 C   0  0  0  0  0  0  0  0  0  0  0  0
   48.5630   33.1540   36.1430 C   0  0  0  0  0  0  0  0  0  0  0  0
   48.9330   33.9540   37.1400 O   0  0  0  0  0  0  0  0  0  0  0  0
   43.9718   36.2562   44.4745 H   0  0  0  0  0  0  0  0  0  0  0  0
   45.4646   35.9342   42.4834 H   0  0  0  0  0  0  0  0  0  0  0  0
   47.8053   31.8461   46.3573 H   0  0  0  0  0  0  0  0  0  0  0  0
   45.1923   31.7980   49.7493 H   0  0  0  0  0  0  0  0  0  0  0  0
   48.9061   32.5148   42.9494 H   0  0  0  0  0  0  0  0  0  0  0  0
   45.9499   33.1030   38.0951 H   0  0  0  0  0  0  0  0  0  0  0  0
   46.6999   32.0088   35.7521 H   0  0  0  0  0  0  0  0  0  0  0  0
   49.1770   32.9047   35.2650 H   0  0  0  0  0  0  0  0  0  0  0  0
  1  6  2  0
  2  3  2  0
  2  1  1  0
  3  4  1  0
  4  5  2  0
  5  7  1  0
  6  5  1  0
  7  8  1  0
  7 11  1  0
  8  9  2  0
  9 10  1  0
 11 10  2  0
 12  3  1  0
 13 12  1  0
 14 13  2  0
 15 14  1  0
 15 16  2  0
 16 12  1  0
 17 15  1  0
 18 17  1  0
 19 18  2  0
 20 19  1  0
 21 20  2  0
 21 22  1  0
 22 18  1  0
  1 23  1  0
  2 24  1  0
  8 25  1  0
 10 26  1  0
 13 27  1  0
 19 28  1  0
 20 29  1  0
 21 30  1  0
M  ISO  8  23  14  24  14  25  14  26  14  27  14  28  14  29  14  30  14
M  END
>  <minimizedAffinity>  (1) 
-6.02410126

>  <minimizedRMSD>  (1) 
1.66507113

$$$$
