
     RDKit          3D

 51 55  0  0  0  0  0  0  0  0999 V2000
   47.2610   33.6990   42.6070 C   0  0  0  0  0  0  0  0  0  0  0  0
   44.7330   35.4690   44.7470 C   0  0  0  0  0  0  0  0  0  0  0  0
   45.5620   35.1030   43.6720 C   0  0  0  0  0  0  0  0  0  0  0  0
   46.4140   34.0490   43.7430 C   0  0  0  0  0  0  0  0  0  0  0  0
   46.4510   33.3460   44.8870 N   0  0  0  0  0  0  0  0  0  0  0  0
   45.6380   33.7070   45.9370 C   0  0  0  0  0  0  0  0  0  0  0  0
   44.8160   34.7230   45.8710 N   0  0  0  0  0  0  0  0  0  0  0  0
   45.8350   32.7980   47.1080 C   0  0  0  0  0  0  0  0  0  0  0  0
   44.8330   32.3350   48.0770 C   0  0  0  0  0  0  0  0  0  0  0  0
   45.9280   31.3080   49.1060 S   0  0  0  0  0  0  0  0  0  0  0  0
   47.4800   31.6730   48.0860 C   0  0  0  0  0  0  0  0  0  0  0  0
   47.1010   32.4830   47.1100 N   0  0  0  0  0  0  0  0  0  0  0  0
   48.7380   31.0500   48.5100 N   0  0  0  0  0  0  0  0  0  0  0  0
   49.5500   31.7930   49.4470 C   0  0  0  0  0  0  0  0  0  0  0  0
   50.6160   30.8170   49.9330 C   0  0  0  0  0  0  0  0  0  0  0  0
   51.0820   30.1380   48.8120 O   0  0  0  0  0  0  0  0  0  0  0  0
   50.1550   29.1510   48.4120 C   0  0  0  0  0  0  0  0  0  0  0  0
   48.8880   29.7840   47.8680 C   0  0  0  0  0  0  0  0  0  0  0  0
   47.5830   34.7900   41.6530 C   0  0  0  0  0  0  0  0  0  0  0  0
   47.3050   34.2900   40.2730 C   0  0  0  0  0  0  0  0  0  0  0  0
   48.2380   34.3540   39.2650 C   0  0  0  0  0  0  0  0  0  0  0  0
   48.0810   33.9240   37.9700 C   0  0  0  0  0  0  0  0  0  0  0  0
   46.8620   33.3870   37.7060 N   0  0  0  0  0  0  0  0  0  0  0  0
   45.9210   33.3070   38.6700 C   0  0  0  0  0  0  0  0  0  0  0  0
   46.1020   33.7390   39.9420 N   0  0  0  0  0  0  0  0  0  0  0  0
   44.6470   32.7190   38.3050 C   0  0  0  0  0  0  0  0  0  0  0  0
   43.4480   33.3130   38.7230 C   0  0  0  0  0  0  0  0  0  0  0  0
   42.2460   32.7560   38.3780 C   0  0  0  0  0  0  0  0  0  0  0  0
   42.1980   31.6410   37.6380 N   0  0  0  0  0  0  0  0  0  0  0  0
   43.3610   31.0840   37.2430 C   0  0  0  0  0  0  0  0  0  0  0  0
   44.5820   31.6010   37.5630 N   0  0  0  0  0  0  0  0  0  0  0  0
   48.2111   33.3142   43.0060 H   0  0  0  0  0  0  0  0  0  0  0  0
   46.6773   32.9701   42.0256 H   0  0  0  0  0  0  0  0  0  0  0  0
   44.0465   36.3256   44.6763 H   0  0  0  0  0  0  0  0  0  0  0  0
   45.5186   35.6902   42.7429 H   0  0  0  0  0  0  0  0  0  0  0  0
   43.7559   32.5439   48.1562 H   0  0  0  0  0  0  0  0  0  0  0  0
   50.0177   32.6555   48.9496 H   0  0  0  0  0  0  0  0  0  0  0  0
   48.9503   32.1875   50.2805 H   0  0  0  0  0  0  0  0  0  0  0  0
   51.4401   31.3649   50.4133 H   0  0  0  0  0  0  0  0  0  0  0  0
   50.2015   30.1172   50.6736 H   0  0  0  0  0  0  0  0  0  0  0  0
   50.6099   28.5264   47.6291 H   0  0  0  0  0  0  0  0  0  0  0  0
   49.8932   28.5401   49.2885 H   0  0  0  0  0  0  0  0  0  0  0  0
   48.9727   29.9212   46.7799 H   0  0  0  0  0  0  0  0  0  0  0  0
   48.0164   29.1420   48.0634 H   0  0  0  0  0  0  0  0  0  0  0  0
   46.9567   35.6691   41.8653 H   0  0  0  0  0  0  0  0  0  0  0  0
   48.6387   35.0836   41.7488 H   0  0  0  0  0  0  0  0  0  0  0  0
   49.2119   34.7957   39.5226 H   0  0  0  0  0  0  0  0  0  0  0  0
   48.8741   34.0074   37.2123 H   0  0  0  0  0  0  0  0  0  0  0  0
   43.4731   34.2298   39.3303 H   0  0  0  0  0  0  0  0  0  0  0  0
   41.3106   33.2289   38.7119 H   0  0  0  0  0  0  0  0  0  0  0  0
   43.3231   30.1690   36.6336 H   0  0  0  0  0  0  0  0  0  0  0  0
  1  4  1  0
  2  7  2  0
  3  4  2  0
  3  2  1  0
  4  5  1  0
  5  6  2  0
  6  8  1  0
  7  6  1  0
  8 12  1  0
  8  9  2  0
  9 10  1  0
 11 13  1  0
 11 10  1  0
 12 11  2  0
 13 14  1  0
 14 15  1  0
 16 15  1  0
 17 16  1  0
 18 17  1  0
 18 13  1  0
 19  1  1  0
 20 19  1  0
 21 20  2  0
 22 21  1  0
 23 22  2  0
 23 24  1  0
 24 25  2  0
 25 20  1  0
 26 24  1  0
 26 27  2  0
 28 27  1  0
 29 28  2  0
 30 31  2  0
 30 29  1  0
 31 26  1  0
  1 32  1  0
  1 33  1  0
  2 34  1  0
  3 35  1  0
  9 36  1  0
 14 37  1  0
 14 38  1  0
 15 39  1  0
 15 40  1  0
 17 41  1  0
 17 42  1  0
 18 43  1  0
 18 44  1  0
 19 45  1  0
 19 46  1  0
 21 47  1  0
 22 48  1  0
 27 49  1  0
 28 50  1  0
 30 51  1  0
M  ISO  8  32   8  33   8  34  14  35  14  36  14  37  13  38  13  39  13
M  ISO  8  40  13  41  13  42  13  43  13  44  13  45   8  46   8  47  14
M  ISO  4  48  14  49  14  50  14  51  14
M  END
>  <minimizedAffinity>  (1) 
-6.64559507

>  <minimizedRMSD>  (1) 
0.354780257

$$$$
