
     RDKit          3D

 32 33  0  0  0  0  0  0  0  0999 V2000
   44.6790   34.4980   42.2630 C   0  0  0  0  0  0  0  0  0  0  0  0
   45.8170   34.5470   41.3170 C   0  0  0  0  0  0  0  0  0  0  0  0
   46.5770   33.2480   41.4640 C   0  0  0  0  0  0  0  0  0  0  0  0
   45.8450   32.4160   42.4730 C   0  0  0  0  0  0  0  0  0  0  0  0
   45.0350   33.4280   43.2670 C   0  0  0  0  0  0  0  0  0  0  0  0
   43.3630   34.1250   41.7040 C   0  0  0  0  0  0  0  0  0  0  0  0
   42.9730   32.7930   41.6920 C   0  0  0  0  0  0  0  0  0  0  0  0
   41.7310   32.4600   41.1600 C   0  0  0  0  0  0  0  0  0  0  0  0
   40.9500   33.4660   40.6720 N   0  0  0  0  0  0  0  0  0  0  0  0
   41.3540   34.7500   40.6960 C   0  0  0  0  0  0  0  0  0  0  0  0
   42.5430   35.0480   41.2090 N   0  0  0  0  0  0  0  0  0  0  0  0
   40.4560   35.8200   40.1450 C   0  0  0  0  0  0  0  0  0  0  0  0
   40.8690   36.2760   38.9330 F   0  0  0  0  0  0  0  0  0  0  0  0
   39.1840   35.2700   39.9980 F   0  0  0  0  0  0  0  0  0  0  0  0
   40.3290   36.8640   41.0300 F   0  0  0  0  0  0  0  0  0  0  0  0
   44.4790   35.7850   43.0030 C   0  0  0  0  0  0  0  0  0  0  0  0
   44.5780   35.7310   44.4670 C   0  0  0  0  0  0  0  0  0  0  0  0
   46.4723   35.3966   41.5595 H   0  0  0  0  0  0  0  0  0  0  0  0
   45.4610   34.6764   40.2843 H   0  0  0  0  0  0  0  0  0  0  0  0
   46.6145   32.7223   40.4985 H   0  0  0  0  0  0  0  0  0  0  0  0
   47.6107   33.4359   41.7899 H   0  0  0  0  0  0  0  0  0  0  0  0
   45.1846   31.6902   41.9760 H   0  0  0  0  0  0  0  0  0  0  0  0
   46.5232   31.8259   43.1069 H   0  0  0  0  0  0  0  0  0  0  0  0
   45.6350   33.8487   44.0874 H   0  0  0  0  0  0  0  0  0  0  0  0
   44.1456   32.9789   43.7331 H   0  0  0  0  0  0  0  0  0  0  0  0
   43.6350   32.0132   42.0965 H   0  0  0  0  0  0  0  0  0  0  0  0
   41.3888   31.4149   41.1338 H   0  0  0  0  0  0  0  0  0  0  0  0
   45.2379   36.4960   42.6445 H   0  0  0  0  0  0  0  0  0  0  0  0
   43.4387   36.0764   42.7962 H   0  0  0  0  0  0  0  0  0  0  0  0
   43.6950   36.2127   44.9122 H   0  0  0  0  0  0  0  0  0  0  0  0
   44.6265   34.6815   44.7928 H   0  0  0  0  0  0  0  0  0  0  0  0
   45.4867   36.2584   44.7928 H   0  0  0  0  0  0  0  0  0  0  0  0
  1 16  1  0
  1  5  1  0
  2  3  1  0
  2  1  1  0
  3  4  1  0
  4  5  1  0
  6  1  1  0
  7  6  2  0
  8  7  1  0
  9 10  1  0
  9  8  2  0
 10 11  2  0
 11  6  1  0
 12 10  1  0
 12 15  1  0
 13 12  1  0
 14 12  1  0
 16 17  1  0
  2 18  1  0
  2 19  1  0
  3 20  1  0
  3 21  1  0
  4 22  1  0
  4 23  1  0
  5 24  1  0
  5 25  1  0
  7 26  1  0
  8 27  1  0
 16 28  1  0
 16 29  1  0
 17 30  1  0
 17 31  1  0
 17 32  1  0
M  ISO  8  18  13  19  13  20  13  21  13  22  13  23  13  24  13  25  13
M  ISO  7  26  14  27  14  28   8  29   8  30   8  31   8  32   8
M  END
>  <minimizedAffinity>  (1) 
-4.91954041

>  <minimizedRMSD>  (1) 
6.26542139

$$$$
