
     RDKit          3D

 41 42  0  0  0  0  0  0  0  0999 V2000
   45.5470   34.2490   42.6930 C   0  0  0  0  0  0  0  0  0  0  0  0
   44.8490   34.2360   43.9920 C   0  0  0  0  0  0  0  0  0  0  0  0
   44.6360   35.6820   44.4040 C   0  0  0  0  0  0  0  0  0  0  0  0
   45.1630   36.5380   43.3010 C   0  0  0  0  0  0  0  0  0  0  0  0
   46.1470   35.6430   42.5680 C   0  0  0  0  0  0  0  0  0  0  0  0
   44.7240   34.0500   41.4830 C   0  0  0  0  0  0  0  0  0  0  0  0
   45.3000   33.5070   40.3450 C   0  0  0  0  0  0  0  0  0  0  0  0
   44.5090   33.3270   39.2140 C   0  0  0  0  0  0  0  0  0  0  0  0
   43.1970   33.6970   39.2780 N   0  0  0  0  0  0  0  0  0  0  0  0
   42.6700   34.2180   40.3900 C   0  0  0  0  0  0  0  0  0  0  0  0
   43.4380   34.3840   41.4630 N   0  0  0  0  0  0  0  0  0  0  0  0
   41.2230   34.6230   40.4550 C   0  0  0  0  0  0  0  0  0  0  0  0
   41.0590   35.7810   41.4230 C   0  0  0  0  0  0  0  0  0  0  0  0
   40.3170   33.5200   40.8830 C   0  0  0  0  0  0  0  0  0  0  0  0
   40.7770   35.1560   39.0890 C   0  0  0  0  0  0  0  0  0  0  0  0
   46.6720   33.2620   42.6080 C   0  0  0  0  0  0  0  0  0  0  0  0
   47.9420   33.6320   43.2390 C   0  0  0  0  0  0  0  0  0  0  0  0
   43.8795   33.7259   43.8934 H   0  0  0  0  0  0  0  0  0  0  0  0
   45.4414   33.6988   44.7473 H   0  0  0  0  0  0  0  0  0  0  0  0
   43.5638   35.8773   44.5530 H   0  0  0  0  0  0  0  0  0  0  0  0
   45.1558   35.8992   45.3488 H   0  0  0  0  0  0  0  0  0  0  0  0
   44.3500   36.8541   42.6308 H   0  0  0  0  0  0  0  0  0  0  0  0
   45.6315   37.4611   43.6730 H   0  0  0  0  0  0  0  0  0  0  0  0
   47.1394   35.6846   43.0407 H   0  0  0  0  0  0  0  0  0  0  0  0
   46.2941   35.9465   41.5210 H   0  0  0  0  0  0  0  0  0  0  0  0
   46.3628   33.2236   40.3360 H   0  0  0  0  0  0  0  0  0  0  0  0
   44.9303   32.8979   38.2929 H   0  0  0  0  0  0  0  0  0  0  0  0
   41.1121   35.4060   42.4557 H   0  0  0  0  0  0  0  0  0  0  0  0
   41.8623   36.5140   41.2573 H   0  0  0  0  0  0  0  0  0  0  0  0
   40.0838   36.2621   41.2573 H   0  0  0  0  0  0  0  0  0  0  0  0
   40.2831   33.4788   41.9817 H   0  0  0  0  0  0  0  0  0  0  0  0
   39.3055   33.7036   40.4916 H   0  0  0  0  0  0  0  0  0  0  0  0
   40.6936   32.5634   40.4916 H   0  0  0  0  0  0  0  0  0  0  0  0
   40.0771   35.9924   39.2325 H   0  0  0  0  0  0  0  0  0  0  0  0
   41.6557   35.5054   38.5271 H   0  0  0  0  0  0  0  0  0  0  0  0
   40.2781   34.3527   38.5271 H   0  0  0  0  0  0  0  0  0  0  0  0
   46.3289   32.3290   43.0790 H   0  0  0  0  0  0  0  0  0  0  0  0
   46.9017   33.1885   41.5348 H   0  0  0  0  0  0  0  0  0  0  0  0
   47.8310   33.5997   44.3329 H   0  0  0  0  0  0  0  0  0  0  0  0
   48.7253   32.9247   42.9288 H   0  0  0  0  0  0  0  0  0  0  0  0
   48.2229   34.6493   42.9288 H   0  0  0  0  0  0  0  0  0  0  0  0
  1  2  1  0
  2  3  1  0
  4  3  1  0
  5  1  1  0
  5  4  1  0
  6  1  1  0
  7  6  2  0
  8  9  2  0
  8  7  1  0
  9 10  1  0
 10 12  1  0
 10 11  2  0
 11  6  1  0
 12 14  1  0
 12 13  1  0
 15 12  1  0
 16  1  1  0
 16 17  1  0
  2 18  1  0
  2 19  1  0
  3 20  1  0
  3 21  1  0
  4 22  1  0
  4 23  1  0
  5 24  1  0
  5 25  1  0
  7 26  1  0
  8 27  1  0
 13 28  1  0
 13 29  1  0
 13 30  1  0
 14 31  1  0
 14 32  1  0
 14 33  1  0
 15 34  1  0
 15 35  1  0
 15 36  1  0
 16 37  1  0
 16 38  1  0
 17 39  1  0
 17 40  1  0
 17 41  1  0
M  ISO  8  18  13  19  13  20  13  21  13  22  13  23  13  24  13  25  13
M  ISO  8  26  14  27  14  28   8  29   8  30   8  31   8  32   8  33   8
M  ISO  8  34   8  35   8  36   8  37   8  38   8  39   8  40   8  41   8
M  END
>  <minimizedAffinity>  (1) 
-4.51272917

>  <minimizedRMSD>  (1) 
5.56394625

$$$$
