
     RDKit          3D

 32 33  0  0  0  0  0  0  0  0999 V2000
   45.1540   34.2140   42.6900 C   0  0  0  0  0  0  0  0  0  0  0  0
   43.9690   33.4530   42.2570 C   0  0  0  0  0  0  0  0  0  0  0  0
   43.0530   34.4340   41.5520 C   0  0  0  0  0  0  0  0  0  0  0  0
   43.7640   35.7640   41.5070 C   0  0  0  0  0  0  0  0  0  0  0  0
   44.7390   35.6760   42.6630 C   0  0  0  0  0  0  0  0  0  0  0  0
   46.3720   34.1100   41.8680 C   0  0  0  0  0  0  0  0  0  0  0  0
   46.2490   33.8590   40.5080 C   0  0  0  0  0  0  0  0  0  0  0  0
   47.4030   33.7610   39.7360 C   0  0  0  0  0  0  0  0  0  0  0  0
   48.6050   33.9170   40.3540 N   0  0  0  0  0  0  0  0  0  0  0  0
   48.6920   34.1590   41.6690 C   0  0  0  0  0  0  0  0  0  0  0  0
   47.5800   34.2510   42.3990 N   0  0  0  0  0  0  0  0  0  0  0  0
   49.9530   34.3340   42.3840 C   0  0  0  0  0  0  0  0  0  0  0  0
   50.9220   33.5340   42.3130 O   0  0  0  0  0  0  0  0  0  0  0  0
   50.2410   35.3860   43.2200 O   0  0  0  0  0  0  0  0  0  0  0  0
   45.5650   33.8860   44.1000 C   0  0  0  0  0  0  0  0  0  0  0  0
   45.0460   34.7440   45.1750 C   0  0  0  0  0  0  0  0  0  0  0  0
   44.2662   32.6493   41.5672 H   0  0  0  0  0  0  0  0  0  0  0  0
   43.4632   32.9873   43.1156 H   0  0  0  0  0  0  0  0  0  0  0  0
   42.8437   34.0850   40.5301 H   0  0  0  0  0  0  0  0  0  0  0  0
   42.0956   34.5236   42.0862 H   0  0  0  0  0  0  0  0  0  0  0  0
   44.2949   35.8951   40.5526 H   0  0  0  0  0  0  0  0  0  0  0  0
   43.0794   36.6214   41.5851 H   0  0  0  0  0  0  0  0  0  0  0  0
   45.6096   36.3256   42.4894 H   0  0  0  0  0  0  0  0  0  0  0  0
   44.2958   36.0059   43.6142 H   0  0  0  0  0  0  0  0  0  0  0  0
   45.2567   33.7397   40.0486 H   0  0  0  0  0  0  0  0  0  0  0  0
   47.3448   33.5628   38.6556 H   0  0  0  0  0  0  0  0  0  0  0  0
   51.1215   35.4340   43.6700 H   0  0  0  0  0  0  0  0  0  0  0  0
   45.2332   32.8583   44.3094 H   0  0  0  0  0  0  0  0  0  0  0  0
   46.6538   34.0416   44.1180 H   0  0  0  0  0  0  0  0  0  0  0  0
   45.3091   34.3091   46.1505 H   0  0  0  0  0  0  0  0  0  0  0  0
   45.4888   35.7473   45.0894 H   0  0  0  0  0  0  0  0  0  0  0  0
   43.9518   34.8176   45.0894 H   0  0  0  0  0  0  0  0  0  0  0  0
  1 15  1  0
  2  1  1  0
  3  2  1  0
  4  3  1  0
  4  5  1  0
  5  1  1  0
  6 11  1  0
  6  1  1  0
  7  6  2  0
  8  9  2  0
  8  7  1  0
  9 10  1  0
 10 12  1  0
 10 11  2  0
 12 14  1  0
 13 12  2  0
 15 16  1  0
  2 17  1  0
  2 18  1  0
  3 19  1  0
  3 20  1  0
  4 21  1  0
  4 22  1  0
  5 23  1  0
  5 24  1  0
  7 25  1  0
  8 26  1  0
 14 27  1  0
 15 28  1  0
 15 29  1  0
 16 30  1  0
 16 31  1  0
 16 32  1  0
M  ISO  8  17  13  18  13  19  13  20  13  21  13  22  13  23  13  24  13
M  ISO  8  25  14  26  14  27   3  28   8  29   8  30   8  31   8  32   8
M  END
>  <minimizedAffinity>  (1) 
-4.98079109

>  <minimizedRMSD>  (1) 
1.21351755

$$$$
