
     RDKit          3D

 36 38  0  0  0  0  0  0  0  0999 V2000
   45.2260   34.5310   42.4380 C   0  0  0  0  0  0  0  0  0  0  0  0
   45.6390   33.7980   43.6460 C   0  0  0  0  0  0  0  0  0  0  0  0
   45.1960   34.6240   44.8440 C   0  0  0  0  0  0  0  0  0  0  0  0
   44.4600   35.8230   44.3080 C   0  0  0  0  0  0  0  0  0  0  0  0
   44.9830   35.9640   42.8910 C   0  0  0  0  0  0  0  0  0  0  0  0
   43.9910   34.1010   41.7660 C   0  0  0  0  0  0  0  0  0  0  0  0
   43.5130   32.8160   41.9810 C   0  0  0  0  0  0  0  0  0  0  0  0
   42.3450   32.4090   41.3430 C   0  0  0  0  0  0  0  0  0  0  0  0
   41.7150   33.2980   40.5280 N   0  0  0  0  0  0  0  0  0  0  0  0
   42.2020   34.5360   40.3380 C   0  0  0  0  0  0  0  0  0  0  0  0
   43.3130   34.9030   40.9530 N   0  0  0  0  0  0  0  0  0  0  0  0
   41.4910   35.5060   39.4310 C   0  0  0  0  0  0  0  0  0  0  0  0
   41.9520   35.7520   38.0660 C   0  0  0  0  0  0  0  0  0  0  0  0
   40.7960   34.8630   38.2010 C   0  0  0  0  0  0  0  0  0  0  0  0
   46.2930   34.5780   41.3770 C   0  0  0  0  0  0  0  0  0  0  0  0
   47.6370   35.0040   41.7840 C   0  0  0  0  0  0  0  0  0  0  0  0
   45.1574   32.8094   43.6705 H   0  0  0  0  0  0  0  0  0  0  0  0
   46.7282   33.6446   43.6575 H   0  0  0  0  0  0  0  0  0  0  0  0
   44.5305   34.0292   45.4869 H   0  0  0  0  0  0  0  0  0  0  0  0
   46.0620   34.9340   45.4473 H   0  0  0  0  0  0  0  0  0  0  0  0
   43.3738   35.6491   44.3095 H   0  0  0  0  0  0  0  0  0  0  0  0
   44.6214   36.7272   44.9133 H   0  0  0  0  0  0  0  0  0  0  0  0
   45.9189   36.5418   42.8763 H   0  0  0  0  0  0  0  0  0  0  0  0
   44.2818   36.5001   42.2346 H   0  0  0  0  0  0  0  0  0  0  0  0
   44.0513   32.1268   42.6483 H   0  0  0  0  0  0  0  0  0  0  0  0
   41.9422   31.3965   41.4935 H   0  0  0  0  0  0  0  0  0  0  0  0
   41.2374   36.1703   40.2703 H   0  0  0  0  0  0  0  0  0  0  0  0
   42.9165   35.3353   37.7402 H   0  0  0  0  0  0  0  0  0  0  0  0
   42.1331   36.6690   37.4861 H   0  0  0  0  0  0  0  0  0  0  0  0
   39.7965   35.1996   37.8884 H   0  0  0  0  0  0  0  0  0  0  0  0
   40.5432   33.8415   37.8808 H   0  0  0  0  0  0  0  0  0  0  0  0
   45.9501   35.2724   40.5958 H   0  0  0  0  0  0  0  0  0  0  0  0
   46.4159   33.5326   41.0577 H   0  0  0  0  0  0  0  0  0  0  0  0
   47.6986   35.0235   42.8821 H   0  0  0  0  0  0  0  0  0  0  0  0
   48.3813   34.2977   41.3875 H   0  0  0  0  0  0  0  0  0  0  0  0
   47.8385   36.0101   41.3875 H   0  0  0  0  0  0  0  0  0  0  0  0
  1  5  1  0
  1  2  1  0
  2  3  1  0
  4  3  1  0
  5  4  1  0
  6  7  2  0
  6  1  1  0
  8  7  1  0
  9  8  2  0
 10  9  1  0
 10 11  2  0
 11  6  1  0
 12 10  1  0
 13 14  1  0
 13 12  1  0
 14 12  1  0
 15 16  1  0
 15  1  1  0
  2 17  1  0
  2 18  1  0
  3 19  1  0
  3 20  1  0
  4 21  1  0
  4 22  1  0
  5 23  1  0
  5 24  1  0
  7 25  1  0
  8 26  1  0
 12 27  1  0
 13 28  1  0
 13 29  1  0
 14 30  1  0
 14 31  1  0
 15 32  1  0
 15 33  1  0
 16 34  1  0
 16 35  1  0
 16 36  1  0
M  ISO  8  17  13  18  13  19  13  20  13  21  13  22  13  23  13  24  13
M  ISO  8  25  14  26  14  27  13  28  13  29  13  30  13  31  13  32   8
M  ISO  4  33   8  34   8  35   8  36   8
M  END
>  <minimizedAffinity>  (1) 
-4.82259941

>  <minimizedRMSD>  (1) 
5.54588699

$$$$
