
     RDKit          3D

 45 49  0  0  0  0  0  0  0  0999 V2000
   47.3880   33.7730   42.8040 C   0  0  0  0  0  0  0  0  0  0  0  0
   44.7180   35.3750   44.9010 C   0  0  0  0  0  0  0  0  0  0  0  0
   45.5990   35.0730   43.8430 C   0  0  0  0  0  0  0  0  0  0  0  0
   46.4900   34.0540   43.9170 C   0  0  0  0  0  0  0  0  0  0  0  0
   46.5210   33.3190   45.0380 N   0  0  0  0  0  0  0  0  0  0  0  0
   45.6540   33.6200   46.0730 C   0  0  0  0  0  0  0  0  0  0  0  0
   44.7890   34.6090   46.0030 N   0  0  0  0  0  0  0  0  0  0  0  0
   45.8540   32.6850   47.2190 C   0  0  0  0  0  0  0  0  0  0  0  0
   44.8310   32.0810   48.0810 C   0  0  0  0  0  0  0  0  0  0  0  0
   45.9210   31.1260   49.1740 S   0  0  0  0  0  0  0  0  0  0  0  0
   47.5230   31.6900   48.3030 C   0  0  0  0  0  0  0  0  0  0  0  0
   47.1410   32.4990   47.3230 N   0  0  0  0  0  0  0  0  0  0  0  0
   48.8150   31.2020   48.7860 N   0  0  0  0  0  0  0  0  0  0  0  0
   49.5850   32.0670   49.4520 N   0  0  0  0  0  0  0  0  0  0  0  0
   50.7270   31.4620   49.8230 C   0  0  0  0  0  0  0  0  0  0  0  0
   50.6040   30.1730   49.3400 C   0  0  0  0  0  0  0  0  0  0  0  0
   49.3830   30.0220   48.6840 C   0  0  0  0  0  0  0  0  0  0  0  0
   47.6020   34.8610   41.8220 C   0  0  0  0  0  0  0  0  0  0  0  0
   47.3010   34.3310   40.4600 C   0  0  0  0  0  0  0  0  0  0  0  0
   48.2420   34.2810   39.4520 C   0  0  0  0  0  0  0  0  0  0  0  0
   48.0660   33.8190   38.1860 C   0  0  0  0  0  0  0  0  0  0  0  0
   46.8020   33.3650   37.9220 N   0  0  0  0  0  0  0  0  0  0  0  0
   45.8540   33.3980   38.8840 C   0  0  0  0  0  0  0  0  0  0  0  0
   46.0550   33.8640   40.1410 N   0  0  0  0  0  0  0  0  0  0  0  0
   44.5370   32.8960   38.5250 C   0  0  0  0  0  0  0  0  0  0  0  0
   43.3940   33.6280   38.8550 C   0  0  0  0  0  0  0  0  0  0  0  0
   42.1550   33.1480   38.5130 C   0  0  0  0  0  0  0  0  0  0  0  0
   42.0190   31.9900   37.8680 N   0  0  0  0  0  0  0  0  0  0  0  0
   43.1320   31.3050   37.5610 C   0  0  0  0  0  0  0  0  0  0  0  0
   44.3920   31.7270   37.8730 N   0  0  0  0  0  0  0  0  0  0  0  0
   48.3688   33.5101   43.2271 H   0  0  0  0  0  0  0  0  0  0  0  0
   46.8971   32.9684   42.2368 H   0  0  0  0  0  0  0  0  0  0  0  0
   44.0003   36.2053   44.8276 H   0  0  0  0  0  0  0  0  0  0  0  0
   45.5624   35.6833   42.9286 H   0  0  0  0  0  0  0  0  0  0  0  0
   43.7353   32.1778   48.0684 H   0  0  0  0  0  0  0  0  0  0  0  0
   51.5685   31.8949   50.3838 H   0  0  0  0  0  0  0  0  0  0  0  0
   51.3592   29.3817   49.4562 H   0  0  0  0  0  0  0  0  0  0  0  0
   48.9862   29.1210   48.1934 H   0  0  0  0  0  0  0  0  0  0  0  0
   46.9325   35.7037   42.0492 H   0  0  0  0  0  0  0  0  0  0  0  0
   48.6428   35.2138   41.8691 H   0  0  0  0  0  0  0  0  0  0  0  0
   49.2456   34.6566   39.7006 H   0  0  0  0  0  0  0  0  0  0  0  0
   48.8714   33.8106   37.4368 H   0  0  0  0  0  0  0  0  0  0  0  0
   43.4869   34.5861   39.3873 H   0  0  0  0  0  0  0  0  0  0  0  0
   41.2587   33.7290   38.7757 H   0  0  0  0  0  0  0  0  0  0  0  0
   43.0223   30.3492   37.0276 H   0  0  0  0  0  0  0  0  0  0  0  0
  1  4  1  0
  2  7  2  0
  3  4  2  0
  3  2  1  0
  4  5  1  0
  5  6  2  0
  6  8  1  0
  7  6  1  0
  8 12  1  0
  8  9  2  0
  9 10  1  0
 11 13  1  0
 11 10  1  0
 12 11  2  0
 13 14  1  0
 14 15  2  0
 16 15  1  0
 17 13  1  0
 17 16  2  0
 18  1  1  0
 19 18  1  0
 20 19  2  0
 21 20  1  0
 22 21  2  0
 22 23  1  0
 23 24  2  0
 24 19  1  0
 25 26  2  0
 25 23  1  0
 27 26  1  0
 28 27  2  0
 29 28  1  0
 29 30  2  0
 30 25  1  0
  1 31  1  0
  1 32  1  0
  2 33  1  0
  3 34  1  0
  9 35  1  0
 15 36  1  0
 16 37  1  0
 17 38  1  0
 18 39  1  0
 18 40  1  0
 20 41  1  0
 21 42  1  0
 26 43  1  0
 27 44  1  0
 29 45  1  0
M  ISO  8  31   8  32   8  33  14  34  14  35  14  36  14  37  14  38  14
M  ISO  7  39   8  40   8  41  14  42  14  43  14  44  14  45  14
M  END
>  <minimizedAffinity>  (1) 
-6.63954449

>  <minimizedRMSD>  (1) 
0.264065206

$$$$
