
     RDKit          3D

 42 44  0  0  0  0  0  0  0  0999 V2000
   44.3750   34.1590   41.8660 C   0  0  0  0  0  0  0  0  0  0  0  0
   44.1960   35.6240   41.8450 C   0  0  0  0  0  0  0  0  0  0  0  0
   44.8580   36.1810   43.0920 C   0  0  0  0  0  0  0  0  0  0  0  0
   45.4980   35.0250   43.8110 C   0  0  0  0  0  0  0  0  0  0  0  0
   44.7340   33.8200   43.3060 C   0  0  0  0  0  0  0  0  0  0  0  0
   45.4850   33.6180   41.0330 C   0  0  0  0  0  0  0  0  0  0  0  0
   45.3380   33.5300   39.6590 C   0  0  0  0  0  0  0  0  0  0  0  0
   46.3900   33.0170   38.9060 C   0  0  0  0  0  0  0  0  0  0  0  0
   47.5190   32.6240   39.5550 N   0  0  0  0  0  0  0  0  0  0  0  0
   47.6330   32.7220   40.8890 C   0  0  0  0  0  0  0  0  0  0  0  0
   46.6200   33.2140   41.5930 N   0  0  0  0  0  0  0  0  0  0  0  0
   48.8800   32.2830   41.5610 C   0  0  0  0  0  0  0  0  0  0  0  0
   49.4510   33.2750   42.5210 C   0  0  0  0  0  0  0  0  0  0  0  0
   50.9690   33.2700   42.3140 C   0  0  0  0  0  0  0  0  0  0  0  0
   51.1860   32.0330   41.4340 C   0  0  0  0  0  0  0  0  0  0  0  0
   49.9840   32.2060   40.4970 C   0  0  0  0  0  0  0  0  0  0  0  0
   43.1580   33.3950   41.4950 C   0  0  0  0  0  0  0  0  0  0  0  0
   41.9490   34.1740   41.1940 C   0  0  0  0  0  0  0  0  0  0  0  0
   44.6695   36.0476   40.9470 H   0  0  0  0  0  0  0  0  0  0  0  0
   43.1274   35.8841   41.8239 H   0  0  0  0  0  0  0  0  0  0  0  0
   45.6224   36.9215   42.8139 H   0  0  0  0  0  0  0  0  0  0  0  0
   44.1191   36.6802   43.7361 H   0  0  0  0  0  0  0  0  0  0  0  0
   46.5654   34.9474   43.5566 H   0  0  0  0  0  0  0  0  0  0  0  0
   45.4559   35.1281   44.9054 H   0  0  0  0  0  0  0  0  0  0  0  0
   43.8248   33.6597   43.9041 H   0  0  0  0  0  0  0  0  0  0  0  0
   45.3247   32.8949   43.3787 H   0  0  0  0  0  0  0  0  0  0  0  0
   44.4081   33.8591   39.1722 H   0  0  0  0  0  0  0  0  0  0  0  0
   46.3104   32.9314   37.8122 H   0  0  0  0  0  0  0  0  0  0  0  0
   48.6127   31.3494   42.0777 H   0  0  0  0  0  0  0  0  0  0  0  0
   49.0445   34.2765   42.3168 H   0  0  0  0  0  0  0  0  0  0  0  0
   49.1937   33.0132   43.5580 H   0  0  0  0  0  0  0  0  0  0  0  0
   51.3023   34.1845   41.8016 H   0  0  0  0  0  0  0  0  0  0  0  0
   51.5375   33.2408   43.2553 H   0  0  0  0  0  0  0  0  0  0  0  0
   52.1426   32.0724   40.8924 H   0  0  0  0  0  0  0  0  0  0  0  0
   51.2418   31.0721   41.9665 H   0  0  0  0  0  0  0  0  0  0  0  0
   50.0514   33.1283   39.9014 H   0  0  0  0  0  0  0  0  0  0  0  0
   49.8576   31.4266   39.7311 H   0  0  0  0  0  0  0  0  0  0  0  0
   43.3994   32.7985   40.6029 H   0  0  0  0  0  0  0  0  0  0  0  0
   42.9047   32.8076   42.3899 H   0  0  0  0  0  0  0  0  0  0  0  0
   41.4687   34.4835   42.1340 H   0  0  0  0  0  0  0  0  0  0  0  0
   42.2231   35.0658   40.6113 H   0  0  0  0  0  0  0  0  0  0  0  0
   41.2501   33.5559   40.6113 H   0  0  0  0  0  0  0  0  0  0  0  0
  1  5  1  0
  2  1  1  0
  2  3  1  0
  3  4  1  0
  5  4  1  0
  6 11  1  0
  6  1  1  0
  7  6  2  0
  8  9  2  0
  8  7  1  0
  9 10  1  0
 10 12  1  0
 10 11  2  0
 12 13  1  0
 14 13  1  0
 15 14  1  0
 16 15  1  0
 16 12  1  0
 17  1  1  0
 18 17  1  0
  2 19  1  0
  2 20  1  0
  3 21  1  0
  3 22  1  0
  4 23  1  0
  4 24  1  0
  5 25  1  0
  5 26  1  0
  7 27  1  0
  8 28  1  0
 12 29  1  0
 13 30  1  0
 13 31  1  0
 14 32  1  0
 14 33  1  0
 15 34  1  0
 15 35  1  0
 16 36  1  0
 16 37  1  0
 17 38  1  0
 17 39  1  0
 18 40  1  0
 18 41  1  0
 18 42  1  0
M  ISO  8  19  13  20  13  21  13  22  13  23  13  24  13  25  13  26  13
M  ISO  8  27  14  28  14  29  13  30  13  31  13  32  13  33  13  34  13
M  ISO  8  35  13  36  13  37  13  38   8  39   8  40   8  41   8  42   8
M  END
>  <minimizedAffinity>  (1) 
-4.10175657

>  <minimizedRMSD>  (1) 
3.52096176

$$$$
