
     RDKit          3D

 38 39  0  0  0  0  0  0  0  0999 V2000
   46.2850   34.9070   42.5550 C   0  0  0  0  0  0  0  0  0  0  0  0
   47.6240   35.1930   42.0470 C   0  0  0  0  0  0  0  0  0  0  0  0
   48.5790   34.1710   42.6670 C   0  0  0  0  0  0  0  0  0  0  0  0
   47.7580   33.2750   43.5340 C   0  0  0  0  0  0  0  0  0  0  0  0
   46.5040   34.0860   43.8030 C   0  0  0  0  0  0  0  0  0  0  0  0
   45.3700   34.0960   41.7040 C   0  0  0  0  0  0  0  0  0  0  0  0
   45.7200   33.8210   40.4000 C   0  0  0  0  0  0  0  0  0  0  0  0
   44.8720   33.0680   39.6030 C   0  0  0  0  0  0  0  0  0  0  0  0
   43.7040   32.6270   40.1670 N   0  0  0  0  0  0  0  0  0  0  0  0
   43.3910   32.9090   41.4350 C   0  0  0  0  0  0  0  0  0  0  0  0
   44.2180   33.6330   42.1800 N   0  0  0  0  0  0  0  0  0  0  0  0
   42.1680   32.4300   41.9820 N   0  0  0  0  0  0  0  0  0  0  0  0
   41.9530   31.0650   42.3590 C   0  0  0  0  0  0  0  0  0  0  0  0
   42.9900   30.2770   42.3690 N   0  0  0  0  0  0  0  0  0  0  0  0
   40.6360   30.6060   42.7100 N   0  0  0  0  0  0  0  0  0  0  0  0
   42.8100   29.2930   42.6410 H   0  0  0  0  0  0  0  0  0  0  0  0
   45.5120   36.1280   42.9390 C   0  0  0  0  0  0  0  0  0  0  0  0
   44.7940   36.1090   44.2100 C   0  0  0  0  0  0  0  0  0  0  0  0
   43.3760   35.8540   44.1390 N   0  0  0  0  0  0  0  0  0  0  0  0
   47.6371   35.1025   40.9508 H   0  0  0  0  0  0  0  0  0  0  0  0
   47.9279   36.2168   42.3105 H   0  0  0  0  0  0  0  0  0  0  0  0
   49.0701   33.5849   41.8762 H   0  0  0  0  0  0  0  0  0  0  0  0
   49.3635   34.6724   43.2528 H   0  0  0  0  0  0  0  0  0  0  0  0
   47.5148   32.3382   43.0112 H   0  0  0  0  0  0  0  0  0  0  0  0
   48.2798   32.9781   44.4557 H   0  0  0  0  0  0  0  0  0  0  0  0
   46.6485   34.7411   44.6747 H   0  0  0  0  0  0  0  0  0  0  0  0
   45.6402   33.4431   44.0277 H   0  0  0  0  0  0  0  0  0  0  0  0
   46.6697   34.1980   39.9926 H   0  0  0  0  0  0  0  0  0  0  0  0
   45.1268   32.8338   38.5589 H   0  0  0  0  0  0  0  0  0  0  0  0
   41.3968   33.0999   42.1138 H   0  0  0  0  0  0  0  0  0  0  0  0
   40.4882   29.6231   42.9802 H   0  0  0  0  0  0  0  0  0  0  0  0
   39.8406   31.2601   42.6912 H   0  0  0  0  0  0  0  0  0  0  0  0
   46.2221   36.9673   42.9762 H   0  0  0  0  0  0  0  0  0  0  0  0
   44.7227   36.2064   42.1769 H   0  0  0  0  0  0  0  0  0  0  0  0
   45.2444   35.3260   44.8377 H   0  0  0  0  0  0  0  0  0  0  0  0
   44.8891   37.1269   44.6159 H   0  0  0  0  0  0  0  0  0  0  0  0
   42.9915   35.7848   45.0920 H   0  0  0  0  0  0  0  0  0  0  0  0
   42.9132   36.6252   43.6371 H   0  0  0  0  0  0  0  0  0  0  0  0
  1 17  1  0
  1  5  1  0
  2  1  1  0
  2  3  1  0
  3  4  1  0
  4  5  1  0
  6 11  1  0
  6  1  1  0
  7  6  2  0
  8  9  2  0
  8  7  1  0
  9 10  1  0
 10 12  1  0
 10 11  2  0
 12 13  1  0
 13 14  2  0
 13 15  1  0
 14 16  1  0
 17 18  1  0
 19 18  1  0
  2 20  1  0
  2 21  1  0
  3 22  1  0
  3 23  1  0
  4 24  1  0
  4 25  1  0
  5 26  1  0
  5 27  1  0
  7 28  1  0
  8 29  1  0
 12 30  1  0
 15 31  1  0
 15 32  1  0
 17 33  1  0
 17 34  1  0
 18 35  1  0
 18 36  1  0
 19 37  1  0
 19 38  1  0
M  ISO  8  20  13  21  13  22  13  23  13  24  13  25  13  26  13  27  13
M  ISO  8  28  14  29  14  33   8  34   8  35   8  36   8  37   5  38   5
M  END
>  <minimizedAffinity>  (1) 
-5.14675188

>  <minimizedRMSD>  (1) 
0.381701708

$$$$
