
     RDKit          3D

 43 45  0  0  0  0  0  0  0  0999 V2000
   45.4640   35.2600   42.8600 C   0  0  0  0  0  0  0  0  0  0  0  0
   46.8890   34.9440   42.8290 C   0  0  0  0  0  0  0  0  0  0  0  0
   47.1260   33.8380   43.8590 C   0  0  0  0  0  0  0  0  0  0  0  0
   45.8010   33.5040   44.4590 C   0  0  0  0  0  0  0  0  0  0  0  0
   44.9610   34.7390   44.1780 C   0  0  0  0  0  0  0  0  0  0  0  0
   44.5930   34.6260   41.8240 C   0  0  0  0  0  0  0  0  0  0  0  0
   45.1610   34.0030   40.7330 C   0  0  0  0  0  0  0  0  0  0  0  0
   44.3550   33.4200   39.7690 C   0  0  0  0  0  0  0  0  0  0  0  0
   42.9980   33.4930   39.9530 N   0  0  0  0  0  0  0  0  0  0  0  0
   42.4780   34.1010   41.0180 C   0  0  0  0  0  0  0  0  0  0  0  0
   43.2640   34.6570   41.9340 N   0  0  0  0  0  0  0  0  0  0  0  0
   41.0590   34.1540   41.1760 N   0  0  0  0  0  0  0  0  0  0  0  0
   40.2680   33.0410   41.5830 C   0  0  0  0  0  0  0  0  0  0  0  0
   40.8940   31.9840   42.0070 N   0  0  0  0  0  0  0  0  0  0  0  0
   38.8330   33.0990   41.5210 N   0  0  0  0  0  0  0  0  0  0  0  0
   40.3020   31.1750   42.2990 H   0  0  0  0  0  0  0  0  0  0  0  0
   45.1660   36.7230   42.7910 C   0  0  0  0  0  0  0  0  0  0  0  0
   45.0900   37.4610   44.0470 C   0  0  0  0  0  0  0  0  0  0  0  0
   45.1610   38.9880   43.8160 C   0  0  0  0  0  0  0  0  0  0  0  0
   46.4270   39.6710   44.1330 C   0  0  0  0  0  0  0  0  0  0  0  0
   45.2900   39.8240   45.0860 C   0  0  0  0  0  0  0  0  0  0  0  0
   47.1763   34.5941   41.8265 H   0  0  0  0  0  0  0  0  0  0  0  0
   47.4928   35.8332   43.0628 H   0  0  0  0  0  0  0  0  0  0  0  0
   47.5521   32.9506   43.3681 H   0  0  0  0  0  0  0  0  0  0  0  0
   47.8333   34.1699   44.6333 H   0  0  0  0  0  0  0  0  0  0  0  0
   45.3654   32.6151   43.9794 H   0  0  0  0  0  0  0  0  0  0  0  0
   45.8648   33.2648   45.5308 H   0  0  0  0  0  0  0  0  0  0  0  0
   45.1009   35.4900   44.9694 H   0  0  0  0  0  0  0  0  0  0  0  0
   43.8856   34.5094   44.1484 H   0  0  0  0  0  0  0  0  0  0  0  0
   46.2554   33.9689   40.6280 H   0  0  0  0  0  0  0  0  0  0  0  0
   44.7865   32.9182   38.8904 H   0  0  0  0  0  0  0  0  0  0  0  0
   40.5813   35.0463   40.9851 H   0  0  0  0  0  0  0  0  0  0  0  0
   38.2715   32.2882   41.8179 H   0  0  0  0  0  0  0  0  0  0  0  0
   38.3663   33.9514   41.1797 H   0  0  0  0  0  0  0  0  0  0  0  0
   45.9546   37.1903   42.1830 H   0  0  0  0  0  0  0  0  0  0  0  0
   44.1496   36.7796   42.3742 H   0  0  0  0  0  0  0  0  0  0  0  0
   44.1399   37.2194   44.5459 H   0  0  0  0  0  0  0  0  0  0  0  0
   45.9474   37.1675   44.6705 H   0  0  0  0  0  0  0  0  0  0  0  0
   44.5009   38.9705   42.9363 H   0  0  0  0  0  0  0  0  0  0  0  0
   47.3067   39.0789   44.4255 H   0  0  0  0  0  0  0  0  0  0  0  0
   47.0729   40.3776   43.5912 H   0  0  0  0  0  0  0  0  0  0  0  0
   44.7644   40.7865   45.1718 H   0  0  0  0  0  0  0  0  0  0  0  0
   45.1357   39.6507   46.1612 H   0  0  0  0  0  0  0  0  0  0  0  0
  1  5  1  0
  2  1  1  0
  2  3  1  0
  3  4  1  0
  5  4  1  0
  6 11  1  0
  6  1  1  0
  7  6  2  0
  8  9  2  0
  8  7  1  0
  9 10  1  0
 10 12  1  0
 10 11  2  0
 12 13  1  0
 13 14  2  0
 14 16  1  0
 15 13  1  0
 17  1  1  0
 17 18  1  0
 19 18  1  0
 19 20  1  0
 19 21  1  0
 20 21  1  0
  2 22  1  0
  2 23  1  0
  3 24  1  0
  3 25  1  0
  4 26  1  0
  4 27  1  0
  5 28  1  0
  5 29  1  0
  7 30  1  0
  8 31  1  0
 12 32  1  0
 15 33  1  0
 15 34  1  0
 17 35  1  0
 17 36  1  0
 18 37  1  0
 18 38  1  0
 19 39  1  0
 20 40  1  0
 20 41  1  0
 21 42  1  0
 21 43  1  0
M  ISO  8  22  13  23  13  24  13  25  13  26  13  27  13  28  13  29  13
M  ISO  8  30  14  31  14  35   8  36   8  37   8  38   8  39  13  40  13
M  ISO  3  41  13  42  13  43  13
M  END
>  <minimizedAffinity>  (1) 
-4.43943739

>  <minimizedRMSD>  (1) 
1.69311202

$$$$
