
     RDKit          3D

 49 51  0  0  1  0  0  0  0  0999 V2000
   45.4620   35.3270   42.7690 C   0  0  0  0  0  0  0  0  0  0  0  0
   46.8990   35.1600   42.6760 C   0  0  0  0  0  0  0  0  0  0  0  0
   47.2760   34.0140   43.6310 C   0  0  0  0  0  0  0  0  0  0  0  0
   46.0290   33.5540   44.2860 C   0  0  0  0  0  0  0  0  0  0  0  0
   45.0730   34.7140   44.0930 C   0  0  0  0  0  0  0  0  0  0  0  0
   44.5890   34.6670   41.7660 C   0  0  0  0  0  0  0  0  0  0  0  0
   45.1470   34.0160   40.6990 C   0  0  0  0  0  0  0  0  0  0  0  0
   44.3440   33.3960   39.7530 C   0  0  0  0  0  0  0  0  0  0  0  0
   42.9960   33.4640   39.9310 N   0  0  0  0  0  0  0  0  0  0  0  0
   42.4730   34.1010   40.9740 C   0  0  0  0  0  0  0  0  0  0  0  0
   43.2520   34.6930   41.8780 N   0  0  0  0  0  0  0  0  0  0  0  0
   41.0510   34.1540   41.1340 N   0  0  0  0  0  0  0  0  0  0  0  0
   40.2720   33.0400   41.5850 C   0  0  0  0  0  0  0  0  0  0  0  0
   40.9060   32.0020   42.0400 N   0  0  0  0  0  0  0  0  0  0  0  0
   38.8360   33.0830   41.5330 N   0  0  0  0  0  0  0  0  0  0  0  0
   40.3200   31.1960   42.3490 H   0  0  0  0  0  0  0  0  0  0  0  0
   45.0340   36.7680   42.7870 C   0  0  0  0  0  0  0  0  0  0  0  0
   45.0780   37.4660   44.0760 C   0  0  0  0  0  0  0  0  0  0  0  0
   45.1630   39.0020   43.8540 C   0  0  2  0  0  0  0  0  0  0  0  0
   46.4630   39.6500   44.1460 C   0  0  0  0  0  0  0  0  0  0  0  0
   45.3370   39.8230   45.1250 C   0  0  1  0  0  0  0  0  0  0  0  0
   44.6650   41.1560   45.1310 C   0  0  0  0  0  0  0  0  0  0  0  0
   44.2970   41.6520   46.4970 C   0  0  0  0  0  0  0  0  0  0  0  0
   47.1845   34.9033   41.6452 H   0  0  0  0  0  0  0  0  0  0  0  0
   47.4227   36.0885   42.9475 H   0  0  0  0  0  0  0  0  0  0  0  0
   47.7304   33.1873   43.0652 H   0  0  0  0  0  0  0  0  0  0  0  0
   48.0044   34.3570   44.3805 H   0  0  0  0  0  0  0  0  0  0  0  0
   45.6444   32.6440   43.8022 H   0  0  0  0  0  0  0  0  0  0  0  0
   46.1747   33.2932   45.3447 H   0  0  0  0  0  0  0  0  0  0  0  0
   45.1854   35.4466   44.9058 H   0  0  0  0  0  0  0  0  0  0  0  0
   44.0222   34.3888   44.1042 H   0  0  0  0  0  0  0  0  0  0  0  0
   46.2412   33.9842   40.5908 H   0  0  0  0  0  0  0  0  0  0  0  0
   44.7800   32.8692   38.8914 H   0  0  0  0  0  0  0  0  0  0  0  0
   40.5652   35.0353   40.9143 H   0  0  0  0  0  0  0  0  0  0  0  0
   38.2845   32.2768   41.8597 H   0  0  0  0  0  0  0  0  0  0  0  0
   38.3587   33.9200   41.1691 H   0  0  0  0  0  0  0  0  0  0  0  0
   45.6876   37.3156   42.0921 H   0  0  0  0  0  0  0  0  0  0  0  0
   43.9692   36.7501   42.5114 H   0  0  0  0  0  0  0  0  0  0  0  0
   44.1675   37.2316   44.6471 H   0  0  0  0  0  0  0  0  0  0  0  0
   45.9671   37.1348   44.6325 H   0  0  0  0  0  0  0  0  0  0  0  0
   44.4770   39.0107   42.9942 H   0  0  0  0  0  0  0  0  0  0  0  0
   47.3322   39.0327   44.4169 H   0  0  0  0  0  0  0  0  0  0  0  0
   47.1185   40.3419   43.5969 H   0  0  0  0  0  0  0  0  0  0  0  0
   45.2023   39.6494   46.2028 H   0  0  0  0  0  0  0  0  0  0  0  0
   45.3451   41.8874   44.6700 H   0  0  0  0  0  0  0  0  0  0  0  0
   43.7243   41.0385   44.5731 H   0  0  0  0  0  0  0  0  0  0  0  0
   44.7701   41.0144   47.2584 H   0  0  0  0  0  0  0  0  0  0  0  0
   44.6468   42.6879   46.6175 H   0  0  0  0  0  0  0  0  0  0  0  0
   43.2042   41.6176   46.6175 H   0  0  0  0  0  0  0  0  0  0  0  0
  1 17  1  0
  1  5  1  0
  2  1  1  0
  2  3  1  0
  3  4  1  0
  5  4  1  0
  6 11  1  0
  6  1  1  0
  7  6  2  0
  8  9  2  0
  8  7  1  0
  9 10  1  0
 10 12  1  0
 10 11  2  0
 12 13  1  0
 13 14  2  0
 14 16  1  0
 15 13  1  0
 17 18  1  0
 19 18  1  0
 19 20  1  0
 19 21  1  0
 20 21  1  0
 21 22  1  0
 22 23  1  0
  2 24  1  0
  2 25  1  0
  3 26  1  0
  3 27  1  0
  4 28  1  0
  4 29  1  0
  5 30  1  0
  5 31  1  0
  7 32  1  0
  8 33  1  0
 12 34  1  0
 15 35  1  0
 15 36  1  0
 17 37  1  0
 17 38  1  0
 18 39  1  0
 18 40  1  0
 19 41  1  6
 20 42  1  0
 20 43  1  0
 21 44  1  1
 22 45  1  0
 22 46  1  0
 23 47  1  0
 23 48  1  0
 23 49  1  0
M  ISO  8  24  13  25  13  26  13  27  13  28  13  29  13  30  13  31  13
M  ISO  8  32  14  33  14  37   8  38   8  39   8  40   8  41  13  42  13
M  ISO  7  43  13  44  13  45   8  46   8  47   8  48   8  49   8
M  END
>  <minimizedAffinity>  (1) 
-4.62362909

>  <minimizedRMSD>  (1) 
0.355883688

$$$$
