
     RDKit          3D

 45 49  0  0  0  0  0  0  0  0999 V2000
   47.3780   33.7770   42.8430 C   0  0  0  0  0  0  0  0  0  0  0  0
   44.7030   35.3900   44.9280 C   0  0  0  0  0  0  0  0  0  0  0  0
   45.5860   35.0860   43.8750 C   0  0  0  0  0  0  0  0  0  0  0  0
   46.4750   34.0640   43.9510 C   0  0  0  0  0  0  0  0  0  0  0  0
   46.4990   33.3240   45.0770 N   0  0  0  0  0  0  0  0  0  0  0  0
   45.6220   33.6370   46.1010 C   0  0  0  0  0  0  0  0  0  0  0  0
   44.7660   34.6230   46.0290 N   0  0  0  0  0  0  0  0  0  0  0  0
   45.8150   32.6990   47.2510 C   0  0  0  0  0  0  0  0  0  0  0  0
   44.7930   32.0800   48.1000 C   0  0  0  0  0  0  0  0  0  0  0  0
   45.8790   31.1320   49.1980 S   0  0  0  0  0  0  0  0  0  0  0  0
   47.4740   31.7080   48.3580 C   0  0  0  0  0  0  0  0  0  0  0  0
   47.1050   32.5220   47.3710 N   0  0  0  0  0  0  0  0  0  0  0  0
   48.7890   31.2540   48.8210 C   0  0  0  0  0  0  0  0  0  0  0  0
   49.3670   30.0120   48.6620 C   0  0  0  0  0  0  0  0  0  0  0  0
   50.5950   30.0440   49.2550 C   0  0  0  0  0  0  0  0  0  0  0  0
   50.7600   31.2790   49.7640 N   0  0  0  0  0  0  0  0  0  0  0  0
   49.6610   32.0010   49.4950 N   0  0  0  0  0  0  0  0  0  0  0  0
   47.5930   34.8670   41.8600 C   0  0  0  0  0  0  0  0  0  0  0  0
   47.2920   34.3360   40.4980 C   0  0  0  0  0  0  0  0  0  0  0  0
   48.2310   34.2840   39.4910 C   0  0  0  0  0  0  0  0  0  0  0  0
   48.0470   33.8170   38.2210 C   0  0  0  0  0  0  0  0  0  0  0  0
   46.7880   33.3630   37.9640 N   0  0  0  0  0  0  0  0  0  0  0  0
   45.8430   33.3970   38.9240 C   0  0  0  0  0  0  0  0  0  0  0  0
   46.0430   33.8650   40.1810 N   0  0  0  0  0  0  0  0  0  0  0  0
   44.5240   32.8940   38.5710 C   0  0  0  0  0  0  0  0  0  0  0  0
   43.3790   33.4730   39.1190 C   0  0  0  0  0  0  0  0  0  0  0  0
   42.1390   32.9960   38.7850 C   0  0  0  0  0  0  0  0  0  0  0  0
   42.0080   31.9730   37.9310 N   0  0  0  0  0  0  0  0  0  0  0  0
   43.1280   31.4280   37.4130 C   0  0  0  0  0  0  0  0  0  0  0  0
   44.3790   31.8700   37.7170 N   0  0  0  0  0  0  0  0  0  0  0  0
   48.3573   33.5153   43.2702 H   0  0  0  0  0  0  0  0  0  0  0  0
   46.8932   32.9681   42.2767 H   0  0  0  0  0  0  0  0  0  0  0  0
   43.9890   36.2233   44.8523 H   0  0  0  0  0  0  0  0  0  0  0  0
   45.5543   35.6969   42.9608 H   0  0  0  0  0  0  0  0  0  0  0  0
   43.6965   32.1653   48.0774 H   0  0  0  0  0  0  0  0  0  0  0  0
   48.9177   29.1492   48.1484 H   0  0  0  0  0  0  0  0  0  0  0  0
   51.3161   29.2150   49.3074 H   0  0  0  0  0  0  0  0  0  0  0  0
   51.5899   31.6137   50.2741 H   0  0  0  0  0  0  0  0  0  0  0  0
   46.9236   35.7099   42.0869 H   0  0  0  0  0  0  0  0  0  0  0  0
   48.6336   35.2203   41.9075 H   0  0  0  0  0  0  0  0  0  0  0  0
   49.2358   34.6585   39.7362 H   0  0  0  0  0  0  0  0  0  0  0  0
   48.8486   33.8080   37.4678 H   0  0  0  0  0  0  0  0  0  0  0  0
   43.4722   34.3147   39.8211 H   0  0  0  0  0  0  0  0  0  0  0  0
   41.2419   33.4580   39.2228 H   0  0  0  0  0  0  0  0  0  0  0  0
   43.0255   30.5867   36.7118 H   0  0  0  0  0  0  0  0  0  0  0  0
  1  4  1  0
  2  7  2  0
  3  4  2  0
  3  2  1  0
  4  5  1  0
  5  6  2  0
  6  8  1  0
  7  6  1  0
  8 12  1  0
  8  9  2  0
  9 10  1  0
 11 13  1  0
 11 10  1  0
 12 11  2  0
 13 17  2  0
 14 13  1  0
 14 15  2  0
 15 16  1  0
 17 16  1  0
 18  1  1  0
 19 18  1  0
 20 19  2  0
 21 20  1  0
 22 21  2  0
 22 23  1  0
 23 24  2  0
 24 19  1  0
 25 23  1  0
 25 26  2  0
 27 26  1  0
 28 27  2  0
 29 30  2  0
 29 28  1  0
 30 25  1  0
  1 31  1  0
  1 32  1  0
  2 33  1  0
  3 34  1  0
  9 35  1  0
 14 36  1  0
 15 37  1  0
 16 38  1  0
 18 39  1  0
 18 40  1  0
 20 41  1  0
 21 42  1  0
 26 43  1  0
 27 44  1  0
 29 45  1  0
M  ISO  8  31   8  32   8  33  14  34  14  35  14  36  14  37  14  38   9
M  ISO  7  39   8  40   8  41  14  42  14  43  14  44  14  45  14
M  END
>  <minimizedAffinity>  (1) 
-6.33885193

>  <minimizedRMSD>  (1) 
0.297108144

$$$$
