
     RDKit          3D

 49 52  0  0  1  0  0  0  0  0999 V2000
   45.6330   35.0720   42.6210 C   0  0  0  0  0  0  0  0  0  0  0  0
   47.0700   34.9750   42.4340 C   0  0  0  0  0  0  0  0  0  0  0  0
   47.5830   33.8310   43.2930 C   0  0  0  0  0  0  0  0  0  0  0  0
   46.4040   33.2760   44.0280 C   0  0  0  0  0  0  0  0  0  0  0  0
   45.3770   34.3960   43.9490 C   0  0  0  0  0  0  0  0  0  0  0  0
   44.7190   34.3940   41.6630 C   0  0  0  0  0  0  0  0  0  0  0  0
   45.2470   33.6630   40.6280 C   0  0  0  0  0  0  0  0  0  0  0  0
   44.4030   33.0260   39.7270 C   0  0  0  0  0  0  0  0  0  0  0  0
   43.0510   33.1640   39.9250 N   0  0  0  0  0  0  0  0  0  0  0  0
   42.5740   33.8830   40.9410 C   0  0  0  0  0  0  0  0  0  0  0  0
   43.3980   34.4810   41.7870 N   0  0  0  0  0  0  0  0  0  0  0  0
   41.1560   34.0010   41.1120 N   0  0  0  0  0  0  0  0  0  0  0  0
   40.3420   32.9470   41.6190 C   0  0  0  0  0  0  0  0  0  0  0  0
   40.9300   31.9090   42.1120 N   0  0  0  0  0  0  0  0  0  0  0  0
   38.8990   33.0560   41.5730 N   0  0  0  0  0  0  0  0  0  0  0  0
   40.3210   31.1460   42.4850 H   0  0  0  0  0  0  0  0  0  0  0  0
   45.1480   36.4840   42.7190 C   0  0  0  0  0  0  0  0  0  0  0  0
   45.1100   37.0910   44.0440 C   0  0  0  0  0  0  0  0  0  0  0  0
   44.8070   38.6010   43.9440 C   0  0  2  0  0  0  0  0  0  0  0  0
   45.7620   39.4790   43.2770 C   0  0  0  0  0  0  0  0  0  0  0  0
   45.7320   39.5070   44.7590 C   0  0  1  0  0  0  0  0  0  0  0  0
   45.0150   40.5700   45.4510 N   0  0  0  0  0  0  0  0  0  0  0  0
   44.7930   40.6500   46.7710 C   0  0  0  0  0  0  0  0  0  0  0  0
   44.0910   41.7770   47.0760 N   0  0  0  0  0  0  0  0  0  0  0  0
   43.8890   42.3830   45.8950 C   0  0  0  0  0  0  0  0  0  0  0  0
   44.4480   41.6490   44.9320 N   0  0  0  0  0  0  0  0  0  0  0  0
   47.2955   34.7766   41.3758 H   0  0  0  0  0  0  0  0  0  0  0  0
   47.5562   35.9176   42.7256 H   0  0  0  0  0  0  0  0  0  0  0  0
   48.0330   33.0536   42.6580 H   0  0  0  0  0  0  0  0  0  0  0  0
   48.3548   34.1810   43.9944 H   0  0  0  0  0  0  0  0  0  0  0  0
   46.0298   32.3642   43.5396 H   0  0  0  0  0  0  0  0  0  0  0  0
   46.6418   32.9848   45.0618 H   0  0  0  0  0  0  0  0  0  0  0  0
   45.5159   35.1065   44.7772 H   0  0  0  0  0  0  0  0  0  0  0  0
   44.3472   34.0172   44.0270 H   0  0  0  0  0  0  0  0  0  0  0  0
   46.3378   33.5817   40.5121 H   0  0  0  0  0  0  0  0  0  0  0  0
   44.8014   32.4351   38.8891 H   0  0  0  0  0  0  0  0  0  0  0  0
   40.7036   34.8903   40.8562 H   0  0  0  0  0  0  0  0  0  0  0  0
   38.3129   32.2927   41.9401 H   0  0  0  0  0  0  0  0  0  0  0  0
   38.4585   33.8968   41.1731 H   0  0  0  0  0  0  0  0  0  0  0  0
   45.8061   37.1030   42.0915 H   0  0  0  0  0  0  0  0  0  0  0  0
   44.0964   36.4426   42.3989 H   0  0  0  0  0  0  0  0  0  0  0  0
   44.3254   36.6041   44.6418 H   0  0  0  0  0  0  0  0  0  0  0  0
   46.0918   36.9583   44.5220 H   0  0  0  0  0  0  0  0  0  0  0  0
   43.7238   38.4405   43.8396 H   0  0  0  0  0  0  0  0  0  0  0  0
   46.6299   39.0435   42.7602 H   0  0  0  0  0  0  0  0  0  0  0  0
   45.6720   40.2510   42.4986 H   0  0  0  0  0  0  0  0  0  0  0  0
   46.5143   39.4209   45.5275 H   0  0  0  0  0  0  0  0  0  0  0  0
   45.1317   39.9066   47.5076 H   0  0  0  0  0  0  0  0  0  0  0  0
   43.3503   43.3304   45.7460 H   0  0  0  0  0  0  0  0  0  0  0  0
  1 17  1  0
  1  5  1  0
  2  1  1  0
  2  3  1  0
  3  4  1  0
  5  4  1  0
  6 11  1  0
  6  1  1  0
  7  6  2  0
  8  9  2  0
  8  7  1  0
  9 10  1  0
 10 12  1  0
 10 11  2  0
 12 13  1  0
 13 14  2  0
 14 16  1  0
 15 13  1  0
 17 18  1  0
 19 18  1  0
 19 21  1  0
 20 19  1  0
 20 21  1  0
 21 22  1  0
 22 23  1  0
 23 24  2  0
 25 24  1  0
 26 22  1  0
 26 25  2  0
  2 27  1  0
  2 28  1  0
  3 29  1  0
  3 30  1  0
  4 31  1  0
  4 32  1  0
  5 33  1  0
  5 34  1  0
  7 35  1  0
  8 36  1  0
 12 37  1  0
 15 38  1  0
 15 39  1  0
 17 40  1  0
 17 41  1  0
 18 42  1  0
 18 43  1  0
 19 44  1  6
 20 45  1  0
 20 46  1  0
 21 47  1  1
 23 48  1  0
 25 49  1  0
M  ISO  8  27  13  28  13  29  13  30  13  31  13  32  13  33  13  34  13
M  ISO  8  35  14  36  14  40   8  41   8  42   8  43   8  44  13  45  13
M  ISO  4  46  13  47  13  48  14  49  14
M  END
>  <minimizedAffinity>  (1) 
-4.88459158

>  <minimizedRMSD>  (1) 
0.936097741

$$$$
