
     RDKit          3D

 48 51  0  0  1  0  0  0  0  0999 V2000
   45.6970   35.0890   42.5530 C   0  0  0  0  0  0  0  0  0  0  0  0
   47.1220   35.0520   42.2890 C   0  0  0  0  0  0  0  0  0  0  0  0
   47.6960   33.8790   43.1020 C   0  0  0  0  0  0  0  0  0  0  0  0
   46.5740   33.2690   43.8610 C   0  0  0  0  0  0  0  0  0  0  0  0
   45.5190   34.3590   43.8640 C   0  0  0  0  0  0  0  0  0  0  0  0
   44.7640   34.4270   41.6100 C   0  0  0  0  0  0  0  0  0  0  0  0
   45.2590   33.7020   40.5580 C   0  0  0  0  0  0  0  0  0  0  0  0
   44.4050   33.0750   39.6630 C   0  0  0  0  0  0  0  0  0  0  0  0
   43.0650   33.2150   39.8790 N   0  0  0  0  0  0  0  0  0  0  0  0
   42.6020   33.9230   40.9050 C   0  0  0  0  0  0  0  0  0  0  0  0
   43.4390   34.5130   41.7480 N   0  0  0  0  0  0  0  0  0  0  0  0
   41.1890   34.0510   41.1050 N   0  0  0  0  0  0  0  0  0  0  0  0
   40.3740   32.9930   41.6250 C   0  0  0  0  0  0  0  0  0  0  0  0
   40.9790   31.9440   42.1080 N   0  0  0  0  0  0  0  0  0  0  0  0
   38.9480   33.0900   41.6130 N   0  0  0  0  0  0  0  0  0  0  0  0
   40.3730   31.1760   42.4650 H   0  0  0  0  0  0  0  0  0  0  0  0
   45.1590   36.4740   42.7420 C   0  0  0  0  0  0  0  0  0  0  0  0
   45.1400   37.0230   44.0990 C   0  0  0  0  0  0  0  0  0  0  0  0
   44.7680   38.5330   44.0740 C   0  0  2  0  0  0  0  0  0  0  0  0
   45.7070   39.4530   43.3990 C   0  0  0  0  0  0  0  0  0  0  0  0
   45.6950   39.4260   44.8940 C   0  0  1  0  0  0  0  0  0  0  0  0
   44.9860   40.5720   45.5410 C   0  0  0  0  0  0  0  0  0  0  0  0
   44.6880   40.7610   46.8400 N   0  0  0  0  0  0  0  0  0  0  0  0
   44.0560   41.9050   46.9780 O   0  0  0  0  0  0  0  0  0  0  0  0
   43.9230   42.4900   45.7890 C   0  0  0  0  0  0  0  0  0  0  0  0
   44.5020   41.6620   44.8880 N   0  0  0  0  0  0  0  0  0  0  0  0
   47.3040   34.8935   41.2158 H   0  0  0  0  0  0  0  0  0  0  0  0
   47.6004   36.0006   42.5743 H   0  0  0  0  0  0  0  0  0  0  0  0
   48.1397   33.1344   42.4247 H   0  0  0  0  0  0  0  0  0  0  0  0
   48.4809   34.2308   43.7876 H   0  0  0  0  0  0  0  0  0  0  0  0
   46.2037   32.3640   43.3571 H   0  0  0  0  0  0  0  0  0  0  0  0
   46.8636   32.9484   44.8726 H   0  0  0  0  0  0  0  0  0  0  0  0
   45.6748   35.0438   44.7107 H   0  0  0  0  0  0  0  0  0  0  0  0
   44.5043   33.9477   43.9701 H   0  0  0  0  0  0  0  0  0  0  0  0
   46.3471   33.6162   40.4216 H   0  0  0  0  0  0  0  0  0  0  0  0
   44.7913   32.4899   38.8154 H   0  0  0  0  0  0  0  0  0  0  0  0
   40.7380   34.9450   40.8638 H   0  0  0  0  0  0  0  0  0  0  0  0
   38.3763   32.3209   41.9905 H   0  0  0  0  0  0  0  0  0  0  0  0
   38.4921   33.9290   41.2268 H   0  0  0  0  0  0  0  0  0  0  0  0
   45.7690   37.1494   42.1241 H   0  0  0  0  0  0  0  0  0  0  0  0
   44.0983   36.3983   42.4606 H   0  0  0  0  0  0  0  0  0  0  0  0
   44.3968   36.4776   44.6992 H   0  0  0  0  0  0  0  0  0  0  0  0
   46.1415   36.9120   44.5403 H   0  0  0  0  0  0  0  0  0  0  0  0
   43.6840   38.3598   44.0033 H   0  0  0  0  0  0  0  0  0  0  0  0
   46.5712   39.0461   42.8534 H   0  0  0  0  0  0  0  0  0  0  0  0
   45.5954   40.2461   42.6450 H   0  0  0  0  0  0  0  0  0  0  0  0
   46.4555   39.2847   45.6761 H   0  0  0  0  0  0  0  0  0  0  0  0
   43.4384   43.4552   45.5803 H   0  0  0  0  0  0  0  0  0  0  0  0
  1 17  1  0
  1  5  1  0
  2  1  1  0
  2  3  1  0
  3  4  1  0
  4  5  1  0
  6 11  1  0
  6  1  1  0
  7  6  2  0
  8  9  2  0
  8  7  1  0
  9 10  1  0
 10 12  1  0
 10 11  2  0
 12 13  1  0
 13 14  2  0
 14 16  1  0
 15 13  1  0
 17 18  1  0
 19 18  1  0
 19 21  1  0
 20 19  1  0
 20 21  1  0
 21 22  1  0
 22 23  2  0
 23 24  1  0
 25 24  1  0
 26 22  1  0
 26 25  2  0
  2 27  1  0
  2 28  1  0
  3 29  1  0
  3 30  1  0
  4 31  1  0
  4 32  1  0
  5 33  1  0
  5 34  1  0
  7 35  1  0
  8 36  1  0
 12 37  1  0
 15 38  1  0
 15 39  1  0
 17 40  1  0
 17 41  1  0
 18 42  1  0
 18 43  1  0
 19 44  1  1
 20 45  1  0
 20 46  1  0
 21 47  1  1
 25 48  1  0
M  ISO  8  27  13  28  13  29  13  30  13  31  13  32  13  33  13  34  13
M  ISO  8  35  14  36  14  40   8  41   8  42   8  43   8  44  13  45  13
M  ISO  3  46  13  47  13  48  14
M  END
>  <minimizedAffinity>  (1) 
-4.99168348

>  <minimizedRMSD>  (1) 
0.889842927

$$$$
