
     RDKit          3D

 56 59  0  0  1  0  0  0  0  0999 V2000
   45.5060   35.1820   42.7280 C   0  0  0  0  0  0  0  0  0  0  0  0
   46.9380   35.0360   42.6130 C   0  0  0  0  0  0  0  0  0  0  0  0
   47.3570   33.8940   43.5570 C   0  0  0  0  0  0  0  0  0  0  0  0
   46.1290   33.4080   44.2320 C   0  0  0  0  0  0  0  0  0  0  0  0
   45.1540   34.5650   44.0650 C   0  0  0  0  0  0  0  0  0  0  0  0
   44.6160   34.5120   41.7470 C   0  0  0  0  0  0  0  0  0  0  0  0
   45.1630   33.8220   40.6990 C   0  0  0  0  0  0  0  0  0  0  0  0
   44.3620   33.1850   39.7660 C   0  0  0  0  0  0  0  0  0  0  0  0
   43.0030   33.2830   39.9540 N   0  0  0  0  0  0  0  0  0  0  0  0
   42.4900   33.9580   40.9790 C   0  0  0  0  0  0  0  0  0  0  0  0
   43.2880   34.5570   41.8550 N   0  0  0  0  0  0  0  0  0  0  0  0
   41.0710   34.0380   41.1390 N   0  0  0  0  0  0  0  0  0  0  0  0
   40.2660   32.9700   41.6000 C   0  0  0  0  0  0  0  0  0  0  0  0
   40.8800   31.9270   42.0830 N   0  0  0  0  0  0  0  0  0  0  0  0
   38.8320   33.0460   41.5310 N   0  0  0  0  0  0  0  0  0  0  0  0
   40.2770   31.1430   42.4160 H   0  0  0  0  0  0  0  0  0  0  0  0
   45.0520   36.6100   42.7730 C   0  0  0  0  0  0  0  0  0  0  0  0
   45.1390   37.3220   44.0420 C   0  0  0  0  0  0  0  0  0  0  0  0
   45.0280   38.8540   43.8370 C   0  0  2  0  0  0  0  0  0  0  0  0
   46.2790   39.6430   43.8320 C   0  0  0  0  0  0  0  0  0  0  0  0
   45.3890   39.7040   45.0360 C   0  0  1  0  0  0  0  0  0  0  0  0
   44.5050   40.8820   45.3070 C   0  0  0  0  0  0  0  0  0  0  0  0
   44.4830   41.2940   46.7500 C   0  0  0  0  0  0  0  0  0  0  0  0
   44.3600   42.8200   46.7670 C   0  0  0  0  0  0  0  0  0  0  0  0
   44.0550   43.1980   45.3270 C   0  0  0  0  0  0  0  0  0  0  0  0
   44.8890   42.1430   44.5990 C   0  0  0  0  0  0  0  0  0  0  0  0
   47.2093   34.7868   41.5765 H   0  0  0  0  0  0  0  0  0  0  0  0
   47.4486   35.9723   42.8824 H   0  0  0  0  0  0  0  0  0  0  0  0
   47.8176   33.0784   42.9802 H   0  0  0  0  0  0  0  0  0  0  0  0
   48.0930   34.2477   44.2940 H   0  0  0  0  0  0  0  0  0  0  0  0
   45.7468   32.4979   43.7466 H   0  0  0  0  0  0  0  0  0  0  0  0
   46.2964   33.1356   45.2845 H   0  0  0  0  0  0  0  0  0  0  0  0
   45.2813   35.2982   44.8750 H   0  0  0  0  0  0  0  0  0  0  0  0
   44.1063   34.2322   44.1042 H   0  0  0  0  0  0  0  0  0  0  0  0
   46.2571   33.7726   40.5962 H   0  0  0  0  0  0  0  0  0  0  0  0
   44.7903   32.6296   38.9186 H   0  0  0  0  0  0  0  0  0  0  0  0
   40.6071   34.9272   40.9043 H   0  0  0  0  0  0  0  0  0  0  0  0
   38.2578   32.2611   41.8702 H   0  0  0  0  0  0  0  0  0  0  0  0
   38.3789   33.8854   41.1423 H   0  0  0  0  0  0  0  0  0  0  0  0
   45.6582   37.1678   42.0441 H   0  0  0  0  0  0  0  0  0  0  0  0
   43.9734   36.5592   42.5630 H   0  0  0  0  0  0  0  0  0  0  0  0
   44.3209   36.9880   44.6971 H   0  0  0  0  0  0  0  0  0  0  0  0
   46.1162   37.1025   44.4969 H   0  0  0  0  0  0  0  0  0  0  0  0
   44.1700   38.7750   43.1533 H   0  0  0  0  0  0  0  0  0  0  0  0
   47.2498   39.1295   43.8949 H   0  0  0  0  0  0  0  0  0  0  0  0
   46.7149   40.3935   43.1562 H   0  0  0  0  0  0  0  0  0  0  0  0
   45.5677   39.5638   46.1123 H   0  0  0  0  0  0  0  0  0  0  0  0
   43.5381   40.4979   44.9499 H   0  0  0  0  0  0  0  0  0  0  0  0
   43.6227   40.8381   47.2619 H   0  0  0  0  0  0  0  0  0  0  0  0
   45.3937   40.9634   47.2710 H   0  0  0  0  0  0  0  0  0  0  0  0
   43.5431   43.1360   47.4325 H   0  0  0  0  0  0  0  0  0  0  0  0
   45.2726   43.3072   47.1410 H   0  0  0  0  0  0  0  0  0  0  0  0
   42.9835   43.1026   45.0971 H   0  0  0  0  0  0  0  0  0  0  0  0
   44.2866   44.2397   45.0603 H   0  0  0  0  0  0  0  0  0  0  0  0
   45.9652   42.3455   44.7032 H   0  0  0  0  0  0  0  0  0  0  0  0
   44.7059   42.1105   43.5148 H   0  0  0  0  0  0  0  0  0  0  0  0
  1 17  1  0
  1  5  1  0
  2  1  1  0
  2  3  1  0
  3  4  1  0
  5  4  1  0
  6 11  1  0
  6  1  1  0
  7  6  2  0
  8  9  2  0
  8  7  1  0
  9 10  1  0
 10 12  1  0
 10 11  2  0
 12 13  1  0
 13 14  2  0
 14 16  1  0
 15 13  1  0
 17 18  1  0
 19 18  1  0
 19 21  1  0
 20 19  1  0
 20 21  1  0
 21 22  1  0
 22 23  1  0
 23 24  1  0
 25 24  1  0
 26 22  1  0
 26 25  1  0
  2 27  1  0
  2 28  1  0
  3 29  1  0
  3 30  1  0
  4 31  1  0
  4 32  1  0
  5 33  1  0
  5 34  1  0
  7 35  1  0
  8 36  1  0
 12 37  1  0
 15 38  1  0
 15 39  1  0
 17 40  1  0
 17 41  1  0
 18 42  1  0
 18 43  1  0
 19 44  1  6
 20 45  1  0
 20 46  1  0
 21 47  1  1
 22 48  1  0
 23 49  1  0
 23 50  1  0
 24 51  1  0
 24 52  1  0
 25 53  1  0
 25 54  1  0
 26 55  1  0
 26 56  1  0
M  ISO  8  27  13  28  13  29  13  30  13  31  13  32  13  33  13  34  13
M  ISO  8  35  14  36  14  40   8  41   8  42   8  43   8  44  13  45  13
M  ISO  8  46  13  47  13  48  13  49  13  50  13  51  13  52  13  53  13
M  ISO  3  54  13  55  13  56  13
M  END
>  <minimizedAffinity>  (1) 
-4.29189825

>  <minimizedRMSD>  (1) 
0.47393012

$$$$
