
     RDKit          3D

 45 47  0  0  1  0  0  0  0  0999 V2000
   45.2710   35.2820   42.7580 C   0  0  0  0  0  0  0  0  0  0  0  0
   46.7160   35.2290   42.6430 C   0  0  0  0  0  0  0  0  0  0  0  0
   47.2050   34.1220   43.5780 C   0  0  0  0  0  0  0  0  0  0  0  0
   46.0110   33.5700   44.2700 C   0  0  0  0  0  0  0  0  0  0  0  0
   44.9690   34.6580   44.1000 C   0  0  0  0  0  0  0  0  0  0  0  0
   44.4280   34.5530   41.7800 C   0  0  0  0  0  0  0  0  0  0  0  0
   45.0220   33.7970   40.8060 C   0  0  0  0  0  0  0  0  0  0  0  0
   44.2620   33.1030   39.8760 C   0  0  0  0  0  0  0  0  0  0  0  0
   42.9000   33.2160   39.9860 N   0  0  0  0  0  0  0  0  0  0  0  0
   42.3440   33.9620   40.9460 C   0  0  0  0  0  0  0  0  0  0  0  0
   43.0960   34.6160   41.8230 N   0  0  0  0  0  0  0  0  0  0  0  0
   40.9160   34.0590   41.0330 N   0  0  0  0  0  0  0  0  0  0  0  0
   40.0910   33.0000   41.5390 C   0  0  0  0  0  0  0  0  0  0  0  0
   40.6840   31.9880   42.1170 N   0  0  0  0  0  0  0  0  0  0  0  0
   38.6620   33.0610   41.4080 N   0  0  0  0  0  0  0  0  0  0  0  0
   40.0650   31.2320   42.4660 H   0  0  0  0  0  0  0  0  0  0  0  0
   44.7450   36.6900   42.7770 C   0  0  0  0  0  0  0  0  0  0  0  0
   45.1240   37.5360   43.9160 C   0  0  0  0  0  0  0  0  0  0  0  0
   45.2800   39.0140   43.4740 C   0  0  2  0  0  0  0  0  0  0  0  0
   46.5300   39.7110   43.8050 C   0  0  0  0  0  0  0  0  0  0  0  0
   45.3030   40.0240   44.6120 C   0  0  2  0  0  0  0  0  0  0  0  0
   45.1760   39.5070   45.9960 C   0  0  0  0  0  0  0  0  0  0  0  0
   44.7390   40.4510   46.6710 O   0  0  0  0  0  0  0  0  0  0  0  0
   47.0032   35.0004   41.6061 H   0  0  0  0  0  0  0  0  0  0  0  0
   47.1646   36.1958   42.9152 H   0  0  0  0  0  0  0  0  0  0  0  0
   47.7029   33.3314   42.9975 H   0  0  0  0  0  0  0  0  0  0  0  0
   47.9291   34.5176   44.3055 H   0  0  0  0  0  0  0  0  0  0  0  0
   45.6814   32.6327   43.7980 H   0  0  0  0  0  0  0  0  0  0  0  0
   46.2033   33.3219   45.3243 H   0  0  0  0  0  0  0  0  0  0  0  0
   45.0560   35.4055   44.9023 H   0  0  0  0  0  0  0  0  0  0  0  0
   43.9445   34.2605   44.1498 H   0  0  0  0  0  0  0  0  0  0  0  0
   46.1195   33.7388   40.7599 H   0  0  0  0  0  0  0  0  0  0  0  0
   44.7289   32.4923   39.0892 H   0  0  0  0  0  0  0  0  0  0  0  0
   40.4621   34.9283   40.7180 H   0  0  0  0  0  0  0  0  0  0  0  0
   38.0781   32.2957   41.7745 H   0  0  0  0  0  0  0  0  0  0  0  0
   38.2211   33.8700   40.9476 H   0  0  0  0  0  0  0  0  0  0  0  0
   45.1009   37.1879   41.8630 H   0  0  0  0  0  0  0  0  0  0  0  0
   43.6532   36.5822   42.8567 H   0  0  0  0  0  0  0  0  0  0  0  0
   44.3443   37.4709   44.6892 H   0  0  0  0  0  0  0  0  0  0  0  0
   46.0868   37.1826   44.3136 H   0  0  0  0  0  0  0  0  0  0  0  0
   44.7128   38.8769   42.5416 H   0  0  0  0  0  0  0  0  0  0  0  0
   47.3591   39.1545   44.2665 H   0  0  0  0  0  0  0  0  0  0  0  0
   47.2471   40.3164   43.2312 H   0  0  0  0  0  0  0  0  0  0  0  0
   44.7627   40.9447   44.8774 H   0  0  0  0  0  0  0  0  0  0  0  0
   45.4193   38.4946   46.3508 H   0  0  0  0  0  0  0  0  0  0  0  0
  1 17  1  0
  1  5  1  0
  2  1  1  0
  2  3  1  0
  3  4  1  0
  5  4  1  0
  6 11  1  0
  6  1  1  0
  7  6  2  0
  8  9  2  0
  8  7  1  0
  9 10  1  0
 10 12  1  0
 10 11  2  0
 12 13  1  0
 13 14  2  0
 14 16  1  0
 15 13  1  0
 17 18  1  0
 19 20  1  0
 19 18  1  0
 19 21  1  0
 20 21  1  0
 21 22  1  0
 22 23  2  0
  2 24  1  0
  2 25  1  0
  3 26  1  0
  3 27  1  0
  4 28  1  0
  4 29  1  0
  5 30  1  0
  5 31  1  0
  7 32  1  0
  8 33  1  0
 12 34  1  0
 15 35  1  0
 15 36  1  0
 17 37  1  0
 17 38  1  0
 18 39  1  0
 18 40  1  0
 19 41  1  6
 20 42  1  0
 20 43  1  0
 21 44  1  6
 22 45  1  0
M  ISO  8  24  13  25  13  26  13  27  13  28  13  29  13  30  13  31  13
M  ISO  8  32  14  33  14  37   8  38   8  39   8  40   8  41  13  42  13
M  ISO  3  43  13  44  13  45   6
M  END
>  <minimizedAffinity>  (1) 
-4.34883833

>  <minimizedRMSD>  (1) 
0.64106214

$$$$
