
     RDKit          3D

 46 48  0  0  1  0  0  0  0  0999 V2000
   45.1980   35.1950   42.8290 C   0  0  0  0  0  0  0  0  0  0  0  0
   46.6330   35.2660   42.6400 C   0  0  0  0  0  0  0  0  0  0  0  0
   47.2540   34.1510   43.5000 C   0  0  0  0  0  0  0  0  0  0  0  0
   46.1450   33.4630   44.2080 C   0  0  0  0  0  0  0  0  0  0  0  0
   45.0090   34.4700   44.1420 C   0  0  0  0  0  0  0  0  0  0  0  0
   44.3690   34.4500   41.8520 C   0  0  0  0  0  0  0  0  0  0  0  0
   44.9730   33.6670   40.9070 C   0  0  0  0  0  0  0  0  0  0  0  0
   44.2160   32.9610   39.9810 C   0  0  0  0  0  0  0  0  0  0  0  0
   42.8530   33.0910   40.0630 N   0  0  0  0  0  0  0  0  0  0  0  0
   42.2900   33.8570   40.9880 C   0  0  0  0  0  0  0  0  0  0  0  0
   43.0290   34.5280   41.8700 N   0  0  0  0  0  0  0  0  0  0  0  0
   40.8630   33.9650   41.0400 N   0  0  0  0  0  0  0  0  0  0  0  0
   40.0200   32.9240   41.5530 C   0  0  0  0  0  0  0  0  0  0  0  0
   40.5930   31.9220   42.1670 N   0  0  0  0  0  0  0  0  0  0  0  0
   38.5950   32.9980   41.3890 N   0  0  0  0  0  0  0  0  0  0  0  0
   39.9590   31.1790   42.5220 H   0  0  0  0  0  0  0  0  0  0  0  0
   44.5510   36.5400   42.9650 C   0  0  0  0  0  0  0  0  0  0  0  0
   45.1630   37.5010   43.8850 C   0  0  0  0  0  0  0  0  0  0  0  0
   45.1970   38.9210   43.2650 C   0  0  2  0  0  0  0  0  0  0  0  0
   46.4380   39.7060   43.4190 C   0  0  0  0  0  0  0  0  0  0  0  0
   45.2570   40.0650   44.2660 C   0  0  2  0  0  0  0  0  0  0  0  0
   45.2590   39.7940   45.7340 C   0  0  0  0  0  0  0  0  0  0  0  0
   44.4600   40.6100   46.4810 F   0  0  0  0  0  0  0  0  0  0  0  0
   44.8250   38.5050   45.9220 F   0  0  0  0  0  0  0  0  0  0  0  0
   46.5800   39.8180   46.1490 F   0  0  0  0  0  0  0  0  0  0  0  0
   46.8830   35.1097   41.5802 H   0  0  0  0  0  0  0  0  0  0  0  0
   47.0203   36.2523   42.9353 H   0  0  0  0  0  0  0  0  0  0  0  0
   47.7903   33.4365   42.8583 H   0  0  0  0  0  0  0  0  0  0  0  0
   47.9714   34.5714   44.2201 H   0  0  0  0  0  0  0  0  0  0  0  0
   45.8722   32.5275   43.6977 H   0  0  0  0  0  0  0  0  0  0  0  0
   46.4050   33.1748   45.2372 H   0  0  0  0  0  0  0  0  0  0  0  0
   45.0691   35.1751   44.9841 H   0  0  0  0  0  0  0  0  0  0  0  0
   44.0243   33.9838   44.2052 H   0  0  0  0  0  0  0  0  0  0  0  0
   46.0704   33.5957   40.8801 H   0  0  0  0  0  0  0  0  0  0  0  0
   44.6881   32.3264   39.2165 H   0  0  0  0  0  0  0  0  0  0  0  0
   40.4222   34.8290   40.6935 H   0  0  0  0  0  0  0  0  0  0  0  0
   37.9943   32.2477   41.7593 H   0  0  0  0  0  0  0  0  0  0  0  0
   38.1738   33.8014   40.9011 H   0  0  0  0  0  0  0  0  0  0  0  0
   44.5408   37.0019   41.9667 H   0  0  0  0  0  0  0  0  0  0  0  0
   43.5628   36.3299   43.4001 H   0  0  0  0  0  0  0  0  0  0  0  0
   44.5785   37.5293   44.8165 H   0  0  0  0  0  0  0  0  0  0  0  0
   46.1963   37.1826   44.0873 H   0  0  0  0  0  0  0  0  0  0  0  0
   44.5639   38.6499   42.4073 H   0  0  0  0  0  0  0  0  0  0  0  0
   47.3219   39.2440   43.8829 H   0  0  0  0  0  0  0  0  0  0  0  0
   47.0854   40.2641   42.7266 H   0  0  0  0  0  0  0  0  0  0  0  0
   44.6728   40.9780   44.4531 H   0  0  0  0  0  0  0  0  0  0  0  0
  1 17  1  0
  1  5  1  0
  2  1  1  0
  2  3  1  0
  3  4  1  0
  5  4  1  0
  6 11  1  0
  6  1  1  0
  7  6  2  0
  8  9  2  0
  8  7  1  0
  9 10  1  0
 10 12  1  0
 10 11  2  0
 12 13  1  0
 13 14  2  0
 14 16  1  0
 15 13  1  0
 17 18  1  0
 19 20  1  0
 19 18  1  0
 19 21  1  0
 20 21  1  0
 21 22  1  0
 22 24  1  0
 22 25  1  0
 22 23  1  0
  2 26  1  0
  2 27  1  0
  3 28  1  0
  3 29  1  0
  4 30  1  0
  4 31  1  0
  5 32  1  0
  5 33  1  0
  7 34  1  0
  8 35  1  0
 12 36  1  0
 15 37  1  0
 15 38  1  0
 17 39  1  0
 17 40  1  0
 18 41  1  0
 18 42  1  0
 19 43  1  6
 20 44  1  0
 20 45  1  0
 21 46  1  1
M  ISO  8  26  13  27  13  28  13  29  13  30  13  31  13  32  13  33  13
M  ISO  8  34  14  35  14  39   8  40   8  41   8  42   8  43  13  44  13
M  ISO  2  45  13  46  13
M  END
>  <minimizedAffinity>  (1) 
-4.21952295

>  <minimizedRMSD>  (1) 
0.621700168

$$$$
