
     RDKit          3D

 41 44  0  0  0  0  0  0  0  0999 V2000
   47.3850   33.7170   42.8990 C   0  0  0  0  0  0  0  0  0  0  0  0
   44.7240   35.3590   44.9750 C   0  0  0  0  0  0  0  0  0  0  0  0
   45.6080   35.0440   43.9250 C   0  0  0  0  0  0  0  0  0  0  0  0
   46.4820   34.0090   44.0040 C   0  0  0  0  0  0  0  0  0  0  0  0
   46.4800   33.2790   45.1290 N   0  0  0  0  0  0  0  0  0  0  0  0
   45.6150   33.5920   46.1490 C   0  0  0  0  0  0  0  0  0  0  0  0
   44.7730   34.5880   46.0770 N   0  0  0  0  0  0  0  0  0  0  0  0
   45.7930   32.6460   47.2970 C   0  0  0  0  0  0  0  0  0  0  0  0
   44.7640   31.8780   48.0110 C   0  0  0  0  0  0  0  0  0  0  0  0
   45.8280   31.0330   49.2040 S   0  0  0  0  0  0  0  0  0  0  0  0
   47.4250   31.8280   48.5670 C   0  0  0  0  0  0  0  0  0  0  0  0
   47.0700   32.6240   47.5620 N   0  0  0  0  0  0  0  0  0  0  0  0
   48.6660   31.4510   49.2420 C   0  0  0  0  0  0  0  0  0  0  0  0
   49.6680   32.1660   49.1520 O   0  0  0  0  0  0  0  0  0  0  0  0
   48.5450   30.2710   49.9370 O   0  0  0  0  0  0  0  0  0  0  0  0
   47.6150   34.7980   41.9120 C   0  0  0  0  0  0  0  0  0  0  0  0
   47.2620   34.2760   40.5610 C   0  0  0  0  0  0  0  0  0  0  0  0
   48.1920   34.1410   39.5460 C   0  0  0  0  0  0  0  0  0  0  0  0
   47.9700   33.6760   38.2810 C   0  0  0  0  0  0  0  0  0  0  0  0
   46.6760   33.3170   38.0330 N   0  0  0  0  0  0  0  0  0  0  0  0
   45.7410   33.4350   39.0010 C   0  0  0  0  0  0  0  0  0  0  0  0
   45.9850   33.9000   40.2500 N   0  0  0  0  0  0  0  0  0  0  0  0
   44.3850   33.0320   38.6580 C   0  0  0  0  0  0  0  0  0  0  0  0
   43.2930   33.7820   39.0880 C   0  0  0  0  0  0  0  0  0  0  0  0
   42.0210   33.3940   38.7640 C   0  0  0  0  0  0  0  0  0  0  0  0
   41.8060   32.2970   38.0320 N   0  0  0  0  0  0  0  0  0  0  0  0
   42.8710   31.5900   37.6290 C   0  0  0  0  0  0  0  0  0  0  0  0
   44.1620   31.9280   37.9220 N   0  0  0  0  0  0  0  0  0  0  0  0
   48.3607   33.4489   43.3303 H   0  0  0  0  0  0  0  0  0  0  0  0
   46.8910   32.9142   42.3321 H   0  0  0  0  0  0  0  0  0  0  0  0
   44.0213   36.2018   44.8975 H   0  0  0  0  0  0  0  0  0  0  0  0
   45.5894   35.6566   43.0115 H   0  0  0  0  0  0  0  0  0  0  0  0
   43.6749   31.8312   47.8641 H   0  0  0  0  0  0  0  0  0  0  0  0
   49.3191   29.9094   50.4371 H   0  0  0  0  0  0  0  0  0  0  0  0
   46.9818   35.6644   42.1539 H   0  0  0  0  0  0  0  0  0  0  0  0
   48.6679   35.1158   41.9341 H   0  0  0  0  0  0  0  0  0  0  0  0
   49.2233   34.4410   39.7836 H   0  0  0  0  0  0  0  0  0  0  0  0
   48.7661   33.5974   37.5260 H   0  0  0  0  0  0  0  0  0  0  0  0
   43.4533   34.6888   39.6897 H   0  0  0  0  0  0  0  0  0  0  0  0
   41.1655   33.9924   39.1104 H   0  0  0  0  0  0  0  0  0  0  0  0
   42.6956   30.6857   37.0278 H   0  0  0  0  0  0  0  0  0  0  0  0
  1  4  1  0
  2  7  2  0
  3  4  2  0
  3  2  1  0
  4  5  1  0
  5  6  2  0
  6  8  1  0
  7  6  1  0
  8 12  1  0
  8  9  2  0
  9 10  1  0
 11 10  1  0
 11 13  1  0
 12 11  2  0
 13 15  1  0
 14 13  2  0
 16  1  1  0
 17 16  1  0
 18 17  2  0
 19 18  1  0
 20 19  2  0
 20 21  1  0
 21 22  2  0
 22 17  1  0
 23 21  1  0
 23 24  2  0
 25 24  1  0
 26 25  2  0
 27 28  2  0
 27 26  1  0
 28 23  1  0
  1 29  1  0
  1 30  1  0
  2 31  1  0
  3 32  1  0
  9 33  1  0
 15 34  1  0
 16 35  1  0
 16 36  1  0
 18 37  1  0
 19 38  1  0
 24 39  1  0
 25 40  1  0
 27 41  1  0
M  ISO  8  29   8  30   8  31  14  32  14  33  14  34   3  35   8  36   8
M  ISO  5  37  14  38  14  39  14  40  14  41  14
M  END
>  <minimizedAffinity>  (1) 
-6.21634626

>  <minimizedRMSD>  (1) 
0.44098866

$$$$
