
     RDKit          3D

 30 31  0  0  0  0  0  0  0  0999 V2000
   43.6920   34.2550   42.4030 C   0  0  0  0  0  0  0  0  0  0  0  0
   42.9480   33.8530   41.2910 C   0  0  0  0  0  0  0  0  0  0  0  0
   43.1530   32.5530   40.7150 C   0  0  0  0  0  0  0  0  0  0  0  0
   44.0850   31.7530   41.2930 N   0  0  0  0  0  0  0  0  0  0  0  0
   44.8030   32.1690   42.3840 C   0  0  0  0  0  0  0  0  0  0  0  0
   44.6110   33.3950   42.9300 N   0  0  0  0  0  0  0  0  0  0  0  0
   43.6880   35.4990   43.0640 N   0  0  0  0  0  0  0  0  0  0  0  0
   44.8720   36.1790   43.4990 C   0  0  0  0  0  0  0  0  0  0  0  0
   46.0140   35.8250   42.9520 N   0  0  0  0  0  0  0  0  0  0  0  0
   44.8750   37.2020   44.4830 N   0  0  0  0  0  0  0  0  0  0  0  0
   46.9030   36.2760   43.2220 H   0  0  0  0  0  0  0  0  0  0  0  0
   42.0750   34.8800   40.7220 C   0  0  0  0  0  0  0  0  0  0  0  0
   40.6120   34.7360   41.2270 C   0  0  0  0  0  0  0  0  0  0  0  0
   40.0160   35.8880   40.3760 C   0  0  0  0  0  0  0  0  0  0  0  0
   40.6150   35.6290   39.0290 C   0  0  0  0  0  0  0  0  0  0  0  0
   41.9060   34.8630   39.2810 C   0  0  0  0  0  0  0  0  0  0  0  0
   42.5770   32.2188   39.8395 H   0  0  0  0  0  0  0  0  0  0  0  0
   45.5507   31.4939   42.8258 H   0  0  0  0  0  0  0  0  0  0  0  0
   42.7786   35.9471   43.2457 H   0  0  0  0  0  0  0  0  0  0  0  0
   45.7602   37.6537   44.7536 H   0  0  0  0  0  0  0  0  0  0  0  0
   43.9919   37.4927   44.9264 H   0  0  0  0  0  0  0  0  0  0  0  0
   42.5978   35.7945   41.0388 H   0  0  0  0  0  0  0  0  0  0  0  0
   40.1740   33.7577   40.9798 H   0  0  0  0  0  0  0  0  0  0  0  0
   40.4547   34.7896   42.3144 H   0  0  0  0  0  0  0  0  0  0  0  0
   38.9180   35.8316   40.3417 H   0  0  0  0  0  0  0  0  0  0  0  0
   40.2375   36.8899   40.7724 H   0  0  0  0  0  0  0  0  0  0  0  0
   40.8285   36.5790   38.5171 H   0  0  0  0  0  0  0  0  0  0  0  0
   39.9280   35.0583   38.3868 H   0  0  0  0  0  0  0  0  0  0  0  0
   41.8210   33.8297   38.9135 H   0  0  0  0  0  0  0  0  0  0  0  0
   42.7631   35.3126   38.7582 H   0  0  0  0  0  0  0  0  0  0  0  0
  1  6  2  0
  1  7  1  0
  2  1  1  0
  3  2  2  0
  3  4  1  0
  4  5  2  0
  5  6  1  0
  7  8  1  0
  8 10  1  0
  9 11  1  0
  9  8  2  0
 12 13  1  0
 12  2  1  0
 14 13  1  0
 15 16  1  0
 15 14  1  0
 16 12  1  0
  3 17  1  0
  5 18  1  0
  7 19  1  0
 10 20  1  0
 10 21  1  0
 12 22  1  0
 13 23  1  0
 13 24  1  0
 14 25  1  0
 14 26  1  0
 15 27  1  0
 15 28  1  0
 16 29  1  0
 16 30  1  0
M  ISO  8  17  14  18  14  22  13  23  13  24  13  25  13  26  13  27  13
M  ISO  3  28  13  29  13  30  13
M  END
>  <minimizedAffinity>  (1) 
-4.79907227

>  <minimizedRMSD>  (1) 
2.82201242

$$$$
