
     RDKit          3D

 50 53  0  0  1  0  0  0  0  0999 V2000
   45.6360   34.9730   42.5870 C   0  0  0  0  0  0  0  0  0  0  0  0
   47.0700   34.9180   42.3810 C   0  0  0  0  0  0  0  0  0  0  0  0
   47.6190   33.8240   43.3010 C   0  0  0  0  0  0  0  0  0  0  0  0
   46.4700   33.2730   44.0730 C   0  0  0  0  0  0  0  0  0  0  0  0
   45.4170   34.3610   43.9540 C   0  0  0  0  0  0  0  0  0  0  0  0
   44.7350   34.2320   41.6730 C   0  0  0  0  0  0  0  0  0  0  0  0
   45.2640   33.4010   40.7250 C   0  0  0  0  0  0  0  0  0  0  0  0
   44.4500   32.6920   39.8550 C   0  0  0  0  0  0  0  0  0  0  0  0
   43.0960   32.8740   39.9990 N   0  0  0  0  0  0  0  0  0  0  0  0
   42.6030   33.6850   40.9230 C   0  0  0  0  0  0  0  0  0  0  0  0
   43.4110   34.3500   41.7430 N   0  0  0  0  0  0  0  0  0  0  0  0
   41.1800   33.8510   41.0470 N   0  0  0  0  0  0  0  0  0  0  0  0
   40.3230   32.8760   41.6290 C   0  0  0  0  0  0  0  0  0  0  0  0
   40.8830   31.8710   42.2390 N   0  0  0  0  0  0  0  0  0  0  0  0
   38.8930   33.0120   41.5380 N   0  0  0  0  0  0  0  0  0  0  0  0
   40.2410   31.1580   42.6520 H   0  0  0  0  0  0  0  0  0  0  0  0
   45.0970   36.3710   42.6380 C   0  0  0  0  0  0  0  0  0  0  0  0
   45.0800   37.0540   43.9290 C   0  0  0  0  0  0  0  0  0  0  0  0
   44.8360   38.5730   43.7530 C   0  0  2  0  0  0  0  0  0  0  0  0
   45.9480   39.3990   43.2710 C   0  0  0  0  0  0  0  0  0  0  0  0
   45.6230   39.4640   44.7160 C   0  0  1  0  0  0  0  0  0  0  0  0
   44.9740   40.6850   45.2180 C   0  0  0  0  0  0  0  0  0  0  0  0
   44.5030   41.8270   44.6660 C   0  0  0  0  0  0  0  0  0  0  0  0
   43.9410   42.7890   45.4470 C   0  0  0  0  0  0  0  0  0  0  0  0
   43.8710   42.5500   46.8270 C   0  0  0  0  0  0  0  0  0  0  0  0
   44.6500   40.8770   46.9700 S   0  0  0  0  0  0  0  0  0  0  0  0
   47.2907   34.6734   41.3315 H   0  0  0  0  0  0  0  0  0  0  0  0
   47.5343   35.8888   42.6091 H   0  0  0  0  0  0  0  0  0  0  0  0
   48.0857   33.0282   42.7019 H   0  0  0  0  0  0  0  0  0  0  0  0
   48.3819   34.2337   43.9793 H   0  0  0  0  0  0  0  0  0  0  0  0
   46.1144   32.3302   43.6318 H   0  0  0  0  0  0  0  0  0  0  0  0
   46.7264   33.0336   45.1156 H   0  0  0  0  0  0  0  0  0  0  0  0
   45.5518   35.1169   44.7417 H   0  0  0  0  0  0  0  0  0  0  0  0
   44.3980   33.9631   44.0693 H   0  0  0  0  0  0  0  0  0  0  0  0
   46.3562   33.2929   40.6511 H   0  0  0  0  0  0  0  0  0  0  0  0
   44.8661   32.0197   39.0903 H   0  0  0  0  0  0  0  0  0  0  0  0
   40.7586   34.7227   40.6955 H   0  0  0  0  0  0  0  0  0  0  0  0
   38.2800   32.3013   41.9623 H   0  0  0  0  0  0  0  0  0  0  0  0
   38.4826   33.8201   41.0486 H   0  0  0  0  0  0  0  0  0  0  0  0
   45.7050   36.9809   41.9536 H   0  0  0  0  0  0  0  0  0  0  0  0
   44.0355   36.2655   42.3697 H   0  0  0  0  0  0  0  0  0  0  0  0
   44.2761   36.6305   44.5489 H   0  0  0  0  0  0  0  0  0  0  0  0
   46.0575   36.9109   44.4128 H   0  0  0  0  0  0  0  0  0  0  0  0
   43.7859   38.4521   43.4487 H   0  0  0  0  0  0  0  0  0  0  0  0
   46.8815   38.9165   42.9456 H   0  0  0  0  0  0  0  0  0  0  0  0
   46.0495   40.1537   42.4772 H   0  0  0  0  0  0  0  0  0  0  0  0
   46.1718   39.3121   45.6572 H   0  0  0  0  0  0  0  0  0  0  0  0
   44.5749   41.9787   43.5789 H   0  0  0  0  0  0  0  0  0  0  0  0
   43.5548   43.7221   45.0109 H   0  0  0  0  0  0  0  0  0  0  0  0
   43.4593   43.1914   47.6201 H   0  0  0  0  0  0  0  0  0  0  0  0
  1 17  1  0
  1  5  1  0
  2  1  1  0
  2  3  1  0
  3  4  1  0
  5  4  1  0
  6 11  1  0
  6  1  1  0
  7  6  2  0
  8  9  2  0
  8  7  1  0
  9 10  1  0
 10 12  1  0
 10 11  2  0
 12 13  1  0
 13 14  2  0
 14 16  1  0
 15 13  1  0
 17 18  1  0
 19 18  1  0
 19 21  1  0
 20 19  1  0
 20 21  1  0
 21 22  1  0
 22 26  1  0
 23 22  2  0
 23 24  1  0
 24 25  2  0
 25 26  1  0
  2 27  1  0
  2 28  1  0
  3 29  1  0
  3 30  1  0
  4 31  1  0
  4 32  1  0
  5 33  1  0
  5 34  1  0
  7 35  1  0
  8 36  1  0
 12 37  1  0
 15 38  1  0
 15 39  1  0
 17 40  1  0
 17 41  1  0
 18 42  1  0
 18 43  1  0
 19 44  1  6
 20 45  1  0
 20 46  1  0
 21 47  1  1
 23 48  1  0
 24 49  1  0
 25 50  1  0
M  ISO  8  27  13  28  13  29  13  30  13  31  13  32  13  33  13  34  13
M  ISO  8  35  14  36  14  40   8  41   8  42   8  43   8  44  13  45  13
M  ISO  5  46  13  47  13  48  14  49  14  50  14
M  END
>  <minimizedAffinity>  (1) 
-3.97690988

>  <minimizedRMSD>  (1) 
0.657829404

$$$$
