
     RDKit          3D

 29 30  0  0  0  0  0  0  0  0999 V2000
   47.1410   34.8300   41.8900 C   0  0  0  0  0  0  0  0  0  0  0  0
   47.5230   33.6060   40.9690 C   0  0  0  0  0  0  0  0  0  0  0  0
   48.0170   34.4660   39.7770 C   0  0  0  0  0  0  0  0  0  0  0  0
   48.9120   35.4420   40.4750 C   0  0  0  0  0  0  0  0  0  0  0  0
   48.3800   35.5680   41.9020 C   0  0  0  0  0  0  0  0  0  0  0  0
   45.4970   34.9830   43.6870 C   0  0  0  0  0  0  0  0  0  0  0  0
   46.6540   34.3180   43.1870 C   0  0  0  0  0  0  0  0  0  0  0  0
   47.3220   33.3310   43.9860 C   0  0  0  0  0  0  0  0  0  0  0  0
   46.7920   33.0750   45.2130 N   0  0  0  0  0  0  0  0  0  0  0  0
   45.7010   33.7050   45.6610 C   0  0  0  0  0  0  0  0  0  0  0  0
   45.0460   34.6600   44.9110 N   0  0  0  0  0  0  0  0  0  0  0  0
   44.5880   35.9760   43.1440 C   0  0  0  0  0  0  0  0  0  0  0  0
   43.5990   35.3560   42.1950 C   0  0  0  0  0  0  0  0  0  0  0  0
   46.3166   35.4822   41.5661 H   0  0  0  0  0  0  0  0  0  0  0  0
   48.3165   32.9781   41.4005 H   0  0  0  0  0  0  0  0  0  0  0  0
   46.7397   32.8608   40.7659 H   0  0  0  0  0  0  0  0  0  0  0  0
   47.1817   34.9740   39.2728 H   0  0  0  0  0  0  0  0  0  0  0  0
   48.5102   33.8914   38.9791 H   0  0  0  0  0  0  0  0  0  0  0  0
   49.9468   35.0692   40.4860 H   0  0  0  0  0  0  0  0  0  0  0  0
   48.9176   36.4157   39.9632 H   0  0  0  0  0  0  0  0  0  0  0  0
   48.2023   36.6226   42.1593 H   0  0  0  0  0  0  0  0  0  0  0  0
   49.0897   35.1833   42.6493 H   0  0  0  0  0  0  0  0  0  0  0  0
   48.2189   32.8068   43.6243 H   0  0  0  0  0  0  0  0  0  0  0  0
   45.3133   33.4539   46.6593 H   0  0  0  0  0  0  0  0  0  0  0  0
   44.0404   36.4502   43.9718 H   0  0  0  0  0  0  0  0  0  0  0  0
   45.1795   36.7196   42.5897 H   0  0  0  0  0  0  0  0  0  0  0  0
   42.8036   34.8574   42.7684 H   0  0  0  0  0  0  0  0  0  0  0  0
   43.1580   36.1396   41.5613 H   0  0  0  0  0  0  0  0  0  0  0  0
   44.1122   34.6177   41.5613 H   0  0  0  0  0  0  0  0  0  0  0  0
  1  5  1  0
  1  7  1  0
  2  1  1  0
  3  4  1  0
  3  2  1  0
  4  5  1  0
  6 11  2  0
  7  6  1  0
  7  8  2  0
  8  9  1  0
  9 10  2  0
 11 10  1  0
 12  6  1  0
 13 12  1  0
  1 14  1  0
  2 15  1  0
  2 16  1  0
  3 17  1  0
  3 18  1  0
  4 19  1  0
  4 20  1  0
  5 21  1  0
  5 22  1  0
  8 23  1  0
 10 24  1  0
 12 25  1  0
 12 26  1  0
 13 27  1  0
 13 28  1  0
 13 29  1  0
M  ISO  8  14  13  15  13  16  13  17  13  18  13  19  13  20  13  21  13
M  ISO  8  22  13  23  14  24  14  25   8  26   8  27   8  28   8  29   8
M  END
>  <minimizedAffinity>  (1) 
-4.5814395

>  <minimizedRMSD>  (1) 
3.35788083

$$$$
