
     RDKit          3D

 49 52  0  0  1  0  0  0  0  0999 V2000
   45.6990   35.0380   42.5790 C   0  0  0  0  0  0  0  0  0  0  0  0
   47.1290   34.9660   42.3440 C   0  0  0  0  0  0  0  0  0  0  0  0
   47.6660   33.7980   43.1840 C   0  0  0  0  0  0  0  0  0  0  0  0
   46.5200   33.2250   43.9340 C   0  0  0  0  0  0  0  0  0  0  0  0
   45.4860   34.3370   43.9040 C   0  0  0  0  0  0  0  0  0  0  0  0
   44.7680   34.3760   41.6340 C   0  0  0  0  0  0  0  0  0  0  0  0
   45.2660   33.6430   40.5930 C   0  0  0  0  0  0  0  0  0  0  0  0
   44.4170   33.0140   39.6940 C   0  0  0  0  0  0  0  0  0  0  0  0
   43.0750   33.1630   39.9010 N   0  0  0  0  0  0  0  0  0  0  0  0
   42.6110   33.8780   40.9200 C   0  0  0  0  0  0  0  0  0  0  0  0
   43.4470   34.4690   41.7640 N   0  0  0  0  0  0  0  0  0  0  0  0
   41.1960   34.0150   41.1100 N   0  0  0  0  0  0  0  0  0  0  0  0
   40.3740   32.9640   41.6260 C   0  0  0  0  0  0  0  0  0  0  0  0
   40.9700   31.9130   42.1170 N   0  0  0  0  0  0  0  0  0  0  0  0
   38.9410   33.0750   41.6000 N   0  0  0  0  0  0  0  0  0  0  0  0
   40.3510   31.1620   42.4920 H   0  0  0  0  0  0  0  0  0  0  0  0
   45.1910   36.4380   42.7330 C   0  0  0  0  0  0  0  0  0  0  0  0
   45.1130   36.9950   44.0860 C   0  0  0  0  0  0  0  0  0  0  0  0
   44.7790   38.5140   44.0340 C   0  0  2  0  0  0  0  0  0  0  0  0
   45.7330   39.3990   43.3230 C   0  0  0  0  0  0  0  0  0  0  0  0
   45.7270   39.4070   44.8190 C   0  0  1  0  0  0  0  0  0  0  0  0
   45.0160   40.5540   45.4950 C   0  0  0  0  0  0  0  0  0  0  0  0
   44.6980   41.5890   44.4890 C   0  0  0  0  0  0  0  0  0  0  0  0
   43.8490   42.8200   45.6250 S   0  0  0  0  0  0  0  0  0  0  0  0
   44.0840   41.7350   47.1700 C   0  0  0  0  0  0  0  0  0  0  0  0
   44.7630   40.5380   46.7930 N   0  0  0  0  0  0  0  0  0  0  0  0
   47.3275   34.7862   41.2771 H   0  0  0  0  0  0  0  0  0  0  0  0
   47.6202   35.9092   42.6254 H   0  0  0  0  0  0  0  0  0  0  0  0
   48.1050   33.0331   42.5266 H   0  0  0  0  0  0  0  0  0  0  0  0
   48.4477   34.1450   43.8758 H   0  0  0  0  0  0  0  0  0  0  0  0
   46.1387   32.3199   43.4385 H   0  0  0  0  0  0  0  0  0  0  0  0
   46.7875   32.9158   44.9552 H   0  0  0  0  0  0  0  0  0  0  0  0
   45.6446   35.0344   44.7397 H   0  0  0  0  0  0  0  0  0  0  0  0
   44.4614   33.9499   44.0054 H   0  0  0  0  0  0  0  0  0  0  0  0
   46.3548   33.5507   40.4665 H   0  0  0  0  0  0  0  0  0  0  0  0
   44.8068   32.4222   38.8527 H   0  0  0  0  0  0  0  0  0  0  0  0
   40.7514   34.9109   40.8637 H   0  0  0  0  0  0  0  0  0  0  0  0
   38.3585   32.3124   41.9742 H   0  0  0  0  0  0  0  0  0  0  0  0
   38.4967   33.9172   41.2072 H   0  0  0  0  0  0  0  0  0  0  0  0
   45.8528   37.0927   42.1471 H   0  0  0  0  0  0  0  0  0  0  0  0
   44.1456   36.3905   42.3940 H   0  0  0  0  0  0  0  0  0  0  0  0
   44.3261   36.4708   44.6480 H   0  0  0  0  0  0  0  0  0  0  0  0
   46.0864   36.8624   44.5810 H   0  0  0  0  0  0  0  0  0  0  0  0
   43.6909   38.3613   43.9825 H   0  0  0  0  0  0  0  0  0  0  0  0
   46.5853   38.9612   42.7826 H   0  0  0  0  0  0  0  0  0  0  0  0
   45.6332   40.1741   42.5489 H   0  0  0  0  0  0  0  0  0  0  0  0
   46.5081   39.2871   45.5842 H   0  0  0  0  0  0  0  0  0  0  0  0
   44.8973   41.6267   43.4079 H   0  0  0  0  0  0  0  0  0  0  0  0
   43.7510   41.9888   48.1872 H   0  0  0  0  0  0  0  0  0  0  0  0
  1 17  1  0
  1  5  1  0
  2  1  1  0
  2  3  1  0
  3  4  1  0
  5  4  1  0
  6 11  1  0
  6  1  1  0
  7  6  2  0
  8  9  2  0
  8  7  1  0
  9 10  1  0
 10 12  1  0
 10 11  2  0
 12 13  1  0
 13 14  2  0
 14 16  1  0
 15 13  1  0
 17 18  1  0
 19 18  1  0
 19 21  1  0
 20 19  1  0
 20 21  1  0
 21 22  1  0
 22 26  1  0
 23 22  2  0
 23 24  1  0
 24 25  1  0
 26 25  2  0
  2 27  1  0
  2 28  1  0
  3 29  1  0
  3 30  1  0
  4 31  1  0
  4 32  1  0
  5 33  1  0
  5 34  1  0
  7 35  1  0
  8 36  1  0
 12 37  1  0
 15 38  1  0
 15 39  1  0
 17 40  1  0
 17 41  1  0
 18 42  1  0
 18 43  1  0
 19 44  1  6
 20 45  1  0
 20 46  1  0
 21 47  1  1
 23 48  1  0
 25 49  1  0
M  ISO  8  27  13  28  13  29  13  30  13  31  13  32  13  33  13  34  13
M  ISO  8  35  14  36  14  40   8  41   8  42   8  43   8  44  13  45  13
M  ISO  4  46  13  47  13  48  14  49  14
M  END
>  <minimizedAffinity>  (1) 
-3.96914554

>  <minimizedRMSD>  (1) 
0.912473321

$$$$
