
     RDKit          3D

 33 35  0  0  1  0  0  0  0  0999 V2000
   44.7340   35.1120   45.6850 C   0  0  0  0  0  0  0  0  0  0  0  0
   44.3360   35.6760   44.4770 C   0  0  0  0  0  0  0  0  0  0  0  0
   44.7840   35.0890   43.2900 C   0  0  0  0  0  0  0  0  0  0  0  0
   45.5810   34.0020   43.3690 N   0  0  0  0  0  0  0  0  0  0  0  0
   45.9630   33.4610   44.5670 C   0  0  0  0  0  0  0  0  0  0  0  0
   45.5330   34.0240   45.6950 N   0  0  0  0  0  0  0  0  0  0  0  0
   46.8030   32.3230   44.6590 N   0  0  0  0  0  0  0  0  0  0  0  0
   47.5290   32.0280   43.5500 C   0  0  0  0  0  0  0  0  0  0  0  0
   48.2700   30.8900   43.8960 C   0  0  0  0  0  0  0  0  0  0  0  0
   47.9660   30.5480   45.1810 N   0  0  0  0  0  0  0  0  0  0  0  0
   47.0750   31.4280   45.6300 C   0  0  0  0  0  0  0  0  0  0  0  0
   46.4650   31.4280   46.9520 C   0  0  2  0  0  0  0  0  0  0  0  0
   47.2900   32.3880   47.8310 C   0  0  0  0  0  0  0  0  0  0  0  0
   46.5720   30.0610   47.5830 C   0  0  0  0  0  0  0  0  0  0  0  0
   45.5440   29.1650   47.1550 N   0  0  0  0  0  0  0  0  0  0  0  0
   44.5740   29.4460   46.2690 N   0  0  0  0  0  0  0  0  0  0  0  0
   43.8060   28.3380   46.1370 C   0  0  0  0  0  0  0  0  0  0  0  0
   44.2870   27.3300   46.9480 C   0  0  0  0  0  0  0  0  0  0  0  0
   45.3970   27.8810   47.5880 C   0  0  0  0  0  0  0  0  0  0  0  0
   44.3967   35.5538   46.6343 H   0  0  0  0  0  0  0  0  0  0  0  0
   43.6847   36.5622   44.4565 H   0  0  0  0  0  0  0  0  0  0  0  0
   44.4937   35.5035   42.3133 H   0  0  0  0  0  0  0  0  0  0  0  0
   47.5343   32.5649   42.5900 H   0  0  0  0  0  0  0  0  0  0  0  0
   48.9781   30.3612   43.2411 H   0  0  0  0  0  0  0  0  0  0  0  0
   45.4076   31.7196   46.8690 H   0  0  0  0  0  0  0  0  0  0  0  0
   47.1007   32.1678   48.8920 H   0  0  0  0  0  0  0  0  0  0  0  0
   48.3602   32.2554   47.6142 H   0  0  0  0  0  0  0  0  0  0  0  0
   46.9979   33.4261   47.6142 H   0  0  0  0  0  0  0  0  0  0  0  0
   47.5474   29.6277   47.3169 H   0  0  0  0  0  0  0  0  0  0  0  0
   46.4626   30.1914   48.6697 H   0  0  0  0  0  0  0  0  0  0  0  0
   42.9279   28.2539   45.4799 H   0  0  0  0  0  0  0  0  0  0  0  0
   43.8829   26.3135   47.0642 H   0  0  0  0  0  0  0  0  0  0  0  0
   46.0423   27.3680   48.3163 H   0  0  0  0  0  0  0  0  0  0  0  0
  1  6  2  0
  2  1  1  0
  3  4  1  0
  3  2  2  0
  4  5  2  0
  5  7  1  0
  5  6  1  0
  7 11  1  0
  8  9  2  0
  8  7  1  0
  9 10  1  0
 10 11  2  0
 11 12  1  0
 12 14  1  0
 12 13  1  0
 15 14  1  0
 15 19  1  0
 16 15  1  0
 17 16  2  0
 17 18  1  0
 18 19  2  0
  1 20  1  0
  2 21  1  0
  3 22  1  0
  8 23  1  0
  9 24  1  0
 12 25  1  6
 13 26  1  0
 13 27  1  0
 13 28  1  0
 14 29  1  0
 14 30  1  0
 17 31  1  0
 18 32  1  0
 19 33  1  0
M  ISO  8  20  14  21  14  22  14  23  14  24  14  25   8  26   8  27   8
M  ISO  6  28   8  29   8  30   8  31  14  32  14  33  14
M  END
>  <minimizedAffinity>  (1) 
-4.31170368

>  <minimizedRMSD>  (1) 
1.18065298

$$$$
