
     RDKit          3D

 30 32  0  0  0  0  0  0  0  0999 V2000
   44.7930   34.4770   41.3480 C   0  0  0  0  0  0  0  0  0  0  0  0
   43.3240   34.9160   41.7850 C   0  0  0  0  0  0  0  0  0  0  0  0
   42.8690   35.3690   40.3870 C   0  0  0  0  0  0  0  0  0  0  0  0
   43.3360   34.2090   39.5450 C   0  0  0  0  0  0  0  0  0  0  0  0
   44.4670   33.5300   40.3160 C   0  0  0  0  0  0  0  0  0  0  0  0
   46.8430   34.4120   42.6650 C   0  0  0  0  0  0  0  0  0  0  0  0
   45.5040   33.9680   42.5350 C   0  0  0  0  0  0  0  0  0  0  0  0
   44.9690   32.9980   43.4600 C   0  0  0  0  0  0  0  0  0  0  0  0
   45.7940   32.5510   44.4290 N   0  0  0  0  0  0  0  0  0  0  0  0
   47.0850   32.9960   44.5360 C   0  0  0  0  0  0  0  0  0  0  0  0
   47.6060   33.9140   43.6680 N   0  0  0  0  0  0  0  0  0  0  0  0
   47.6060   35.3810   41.8480 C   0  0  0  0  0  0  0  0  0  0  0  0
   48.3130   34.8970   40.5820 C   0  0  0  0  0  0  0  0  0  0  0  0
   49.1310   35.1230   41.8090 C   0  0  0  0  0  0  0  0  0  0  0  0
   45.4899   35.2393   40.9695 H   0  0  0  0  0  0  0  0  0  0  0  0
   42.7282   34.0775   42.1748 H   0  0  0  0  0  0  0  0  0  0  0  0
   43.2412   35.6484   42.6015 H   0  0  0  0  0  0  0  0  0  0  0  0
   41.7769   35.4911   40.3371 H   0  0  0  0  0  0  0  0  0  0  0  0
   43.2660   36.3461   40.0745 H   0  0  0  0  0  0  0  0  0  0  0  0
   43.7039   34.5704   38.5734 H   0  0  0  0  0  0  0  0  0  0  0  0
   42.5128   33.5055   39.3514 H   0  0  0  0  0  0  0  0  0  0  0  0
   44.1290   32.5775   40.7503 H   0  0  0  0  0  0  0  0  0  0  0  0
   45.3281   33.2813   39.6783 H   0  0  0  0  0  0  0  0  0  0  0  0
   43.9326   32.6385   43.3783 H   0  0  0  0  0  0  0  0  0  0  0  0
   47.7204   32.6033   45.3435 H   0  0  0  0  0  0  0  0  0  0  0  0
   46.9231   36.2147   42.0685 H   0  0  0  0  0  0  0  0  0  0  0  0
   48.4190   35.5759   39.7230 H   0  0  0  0  0  0  0  0  0  0  0  0
   48.1701   34.0459   39.8999 H   0  0  0  0  0  0  0  0  0  0  0  0
   49.5567   34.2655   42.3506 H   0  0  0  0  0  0  0  0  0  0  0  0
   50.0248   35.7186   42.0466 H   0  0  0  0  0  0  0  0  0  0  0  0
  1  2  1  0
  1  7  1  0
  3  2  1  0
  4  5  1  0
  4  3  1  0
  5  1  1  0
  6 11  2  0
  7  6  1  0
  7  8  2  0
  8  9  1  0
  9 10  2  0
 11 10  1  0
 12  6  1  0
 13 14  1  0
 13 12  1  0
 14 12  1  0
  1 15  1  0
  2 16  1  0
  2 17  1  0
  3 18  1  0
  3 19  1  0
  4 20  1  0
  4 21  1  0
  5 22  1  0
  5 23  1  0
  8 24  1  0
 10 25  1  0
 12 26  1  0
 13 27  1  0
 13 28  1  0
 14 29  1  0
 14 30  1  0
M  ISO  8  15  13  16  13  17  13  18  13  19  13  20  13  21  13  22  13
M  ISO  8  23  13  24  14  25  14  26  13  27  13  28  13  29  13  30  13
M  END
>  <minimizedAffinity>  (1) 
-4.18165064

>  <minimizedRMSD>  (1) 
2.85104585

$$$$
