
     RDKit          3D

 35 37  0  0  0  0  0  0  0  0999 V2000
   44.6870   35.6100   42.4100 C   0  0  0  0  0  0  0  0  0  0  0  0
   45.7010   34.9270   41.7570 C   0  0  0  0  0  0  0  0  0  0  0  0
   45.4170   34.0280   40.6620 C   0  0  0  0  0  0  0  0  0  0  0  0
   44.1110   33.8820   40.3080 N   0  0  0  0  0  0  0  0  0  0  0  0
   43.1130   34.5640   40.9670 C   0  0  0  0  0  0  0  0  0  0  0  0
   43.3930   35.4240   42.0130 N   0  0  0  0  0  0  0  0  0  0  0  0
   44.9830   36.5050   43.4550 N   0  0  0  0  0  0  0  0  0  0  0  0
   41.7670   34.3570   40.5390 N   0  0  0  0  0  0  0  0  0  0  0  0
   40.8360   34.0310   41.4570 C   0  0  0  0  0  0  0  0  0  0  0  0
   39.5550   33.8380   41.0280 C   0  0  0  0  0  0  0  0  0  0  0  0
   39.3030   33.9920   39.6810 C   0  0  0  0  0  0  0  0  0  0  0  0
   38.1150   33.8130   39.2830 O   0  0  0  0  0  0  0  0  0  0  0  0
   40.2620   34.3220   38.7820 N   0  0  0  0  0  0  0  0  0  0  0  0
   41.5280   34.5090   39.2290 C   0  0  0  0  0  0  0  0  0  0  0  0
   42.4420   34.8190   38.4060 O   0  0  0  0  0  0  0  0  0  0  0  0
   47.0540   35.0650   42.2900 C   0  0  0  0  0  0  0  0  0  0  0  0
   48.1000   35.2280   41.1030 C   0  0  0  0  0  0  0  0  0  0  0  0
   49.3470   35.3290   42.0330 C   0  0  0  0  0  0  0  0  0  0  0  0
   49.1200   34.1750   42.9440 C   0  0  0  0  0  0  0  0  0  0  0  0
   47.6010   34.0300   43.0690 C   0  0  0  0  0  0  0  0  0  0  0  0
   46.2191   33.4868   40.1388 H   0  0  0  0  0  0  0  0  0  0  0  0
   44.2220   37.0075   43.9337 H   0  0  0  0  0  0  0  0  0  0  0  0
   45.9607   36.6575   43.7411 H   0  0  0  0  0  0  0  0  0  0  0  0
   41.1004   33.9238   42.5194 H   0  0  0  0  0  0  0  0  0  0  0  0
   38.7527   33.5694   41.7310 H   0  0  0  0  0  0  0  0  0  0  0  0
   40.0343   34.4282   37.7831 H   0  0  0  0  0  0  0  0  0  0  0  0
   46.9108   35.9311   42.9529 H   0  0  0  0  0  0  0  0  0  0  0  0
   47.9344   36.1377   40.5072 H   0  0  0  0  0  0  0  0  0  0  0  0
   48.1081   34.4561   40.3194 H   0  0  0  0  0  0  0  0  0  0  0  0
   50.2831   35.2175   41.4662 H   0  0  0  0  0  0  0  0  0  0  0  0
   49.4513   36.2964   42.5460 H   0  0  0  0  0  0  0  0  0  0  0  0
   49.5578   33.2600   42.5185 H   0  0  0  0  0  0  0  0  0  0  0  0
   49.5919   34.3362   43.9245 H   0  0  0  0  0  0  0  0  0  0  0  0
   47.2909   34.1355   44.1191 H   0  0  0  0  0  0  0  0  0  0  0  0
   47.2584   33.0416   42.7288 H   0  0  0  0  0  0  0  0  0  0  0  0
  1  7  1  0
  2 16  1  0
  2  1  2  0
  3  2  1  0
  4  3  2  0
  4  5  1  0
  5  6  2  0
  6  1  1  0
  8  5  1  0
  8  9  1  0
 10  9  2  0
 11 10  1  0
 12 11  2  0
 13 14  1  0
 13 11  1  0
 14  8  1  0
 15 14  2  0
 16 20  1  0
 17 18  1  0
 17 16  1  0
 18 19  1  0
 19 20  1  0
  3 21  1  0
  7 22  1  0
  7 23  1  0
  9 24  1  0
 10 25  1  0
 13 26  1  0
 16 27  1  0
 17 28  1  0
 17 29  1  0
 18 30  1  0
 18 31  1  0
 19 32  1  0
 19 33  1  0
 20 34  1  0
 20 35  1  0
M  ISO  8  21  14  24  14  25  14  26   9  27  13  28  13  29  13  30  13
M  ISO  5  31  13  32  13  33  13  34  13  35  13
M  END
>  <minimizedAffinity>  (1) 
-6.57942724

>  <minimizedRMSD>  (1) 
7.59432697

$$$$
