
     RDKit          3D

 39 42  0  0  0  0  0  0  0  0999 V2000
   44.4070   35.0970   42.7780 C   0  0  0  0  0  0  0  0  0  0  0  0
   43.8030   34.2300   41.8800 C   0  0  0  0  0  0  0  0  0  0  0  0
   43.8690   32.7980   42.0540 C   0  0  0  0  0  0  0  0  0  0  0  0
   44.5520   32.3460   43.1340 N   0  0  0  0  0  0  0  0  0  0  0  0
   45.1470   33.2030   44.0120 C   0  0  0  0  0  0  0  0  0  0  0  0
   45.0810   34.5530   43.8470 N   0  0  0  0  0  0  0  0  0  0  0  0
   44.3110   36.4890   42.6140 N   0  0  0  0  0  0  0  0  0  0  0  0
   45.8540   32.6720   45.1290 N   0  0  0  0  0  0  0  0  0  0  0  0
   46.4370   33.3950   46.1030 C   0  0  0  0  0  0  0  0  0  0  0  0
   47.0020   32.5710   46.9780 N   0  0  0  0  0  0  0  0  0  0  0  0
   46.7760   31.3150   46.5540 C   0  0  0  0  0  0  0  0  0  0  0  0
   47.1640   30.0980   47.1240 C   0  0  0  0  0  0  0  0  0  0  0  0
   47.8240   30.0450   48.1860 O   0  0  0  0  0  0  0  0  0  0  0  0
   46.7940   28.9600   46.4720 N   0  0  0  0  0  0  0  0  0  0  0  0
   46.0820   29.0070   45.3250 C   0  0  0  0  0  0  0  0  0  0  0  0
   45.7220   27.7890   44.6880 N   0  0  0  0  0  0  0  0  0  0  0  0
   45.7150   30.2080   44.7880 N   0  0  0  0  0  0  0  0  0  0  0  0
   46.0510   31.3670   45.3860 C   0  0  0  0  0  0  0  0  0  0  0  0
   43.2060   34.8230   40.6840 C   0  0  0  0  0  0  0  0  0  0  0  0
   41.6340   34.9100   40.8400 C   0  0  0  0  0  0  0  0  0  0  0  0
   41.3800   35.5350   39.4330 C   0  0  0  0  0  0  0  0  0  0  0  0
   42.2160   34.6470   38.5660 C   0  0  0  0  0  0  0  0  0  0  0  0
   43.3940   34.2010   39.4360 C   0  0  0  0  0  0  0  0  0  0  0  0
   43.3886   32.1079   41.3449 H   0  0  0  0  0  0  0  0  0  0  0  0
   43.8024   36.8787   41.8075 H   0  0  0  0  0  0  0  0  0  0  0  0
   44.7492   37.1198   43.3002 H   0  0  0  0  0  0  0  0  0  0  0  0
   46.4444   34.4933   46.1645 H   0  0  0  0  0  0  0  0  0  0  0  0
   47.0627   28.0453   46.8618 H   0  0  0  0  0  0  0  0  0  0  0  0
   45.1792   27.8064   43.8128 H   0  0  0  0  0  0  0  0  0  0  0  0
   46.0038   26.8887   45.1015 H   0  0  0  0  0  0  0  0  0  0  0  0
   43.7504   35.7782   40.6485 H   0  0  0  0  0  0  0  0  0  0  0  0
   41.1615   33.9241   40.9612 H   0  0  0  0  0  0  0  0  0  0  0  0
   41.2403   35.4504   41.7135 H   0  0  0  0  0  0  0  0  0  0  0  0
   40.3168   35.4846   39.1554 H   0  0  0  0  0  0  0  0  0  0  0  0
   41.6318   36.6034   39.3612 H   0  0  0  0  0  0  0  0  0  0  0  0
   41.6324   33.7750   38.2357 H   0  0  0  0  0  0  0  0  0  0  0  0
   42.5574   35.1709   37.6610 H   0  0  0  0  0  0  0  0  0  0  0  0
   43.3938   33.1069   39.5494 H   0  0  0  0  0  0  0  0  0  0  0  0
   44.3582   34.4798   38.9858 H   0  0  0  0  0  0  0  0  0  0  0  0
  1  6  2  0
  2  3  2  0
  2  1  1  0
  3  4  1  0
  4  5  2  0
  5  8  1  0
  6  5  1  0
  7  1  1  0
  8 18  1  0
  8  9  1  0
  9 10  2  0
 11 10  1  0
 11 12  1  0
 12 13  2  0
 14 12  1  0
 15 14  1  0
 16 15  1  0
 17 15  2  0
 17 18  1  0
 18 11  2  0
 19 20  1  0
 19  2  1  0
 21 20  1  0
 22 21  1  0
 22 23  1  0
 23 19  1  0
  3 24  1  0
  7 25  1  0
  7 26  1  0
  9 27  1  0
 14 28  1  0
 16 29  1  0
 16 30  1  0
 19 31  1  0
 20 32  1  0
 20 33  1  0
 21 34  1  0
 21 35  1  0
 22 36  1  0
 22 37  1  0
 23 38  1  0
 23 39  1  0
M  ISO  8  24  14  27  14  28   9  31  13  32  13  33  13  34  13  35  13
M  ISO  4  36  13  37  13  38  13  39  13
M  END
>  <minimizedAffinity>  (1) 
-5.55777836

>  <minimizedRMSD>  (1) 
1.66078317

$$$$
