
     RDKit          3D

 39 41  0  0  0  0  0  0  0  0999 V2000
   45.0830   34.5740   44.6560 C   0  0  0  0  0  0  0  0  0  0  0  0
   45.1340   33.7000   43.5830 C   0  0  0  0  0  0  0  0  0  0  0  0
   45.5280   32.3230   43.7460 C   0  0  0  0  0  0  0  0  0  0  0  0
   45.8470   31.9260   45.0060 N   0  0  0  0  0  0  0  0  0  0  0  0
   45.7980   32.7910   46.0630 C   0  0  0  0  0  0  0  0  0  0  0  0
   45.4170   34.1110   45.8990 N   0  0  0  0  0  0  0  0  0  0  0  0
   44.6770   35.9080   44.4900 N   0  0  0  0  0  0  0  0  0  0  0  0
   46.1310   32.3940   47.3880 N   0  0  0  0  0  0  0  0  0  0  0  0
   47.4670   32.4810   47.9240 C   0  0  0  0  0  0  0  0  0  0  0  0
   47.8370   31.4570   48.9210 C   0  0  0  0  0  0  0  0  0  0  0  0
   46.7380   30.6210   49.3550 N   0  0  0  0  0  0  0  0  0  0  0  0
   45.5250   31.3910   49.5480 C   0  0  0  0  0  0  0  0  0  0  0  0
   45.0760   31.8840   48.2140 C   0  0  0  0  0  0  0  0  0  0  0  0
   44.8900   34.2640   42.2570 C   0  0  0  0  0  0  0  0  0  0  0  0
   43.3990   33.9690   41.8040 C   0  0  0  0  0  0  0  0  0  0  0  0
   43.5220   34.6570   40.4110 C   0  0  0  0  0  0  0  0  0  0  0  0
   44.8090   34.0820   39.9200 C   0  0  0  0  0  0  0  0  0  0  0  0
   45.6740   33.8530   41.1650 C   0  0  0  0  0  0  0  0  0  0  0  0
   45.5684   31.6287   42.8937 H   0  0  0  0  0  0  0  0  0  0  0  0
   44.4254   36.2571   43.5542 H   0  0  0  0  0  0  0  0  0  0  0  0
   44.6308   36.5374   45.3040 H   0  0  0  0  0  0  0  0  0  0  0  0
   48.1718   32.4010   47.0833 H   0  0  0  0  0  0  0  0  0  0  0  0
   47.5077   33.4412   48.4591 H   0  0  0  0  0  0  0  0  0  0  0  0
   48.6084   30.8093   48.4790 H   0  0  0  0  0  0  0  0  0  0  0  0
   48.1904   31.9983   49.8110 H   0  0  0  0  0  0  0  0  0  0  0  0
   46.5654   29.8988   48.6412 H   0  0  0  0  0  0  0  0  0  0  0  0
   44.7456   30.7548   49.9927 H   0  0  0  0  0  0  0  0  0  0  0  0
   45.7128   32.2373   50.2252 H   0  0  0  0  0  0  0  0  0  0  0  0
   44.3432   32.6888   48.3729 H   0  0  0  0  0  0  0  0  0  0  0  0
   44.6518   31.0181   47.6845 H   0  0  0  0  0  0  0  0  0  0  0  0
   45.1521   35.3155   42.4458 H   0  0  0  0  0  0  0  0  0  0  0  0
   43.1808   32.8934   41.7304 H   0  0  0  0  0  0  0  0  0  0  0  0
   42.5922   34.3135   42.4677 H   0  0  0  0  0  0  0  0  0  0  0  0
   42.6827   34.3885   39.7526 H   0  0  0  0  0  0  0  0  0  0  0  0
   43.5012   35.7563   40.4455 H   0  0  0  0  0  0  0  0  0  0  0  0
   44.6281   33.1296   39.4002 H   0  0  0  0  0  0  0  0  0  0  0  0
   45.3037   34.7558   39.2050 H   0  0  0  0  0  0  0  0  0  0  0  0
   45.9347   32.7886   41.2598 H   0  0  0  0  0  0  0  0  0  0  0  0
   46.6184   34.4143   41.1106 H   0  0  0  0  0  0  0  0  0  0  0  0
  1  6  2  0
  2  3  2  0
  2  1  1  0
  3  4  1  0
  4  5  2  0
  5  8  1  0
  6  5  1  0
  7  1  1  0
  8  9  1  0
  8 13  1  0
  9 10  1  0
 10 11  1  0
 11 12  1  0
 13 12  1  0
 14  2  1  0
 15 14  1  0
 16 15  1  0
 17 16  1  0
 17 18  1  0
 18 14  1  0
  3 19  1  0
  7 20  1  0
  7 21  1  0
  9 22  1  0
  9 23  1  0
 10 24  1  0
 10 25  1  0
 11 26  1  0
 12 27  1  0
 12 28  1  0
 13 29  1  0
 13 30  1  0
 14 31  1  0
 15 32  1  0
 15 33  1  0
 16 34  1  0
 16 35  1  0
 17 36  1  0
 17 37  1  0
 18 38  1  0
 18 39  1  0
M  ISO  8  19  14  22  13  23  13  24  13  25  13  26   5  27  13  28  13
M  ISO  8  29  13  30  13  31  13  32  13  33  13  34  13  35  13  36  13
M  ISO  3  37  13  38  13  39  13
M  END
>  <minimizedAffinity>  (1) 
-5.56074762

>  <minimizedRMSD>  (1) 
1.22263992

$$$$
