
     RDKit          3D

 31 33  0  0  0  0  0  0  0  0999 V2000
   44.8280   34.9800   44.2180 C   0  0  0  0  0  0  0  0  0  0  0  0
   44.7470   34.0990   43.1520 C   0  0  0  0  0  0  0  0  0  0  0  0
   45.1100   32.7110   43.2940 C   0  0  0  0  0  0  0  0  0  0  0  0
   45.5400   32.3060   44.5180 N   0  0  0  0  0  0  0  0  0  0  0  0
   45.6200   33.1870   45.5700 C   0  0  0  0  0  0  0  0  0  0  0  0
   45.2690   34.5160   45.4290 N   0  0  0  0  0  0  0  0  0  0  0  0
   44.4470   36.3260   44.0710 N   0  0  0  0  0  0  0  0  0  0  0  0
   46.0720   32.7540   46.8490 N   0  0  0  0  0  0  0  0  0  0  0  0
   47.2740   32.3220   47.2660 C   0  0  0  0  0  0  0  0  0  0  0  0
   47.2460   32.0140   48.5770 N   0  0  0  0  0  0  0  0  0  0  0  0
   45.9660   32.2720   48.9660 C   0  0  0  0  0  0  0  0  0  0  0  0
   45.2630   32.7220   47.9040 N   0  0  0  0  0  0  0  0  0  0  0  0
   44.3850   34.6580   41.8500 C   0  0  0  0  0  0  0  0  0  0  0  0
   42.8090   34.6310   41.6640 C   0  0  0  0  0  0  0  0  0  0  0  0
   42.8110   35.2240   40.2260 C   0  0  0  0  0  0  0  0  0  0  0  0
   43.8910   34.4380   39.5690 C   0  0  0  0  0  0  0  0  0  0  0  0
   44.8840   34.0660   40.6750 C   0  0  0  0  0  0  0  0  0  0  0  0
   45.0419   32.0104   42.4487 H   0  0  0  0  0  0  0  0  0  0  0  0
   44.1160   36.6708   43.1586 H   0  0  0  0  0  0  0  0  0  0  0  0
   44.4990   36.9668   44.8757 H   0  0  0  0  0  0  0  0  0  0  0  0
   48.1619   32.2319   46.6230 H   0  0  0  0  0  0  0  0  0  0  0  0
   45.5685   32.1356   49.9826 H   0  0  0  0  0  0  0  0  0  0  0  0
   44.8572   35.6487   41.9248 H   0  0  0  0  0  0  0  0  0  0  0  0
   42.3927   33.6136   41.7046 H   0  0  0  0  0  0  0  0  0  0  0  0
   42.2031   35.1491   42.4219 H   0  0  0  0  0  0  0  0  0  0  0  0
   41.8429   35.0674   39.7277 H   0  0  0  0  0  0  0  0  0  0  0  0
   42.9722   36.3117   40.1949 H   0  0  0  0  0  0  0  0  0  0  0  0
   43.4752   33.5295   39.1088 H   0  0  0  0  0  0  0  0  0  0  0  0
   44.3789   35.0171   38.7711 H   0  0  0  0  0  0  0  0  0  0  0  0
   44.9388   32.9734   40.7895 H   0  0  0  0  0  0  0  0  0  0  0  0
   45.9002   34.4177   40.4433 H   0  0  0  0  0  0  0  0  0  0  0  0
  1  6  2  0
  2  3  2  0
  2  1  1  0
  3  4  1  0
  4  5  2  0
  5  8  1  0
  6  5  1  0
  7  1  1  0
  8  9  1  0
  8 12  1  0
  9 10  2  0
 10 11  1  0
 12 11  2  0
 13  2  1  0
 14 13  1  0
 15 14  1  0
 16 15  1  0
 16 17  1  0
 17 13  1  0
  3 18  1  0
  7 19  1  0
  7 20  1  0
  9 21  1  0
 11 22  1  0
 13 23  1  0
 14 24  1  0
 14 25  1  0
 15 26  1  0
 15 27  1  0
 16 28  1  0
 16 29  1  0
 17 30  1  0
 17 31  1  0
M  ISO  8  18  14  21  14  22  14  23  13  24  13  25  13  26  13  27  13
M  ISO  4  28  13  29  13  30  13  31  13
M  END
>  <minimizedAffinity>  (1) 
-5.14510918

>  <minimizedRMSD>  (1) 
0.517259419

$$$$
