
     RDKit          3D

 39 42  0  0  0  0  0  0  0  0999 V2000
   40.3720   29.9360   43.1900 C   0  0  0  0  0  0  0  0  0  0  0  0
   41.6690   29.4520   43.2480 C   0  0  0  0  0  0  0  0  0  0  0  0
   42.7230   30.1530   42.5720 C   0  0  0  0  0  0  0  0  0  0  0  0
   42.3860   31.2720   41.8980 N   0  0  0  0  0  0  0  0  0  0  0  0
   41.1200   31.7440   41.8390 C   0  0  0  0  0  0  0  0  0  0  0  0
   40.1290   31.0770   42.4830 N   0  0  0  0  0  0  0  0  0  0  0  0
   39.3290   29.2580   43.8800 N   0  0  0  0  0  0  0  0  0  0  0  0
   41.8930   28.1780   43.9190 C   0  0  0  0  0  0  0  0  0  0  0  0
   42.5590   28.4130   45.3450 C   0  0  0  0  0  0  0  0  0  0  0  0
   42.6530   26.9040   45.7160 C   0  0  0  0  0  0  0  0  0  0  0  0
   43.2250   26.3290   44.4580 C   0  0  0  0  0  0  0  0  0  0  0  0
   42.7380   27.2280   43.3200 C   0  0  0  0  0  0  0  0  0  0  0  0
   40.5810   32.9150   41.1710 C   0  0  0  0  0  0  0  0  0  0  0  0
   40.7220   34.1880   41.6110 N   0  0  0  0  0  0  0  0  0  0  0  0
   40.2330   35.2690   41.0110 C   0  0  0  0  0  0  0  0  0  0  0  0
   39.5310   35.1840   39.8720 N   0  0  0  0  0  0  0  0  0  0  0  0
   39.3240   33.9630   39.3380 C   0  0  0  0  0  0  0  0  0  0  0  0
   38.6010   33.8950   38.1710 C   0  0  0  0  0  0  0  0  0  0  0  0
   38.3630   32.6710   37.5850 C   0  0  0  0  0  0  0  0  0  0  0  0
   38.8800   31.5470   38.2240 C   0  0  0  0  0  0  0  0  0  0  0  0
   39.5950   31.6830   39.3910 C   0  0  0  0  0  0  0  0  0  0  0  0
   39.8540   32.8830   40.0040 C   0  0  0  0  0  0  0  0  0  0  0  0
   43.7620   29.7931   42.6021 H   0  0  0  0  0  0  0  0  0  0  0  0
   38.3647   29.6174   43.8372 H   0  0  0  0  0  0  0  0  0  0  0  0
   39.5381   28.4077   44.4224 H   0  0  0  0  0  0  0  0  0  0  0  0
   40.8716   27.7699   43.9078 H   0  0  0  0  0  0  0  0  0  0  0  0
   43.5436   28.8993   45.2816 H   0  0  0  0  0  0  0  0  0  0  0  0
   42.0319   29.0755   46.0473 H   0  0  0  0  0  0  0  0  0  0  0  0
   43.3218   26.7410   46.5740 H   0  0  0  0  0  0  0  0  0  0  0  0
   41.6971   26.4548   46.0232 H   0  0  0  0  0  0  0  0  0  0  0  0
   44.3241   26.3314   44.5026 H   0  0  0  0  0  0  0  0  0  0  0  0
   42.9054   25.2867   44.3113 H   0  0  0  0  0  0  0  0  0  0  0  0
   42.1839   26.6376   42.5754 H   0  0  0  0  0  0  0  0  0  0  0  0
   43.5772   27.7064   42.7938 H   0  0  0  0  0  0  0  0  0  0  0  0
   40.4088   36.2576   41.4603 H   0  0  0  0  0  0  0  0  0  0  0  0
   38.2140   34.8141   37.7068 H   0  0  0  0  0  0  0  0  0  0  0  0
   37.7883   32.5852   36.6510 H   0  0  0  0  0  0  0  0  0  0  0  0
   38.7161   30.5477   37.7943 H   0  0  0  0  0  0  0  0  0  0  0  0
   39.9849   30.7697   39.8641 H   0  0  0  0  0  0  0  0  0  0  0  0
  1  2  2  0
  1  7  1  0
  2  8  1  0
  3  2  1  0
  4  3  2  0
  5  4  1  0
  5  6  2  0
  6  1  1  0
  8  9  1  0
  9 10  1  0
 11 10  1  0
 12  8  1  0
 12 11  1  0
 13 14  2  0
 13  5  1  0
 15 14  1  0
 16 15  2  0
 17 16  1  0
 17 22  2  0
 18 17  1  0
 19 18  2  0
 19 20  1  0
 20 21  2  0
 21 22  1  0
 22 13  1  0
  3 23  1  0
  7 24  1  0
  7 25  1  0
  8 26  1  0
  9 27  1  0
  9 28  1  0
 10 29  1  0
 10 30  1  0
 11 31  1  0
 11 32  1  0
 12 33  1  0
 12 34  1  0
 15 35  1  0
 18 36  1  0
 19 37  1  0
 20 38  1  0
 21 39  1  0
M  ISO  8  23  14  26  13  27  13  28  13  29  13  30  13  31  13  32  13
M  ISO  7  33  13  34  13  35  14  36  14  37  14  38  14  39  14
M  END
>  <minimizedAffinity>  (1) 
-5.32676029

>  <minimizedRMSD>  (1) 
9.49849796

$$$$
