
     RDKit          3D

 37 38  0  0  0  0  0  0  0  0999 V2000
   45.7180   34.4130   43.9510 C   0  0  0  0  0  0  0  0  0  0  0  0
   44.5710   34.0550   42.9140 C   0  0  0  0  0  0  0  0  0  0  0  0
   44.8770   35.2360   41.9420 C   0  0  0  0  0  0  0  0  0  0  0  0
   46.3670   35.1240   41.8140 C   0  0  0  0  0  0  0  0  0  0  0  0
   46.8630   34.5580   43.1470 C   0  0  0  0  0  0  0  0  0  0  0  0
   45.2100   33.8820   46.2660 C   0  0  0  0  0  0  0  0  0  0  0  0
   45.7220   33.4530   45.0520 C   0  0  0  0  0  0  0  0  0  0  0  0
   46.3440   32.1580   44.9090 C   0  0  0  0  0  0  0  0  0  0  0  0
   46.4060   31.3800   46.0220 N   0  0  0  0  0  0  0  0  0  0  0  0
   45.8980   31.8140   47.2220 C   0  0  0  0  0  0  0  0  0  0  0  0
   45.3010   33.0540   47.3520 N   0  0  0  0  0  0  0  0  0  0  0  0
   44.5830   35.1340   46.3840 N   0  0  0  0  0  0  0  0  0  0  0  0
   45.9620   30.9700   48.4480 C   0  0  0  0  0  0  0  0  0  0  0  0
   45.4820   29.5900   48.1340 C   0  0  0  0  0  0  0  0  0  0  0  0
   45.1450   31.5510   49.5790 C   0  0  0  0  0  0  0  0  0  0  0  0
   47.4040   30.8610   48.9480 C   0  0  0  0  0  0  0  0  0  0  0  0
   45.6050   35.3494   44.5170 H   0  0  0  0  0  0  0  0  0  0  0  0
   44.7104   33.0693   42.4460 H   0  0  0  0  0  0  0  0  0  0  0  0
   43.5451   33.9700   43.3017 H   0  0  0  0  0  0  0  0  0  0  0  0
   44.3770   35.1002   40.9716 H   0  0  0  0  0  0  0  0  0  0  0  0
   44.5251   36.2164   42.2954 H   0  0  0  0  0  0  0  0  0  0  0  0
   46.6299   34.4455   40.9890 H   0  0  0  0  0  0  0  0  0  0  0  0
   46.8271   36.0985   41.5936 H   0  0  0  0  0  0  0  0  0  0  0  0
   47.3485   33.5831   42.9924 H   0  0  0  0  0  0  0  0  0  0  0  0
   47.6064   35.2192   43.6163 H   0  0  0  0  0  0  0  0  0  0  0  0
   46.7487   31.8169   43.9447 H   0  0  0  0  0  0  0  0  0  0  0  0
   44.5157   35.7555   45.5654 H   0  0  0  0  0  0  0  0  0  0  0  0
   44.1907   35.4303   47.2891 H   0  0  0  0  0  0  0  0  0  0  0  0
   45.2926   29.0456   49.0709 H   0  0  0  0  0  0  0  0  0  0  0  0
   44.5517   29.6494   47.5500 H   0  0  0  0  0  0  0  0  0  0  0  0
   46.2483   29.0593   47.5500 H   0  0  0  0  0  0  0  0  0  0  0  0
   45.5793   31.2422   50.5413 H   0  0  0  0  0  0  0  0  0  0  0  0
   45.1511   32.6488   49.5094 H   0  0  0  0  0  0  0  0  0  0  0  0
   44.1100   31.1849   49.5094 H   0  0  0  0  0  0  0  0  0  0  0  0
   47.4116   30.8604   50.0480 H   0  0  0  0  0  0  0  0  0  0  0  0
   47.8508   29.9265   48.5777 H   0  0  0  0  0  0  0  0  0  0  0  0
   47.9862   31.7177   48.5777 H   0  0  0  0  0  0  0  0  0  0  0  0
  1  7  1  0
  2  1  1  0
  3  2  1  0
  4  3  1  0
  4  5  1  0
  5  1  1  0
  6 12  1  0
  6 11  2  0
  7  6  1  0
  8  7  2  0
  8  9  1  0
  9 10  2  0
 10 11  1  0
 10 13  1  0
 13 16  1  0
 13 15  1  0
 14 13  1  0
  1 17  1  0
  2 18  1  0
  2 19  1  0
  3 20  1  0
  3 21  1  0
  4 22  1  0
  4 23  1  0
  5 24  1  0
  5 25  1  0
  8 26  1  0
 12 27  1  0
 12 28  1  0
 14 29  1  0
 14 30  1  0
 14 31  1  0
 15 32  1  0
 15 33  1  0
 15 34  1  0
 16 35  1  0
 16 36  1  0
 16 37  1  0
M  ISO  8  17  13  18  13  19  13  20  13  21  13  22  13  23  13  24  13
M  ISO  8  25  13  26  14  29   8  30   8  31   8  32   8  33   8  34   8
M  ISO  3  35   8  36   8  37   8
M  END
>  <minimizedAffinity>  (1) 
-5.26221752

>  <minimizedRMSD>  (1) 
2.98704839

$$$$
