
     RDKit          3D

 40 42  0  0  0  0  0  0  0  0999 V2000
   44.8890   34.8580   44.3780 C   0  0  0  0  0  0  0  0  0  0  0  0
   44.7890   34.0160   43.2800 C   0  0  0  0  0  0  0  0  0  0  0  0
   45.1130   32.6090   43.3720 C   0  0  0  0  0  0  0  0  0  0  0  0
   45.5230   32.1560   44.5900 N   0  0  0  0  0  0  0  0  0  0  0  0
   45.6210   32.9990   45.6720 C   0  0  0  0  0  0  0  0  0  0  0  0
   45.3080   34.3420   45.5770 N   0  0  0  0  0  0  0  0  0  0  0  0
   44.5510   36.2180   44.2800 N   0  0  0  0  0  0  0  0  0  0  0  0
   46.0590   32.4520   46.9120 N   0  0  0  0  0  0  0  0  0  0  0  0
   47.4660   32.1560   47.0330 C   0  0  0  0  0  0  0  0  0  0  0  0
   47.9450   31.9480   48.4290 C   0  0  0  0  0  0  0  0  0  0  0  0
   46.9290   31.0910   49.1680 C   0  0  0  0  0  0  0  0  0  0  0  0
   45.6870   31.9470   49.2890 C   0  0  0  0  0  0  0  0  0  0  0  0
   45.0860   32.2310   47.9590 C   0  0  0  0  0  0  0  0  0  0  0  0
   44.4610   34.6280   42.0000 C   0  0  0  0  0  0  0  0  0  0  0  0
   42.8940   34.6010   41.7610 C   0  0  0  0  0  0  0  0  0  0  0  0
   42.9270   35.2800   40.3650 C   0  0  0  0  0  0  0  0  0  0  0  0
   44.0540   34.5680   39.7030 C   0  0  0  0  0  0  0  0  0  0  0  0
   44.9920   34.0910   40.8110 C   0  0  0  0  0  0  0  0  0  0  0  0
   45.0325   31.9392   42.5032 H   0  0  0  0  0  0  0  0  0  0  0  0
   44.2361   36.6068   43.3797 H   0  0  0  0  0  0  0  0  0  0  0  0
   44.6181   36.8263   45.1084 H   0  0  0  0  0  0  0  0  0  0  0  0
   47.6731   31.2398   46.4605 H   0  0  0  0  0  0  0  0  0  0  0  0
   48.0011   33.0379   46.6511 H   0  0  0  0  0  0  0  0  0  0  0  0
   48.9194   31.4377   48.4143 H   0  0  0  0  0  0  0  0  0  0  0  0
   48.0582   32.9177   48.9358 H   0  0  0  0  0  0  0  0  0  0  0  0
   46.7109   30.1761   48.5976 H   0  0  0  0  0  0  0  0  0  0  0  0
   47.3029   30.7741   50.1528 H   0  0  0  0  0  0  0  0  0  0  0  0
   44.9481   31.4182   49.9090 H   0  0  0  0  0  0  0  0  0  0  0  0
   45.9727   32.9045   49.7489 H   0  0  0  0  0  0  0  0  0  0  0  0
   44.4607   33.1317   48.0466 H   0  0  0  0  0  0  0  0  0  0  0  0
   44.5062   31.3408   47.6737 H   0  0  0  0  0  0  0  0  0  0  0  0
   44.9266   35.6148   42.1397 H   0  0  0  0  0  0  0  0  0  0  0  0
   42.4875   33.5794   41.7265 H   0  0  0  0  0  0  0  0  0  0  0  0
   42.2623   35.0691   42.5303 H   0  0  0  0  0  0  0  0  0  0  0  0
   41.9826   35.1254   39.8226 H   0  0  0  0  0  0  0  0  0  0  0  0
   43.0538   36.3719   40.4051 H   0  0  0  0  0  0  0  0  0  0  0  0
   43.6744   33.7074   39.1326 H   0  0  0  0  0  0  0  0  0  0  0  0
   44.5802   35.2318   39.0013 H   0  0  0  0  0  0  0  0  0  0  0  0
   45.0074   32.9921   40.8571 H   0  0  0  0  0  0  0  0  0  0  0  0
   46.0291   34.4155   40.6402 H   0  0  0  0  0  0  0  0  0  0  0  0
  1  6  2  0
  2  3  2  0
  2  1  1  0
  3  4  1  0
  4  5  2  0
  5  8  1  0
  6  5  1  0
  7  1  1  0
  8  9  1  0
  8 13  1  0
  9 10  1  0
 10 11  1  0
 11 12  1  0
 13 12  1  0
 14  2  1  0
 15 14  1  0
 16 15  1  0
 17 16  1  0
 17 18  1  0
 18 14  1  0
  3 19  1  0
  7 20  1  0
  7 21  1  0
  9 22  1  0
  9 23  1  0
 10 24  1  0
 10 25  1  0
 11 26  1  0
 11 27  1  0
 12 28  1  0
 12 29  1  0
 13 30  1  0
 13 31  1  0
 14 32  1  0
 15 33  1  0
 15 34  1  0
 16 35  1  0
 16 36  1  0
 17 37  1  0
 17 38  1  0
 18 39  1  0
 18 40  1  0
M  ISO  8  19  14  22  13  23  13  24  13  25  13  26  13  27  13  28  13
M  ISO  8  29  13  30  13  31  13  32  13  33  13  34  13  35  13  36  13
M  ISO  4  37  13  38  13  39  13  40  13
M  END
>  <minimizedAffinity>  (1) 
-5.21215248

>  <minimizedRMSD>  (1) 
0.772497654

$$$$
