
     RDKit          3D

 32 34  0  0  0  0  0  0  0  0999 V2000
   44.8250   35.0630   43.8820 C   0  0  0  0  0  0  0  0  0  0  0  0
   44.4160   34.2450   42.8420 C   0  0  0  0  0  0  0  0  0  0  0  0
   44.6830   32.8310   42.8450 C   0  0  0  0  0  0  0  0  0  0  0  0
   45.3600   32.3380   43.9160 N   0  0  0  0  0  0  0  0  0  0  0  0
   45.7630   33.1540   44.9380 C   0  0  0  0  0  0  0  0  0  0  0  0
   45.5020   34.5120   44.9310 N   0  0  0  0  0  0  0  0  0  0  0  0
   44.5150   36.4400   43.8770 N   0  0  0  0  0  0  0  0  0  0  0  0
   43.8150   34.8920   41.6760 C   0  0  0  0  0  0  0  0  0  0  0  0
   42.2330   34.7980   41.7570 C   0  0  0  0  0  0  0  0  0  0  0  0
   41.9640   35.5310   40.4100 C   0  0  0  0  0  0  0  0  0  0  0  0
   42.9350   34.8530   39.5070 C   0  0  0  0  0  0  0  0  0  0  0  0
   44.1190   34.4310   40.3810 C   0  0  0  0  0  0  0  0  0  0  0  0
   46.4910   32.6140   46.0820 C   0  0  0  0  0  0  0  0  0  0  0  0
   46.8090   31.2820   46.2460 C   0  0  0  0  0  0  0  0  0  0  0  0
   47.4670   31.1830   47.4010 N   0  0  0  0  0  0  0  0  0  0  0  0
   47.5600   32.4250   47.9470 C   0  0  0  0  0  0  0  0  0  0  0  0
   46.9660   33.2930   47.1430 N   0  0  0  0  0  0  0  0  0  0  0  0
   44.3552   32.1805   42.0207 H   0  0  0  0  0  0  0  0  0  0  0  0
   44.0038   36.8499   43.0823 H   0  0  0  0  0  0  0  0  0  0  0  0
   44.8000   37.0349   44.6680 H   0  0  0  0  0  0  0  0  0  0  0  0
   44.2620   35.8933   41.7625 H   0  0  0  0  0  0  0  0  0  0  0  0
   41.8674   33.7605   41.7578 H   0  0  0  0  0  0  0  0  0  0  0  0
   41.7492   35.2044   42.6575 H   0  0  0  0  0  0  0  0  0  0  0  0
   40.9281   35.3825   40.0711 H   0  0  0  0  0  0  0  0  0  0  0  0
   42.0844   36.6232   40.4607 H   0  0  0  0  0  0  0  0  0  0  0  0
   43.2706   35.5455   38.7210 H   0  0  0  0  0  0  0  0  0  0  0  0
   42.4774   33.9846   39.0105 H   0  0  0  0  0  0  0  0  0  0  0  0
   44.2276   33.3364   40.3784 H   0  0  0  0  0  0  0  0  0  0  0  0
   45.0674   34.8485   40.0119 H   0  0  0  0  0  0  0  0  0  0  0  0
   46.5664   30.4599   45.5566 H   0  0  0  0  0  0  0  0  0  0  0  0
   48.0493   32.6688   48.9016 H   0  0  0  0  0  0  0  0  0  0  0  0
   46.8822   34.3073   47.3011 H   0  0  0  0  0  0  0  0  0  0  0  0
  1  6  2  0
  2  3  2  0
  2  1  1  0
  3  4  1  0
  4  5  2  0
  5 13  1  0
  6  5  1  0
  7  1  1  0
  8  9  1  0
  8  2  1  0
 10  9  1  0
 11 12  1  0
 11 10  1  0
 12  8  1  0
 13 14  2  0
 13 17  1  0
 14 15  1  0
 15 16  2  0
 17 16  1  0
  3 18  1  0
  7 19  1  0
  7 20  1  0
  8 21  1  0
  9 22  1  0
  9 23  1  0
 10 24  1  0
 10 25  1  0
 11 26  1  0
 11 27  1  0
 12 28  1  0
 12 29  1  0
 14 30  1  0
 16 31  1  0
 17 32  1  0
M  ISO  8  18  14  21  13  22  13  23  13  24  13  25  13  26  13  27  13
M  ISO  5  28  13  29  13  30  14  31  14  32   9
M  END
>  <minimizedAffinity>  (1) 
-5.13208723

>  <minimizedRMSD>  (1) 
0.711412728

$$$$
