
     RDKit          3D

 32 34  0  0  0  0  0  0  0  0999 V2000
   44.9060   35.0040   44.2410 C   0  0  0  0  0  0  0  0  0  0  0  0
   44.7740   34.1210   43.1790 C   0  0  0  0  0  0  0  0  0  0  0  0
   45.1060   32.7220   43.3290 C   0  0  0  0  0  0  0  0  0  0  0  0
   45.5530   32.3120   44.5430 N   0  0  0  0  0  0  0  0  0  0  0  0
   45.6810   33.2020   45.5830 C   0  0  0  0  0  0  0  0  0  0  0  0
   45.3620   34.5410   45.4440 N   0  0  0  0  0  0  0  0  0  0  0  0
   44.5490   36.3590   44.0890 N   0  0  0  0  0  0  0  0  0  0  0  0
   44.3960   34.6770   41.8860 C   0  0  0  0  0  0  0  0  0  0  0  0
   42.8210   34.6370   41.7100 C   0  0  0  0  0  0  0  0  0  0  0  0
   42.8040   35.2310   40.2750 C   0  0  0  0  0  0  0  0  0  0  0  0
   43.8800   34.4470   39.6090 C   0  0  0  0  0  0  0  0  0  0  0  0
   44.8890   34.0920   40.7040 C   0  0  0  0  0  0  0  0  0  0  0  0
   46.1690   32.7060   46.8660 C   0  0  0  0  0  0  0  0  0  0  0  0
   47.3790   32.2170   47.3600 C   0  0  0  0  0  0  0  0  0  0  0  0
   47.1420   31.9170   48.6950 C   0  0  0  0  0  0  0  0  0  0  0  0
   45.8180   32.2300   48.9570 C   0  0  0  0  0  0  0  0  0  0  0  0
   45.2820   32.6940   47.8450 O   0  0  0  0  0  0  0  0  0  0  0  0
   45.0004   32.0169   42.4913 H   0  0  0  0  0  0  0  0  0  0  0  0
   44.2061   36.7024   43.1805 H   0  0  0  0  0  0  0  0  0  0  0  0
   44.6310   37.0058   44.8864 H   0  0  0  0  0  0  0  0  0  0  0  0
   44.8603   35.6713   41.9625 H   0  0  0  0  0  0  0  0  0  0  0  0
   42.4143   33.6158   41.7523 H   0  0  0  0  0  0  0  0  0  0  0  0
   42.2172   35.1500   42.4731 H   0  0  0  0  0  0  0  0  0  0  0  0
   41.8313   35.0714   39.7868 H   0  0  0  0  0  0  0  0  0  0  0  0
   42.9594   36.3194   40.2412 H   0  0  0  0  0  0  0  0  0  0  0  0
   43.4643   33.5318   39.1621 H   0  0  0  0  0  0  0  0  0  0  0  0
   44.3527   35.0221   38.7992 H   0  0  0  0  0  0  0  0  0  0  0  0
   44.9614   33.0004   40.8185 H   0  0  0  0  0  0  0  0  0  0  0  0
   45.8964   34.4604   40.4603 H   0  0  0  0  0  0  0  0  0  0  0  0
   48.3225   32.0948   46.8078 H   0  0  0  0  0  0  0  0  0  0  0  0
   47.8697   31.5073   49.4109 H   0  0  0  0  0  0  0  0  0  0  0  0
   45.3043   32.1122   49.9225 H   0  0  0  0  0  0  0  0  0  0  0  0
  1  6  2  0
  2  3  2  0
  2  1  1  0
  3  4  1  0
  4  5  2  0
  5 13  1  0
  6  5  1  0
  7  1  1  0
  8  2  1  0
  9  8  1  0
 10  9  1  0
 11 10  1  0
 11 12  1  0
 12  8  1  0
 13 14  2  0
 13 17  1  0
 14 15  1  0
 15 16  2  0
 17 16  1  0
  3 18  1  0
  7 19  1  0
  7 20  1  0
  8 21  1  0
  9 22  1  0
  9 23  1  0
 10 24  1  0
 10 25  1  0
 11 26  1  0
 11 27  1  0
 12 28  1  0
 12 29  1  0
 14 30  1  0
 15 31  1  0
 16 32  1  0
M  ISO  8  18  14  21  13  22  13  23  13  24  13  25  13  26  13  27  13
M  ISO  5  28  13  29  13  30  14  31  14  32  14
M  END
>  <minimizedAffinity>  (1) 
-5.02522326

>  <minimizedRMSD>  (1) 
0.571375728

$$$$
