
     RDKit          3D

 30 32  0  0  0  0  0  0  0  0999 V2000
   44.8880   35.0620   44.2080 C   0  0  0  0  0  0  0  0  0  0  0  0
   44.7640   34.1510   43.1690 C   0  0  0  0  0  0  0  0  0  0  0  0
   45.1040   32.7570   43.3510 C   0  0  0  0  0  0  0  0  0  0  0  0
   45.5510   32.3890   44.5820 N   0  0  0  0  0  0  0  0  0  0  0  0
   45.6730   33.2930   45.5970 C   0  0  0  0  0  0  0  0  0  0  0  0
   45.3460   34.6260   45.4280 N   0  0  0  0  0  0  0  0  0  0  0  0
   44.5290   36.4090   44.0270 N   0  0  0  0  0  0  0  0  0  0  0  0
   44.3910   34.6760   41.8610 C   0  0  0  0  0  0  0  0  0  0  0  0
   42.8150   34.6360   41.6840 C   0  0  0  0  0  0  0  0  0  0  0  0
   42.8070   35.2170   40.2390 C   0  0  0  0  0  0  0  0  0  0  0  0
   43.8990   34.4290   39.5880 C   0  0  0  0  0  0  0  0  0  0  0  0
   44.8760   34.0490   40.7000 C   0  0  0  0  0  0  0  0  0  0  0  0
   46.1620   32.8140   46.8870 C   0  0  0  0  0  0  0  0  0  0  0  0
   47.3470   32.4690   47.4240 N   0  0  0  0  0  0  0  0  0  0  0  0
   47.1720   32.1050   48.6600 O   0  0  0  0  0  0  0  0  0  0  0  0
   45.8980   32.1970   48.9700 C   0  0  0  0  0  0  0  0  0  0  0  0
   45.2370   32.6400   47.8730 N   0  0  0  0  0  0  0  0  0  0  0  0
   45.0058   32.0287   42.5325 H   0  0  0  0  0  0  0  0  0  0  0  0
   44.1861   36.7320   43.1110 H   0  0  0  0  0  0  0  0  0  0  0  0
   44.6088   37.0730   44.8104 H   0  0  0  0  0  0  0  0  0  0  0  0
   44.8603   35.6697   41.9092 H   0  0  0  0  0  0  0  0  0  0  0  0
   42.4061   33.6161   41.7356 H   0  0  0  0  0  0  0  0  0  0  0  0
   42.2088   35.1560   42.4404 H   0  0  0  0  0  0  0  0  0  0  0  0
   41.8397   35.0464   39.7438 H   0  0  0  0  0  0  0  0  0  0  0  0
   42.9558   36.3060   40.1953 H   0  0  0  0  0  0  0  0  0  0  0  0
   43.4870   33.5241   39.1174 H   0  0  0  0  0  0  0  0  0  0  0  0
   44.3977   35.0126   38.8001 H   0  0  0  0  0  0  0  0  0  0  0  0
   44.8990   32.9575   40.8343 H   0  0  0  0  0  0  0  0  0  0  0  0
   45.9028   34.3662   40.4652 H   0  0  0  0  0  0  0  0  0  0  0  0
   45.4488   31.9574   49.9451 H   0  0  0  0  0  0  0  0  0  0  0  0
  1  6  2  0
  2  3  2  0
  2  1  1  0
  3  4  1  0
  4  5  2  0
  5 13  1  0
  6  5  1  0
  7  1  1  0
  8  2  1  0
  9  8  1  0
 10  9  1  0
 11 10  1  0
 11 12  1  0
 12  8  1  0
 13 14  2  0
 13 17  1  0
 14 15  1  0
 15 16  1  0
 17 16  2  0
  3 18  1  0
  7 19  1  0
  7 20  1  0
  8 21  1  0
  9 22  1  0
  9 23  1  0
 10 24  1  0
 10 25  1  0
 11 26  1  0
 11 27  1  0
 12 28  1  0
 12 29  1  0
 16 30  1  0
M  ISO  8  18  14  21  13  22  13  23  13  24  13  25  13  26  13  27  13
M  ISO  3  28  13  29  13  30  14
M  END
>  <minimizedAffinity>  (1) 
-4.98046017

>  <minimizedRMSD>  (1) 
0.520689011

$$$$
