
     RDKit          3D

 37 39  0  0  0  0  0  0  0  0999 V2000
   44.8890   34.8800   44.3210 C   0  0  0  0  0  0  0  0  0  0  0  0
   44.8450   34.0130   43.2370 C   0  0  0  0  0  0  0  0  0  0  0  0
   45.2140   32.6210   43.3700 C   0  0  0  0  0  0  0  0  0  0  0  0
   45.6050   32.2110   44.5990 N   0  0  0  0  0  0  0  0  0  0  0  0
   45.6500   33.0700   45.6680 C   0  0  0  0  0  0  0  0  0  0  0  0
   45.2950   34.3920   45.5320 N   0  0  0  0  0  0  0  0  0  0  0  0
   44.5120   36.2270   44.1840 N   0  0  0  0  0  0  0  0  0  0  0  0
   46.0630   32.6380   46.9590 N   0  0  0  0  0  0  0  0  0  0  0  0
   45.3070   32.6650   48.1960 C   0  0  0  0  0  0  0  0  0  0  0  0
   45.9430   31.6510   49.0840 C   0  0  0  0  0  0  0  0  0  0  0  0
   47.3990   31.7400   48.6850 C   0  0  0  0  0  0  0  0  0  0  0  0
   47.3910   32.0720   47.2270 C   0  0  0  0  0  0  0  0  0  0  0  0
   44.5230   34.5960   41.9380 C   0  0  0  0  0  0  0  0  0  0  0  0
   42.9570   34.5390   41.6890 C   0  0  0  0  0  0  0  0  0  0  0  0
   43.0030   35.1720   40.2670 C   0  0  0  0  0  0  0  0  0  0  0  0
   44.1150   34.3880   39.6340 C   0  0  0  0  0  0  0  0  0  0  0  0
   45.0780   34.0380   40.7720 C   0  0  0  0  0  0  0  0  0  0  0  0
   45.1786   31.9300   42.5149 H   0  0  0  0  0  0  0  0  0  0  0  0
   44.2075   36.5859   43.2679 H   0  0  0  0  0  0  0  0  0  0  0  0
   44.5402   36.8552   44.9997 H   0  0  0  0  0  0  0  0  0  0  0  0
   45.3599   33.6631   48.6553 H   0  0  0  0  0  0  0  0  0  0  0  0
   44.2434   32.4425   48.0249 H   0  0  0  0  0  0  0  0  0  0  0  0
   45.8043   31.9076   50.1446 H   0  0  0  0  0  0  0  0  0  0  0  0
   45.5177   30.6423   48.9755 H   0  0  0  0  0  0  0  0  0  0  0  0
   47.9073   32.5302   49.2570 H   0  0  0  0  0  0  0  0  0  0  0  0
   47.9372   30.8024   48.8884 H   0  0  0  0  0  0  0  0  0  0  0  0
   47.5504   31.1649   46.6256 H   0  0  0  0  0  0  0  0  0  0  0  0
   48.1944   32.7763   46.9652 H   0  0  0  0  0  0  0  0  0  0  0  0
   44.9694   35.5947   42.0532 H   0  0  0  0  0  0  0  0  0  0  0  0
   42.5631   33.5119   41.6857 H   0  0  0  0  0  0  0  0  0  0  0  0
   42.3095   35.0221   42.4356 H   0  0  0  0  0  0  0  0  0  0  0  0
   42.0531   35.0287   39.7312 H   0  0  0  0  0  0  0  0  0  0  0  0
   43.1593   36.2608   40.2627 H   0  0  0  0  0  0  0  0  0  0  0  0
   43.7217   33.4718   39.1694 H   0  0  0  0  0  0  0  0  0  0  0  0
   44.6162   34.9632   38.8416 H   0  0  0  0  0  0  0  0  0  0  0  0
   45.1659   32.9464   40.8756 H   0  0  0  0  0  0  0  0  0  0  0  0
   46.0873   34.4307   40.5795 H   0  0  0  0  0  0  0  0  0  0  0  0
  1  6  2  0
  2  3  2  0
  2  1  1  0
  3  4  1  0
  4  5  2  0
  5  8  1  0
  6  5  1  0
  7  1  1  0
  8 12  1  0
  8  9  1  0
  9 10  1  0
 11 10  1  0
 12 11  1  0
 13  2  1  0
 14 13  1  0
 15 14  1  0
 16 15  1  0
 16 17  1  0
 17 13  1  0
  3 18  1  0
  7 19  1  0
  7 20  1  0
  9 21  1  0
  9 22  1  0
 10 23  1  0
 10 24  1  0
 11 25  1  0
 11 26  1  0
 12 27  1  0
 12 28  1  0
 13 29  1  0
 14 30  1  0
 14 31  1  0
 15 32  1  0
 15 33  1  0
 16 34  1  0
 16 35  1  0
 17 36  1  0
 17 37  1  0
M  ISO  8  18  14  21  13  22  13  23  13  24  13  25  13  26  13  27  13
M  ISO  8  28  13  29  13  30  13  31  13  32  13  33  13  34  13  35  13
M  ISO  2  36  13  37  13
M  END
>  <minimizedAffinity>  (1) 
-5.05040979

>  <minimizedRMSD>  (1) 
0.687103629

$$$$
