
     RDKit          3D

 32 34  0  0  0  0  0  0  0  0999 V2000
   44.9000   34.9260   44.2870 C   0  0  0  0  0  0  0  0  0  0  0  0
   44.8090   34.0340   43.2310 C   0  0  0  0  0  0  0  0  0  0  0  0
   45.1400   32.6350   43.3890 C   0  0  0  0  0  0  0  0  0  0  0  0
   45.5520   32.2380   44.6290 N   0  0  0  0  0  0  0  0  0  0  0  0
   45.6430   33.1250   45.6590 C   0  0  0  0  0  0  0  0  0  0  0  0
   45.3220   34.4610   45.5040 N   0  0  0  0  0  0  0  0  0  0  0  0
   44.5420   36.2720   44.1190 N   0  0  0  0  0  0  0  0  0  0  0  0
   46.0790   32.6780   46.9390 N   0  0  0  0  0  0  0  0  0  0  0  0
   47.3430   32.3550   47.2710 C   0  0  0  0  0  0  0  0  0  0  0  0
   47.3100   31.9800   48.5960 C   0  0  0  0  0  0  0  0  0  0  0  0
   46.0480   32.0760   49.0520 N   0  0  0  0  0  0  0  0  0  0  0  0
   45.2820   32.5140   48.0110 C   0  0  0  0  0  0  0  0  0  0  0  0
   44.5100   34.5740   41.9160 C   0  0  0  0  0  0  0  0  0  0  0  0
   42.9510   34.5410   41.6500 C   0  0  0  0  0  0  0  0  0  0  0  0
   43.0300   35.1620   40.2200 C   0  0  0  0  0  0  0  0  0  0  0  0
   44.1400   34.3640   39.6120 C   0  0  0  0  0  0  0  0  0  0  0  0
   45.0680   33.9770   40.7680 C   0  0  0  0  0  0  0  0  0  0  0  0
   45.0637   31.9257   42.5517 H   0  0  0  0  0  0  0  0  0  0  0  0
   44.2261   36.6099   43.1987 H   0  0  0  0  0  0  0  0  0  0  0  0
   44.5951   36.9224   44.9160 H   0  0  0  0  0  0  0  0  0  0  0  0
   48.2257   32.3846   46.6153 H   0  0  0  0  0  0  0  0  0  0  0  0
   48.1781   31.6537   49.1876 H   0  0  0  0  0  0  0  0  0  0  0  0
   44.1985   32.7010   48.0427 H   0  0  0  0  0  0  0  0  0  0  0  0
   44.9763   35.5658   42.0103 H   0  0  0  0  0  0  0  0  0  0  0  0
   42.5392   33.5210   41.6504 H   0  0  0  0  0  0  0  0  0  0  0  0
   42.3013   35.0403   42.3839 H   0  0  0  0  0  0  0  0  0  0  0  0
   42.0877   35.0250   39.6693 H   0  0  0  0  0  0  0  0  0  0  0  0
   43.2002   36.2487   40.2106 H   0  0  0  0  0  0  0  0  0  0  0  0
   43.7398   33.4623   39.1255 H   0  0  0  0  0  0  0  0  0  0  0  0
   44.6750   34.9407   38.8431 H   0  0  0  0  0  0  0  0  0  0  0  0
   45.1039   32.8836   40.8824 H   0  0  0  0  0  0  0  0  0  0  0  0
   46.1000   34.3154   40.5932 H   0  0  0  0  0  0  0  0  0  0  0  0
  1  6  2  0
  2  3  2  0
  2  1  1  0
  3  4  1  0
  4  5  2  0
  5  8  1  0
  6  5  1  0
  7  1  1  0
  8  9  1  0
  8 12  1  0
  9 10  2  0
 10 11  1  0
 12 11  2  0
 13  2  1  0
 14 13  1  0
 15 14  1  0
 16 15  1  0
 16 17  1  0
 17 13  1  0
  3 18  1  0
  7 19  1  0
  7 20  1  0
  9 21  1  0
 10 22  1  0
 12 23  1  0
 13 24  1  0
 14 25  1  0
 14 26  1  0
 15 27  1  0
 15 28  1  0
 16 29  1  0
 16 30  1  0
 17 31  1  0
 17 32  1  0
M  ISO  8  18  14  21  14  22  14  23  14  24  13  25  13  26  13  27  13
M  ISO  5  28  13  29  13  30  13  31  13  32  13
M  END
>  <minimizedAffinity>  (1) 
-4.96809196

>  <minimizedRMSD>  (1) 
0.656902671

$$$$
