
     RDKit          3D

 32 34  0  0  0  0  0  0  0  0999 V2000
   42.1160   34.8320   41.6870 C   0  0  0  0  0  0  0  0  0  0  0  0
   41.5500   33.4490   41.1600 C   0  0  0  0  0  0  0  0  0  0  0  0
   40.0530   33.8790   41.1760 C   0  0  0  0  0  0  0  0  0  0  0  0
   40.1190   35.2240   40.5200 C   0  0  0  0  0  0  0  0  0  0  0  0
   41.4990   35.7930   40.8630 C   0  0  0  0  0  0  0  0  0  0  0  0
   44.1620   35.3440   42.8880 C   0  0  0  0  0  0  0  0  0  0  0  0
   43.5740   34.7820   41.7660 C   0  0  0  0  0  0  0  0  0  0  0  0
   44.3700   34.2710   40.6770 C   0  0  0  0  0  0  0  0  0  0  0  0
   45.7210   34.3690   40.7960 N   0  0  0  0  0  0  0  0  0  0  0  0
   46.2930   34.9310   41.9120 C   0  0  0  0  0  0  0  0  0  0  0  0
   45.5290   35.4150   42.9530 N   0  0  0  0  0  0  0  0  0  0  0  0
   43.3780   35.8260   43.9500 N   0  0  0  0  0  0  0  0  0  0  0  0
   47.7620   35.0610   42.0890 C   0  0  0  0  0  0  0  0  0  0  0  0
   48.5040   33.9290   42.7850 C   0  0  0  0  0  0  0  0  0  0  0  0
   48.6870   34.1740   41.3430 C   0  0  0  0  0  0  0  0  0  0  0  0
   41.8724   35.1020   42.7252 H   0  0  0  0  0  0  0  0  0  0  0  0
   41.7609   32.6137   41.8439 H   0  0  0  0  0  0  0  0  0  0  0  0
   41.9552   33.0661   40.2117 H   0  0  0  0  0  0  0  0  0  0  0  0
   39.4287   33.1811   40.5988 H   0  0  0  0  0  0  0  0  0  0  0  0
   39.6018   33.8920   42.1791 H   0  0  0  0  0  0  0  0  0  0  0  0
   39.3271   35.8795   40.9114 H   0  0  0  0  0  0  0  0  0  0  0  0
   39.9725   35.1497   39.4323 H   0  0  0  0  0  0  0  0  0  0  0  0
   42.0882   35.9473   39.9470 H   0  0  0  0  0  0  0  0  0  0  0  0
   41.4213   36.7681   41.3662 H   0  0  0  0  0  0  0  0  0  0  0  0
   43.9039   33.8211   39.7880 H   0  0  0  0  0  0  0  0  0  0  0  0
   42.3508   35.7712   43.8980 H   0  0  0  0  0  0  0  0  0  0  0  0
   43.8306   36.2341   44.7804 H   0  0  0  0  0  0  0  0  0  0  0  0
   47.6688   36.1498   42.2146 H   0  0  0  0  0  0  0  0  0  0  0  0
   49.3173   34.1539   43.4906 H   0  0  0  0  0  0  0  0  0  0  0  0
   48.2125   33.0652   43.4005 H   0  0  0  0  0  0  0  0  0  0  0  0
   48.2835   33.4566   40.6133 H   0  0  0  0  0  0  0  0  0  0  0  0
   49.5628   34.3470   40.7004 H   0  0  0  0  0  0  0  0  0  0  0  0
  1  7  1  0
  2  3  1  0
  2  1  1  0
  4  5  1  0
  4  3  1  0
  5  1  1  0
  6 11  2  0
  6 12  1  0
  7  6  1  0
  8  9  1  0
  8  7  2  0
  9 10  2  0
 10 13  1  0
 10 11  1  0
 13 14  1  0
 15 13  1  0
 15 14  1  0
  1 16  1  0
  2 17  1  0
  2 18  1  0
  3 19  1  0
  3 20  1  0
  4 21  1  0
  4 22  1  0
  5 23  1  0
  5 24  1  0
  8 25  1  0
 12 26  1  0
 12 27  1  0
 13 28  1  0
 14 29  1  0
 14 30  1  0
 15 31  1  0
 15 32  1  0
M  ISO  8  16  13  17  13  18  13  19  13  20  13  21  13  22  13  23  13
M  ISO  7  24  13  25  14  28  13  29  13  30  13  31  13  32  13
M  END
>  <minimizedAffinity>  (1) 
-5.07428074

>  <minimizedRMSD>  (1) 
3.6259172

$$$$
