
     RDKit          3D

 40 43  0  0  0  0  0  0  0  0999 V2000
   47.5520   34.7410   41.7090 C   0  0  0  0  0  0  0  0  0  0  0  0
   47.2850   34.2630   40.3180 C   0  0  0  0  0  0  0  0  0  0  0  0
   48.2200   34.3440   39.3060 C   0  0  0  0  0  0  0  0  0  0  0  0
   48.0660   33.9370   38.0180 C   0  0  0  0  0  0  0  0  0  0  0  0
   46.8470   33.3980   37.7370 N   0  0  0  0  0  0  0  0  0  0  0  0
   45.9050   33.3010   38.7020 C   0  0  0  0  0  0  0  0  0  0  0  0
   46.0740   33.7130   39.9840 N   0  0  0  0  0  0  0  0  0  0  0  0
   44.6330   32.7140   38.3180 C   0  0  0  0  0  0  0  0  0  0  0  0
   43.4340   33.3070   38.7260 C   0  0  0  0  0  0  0  0  0  0  0  0
   42.2340   32.7540   38.3670 C   0  0  0  0  0  0  0  0  0  0  0  0
   42.1890   31.6450   37.6240 N   0  0  0  0  0  0  0  0  0  0  0  0
   43.3540   31.0880   37.2410 C   0  0  0  0  0  0  0  0  0  0  0  0
   44.5720   31.6040   37.5750 N   0  0  0  0  0  0  0  0  0  0  0  0
   47.2260   33.6390   42.6480 C   0  0  0  0  0  0  0  0  0  0  0  0
   44.7200   35.3880   44.8310 C   0  0  0  0  0  0  0  0  0  0  0  0
   45.5330   35.0300   43.7390 C   0  0  0  0  0  0  0  0  0  0  0  0
   46.3950   33.9840   43.7940 C   0  0  0  0  0  0  0  0  0  0  0  0
   46.4490   33.2890   44.9380 N   0  0  0  0  0  0  0  0  0  0  0  0
   45.6580   33.6330   46.0030 C   0  0  0  0  0  0  0  0  0  0  0  0
   44.8230   34.6500   45.9490 N   0  0  0  0  0  0  0  0  0  0  0  0
   45.8850   32.7230   47.1680 C   0  0  0  0  0  0  0  0  0  0  0  0
   44.8850   31.9960   47.9510 C   0  0  0  0  0  0  0  0  0  0  0  0
   45.9930   31.1740   49.1250 S   0  0  0  0  0  0  0  0  0  0  0  0
   47.5780   31.9380   48.3700 C   0  0  0  0  0  0  0  0  0  0  0  0
   47.1720   32.6980   47.3650 N   0  0  0  0  0  0  0  0  0  0  0  0
   48.8420   31.5760   48.9860 N   0  0  0  0  0  0  0  0  0  0  0  0
   46.9232   35.6163   41.9292 H   0  0  0  0  0  0  0  0  0  0  0  0
   48.6077   35.0312   41.8152 H   0  0  0  0  0  0  0  0  0  0  0  0
   49.1929   34.7845   39.5695 H   0  0  0  0  0  0  0  0  0  0  0  0
   48.8611   34.0350   37.2642 H   0  0  0  0  0  0  0  0  0  0  0  0
   43.4550   34.2211   39.3376 H   0  0  0  0  0  0  0  0  0  0  0  0
   41.2969   33.2282   38.6940 H   0  0  0  0  0  0  0  0  0  0  0  0
   43.3219   30.1738   36.6300 H   0  0  0  0  0  0  0  0  0  0  0  0
   46.7009   32.8587   42.0776 H   0  0  0  0  0  0  0  0  0  0  0  0
   48.1907   33.3245   43.0729 H   0  0  0  0  0  0  0  0  0  0  0  0
   44.0266   36.2398   44.7712 H   0  0  0  0  0  0  0  0  0  0  0  0
   45.4672   35.6173   42.8113 H   0  0  0  0  0  0  0  0  0  0  0  0
   43.7898   31.9596   47.8554 H   0  0  0  0  0  0  0  0  0  0  0  0
   49.7235   31.9603   48.6170 H   0  0  0  0  0  0  0  0  0  0  0  0
   48.8572   30.9349   49.7920 H   0  0  0  0  0  0  0  0  0  0  0  0
  1 14  1  0
  2  1  1  0
  3  2  2  0
  4  3  1  0
  5  4  2  0
  5  6  1  0
  6  7  2  0
  7  2  1  0
  8  6  1  0
  8  9  2  0
 10  9  1  0
 11 10  2  0
 12 13  2  0
 12 11  1  0
 13  8  1  0
 14 17  1  0
 15 20  2  0
 16 17  2  0
 16 15  1  0
 17 18  1  0
 18 19  2  0
 19 21  1  0
 20 19  1  0
 21 25  1  0
 21 22  2  0
 22 23  1  0
 24 26  1  0
 24 23  1  0
 25 24  2  0
  1 27  1  0
  1 28  1  0
  3 29  1  0
  4 30  1  0
  9 31  1  0
 10 32  1  0
 12 33  1  0
 14 34  1  0
 14 35  1  0
 15 36  1  0
 16 37  1  0
 22 38  1  0
 26 39  1  0
 26 40  1  0
M  ISO  8  27   8  28   8  29  14  30  14  31  14  32  14  33  14  34   8
M  ISO  4  35   8  36  14  37  14  38  14
M  END
>  <minimizedAffinity>  (1) 
-5.94058466

>  <minimizedRMSD>  (1) 
0.0663451925

$$$$
