
     RDKit          3D

 27 28  0  0  0  0  0  0  0  0999 V2000
   43.8540   34.8460   41.3780 C   0  0  0  0  0  0  0  0  0  0  0  0
   42.2680   34.8350   41.5060 C   0  0  0  0  0  0  0  0  0  0  0  0
   41.9930   35.2720   40.0400 C   0  0  0  0  0  0  0  0  0  0  0  0
   42.9270   34.3840   39.2790 C   0  0  0  0  0  0  0  0  0  0  0  0
   44.0900   34.0780   40.2220 C   0  0  0  0  0  0  0  0  0  0  0  0
   44.9030   35.4510   43.4840 C   0  0  0  0  0  0  0  0  0  0  0  0
   44.4540   34.4410   42.6450 C   0  0  0  0  0  0  0  0  0  0  0  0
   44.6800   33.0440   42.9580 C   0  0  0  0  0  0  0  0  0  0  0  0
   45.3570   32.7900   44.1120 N   0  0  0  0  0  0  0  0  0  0  0  0
   45.7970   33.7910   44.9290 C   0  0  0  0  0  0  0  0  0  0  0  0
   45.5790   35.1000   44.6300 N   0  0  0  0  0  0  0  0  0  0  0  0
   44.6390   36.8040   43.1770 N   0  0  0  0  0  0  0  0  0  0  0  0
   46.5040   33.5100   46.1300 N   0  0  0  0  0  0  0  0  0  0  0  0
   44.3441   35.8194   41.2284 H   0  0  0  0  0  0  0  0  0  0  0  0
   41.8657   33.8374   41.7361 H   0  0  0  0  0  0  0  0  0  0  0  0
   41.8217   35.4433   42.3065 H   0  0  0  0  0  0  0  0  0  0  0  0
   40.9459   35.0894   39.7568 H   0  0  0  0  0  0  0  0  0  0  0  0
   42.1487   36.3455   39.8571 H   0  0  0  0  0  0  0  0  0  0  0  0
   42.4167   33.4537   38.9889 H   0  0  0  0  0  0  0  0  0  0  0  0
   43.2772   34.8689   38.3558 H   0  0  0  0  0  0  0  0  0  0  0  0
   44.1107   33.0067   40.4707 H   0  0  0  0  0  0  0  0  0  0  0  0
   45.0598   34.3212   39.7635 H   0  0  0  0  0  0  0  0  0  0  0  0
   44.3253   32.2358   42.3015 H   0  0  0  0  0  0  0  0  0  0  0  0
   44.1315   37.0468   42.3142 H   0  0  0  0  0  0  0  0  0  0  0  0
   44.9540   37.5480   43.8159 H   0  0  0  0  0  0  0  0  0  0  0  0
   46.8262   34.2822   46.7306 H   0  0  0  0  0  0  0  0  0  0  0  0
   46.6940   32.5342   46.3995 H   0  0  0  0  0  0  0  0  0  0  0  0
  1  2  1  0
  1  7  1  0
  3  2  1  0
  4  3  1  0
  4  5  1  0
  5  1  1  0
  6 11  2  0
  7  8  2  0
  7  6  1  0
  8  9  1  0
  9 10  2  0
 10 13  1  0
 11 10  1  0
 12  6  1  0
  1 14  1  0
  2 15  1  0
  2 16  1  0
  3 17  1  0
  3 18  1  0
  4 19  1  0
  4 20  1  0
  5 21  1  0
  5 22  1  0
  8 23  1  0
 12 24  1  0
 12 25  1  0
 13 26  1  0
 13 27  1  0
M  ISO  8  14  13  15  13  16  13  17  13  18  13  19  13  20  13  21  13
M  ISO  2  22  13  23  14
M  END
>  <minimizedAffinity>  (1) 
-4.25346231

>  <minimizedRMSD>  (1) 
0.452722788

$$$$
