
     RDKit          3D

 31 32  0  0  0  0  0  0  0  0999 V2000
   43.0470   35.3970   41.3390 C   0  0  0  0  0  0  0  0  0  0  0  0
   41.5520   35.2920   41.8620 C   0  0  0  0  0  0  0  0  0  0  0  0
   40.9070   36.0190   40.6530 C   0  0  0  0  0  0  0  0  0  0  0  0
   41.5780   35.3400   39.5060 C   0  0  0  0  0  0  0  0  0  0  0  0
   42.9840   34.9720   39.9990 C   0  0  0  0  0  0  0  0  0  0  0  0
   44.8030   35.4820   43.0390 C   0  0  0  0  0  0  0  0  0  0  0  0
   43.9380   34.7150   42.2740 C   0  0  0  0  0  0  0  0  0  0  0  0
   44.0170   33.2740   42.3160 C   0  0  0  0  0  0  0  0  0  0  0  0
   44.9650   32.7310   43.1220 N   0  0  0  0  0  0  0  0  0  0  0  0
   45.8070   33.5090   43.8620 C   0  0  0  0  0  0  0  0  0  0  0  0
   45.7320   34.8880   43.8270 N   0  0  0  0  0  0  0  0  0  0  0  0
   44.6610   36.9020   43.0260 N   0  0  0  0  0  0  0  0  0  0  0  0
   46.8510   32.9270   44.7480 C   0  0  0  0  0  0  0  0  0  0  0  0
   46.4810   33.0270   46.2140 C   0  0  0  0  0  0  0  0  0  0  0  0
   43.4991   36.3996   41.3181 H   0  0  0  0  0  0  0  0  0  0  0  0
   41.2096   34.2517   41.9646 H   0  0  0  0  0  0  0  0  0  0  0  0
   41.3404   35.6969   42.8627 H   0  0  0  0  0  0  0  0  0  0  0  0
   39.8177   35.8684   40.6279 H   0  0  0  0  0  0  0  0  0  0  0  0
   41.0356   37.1114   40.6654 H   0  0  0  0  0  0  0  0  0  0  0  0
   41.6407   36.0191   38.6429 H   0  0  0  0  0  0  0  0  0  0  0  0
   41.0188   34.4506   39.1799 H   0  0  0  0  0  0  0  0  0  0  0  0
   43.1395   33.8849   39.9348 H   0  0  0  0  0  0  0  0  0  0  0  0
   43.7639   35.4489   39.3872 H   0  0  0  0  0  0  0  0  0  0  0  0
   43.3392   32.6440   41.7213 H   0  0  0  0  0  0  0  0  0  0  0  0
   43.9517   37.3431   42.4234 H   0  0  0  0  0  0  0  0  0  0  0  0
   45.2678   37.4857   43.6193 H   0  0  0  0  0  0  0  0  0  0  0  0
   46.9846   31.8665   44.4883 H   0  0  0  0  0  0  0  0  0  0  0  0
   47.7789   33.4976   44.5951 H   0  0  0  0  0  0  0  0  0  0  0  0
   47.3601   32.7894   46.8311 H   0  0  0  0  0  0  0  0  0  0  0  0
   46.1415   34.0491   46.4376 H   0  0  0  0  0  0  0  0  0  0  0  0
   45.6728   32.3151   46.4376 H   0  0  0  0  0  0  0  0  0  0  0  0
  1  2  1  0
  1  7  1  0
  3  2  1  0
  4  5  1  0
  4  3  1  0
  5  1  1  0
  6 11  2  0
  7  8  2  0
  7  6  1  0
  8  9  1  0
  9 10  2  0
 10 13  1  0
 11 10  1  0
 12  6  1  0
 13 14  1  0
  1 15  1  0
  2 16  1  0
  2 17  1  0
  3 18  1  0
  3 19  1  0
  4 20  1  0
  4 21  1  0
  5 22  1  0
  5 23  1  0
  8 24  1  0
 12 25  1  0
 12 26  1  0
 13 27  1  0
 13 28  1  0
 14 29  1  0
 14 30  1  0
 14 31  1  0
M  ISO  8  15  13  16  13  17  13  18  13  19  13  20  13  21  13  22  13
M  ISO  7  23  13  24  14  27   8  28   8  29   8  30   8  31   8
M  END
>  <minimizedAffinity>  (1) 
-4.42574835

>  <minimizedRMSD>  (1) 
1.46126986

$$$$
