
     RDKit          3D

 42 45  0  0  0  0  0  0  0  0999 V2000
   44.5220   35.2410   42.4540 C   0  0  0  0  0  0  0  0  0  0  0  0
   43.5940   34.6430   41.6310 C   0  0  0  0  0  0  0  0  0  0  0  0
   43.6750   33.2320   41.3860 C   0  0  0  0  0  0  0  0  0  0  0  0
   44.6820   32.5350   41.9850 N   0  0  0  0  0  0  0  0  0  0  0  0
   45.5780   33.1610   42.7870 C   0  0  0  0  0  0  0  0  0  0  0  0
   45.5110   34.5100   43.0300 N   0  0  0  0  0  0  0  0  0  0  0  0
   44.4100   36.6420   42.6880 N   0  0  0  0  0  0  0  0  0  0  0  0
   42.5730   35.4460   40.9870 C   0  0  0  0  0  0  0  0  0  0  0  0
   41.1880   35.3330   41.7270 C   0  0  0  0  0  0  0  0  0  0  0  0
   40.3900   36.2050   40.7360 C   0  0  0  0  0  0  0  0  0  0  0  0
   40.8520   35.7130   39.4150 C   0  0  0  0  0  0  0  0  0  0  0  0
   42.2700   35.1790   39.6260 C   0  0  0  0  0  0  0  0  0  0  0  0
   46.6840   32.4010   43.4270 C   0  0  0  0  0  0  0  0  0  0  0  0
   46.8330   32.7040   44.8910 C   0  0  0  0  0  0  0  0  0  0  0  0
   46.2420   31.5590   45.6020 N   0  0  0  0  0  0  0  0  0  0  0  0
   45.8740   30.3690   45.0420 C   0  0  0  0  0  0  0  0  0  0  0  0
   45.3730   29.5930   46.0470 N   0  0  0  0  0  0  0  0  0  0  0  0
   45.4390   30.2970   47.1730 C   0  0  0  0  0  0  0  0  0  0  0  0
   45.1000   30.0820   48.5030 C   0  0  0  0  0  0  0  0  0  0  0  0
   45.3040   31.0300   49.4110 N   0  0  0  0  0  0  0  0  0  0  0  0
   45.8370   32.2320   49.1320 C   0  0  0  0  0  0  0  0  0  0  0  0
   46.1820   32.4860   47.8560 N   0  0  0  0  0  0  0  0  0  0  0  0
   45.9800   31.5350   46.9230 C   0  0  0  0  0  0  0  0  0  0  0  0
   42.9465   32.7274   40.7343 H   0  0  0  0  0  0  0  0  0  0  0  0
   43.6530   37.1797   42.2422 H   0  0  0  0  0  0  0  0  0  0  0  0
   45.0860   37.1171   43.3030 H   0  0  0  0  0  0  0  0  0  0  0  0
   43.0468   36.4373   41.0412 H   0  0  0  0  0  0  0  0  0  0  0  0
   40.8168   34.2986   41.7742 H   0  0  0  0  0  0  0  0  0  0  0  0
   41.1634   35.6330   42.7850 H   0  0  0  0  0  0  0  0  0  0  0  0
   39.3074   36.0532   40.8583 H   0  0  0  0  0  0  0  0  0  0  0  0
   40.5519   37.2836   40.8787 H   0  0  0  0  0  0  0  0  0  0  0  0
   40.8597   36.5350   38.6841 H   0  0  0  0  0  0  0  0  0  0  0  0
   40.1847   34.9304   39.0248 H   0  0  0  0  0  0  0  0  0  0  0  0
   42.3078   34.0976   39.4280 H   0  0  0  0  0  0  0  0  0  0  0  0
   42.9920   35.6531   38.9448 H   0  0  0  0  0  0  0  0  0  0  0  0
   46.4842   31.3256   43.3100 H   0  0  0  0  0  0  0  0  0  0  0  0
   47.6194   32.7007   42.9317 H   0  0  0  0  0  0  0  0  0  0  0  0
   47.8959   32.8102   45.1535 H   0  0  0  0  0  0  0  0  0  0  0  0
   46.3357   33.6474   45.1609 H   0  0  0  0  0  0  0  0  0  0  0  0
   45.9642   30.0890   43.9821 H   0  0  0  0  0  0  0  0  0  0  0  0
   44.6598   29.1206   48.8062 H   0  0  0  0  0  0  0  0  0  0  0  0
   45.9864   32.9838   49.9210 H   0  0  0  0  0  0  0  0  0  0  0  0
  1  7  1  0
  1  6  2  0
  2  1  1  0
  3  2  2  0
  3  4  1  0
  4  5  2  0
  5  6  1  0
  5 13  1  0
  8  2  1  0
  8  9  1  0
 10  9  1  0
 11 12  1  0
 11 10  1  0
 12  8  1  0
 13 14  1  0
 14 15  1  0
 15 23  1  0
 16 15  1  0
 16 17  2  0
 17 18  1  0
 18 19  2  0
 19 20  1  0
 21 20  2  0
 22 21  1  0
 23 18  1  0
 23 22  2  0
  3 24  1  0
  7 25  1  0
  7 26  1  0
  8 27  1  0
  9 28  1  0
  9 29  1  0
 10 30  1  0
 10 31  1  0
 11 32  1  0
 11 33  1  0
 12 34  1  0
 12 35  1  0
 13 36  1  0
 13 37  1  0
 14 38  1  0
 14 39  1  0
 16 40  1  0
 19 41  1  0
 21 42  1  0
M  ISO  8  24  14  27  13  28  13  29  13  30  13  31  13  32  13  33  13
M  ISO  8  34  13  35  13  36   8  37   8  38   8  39   8  40  14  41  14
M  ISO  1  42  14
M  END
>  <minimizedAffinity>  (1) 
-5.91038752

>  <minimizedRMSD>  (1) 
2.09456491

$$$$
