
     RDKit          3D

 41 43  0  0  0  0  0  0  0  0999 V2000
   44.7160   35.4000   43.0740 C   0  0  0  0  0  0  0  0  0  0  0  0
   43.8870   34.6840   42.2450 C   0  0  0  0  0  0  0  0  0  0  0  0
   43.9380   33.2470   42.2800 C   0  0  0  0  0  0  0  0  0  0  0  0
   44.8210   32.6650   43.1450 N   0  0  0  0  0  0  0  0  0  0  0  0
   45.6240   33.4180   43.9460 C   0  0  0  0  0  0  0  0  0  0  0  0
   45.5760   34.7890   43.9160 N   0  0  0  0  0  0  0  0  0  0  0  0
   44.6260   36.8340   43.0260 N   0  0  0  0  0  0  0  0  0  0  0  0
   43.0030   35.3620   41.3120 C   0  0  0  0  0  0  0  0  0  0  0  0
   41.5020   35.3060   41.7810 C   0  0  0  0  0  0  0  0  0  0  0  0
   40.9230   36.0470   40.5460 C   0  0  0  0  0  0  0  0  0  0  0  0
   41.6060   35.3270   39.4210 C   0  0  0  0  0  0  0  0  0  0  0  0
   42.9850   34.9380   39.9640 C   0  0  0  0  0  0  0  0  0  0  0  0
   46.5950   32.7860   44.8730 C   0  0  0  0  0  0  0  0  0  0  0  0
   46.4020   33.2380   46.3000 C   0  0  0  0  0  0  0  0  0  0  0  0
   45.9420   32.1070   47.1670 C   0  0  0  0  0  0  0  0  0  0  0  0
   45.7190   30.8330   46.6990 C   0  0  0  0  0  0  0  0  0  0  0  0
   45.2980   29.8700   47.5830 C   0  0  0  0  0  0  0  0  0  0  0  0
   45.0920   30.1410   48.9180 C   0  0  0  0  0  0  0  0  0  0  0  0
   45.3080   31.4220   49.4280 C   0  0  0  0  0  0  0  0  0  0  0  0
   45.7310   32.3660   48.5170 C   0  0  0  0  0  0  0  0  0  0  0  0
   43.2891   32.6382   41.6333 H   0  0  0  0  0  0  0  0  0  0  0  0
   43.9653   37.2872   42.3787 H   0  0  0  0  0  0  0  0  0  0  0  0
   45.2222   37.4082   43.6389 H   0  0  0  0  0  0  0  0  0  0  0  0
   43.4515   36.3663   41.3292 H   0  0  0  0  0  0  0  0  0  0  0  0
   41.1239   34.2774   41.8761 H   0  0  0  0  0  0  0  0  0  0  0  0
   41.2686   35.7215   42.7724 H   0  0  0  0  0  0  0  0  0  0  0  0
   39.8299   35.9388   40.4880 H   0  0  0  0  0  0  0  0  0  0  0  0
   41.0933   37.1337   40.5533 H   0  0  0  0  0  0  0  0  0  0  0  0
   41.7088   35.9876   38.5475 H   0  0  0  0  0  0  0  0  0  0  0  0
   41.0335   34.4476   39.0910 H   0  0  0  0  0  0  0  0  0  0  0  0
   43.1270   33.8489   39.9033 H   0  0  0  0  0  0  0  0  0  0  0  0
   43.7945   35.4038   39.3828 H   0  0  0  0  0  0  0  0  0  0  0  0
   46.4684   31.6943   44.8275 H   0  0  0  0  0  0  0  0  0  0  0  0
   47.6053   33.0867   44.5584 H   0  0  0  0  0  0  0  0  0  0  0  0
   47.3573   33.6219   46.6874 H   0  0  0  0  0  0  0  0  0  0  0  0
   45.6336   34.0249   46.3160 H   0  0  0  0  0  0  0  0  0  0  0  0
   45.8748   30.5902   45.6375 H   0  0  0  0  0  0  0  0  0  0  0  0
   45.1195   28.8495   47.2133 H   0  0  0  0  0  0  0  0  0  0  0  0
   44.7534   29.3384   49.5897 H   0  0  0  0  0  0  0  0  0  0  0  0
   45.1507   31.6630   50.4897 H   0  0  0  0  0  0  0  0  0  0  0  0
   45.9131   33.3881   48.8805 H   0  0  0  0  0  0  0  0  0  0  0  0
  1  6  2  0
  2  3  2  0
  2  1  1  0
  3  4  1  0
  4  5  2  0
  5 13  1  0
  6  5  1  0
  7  1  1  0
  8  9  1  0
  8  2  1  0
 10  9  1  0
 11 12  1  0
 11 10  1  0
 12  8  1  0
 13 14  1  0
 14 15  1  0
 15 20  1  0
 16 15  2  0
 16 17  1  0
 17 18  2  0
 18 19  1  0
 20 19  2  0
  3 21  1  0
  7 22  1  0
  7 23  1  0
  8 24  1  0
  9 25  1  0
  9 26  1  0
 10 27  1  0
 10 28  1  0
 11 29  1  0
 11 30  1  0
 12 31  1  0
 12 32  1  0
 13 33  1  0
 13 34  1  0
 14 35  1  0
 14 36  1  0
 16 37  1  0
 17 38  1  0
 18 39  1  0
 19 40  1  0
 20 41  1  0
M  ISO  8  21  14  24  13  25  13  26  13  27  13  28  13  29  13  30  13
M  ISO  8  31  13  32  13  33   8  34   8  35   8  36   8  37  14  38  14
M  ISO  3  39  14  40  14  41  14
M  END
>  <minimizedAffinity>  (1) 
-6.07053614

>  <minimizedRMSD>  (1) 
1.25139737

$$$$
