
     RDKit          3D

 51 55  0  0  0  0  0  0  0  0999 V2000
   48.4160   32.2990   43.0920 C   0  0  0  0  0  0  0  0  0  0  0  0
   45.6370   34.0870   44.8750 C   0  0  0  0  0  0  0  0  0  0  0  0
   46.8440   33.4220   44.5930 C   0  0  0  0  0  0  0  0  0  0  0  0
   47.1570   32.9880   43.3460 C   0  0  0  0  0  0  0  0  0  0  0  0
   46.2640   33.2140   42.3600 N   0  0  0  0  0  0  0  0  0  0  0  0
   45.0900   33.8660   42.6510 C   0  0  0  0  0  0  0  0  0  0  0  0
   44.7860   34.2840   43.8510 N   0  0  0  0  0  0  0  0  0  0  0  0
   44.2530   34.0050   41.4180 C   0  0  0  0  0  0  0  0  0  0  0  0
   44.5840   33.6070   40.0440 C   0  0  0  0  0  0  0  0  0  0  0  0
   43.0640   34.1300   39.2230 S   0  0  0  0  0  0  0  0  0  0  0  0
   42.2580   34.7790   40.8230 C   0  0  0  0  0  0  0  0  0  0  0  0
   43.1350   34.5680   41.7940 N   0  0  0  0  0  0  0  0  0  0  0  0
   40.8600   35.3990   40.8290 C   0  0  0  0  0  0  0  0  0  0  0  0
   40.3400   35.4430   39.4170 C   0  0  0  0  0  0  0  0  0  0  0  0
   39.1150   34.5500   39.3930 C   0  0  0  0  0  0  0  0  0  0  0  0
   39.2490   33.6560   40.6130 C   0  0  0  0  0  0  0  0  0  0  0  0
   40.0220   34.4580   41.6240 C   0  0  0  0  0  0  0  0  0  0  0  0
   49.5270   33.1150   42.5460 C   0  0  0  0  0  0  0  0  0  0  0  0
   49.9150   32.5500   41.2210 C   0  0  0  0  0  0  0  0  0  0  0  0
   51.1150   31.9100   40.9990 C   0  0  0  0  0  0  0  0  0  0  0  0
   51.5520   31.3660   39.8310 C   0  0  0  0  0  0  0  0  0  0  0  0
   50.6790   31.4900   38.7960 N   0  0  0  0  0  0  0  0  0  0  0  0
   49.4910   32.1100   38.9680 C   0  0  0  0  0  0  0  0  0  0  0  0
   49.0770   32.6440   40.1360 N   0  0  0  0  0  0  0  0  0  0  0  0
   48.6220   32.1960   37.8070 C   0  0  0  0  0  0  0  0  0  0  0  0
   49.0480   31.6980   36.5740 C   0  0  0  0  0  0  0  0  0  0  0  0
   48.2330   31.7790   35.4780 C   0  0  0  0  0  0  0  0  0  0  0  0
   47.0250   32.3310   35.5630 N   0  0  0  0  0  0  0  0  0  0  0  0
   46.6300   32.8050   36.7580 C   0  0  0  0  0  0  0  0  0  0  0  0
   47.4050   32.7480   37.8790 N   0  0  0  0  0  0  0  0  0  0  0  0
   48.7571   31.8675   44.0446 H   0  0  0  0  0  0  0  0  0  0  0  0
   48.1876   31.5626   42.3075 H   0  0  0  0  0  0  0  0  0  0  0  0
   45.3982   34.4322   45.8917 H   0  0  0  0  0  0  0  0  0  0  0  0
   47.5584   33.2479   45.4111 H   0  0  0  0  0  0  0  0  0  0  0  0
   45.4885   33.1318   39.6365 H   0  0  0  0  0  0  0  0  0  0  0  0
   40.8537   36.4185   41.2421 H   0  0  0  0  0  0  0  0  0  0  0  0
   40.0674   36.4727   39.1423 H   0  0  0  0  0  0  0  0  0  0  0  0
   41.0997   35.1030   38.6978 H   0  0  0  0  0  0  0  0  0  0  0  0
   38.1971   35.1529   39.4557 H   0  0  0  0  0  0  0  0  0  0  0  0
   39.0494   33.9676   38.4622 H   0  0  0  0  0  0  0  0  0  0  0  0
   38.2561   33.3957   41.0084 H   0  0  0  0  0  0  0  0  0  0  0  0
   39.7579   32.7116   40.3697 H   0  0  0  0  0  0  0  0  0  0  0  0
   40.6573   33.7985   42.2335 H   0  0  0  0  0  0  0  0  0  0  0  0
   39.3555   34.9915   42.3177 H   0  0  0  0  0  0  0  0  0  0  0  0
   49.1979   34.1575   42.4240 H   0  0  0  0  0  0  0  0  0  0  0  0
   50.3857   33.0947   43.2331 H   0  0  0  0  0  0  0  0  0  0  0  0
   51.7941   31.8302   41.8606 H   0  0  0  0  0  0  0  0  0  0  0  0
   52.5281   30.8684   39.7324 H   0  0  0  0  0  0  0  0  0  0  0  0
   50.0433   31.2385   36.4834 H   0  0  0  0  0  0  0  0  0  0  0  0
   48.5811   31.3823   34.5129 H   0  0  0  0  0  0  0  0  0  0  0  0
   45.6321   33.2614   36.8352 H   0  0  0  0  0  0  0  0  0  0  0  0
  1  4  1  0
  3  2  2  0
  4  3  1  0
  5  6  1  0
  5  4  2  0
  6  7  2  0
  7  2  1  0
  8 12  1  0
  8  6  1  0
  9  8  2  0
 10  9  1  0
 10 11  1  0
 11 13  1  0
 11 12  2  0
 13 17  1  0
 14 13  1  0
 15 14  1  0
 15 16  1  0
 16 17  1  0
 18  1  1  0
 19 18  1  0
 20 19  2  0
 21 20  1  0
 22 23  1  0
 22 21  2  0
 23 24  2  0
 24 19  1  0
 25 30  1  0
 25 23  1  0
 26 25  2  0
 27 28  2  0
 27 26  1  0
 28 29  1  0
 29 30  2  0
  1 31  1  0
  1 32  1  0
  2 33  1  0
  3 34  1  0
  9 35  1  0
 13 36  1  0
 14 37  1  0
 14 38  1  0
 15 39  1  0
 15 40  1  0
 16 41  1  0
 16 42  1  0
 17 43  1  0
 17 44  1  0
 18 45  1  0
 18 46  1  0
 20 47  1  0
 21 48  1  0
 26 49  1  0
 27 50  1  0
 29 51  1  0
M  ISO  8  31   8  32   8  33  14  34  14  35  14  36  13  37  13  38  13
M  ISO  8  39  13  40  13  41  13  42  13  43  13  44  13  45   8  46   8
M  ISO  5  47  14  48  14  49  14  50  14  51  14
M  END
>  <minimizedAffinity>  (1) 
-5.88552904

>  <minimizedRMSD>  (1) 
7.28240395

$$$$
