
     RDKit          3D

 50 53  0  0  0  0  0  0  0  0999 V2000
   47.5540   33.6850   42.4240 C   0  0  0  0  0  0  0  0  0  0  0  0
   44.9400   35.2610   44.6110 C   0  0  0  0  0  0  0  0  0  0  0  0
   45.7960   34.9720   43.5310 C   0  0  0  0  0  0  0  0  0  0  0  0
   46.6850   33.9470   43.5620 C   0  0  0  0  0  0  0  0  0  0  0  0
   46.7300   33.1930   44.6750 N   0  0  0  0  0  0  0  0  0  0  0  0
   45.8900   33.4810   45.7260 C   0  0  0  0  0  0  0  0  0  0  0  0
   45.0350   34.4690   45.6980 N   0  0  0  0  0  0  0  0  0  0  0  0
   46.1130   32.5200   46.8500 C   0  0  0  0  0  0  0  0  0  0  0  0
   45.5280   32.5540   48.1970 C   0  0  0  0  0  0  0  0  0  0  0  0
   46.3110   31.0750   48.8790 S   0  0  0  0  0  0  0  0  0  0  0  0
   47.2650   30.6710   47.2860 C   0  0  0  0  0  0  0  0  0  0  0  0
   46.9470   31.6190   46.4070 N   0  0  0  0  0  0  0  0  0  0  0  0
   48.1560   29.4460   47.2670 C   0  0  0  0  0  0  0  0  0  0  0  0
   49.0350   29.4890   48.4740 C   0  0  0  0  0  0  0  0  0  0  0  0
   48.9280   29.3760   45.9750 C   0  0  0  0  0  0  0  0  0  0  0  0
   47.2470   28.2540   47.4180 C   0  0  0  0  0  0  0  0  0  0  0  0
   47.7110   34.7780   41.4350 C   0  0  0  0  0  0  0  0  0  0  0  0
   47.3190   34.2540   40.0940 C   0  0  0  0  0  0  0  0  0  0  0  0
   48.1910   34.1980   39.0260 C   0  0  0  0  0  0  0  0  0  0  0  0
   47.9290   33.7410   37.7740 C   0  0  0  0  0  0  0  0  0  0  0  0
   46.6530   33.3000   37.5950 N   0  0  0  0  0  0  0  0  0  0  0  0
   45.7650   33.3360   38.6110 C   0  0  0  0  0  0  0  0  0  0  0  0
   46.0550   33.7980   39.8530 N   0  0  0  0  0  0  0  0  0  0  0  0
   44.4260   32.8450   38.3350 C   0  0  0  0  0  0  0  0  0  0  0  0
   43.3100   33.5710   38.7760 C   0  0  0  0  0  0  0  0  0  0  0  0
   42.0460   33.1090   38.5140 C   0  0  0  0  0  0  0  0  0  0  0  0
   41.8570   31.9710   37.8440 N   0  0  0  0  0  0  0  0  0  0  0  0
   42.9490   31.2850   37.4270 C   0  0  0  0  0  0  0  0  0  0  0  0
   44.2160   31.7120   37.6680 N   0  0  0  0  0  0  0  0  0  0  0  0
   48.5533   33.4461   42.8169 H   0  0  0  0  0  0  0  0  0  0  0  0
   47.0665   32.8672   41.8730 H   0  0  0  0  0  0  0  0  0  0  0  0
   44.2253   36.0961   44.5697 H   0  0  0  0  0  0  0  0  0  0  0  0
   45.7422   35.5998   42.6294 H   0  0  0  0  0  0  0  0  0  0  0  0
   44.8246   33.2659   48.6535 H   0  0  0  0  0  0  0  0  0  0  0  0
   48.4138   29.4586   49.3813 H   0  0  0  0  0  0  0  0  0  0  0  0
   49.7131   28.6230   48.4648 H   0  0  0  0  0  0  0  0  0  0  0  0
   49.6254   30.4171   48.4648 H   0  0  0  0  0  0  0  0  0  0  0  0
   50.0015   29.2787   46.1941 H   0  0  0  0  0  0  0  0  0  0  0  0
   48.5919   28.5046   45.3938 H   0  0  0  0  0  0  0  0  0  0  0  0
   48.7541   30.2936   45.3938 H   0  0  0  0  0  0  0  0  0  0  0  0
   47.0888   28.0466   48.4866 H   0  0  0  0  0  0  0  0  0  0  0  0
   46.2801   28.4672   46.9388 H   0  0  0  0  0  0  0  0  0  0  0  0
   47.7084   27.3780   46.9388 H   0  0  0  0  0  0  0  0  0  0  0  0
   47.0625   35.6234   41.7084 H   0  0  0  0  0  0  0  0  0  0  0  0
   48.7542   35.1263   41.4164 H   0  0  0  0  0  0  0  0  0  0  0  0
   49.2120   34.5642   39.2089 H   0  0  0  0  0  0  0  0  0  0  0  0
   48.6830   33.7282   36.9732 H   0  0  0  0  0  0  0  0  0  0  0  0
   43.4487   34.5102   39.3316 H   0  0  0  0  0  0  0  0  0  0  0  0
   41.1754   33.6848   38.8612 H   0  0  0  0  0  0  0  0  0  0  0  0
   42.8038   30.3464   36.8721 H   0  0  0  0  0  0  0  0  0  0  0  0
  1  4  1  0
  2  7  2  0
  3  4  2  0
  3  2  1  0
  4  5  1  0
  5  6  2  0
  6  8  1  0
  7  6  1  0
  8  9  2  0
  9 10  1  0
 11 10  1  0
 12  8  1  0
 12 11  2  0
 13 11  1  0
 13 16  1  0
 13 14  1  0
 15 13  1  0
 17  1  1  0
 18 17  1  0
 19 18  2  0
 20 19  1  0
 21 20  2  0
 21 22  1  0
 22 23  2  0
 23 18  1  0
 24 22  1  0
 24 25  2  0
 26 25  1  0
 27 26  2  0
 28 29  2  0
 28 27  1  0
 29 24  1  0
  1 30  1  0
  1 31  1  0
  2 32  1  0
  3 33  1  0
  9 34  1  0
 14 35  1  0
 14 36  1  0
 14 37  1  0
 15 38  1  0
 15 39  1  0
 15 40  1  0
 16 41  1  0
 16 42  1  0
 16 43  1  0
 17 44  1  0
 17 45  1  0
 19 46  1  0
 20 47  1  0
 25 48  1  0
 26 49  1  0
 28 50  1  0
M  ISO  8  30   8  31   8  32  14  33  14  34  14  35   8  36   8  37   8
M  ISO  8  38   8  39   8  40   8  41   8  42   8  43   8  44   8  45   8
M  ISO  5  46  14  47  14  48  14  49  14  50  14
M  END
>  <minimizedAffinity>  (1) 
-5.83897352

>  <minimizedRMSD>  (1) 
1.21728444

$$$$
