
     RDKit          3D

 39 41  0  0  0  0  0  0  0  0999 V2000
   44.4520   35.1740   42.8940 C   0  0  0  0  0  0  0  0  0  0  0  0
   43.6120   34.5150   42.0300 C   0  0  0  0  0  0  0  0  0  0  0  0
   43.5970   33.0820   42.0230 C   0  0  0  0  0  0  0  0  0  0  0  0
   44.4340   32.4400   42.8900 N   0  0  0  0  0  0  0  0  0  0  0  0
   45.2490   33.1270   43.7250 C   0  0  0  0  0  0  0  0  0  0  0  0
   45.2670   34.5030   43.7360 N   0  0  0  0  0  0  0  0  0  0  0  0
   44.4350   36.6090   42.8950 N   0  0  0  0  0  0  0  0  0  0  0  0
   42.7840   35.2650   41.1050 C   0  0  0  0  0  0  0  0  0  0  0  0
   41.2740   35.2820   41.5440 C   0  0  0  0  0  0  0  0  0  0  0  0
   40.7550   36.0730   40.3160 C   0  0  0  0  0  0  0  0  0  0  0  0
   41.4320   35.3820   39.1850 C   0  0  0  0  0  0  0  0  0  0  0  0
   42.7670   34.8680   39.7420 C   0  0  0  0  0  0  0  0  0  0  0  0
   46.1640   32.4140   44.6530 C   0  0  0  0  0  0  0  0  0  0  0  0
   46.5800   33.2560   45.8260 C   0  0  0  0  0  0  0  0  0  0  0  0
   46.3770   32.4620   47.0650 C   0  0  0  0  0  0  0  0  0  0  0  0
   47.4620   31.8990   47.7390 C   0  0  0  0  0  0  0  0  0  0  0  0
   47.2970   31.1670   48.8750 C   0  0  0  0  0  0  0  0  0  0  0  0
   46.0570   30.9890   49.3500 N   0  0  0  0  0  0  0  0  0  0  0  0
   44.9670   31.5160   48.7320 C   0  0  0  0  0  0  0  0  0  0  0  0
   45.1920   32.2290   47.6140 N   0  0  0  0  0  0  0  0  0  0  0  0
   42.9367   32.5209   41.3453 H   0  0  0  0  0  0  0  0  0  0  0  0
   43.8119   37.1171   42.2512 H   0  0  0  0  0  0  0  0  0  0  0  0
   45.0459   37.1308   43.5395 H   0  0  0  0  0  0  0  0  0  0  0  0
   43.2836   36.2435   41.1587 H   0  0  0  0  0  0  0  0  0  0  0  0
   40.8406   34.2734   41.6135 H   0  0  0  0  0  0  0  0  0  0  0  0
   41.0458   35.6937   42.5382 H   0  0  0  0  0  0  0  0  0  0  0  0
   39.6608   36.0012   40.2292 H   0  0  0  0  0  0  0  0  0  0  0  0
   40.9676   37.1512   40.3644 H   0  0  0  0  0  0  0  0  0  0  0  0
   41.6083   36.0853   38.3578 H   0  0  0  0  0  0  0  0  0  0  0  0
   40.8174   34.5603   38.7887 H   0  0  0  0  0  0  0  0  0  0  0  0
   42.8224   33.7725   39.6594 H   0  0  0  0  0  0  0  0  0  0  0  0
   43.6256   35.2737   39.1868 H   0  0  0  0  0  0  0  0  0  0  0  0
   45.6522   31.5160   45.0295 H   0  0  0  0  0  0  0  0  0  0  0  0
   47.0740   32.1606   44.0894 H   0  0  0  0  0  0  0  0  0  0  0  0
   47.6409   33.5302   45.7295 H   0  0  0  0  0  0  0  0  0  0  0  0
   45.9798   34.1771   45.8634 H   0  0  0  0  0  0  0  0  0  0  0  0
   48.4766   32.0507   47.3420 H   0  0  0  0  0  0  0  0  0  0  0  0
   48.1641   30.7306   49.3923 H   0  0  0  0  0  0  0  0  0  0  0  0
   43.9512   31.3667   49.1267 H   0  0  0  0  0  0  0  0  0  0  0  0
  1  7  1  0
  1  6  2  0
  2  1  1  0
  3  2  2  0
  3  4  1  0
  4  5  2  0
  5  6  1  0
  5 13  1  0
  8  9  1  0
  8  2  1  0
 10  9  1  0
 11 12  1  0
 11 10  1  0
 12  8  1  0
 13 14  1  0
 14 15  1  0
 15 20  1  0
 15 16  2  0
 16 17  1  0
 17 18  2  0
 19 18  1  0
 20 19  2  0
  3 21  1  0
  7 22  1  0
  7 23  1  0
  8 24  1  0
  9 25  1  0
  9 26  1  0
 10 27  1  0
 10 28  1  0
 11 29  1  0
 11 30  1  0
 12 31  1  0
 12 32  1  0
 13 33  1  0
 13 34  1  0
 14 35  1  0
 14 36  1  0
 16 37  1  0
 17 38  1  0
 19 39  1  0
M  ISO  8  21  14  24  13  25  13  26  13  27  13  28  13  29  13  30  13
M  ISO  8  31  13  32  13  33   8  34   8  35   8  36   8  37  14  38  14
M  ISO  1  39  14
M  END
>  <minimizedAffinity>  (1) 
-5.64559698

>  <minimizedRMSD>  (1) 
1.57625723

$$$$
