
     RDKit          3D

 43 45  0  0  0  0  0  0  0  0999 V2000
   44.6810   35.4200   42.9740 C   0  0  0  0  0  0  0  0  0  0  0  0
   43.8140   34.6990   42.1740 C   0  0  0  0  0  0  0  0  0  0  0  0
   43.8490   33.2620   42.1910 C   0  0  0  0  0  0  0  0  0  0  0  0
   44.7540   32.6570   43.0100 N   0  0  0  0  0  0  0  0  0  0  0  0
   45.5900   33.3880   43.7820 C   0  0  0  0  0  0  0  0  0  0  0  0
   45.5630   34.7650   43.7720 N   0  0  0  0  0  0  0  0  0  0  0  0
   44.6050   36.8340   42.9450 N   0  0  0  0  0  0  0  0  0  0  0  0
   42.8940   35.3930   41.2800 C   0  0  0  0  0  0  0  0  0  0  0  0
   41.4120   35.3160   41.7960 C   0  0  0  0  0  0  0  0  0  0  0  0
   40.7930   36.1060   40.6180 C   0  0  0  0  0  0  0  0  0  0  0  0
   41.4430   35.4400   39.4440 C   0  0  0  0  0  0  0  0  0  0  0  0
   42.8180   34.9990   39.9350 C   0  0  0  0  0  0  0  0  0  0  0  0
   46.5920   32.7800   44.6870 C   0  0  0  0  0  0  0  0  0  0  0  0
   46.4830   33.1580   46.1010 C   0  0  0  0  0  0  0  0  0  0  0  0
   46.1030   32.0350   46.9430 N   0  0  0  0  0  0  0  0  0  0  0  0
   47.3230   31.5180   47.6000 C   0  0  0  0  0  0  0  0  0  0  0  0
   46.9910   31.1220   48.9850 C   0  0  0  0  0  0  0  0  0  0  0  0
   45.5300   31.4250   49.1340 C   0  0  0  0  0  0  0  0  0  0  0  0
   45.2930   32.4940   48.0730 C   0  0  0  0  0  0  0  0  0  0  0  0
   43.1670   32.6700   41.5629 H   0  0  0  0  0  0  0  0  0  0  0  0
   43.9247   37.3006   42.3283 H   0  0  0  0  0  0  0  0  0  0  0  0
   45.2301   37.3957   43.5406 H   0  0  0  0  0  0  0  0  0  0  0  0
   43.3496   36.3940   41.3010 H   0  0  0  0  0  0  0  0  0  0  0  0
   41.0368   34.2839   41.8600 H   0  0  0  0  0  0  0  0  0  0  0  0
   41.2129   35.6889   42.8115 H   0  0  0  0  0  0  0  0  0  0  0  0
   39.6990   35.9947   40.5892 H   0  0  0  0  0  0  0  0  0  0  0  0
   40.9583   37.1924   40.6680 H   0  0  0  0  0  0  0  0  0  0  0  0
   41.5422   36.1472   38.6073 H   0  0  0  0  0  0  0  0  0  0  0  0
   40.8491   34.5901   39.0767 H   0  0  0  0  0  0  0  0  0  0  0  0
   42.9219   33.9072   39.8502 H   0  0  0  0  0  0  0  0  0  0  0  0
   43.6231   35.4510   39.3370 H   0  0  0  0  0  0  0  0  0  0  0  0
   46.4888   31.6869   44.6202 H   0  0  0  0  0  0  0  0  0  0  0  0
   47.5690   33.1566   44.3498 H   0  0  0  0  0  0  0  0  0  0  0  0
   47.4562   33.5420   46.4409 H   0  0  0  0  0  0  0  0  0  0  0  0
   45.6981   33.9239   46.1858 H   0  0  0  0  0  0  0  0  0  0  0  0
   47.6985   30.6448   47.0464 H   0  0  0  0  0  0  0  0  0  0  0  0
   48.0986   32.2980   47.6116 H   0  0  0  0  0  0  0  0  0  0  0  0
   47.1811   30.0492   49.1368 H   0  0  0  0  0  0  0  0  0  0  0  0
   47.6024   31.6574   49.7263 H   0  0  0  0  0  0  0  0  0  0  0  0
   44.9188   30.5315   48.9388 H   0  0  0  0  0  0  0  0  0  0  0  0
   45.2556   31.7515   50.1480 H   0  0  0  0  0  0  0  0  0  0  0  0
   45.6310   33.4798   48.4250 H   0  0  0  0  0  0  0  0  0  0  0  0
   44.2302   32.6179   47.8177 H   0  0  0  0  0  0  0  0  0  0  0  0
  1  6  2  0
  2  3  2  0
  2  1  1  0
  3  4  1  0
  4  5  2  0
  5 13  1  0
  6  5  1  0
  7  1  1  0
  8  9  1  0
  8  2  1  0
 10  9  1  0
 11 12  1  0
 11 10  1  0
 12  8  1  0
 13 14  1  0
 14 15  1  0
 15 16  1  0
 15 19  1  0
 16 17  1  0
 17 18  1  0
 19 18  1  0
  3 20  1  0
  7 21  1  0
  7 22  1  0
  8 23  1  0
  9 24  1  0
  9 25  1  0
 10 26  1  0
 10 27  1  0
 11 28  1  0
 11 29  1  0
 12 30  1  0
 12 31  1  0
 13 32  1  0
 13 33  1  0
 14 34  1  0
 14 35  1  0
 16 36  1  0
 16 37  1  0
 17 38  1  0
 17 39  1  0
 18 40  1  0
 18 41  1  0
 19 42  1  0
 19 43  1  0
M  ISO  8  20  14  23  13  24  13  25  13  26  13  27  13  28  13  29  13
M  ISO  8  30  13  31  13  32   8  33   8  34   8  35   8  36  13  37  13
M  ISO  6  38  13  39  13  40  13  41  13  42  13  43  13
M  END
>  <minimizedAffinity>  (1) 
-5.53277683

>  <minimizedRMSD>  (1) 
1.17800331

$$$$
