
     RDKit          3D

 41 43  0  0  0  0  0  0  0  0999 V2000
   44.8130   35.3560   43.3920 C   0  0  0  0  0  0  0  0  0  0  0  0
   44.2180   34.5080   42.4850 C   0  0  0  0  0  0  0  0  0  0  0  0
   44.3740   33.0920   42.6370 C   0  0  0  0  0  0  0  0  0  0  0  0
   45.1130   32.6420   43.6830 N   0  0  0  0  0  0  0  0  0  0  0  0
   45.6890   33.4970   44.5620 C   0  0  0  0  0  0  0  0  0  0  0  0
   45.5440   34.8600   44.4250 N   0  0  0  0  0  0  0  0  0  0  0  0
   44.6410   36.7640   43.2280 N   0  0  0  0  0  0  0  0  0  0  0  0
   43.4840   35.0550   41.3610 C   0  0  0  0  0  0  0  0  0  0  0  0
   41.9350   35.0670   41.6250 C   0  0  0  0  0  0  0  0  0  0  0  0
   41.5280   35.6220   40.2400 C   0  0  0  0  0  0  0  0  0  0  0  0
   42.3600   34.7920   39.3150 C   0  0  0  0  0  0  0  0  0  0  0  0
   43.6290   34.4330   40.0940 C   0  0  0  0  0  0  0  0  0  0  0  0
   46.5150   33.0320   45.7060 C   0  0  0  0  0  0  0  0  0  0  0  0
   45.7930   32.0500   46.5820 C   0  0  0  0  0  0  0  0  0  0  0  0
   46.8140   31.4170   47.4210 N   0  0  0  0  0  0  0  0  0  0  0  0
   47.8010   30.6620   46.8910 C   0  0  0  0  0  0  0  0  0  0  0  0
   48.7140   30.1130   47.7920 C   0  0  0  0  0  0  0  0  0  0  0  0
   48.6110   30.3310   49.1480 C   0  0  0  0  0  0  0  0  0  0  0  0
   49.4000   29.8630   49.9960 O   0  0  0  0  0  0  0  0  0  0  0  0
   47.5940   31.1010   49.6200 N   0  0  0  0  0  0  0  0  0  0  0  0
   46.7190   31.6290   48.7650 C   0  0  0  0  0  0  0  0  0  0  0  0
   45.7660   32.3510   49.2090 O   0  0  0  0  0  0  0  0  0  0  0  0
   43.9093   32.3911   41.9280 H   0  0  0  0  0  0  0  0  0  0  0  0
   44.0845   37.1266   42.4407 H   0  0  0  0  0  0  0  0  0  0  0  0
   45.0734   37.4170   43.8970 H   0  0  0  0  0  0  0  0  0  0  0  0
   43.9485   36.0502   41.2989 H   0  0  0  0  0  0  0  0  0  0  0  0
   41.5300   34.0618   41.8138 H   0  0  0  0  0  0  0  0  0  0  0  0
   41.5845   35.6233   42.5069 H   0  0  0  0  0  0  0  0  0  0  0  0
   40.4542   35.4763   40.0510 H   0  0  0  0  0  0  0  0  0  0  0  0
   41.6901   36.7045   40.1312 H   0  0  0  0  0  0  0  0  0  0  0  0
   42.6156   35.3661   38.4121 H   0  0  0  0  0  0  0  0  0  0  0  0
   41.8205   33.8911   38.9875 H   0  0  0  0  0  0  0  0  0  0  0  0
   43.7143   33.3423   40.2086 H   0  0  0  0  0  0  0  0  0  0  0  0
   44.5370   34.7723   39.5741 H   0  0  0  0  0  0  0  0  0  0  0  0
   47.4224   32.5509   45.3120 H   0  0  0  0  0  0  0  0  0  0  0  0
   46.7546   33.9117   46.3213 H   0  0  0  0  0  0  0  0  0  0  0  0
   45.0543   32.5707   47.2091 H   0  0  0  0  0  0  0  0  0  0  0  0
   45.2502   31.3042   45.9827 H   0  0  0  0  0  0  0  0  0  0  0  0
   47.8806   30.4894   45.8075 H   0  0  0  0  0  0  0  0  0  0  0  0
   49.5365   29.4906   47.4098 H   0  0  0  0  0  0  0  0  0  0  0  0
   47.5009   31.2747   50.6310 H   0  0  0  0  0  0  0  0  0  0  0  0
  1  6  2  0
  2  3  2  0
  2  1  1  0
  3  4  1  0
  4  5  2  0
  5 13  1  0
  6  5  1  0
  7  1  1  0
  8  9  1  0
  8  2  1  0
 10  9  1  0
 11 12  1  0
 11 10  1  0
 12  8  1  0
 13 14  1  0
 14 15  1  0
 15 21  1  0
 16 15  1  0
 16 17  2  0
 17 18  1  0
 18 20  1  0
 18 19  2  0
 21 22  2  0
 21 20  1  0
  3 23  1  0
  7 24  1  0
  7 25  1  0
  8 26  1  0
  9 27  1  0
  9 28  1  0
 10 29  1  0
 10 30  1  0
 11 31  1  0
 11 32  1  0
 12 33  1  0
 12 34  1  0
 13 35  1  0
 13 36  1  0
 14 37  1  0
 14 38  1  0
 16 39  1  0
 17 40  1  0
 20 41  1  0
M  ISO  8  23  14  26  13  27  13  28  13  29  13  30  13  31  13  32  13
M  ISO  8  33  13  34  13  35   8  36   8  37   8  38   8  39  14  40  14
M  ISO  1  41   9
M  END
>  <minimizedAffinity>  (1) 
-5.87998438

>  <minimizedRMSD>  (1) 
1.04677808

$$$$
