
     RDKit          3D

 32 33  0  0  0  0  0  0  0  0999 V2000
   44.8310   35.5520   43.0270 C   0  0  0  0  0  0  0  0  0  0  0  0
   43.9800   34.7930   42.2610 C   0  0  0  0  0  0  0  0  0  0  0  0
   44.0810   33.3640   42.3050 C   0  0  0  0  0  0  0  0  0  0  0  0
   45.0330   32.8130   43.1170 N   0  0  0  0  0  0  0  0  0  0  0  0
   45.8540   33.5990   43.8540 C   0  0  0  0  0  0  0  0  0  0  0  0
   45.7640   34.9760   43.8200 N   0  0  0  0  0  0  0  0  0  0  0  0
   44.6980   36.9780   42.9720 N   0  0  0  0  0  0  0  0  0  0  0  0
   43.0240   35.4340   41.3800 C   0  0  0  0  0  0  0  0  0  0  0  0
   41.5510   35.2960   41.9030 C   0  0  0  0  0  0  0  0  0  0  0  0
   40.8740   35.9830   40.6920 C   0  0  0  0  0  0  0  0  0  0  0  0
   41.5640   35.3350   39.5400 C   0  0  0  0  0  0  0  0  0  0  0  0
   42.9780   35.0220   40.0190 C   0  0  0  0  0  0  0  0  0  0  0  0
   46.9060   33.0190   44.7310 C   0  0  0  0  0  0  0  0  0  0  0  0
   46.4950   32.9830   46.1770 C   0  0  0  0  0  0  0  0  0  0  0  0
   45.2970   32.2570   46.2410 O   0  0  0  0  0  0  0  0  0  0  0  0
   43.4129   32.7299   41.7038 H   0  0  0  0  0  0  0  0  0  0  0  0
   43.9843   37.4056   42.3648 H   0  0  0  0  0  0  0  0  0  0  0  0
   45.3161   37.5752   43.5396 H   0  0  0  0  0  0  0  0  0  0  0  0
   43.4147   36.4621   41.3994 H   0  0  0  0  0  0  0  0  0  0  0  0
   41.2407   34.2475   42.0230 H   0  0  0  0  0  0  0  0  0  0  0  0
   41.3342   35.7126   42.8977 H   0  0  0  0  0  0  0  0  0  0  0  0
   39.7924   35.7838   40.6731 H   0  0  0  0  0  0  0  0  0  0  0  0
   40.9602   37.0796   40.6999 H   0  0  0  0  0  0  0  0  0  0  0  0
   41.5947   36.0189   38.6790 H   0  0  0  0  0  0  0  0  0  0  0  0
   41.0380   34.4252   39.2151 H   0  0  0  0  0  0  0  0  0  0  0  0
   43.1805   33.9439   39.9377 H   0  0  0  0  0  0  0  0  0  0  0  0
   43.7358   35.5396   39.4125 H   0  0  0  0  0  0  0  0  0  0  0  0
   47.1158   31.9917   44.3982 H   0  0  0  0  0  0  0  0  0  0  0  0
   47.7969   33.6594   44.6526 H   0  0  0  0  0  0  0  0  0  0  0  0
   47.2708   32.4869   46.7787 H   0  0  0  0  0  0  0  0  0  0  0  0
   46.3613   34.0000   46.5742 H   0  0  0  0  0  0  0  0  0  0  0  0
   45.0515   32.1082   47.1885 H   0  0  0  0  0  0  0  0  0  0  0  0
  1  6  2  0
  2  3  2  0
  2  1  1  0
  3  4  1  0
  4  5  2  0
  5 13  1  0
  6  5  1  0
  7  1  1  0
  8  9  1  0
  8  2  1  0
 10  9  1  0
 11 12  1  0
 11 10  1  0
 12  8  1  0
 13 14  1  0
 14 15  1  0
  3 16  1  0
  7 17  1  0
  7 18  1  0
  8 19  1  0
  9 20  1  0
  9 21  1  0
 10 22  1  0
 10 23  1  0
 11 24  1  0
 11 25  1  0
 12 26  1  0
 12 27  1  0
 13 28  1  0
 13 29  1  0
 14 30  1  0
 14 31  1  0
 15 32  1  0
M  ISO  8  16  14  19  13  20  13  21  13  22  13  23  13  24  13  25  13
M  ISO  7  26  13  27  13  28   8  29   8  30   8  31   8  32   3
M  END
>  <minimizedAffinity>  (1) 
-4.57355452

>  <minimizedRMSD>  (1) 
0.0815937743

$$$$
