
     RDKit          3D

 33 34  0  0  0  0  0  0  0  0999 V2000
   44.8040   35.4580   42.8690 C   0  0  0  0  0  0  0  0  0  0  0  0
   43.9140   34.7500   42.0950 C   0  0  0  0  0  0  0  0  0  0  0  0
   44.0380   33.3300   42.0210 C   0  0  0  0  0  0  0  0  0  0  0  0
   45.0450   32.7420   42.7270 N   0  0  0  0  0  0  0  0  0  0  0  0
   45.9040   33.4750   43.4760 C   0  0  0  0  0  0  0  0  0  0  0  0
   45.7920   34.8470   43.5570 N   0  0  0  0  0  0  0  0  0  0  0  0
   44.6450   36.8840   42.9580 N   0  0  0  0  0  0  0  0  0  0  0  0
   42.9010   35.4480   41.3320 C   0  0  0  0  0  0  0  0  0  0  0  0
   41.4740   35.2820   41.9620 C   0  0  0  0  0  0  0  0  0  0  0  0
   40.7110   36.0700   40.8670 C   0  0  0  0  0  0  0  0  0  0  0  0
   41.2840   35.4950   39.6230 C   0  0  0  0  0  0  0  0  0  0  0  0
   42.7430   35.1190   39.9590 C   0  0  0  0  0  0  0  0  0  0  0  0
   47.0080   32.8210   44.2300 C   0  0  0  0  0  0  0  0  0  0  0  0
   46.5740   32.3390   45.5840 C   0  0  0  0  0  0  0  0  0  0  0  0
   46.6130   33.5130   46.4690 N   0  0  0  0  0  0  0  0  0  0  0  0
   43.3439   32.7299   41.4143 H   0  0  0  0  0  0  0  0  0  0  0  0
   43.8919   37.3519   42.4339 H   0  0  0  0  0  0  0  0  0  0  0  0
   45.2842   37.4378   43.5459 H   0  0  0  0  0  0  0  0  0  0  0  0
   43.3019   36.4713   41.3791 H   0  0  0  0  0  0  0  0  0  0  0  0
   41.1583   34.2301   42.0245 H   0  0  0  0  0  0  0  0  0  0  0  0
   41.3451   35.6200   43.0008 H   0  0  0  0  0  0  0  0  0  0  0  0
   39.6271   35.8926   40.9279 H   0  0  0  0  0  0  0  0  0  0  0  0
   40.8219   37.1616   40.9451 H   0  0  0  0  0  0  0  0  0  0  0  0
   41.2580   36.2375   38.8118 H   0  0  0  0  0  0  0  0  0  0  0  0
   40.7110   34.6197   39.2833 H   0  0  0  0  0  0  0  0  0  0  0  0
   42.9123   34.0442   39.7971 H   0  0  0  0  0  0  0  0  0  0  0  0
   43.4640   35.6512   39.3211 H   0  0  0  0  0  0  0  0  0  0  0  0
   47.3704   31.9603   43.6488 H   0  0  0  0  0  0  0  0  0  0  0  0
   47.7993   33.5702   44.3802 H   0  0  0  0  0  0  0  0  0  0  0  0
   45.5532   31.9322   45.5349 H   0  0  0  0  0  0  0  0  0  0  0  0
   47.2297   31.5366   45.9531 H   0  0  0  0  0  0  0  0  0  0  0  0
   46.6027   33.2030   47.4512 H   0  0  0  0  0  0  0  0  0  0  0  0
   47.4723   34.0512   46.2878 H   0  0  0  0  0  0  0  0  0  0  0  0
  1  7  1  0
  1  6  2  0
  2  1  1  0
  3  2  2  0
  3  4  1  0
  4  5  2  0
  5  6  1  0
  5 13  1  0
  8  9  1  0
  8  2  1  0
 10  9  1  0
 11 12  1  0
 11 10  1  0
 12  8  1  0
 13 14  1  0
 14 15  1  0
  3 16  1  0
  7 17  1  0
  7 18  1  0
  8 19  1  0
  9 20  1  0
  9 21  1  0
 10 22  1  0
 10 23  1  0
 11 24  1  0
 11 25  1  0
 12 26  1  0
 12 27  1  0
 13 28  1  0
 13 29  1  0
 14 30  1  0
 14 31  1  0
 15 32  1  0
 15 33  1  0
M  ISO  8  16  14  19  13  20  13  21  13  22  13  23  13  24  13  25  13
M  ISO  8  26  13  27  13  28   8  29   8  30   8  31   8  32   5  33   5
M  END
>  <minimizedAffinity>  (1) 
-4.67833376

>  <minimizedRMSD>  (1) 
0.453500301

$$$$
