
     RDKit          3D

 38 40  0  0  0  0  0  0  0  0999 V2000
   44.5720   35.3080   42.9010 C   0  0  0  0  0  0  0  0  0  0  0  0
   43.6970   34.6270   42.0790 C   0  0  0  0  0  0  0  0  0  0  0  0
   43.7180   33.1950   42.0540 C   0  0  0  0  0  0  0  0  0  0  0  0
   44.6120   32.5530   42.8490 N   0  0  0  0  0  0  0  0  0  0  0  0
   45.4710   33.2620   43.6540 C   0  0  0  0  0  0  0  0  0  0  0  0
   45.4530   34.6380   43.6820 N   0  0  0  0  0  0  0  0  0  0  0  0
   44.5240   36.7300   42.9130 N   0  0  0  0  0  0  0  0  0  0  0  0
   42.7970   35.3690   41.2170 C   0  0  0  0  0  0  0  0  0  0  0  0
   41.3150   35.3220   41.7350 C   0  0  0  0  0  0  0  0  0  0  0  0
   40.7010   36.1230   40.5570 C   0  0  0  0  0  0  0  0  0  0  0  0
   41.3360   35.4750   39.3760 C   0  0  0  0  0  0  0  0  0  0  0  0
   42.7060   34.9840   39.8530 C   0  0  0  0  0  0  0  0  0  0  0  0
   46.4660   32.5750   44.5170 C   0  0  0  0  0  0  0  0  0  0  0  0
   46.5310   33.1740   45.8960 C   0  0  0  0  0  0  0  0  0  0  0  0
   45.9090   32.2110   46.8060 N   0  0  0  0  0  0  0  0  0  0  0  0
   45.7820   30.9050   46.6390 N   0  0  0  0  0  0  0  0  0  0  0  0
   45.1640   30.3340   47.6640 C   0  0  0  0  0  0  0  0  0  0  0  0
   44.9020   31.3820   48.5080 C   0  0  0  0  0  0  0  0  0  0  0  0
   45.3610   32.5920   47.9950 C   0  0  0  0  0  0  0  0  0  0  0  0
   43.0288   32.6309   41.4084 H   0  0  0  0  0  0  0  0  0  0  0  0
   43.8495   37.2276   42.3144 H   0  0  0  0  0  0  0  0  0  0  0  0
   45.1638   37.2618   43.5203 H   0  0  0  0  0  0  0  0  0  0  0  0
   43.2697   36.3613   41.2613 H   0  0  0  0  0  0  0  0  0  0  0  0
   40.9213   34.2971   41.8019 H   0  0  0  0  0  0  0  0  0  0  0  0
   41.1276   35.7025   42.7500 H   0  0  0  0  0  0  0  0  0  0  0  0
   39.6064   36.0177   40.5299 H   0  0  0  0  0  0  0  0  0  0  0  0
   40.8799   37.2067   40.6172 H   0  0  0  0  0  0  0  0  0  0  0  0
   41.4533   36.2011   38.5581 H   0  0  0  0  0  0  0  0  0  0  0  0
   40.7221   34.6476   38.9905 H   0  0  0  0  0  0  0  0  0  0  0  0
   42.7764   33.8904   39.7573 H   0  0  0  0  0  0  0  0  0  0  0  0
   43.5229   35.4129   39.2540 H   0  0  0  0  0  0  0  0  0  0  0  0
   46.1873   31.5144   44.6041 H   0  0  0  0  0  0  0  0  0  0  0  0
   47.4555   32.6915   44.0508 H   0  0  0  0  0  0  0  0  0  0  0  0
   47.5783   33.3460   46.1850 H   0  0  0  0  0  0  0  0  0  0  0  0
   46.0101   34.1422   45.9303 H   0  0  0  0  0  0  0  0  0  0  0  0
   44.9194   29.2707   47.8039 H   0  0  0  0  0  0  0  0  0  0  0  0
   44.3897   31.2790   49.4760 H   0  0  0  0  0  0  0  0  0  0  0  0
   45.2978   33.5978   48.4359 H   0  0  0  0  0  0  0  0  0  0  0  0
  1  7  1  0
  1  6  2  0
  2  1  1  0
  3  2  2  0
  3  4  1  0
  4  5  2  0
  5  6  1  0
  5 13  1  0
  8  9  1  0
  8  2  1  0
 10  9  1  0
 11 12  1  0
 11 10  1  0
 12  8  1  0
 13 14  1  0
 14 15  1  0
 15 19  1  0
 16 15  1  0
 16 17  2  0
 17 18  1  0
 19 18  2  0
  3 20  1  0
  7 21  1  0
  7 22  1  0
  8 23  1  0
  9 24  1  0
  9 25  1  0
 10 26  1  0
 10 27  1  0
 11 28  1  0
 11 29  1  0
 12 30  1  0
 12 31  1  0
 13 32  1  0
 13 33  1  0
 14 34  1  0
 14 35  1  0
 17 36  1  0
 18 37  1  0
 19 38  1  0
M  ISO  8  20  14  23  13  24  13  25  13  26  13  27  13  28  13  29  13
M  ISO  8  30  13  31  13  32   8  33   8  34   8  35   8  36  14  37  14
M  ISO  1  38  14
M  END
>  <minimizedAffinity>  (1) 
-5.39359951

>  <minimizedRMSD>  (1) 
0.92944932

$$$$
