
     RDKit          3D

 44 46  0  0  0  0  0  0  0  0999 V2000
   44.5950   35.3010   42.9120 C   0  0  0  0  0  0  0  0  0  0  0  0
   43.7220   34.6220   42.0940 C   0  0  0  0  0  0  0  0  0  0  0  0
   43.7560   33.1950   42.0800 C   0  0  0  0  0  0  0  0  0  0  0  0
   44.6520   32.5630   42.8760 N   0  0  0  0  0  0  0  0  0  0  0  0
   45.5040   33.2710   43.6740 C   0  0  0  0  0  0  0  0  0  0  0  0
   45.4840   34.6520   43.7010 N   0  0  0  0  0  0  0  0  0  0  0  0
   44.5370   36.7410   42.9220 N   0  0  0  0  0  0  0  0  0  0  0  0
   42.8210   35.3790   41.2290 C   0  0  0  0  0  0  0  0  0  0  0  0
   41.3370   35.3130   41.7420 C   0  0  0  0  0  0  0  0  0  0  0  0
   40.7110   36.1130   40.5780 C   0  0  0  0  0  0  0  0  0  0  0  0
   41.3500   35.4770   39.4010 C   0  0  0  0  0  0  0  0  0  0  0  0
   42.7240   34.9750   39.8720 C   0  0  0  0  0  0  0  0  0  0  0  0
   46.5130   32.6070   44.5460 C   0  0  0  0  0  0  0  0  0  0  0  0
   46.4350   33.1370   45.9730 C   0  0  0  0  0  0  0  0  0  0  0  0
   45.8340   32.0460   46.7370 N   0  0  0  0  0  0  0  0  0  0  0  0
   45.2750   32.5560   47.9920 C   0  0  0  0  0  0  0  0  0  0  0  0
   45.3670   31.4490   49.0120 C   0  0  0  0  0  0  0  0  0  0  0  0
   45.1640   30.1780   48.4840 O   0  0  0  0  0  0  0  0  0  0  0  0
   46.1200   29.8310   47.5470 C   0  0  0  0  0  0  0  0  0  0  0  0
   46.8740   31.0550   47.0760 C   0  0  0  0  0  0  0  0  0  0  0  0
   43.0709   32.6219   41.4380 H   0  0  0  0  0  0  0  0  0  0  0  0
   43.8604   37.2333   42.3214 H   0  0  0  0  0  0  0  0  0  0  0  0
   45.1722   37.2778   43.5297 H   0  0  0  0  0  0  0  0  0  0  0  0
   43.2872   36.3744   41.2732 H   0  0  0  0  0  0  0  0  0  0  0  0
   40.9554   34.2829   41.8000 H   0  0  0  0  0  0  0  0  0  0  0  0
   41.1466   35.6860   42.7592 H   0  0  0  0  0  0  0  0  0  0  0  0
   39.6175   35.9961   40.5531 H   0  0  0  0  0  0  0  0  0  0  0  0
   40.8738   37.1989   40.6431 H   0  0  0  0  0  0  0  0  0  0  0  0
   41.4704   36.2109   38.5905 H   0  0  0  0  0  0  0  0  0  0  0  0
   40.7360   34.6518   39.0111 H   0  0  0  0  0  0  0  0  0  0  0  0
   42.7836   33.8797   39.7901 H   0  0  0  0  0  0  0  0  0  0  0  0
   43.5429   35.3830   39.2614 H   0  0  0  0  0  0  0  0  0  0  0  0
   46.3242   31.5234   44.5539 H   0  0  0  0  0  0  0  0  0  0  0  0
   47.5157   32.8205   44.1472 H   0  0  0  0  0  0  0  0  0  0  0  0
   47.4391   33.3724   46.3556 H   0  0  0  0  0  0  0  0  0  0  0  0
   45.8513   34.0668   46.0422 H   0  0  0  0  0  0  0  0  0  0  0  0
   45.8510   33.4291   48.3323 H   0  0  0  0  0  0  0  0  0  0  0  0
   44.2295   32.8680   47.8520 H   0  0  0  0  0  0  0  0  0  0  0  0
   46.3681   31.4793   49.4668 H   0  0  0  0  0  0  0  0  0  0  0  0
   44.5650   31.6223   49.7447 H   0  0  0  0  0  0  0  0  0  0  0  0
   46.8288   29.1219   47.9995 H   0  0  0  0  0  0  0  0  0  0  0  0
   45.6186   29.3697   46.6834 H   0  0  0  0  0  0  0  0  0  0  0  0
   47.4819   30.8162   46.1909 H   0  0  0  0  0  0  0  0  0  0  0  0
   47.5651   31.4320   47.8443 H   0  0  0  0  0  0  0  0  0  0  0  0
  1  7  1  0
  1  6  2  0
  2  1  1  0
  3  2  2  0
  3  4  1  0
  4  5  2  0
  5  6  1  0
  5 13  1  0
  8  9  1  0
  8  2  1  0
 10  9  1  0
 11 12  1  0
 11 10  1  0
 12  8  1  0
 13 14  1  0
 14 15  1  0
 15 20  1  0
 15 16  1  0
 16 17  1  0
 18 17  1  0
 19 18  1  0
 20 19  1  0
  3 21  1  0
  7 22  1  0
  7 23  1  0
  8 24  1  0
  9 25  1  0
  9 26  1  0
 10 27  1  0
 10 28  1  0
 11 29  1  0
 11 30  1  0
 12 31  1  0
 12 32  1  0
 13 33  1  0
 13 34  1  0
 14 35  1  0
 14 36  1  0
 16 37  1  0
 16 38  1  0
 17 39  1  0
 17 40  1  0
 19 41  1  0
 19 42  1  0
 20 43  1  0
 20 44  1  0
M  ISO  8  21  14  24  13  25  13  26  13  27  13  28  13  29  13  30  13
M  ISO  8  31  13  32  13  33   8  34   8  35   8  36   8  37  13  38  13
M  ISO  6  39  13  40  13  41  13  42  13  43  13  44  13
M  END
>  <minimizedAffinity>  (1) 
-5.50137615

>  <minimizedRMSD>  (1) 
1.09143317

$$$$
