
     RDKit          3D

 40 42  0  0  0  0  0  0  0  0999 V2000
   44.4570   35.1640   42.8610 C   0  0  0  0  0  0  0  0  0  0  0  0
   43.5710   34.5600   42.0140 C   0  0  0  0  0  0  0  0  0  0  0  0
   43.5580   33.1440   41.9510 C   0  0  0  0  0  0  0  0  0  0  0  0
   44.4270   32.4500   42.7340 N   0  0  0  0  0  0  0  0  0  0  0  0
   45.2840   33.0930   43.5540 C   0  0  0  0  0  0  0  0  0  0  0  0
   45.3170   34.4770   43.6360 N   0  0  0  0  0  0  0  0  0  0  0  0
   44.4480   36.6080   42.9260 N   0  0  0  0  0  0  0  0  0  0  0  0
   42.6910   35.3480   41.1820 C   0  0  0  0  0  0  0  0  0  0  0  0
   41.2050   35.3530   41.7130 C   0  0  0  0  0  0  0  0  0  0  0  0
   40.5970   36.1630   40.5550 C   0  0  0  0  0  0  0  0  0  0  0  0
   41.2270   35.5550   39.3590 C   0  0  0  0  0  0  0  0  0  0  0  0
   42.5830   35.0230   39.8110 C   0  0  0  0  0  0  0  0  0  0  0  0
   46.2390   32.3370   44.4020 C   0  0  0  0  0  0  0  0  0  0  0  0
   46.5460   32.9880   45.6990 C   0  0  0  0  0  0  0  0  0  0  0  0
   46.1610   32.2200   46.8430 N   0  0  0  0  0  0  0  0  0  0  0  0
   46.5700   31.0050   47.2750 C   0  0  0  0  0  0  0  0  0  0  0  0
   45.8980   30.6850   48.4430 C   0  0  0  0  0  0  0  0  0  0  0  0
   45.0880   31.7390   48.6850 N   0  0  0  0  0  0  0  0  0  0  0  0
   45.2360   32.6780   47.7220 C   0  0  0  0  0  0  0  0  0  0  0  0
   44.5250   33.9330   47.6650 N   0  0  0  0  0  0  0  0  0  0  0  0
   42.8601   32.6177   41.2832 H   0  0  0  0  0  0  0  0  0  0  0  0
   43.7951   37.1459   42.3384 H   0  0  0  0  0  0  0  0  0  0  0  0
   45.0945   37.0990   43.5599 H   0  0  0  0  0  0  0  0  0  0  0  0
   43.2048   36.3179   41.2547 H   0  0  0  0  0  0  0  0  0  0  0  0
   40.7809   34.3408   41.7871 H   0  0  0  0  0  0  0  0  0  0  0  0
   41.0453   35.7470   42.7275 H   0  0  0  0  0  0  0  0  0  0  0  0
   39.5030   36.0517   40.5258 H   0  0  0  0  0  0  0  0  0  0  0  0
   40.7786   37.2446   40.6391 H   0  0  0  0  0  0  0  0  0  0  0  0
   41.3584   36.3120   38.5717 H   0  0  0  0  0  0  0  0  0  0  0  0
   40.6014   34.7513   38.9434 H   0  0  0  0  0  0  0  0  0  0  0  0
   42.6318   33.9330   39.6715 H   0  0  0  0  0  0  0  0  0  0  0  0
   43.4041   35.4635   39.2264 H   0  0  0  0  0  0  0  0  0  0  0  0
   45.8088   31.3455   44.6067 H   0  0  0  0  0  0  0  0  0  0  0  0
   47.1849   32.2834   43.8430 H   0  0  0  0  0  0  0  0  0  0  0  0
   47.6308   33.1632   45.7495 H   0  0  0  0  0  0  0  0  0  0  0  0
   45.9634   33.9205   45.7319 H   0  0  0  0  0  0  0  0  0  0  0  0
   47.3184   30.3711   46.7770 H   0  0  0  0  0  0  0  0  0  0  0  0
   46.0015   29.7697   49.0443 H   0  0  0  0  0  0  0  0  0  0  0  0
   43.8407   34.1709   48.3971 H   0  0  0  0  0  0  0  0  0  0  0  0
   44.7020   34.5905   46.8922 H   0  0  0  0  0  0  0  0  0  0  0  0
  1  7  1  0
  1  6  2  0
  2  1  1  0
  3  2  2  0
  3  4  1  0
  4  5  2  0
  5  6  1  0
  5 13  1  0
  8  9  1  0
  8  2  1  0
 10  9  1  0
 11 12  1  0
 11 10  1  0
 12  8  1  0
 13 14  1  0
 14 15  1  0
 15 16  1  0
 15 19  1  0
 16 17  2  0
 17 18  1  0
 19 18  2  0
 20 19  1  0
  3 21  1  0
  7 22  1  0
  7 23  1  0
  8 24  1  0
  9 25  1  0
  9 26  1  0
 10 27  1  0
 10 28  1  0
 11 29  1  0
 11 30  1  0
 12 31  1  0
 12 32  1  0
 13 33  1  0
 13 34  1  0
 14 35  1  0
 14 36  1  0
 16 37  1  0
 17 38  1  0
 20 39  1  0
 20 40  1  0
M  ISO  8  21  14  24  13  25  13  26  13  27  13  28  13  29  13  30  13
M  ISO  8  31  13  32  13  33   8  34   8  35   8  36   8  37  14  38  14
M  END
>  <minimizedAffinity>  (1) 
-6.05278921

>  <minimizedRMSD>  (1) 
0.451522142

$$$$
