
     RDKit          3D

 38 40  0  0  0  0  0  0  0  0999 V2000
   44.6120   35.3310   42.8940 C   0  0  0  0  0  0  0  0  0  0  0  0
   43.7260   34.6500   42.0920 C   0  0  0  0  0  0  0  0  0  0  0  0
   43.7530   33.2200   42.0770 C   0  0  0  0  0  0  0  0  0  0  0  0
   44.6730   32.5920   42.8680 N   0  0  0  0  0  0  0  0  0  0  0  0
   45.5280   33.3020   43.6410 C   0  0  0  0  0  0  0  0  0  0  0  0
   45.5080   34.6780   43.6640 N   0  0  0  0  0  0  0  0  0  0  0  0
   44.5490   36.7660   42.9060 N   0  0  0  0  0  0  0  0  0  0  0  0
   42.8100   35.3770   41.2350 C   0  0  0  0  0  0  0  0  0  0  0  0
   41.3360   35.3300   41.7660 C   0  0  0  0  0  0  0  0  0  0  0  0
   40.7070   36.1120   40.5860 C   0  0  0  0  0  0  0  0  0  0  0  0
   41.3370   35.4480   39.4060 C   0  0  0  0  0  0  0  0  0  0  0  0
   42.7300   35.0070   39.8650 C   0  0  0  0  0  0  0  0  0  0  0  0
   46.5350   32.6120   44.4890 C   0  0  0  0  0  0  0  0  0  0  0  0
   46.5080   33.0610   45.9160 C   0  0  0  0  0  0  0  0  0  0  0  0
   45.9200   32.1140   46.8120 N   0  0  0  0  0  0  0  0  0  0  0  0
   45.8230   30.7770   46.7570 C   0  0  0  0  0  0  0  0  0  0  0  0
   45.1510   30.3250   47.8890 C   0  0  0  0  0  0  0  0  0  0  0  0
   44.8650   31.4340   48.5990 N   0  0  0  0  0  0  0  0  0  0  0  0
   45.3240   32.5280   47.9610 C   0  0  0  0  0  0  0  0  0  0  0  0
   43.0562   32.6450   41.4494 H   0  0  0  0  0  0  0  0  0  0  0  0
   43.8623   37.2563   42.3153 H   0  0  0  0  0  0  0  0  0  0  0  0
   45.1906   37.3047   43.5053 H   0  0  0  0  0  0  0  0  0  0  0  0
   43.2701   36.3753   41.2779 H   0  0  0  0  0  0  0  0  0  0  0  0
   40.9480   34.3041   41.8496 H   0  0  0  0  0  0  0  0  0  0  0  0
   41.1567   35.7228   42.7777 H   0  0  0  0  0  0  0  0  0  0  0  0
   39.6127   36.0011   40.5706 H   0  0  0  0  0  0  0  0  0  0  0  0
   40.8795   37.1975   40.6299 H   0  0  0  0  0  0  0  0  0  0  0  0
   41.4168   36.1548   38.5669 H   0  0  0  0  0  0  0  0  0  0  0  0
   40.7383   34.5939   39.0565 H   0  0  0  0  0  0  0  0  0  0  0  0
   42.8458   33.9189   39.7527 H   0  0  0  0  0  0  0  0  0  0  0  0
   43.5255   35.4759   39.2672 H   0  0  0  0  0  0  0  0  0  0  0  0
   46.3362   31.5305   44.4585 H   0  0  0  0  0  0  0  0  0  0  0  0
   47.5280   32.8600   44.0861 H   0  0  0  0  0  0  0  0  0  0  0  0
   47.5426   33.2475   46.2397 H   0  0  0  0  0  0  0  0  0  0  0  0
   45.8833   33.9656   45.9536 H   0  0  0  0  0  0  0  0  0  0  0  0
   46.2117   30.1409   45.9481 H   0  0  0  0  0  0  0  0  0  0  0  0
   44.9057   29.2846   48.1486 H   0  0  0  0  0  0  0  0  0  0  0  0
   45.2329   33.5681   48.3073 H   0  0  0  0  0  0  0  0  0  0  0  0
  1  7  1  0
  1  6  2  0
  2  1  1  0
  3  2  2  0
  3  4  1  0
  4  5  2  0
  5  6  1  0
  5 13  1  0
  8  9  1  0
  8  2  1  0
 10  9  1  0
 11 12  1  0
 11 10  1  0
 12  8  1  0
 13 14  1  0
 14 15  1  0
 15 19  1  0
 16 15  1  0
 16 17  2  0
 17 18  1  0
 19 18  2  0
  3 20  1  0
  7 21  1  0
  7 22  1  0
  8 23  1  0
  9 24  1  0
  9 25  1  0
 10 26  1  0
 10 27  1  0
 11 28  1  0
 11 29  1  0
 12 30  1  0
 12 31  1  0
 13 32  1  0
 13 33  1  0
 14 34  1  0
 14 35  1  0
 16 36  1  0
 17 37  1  0
 19 38  1  0
M  ISO  8  20  14  23  13  24  13  25  13  26  13  27  13  28  13  29  13
M  ISO  8  30  13  31  13  32   8  33   8  34   8  35   8  36  14  37  14
M  ISO  1  38  14
M  END
>  <minimizedAffinity>  (1) 
-5.30211639

>  <minimizedRMSD>  (1) 
0.942738593

$$$$
