
     RDKit          3D

 39 41  0  0  0  0  0  0  0  0999 V2000
   44.5540   35.2580   42.8580 C   0  0  0  0  0  0  0  0  0  0  0  0
   43.6690   34.6210   42.0340 C   0  0  0  0  0  0  0  0  0  0  0  0
   43.6870   33.2060   41.9820 C   0  0  0  0  0  0  0  0  0  0  0  0
   44.5930   32.5440   42.7600 N   0  0  0  0  0  0  0  0  0  0  0  0
   45.4460   33.2140   43.5550 C   0  0  0  0  0  0  0  0  0  0  0  0
   45.4410   34.5990   43.6190 N   0  0  0  0  0  0  0  0  0  0  0  0
   44.5060   36.7030   42.9020 N   0  0  0  0  0  0  0  0  0  0  0  0
   42.7450   35.3870   41.2090 C   0  0  0  0  0  0  0  0  0  0  0  0
   41.2670   35.3240   41.7640 C   0  0  0  0  0  0  0  0  0  0  0  0
   40.6270   36.1490   40.6250 C   0  0  0  0  0  0  0  0  0  0  0  0
   41.2510   35.5270   39.4130 C   0  0  0  0  0  0  0  0  0  0  0  0
   42.6190   35.0330   39.8490 C   0  0  0  0  0  0  0  0  0  0  0  0
   46.4350   32.4910   44.3950 C   0  0  0  0  0  0  0  0  0  0  0  0
   46.5800   33.0450   45.7660 C   0  0  0  0  0  0  0  0  0  0  0  0
   45.9910   32.2210   46.7830 N   0  0  0  0  0  0  0  0  0  0  0  0
   46.1520   30.9060   47.0570 C   0  0  0  0  0  0  0  0  0  0  0  0
   45.3550   30.5750   48.1530 C   0  0  0  0  0  0  0  0  0  0  0  0
   44.7340   31.7310   48.5010 N   0  0  0  0  0  0  0  0  0  0  0  0
   45.1090   32.7290   47.6830 C   0  0  0  0  0  0  0  0  0  0  0  0
   44.6420   34.0300   47.7900 O   0  0  0  0  0  0  0  0  0  0  0  0
   42.9904   32.6554   41.3328 H   0  0  0  0  0  0  0  0  0  0  0  0
   43.8269   37.2137   42.3198 H   0  0  0  0  0  0  0  0  0  0  0  0
   45.1509   37.2213   43.5155 H   0  0  0  0  0  0  0  0  0  0  0  0
   43.2187   36.3782   41.2650 H   0  0  0  0  0  0  0  0  0  0  0  0
   40.8764   34.2970   41.8152 H   0  0  0  0  0  0  0  0  0  0  0  0
   41.1030   35.6791   42.7921 H   0  0  0  0  0  0  0  0  0  0  0  0
   39.5327   36.0374   40.6148 H   0  0  0  0  0  0  0  0  0  0  0  0
   40.7963   37.2327   40.7085 H   0  0  0  0  0  0  0  0  0  0  0  0
   41.3524   36.2727   38.6108 H   0  0  0  0  0  0  0  0  0  0  0  0
   40.6338   34.7054   39.0206 H   0  0  0  0  0  0  0  0  0  0  0  0
   42.6869   33.9415   39.7303 H   0  0  0  0  0  0  0  0  0  0  0  0
   43.4206   35.4777   39.2410 H   0  0  0  0  0  0  0  0  0  0  0  0
   46.1175   31.4411   44.4775 H   0  0  0  0  0  0  0  0  0  0  0  0
   47.4123   32.5992   43.9020 H   0  0  0  0  0  0  0  0  0  0  0  0
   47.6523   33.1551   45.9852 H   0  0  0  0  0  0  0  0  0  0  0  0
   46.0490   34.0082   45.7830 H   0  0  0  0  0  0  0  0  0  0  0  0
   46.8040   30.2121   46.5062 H   0  0  0  0  0  0  0  0  0  0  0  0
   45.2520   29.5901   48.6318 H   0  0  0  0  0  0  0  0  0  0  0  0
   43.9940   34.2665   48.5001 H   0  0  0  0  0  0  0  0  0  0  0  0
  1  7  1  0
  1  6  2  0
  2  1  1  0
  3  2  2  0
  3  4  1  0
  4  5  2  0
  5  6  1  0
  5 13  1  0
  8  9  1  0
  8  2  1  0
 10  9  1  0
 11 12  1  0
 11 10  1  0
 12  8  1  0
 13 14  1  0
 14 15  1  0
 15 16  1  0
 15 19  1  0
 16 17  2  0
 17 18  1  0
 19 20  1  0
 19 18  2  0
  3 21  1  0
  7 22  1  0
  7 23  1  0
  8 24  1  0
  9 25  1  0
  9 26  1  0
 10 27  1  0
 10 28  1  0
 11 29  1  0
 11 30  1  0
 12 31  1  0
 12 32  1  0
 13 33  1  0
 13 34  1  0
 14 35  1  0
 14 36  1  0
 16 37  1  0
 17 38  1  0
 20 39  1  0
M  ISO  8  21  14  24  13  25  13  26  13  27  13  28  13  29  13  30  13
M  ISO  8  31  13  32  13  33   8  34   8  35   8  36   8  37  14  38  14
M  ISO  1  39   3
M  END
>  <minimizedAffinity>  (1) 
-6.03966236

>  <minimizedRMSD>  (1) 
0.285363406

$$$$
