
     RDKit          3D

 41 43  0  0  0  0  0  0  0  0999 V2000
   44.7600   35.4600   42.9010 C   0  0  0  0  0  0  0  0  0  0  0  0
   43.8750   34.7590   42.1350 C   0  0  0  0  0  0  0  0  0  0  0  0
   43.9710   33.3410   42.1180 C   0  0  0  0  0  0  0  0  0  0  0  0
   44.9370   32.7420   42.8600 N   0  0  0  0  0  0  0  0  0  0  0  0
   45.7940   33.4860   43.6040 C   0  0  0  0  0  0  0  0  0  0  0  0
   45.7220   34.8640   43.6380 N   0  0  0  0  0  0  0  0  0  0  0  0
   44.6390   36.8980   42.9190 N   0  0  0  0  0  0  0  0  0  0  0  0
   42.8820   35.4360   41.3360 C   0  0  0  0  0  0  0  0  0  0  0  0
   41.4270   35.2990   41.9310 C   0  0  0  0  0  0  0  0  0  0  0  0
   40.7120   36.0870   40.8060 C   0  0  0  0  0  0  0  0  0  0  0  0
   41.3180   35.4740   39.5880 C   0  0  0  0  0  0  0  0  0  0  0  0
   42.7340   35.0760   39.9780 C   0  0  0  0  0  0  0  0  0  0  0  0
   46.8600   32.8420   44.4100 C   0  0  0  0  0  0  0  0  0  0  0  0
   46.5590   32.7850   45.8670 C   0  0  0  0  0  0  0  0  0  0  0  0
   46.9130   31.5350   46.4780 N   0  0  0  0  0  0  0  0  0  0  0  0
   47.6240   30.4990   46.0270 C   0  0  0  0  0  0  0  0  0  0  0  0
   47.6900   29.5070   46.9970 C   0  0  0  0  0  0  0  0  0  0  0  0
   46.9860   30.0080   48.0370 N   0  0  0  0  0  0  0  0  0  0  0  0
   46.5140   31.2280   47.7380 C   0  0  0  0  0  0  0  0  0  0  0  0
   45.7280   31.9260   48.7430 C   0  0  0  0  0  0  0  0  0  0  0  0
   45.1350   31.4430   49.7450 O   0  0  0  0  0  0  0  0  0  0  0  0
   45.5310   33.3000   48.7060 O   0  0  0  0  0  0  0  0  0  0  0  0
   43.2750   32.7399   41.5144 H   0  0  0  0  0  0  0  0  0  0  0  0
   43.9080   37.3604   42.3597 H   0  0  0  0  0  0  0  0  0  0  0  0
   45.2836   37.4619   43.4911 H   0  0  0  0  0  0  0  0  0  0  0  0
   43.3059   36.4503   41.3743 H   0  0  0  0  0  0  0  0  0  0  0  0
   41.0918   34.2533   41.9955 H   0  0  0  0  0  0  0  0  0  0  0  0
   41.2734   35.6493   42.9624 H   0  0  0  0  0  0  0  0  0  0  0  0
   39.6233   35.9322   40.8354 H   0  0  0  0  0  0  0  0  0  0  0  0
   40.8373   37.1779   40.8708 H   0  0  0  0  0  0  0  0  0  0  0  0
   41.3391   36.2023   38.7639 H   0  0  0  0  0  0  0  0  0  0  0  0
   40.7368   34.6065   39.2422 H   0  0  0  0  0  0  0  0  0  0  0  0
   42.8741   33.9922   39.8529 H   0  0  0  0  0  0  0  0  0  0  0  0
   43.4812   35.5777   39.3455 H   0  0  0  0  0  0  0  0  0  0  0  0
   46.9987   31.8140   44.0439 H   0  0  0  0  0  0  0  0  0  0  0  0
   47.7654   33.4557   44.2933 H   0  0  0  0  0  0  0  0  0  0  0  0
   47.1178   33.5883   46.3693 H   0  0  0  0  0  0  0  0  0  0  0  0
   45.4706   32.9011   45.9766 H   0  0  0  0  0  0  0  0  0  0  0  0
   48.0897   30.4396   45.0322 H   0  0  0  0  0  0  0  0  0  0  0  0
   48.1996   28.5342   46.9335 H   0  0  0  0  0  0  0  0  0  0  0  0
   44.9897   33.7415   49.4075 H   0  0  0  0  0  0  0  0  0  0  0  0
  1  7  1  0
  1  6  2  0
  2  1  1  0
  3  2  2  0
  3  4  1  0
  4  5  2  0
  5  6  1  0
  5 13  1  0
  8  9  1  0
  8  2  1  0
 10  9  1  0
 11 12  1  0
 11 10  1  0
 12  8  1  0
 13 14  1  0
 14 15  1  0
 15 19  1  0
 16 15  1  0
 16 17  2  0
 17 18  1  0
 19 18  2  0
 19 20  1  0
 20 21  2  0
 22 20  1  0
  3 23  1  0
  7 24  1  0
  7 25  1  0
  8 26  1  0
  9 27  1  0
  9 28  1  0
 10 29  1  0
 10 30  1  0
 11 31  1  0
 11 32  1  0
 12 33  1  0
 12 34  1  0
 13 35  1  0
 13 36  1  0
 14 37  1  0
 14 38  1  0
 16 39  1  0
 17 40  1  0
 22 41  1  0
M  ISO  8  23  14  26  13  27  13  28  13  29  13  30  13  31  13  32  13
M  ISO  8  33  13  34  13  35   8  36   8  37   8  38   8  39  14  40  14
M  ISO  1  41   3
M  END
>  <minimizedAffinity>  (1) 
-5.86182356

>  <minimizedRMSD>  (1) 
1.36340511

$$$$
