
     RDKit          3D

 40 42  0  0  0  0  0  0  0  0999 V2000
   44.8100   35.5050   42.9760 C   0  0  0  0  0  0  0  0  0  0  0  0
   43.9620   34.7810   42.1890 C   0  0  0  0  0  0  0  0  0  0  0  0
   44.0710   33.3600   42.2030 C   0  0  0  0  0  0  0  0  0  0  0  0
   45.0200   32.7920   43.0020 N   0  0  0  0  0  0  0  0  0  0  0  0
   45.8310   33.5560   43.7580 C   0  0  0  0  0  0  0  0  0  0  0  0
   45.7430   34.9400   43.7600 N   0  0  0  0  0  0  0  0  0  0  0  0
   44.6720   36.9410   42.9580 N   0  0  0  0  0  0  0  0  0  0  0  0
   42.9960   35.4290   41.3360 C   0  0  0  0  0  0  0  0  0  0  0  0
   41.5220   35.3090   41.8890 C   0  0  0  0  0  0  0  0  0  0  0  0
   40.8310   36.0210   40.7070 C   0  0  0  0  0  0  0  0  0  0  0  0
   41.4960   35.4140   39.5300 C   0  0  0  0  0  0  0  0  0  0  0  0
   42.9020   35.0340   39.9840 C   0  0  0  0  0  0  0  0  0  0  0  0
   46.8690   32.9350   44.6190 C   0  0  0  0  0  0  0  0  0  0  0  0
   46.4630   32.7850   46.0420 C   0  0  0  0  0  0  0  0  0  0  0  0
   45.9740   31.4710   46.3590 N   0  0  0  0  0  0  0  0  0  0  0  0
   45.7900   30.3790   45.5900 C   0  0  0  0  0  0  0  0  0  0  0  0
   45.2920   29.3490   46.3790 C   0  0  0  0  0  0  0  0  0  0  0  0
   45.1940   29.8710   47.6250 N   0  0  0  0  0  0  0  0  0  0  0  0
   45.6040   31.1550   47.6280 C   0  0  0  0  0  0  0  0  0  0  0  0
   45.6250   32.0180   48.8210 C   0  0  0  0  0  0  0  0  0  0  0  0
   45.2090   31.5970   49.9280 O   0  0  0  0  0  0  0  0  0  0  0  0
   43.4071   32.7372   41.5855 H   0  0  0  0  0  0  0  0  0  0  0  0
   43.9592   37.3824   42.3597 H   0  0  0  0  0  0  0  0  0  0  0  0
   45.2863   37.5248   43.5434 H   0  0  0  0  0  0  0  0  0  0  0  0
   43.4136   36.4464   41.3564 H   0  0  0  0  0  0  0  0  0  0  0  0
   41.1967   34.2643   42.0015 H   0  0  0  0  0  0  0  0  0  0  0  0
   41.3338   35.7173   42.8929 H   0  0  0  0  0  0  0  0  0  0  0  0
   39.7496   35.8198   40.6996 H   0  0  0  0  0  0  0  0  0  0  0  0
   40.9210   37.1167   40.7434 H   0  0  0  0  0  0  0  0  0  0  0  0
   41.5449   36.1387   38.7039 H   0  0  0  0  0  0  0  0  0  0  0  0
   40.9420   34.5366   39.1650 H   0  0  0  0  0  0  0  0  0  0  0  0
   43.0527   33.9483   39.8920 H   0  0  0  0  0  0  0  0  0  0  0  0
   43.6700   35.5240   39.3675 H   0  0  0  0  0  0  0  0  0  0  0  0
   47.0997   31.9370   44.2179 H   0  0  0  0  0  0  0  0  0  0  0  0
   47.7390   33.6080   44.6051 H   0  0  0  0  0  0  0  0  0  0  0  0
   47.3355   32.9955   46.6779 H   0  0  0  0  0  0  0  0  0  0  0  0
   45.6388   33.4911   46.2215 H   0  0  0  0  0  0  0  0  0  0  0  0
   46.0001   30.3138   44.5122 H   0  0  0  0  0  0  0  0  0  0  0  0
   45.0330   28.3286   46.0600 H   0  0  0  0  0  0  0  0  0  0  0  0
   46.0103   33.0452   48.7410 H   0  0  0  0  0  0  0  0  0  0  0  0
  1  6  2  0
  2  3  2  0
  2  1  1  0
  3  4  1  0
  4  5  2  0
  5  6  1  0
  5 13  1  0
  7  1  1  0
  8  9  1  0
  8  2  1  0
 10  9  1  0
 11 12  1  0
 11 10  1  0
 12  8  1  0
 13 14  1  0
 14 15  1  0
 15 19  1  0
 16 15  1  0
 16 17  2  0
 17 18  1  0
 18 19  2  0
 19 20  1  0
 20 21  2  0
  3 22  1  0
  7 23  1  0
  7 24  1  0
  8 25  1  0
  9 26  1  0
  9 27  1  0
 10 28  1  0
 10 29  1  0
 11 30  1  0
 11 31  1  0
 12 32  1  0
 12 33  1  0
 13 34  1  0
 13 35  1  0
 14 36  1  0
 14 37  1  0
 16 38  1  0
 17 39  1  0
 20 40  1  0
M  ISO  8  22  14  25  13  26  13  27  13  28  13  29  13  30  13  31  13
M  ISO  8  32  13  33  13  34   8  35   8  36   8  37   8  38  14  39  14
M  ISO  1  40   6
M  END
>  <minimizedAffinity>  (1) 
-5.39956284

>  <minimizedRMSD>  (1) 
1.06098938

$$$$
