
     RDKit          3D

 41 43  0  0  0  0  0  0  0  0999 V2000
   44.8030   35.4630   43.1230 C   0  0  0  0  0  0  0  0  0  0  0  0
   43.9920   34.7230   42.3060 C   0  0  0  0  0  0  0  0  0  0  0  0
   44.0980   33.3110   42.3490 C   0  0  0  0  0  0  0  0  0  0  0  0
   45.0010   32.7500   43.1980 N   0  0  0  0  0  0  0  0  0  0  0  0
   45.7790   33.5230   43.9830 C   0  0  0  0  0  0  0  0  0  0  0  0
   45.6970   34.9010   43.9640 N   0  0  0  0  0  0  0  0  0  0  0  0
   44.6730   36.8990   43.0790 N   0  0  0  0  0  0  0  0  0  0  0  0
   43.0710   35.3690   41.4000 C   0  0  0  0  0  0  0  0  0  0  0  0
   41.5740   35.2770   41.8930 C   0  0  0  0  0  0  0  0  0  0  0  0
   40.9420   35.9780   40.6710 C   0  0  0  0  0  0  0  0  0  0  0  0
   41.6520   35.3230   39.5270 C   0  0  0  0  0  0  0  0  0  0  0  0
   43.0230   34.9360   40.0570 C   0  0  0  0  0  0  0  0  0  0  0  0
   46.7720   32.9120   44.9030 C   0  0  0  0  0  0  0  0  0  0  0  0
   46.3020   32.7890   46.3070 C   0  0  0  0  0  0  0  0  0  0  0  0
   45.8840   31.4550   46.6540 N   0  0  0  0  0  0  0  0  0  0  0  0
   45.7050   30.3460   45.9030 C   0  0  0  0  0  0  0  0  0  0  0  0
   45.2900   29.3100   46.7220 C   0  0  0  0  0  0  0  0  0  0  0  0
   45.2300   29.8370   47.9670 N   0  0  0  0  0  0  0  0  0  0  0  0
   45.5850   31.1290   47.9410 C   0  0  0  0  0  0  0  0  0  0  0  0
   45.6030   31.9510   49.2050 C   0  0  0  0  0  0  0  0  0  0  0  0
   43.4630   32.6809   41.7089 H   0  0  0  0  0  0  0  0  0  0  0  0
   43.9931   37.3352   42.4399 H   0  0  0  0  0  0  0  0  0  0  0  0
   45.2600   37.4881   43.6866 H   0  0  0  0  0  0  0  0  0  0  0  0
   43.5006   36.3815   41.4146 H   0  0  0  0  0  0  0  0  0  0  0  0
   41.2303   34.2385   42.0090 H   0  0  0  0  0  0  0  0  0  0  0  0
   41.3498   35.7045   42.8814 H   0  0  0  0  0  0  0  0  0  0  0  0
   39.8581   35.7967   40.6239 H   0  0  0  0  0  0  0  0  0  0  0  0
   41.0476   37.0728   40.6870 H   0  0  0  0  0  0  0  0  0  0  0  0
   41.7507   36.0244   38.6854 H   0  0  0  0  0  0  0  0  0  0  0  0
   41.0995   34.4472   39.1559 H   0  0  0  0  0  0  0  0  0  0  0  0
   43.1567   33.8454   40.0044 H   0  0  0  0  0  0  0  0  0  0  0  0
   43.8243   35.3978   39.4615 H   0  0  0  0  0  0  0  0  0  0  0  0
   47.0148   31.9059   44.5305 H   0  0  0  0  0  0  0  0  0  0  0  0
   47.6448   33.5813   44.9179 H   0  0  0  0  0  0  0  0  0  0  0  0
   47.1235   33.0827   46.9770 H   0  0  0  0  0  0  0  0  0  0  0  0
   45.4244   33.4434   46.4149 H   0  0  0  0  0  0  0  0  0  0  0  0
   45.8634   30.2775   44.8166 H   0  0  0  0  0  0  0  0  0  0  0  0
   45.0581   28.2769   46.4239 H   0  0  0  0  0  0  0  0  0  0  0  0
   45.5883   31.2817   50.0779 H   0  0  0  0  0  0  0  0  0  0  0  0
   46.5148   32.5658   49.2296 H   0  0  0  0  0  0  0  0  0  0  0  0
   44.7190   32.6051   49.2296 H   0  0  0  0  0  0  0  0  0  0  0  0
  1  6  2  0
  2  3  2  0
  2  1  1  0
  3  4  1  0
  4  5  2  0
  5 13  1  0
  6  5  1  0
  7  1  1  0
  8  9  1  0
  8  2  1  0
 10  9  1  0
 11 12  1  0
 11 10  1  0
 12  8  1  0
 13 14  1  0
 14 15  1  0
 15 19  1  0
 16 15  1  0
 16 17  2  0
 17 18  1  0
 19 18  2  0
 19 20  1  0
  3 21  1  0
  7 22  1  0
  7 23  1  0
  8 24  1  0
  9 25  1  0
  9 26  1  0
 10 27  1  0
 10 28  1  0
 11 29  1  0
 11 30  1  0
 12 31  1  0
 12 32  1  0
 13 33  1  0
 13 34  1  0
 14 35  1  0
 14 36  1  0
 16 37  1  0
 17 38  1  0
 20 39  1  0
 20 40  1  0
 20 41  1  0
M  ISO  8  21  14  24  13  25  13  26  13  27  13  28  13  29  13  30  13
M  ISO  8  31  13  32  13  33   8  34   8  35   8  36   8  37  14  38  14
M  ISO  3  39   8  40   8  41   8
M  END
>  <minimizedAffinity>  (1) 
-5.45386648

>  <minimizedRMSD>  (1) 
0.882165909

$$$$
