
     RDKit          3D

 45 48  0  0  0  0  0  0  0  0999 V2000
   44.1000   35.3290   42.8290 C   0  0  0  0  0  0  0  0  0  0  0  0
   43.4420   34.8650   41.7270 C   0  0  0  0  0  0  0  0  0  0  0  0
   44.2070   34.3490   40.6530 C   0  0  0  0  0  0  0  0  0  0  0  0
   45.5630   34.3390   40.7590 N   0  0  0  0  0  0  0  0  0  0  0  0
   46.1670   34.8130   41.8750 C   0  0  0  0  0  0  0  0  0  0  0  0
   45.4450   35.3200   42.9390 N   0  0  0  0  0  0  0  0  0  0  0  0
   43.3050   35.8380   43.9250 N   0  0  0  0  0  0  0  0  0  0  0  0
   42.0020   34.9260   41.6450 C   0  0  0  0  0  0  0  0  0  0  0  0
   41.3650   33.5570   41.1810 C   0  0  0  0  0  0  0  0  0  0  0  0
   39.9000   34.0480   41.1460 C   0  0  0  0  0  0  0  0  0  0  0  0
   40.0290   35.3500   40.4340 C   0  0  0  0  0  0  0  0  0  0  0  0
   41.4050   35.8960   40.8100 C   0  0  0  0  0  0  0  0  0  0  0  0
   47.6470   34.8150   41.9970 C   0  0  0  0  0  0  0  0  0  0  0  0
   48.1540   34.1250   43.2120 C   0  0  0  0  0  0  0  0  0  0  0  0
   48.0330   32.6950   43.1530 N   0  0  0  0  0  0  0  0  0  0  0  0
   48.4390   31.7980   42.2260 C   0  0  0  0  0  0  0  0  0  0  0  0
   48.0730   30.5240   42.6440 C   0  0  0  0  0  0  0  0  0  0  0  0
   47.4470   30.7060   43.8350 N   0  0  0  0  0  0  0  0  0  0  0  0
   47.4140   32.0070   44.1560 C   0  0  0  0  0  0  0  0  0  0  0  0
   46.8040   32.5170   45.3810 C   0  0  0  0  0  0  0  0  0  0  0  0
   45.6430   33.2740   45.4850 C   0  0  0  0  0  0  0  0  0  0  0  0
   45.3880   33.5670   46.8090 C   0  0  0  0  0  0  0  0  0  0  0  0
   46.3950   32.9850   47.4810 N   0  0  0  0  0  0  0  0  0  0  0  0
   47.2460   32.3580   46.6630 N   0  0  0  0  0  0  0  0  0  0  0  0
   43.7134   33.9630   39.7489 H   0  0  0  0  0  0  0  0  0  0  0  0
   42.2775   35.8504   43.8537 H   0  0  0  0  0  0  0  0  0  0  0  0
   43.7664   36.1881   44.7768 H   0  0  0  0  0  0  0  0  0  0  0  0
   41.7862   35.2054   42.6868 H   0  0  0  0  0  0  0  0  0  0  0  0
   41.7269   33.2355   40.1932 H   0  0  0  0  0  0  0  0  0  0  0  0
   41.5784   32.6741   41.8014 H   0  0  0  0  0  0  0  0  0  0  0  0
   39.2573   33.3498   40.5897 H   0  0  0  0  0  0  0  0  0  0  0  0
   39.4346   34.1290   42.1394 H   0  0  0  0  0  0  0  0  0  0  0  0
   39.2398   36.0440   40.7589 H   0  0  0  0  0  0  0  0  0  0  0  0
   39.9256   35.2280   39.3457 H   0  0  0  0  0  0  0  0  0  0  0  0
   42.0142   36.0479   39.9068 H   0  0  0  0  0  0  0  0  0  0  0  0
   41.3239   36.8672   41.3202 H   0  0  0  0  0  0  0  0  0  0  0  0
   48.0677   34.3131   41.1132 H   0  0  0  0  0  0  0  0  0  0  0  0
   47.9587   35.8670   42.0748 H   0  0  0  0  0  0  0  0  0  0  0  0
   49.2167   34.3793   43.3386 H   0  0  0  0  0  0  0  0  0  0  0  0
   47.5389   34.4665   44.0576 H   0  0  0  0  0  0  0  0  0  0  0  0
   48.9717   32.0374   41.2938 H   0  0  0  0  0  0  0  0  0  0  0  0
   48.2521   29.5725   42.1220 H   0  0  0  0  0  0  0  0  0  0  0  0
   45.0193   33.5926   44.6368 H   0  0  0  0  0  0  0  0  0  0  0  0
   44.5490   34.1467   47.2214 H   0  0  0  0  0  0  0  0  0  0  0  0
   46.4990   33.0180   48.5052 H   0  0  0  0  0  0  0  0  0  0  0  0
  1  6  2  0
  1  7  1  0
  2  1  1  0
  3  4  1  0
  3  2  2  0
  4  5  2  0
  5 13  1  0
  5  6  1  0
  8  2  1  0
  9  8  1  0
 10  9  1  0
 11 12  1  0
 11 10  1  0
 12  8  1  0
 13 14  1  0
 15 14  1  0
 15 19  1  0
 16 17  2  0
 16 15  1  0
 17 18  1  0
 18 19  2  0
 19 20  1  0
 20 21  1  0
 20 24  2  0
 21 22  2  0
 22 23  1  0
 24 23  1  0
  3 25  1  0
  7 26  1  0
  7 27  1  0
  8 28  1  0
  9 29  1  0
  9 30  1  0
 10 31  1  0
 10 32  1  0
 11 33  1  0
 11 34  1  0
 12 35  1  0
 12 36  1  0
 13 37  1  0
 13 38  1  0
 14 39  1  0
 14 40  1  0
 16 41  1  0
 17 42  1  0
 21 43  1  0
 22 44  1  0
 23 45  1  0
M  ISO  8  25  14  28  13  29  13  30  13  31  13  32  13  33  13  34  13
M  ISO  8  35  13  36  13  37   8  38   8  39   8  40   8  41  14  42  14
M  ISO  3  43  14  44  14  45   9
M  END
>  <minimizedAffinity>  (1) 
-5.86574268

>  <minimizedRMSD>  (1) 
3.27769661

$$$$
