
     RDKit          3D

 43 46  0  0  0  0  0  0  0  0999 V2000
   44.4470   34.1480   40.2860 C   0  0  0  0  0  0  0  0  0  0  0  0
   43.1480   34.5760   40.3630 C   0  0  0  0  0  0  0  0  0  0  0  0
   42.6900   35.1350   41.5820 C   0  0  0  0  0  0  0  0  0  0  0  0
   43.5610   35.2230   42.6260 N   0  0  0  0  0  0  0  0  0  0  0  0
   44.8350   34.7840   42.5000 C   0  0  0  0  0  0  0  0  0  0  0  0
   45.2950   34.2400   41.3250 N   0  0  0  0  0  0  0  0  0  0  0  0
   44.8920   33.5930   39.0280 N   0  0  0  0  0  0  0  0  0  0  0  0
   42.2510   34.4350   39.2390 C   0  0  0  0  0  0  0  0  0  0  0  0
   41.3000   35.6820   39.0640 C   0  0  0  0  0  0  0  0  0  0  0  0
   40.5070   35.1260   37.8570 C   0  0  0  0  0  0  0  0  0  0  0  0
   40.2350   33.7300   38.2820 C   0  0  0  0  0  0  0  0  0  0  0  0
   41.3790   33.3260   39.1970 C   0  0  0  0  0  0  0  0  0  0  0  0
   45.7810   34.8720   43.6380 C   0  0  0  0  0  0  0  0  0  0  0  0
   45.6250   33.7830   44.6370 C   0  0  0  0  0  0  0  0  0  0  0  0
   46.5760   32.7140   44.4710 N   0  0  0  0  0  0  0  0  0  0  0  0
   47.3960   32.3970   43.4450 C   0  0  0  0  0  0  0  0  0  0  0  0
   48.1180   31.2580   43.7930 C   0  0  0  0  0  0  0  0  0  0  0  0
   47.6940   30.9320   45.0400 N   0  0  0  0  0  0  0  0  0  0  0  0
   46.7650   31.7960   45.4690 C   0  0  0  0  0  0  0  0  0  0  0  0
   46.1220   31.7030   46.7780 C   0  0  0  0  0  0  0  0  0  0  0  0
   45.0930   31.0380   47.3370 N   0  0  0  0  0  0  0  0  0  0  0  0
   45.0200   31.4030   48.6040 O   0  0  0  0  0  0  0  0  0  0  0  0
   45.9630   32.2780   48.8800 C   0  0  0  0  0  0  0  0  0  0  0  0
   46.6730   32.4860   47.7480 N   0  0  0  0  0  0  0  0  0  0  0  0
   41.6538   35.4901   41.6831 H   0  0  0  0  0  0  0  0  0  0  0  0
   45.8611   33.2591   38.9265 H   0  0  0  0  0  0  0  0  0  0  0  0
   44.2401   33.5314   38.2329 H   0  0  0  0  0  0  0  0  0  0  0  0
   42.9998   34.3075   38.4434 H   0  0  0  0  0  0  0  0  0  0  0  0
   40.6640   35.8562   39.9444 H   0  0  0  0  0  0  0  0  0  0  0  0
   41.7825   36.6620   38.9342 H   0  0  0  0  0  0  0  0  0  0  0  0
   41.1089   35.1534   36.9367 H   0  0  0  0  0  0  0  0  0  0  0  0
   39.6002   35.7016   37.6194 H   0  0  0  0  0  0  0  0  0  0  0  0
   39.2788   33.6772   38.8233 H   0  0  0  0  0  0  0  0  0  0  0  0
   40.1632   33.0573   37.4146 H   0  0  0  0  0  0  0  0  0  0  0  0
   41.0009   33.0982   40.2046 H   0  0  0  0  0  0  0  0  0  0  0  0
   41.8904   32.4239   38.8300 H   0  0  0  0  0  0  0  0  0  0  0  0
   46.8058   34.8327   43.2402 H   0  0  0  0  0  0  0  0  0  0  0  0
   45.5659   35.8164   44.1594 H   0  0  0  0  0  0  0  0  0  0  0  0
   45.7533   34.2109   45.6422 H   0  0  0  0  0  0  0  0  0  0  0  0
   44.6233   33.3517   44.4935 H   0  0  0  0  0  0  0  0  0  0  0  0
   47.4793   32.9458   42.4953 H   0  0  0  0  0  0  0  0  0  0  0  0
   48.8714   30.7343   43.1862 H   0  0  0  0  0  0  0  0  0  0  0  0
   46.1416   32.7543   49.8553 H   0  0  0  0  0  0  0  0  0  0  0  0
  1  2  2  0
  1  6  1  0
  2  3  1  0
  3  4  2  0
  5  4  1  0
  5 13  1  0
  6  5  2  0
  7  1  1  0
  8  2  1  0
  9  8  1  0
 10 11  1  0
 10  9  1  0
 11 12  1  0
 12  8  1  0
 13 14  1  0
 15 14  1  0
 15 19  1  0
 16 17  2  0
 16 15  1  0
 17 18  1  0
 18 19  2  0
 19 20  1  0
 20 21  2  0
 20 24  1  0
 21 22  1  0
 22 23  1  0
 24 23  2  0
  3 25  1  0
  7 26  1  0
  7 27  1  0
  8 28  1  0
  9 29  1  0
  9 30  1  0
 10 31  1  0
 10 32  1  0
 11 33  1  0
 11 34  1  0
 12 35  1  0
 12 36  1  0
 13 37  1  0
 13 38  1  0
 14 39  1  0
 14 40  1  0
 16 41  1  0
 17 42  1  0
 23 43  1  0
M  ISO  8  25  14  28  13  29  13  30  13  31  13  32  13  33  13  34  13
M  ISO  8  35  13  36  13  37   8  38   8  39   8  40   8  41  14  42  14
M  ISO  1  43  14
M  END
>  <minimizedAffinity>  (1) 
-5.39848757

>  <minimizedRMSD>  (1) 
3.18687701

$$$$
