
     RDKit          3D

 51 54  0  0  1  0  0  0  0  0999 V2000
   44.8300   35.5370   42.9840 C   0  0  0  0  0  0  0  0  0  0  0  0
   43.9890   34.7950   42.2110 C   0  0  0  0  0  0  0  0  0  0  0  0
   44.1040   33.3960   42.2630 C   0  0  0  0  0  0  0  0  0  0  0  0
   45.0480   32.8410   43.0800 N   0  0  0  0  0  0  0  0  0  0  0  0
   45.8530   33.6190   43.8220 C   0  0  0  0  0  0  0  0  0  0  0  0
   45.7650   34.9930   43.7940 N   0  0  0  0  0  0  0  0  0  0  0  0
   44.6930   36.9790   42.9290 N   0  0  0  0  0  0  0  0  0  0  0  0
   43.0230   35.4380   41.3470 C   0  0  0  0  0  0  0  0  0  0  0  0
   41.5360   35.2860   41.8910 C   0  0  0  0  0  0  0  0  0  0  0  0
   40.8480   36.0020   40.7090 C   0  0  0  0  0  0  0  0  0  0  0  0
   41.5280   35.3760   39.5320 C   0  0  0  0  0  0  0  0  0  0  0  0
   42.9200   35.0110   40.0140 C   0  0  0  0  0  0  0  0  0  0  0  0
   46.8840   33.0320   44.7070 C   0  0  0  0  0  0  0  0  0  0  0  0
   46.4170   32.7880   46.1060 C   0  0  0  0  0  0  0  0  0  0  0  0
   46.3490   31.4000   46.4490 N   0  0  0  0  0  0  0  0  0  0  0  0
   45.6720   30.3850   45.9020 C   0  0  0  0  0  0  0  0  0  0  0  0
   45.9330   29.2170   46.5920 C   0  0  0  0  0  0  0  0  0  0  0  0
   46.7870   29.5820   47.5640 N   0  0  0  0  0  0  0  0  0  0  0  0
   47.0630   30.9120   47.5040 C   0  0  0  0  0  0  0  0  0  0  0  0
   48.1640   31.7180   48.6510 S   0  0  0  0  0  0  0  0  0  0  0  0
   49.2750   29.3240   49.1830 N   0  0  0  0  0  0  0  0  0  0  0  0
   50.6650   29.4300   48.8310 C   0  0  0  0  0  0  0  0  0  0  0  0
   51.0630   30.8780   49.1360 C   0  0  0  0  0  0  0  0  0  0  0  0
   50.1610   31.1310   50.3300 C   0  0  0  0  0  0  0  0  0  0  0  0
   48.8600   30.5320   49.8320 C   0  0  1  0  0  0  0  0  0  0  0  0
   43.4449   32.7579   41.6560 H   0  0  0  0  0  0  0  0  0  0  0  0
   43.9842   37.4060   42.3156 H   0  0  0  0  0  0  0  0  0  0  0  0
   45.3045   37.5767   43.5033 H   0  0  0  0  0  0  0  0  0  0  0  0
   43.4344   36.4581   41.3598 H   0  0  0  0  0  0  0  0  0  0  0  0
   41.2259   34.2351   41.9881 H   0  0  0  0  0  0  0  0  0  0  0  0
   41.3312   35.6773   42.8984 H   0  0  0  0  0  0  0  0  0  0  0  0
   39.7658   35.8055   40.6972 H   0  0  0  0  0  0  0  0  0  0  0  0
   40.9346   37.0981   40.7416 H   0  0  0  0  0  0  0  0  0  0  0  0
   41.5853   36.0896   38.6969 H   0  0  0  0  0  0  0  0  0  0  0  0
   40.9797   34.4959   39.1648 H   0  0  0  0  0  0  0  0  0  0  0  0
   43.0659   33.9223   39.9547 H   0  0  0  0  0  0  0  0  0  0  0  0
   43.6878   35.4914   39.3897 H   0  0  0  0  0  0  0  0  0  0  0  0
   47.2033   32.0715   44.2764 H   0  0  0  0  0  0  0  0  0  0  0  0
   47.7043   33.7623   44.7681 H   0  0  0  0  0  0  0  0  0  0  0  0
   47.1137   33.2843   46.7976 H   0  0  0  0  0  0  0  0  0  0  0  0
   45.3966   33.1916   46.1826 H   0  0  0  0  0  0  0  0  0  0  0  0
   45.0054   30.4678   45.0309 H   0  0  0  0  0  0  0  0  0  0  0  0
   45.5317   28.2127   46.3910 H   0  0  0  0  0  0  0  0  0  0  0  0
   49.1410   28.5266   49.8210 H   0  0  0  0  0  0  0  0  0  0  0  0
   50.8075   29.2104   47.7626 H   0  0  0  0  0  0  0  0  0  0  0  0
   51.2812   28.7134   49.3938 H   0  0  0  0  0  0  0  0  0  0  0  0
   52.1276   30.9657   49.3985 H   0  0  0  0  0  0  0  0  0  0  0  0
   50.9480   31.5842   48.3005 H   0  0  0  0  0  0  0  0  0  0  0  0
   50.5262   30.6152   51.2303 H   0  0  0  0  0  0  0  0  0  0  0  0
   50.0910   32.1859   50.6337 H   0  0  0  0  0  0  0  0  0  0  0  0
   48.1020   30.3274   50.6024 H   0  0  0  0  0  0  0  0  0  0  0  0
  1  6  2  0
  2  3  2  0
  2  1  1  0
  3  4  1  0
  4  5  2  0
  5 13  1  0
  6  5  1  0
  7  1  1  0
  8  9  1  0
  8  2  1  0
 10  9  1  0
 11 12  1  0
 11 10  1  0
 12  8  1  0
 13 14  1  0
 14 15  1  0
 15 19  1  0
 16 15  1  0
 16 17  2  0
 17 18  1  0
 19 18  2  0
 19 20  1  0
 21 25  1  0
 22 23  1  0
 22 21  1  0
 23 24  1  0
 25 20  1  0
 25 24  1  0
  3 26  1  0
  7 27  1  0
  7 28  1  0
  8 29  1  0
  9 30  1  0
  9 31  1  0
 10 32  1  0
 10 33  1  0
 11 34  1  0
 11 35  1  0
 12 36  1  0
 12 37  1  0
 13 38  1  0
 13 39  1  0
 14 40  1  0
 14 41  1  0
 16 42  1  0
 17 43  1  0
 21 44  1  0
 22 45  1  0
 22 46  1  0
 23 47  1  0
 23 48  1  0
 24 49  1  0
 24 50  1  0
 25 51  1  1
M  ISO  8  26  14  29  13  30  13  31  13  32  13  33  13  34  13  35  13
M  ISO  8  36  13  37  13  38   8  39   8  40   8  41   8  42  14  43  14
M  ISO  8  44   5  45  13  46  13  47  13  48  13  49  13  50  13  51  13
M  END
>  <minimizedAffinity>  (1) 
-5.73663044

>  <minimizedRMSD>  (1) 
2.42856002

$$$$
