
     RDKit          3D

 48 50  0  0  0  0  0  0  0  0999 V2000
   44.0440   35.2670   42.6820 C   0  0  0  0  0  0  0  0  0  0  0  0
   43.3490   34.8190   41.6010 C   0  0  0  0  0  0  0  0  0  0  0  0
   44.0780   34.2920   40.5230 C   0  0  0  0  0  0  0  0  0  0  0  0
   45.4390   34.2430   40.5790 N   0  0  0  0  0  0  0  0  0  0  0  0
   46.0810   34.7020   41.6760 C   0  0  0  0  0  0  0  0  0  0  0  0
   45.3860   35.2280   42.7620 N   0  0  0  0  0  0  0  0  0  0  0  0
   43.2790   35.7980   43.7970 N   0  0  0  0  0  0  0  0  0  0  0  0
   41.9040   34.9060   41.5610 C   0  0  0  0  0  0  0  0  0  0  0  0
   41.2300   33.5200   41.1750 C   0  0  0  0  0  0  0  0  0  0  0  0
   39.7840   34.0380   41.1630 C   0  0  0  0  0  0  0  0  0  0  0  0
   39.9080   35.3160   40.4000 C   0  0  0  0  0  0  0  0  0  0  0  0
   41.3150   35.8260   40.6760 C   0  0  0  0  0  0  0  0  0  0  0  0
   47.5560   34.6760   41.7770 C   0  0  0  0  0  0  0  0  0  0  0  0
   48.0780   34.2760   43.1160 C   0  0  0  0  0  0  0  0  0  0  0  0
   48.0490   32.8520   43.3270 N   0  0  0  0  0  0  0  0  0  0  0  0
   48.6180   31.8350   42.6570 C   0  0  0  0  0  0  0  0  0  0  0  0
   48.2740   30.6370   43.2800 C   0  0  0  0  0  0  0  0  0  0  0  0
   47.4970   30.9870   44.3200 N   0  0  0  0  0  0  0  0  0  0  0  0
   47.3370   32.3370   44.3790 C   0  0  0  0  0  0  0  0  0  0  0  0
   46.3640   33.1160   45.6480 S   0  0  0  0  0  0  0  0  0  0  0  0
   46.3020   32.1180   47.1540 C   0  0  0  0  0  0  0  0  0  0  0  0
   47.5460   32.3160   48.0020 C   0  0  0  0  0  0  0  0  0  0  0  0
   45.1110   32.6010   47.9940 C   0  0  0  0  0  0  0  0  0  0  0  0
   43.5506   33.9185   39.6329 H   0  0  0  0  0  0  0  0  0  0  0  0
   42.2508   35.8325   43.7462 H   0  0  0  0  0  0  0  0  0  0  0  0
   43.7648   36.1400   44.6384 H   0  0  0  0  0  0  0  0  0  0  0  0
   41.7156   35.2448   42.5904 H   0  0  0  0  0  0  0  0  0  0  0  0
   41.5559   33.1488   40.1922 H   0  0  0  0  0  0  0  0  0  0  0  0
   41.4479   32.6595   41.8246 H   0  0  0  0  0  0  0  0  0  0  0  0
   39.1127   33.3325   40.6514 H   0  0  0  0  0  0  0  0  0  0  0  0
   39.3543   34.1655   42.1675 H   0  0  0  0  0  0  0  0  0  0  0  0
   39.1609   36.0445   40.7481 H   0  0  0  0  0  0  0  0  0  0  0  0
   39.7349   35.1649   39.3243 H   0  0  0  0  0  0  0  0  0  0  0  0
   41.8916   35.8768   39.7406 H   0  0  0  0  0  0  0  0  0  0  0  0
   41.2951   36.8377   41.1074 H   0  0  0  0  0  0  0  0  0  0  0  0
   47.9387   33.9628   41.0321 H   0  0  0  0  0  0  0  0  0  0  0  0
   47.8995   35.7064   41.6027 H   0  0  0  0  0  0  0  0  0  0  0  0
   49.1181   34.6227   43.2050 H   0  0  0  0  0  0  0  0  0  0  0  0
   47.4267   34.7350   43.8744 H   0  0  0  0  0  0  0  0  0  0  0  0
   49.2516   31.9325   41.7631 H   0  0  0  0  0  0  0  0  0  0  0  0
   48.5743   29.6210   42.9839 H   0  0  0  0  0  0  0  0  0  0  0  0
   46.2194   31.0599   46.8649 H   0  0  0  0  0  0  0  0  0  0  0  0
   47.2744   32.2728   49.0671 H   0  0  0  0  0  0  0  0  0  0  0  0
   48.2735   31.5223   47.7766 H   0  0  0  0  0  0  0  0  0  0  0  0
   47.9912   33.2963   47.7766 H   0  0  0  0  0  0  0  0  0  0  0  0
   45.3524   32.5031   49.0627 H   0  0  0  0  0  0  0  0  0  0  0  0
   44.9012   33.6553   47.7605 H   0  0  0  0  0  0  0  0  0  0  0  0
   44.2261   31.9907   47.7605 H   0  0  0  0  0  0  0  0  0  0  0  0
  1  6  2  0
  1  7  1  0
  2  1  1  0
  3  4  1  0
  3  2  2  0
  4  5  2  0
  5 13  1  0
  5  6  1  0
  8  2  1  0
  9  8  1  0
 10  9  1  0
 11 12  1  0
 11 10  1  0
 12  8  1  0
 13 14  1  0
 14 15  1  0
 15 19  1  0
 16 17  2  0
 16 15  1  0
 17 18  1  0
 18 19  2  0
 19 20  1  0
 20 21  1  0
 21 23  1  0
 21 22  1  0
  3 24  1  0
  7 25  1  0
  7 26  1  0
  8 27  1  0
  9 28  1  0
  9 29  1  0
 10 30  1  0
 10 31  1  0
 11 32  1  0
 11 33  1  0
 12 34  1  0
 12 35  1  0
 13 36  1  0
 13 37  1  0
 14 38  1  0
 14 39  1  0
 16 40  1  0
 17 41  1  0
 21 42  1  0
 22 43  1  0
 22 44  1  0
 22 45  1  0
 23 46  1  0
 23 47  1  0
 23 48  1  0
M  ISO  8  24  14  27  13  28  13  29  13  30  13  31  13  32  13  33  13
M  ISO  8  34  13  35  13  36   8  37   8  38   8  39   8  40  14  41  14
M  ISO  7  42   8  43   8  44   8  45   8  46   8  47   8  48   8
M  END
>  <minimizedAffinity>  (1) 
-5.75140381

>  <minimizedRMSD>  (1) 
2.97881627

$$$$
