
     RDKit          3D

 48 51  0  0  0  0  0  0  0  0999 V2000
   44.7640   35.4320   42.9440 C   0  0  0  0  0  0  0  0  0  0  0  0
   43.8970   34.7470   42.1470 C   0  0  0  0  0  0  0  0  0  0  0  0
   43.9950   33.3450   42.1080 C   0  0  0  0  0  0  0  0  0  0  0  0
   44.9470   32.7190   42.8590 N   0  0  0  0  0  0  0  0  0  0  0  0
   45.7820   33.4520   43.6310 C   0  0  0  0  0  0  0  0  0  0  0  0
   45.7110   34.8320   43.6940 N   0  0  0  0  0  0  0  0  0  0  0  0
   44.6420   36.8760   42.9790 N   0  0  0  0  0  0  0  0  0  0  0  0
   42.9160   35.4460   41.3490 C   0  0  0  0  0  0  0  0  0  0  0  0
   41.4450   35.3050   41.9390 C   0  0  0  0  0  0  0  0  0  0  0  0
   40.7280   36.0740   40.8120 C   0  0  0  0  0  0  0  0  0  0  0  0
   41.3550   35.4920   39.5880 C   0  0  0  0  0  0  0  0  0  0  0  0
   42.7560   35.0860   40.0030 C   0  0  0  0  0  0  0  0  0  0  0  0
   46.8310   32.8050   44.4550 C   0  0  0  0  0  0  0  0  0  0  0  0
   46.4300   32.5750   45.8790 C   0  0  0  0  0  0  0  0  0  0  0  0
   46.0250   31.2270   46.1420 N   0  0  0  0  0  0  0  0  0  0  0  0
   45.5110   30.2790   45.3740 C   0  0  0  0  0  0  0  0  0  0  0  0
   45.2970   29.1330   46.1350 C   0  0  0  0  0  0  0  0  0  0  0  0
   45.7080   29.4550   47.3760 N   0  0  0  0  0  0  0  0  0  0  0  0
   46.1550   30.7320   47.3940 C   0  0  0  0  0  0  0  0  0  0  0  0
   46.7810   31.4370   48.9270 S   0  0  0  0  0  0  0  0  0  0  0  0
   48.5180   31.0180   49.0030 C   0  0  0  0  0  0  0  0  0  0  0  0
   49.5490   31.7960   49.4940 C   0  0  0  0  0  0  0  0  0  0  0  0
   50.8380   31.3170   49.4770 C   0  0  0  0  0  0  0  0  0  0  0  0
   51.0940   30.0520   48.9650 C   0  0  0  0  0  0  0  0  0  0  0  0
   50.0490   29.2970   48.4830 C   0  0  0  0  0  0  0  0  0  0  0  0
   48.7780   29.7780   48.5030 N   0  0  0  0  0  0  0  0  0  0  0  0
   43.3105   32.7581   41.4779 H   0  0  0  0  0  0  0  0  0  0  0  0
   43.9228   37.3460   42.4108 H   0  0  0  0  0  0  0  0  0  0  0  0
   45.2745   37.4320   43.5720 H   0  0  0  0  0  0  0  0  0  0  0  0
   43.3534   36.4543   41.3936 H   0  0  0  0  0  0  0  0  0  0  0  0
   41.1171   34.2575   42.0107 H   0  0  0  0  0  0  0  0  0  0  0  0
   41.2854   35.6662   42.9657 H   0  0  0  0  0  0  0  0  0  0  0  0
   39.6436   35.8906   40.8308 H   0  0  0  0  0  0  0  0  0  0  0  0
   40.8324   37.1665   40.8859 H   0  0  0  0  0  0  0  0  0  0  0  0
   41.3945   36.2410   38.7833 H   0  0  0  0  0  0  0  0  0  0  0  0
   40.7801   34.6370   39.2027 H   0  0  0  0  0  0  0  0  0  0  0  0
   42.8824   33.9995   39.8869 H   0  0  0  0  0  0  0  0  0  0  0  0
   43.5074   35.5871   39.3751 H   0  0  0  0  0  0  0  0  0  0  0  0
   47.0754   31.8324   44.0029 H   0  0  0  0  0  0  0  0  0  0  0  0
   47.6905   33.4912   44.4729 H   0  0  0  0  0  0  0  0  0  0  0  0
   47.2865   32.8149   46.5262 H   0  0  0  0  0  0  0  0  0  0  0  0
   45.5635   33.2214   46.0823 H   0  0  0  0  0  0  0  0  0  0  0  0
   45.2878   30.3809   44.3017 H   0  0  0  0  0  0  0  0  0  0  0  0
   44.8820   28.1724   45.7958 H   0  0  0  0  0  0  0  0  0  0  0  0
   49.3390   32.7973   49.8980 H   0  0  0  0  0  0  0  0  0  0  0  0
   51.6619   31.9328   49.8670 H   0  0  0  0  0  0  0  0  0  0  0  0
   52.1207   29.6576   48.9448 H   0  0  0  0  0  0  0  0  0  0  0  0
   50.2446   28.2935   48.0772 H   0  0  0  0  0  0  0  0  0  0  0  0
  1  7  1  0
  1  6  2  0
  2  1  1  0
  3  2  2  0
  3  4  1  0
  4  5  2  0
  5  6  1  0
  5 13  1  0
  8  9  1  0
  8  2  1  0
 10  9  1  0
 11 12  1  0
 11 10  1  0
 12  8  1  0
 13 14  1  0
 14 15  1  0
 15 19  1  0
 16 17  2  0
 16 15  1  0
 17 18  1  0
 18 19  2  0
 19 20  1  0
 20 21  1  0
 21 22  2  0
 23 22  1  0
 24 23  2  0
 25 26  2  0
 25 24  1  0
 26 21  1  0
  3 27  1  0
  7 28  1  0
  7 29  1  0
  8 30  1  0
  9 31  1  0
  9 32  1  0
 10 33  1  0
 10 34  1  0
 11 35  1  0
 11 36  1  0
 12 37  1  0
 12 38  1  0
 13 39  1  0
 13 40  1  0
 14 41  1  0
 14 42  1  0
 16 43  1  0
 17 44  1  0
 22 45  1  0
 23 46  1  0
 24 47  1  0
 25 48  1  0
M  ISO  8  27  14  30  13  31  13  32  13  33  13  34  13  35  13  36  13
M  ISO  8  37  13  38  13  39   8  40   8  41   8  42   8  43  14  44  14
M  ISO  4  45  14  46  14  47  14  48  14
M  END
>  <minimizedAffinity>  (1) 
-5.75829124

>  <minimizedRMSD>  (1) 
1.02084994

$$$$
