
     RDKit          3D

 46 49  0  0  0  0  0  0  0  0999 V2000
   42.8750   35.1780   41.8240 C   0  0  0  0  0  0  0  0  0  0  0  0
   42.6610   34.7330   40.5570 C   0  0  0  0  0  0  0  0  0  0  0  0
   43.7540   34.1930   39.8450 C   0  0  0  0  0  0  0  0  0  0  0  0
   44.9790   34.1390   40.4520 N   0  0  0  0  0  0  0  0  0  0  0  0
   45.1310   34.5920   41.7020 C   0  0  0  0  0  0  0  0  0  0  0  0
   44.0780   35.1270   42.4270 N   0  0  0  0  0  0  0  0  0  0  0  0
   41.7370   35.7180   42.5380 N   0  0  0  0  0  0  0  0  0  0  0  0
   41.3510   34.8250   39.9450 C   0  0  0  0  0  0  0  0  0  0  0  0
   40.5890   33.4310   39.9550 C   0  0  0  0  0  0  0  0  0  0  0  0
   39.3340   33.9240   39.1990 C   0  0  0  0  0  0  0  0  0  0  0  0
   39.9330   34.7090   38.0850 C   0  0  0  0  0  0  0  0  0  0  0  0
   41.2620   35.2270   38.6030 C   0  0  0  0  0  0  0  0  0  0  0  0
   46.4470   34.5550   42.3920 C   0  0  0  0  0  0  0  0  0  0  0  0
   47.5910   35.0290   41.5700 C   0  0  0  0  0  0  0  0  0  0  0  0
   48.8260   34.3510   41.8500 N   0  0  0  0  0  0  0  0  0  0  0  0
   49.8780   34.6890   42.5790 C   0  0  0  0  0  0  0  0  0  0  0  0
   50.8310   33.6770   42.5340 C   0  0  0  0  0  0  0  0  0  0  0  0
   50.2760   32.7390   41.7440 N   0  0  0  0  0  0  0  0  0  0  0  0
   49.0560   33.1290   41.3180 C   0  0  0  0  0  0  0  0  0  0  0  0
   48.0640   32.0810   40.2410 S   0  0  0  0  0  0  0  0  0  0  0  0
   47.8060   32.8670   38.6630 C   0  0  0  0  0  0  0  0  0  0  0  0
   46.8230   32.2670   37.8730 C   0  0  0  0  0  0  0  0  0  0  0  0
   46.7410   32.9940   36.6800 C   0  0  0  0  0  0  0  0  0  0  0  0
   47.6960   33.9960   36.8370 C   0  0  0  0  0  0  0  0  0  0  0  0
   48.2860   33.8860   37.9920 O   0  0  0  0  0  0  0  0  0  0  0  0
   43.6228   33.8214   38.8180 H   0  0  0  0  0  0  0  0  0  0  0  0
   40.8147   35.7592   42.0812 H   0  0  0  0  0  0  0  0  0  0  0  0
   41.8497   36.0609   43.5027 H   0  0  0  0  0  0  0  0  0  0  0  0
   40.9168   35.6120   40.5790 H   0  0  0  0  0  0  0  0  0  0  0  0
   41.1326   32.6461   39.4087 H   0  0  0  0  0  0  0  0  0  0  0  0
   40.4292   32.9547   40.9336 H   0  0  0  0  0  0  0  0  0  0  0  0
   38.7391   33.0804   38.8189 H   0  0  0  0  0  0  0  0  0  0  0  0
   38.6375   34.5016   39.8245 H   0  0  0  0  0  0  0  0  0  0  0  0
   39.2760   35.5482   37.8128 H   0  0  0  0  0  0  0  0  0  0  0  0
   40.0655   34.0919   37.1841 H   0  0  0  0  0  0  0  0  0  0  0  0
   42.0904   34.7962   38.0216 H   0  0  0  0  0  0  0  0  0  0  0  0
   41.3256   36.3213   38.5106 H   0  0  0  0  0  0  0  0  0  0  0  0
   46.3823   35.1897   43.2881 H   0  0  0  0  0  0  0  0  0  0  0  0
   46.6471   33.4986   42.6245 H   0  0  0  0  0  0  0  0  0  0  0  0
   47.7338   36.1029   41.7609 H   0  0  0  0  0  0  0  0  0  0  0  0
   47.3404   34.8178   40.5200 H   0  0  0  0  0  0  0  0  0  0  0  0
   49.9829   35.6308   43.1376 H   0  0  0  0  0  0  0  0  0  0  0  0
   51.8125   33.6495   43.0299 H   0  0  0  0  0  0  0  0  0  0  0  0
   46.2230   31.3845   38.1397 H   0  0  0  0  0  0  0  0  0  0  0  0
   46.0782   32.8161   35.8203 H   0  0  0  0  0  0  0  0  0  0  0  0
   47.9201   34.7714   36.0897 H   0  0  0  0  0  0  0  0  0  0  0  0
  1  6  2  0
  1  7  1  0
  2  1  1  0
  3  4  1  0
  3  2  2  0
  4  5  2  0
  5 13  1  0
  5  6  1  0
  8  9  1  0
  8  2  1  0
 10  9  1  0
 11 12  1  0
 11 10  1  0
 12  8  1  0
 14 15  1  0
 14 13  1  0
 15 16  1  0
 17 16  2  0
 18 17  1  0
 19 18  2  0
 19 15  1  0
 20 19  1  0
 21 20  1  0
 22 21  2  0
 23 24  2  0
 23 22  1  0
 24 25  1  0
 25 21  1  0
  3 26  1  0
  7 27  1  0
  7 28  1  0
  8 29  1  0
  9 30  1  0
  9 31  1  0
 10 32  1  0
 10 33  1  0
 11 34  1  0
 11 35  1  0
 12 36  1  0
 12 37  1  0
 13 38  1  0
 13 39  1  0
 14 40  1  0
 14 41  1  0
 16 42  1  0
 17 43  1  0
 22 44  1  0
 23 45  1  0
 24 46  1  0
M  ISO  8  26  14  29  13  30  13  31  13  32  13  33  13  34  13  35  13
M  ISO  8  36  13  37  13  38   8  39   8  40   8  41   8  42  14  43  14
M  ISO  3  44  14  45  14  46  14
M  END
>  <minimizedAffinity>  (1) 
-5.72562647

>  <minimizedRMSD>  (1) 
7.20206118

$$$$
