
     RDKit          3D

 53 57  0  0  0  0  0  0  0  0999 V2000
   44.8420   35.4350   43.0650 C   0  0  0  0  0  0  0  0  0  0  0  0
   44.0250   34.7370   42.2400 C   0  0  0  0  0  0  0  0  0  0  0  0
   44.1610   33.3330   42.1970 C   0  0  0  0  0  0  0  0  0  0  0  0
   45.1100   32.7420   42.9860 N   0  0  0  0  0  0  0  0  0  0  0  0
   45.8950   33.4910   43.7870 C   0  0  0  0  0  0  0  0  0  0  0  0
   45.7830   34.8630   43.8490 N   0  0  0  0  0  0  0  0  0  0  0  0
   44.6790   36.8750   43.1020 N   0  0  0  0  0  0  0  0  0  0  0  0
   43.0470   35.4100   41.4110 C   0  0  0  0  0  0  0  0  0  0  0  0
   41.5630   35.2150   41.9510 C   0  0  0  0  0  0  0  0  0  0  0  0
   40.8650   35.9910   40.8100 C   0  0  0  0  0  0  0  0  0  0  0  0
   41.5540   35.4320   39.6020 C   0  0  0  0  0  0  0  0  0  0  0  0
   42.9460   35.0520   40.0580 C   0  0  0  0  0  0  0  0  0  0  0  0
   46.9240   32.8570   44.6380 C   0  0  0  0  0  0  0  0  0  0  0  0
   46.5140   32.6300   46.0560 C   0  0  0  0  0  0  0  0  0  0  0  0
   46.1400   31.2560   46.3120 N   0  0  0  0  0  0  0  0  0  0  0  0
   45.5230   30.3460   45.5770 C   0  0  0  0  0  0  0  0  0  0  0  0
   45.4190   29.1760   46.3160 C   0  0  0  0  0  0  0  0  0  0  0  0
   46.0050   29.4520   47.5170 N   0  0  0  0  0  0  0  0  0  0  0  0
   46.4570   30.7320   47.5320 C   0  0  0  0  0  0  0  0  0  0  0  0
   47.2660   31.3560   48.9870 S   0  0  0  0  0  0  0  0  0  0  0  0
   48.9310   30.7150   49.0200 C   0  0  0  0  0  0  0  0  0  0  0  0
   49.1780   29.3950   48.6250 C   0  0  0  0  0  0  0  0  0  0  0  0
   50.5080   29.1570   48.7440 N   0  0  0  0  0  0  0  0  0  0  0  0
   51.1370   30.2570   49.1980 C   0  0  0  0  0  0  0  0  0  0  0  0
   52.4340   30.6320   49.5140 C   0  0  0  0  0  0  0  0  0  0  0  0
   52.6830   31.9110   49.9720 C   0  0  0  0  0  0  0  0  0  0  0  0
   51.6900   32.8730   50.1400 C   0  0  0  0  0  0  0  0  0  0  0  0
   50.4050   32.4850   49.8200 C   0  0  0  0  0  0  0  0  0  0  0  0
   50.1650   31.2210   49.3690 C   0  0  0  0  0  0  0  0  0  0  0  0
   43.5175   32.7264   41.5428 H   0  0  0  0  0  0  0  0  0  0  0  0
   43.9670   37.3280   42.5114 H   0  0  0  0  0  0  0  0  0  0  0  0
   45.2751   37.4451   43.7189 H   0  0  0  0  0  0  0  0  0  0  0  0
   43.4467   36.4328   41.4745 H   0  0  0  0  0  0  0  0  0  0  0  0
   41.2619   34.1578   41.9907 H   0  0  0  0  0  0  0  0  0  0  0  0
   41.3581   35.5476   42.9793 H   0  0  0  0  0  0  0  0  0  0  0  0
   39.7846   35.7858   40.7871 H   0  0  0  0  0  0  0  0  0  0  0  0
   40.9383   37.0847   40.9017 H   0  0  0  0  0  0  0  0  0  0  0  0
   41.6055   36.1894   38.8060 H   0  0  0  0  0  0  0  0  0  0  0  0
   41.0126   34.5665   39.1923 H   0  0  0  0  0  0  0  0  0  0  0  0
   43.0991   33.9690   39.9414 H   0  0  0  0  0  0  0  0  0  0  0  0
   43.7100   35.5676   39.4576 H   0  0  0  0  0  0  0  0  0  0  0  0
   47.1802   31.8828   44.1961 H   0  0  0  0  0  0  0  0  0  0  0  0
   47.7721   33.5568   44.6701 H   0  0  0  0  0  0  0  0  0  0  0  0
   47.3555   32.8947   46.7131 H   0  0  0  0  0  0  0  0  0  0  0  0
   45.6330   33.2583   46.2536 H   0  0  0  0  0  0  0  0  0  0  0  0
   45.1539   30.4921   44.5511 H   0  0  0  0  0  0  0  0  0  0  0  0
   44.9611   28.2269   46.0004 H   0  0  0  0  0  0  0  0  0  0  0  0
   48.4230   28.6744   48.2777 H   0  0  0  0  0  0  0  0  0  0  0  0
   50.9697   28.2641   48.5195 H   0  0  0  0  0  0  0  0  0  0  0  0
   53.2602   29.9147   49.4005 H   0  0  0  0  0  0  0  0  0  0  0  0
   53.7200   32.1842   50.2169 H   0  0  0  0  0  0  0  0  0  0  0  0
   51.9172   33.8848   50.5070 H   0  0  0  0  0  0  0  0  0  0  0  0
   49.5732   33.1965   49.9289 H   0  0  0  0  0  0  0  0  0  0  0  0
  1  7  1  0
  1  6  2  0
  2  1  1  0
  3  2  2  0
  3  4  1  0
  4  5  2  0
  5  6  1  0
  5 13  1  0
  8  9  1  0
  8  2  1  0
 10  9  1  0
 11 12  1  0
 11 10  1  0
 12  8  1  0
 13 14  1  0
 14 15  1  0
 15 19  1  0
 16 15  1  0
 16 17  2  0
 17 18  1  0
 18 19  2  0
 19 20  1  0
 20 21  1  0
 21 29  1  0
 22 23  1  0
 22 21  2  0
 23 24  1  0
 24 29  2  0
 24 25  1  0
 25 26  2  0
 26 27  1  0
 28 27  2  0
 29 28  1  0
  3 30  1  0
  7 31  1  0
  7 32  1  0
  8 33  1  0
  9 34  1  0
  9 35  1  0
 10 36  1  0
 10 37  1  0
 11 38  1  0
 11 39  1  0
 12 40  1  0
 12 41  1  0
 13 42  1  0
 13 43  1  0
 14 44  1  0
 14 45  1  0
 16 46  1  0
 17 47  1  0
 22 48  1  0
 23 49  1  0
 25 50  1  0
 26 51  1  0
 27 52  1  0
 28 53  1  0
M  ISO  8  30  14  33  13  34  13  35  13  36  13  37  13  38  13  39  13
M  ISO  8  40  13  41  13  42   8  43   8  44   8  45   8  46  14  47  14
M  ISO  6  48  14  49   9  50  14  51  14  52  14  53  14
M  END
>  <minimizedAffinity>  (1) 
-6.18136168

>  <minimizedRMSD>  (1) 
1.50528693

$$$$
