
     RDKit          3D

 27 29  0  0  0  0  0  0  0  0999 V2000
   47.0110   32.4300   44.3430 C   0  0  0  0  0  0  0  0  0  0  0  0
   47.8050   32.0660   43.2670 C   0  0  0  0  0  0  0  0  0  0  0  0
   48.4450   30.8960   43.5140 N   0  0  0  0  0  0  0  0  0  0  0  0
   48.0280   30.5490   44.7630 C   0  0  0  0  0  0  0  0  0  0  0  0
   47.1740   31.4550   45.2660 N   0  0  0  0  0  0  0  0  0  0  0  0
   44.7370   34.9340   45.7700 C   0  0  0  0  0  0  0  0  0  0  0  0
   44.5840   35.8430   44.6970 C   0  0  0  0  0  0  0  0  0  0  0  0
   45.2600   35.5790   43.5130 C   0  0  0  0  0  0  0  0  0  0  0  0
   46.0370   34.4620   43.4360 N   0  0  0  0  0  0  0  0  0  0  0  0
   46.1620   33.6110   44.4880 C   0  0  0  0  0  0  0  0  0  0  0  0
   45.5230   33.8480   45.6260 N   0  0  0  0  0  0  0  0  0  0  0  0
   46.5750   31.3500   46.5590 C   0  0  0  0  0  0  0  0  0  0  0  0
   47.2600   31.9670   47.5940 C   0  0  0  0  0  0  0  0  0  0  0  0
   46.8150   31.9550   48.8890 C   0  0  0  0  0  0  0  0  0  0  0  0
   45.6430   31.3140   49.2130 C   0  0  0  0  0  0  0  0  0  0  0  0
   44.9590   30.7020   48.1970 C   0  0  0  0  0  0  0  0  0  0  0  0
   45.4040   30.7090   46.8840 C   0  0  0  0  0  0  0  0  0  0  0  0
   47.9029   32.6473   42.3383 H   0  0  0  0  0  0  0  0  0  0  0  0
   48.3502   29.6407   45.2932 H   0  0  0  0  0  0  0  0  0  0  0  0
   44.2149   35.1131   46.7215 H   0  0  0  0  0  0  0  0  0  0  0  0
   43.9472   36.7343   44.7977 H   0  0  0  0  0  0  0  0  0  0  0  0
   45.1700   36.2590   42.6531 H   0  0  0  0  0  0  0  0  0  0  0  0
   48.2012   32.4885   47.3654 H   0  0  0  0  0  0  0  0  0  0  0  0
   47.3978   32.4604   49.6732 H   0  0  0  0  0  0  0  0  0  0  0  0
   45.2695   31.2935   50.2474 H   0  0  0  0  0  0  0  0  0  0  0  0
   44.0178   30.1835   48.4322 H   0  0  0  0  0  0  0  0  0  0  0  0
   44.8196   30.2014   46.1025 H   0  0  0  0  0  0  0  0  0  0  0  0
  1 10  1  0
  1  5  1  0
  2  3  1  0
  2  1  2  0
  3  4  2  0
  4  5  1  0
  5 12  1  0
  7  6  2  0
  8  7  1  0
  9  8  2  0
  9 10  1  0
 10 11  2  0
 11  6  1  0
 12 17  1  0
 12 13  2  0
 13 14  1  0
 14 15  2  0
 16 15  1  0
 17 16  2  0
  2 18  1  0
  4 19  1  0
  6 20  1  0
  7 21  1  0
  8 22  1  0
 13 23  1  0
 14 24  1  0
 15 25  1  0
 16 26  1  0
 17 27  1  0
M  ISO  8  18  14  19  14  20  14  21  14  22  14  23  14  24  14  25  14
M  ISO  2  26  14  27  14
M  END
>  <minimizedAffinity>  (1) 
-4.92275858

>  <minimizedRMSD>  (1) 
3.83190441

$$$$
