
     RDKit          3D

 47 50  0  0  0  0  0  0  0  0999 V2000
   44.7670   35.4370   42.9420 C   0  0  0  0  0  0  0  0  0  0  0  0
   43.9010   34.7560   42.1490 C   0  0  0  0  0  0  0  0  0  0  0  0
   43.9950   33.3500   42.1070 C   0  0  0  0  0  0  0  0  0  0  0  0
   44.9500   32.7310   42.8600 N   0  0  0  0  0  0  0  0  0  0  0  0
   45.7840   33.4580   43.6300 C   0  0  0  0  0  0  0  0  0  0  0  0
   45.7140   34.8280   43.6900 N   0  0  0  0  0  0  0  0  0  0  0  0
   44.6410   36.8770   42.9740 N   0  0  0  0  0  0  0  0  0  0  0  0
   42.9150   35.4500   41.3470 C   0  0  0  0  0  0  0  0  0  0  0  0
   41.4470   35.3020   41.9440 C   0  0  0  0  0  0  0  0  0  0  0  0
   40.7250   36.0790   40.8210 C   0  0  0  0  0  0  0  0  0  0  0  0
   41.3400   35.4860   39.5990 C   0  0  0  0  0  0  0  0  0  0  0  0
   42.7550   35.0910   40.0010 C   0  0  0  0  0  0  0  0  0  0  0  0
   46.8360   32.8160   44.4570 C   0  0  0  0  0  0  0  0  0  0  0  0
   46.4490   32.5930   45.8820 C   0  0  0  0  0  0  0  0  0  0  0  0
   46.0470   31.2390   46.1540 N   0  0  0  0  0  0  0  0  0  0  0  0
   45.5430   30.2850   45.3750 C   0  0  0  0  0  0  0  0  0  0  0  0
   45.3230   29.1340   46.1320 C   0  0  0  0  0  0  0  0  0  0  0  0
   45.7240   29.4720   47.3780 N   0  0  0  0  0  0  0  0  0  0  0  0
   46.1670   30.7480   47.4090 C   0  0  0  0  0  0  0  0  0  0  0  0
   46.7680   31.4700   48.9440 S   0  0  0  0  0  0  0  0  0  0  0  0
   48.5160   31.1030   49.0230 C   0  0  0  0  0  0  0  0  0  0  0  0
   48.8990   29.8530   48.5560 C   0  0  0  0  0  0  0  0  0  0  0  0
   50.2460   29.5310   48.6010 C   0  0  0  0  0  0  0  0  0  0  0  0
   51.1720   30.4040   49.0860 N   0  0  0  0  0  0  0  0  0  0  0  0
   50.7600   31.6190   49.5350 C   0  0  0  0  0  0  0  0  0  0  0  0
   49.4580   31.9550   49.5020 N   0  0  0  0  0  0  0  0  0  0  0  0
   43.3103   32.7620   41.4781 H   0  0  0  0  0  0  0  0  0  0  0  0
   43.9203   37.3437   42.4051 H   0  0  0  0  0  0  0  0  0  0  0  0
   45.2719   37.4362   43.5657 H   0  0  0  0  0  0  0  0  0  0  0  0
   43.3486   36.4602   41.3848 H   0  0  0  0  0  0  0  0  0  0  0  0
   41.1208   34.2536   42.0105 H   0  0  0  0  0  0  0  0  0  0  0  0
   41.2904   35.6551   42.9739 H   0  0  0  0  0  0  0  0  0  0  0  0
   39.6391   35.9057   40.8478 H   0  0  0  0  0  0  0  0  0  0  0  0
   40.8358   37.1711   40.8914 H   0  0  0  0  0  0  0  0  0  0  0  0
   41.3647   36.2250   38.7846 H   0  0  0  0  0  0  0  0  0  0  0  0
   40.7654   34.6223   39.2332 H   0  0  0  0  0  0  0  0  0  0  0  0
   42.8929   34.0063   39.8805 H   0  0  0  0  0  0  0  0  0  0  0  0
   43.4984   35.5985   39.3687 H   0  0  0  0  0  0  0  0  0  0  0  0
   47.0782   31.8408   44.0095 H   0  0  0  0  0  0  0  0  0  0  0  0
   47.6920   33.5067   44.4682 H   0  0  0  0  0  0  0  0  0  0  0  0
   47.3107   32.8370   46.5207 H   0  0  0  0  0  0  0  0  0  0  0  0
   45.5839   33.2395   46.0911 H   0  0  0  0  0  0  0  0  0  0  0  0
   45.3324   30.3881   44.3003 H   0  0  0  0  0  0  0  0  0  0  0  0
   44.9157   28.1703   45.7922 H   0  0  0  0  0  0  0  0  0  0  0  0
   48.1576   29.1416   48.1632 H   0  0  0  0  0  0  0  0  0  0  0  0
   50.5752   28.5468   48.2363 H   0  0  0  0  0  0  0  0  0  0  0  0
   51.4977   32.3336   49.9287 H   0  0  0  0  0  0  0  0  0  0  0  0
  1  7  1  0
  1  6  2  0
  2  1  1  0
  3  2  2  0
  3  4  1  0
  4  5  2  0
  5  6  1  0
  5 13  1  0
  8  9  1  0
  8  2  1  0
 10  9  1  0
 11 12  1  0
 11 10  1  0
 12  8  1  0
 13 14  1  0
 14 15  1  0
 15 19  1  0
 16 17  2  0
 16 15  1  0
 17 18  1  0
 18 19  2  0
 19 20  1  0
 20 21  1  0
 21 26  2  0
 22 23  2  0
 22 21  1  0
 23 24  1  0
 24 25  2  0
 26 25  1  0
  3 27  1  0
  7 28  1  0
  7 29  1  0
  8 30  1  0
  9 31  1  0
  9 32  1  0
 10 33  1  0
 10 34  1  0
 11 35  1  0
 11 36  1  0
 12 37  1  0
 12 38  1  0
 13 39  1  0
 13 40  1  0
 14 41  1  0
 14 42  1  0
 16 43  1  0
 17 44  1  0
 22 45  1  0
 23 46  1  0
 25 47  1  0
M  ISO  8  27  14  30  13  31  13  32  13  33  13  34  13  35  13  36  13
M  ISO  8  37  13  38  13  39   8  40   8  41   8  42   8  43  14  44  14
M  ISO  3  45  14  46  14  47  14
M  END
>  <minimizedAffinity>  (1) 
-5.68826628

>  <minimizedRMSD>  (1) 
0.973671317

$$$$
