
     RDKit          3D

 42 44  0  0  0  0  0  0  0  0999 V2000
   44.8160   35.5380   42.9600 C   0  0  0  0  0  0  0  0  0  0  0  0
   43.9760   34.8080   42.1860 C   0  0  0  0  0  0  0  0  0  0  0  0
   44.0840   33.4010   42.2380 C   0  0  0  0  0  0  0  0  0  0  0  0
   45.0230   32.8400   43.0570 N   0  0  0  0  0  0  0  0  0  0  0  0
   45.8300   33.6200   43.8030 C   0  0  0  0  0  0  0  0  0  0  0  0
   45.7420   35.0060   43.7680 N   0  0  0  0  0  0  0  0  0  0  0  0
   44.6830   36.9840   42.8910 N   0  0  0  0  0  0  0  0  0  0  0  0
   43.0070   35.4420   41.3200 C   0  0  0  0  0  0  0  0  0  0  0  0
   41.5260   35.2890   41.8700 C   0  0  0  0  0  0  0  0  0  0  0  0
   40.8340   36.0250   40.6980 C   0  0  0  0  0  0  0  0  0  0  0  0
   41.5250   35.4270   39.5110 C   0  0  0  0  0  0  0  0  0  0  0  0
   42.8880   34.9880   39.9980 C   0  0  0  0  0  0  0  0  0  0  0  0
   46.8610   33.0350   44.6970 C   0  0  0  0  0  0  0  0  0  0  0  0
   46.3210   32.4740   45.9630 C   0  0  0  0  0  0  0  0  0  0  0  0
   46.4170   31.0360   46.0370 N   0  0  0  0  0  0  0  0  0  0  0  0
   46.3040   30.1030   45.0910 C   0  0  0  0  0  0  0  0  0  0  0  0
   46.4800   28.8530   45.6800 C   0  0  0  0  0  0  0  0  0  0  0  0
   46.6980   29.1020   46.9990 N   0  0  0  0  0  0  0  0  0  0  0  0
   46.6630   30.4360   47.2320 C   0  0  0  0  0  0  0  0  0  0  0  0
   46.9130   31.0980   48.8770 S   0  0  0  0  0  0  0  0  0  0  0  0
   45.2500   31.4310   49.5640 C   0  0  0  0  0  0  0  0  0  0  0  0
   43.4229   32.7668   41.6291 H   0  0  0  0  0  0  0  0  0  0  0  0
   43.9752   37.4072   42.2739 H   0  0  0  0  0  0  0  0  0  0  0  0
   45.2966   37.5853   43.4592 H   0  0  0  0  0  0  0  0  0  0  0  0
   43.4200   36.4615   41.3164 H   0  0  0  0  0  0  0  0  0  0  0  0
   41.2119   34.2382   41.9552 H   0  0  0  0  0  0  0  0  0  0  0  0
   41.3282   35.6674   42.8837 H   0  0  0  0  0  0  0  0  0  0  0  0
   39.7535   35.8197   40.6781 H   0  0  0  0  0  0  0  0  0  0  0  0
   40.9101   37.1210   40.7528 H   0  0  0  0  0  0  0  0  0  0  0  0
   41.6278   36.1756   38.7116 H   0  0  0  0  0  0  0  0  0  0  0  0
   40.9546   34.5827   39.0964 H   0  0  0  0  0  0  0  0  0  0  0  0
   42.9678   33.8914   39.9647 H   0  0  0  0  0  0  0  0  0  0  0  0
   43.6871   35.3995   39.3639 H   0  0  0  0  0  0  0  0  0  0  0  0
   47.3724   32.2277   44.1522 H   0  0  0  0  0  0  0  0  0  0  0  0
   47.5385   33.8548   44.9777 H   0  0  0  0  0  0  0  0  0  0  0  0
   46.8838   32.9052   46.8040 H   0  0  0  0  0  0  0  0  0  0  0  0
   45.2524   32.7317   46.0038 H   0  0  0  0  0  0  0  0  0  0  0  0
   46.1053   30.2891   44.0252 H   0  0  0  0  0  0  0  0  0  0  0  0
   46.4492   27.8720   45.1833 H   0  0  0  0  0  0  0  0  0  0  0  0
   45.2986   31.4213   50.6629 H   0  0  0  0  0  0  0  0  0  0  0  0
   44.9022   32.4166   49.2210 H   0  0  0  0  0  0  0  0  0  0  0  0
   44.5495   30.6553   49.2210 H   0  0  0  0  0  0  0  0  0  0  0  0
  1  6  2  0
  2  3  2  0
  2  1  1  0
  3  4  1  0
  4  5  2  0
  5 13  1  0
  6  5  1  0
  7  1  1  0
  8  9  1  0
  8  2  1  0
 10  9  1  0
 11 12  1  0
 11 10  1  0
 12  8  1  0
 13 14  1  0
 14 15  1  0
 15 19  1  0
 16 17  2  0
 16 15  1  0
 17 18  1  0
 18 19  2  0
 19 20  1  0
 20 21  1  0
  3 22  1  0
  7 23  1  0
  7 24  1  0
  8 25  1  0
  9 26  1  0
  9 27  1  0
 10 28  1  0
 10 29  1  0
 11 30  1  0
 11 31  1  0
 12 32  1  0
 12 33  1  0
 13 34  1  0
 13 35  1  0
 14 36  1  0
 14 37  1  0
 16 38  1  0
 17 39  1  0
 21 40  1  0
 21 41  1  0
 21 42  1  0
M  ISO  8  22  14  25  13  26  13  27  13  28  13  29  13  30  13  31  13
M  ISO  8  32  13  33  13  34   8  35   8  36   8  37   8  38  14  39  14
M  ISO  3  40   8  41   8  42   8
M  END
>  <minimizedAffinity>  (1) 
-5.04597902

>  <minimizedRMSD>  (1) 
0.796966016

$$$$
