
     RDKit          3D

 27 29  0  0  0  0  0  0  0  0999 V2000
   44.5910   36.0700   44.5540 C   0  0  0  0  0  0  0  0  0  0  0  0
   45.2060   35.9490   43.3060 C   0  0  0  0  0  0  0  0  0  0  0  0
   46.0210   34.8380   43.0470 C   0  0  0  0  0  0  0  0  0  0  0  0
   46.1790   33.9060   44.0490 N   0  0  0  0  0  0  0  0  0  0  0  0
   45.5690   34.0600   45.2350 C   0  0  0  0  0  0  0  0  0  0  0  0
   44.7870   35.1190   45.4920 N   0  0  0  0  0  0  0  0  0  0  0  0
   45.7020   33.1230   46.2990 N   0  0  0  0  0  0  0  0  0  0  0  0
   45.0610   33.2440   47.4720 C   0  0  0  0  0  0  0  0  0  0  0  0
   45.3540   32.2290   48.3130 N   0  0  0  0  0  0  0  0  0  0  0  0
   46.2180   31.4180   47.6630 C   0  0  0  0  0  0  0  0  0  0  0  0
   46.8580   30.2390   48.0100 C   0  0  0  0  0  0  0  0  0  0  0  0
   47.6710   29.7050   47.0670 N   0  0  0  0  0  0  0  0  0  0  0  0
   47.8740   30.2530   45.8550 C   0  0  0  0  0  0  0  0  0  0  0  0
   47.2430   31.4160   45.5110 N   0  0  0  0  0  0  0  0  0  0  0  0
   46.4160   31.9890   46.4270 C   0  0  0  0  0  0  0  0  0  0  0  0
   46.7200   34.6270   41.7390 C   0  0  0  0  0  0  0  0  0  0  0  0
   48.1100   35.2870   41.8050 C   0  0  0  0  0  0  0  0  0  0  0  0
   43.9495   36.9366   44.7718 H   0  0  0  0  0  0  0  0  0  0  0  0
   45.0525   36.7175   42.5341 H   0  0  0  0  0  0  0  0  0  0  0  0
   44.3788   34.0709   47.7187 H   0  0  0  0  0  0  0  0  0  0  0  0
   46.7145   29.7651   48.9922 H   0  0  0  0  0  0  0  0  0  0  0  0
   48.5500   29.7635   45.1385 H   0  0  0  0  0  0  0  0  0  0  0  0
   46.1326   35.0831   40.9285 H   0  0  0  0  0  0  0  0  0  0  0  0
   46.8274   33.5500   41.5429 H   0  0  0  0  0  0  0  0  0  0  0  0
   48.4008   35.4251   42.8569 H   0  0  0  0  0  0  0  0  0  0  0  0
   48.8462   34.6423   41.3026 H   0  0  0  0  0  0  0  0  0  0  0  0
   48.0758   36.2650   41.3026 H   0  0  0  0  0  0  0  0  0  0  0  0
  1  6  2  0
  2  1  1  0
  3  2  2  0
  3  4  1  0
  4  5  2  0
  5  6  1  0
  5  7  1  0
  7 15  1  0
  7  8  1  0
  8  9  2  0
 10 11  2  0
 10  9  1  0
 12 11  1  0
 13 12  2  0
 14 13  1  0
 14 15  2  0
 15 10  1  0
 16 17  1  0
 16  3  1  0
  1 18  1  0
  2 19  1  0
  8 20  1  0
 11 21  1  0
 13 22  1  0
 16 23  1  0
 16 24  1  0
 17 25  1  0
 17 26  1  0
 17 27  1  0
M  ISO  8  18  14  19  14  20  14  21  14  22  14  23   8  24   8  25   8
M  ISO  2  26   8  27   8
M  END
>  <minimizedAffinity>  (1) 
-5.4398222

>  <minimizedRMSD>  (1) 
0.169954419

$$$$
