
     RDKit          3D

 30 32  0  0  0  0  0  0  0  0999 V2000
   45.5000   33.5770   41.8940 C   0  0  0  0  0  0  0  0  0  0  0  0
   46.7880   33.9670   41.5330 C   0  0  0  0  0  0  0  0  0  0  0  0
   47.6790   34.2600   42.5660 C   0  0  0  0  0  0  0  0  0  0  0  0
   47.2640   34.1560   43.8760 N   0  0  0  0  0  0  0  0  0  0  0  0
   45.9930   33.7700   44.1620 C   0  0  0  0  0  0  0  0  0  0  0  0
   45.1290   33.4870   43.1730 N   0  0  0  0  0  0  0  0  0  0  0  0
   45.5860   33.6710   45.5570 C   0  0  0  0  0  0  0  0  0  0  0  0
   44.7320   34.4730   46.2470 C   0  0  0  0  0  0  0  0  0  0  0  0
   44.5890   34.0850   47.5230 N   0  0  0  0  0  0  0  0  0  0  0  0
   45.3780   33.0100   47.6280 C   0  0  0  0  0  0  0  0  0  0  0  0
   45.6440   32.1800   48.7040 C   0  0  0  0  0  0  0  0  0  0  0  0
   46.4930   31.0910   48.6710 C   0  0  0  0  0  0  0  0  0  0  0  0
   47.1130   30.8250   47.4650 C   0  0  0  0  0  0  0  0  0  0  0  0
   46.8780   31.6250   46.3650 C   0  0  0  0  0  0  0  0  0  0  0  0
   46.0190   32.7060   46.4490 C   0  0  0  0  0  0  0  0  0  0  0  0
   49.1050   34.6930   42.3140 C   0  0  0  0  0  0  0  0  0  0  0  0
   49.1170   35.9670   41.4830 C   0  0  0  0  0  0  0  0  0  0  0  0
   44.7711   33.3374   41.1057 H   0  0  0  0  0  0  0  0  0  0  0  0
   47.0898   34.0408   40.4778 H   0  0  0  0  0  0  0  0  0  0  0  0
   44.2172   35.3408   45.8089 H   0  0  0  0  0  0  0  0  0  0  0  0
   44.0055   34.5160   48.2542 H   0  0  0  0  0  0  0  0  0  0  0  0
   45.1415   32.4048   49.6564 H   0  0  0  0  0  0  0  0  0  0  0  0
   46.6669   30.4669   49.5600 H   0  0  0  0  0  0  0  0  0  0  0  0
   47.7990   29.9692   47.3810 H   0  0  0  0  0  0  0  0  0  0  0  0
   47.3790   31.4006   45.4118 H   0  0  0  0  0  0  0  0  0  0  0  0
   49.6055   34.8794   43.2757 H   0  0  0  0  0  0  0  0  0  0  0  0
   49.6350   33.8983   41.7685 H   0  0  0  0  0  0  0  0  0  0  0  0
   49.1252   36.8406   42.1513 H   0  0  0  0  0  0  0  0  0  0  0  0
   50.0153   35.9824   40.8484 H   0  0  0  0  0  0  0  0  0  0  0  0
   48.2191   35.9993   40.8484 H   0  0  0  0  0  0  0  0  0  0  0  0
  1  6  2  0
  2  1  1  0
  2  3  2  0
  3  4  1  0
  4  5  2  0
  5  7  1  0
  6  5  1  0
  7  8  2  0
  7 15  1  0
  8  9  1  0
  9 10  1  0
 10 11  2  0
 12 11  1  0
 13 12  2  0
 14 15  2  0
 14 13  1  0
 15 10  1  0
 16  3  1  0
 17 16  1  0
  1 18  1  0
  2 19  1  0
  8 20  1  0
  9 21  1  0
 11 22  1  0
 12 23  1  0
 13 24  1  0
 14 25  1  0
 16 26  1  0
 16 27  1  0
 17 28  1  0
 17 29  1  0
 17 30  1  0
M  ISO  8  18  14  19  14  20  14  21   9  22  14  23  14  24  14  25  14
M  ISO  5  26   8  27   8  28   8  29   8  30   8
M  END
>  <minimizedAffinity>  (1) 
-5.75902748

>  <minimizedRMSD>  (1) 
2.53327584

$$$$
