
     RDKit          3D

 23 23  0  0  0  0  0  0  0  0999 V2000
   44.6360   36.0840   44.4080 C   0  0  0  0  0  0  0  0  0  0  0  0
   45.2710   36.0020   43.1620 C   0  0  0  0  0  0  0  0  0  0  0  0
   46.0640   34.8940   42.9000 C   0  0  0  0  0  0  0  0  0  0  0  0
   46.1840   33.9310   43.8870 N   0  0  0  0  0  0  0  0  0  0  0  0
   45.5620   34.0390   45.0710 C   0  0  0  0  0  0  0  0  0  0  0  0
   44.8030   35.1000   45.3220 N   0  0  0  0  0  0  0  0  0  0  0  0
   45.7220   33.0170   46.0480 N   0  0  0  0  0  0  0  0  0  0  0  0
   45.3500   33.2380   47.4060 C   0  0  0  0  0  0  0  0  0  0  0  0
   44.3510   34.0310   47.6370 N   0  0  0  0  0  0  0  0  0  0  0  0
   46.1000   32.5740   48.4380 N   0  0  0  0  0  0  0  0  0  0  0  0
   44.0840   34.1880   48.6330 H   0  0  0  0  0  0  0  0  0  0  0  0
   46.8000   34.6760   41.6090 C   0  0  0  0  0  0  0  0  0  0  0  0
   48.1910   35.2990   41.6960 C   0  0  0  0  0  0  0  0  0  0  0  0
   44.0002   36.9501   44.6440 H   0  0  0  0  0  0  0  0  0  0  0  0
   45.1442   36.7955   42.4108 H   0  0  0  0  0  0  0  0  0  0  0  0
   46.1120   32.1051   45.7701 H   0  0  0  0  0  0  0  0  0  0  0  0
   45.8521   32.7164   49.4275 H   0  0  0  0  0  0  0  0  0  0  0  0
   46.8851   31.9561   48.1876 H   0  0  0  0  0  0  0  0  0  0  0  0
   46.2406   35.1447   40.7860 H   0  0  0  0  0  0  0  0  0  0  0  0
   46.8964   33.5961   41.4234 H   0  0  0  0  0  0  0  0  0  0  0  0
   48.4711   35.4245   42.7523 H   0  0  0  0  0  0  0  0  0  0  0  0
   48.9192   34.6410   41.1992 H   0  0  0  0  0  0  0  0  0  0  0  0
   48.1849   36.2804   41.1992 H   0  0  0  0  0  0  0  0  0  0  0  0
  1  6  2  0
  2  1  1  0
  3  2  2  0
  3  4  1  0
  4  5  2  0
  5  6  1  0
  5  7  1  0
  7  8  1  0
  8  9  2  0
  8 10  1  0
  9 11  1  0
 12 13  1  0
 12  3  1  0
  1 14  1  0
  2 15  1  0
  7 16  1  0
 10 17  1  0
 10 18  1  0
 12 19  1  0
 12 20  1  0
 13 21  1  0
 13 22  1  0
 13 23  1  0
M  ISO  7  14  14  15  14  19   8  20   8  21   8  22   8  23   8
M  END
>  <minimizedAffinity>  (1) 
-5.43675518

>  <minimizedRMSD>  (1) 
0.133710638

$$$$
