
     RDKit          3D

 29 30  0  0  0  0  0  0  0  0999 V2000
   44.4990   35.9180   44.7310 C   0  0  0  0  0  0  0  0  0  0  0  0
   45.0740   35.8390   43.4640 C   0  0  0  0  0  0  0  0  0  0  0  0
   45.9640   34.7810   43.2160 C   0  0  0  0  0  0  0  0  0  0  0  0
   46.2050   33.8980   44.2390 N   0  0  0  0  0  0  0  0  0  0  0  0
   45.6260   34.0180   45.4430 C   0  0  0  0  0  0  0  0  0  0  0  0
   44.7840   35.0180   45.6800 N   0  0  0  0  0  0  0  0  0  0  0  0
   45.9150   33.0730   46.4670 N   0  0  0  0  0  0  0  0  0  0  0  0
   45.0930   32.9620   47.6580 C   0  0  0  0  0  0  0  0  0  0  0  0
   45.1590   31.5200   48.1100 C   0  0  0  0  0  0  0  0  0  0  0  0
   45.3520   30.6220   47.0880 O   0  0  0  0  0  0  0  0  0  0  0  0
   46.5050   30.7770   46.3650 C   0  0  0  0  0  0  0  0  0  0  0  0
   47.0540   32.1830   46.3430 C   0  0  0  0  0  0  0  0  0  0  0  0
   46.6550   34.5690   41.9070 C   0  0  0  0  0  0  0  0  0  0  0  0
   48.0160   35.2650   41.9290 C   0  0  0  0  0  0  0  0  0  0  0  0
   43.7978   36.7353   44.9554 H   0  0  0  0  0  0  0  0  0  0  0  0
   44.8390   36.5795   42.6852 H   0  0  0  0  0  0  0  0  0  0  0  0
   45.4806   33.6231   48.4471 H   0  0  0  0  0  0  0  0  0  0  0  0
   44.0552   33.2595   47.4471 H   0  0  0  0  0  0  0  0  0  0  0  0
   45.9917   31.4184   48.8216 H   0  0  0  0  0  0  0  0  0  0  0  0
   44.1844   31.2833   48.5617 H   0  0  0  0  0  0  0  0  0  0  0  0
   47.2715   30.1171   46.7975 H   0  0  0  0  0  0  0  0  0  0  0  0
   46.2538   30.5262   45.3238 H   0  0  0  0  0  0  0  0  0  0  0  0
   47.7469   32.3334   47.1840 H   0  0  0  0  0  0  0  0  0  0  0  0
   47.6111   32.3776   45.4147 H   0  0  0  0  0  0  0  0  0  0  0  0
   46.0415   34.9894   41.0965 H   0  0  0  0  0  0  0  0  0  0  0  0
   46.7976   33.4914   41.7386 H   0  0  0  0  0  0  0  0  0  0  0  0
   48.3291   35.4251   42.9713 H   0  0  0  0  0  0  0  0  0  0  0  0
   48.7580   34.6357   41.4158 H   0  0  0  0  0  0  0  0  0  0  0  0
   47.9401   36.2350   41.4158 H   0  0  0  0  0  0  0  0  0  0  0  0
  1  6  2  0
  2  1  1  0
  3  2  2  0
  3  4  1  0
  4  5  2  0
  5  6  1  0
  5  7  1  0
  7  8  1  0
  8  9  1  0
 10  9  1  0
 11 10  1  0
 12 11  1  0
 12  7  1  0
 13 14  1  0
 13  3  1  0
  1 15  1  0
  2 16  1  0
  8 17  1  0
  8 18  1  0
  9 19  1  0
  9 20  1  0
 11 21  1  0
 11 22  1  0
 12 23  1  0
 12 24  1  0
 13 25  1  0
 13 26  1  0
 14 27  1  0
 14 28  1  0
 14 29  1  0
M  ISO  8  15  14  16  14  17  13  18  13  19  13  20  13  21  13  22  13
M  ISO  7  23  13  24  13  25   8  26   8  27   8  28   8  29   8
M  END
>  <minimizedAffinity>  (1) 
-4.94433117

>  <minimizedRMSD>  (1) 
0.337122977

$$$$
