
     RDKit          3D

 26 27  0  0  0  0  0  0  0  0999 V2000
   44.5250   35.9370   44.5770 C   0  0  0  0  0  0  0  0  0  0  0  0
   45.1500   35.8840   43.3280 C   0  0  0  0  0  0  0  0  0  0  0  0
   46.0700   34.8500   43.1180 C   0  0  0  0  0  0  0  0  0  0  0  0
   46.3050   33.9540   44.1400 N   0  0  0  0  0  0  0  0  0  0  0  0
   45.6690   34.0590   45.3270 C   0  0  0  0  0  0  0  0  0  0  0  0
   44.7950   35.0390   45.5300 N   0  0  0  0  0  0  0  0  0  0  0  0
   45.9640   33.0780   46.3670 C   0  0  0  0  0  0  0  0  0  0  0  0
   47.0250   32.1920   46.1730 C   0  0  0  0  0  0  0  0  0  0  0  0
   47.2600   31.2870   47.1870 C   0  0  0  0  0  0  0  0  0  0  0  0
   46.4900   31.2540   48.3330 C   0  0  0  0  0  0  0  0  0  0  0  0
   45.4400   32.1350   48.5200 C   0  0  0  0  0  0  0  0  0  0  0  0
   45.2040   33.0330   47.5180 C   0  0  0  0  0  0  0  0  0  0  0  0
   46.8320   34.6430   41.8360 C   0  0  0  0  0  0  0  0  0  0  0  0
   48.1840   35.3480   41.9160 C   0  0  0  0  0  0  0  0  0  0  0  0
   43.7953   36.7346   44.7803 H   0  0  0  0  0  0  0  0  0  0  0  0
   44.9285   36.6229   42.5438 H   0  0  0  0  0  0  0  0  0  0  0  0
   47.6401   32.2143   45.2613 H   0  0  0  0  0  0  0  0  0  0  0  0
   48.0865   30.5691   47.0795 H   0  0  0  0  0  0  0  0  0  0  0  0
   46.7162   30.5121   49.1130 H   0  0  0  0  0  0  0  0  0  0  0  0
   44.8248   32.1135   49.4316 H   0  0  0  0  0  0  0  0  0  0  0  0
   44.3760   33.7480   47.6331 H   0  0  0  0  0  0  0  0  0  0  0  0
   46.2537   35.0571   40.9969 H   0  0  0  0  0  0  0  0  0  0  0  0
   46.9935   33.5661   41.6803 H   0  0  0  0  0  0  0  0  0  0  0  0
   48.4605   35.4922   42.9709 H   0  0  0  0  0  0  0  0  0  0  0  0
   48.9480   34.7335   41.4174 H   0  0  0  0  0  0  0  0  0  0  0  0
   48.1175   36.3262   41.4174 H   0  0  0  0  0  0  0  0  0  0  0  0
  1  6  2  0
  2  1  1  0
  3  2  2  0
  3  4  1  0
  4  5  2  0
  5  6  1  0
  5  7  1  0
  7 12  1  0
  8  7  2  0
  8  9  1  0
  9 10  2  0
 10 11  1  0
 12 11  2  0
 13 14  1  0
 13  3  1  0
  1 15  1  0
  2 16  1  0
  8 17  1  0
  9 18  1  0
 10 19  1  0
 11 20  1  0
 12 21  1  0
 13 22  1  0
 13 23  1  0
 14 24  1  0
 14 25  1  0
 14 26  1  0
M  ISO  8  15  14  16  14  17  14  18  14  19  14  20  14  21  14  22   8
M  ISO  4  23   8  24   8  25   8  26   8
M  END
>  <minimizedAffinity>  (1) 
-5.11238241

>  <minimizedRMSD>  (1) 
0.318747759

$$$$
