
     RDKit          3D

 29 30  0  0  0  0  0  0  0  0999 V2000
   44.7670   35.6740   42.9790 C   0  0  0  0  0  0  0  0  0  0  0  0
   45.7320   35.7430   41.9780 C   0  0  0  0  0  0  0  0  0  0  0  0
   46.8550   34.9440   42.1180 C   0  0  0  0  0  0  0  0  0  0  0  0
   46.9610   34.1370   43.2170 N   0  0  0  0  0  0  0  0  0  0  0  0
   45.9930   34.1010   44.1740 C   0  0  0  0  0  0  0  0  0  0  0  0
   44.9110   34.8640   44.0480 N   0  0  0  0  0  0  0  0  0  0  0  0
   46.4050   31.6120   47.5420 C   0  0  0  0  0  0  0  0  0  0  0  0
   47.1290   31.3290   46.3930 C   0  0  0  0  0  0  0  0  0  0  0  0
   47.0050   32.1370   45.2760 C   0  0  0  0  0  0  0  0  0  0  0  0
   46.1530   33.2230   45.3310 C   0  0  0  0  0  0  0  0  0  0  0  0
   45.4370   33.4870   46.4920 C   0  0  0  0  0  0  0  0  0  0  0  0
   45.5540   32.6870   47.6110 C   0  0  0  0  0  0  0  0  0  0  0  0
   46.5620   30.5960   48.9400 S   0  0  0  0  0  0  0  0  0  0  0  0
   47.9260   30.8030   49.5660 O   0  0  0  0  0  0  0  0  0  0  0  0
   45.4620   30.9150   49.9050 O   0  0  0  0  0  0  0  0  0  0  0  0
   47.9880   34.9050   41.1210 C   0  0  0  0  0  0  0  0  0  0  0  0
   49.0650   35.8980   41.5200 C   0  0  0  0  0  0  0  0  0  0  0  0
   43.8636   36.2961   42.8961 H   0  0  0  0  0  0  0  0  0  0  0  0
   45.6076   36.4064   41.1094 H   0  0  0  0  0  0  0  0  0  0  0  0
   47.8033   30.4603   46.3695 H   0  0  0  0  0  0  0  0  0  0  0  0
   47.5747   31.9183   44.3608 H   0  0  0  0  0  0  0  0  0  0  0  0
   44.7608   34.3541   46.5203 H   0  0  0  0  0  0  0  0  0  0  0  0
   44.9846   32.9036   48.5269 H   0  0  0  0  0  0  0  0  0  0  0  0
   46.4557   29.2772   48.5847 H   0  0  0  0  0  0  0  0  0  0  0  0
   47.6045   35.1649   40.1233 H   0  0  0  0  0  0  0  0  0  0  0  0
   48.4186   33.8930   41.1031 H   0  0  0  0  0  0  0  0  0  0  0  0
   49.1247   35.9531   42.6170 H   0  0  0  0  0  0  0  0  0  0  0  0
   50.0341   35.5699   41.1160 H   0  0  0  0  0  0  0  0  0  0  0  0
   48.8165   36.8905   41.1160 H   0  0  0  0  0  0  0  0  0  0  0  0
  1  6  2  0
  2  3  2  0
  2  1  1  0
  3  4  1  0
  4  5  2  0
  5 10  1  0
  6  5  1  0
  7 12  2  0
  7 13  1  0
  8  7  1  0
  9 10  1  0
  9  8  2  0
 10 11  2  0
 11 12  1  0
 13 14  2  0
 13 15  2  0
 16 17  1  0
 16  3  1  0
  1 18  1  0
  2 19  1  0
  8 20  1  0
  9 21  1  0
 11 22  1  0
 12 23  1  0
 13 24  1  0
 16 25  1  0
 16 26  1  0
 17 27  1  0
 17 28  1  0
 17 29  1  0
M  ISO  8  18  14  19  14  20  14  21  14  22  14  23  14  24  11  25   8
M  ISO  4  26   8  27   8  28   8  29   8
M  END
>  <minimizedAffinity>  (1) 
-4.70323372

>  <minimizedRMSD>  (1) 
1.22870886

$$$$
