
     RDKit          3D

 24 25  0  0  0  0  0  0  0  0999 V2000
   44.5050   35.9910   44.5290 C   0  0  0  0  0  0  0  0  0  0  0  0
   45.1320   35.9330   43.2780 C   0  0  0  0  0  0  0  0  0  0  0  0
   46.0470   34.9060   43.0580 C   0  0  0  0  0  0  0  0  0  0  0  0
   46.2950   34.0010   44.0640 N   0  0  0  0  0  0  0  0  0  0  0  0
   45.6600   34.1020   45.2580 C   0  0  0  0  0  0  0  0  0  0  0  0
   44.7850   35.0770   45.4820 N   0  0  0  0  0  0  0  0  0  0  0  0
   45.9550   33.1200   46.2970 C   0  0  0  0  0  0  0  0  0  0  0  0
   46.9940   32.2200   46.1460 C   0  0  0  0  0  0  0  0  0  0  0  0
   47.1850   31.3250   47.2030 C   0  0  0  0  0  0  0  0  0  0  0  0
   46.4030   31.3390   48.3000 N   0  0  0  0  0  0  0  0  0  0  0  0
   45.4000   32.2240   48.4190 C   0  0  0  0  0  0  0  0  0  0  0  0
   45.1930   33.0910   47.4280 N   0  0  0  0  0  0  0  0  0  0  0  0
   46.7860   34.7320   41.7620 C   0  0  0  0  0  0  0  0  0  0  0  0
   48.1920   35.3300   41.8950 C   0  0  0  0  0  0  0  0  0  0  0  0
   43.7772   36.7892   44.7370 H   0  0  0  0  0  0  0  0  0  0  0  0
   44.9094   36.6735   42.4956 H   0  0  0  0  0  0  0  0  0  0  0  0
   47.6311   32.2089   45.2493 H   0  0  0  0  0  0  0  0  0  0  0  0
   47.9982   30.5872   47.1370 H   0  0  0  0  0  0  0  0  0  0  0  0
   44.7626   32.2332   49.3155 H   0  0  0  0  0  0  0  0  0  0  0  0
   46.2421   35.2478   40.9569 H   0  0  0  0  0  0  0  0  0  0  0  0
   46.8626   33.6611   41.5228 H   0  0  0  0  0  0  0  0  0  0  0  0
   48.4454   35.4378   42.9600 H   0  0  0  0  0  0  0  0  0  0  0  0
   48.9211   34.6641   41.4102 H   0  0  0  0  0  0  0  0  0  0  0  0
   48.2180   36.3171   41.4102 H   0  0  0  0  0  0  0  0  0  0  0  0
  1  6  2  0
  2  1  1  0
  3  2  2  0
  3  4  1  0
  4  5  2  0
  5  6  1  0
  5  7  1  0
  7 12  1  0
  8  7  2  0
  8  9  1  0
  9 10  2  0
 10 11  1  0
 12 11  2  0
 13 14  1  0
 13  3  1  0
  1 15  1  0
  2 16  1  0
  8 17  1  0
  9 18  1  0
 11 19  1  0
 13 20  1  0
 13 21  1  0
 14 22  1  0
 14 23  1  0
 14 24  1  0
M  ISO  8  15  14  16  14  17  14  18  14  19  14  20   8  21   8  22   8
M  ISO  2  23   8  24   8
M  END
>  <minimizedAffinity>  (1) 
-4.91026735

>  <minimizedRMSD>  (1) 
0.319490165

$$$$
