
     RDKit          3D

 24 26  0  0  0  0  0  0  0  0999 V2000
   46.8580   32.3920   44.7050 C   0  0  0  0  0  0  0  0  0  0  0  0
   47.5970   31.8380   43.6710 C   0  0  0  0  0  0  0  0  0  0  0  0
   48.1920   30.6750   44.0960 N   0  0  0  0  0  0  0  0  0  0  0  0
   47.8120   30.5310   45.3800 C   0  0  0  0  0  0  0  0  0  0  0  0
   47.0090   31.5640   45.7480 N   0  0  0  0  0  0  0  0  0  0  0  0
   44.6500   35.1150   45.7310 C   0  0  0  0  0  0  0  0  0  0  0  0
   44.6180   35.9400   44.5630 C   0  0  0  0  0  0  0  0  0  0  0  0
   45.3530   35.5460   43.4450 C   0  0  0  0  0  0  0  0  0  0  0  0
   46.0630   34.3880   43.5410 N   0  0  0  0  0  0  0  0  0  0  0  0
   46.0820   33.6180   44.6600 C   0  0  0  0  0  0  0  0  0  0  0  0
   45.3790   33.9830   45.7440 N   0  0  0  0  0  0  0  0  0  0  0  0
   46.4510   31.6860   47.0510 C   0  0  0  0  0  0  0  0  0  0  0  0
   46.7660   32.2920   48.2500 C   0  0  0  0  0  0  0  0  0  0  0  0
   45.7620   32.0150   49.1670 C   0  0  0  0  0  0  0  0  0  0  0  0
   44.8700   31.2360   48.4540 C   0  0  0  0  0  0  0  0  0  0  0  0
   45.2940   31.0620   47.2350 O   0  0  0  0  0  0  0  0  0  0  0  0
   47.6925   32.2655   42.6620 H   0  0  0  0  0  0  0  0  0  0  0  0
   48.1083   29.6987   46.0354 H   0  0  0  0  0  0  0  0  0  0  0  0
   44.0762   35.4067   46.6230 H   0  0  0  0  0  0  0  0  0  0  0  0
   44.0256   36.8667   44.5468 H   0  0  0  0  0  0  0  0  0  0  0  0
   45.3589   36.1463   42.5232 H   0  0  0  0  0  0  0  0  0  0  0  0
   47.6647   32.8951   48.4465 H   0  0  0  0  0  0  0  0  0  0  0  0
   45.6923   32.3394   50.2158 H   0  0  0  0  0  0  0  0  0  0  0  0
   43.9348   30.8219   48.8588 H   0  0  0  0  0  0  0  0  0  0  0  0
  1  5  1  0
  2  3  1  0
  2  1  2  0
  3  4  2  0
  4  5  1  0
  5 12  1  0
  6 11  2  0
  7  6  1  0
  8  9  1  0
  8  7  2  0
  9 10  2  0
 10  1  1  0
 10 11  1  0
 12 16  1  0
 12 13  2  0
 13 14  1  0
 15 14  2  0
 16 15  1  0
  2 17  1  0
  4 18  1  0
  6 19  1  0
  7 20  1  0
  8 21  1  0
 13 22  1  0
 14 23  1  0
 15 24  1  0
M  ISO  8  17  14  18  14  19  14  20  14  21  14  22  14  23  14  24  14
M  END
>  <minimizedAffinity>  (1) 
-4.64994907

>  <minimizedRMSD>  (1) 
3.20110536

$$$$
