
     RDKit          3D

 23 24  0  0  0  0  0  0  0  0999 V2000
   44.5740   36.0660   44.4490 C   0  0  0  0  0  0  0  0  0  0  0  0
   45.2850   35.8730   43.2700 C   0  0  0  0  0  0  0  0  0  0  0  0
   46.1320   34.7820   43.1630 C   0  0  0  0  0  0  0  0  0  0  0  0
   46.2240   33.9410   44.2400 N   0  0  0  0  0  0  0  0  0  0  0  0
   45.5140   34.1570   45.3790 C   0  0  0  0  0  0  0  0  0  0  0  0
   44.7010   35.2020   45.4850 N   0  0  0  0  0  0  0  0  0  0  0  0
   45.7670   33.1320   46.3950 C   0  0  0  0  0  0  0  0  0  0  0  0
   45.2460   32.9120   47.6650 C   0  0  0  0  0  0  0  0  0  0  0  0
   45.6950   31.8510   48.3740 C   0  0  0  0  0  0  0  0  0  0  0  0
   46.6540   31.0470   47.7870 C   0  0  0  0  0  0  0  0  0  0  0  0
   46.9300   31.8410   46.1360 S   0  0  0  0  0  0  0  0  0  0  0  0
   46.9460   34.4780   41.9420 C   0  0  0  0  0  0  0  0  0  0  0  0
   48.1930   35.3850   41.9290 C   0  0  0  0  0  0  0  0  0  0  0  0
   43.9002   36.9305   44.5419 H   0  0  0  0  0  0  0  0  0  0  0  0
   45.1764   36.5778   42.4325 H   0  0  0  0  0  0  0  0  0  0  0  0
   44.4848   33.5863   48.0844 H   0  0  0  0  0  0  0  0  0  0  0  0
   45.3106   31.6357   49.3819 H   0  0  0  0  0  0  0  0  0  0  0  0
   47.1377   30.1501   48.2012 H   0  0  0  0  0  0  0  0  0  0  0  0
   47.2577   33.4233   41.9602 H   0  0  0  0  0  0  0  0  0  0  0  0
   46.3442   34.6620   41.0398 H   0  0  0  0  0  0  0  0  0  0  0  0
   48.4966   35.6058   42.9630 H   0  0  0  0  0  0  0  0  0  0  0  0
   49.0143   34.8718   41.4074 H   0  0  0  0  0  0  0  0  0  0  0  0
   47.9577   36.3244   41.4074 H   0  0  0  0  0  0  0  0  0  0  0  0
  1  6  2  0
  2  1  1  0
  3  2  2  0
  3  4  1  0
  4  5  2  0
  5  6  1  0
  5  7  1  0
  7  8  2  0
  8  9  1  0
 10  9  2  0
 11  7  1  0
 11 10  1  0
 12  3  1  0
 13 12  1  0
  1 14  1  0
  2 15  1  0
  8 16  1  0
  9 17  1  0
 10 18  1  0
 12 19  1  0
 12 20  1  0
 13 21  1  0
 13 22  1  0
 13 23  1  0
M  ISO  8  14  14  15  14  16  14  17  14  18  14  19   8  20   8  21   8
M  ISO  2  22   8  23   8
M  END
>  <minimizedAffinity>  (1) 
-4.62823105

>  <minimizedRMSD>  (1) 
0.400685132

$$$$
