
     RDKit          3D

 22 23  0  0  0  0  0  0  0  0999 V2000
   44.5000   35.9890   44.5070 C   0  0  0  0  0  0  0  0  0  0  0  0
   45.1210   35.8830   43.2640 C   0  0  0  0  0  0  0  0  0  0  0  0
   46.0500   34.8400   43.0970 C   0  0  0  0  0  0  0  0  0  0  0  0
   46.3060   33.9890   44.1370 N   0  0  0  0  0  0  0  0  0  0  0  0
   45.6670   34.1450   45.3250 C   0  0  0  0  0  0  0  0  0  0  0  0
   44.7710   35.1350   45.5120 N   0  0  0  0  0  0  0  0  0  0  0  0
   45.8850   33.2950   46.4450 N   0  0  0  0  0  0  0  0  0  0  0  0
   46.9490   32.5130   46.7240 C   0  0  0  0  0  0  0  0  0  0  0  0
   46.7620   31.8560   47.8990 N   0  0  0  0  0  0  0  0  0  0  0  0
   45.5500   32.2550   48.3420 C   0  0  0  0  0  0  0  0  0  0  0  0
   45.0370   33.1240   47.4500 N   0  0  0  0  0  0  0  0  0  0  0  0
   46.7940   34.6080   41.8090 C   0  0  0  0  0  0  0  0  0  0  0  0
   48.1560   35.3020   41.8760 C   0  0  0  0  0  0  0  0  0  0  0  0
   43.7677   36.7931   44.6718 H   0  0  0  0  0  0  0  0  0  0  0  0
   44.8944   36.5851   42.4481 H   0  0  0  0  0  0  0  0  0  0  0  0
   47.8426   32.4203   46.0892 H   0  0  0  0  0  0  0  0  0  0  0  0
   45.0646   31.9262   49.2728 H   0  0  0  0  0  0  0  0  0  0  0  0
   46.2132   35.0199   40.9705 H   0  0  0  0  0  0  0  0  0  0  0  0
   46.9392   33.5281   41.6582 H   0  0  0  0  0  0  0  0  0  0  0  0
   48.4419   35.4477   42.9282 H   0  0  0  0  0  0  0  0  0  0  0  0
   48.9104   34.6784   41.3740 H   0  0  0  0  0  0  0  0  0  0  0  0
   48.0949   36.2789   41.3740 H   0  0  0  0  0  0  0  0  0  0  0  0
  1  6  2  0
  2  1  1  0
  3  2  2  0
  3  4  1  0
  4  5  2  0
  5  6  1  0
  5  7  1  0
  7  8  1  0
  7 11  1  0
  8  9  2  0
  9 10  1  0
 11 10  2  0
 12 13  1  0
 12  3  1  0
  1 14  1  0
  2 15  1  0
  8 16  1  0
 10 17  1  0
 12 18  1  0
 12 19  1  0
 13 20  1  0
 13 21  1  0
 13 22  1  0
M  ISO  8  14  14  15  14  16  14  17  14  18   8  19   8  20   8  21   8
M  ISO  1  22   8
M  END
>  <minimizedAffinity>  (1) 
-4.9105978

>  <minimizedRMSD>  (1) 
0.284326941

$$$$
