
     RDKit          3D

 19 19  0  0  0  0  0  0  0  0999 V2000
   44.5370   36.0120   44.4680 C   0  0  0  0  0  0  0  0  0  0  0  0
   45.1650   35.9630   43.2250 C   0  0  0  0  0  0  0  0  0  0  0  0
   46.0690   34.9290   42.9860 C   0  0  0  0  0  0  0  0  0  0  0  0
   46.3020   34.0040   43.9860 N   0  0  0  0  0  0  0  0  0  0  0  0
   45.6580   34.1050   45.1790 C   0  0  0  0  0  0  0  0  0  0  0  0
   44.7940   35.0880   45.4150 N   0  0  0  0  0  0  0  0  0  0  0  0
   46.8040   34.7770   41.6840 C   0  0  0  0  0  0  0  0  0  0  0  0
   48.2250   35.3390   41.8370 C   0  0  0  0  0  0  0  0  0  0  0  0
   45.8980   33.1200   46.2640 C   0  0  0  0  0  0  0  0  0  0  0  0
   43.8194   36.8184   44.6799 H   0  0  0  0  0  0  0  0  0  0  0  0
   44.9534   36.7188   42.4542 H   0  0  0  0  0  0  0  0  0  0  0  0
   46.2728   35.3297   40.8951 H   0  0  0  0  0  0  0  0  0  0  0  0
   46.8552   33.7127   41.4109 H   0  0  0  0  0  0  0  0  0  0  0  0
   48.4682   35.4352   42.9055 H   0  0  0  0  0  0  0  0  0  0  0  0
   48.9426   34.6570   41.3576 H   0  0  0  0  0  0  0  0  0  0  0  0
   48.2820   36.3274   41.3576 H   0  0  0  0  0  0  0  0  0  0  0  0
   45.7779   33.6130   47.2400 H   0  0  0  0  0  0  0  0  0  0  0  0
   45.1743   32.2960   46.1779 H   0  0  0  0  0  0  0  0  0  0  0  0
   46.9196   32.7213   46.1779 H   0  0  0  0  0  0  0  0  0  0  0  0
  1  6  2  0
  2  1  1  0
  3  2  2  0
  3  4  1  0
  4  5  2  0
  5  6  1  0
  5  9  1  0
  7  8  1  0
  7  3  1  0
  1 10  1  0
  2 11  1  0
  7 12  1  0
  7 13  1  0
  8 14  1  0
  8 15  1  0
  8 16  1  0
  9 17  1  0
  9 18  1  0
  9 19  1  0
M  ISO  8  10  14  11  14  12   8  13   8  14   8  15   8  16   8  17   8
M  ISO  2  18   8  19   8
M  END
>  <minimizedAffinity>  (1) 
-3.76475167

>  <minimizedRMSD>  (1) 
0.0527844988

$$$$
