
     RDKit          3D

 22 22  0  0  0  0  0  0  0  0999 V2000
   44.5240   36.0410   44.4660 C   0  0  0  0  0  0  0  0  0  0  0  0
   45.1690   35.9760   43.2160 C   0  0  0  0  0  0  0  0  0  0  0  0
   46.0630   34.9390   43.0010 C   0  0  0  0  0  0  0  0  0  0  0  0
   46.2790   34.0310   44.0000 N   0  0  0  0  0  0  0  0  0  0  0  0
   45.6410   34.1180   45.2010 C   0  0  0  0  0  0  0  0  0  0  0  0
   44.7710   35.1220   45.4170 N   0  0  0  0  0  0  0  0  0  0  0  0
   46.8140   34.7560   41.7140 C   0  0  0  0  0  0  0  0  0  0  0  0
   48.2120   35.3340   41.8410 C   0  0  0  0  0  0  0  0  0  0  0  0
   45.8690   33.1440   46.2810 C   0  0  0  0  0  0  0  0  0  0  0  0
   46.9150   32.1230   45.8760 C   0  0  0  0  0  0  0  0  0  0  0  0
   43.8096   36.8529   44.6673 H   0  0  0  0  0  0  0  0  0  0  0  0
   44.9696   36.7245   42.4350 H   0  0  0  0  0  0  0  0  0  0  0  0
   46.2787   35.2723   40.9035 H   0  0  0  0  0  0  0  0  0  0  0  0
   46.8869   33.6818   41.4885 H   0  0  0  0  0  0  0  0  0  0  0  0
   48.4695   35.4405   42.9051 H   0  0  0  0  0  0  0  0  0  0  0  0
   48.9329   34.6602   41.3549 H   0  0  0  0  0  0  0  0  0  0  0  0
   48.2466   36.3202   41.3549 H   0  0  0  0  0  0  0  0  0  0  0  0
   46.2142   33.6765   47.1795 H   0  0  0  0  0  0  0  0  0  0  0  0
   44.9248   32.6181   46.4856 H   0  0  0  0  0  0  0  0  0  0  0  0
   47.3660   31.6828   46.7775 H   0  0  0  0  0  0  0  0  0  0  0  0
   46.4414   31.3302   45.2784 H   0  0  0  0  0  0  0  0  0  0  0  0
   47.6961   32.6156   45.2784 H   0  0  0  0  0  0  0  0  0  0  0  0
  1  6  2  0
  2  1  1  0
  3  2  2  0
  3  4  1  0
  4  5  2  0
  5  6  1  0
  5  9  1  0
  7  8  1  0
  7  3  1  0
 10  9  1  0
  1 11  1  0
  2 12  1  0
  7 13  1  0
  7 14  1  0
  8 15  1  0
  8 16  1  0
  8 17  1  0
  9 18  1  0
  9 19  1  0
 10 20  1  0
 10 21  1  0
 10 22  1  0
M  ISO  8  11  14  12  14  13   8  14   8  15   8  16   8  17   8  18   8
M  ISO  4  19   8  20   8  21   8  22   8
M  END
>  <minimizedAffinity>  (1) 
-3.84249544

>  <minimizedRMSD>  (1) 
0.0765165016

$$$$
