
     RDKit          3D

 31 32  0  0  1  0  0  0  0  0999 V2000
   45.0490   35.4230   43.9610 C   0  0  0  0  0  0  0  0  0  0  0  0
   45.8010   35.6180   42.7850 C   0  0  0  0  0  0  0  0  0  0  0  0
   46.8890   34.7740   42.5580 C   0  0  0  0  0  0  0  0  0  0  0  0
   47.1940   33.7890   43.4750 N   0  0  0  0  0  0  0  0  0  0  0  0
   46.4320   33.6500   44.5910 C   0  0  0  0  0  0  0  0  0  0  0  0
   45.3850   34.4500   44.8250 N   0  0  0  0  0  0  0  0  0  0  0  0
   47.7580   34.9030   41.3230 C   0  0  0  0  0  0  0  0  0  0  0  0
   48.9640   35.7970   41.6640 C   0  0  0  0  0  0  0  0  0  0  0  0
   46.8380   32.5870   45.4860 C   0  0  0  0  0  0  0  0  0  0  0  0
   47.2350   31.5020   45.0370 O   0  0  0  0  0  0  0  0  0  0  0  0
   46.7760   32.8030   46.8560 O   0  0  0  0  0  0  0  0  0  0  0  0
   45.0210   31.2310   47.0970 N   0  0  0  0  0  0  0  0  0  0  0  0
   45.6630   30.2540   47.9480 C   0  0  0  0  0  0  0  0  0  0  0  0
   45.5310   30.9030   49.3100 C   0  0  0  0  0  0  0  0  0  0  0  0
   45.7980   32.3450   49.0130 C   0  0  0  0  0  0  0  0  0  0  0  0
   45.5410   32.4970   47.5140 C   0  0  1  0  0  0  0  0  0  0  0  0
   44.1843   36.0693   44.1723 H   0  0  0  0  0  0  0  0  0  0  0  0
   45.5386   36.4105   42.0687 H   0  0  0  0  0  0  0  0  0  0  0  0
   47.1776   35.3585   40.5071 H   0  0  0  0  0  0  0  0  0  0  0  0
   48.1047   33.9099   41.0013 H   0  0  0  0  0  0  0  0  0  0  0  0
   49.0667   35.8731   42.7565 H   0  0  0  0  0  0  0  0  0  0  0  0
   49.8784   35.3568   41.2396 H   0  0  0  0  0  0  0  0  0  0  0  0
   48.8087   36.7999   41.2396 H   0  0  0  0  0  0  0  0  0  0  0  0
   43.9990   31.2021   47.2222 H   0  0  0  0  0  0  0  0  0  0  0  0
   45.1415   29.2861   47.9123 H   0  0  0  0  0  0  0  0  0  0  0  0
   46.6994   30.0227   47.6610 H   0  0  0  0  0  0  0  0  0  0  0  0
   44.5200   30.7628   49.7201 H   0  0  0  0  0  0  0  0  0  0  0  0
   46.2106   30.4790   50.0639 H   0  0  0  0  0  0  0  0  0  0  0  0
   45.1181   32.9902   49.5888 H   0  0  0  0  0  0  0  0  0  0  0  0
   46.8216   32.6397   49.2876 H   0  0  0  0  0  0  0  0  0  0  0  0
   44.8389   33.3084   47.2719 H   0  0  0  0  0  0  0  0  0  0  0  0
  1  6  2  0
  2  1  1  0
  3  2  2  0
  3  4  1  0
  4  5  2  0
  5  6  1  0
  5  9  1  0
  7  8  1  0
  7  3  1  0
  9 11  1  0
 10  9  2  0
 12 16  1  0
 12 13  1  0
 13 14  1  0
 15 14  1  0
 16 11  1  0
 16 15  1  0
  1 17  1  0
  2 18  1  0
  7 19  1  0
  7 20  1  0
  8 21  1  0
  8 22  1  0
  8 23  1  0
 12 24  1  0
 13 25  1  0
 13 26  1  0
 14 27  1  0
 14 28  1  0
 15 29  1  0
 15 30  1  0
 16 31  1  1
M  ISO  8  17  14  18  14  19   8  20   8  21   8  22   8  23   8  24   5
M  ISO  7  25  13  26  13  27  13  28  13  29  13  30  13  31  13
M  END
>  <minimizedAffinity>  (1) 
-5.25511599

>  <minimizedRMSD>  (1) 
1.67521918

$$$$
