
     RDKit          3D

 24 26  0  0  0  0  0  0  0  0999 V2000
   46.6330   32.4100   45.4010 C   0  0  0  0  0  0  0  0  0  0  0  0
   47.3560   31.5250   44.6140 C   0  0  0  0  0  0  0  0  0  0  0  0
   47.8100   30.4800   45.3430 N   0  0  0  0  0  0  0  0  0  0  0  0
   47.3640   30.7160   46.6010 C   0  0  0  0  0  0  0  0  0  0  0  0
   46.6690   31.8640   46.6180 N   0  0  0  0  0  0  0  0  0  0  0  0
   44.5520   35.4180   45.4830 C   0  0  0  0  0  0  0  0  0  0  0  0
   44.7660   35.9690   44.1940 C   0  0  0  0  0  0  0  0  0  0  0  0
   45.6140   35.3080   43.3220 C   0  0  0  0  0  0  0  0  0  0  0  0
   46.2140   34.1510   43.7300 N   0  0  0  0  0  0  0  0  0  0  0  0
   45.9970   33.6420   44.9630 C   0  0  0  0  0  0  0  0  0  0  0  0
   45.1850   34.2720   45.8030 N   0  0  0  0  0  0  0  0  0  0  0  0
   46.0480   32.4160   47.8180 C   0  0  0  0  0  0  0  0  0  0  0  0
   46.1330   31.6880   49.1030 C   0  0  0  0  0  0  0  0  0  0  0  0
   44.8010   31.6780   48.3370 C   0  0  0  0  0  0  0  0  0  0  0  0
   47.5365   31.6562   43.5369 H   0  0  0  0  0  0  0  0  0  0  0  0
   47.5436   30.0681   47.4716 H   0  0  0  0  0  0  0  0  0  0  0  0
   43.8856   35.9139   46.2041 H   0  0  0  0  0  0  0  0  0  0  0  0
   44.2683   36.9027   43.8931 H   0  0  0  0  0  0  0  0  0  0  0  0
   45.8018   35.7089   42.3150 H   0  0  0  0  0  0  0  0  0  0  0  0
   46.2978   33.4464   47.5251 H   0  0  0  0  0  0  0  0  0  0  0  0
   46.7311   30.7673   49.1707 H   0  0  0  0  0  0  0  0  0  0  0  0
   46.4310   31.9632   50.1255 H   0  0  0  0  0  0  0  0  0  0  0  0
   43.9367   32.2434   48.7156 H   0  0  0  0  0  0  0  0  0  0  0  0
   44.1162   30.9097   47.9486 H   0  0  0  0  0  0  0  0  0  0  0  0
  1  5  1  0
  2  3  1  0
  2  1  2  0
  3  4  2  0
  4  5  1  0
  5 12  1  0
  6 11  2  0
  7  6  1  0
  8  9  1  0
  8  7  2  0
  9 10  2  0
 10  1  1  0
 10 11  1  0
 12 14  1  0
 12 13  1  0
 14 13  1  0
  2 15  1  0
  4 16  1  0
  6 17  1  0
  7 18  1  0
  8 19  1  0
 12 20  1  0
 13 21  1  0
 13 22  1  0
 14 23  1  0
 14 24  1  0
M  ISO  8  15  14  16  14  17  14  18  14  19  14  20  13  21  13  22  13
M  ISO  2  23  13  24  13
M  END
>  <minimizedAffinity>  (1) 
-4.28201008

>  <minimizedRMSD>  (1) 
2.36269259

$$$$
