
     RDKit          3D

 35 37  0  0  0  0  0  0  0  0999 V2000
   44.5010   35.7620   44.6960 C   0  0  0  0  0  0  0  0  0  0  0  0
   45.1810   35.5210   43.4880 C   0  0  0  0  0  0  0  0  0  0  0  0
   46.0880   34.4620   43.4510 C   0  0  0  0  0  0  0  0  0  0  0  0
   46.2730   33.7080   44.5870 N   0  0  0  0  0  0  0  0  0  0  0  0
   45.5940   33.9870   45.7080 C   0  0  0  0  0  0  0  0  0  0  0  0
   44.7260   34.9860   45.7770 N   0  0  0  0  0  0  0  0  0  0  0  0
   46.8810   34.1040   42.2090 C   0  0  0  0  0  0  0  0  0  0  0  0
   47.9110   35.2110   41.9620 C   0  0  0  0  0  0  0  0  0  0  0  0
   45.8780   33.1180   46.8400 C   0  0  0  0  0  0  0  0  0  0  0  0
   44.9500   32.6880   47.5650 O   0  0  0  0  0  0  0  0  0  0  0  0
   47.2020   32.7670   47.1140 O   0  0  0  0  0  0  0  0  0  0  0  0
   47.4850   31.3890   47.1740 C   0  0  0  0  0  0  0  0  0  0  0  0
   46.8430   30.6540   46.1860 C   0  0  0  0  0  0  0  0  0  0  0  0
   47.0900   29.2770   46.2010 C   0  0  0  0  0  0  0  0  0  0  0  0
   47.9120   28.6750   47.1250 C   0  0  0  0  0  0  0  0  0  0  0  0
   48.5070   29.4810   48.0660 C   0  0  0  0  0  0  0  0  0  0  0  0
   49.3510   28.9460   49.0320 C   0  0  0  0  0  0  0  0  0  0  0  0
   49.9770   29.7240   50.0060 C   0  0  0  0  0  0  0  0  0  0  0  0
   49.7190   31.0790   49.9750 C   0  0  0  0  0  0  0  0  0  0  0  0
   48.8920   31.6730   49.0430 C   0  0  0  0  0  0  0  0  0  0  0  0
   48.3160   30.8380   48.1200 C   0  0  0  0  0  0  0  0  0  0  0  0
   43.7797   36.5901   44.7599 H   0  0  0  0  0  0  0  0  0  0  0  0
   45.0031   36.1475   42.6015 H   0  0  0  0  0  0  0  0  0  0  0  0
   47.3957   33.1436   42.3600 H   0  0  0  0  0  0  0  0  0  0  0  0
   46.2089   34.0108   41.3432 H   0  0  0  0  0  0  0  0  0  0  0  0
   48.2714   35.5983   42.9264 H   0  0  0  0  0  0  0  0  0  0  0  0
   48.7581   34.8029   41.3911 H   0  0  0  0  0  0  0  0  0  0  0  0
   47.4430   36.0265   41.3911 H   0  0  0  0  0  0  0  0  0  0  0  0
   46.1839   31.1234   45.4409 H   0  0  0  0  0  0  0  0  0  0  0  0
   46.6053   28.6478   45.4400 H   0  0  0  0  0  0  0  0  0  0  0  0
   48.0867   27.5890   47.1114 H   0  0  0  0  0  0  0  0  0  0  0  0
   49.5334   27.8612   49.0283 H   0  0  0  0  0  0  0  0  0  0  0  0
   50.6427   29.2797   50.7606 H   0  0  0  0  0  0  0  0  0  0  0  0
   50.1968   31.7187   50.7317 H   0  0  0  0  0  0  0  0  0  0  0  0
   48.7051   32.7570   49.0407 H   0  0  0  0  0  0  0  0  0  0  0  0
  1  6  2  0
  2  1  1  0
  3  2  2  0
  3  4  1  0
  4  5  2  0
  5  6  1  0
  5  9  1  0
  7  3  1  0
  8  7  1  0
  9 11  1  0
  9 10  2  0
 11 12  1  0
 12 21  2  0
 13 14  2  0
 13 12  1  0
 14 15  1  0
 15 16  2  0
 16 21  1  0
 16 17  1  0
 17 18  2  0
 19 18  1  0
 20 19  2  0
 21 20  1  0
  1 22  1  0
  2 23  1  0
  7 24  1  0
  7 25  1  0
  8 26  1  0
  8 27  1  0
  8 28  1  0
 13 29  1  0
 14 30  1  0
 15 31  1  0
 17 32  1  0
 18 33  1  0
 19 34  1  0
 20 35  1  0
M  ISO  8  22  14  23  14  24   8  25   8  26   8  27   8  28   8  29  14
M  ISO  6  30  14  31  14  32  14  33  14  34  14  35  14
M  END
>  <minimizedAffinity>  (1) 
-5.45310831

>  <minimizedRMSD>  (1) 
1.82776678

$$$$
