
     RDKit          3D

 26 27  0  0  0  0  0  0  0  0999 V2000
   44.5570   36.0330   44.1460 C   0  0  0  0  0  0  0  0  0  0  0  0
   45.2850   35.9190   42.9510 C   0  0  0  0  0  0  0  0  0  0  0  0
   46.2450   34.9310   42.8370 C   0  0  0  0  0  0  0  0  0  0  0  0
   46.4450   34.1010   43.9080 N   0  0  0  0  0  0  0  0  0  0  0  0
   45.7250   34.2390   45.0470 C   0  0  0  0  0  0  0  0  0  0  0  0
   44.8040   35.1800   45.1640 N   0  0  0  0  0  0  0  0  0  0  0  0
   47.0700   34.7350   41.5980 C   0  0  0  0  0  0  0  0  0  0  0  0
   48.4150   35.4570   41.7810 C   0  0  0  0  0  0  0  0  0  0  0  0
   46.0420   33.2870   46.1040 C   0  0  0  0  0  0  0  0  0  0  0  0
   47.0550   32.5580   46.0050 O   0  0  0  0  0  0  0  0  0  0  0  0
   45.2110   33.2040   47.2060 O   0  0  0  0  0  0  0  0  0  0  0  0
   45.2630   32.0240   47.9410 C   0  0  0  0  0  0  0  0  0  0  0  0
   44.8540   30.7090   47.8080 C   0  0  0  0  0  0  0  0  0  0  0  0
   45.2530   30.0570   48.9710 C   0  0  0  0  0  0  0  0  0  0  0  0
   45.8740   30.9610   49.7570 N   0  0  0  0  0  0  0  0  0  0  0  0
   45.8830   32.1370   49.1490 N   0  0  0  0  0  0  0  0  0  0  0  0
   43.7890   36.8133   44.2529 H   0  0  0  0  0  0  0  0  0  0  0  0
   45.0937   36.6079   42.1151 H   0  0  0  0  0  0  0  0  0  0  0  0
   46.5399   35.1546   40.7303 H   0  0  0  0  0  0  0  0  0  0  0  0
   47.2412   33.6618   41.4281 H   0  0  0  0  0  0  0  0  0  0  0  0
   48.6270   35.5708   42.8544 H   0  0  0  0  0  0  0  0  0  0  0  0
   49.2149   34.8670   41.3098 H   0  0  0  0  0  0  0  0  0  0  0  0
   48.3654   36.4497   41.3098 H   0  0  0  0  0  0  0  0  0  0  0  0
   44.3201   30.2671   46.9537 H   0  0  0  0  0  0  0  0  0  0  0  0
   45.0911   28.9949   49.2072 H   0  0  0  0  0  0  0  0  0  0  0  0
   46.2777   30.7666   50.6845 H   0  0  0  0  0  0  0  0  0  0  0  0
  1  6  2  0
  2  1  1  0
  3  2  2  0
  3  4  1  0
  4  5  2  0
  5  6  1  0
  5  9  1  0
  7  8  1  0
  7  3  1  0
  9 11  1  0
 10  9  2  0
 11 12  1  0
 12 16  2  0
 13 12  1  0
 13 14  2  0
 14 15  1  0
 16 15  1  0
  1 17  1  0
  2 18  1  0
  7 19  1  0
  7 20  1  0
  8 21  1  0
  8 22  1  0
  8 23  1  0
 13 24  1  0
 14 25  1  0
 15 26  1  0
M  ISO  8  17  14  18  14  19   8  20   8  21   8  22   8  23   8  24  14
M  ISO  2  25  14  26   9
M  END
>  <minimizedAffinity>  (1) 
-5.36574888

>  <minimizedRMSD>  (1) 
1.58983839

$$$$
