
     RDKit          3D

 26 27  0  0  0  0  0  0  0  0999 V2000
   44.5780   36.0260   44.1800 C   0  0  0  0  0  0  0  0  0  0  0  0
   45.2670   35.9480   42.9580 C   0  0  0  0  0  0  0  0  0  0  0  0
   46.2180   34.9640   42.7960 C   0  0  0  0  0  0  0  0  0  0  0  0
   46.4530   34.0940   43.8430 N   0  0  0  0  0  0  0  0  0  0  0  0
   45.7700   34.2040   45.0000 C   0  0  0  0  0  0  0  0  0  0  0  0
   44.8520   35.1470   45.1670 N   0  0  0  0  0  0  0  0  0  0  0  0
   47.0260   34.7810   41.5260 C   0  0  0  0  0  0  0  0  0  0  0  0
   48.4050   35.4340   41.7380 C   0  0  0  0  0  0  0  0  0  0  0  0
   46.1060   33.2290   46.0310 C   0  0  0  0  0  0  0  0  0  0  0  0
   47.1240   32.5080   45.8890 O   0  0  0  0  0  0  0  0  0  0  0  0
   45.2950   33.1230   47.1440 O   0  0  0  0  0  0  0  0  0  0  0  0
   45.8710   30.9640   49.7690 N   0  0  0  0  0  0  0  0  0  0  0  0
   45.9320   32.1120   49.1320 N   0  0  0  0  0  0  0  0  0  0  0  0
   45.3130   31.9970   47.9310 C   0  0  0  0  0  0  0  0  0  0  0  0
   44.8580   30.7120   47.8480 C   0  0  0  0  0  0  0  0  0  0  0  0
   45.2130   30.0540   49.0170 C   0  0  0  0  0  0  0  0  0  0  0  0
   43.8151   36.8036   44.3324 H   0  0  0  0  0  0  0  0  0  0  0  0
   45.0515   36.6586   42.1464 H   0  0  0  0  0  0  0  0  0  0  0  0
   46.5103   35.2642   40.6831 H   0  0  0  0  0  0  0  0  0  0  0  0
   47.1419   33.7110   41.2988 H   0  0  0  0  0  0  0  0  0  0  0  0
   48.6042   35.5283   42.8157 H   0  0  0  0  0  0  0  0  0  0  0  0
   49.1821   34.8082   41.2749 H   0  0  0  0  0  0  0  0  0  0  0  0
   48.4134   36.4317   41.2749 H   0  0  0  0  0  0  0  0  0  0  0  0
   46.2662   30.7844   50.7031 H   0  0  0  0  0  0  0  0  0  0  0  0
   44.3066   30.2751   47.0024 H   0  0  0  0  0  0  0  0  0  0  0  0
   45.0021   29.0065   49.2781 H   0  0  0  0  0  0  0  0  0  0  0  0
  1  6  2  0
  2  1  1  0
  3  2  2  0
  3  4  1  0
  4  5  2  0
  5  6  1  0
  5  9  1  0
  7  8  1  0
  7  3  1  0
  9 11  1  0
 10  9  2  0
 11 14  1  0
 13 12  1  0
 14 13  2  0
 15 14  1  0
 15 16  2  0
 16 12  1  0
  1 17  1  0
  2 18  1  0
  7 19  1  0
  7 20  1  0
  8 21  1  0
  8 22  1  0
  8 23  1  0
 12 24  1  0
 15 25  1  0
 16 26  1  0
M  ISO  8  17  14  18  14  19   8  20   8  21   8  22   8  23   8  24   9
M  ISO  2  25  14  26  14
M  END
>  <minimizedAffinity>  (1) 
-5.3467226

>  <minimizedRMSD>  (1) 
1.70576966

$$$$
