
     RDKit          3D

 32 33  0  0  0  0  0  0  0  0999 V2000
   45.1400   34.0530   41.9640 C   0  0  0  0  0  0  0  0  0  0  0  0
   46.4820   34.2420   41.5940 C   0  0  0  0  0  0  0  0  0  0  0  0
   47.4300   34.3710   42.6000 C   0  0  0  0  0  0  0  0  0  0  0  0
   47.0270   34.3090   43.9080 N   0  0  0  0  0  0  0  0  0  0  0  0
   45.7200   34.1240   44.2110 C   0  0  0  0  0  0  0  0  0  0  0  0
   44.7920   33.9990   43.2660 N   0  0  0  0  0  0  0  0  0  0  0  0
   48.9030   34.5780   42.3100 C   0  0  0  0  0  0  0  0  0  0  0  0
   49.0660   35.8760   41.5060 C   0  0  0  0  0  0  0  0  0  0  0  0
   45.4200   34.0750   45.6420 C   0  0  0  0  0  0  0  0  0  0  0  0
   44.6160   34.8660   46.1460 O   0  0  0  0  0  0  0  0  0  0  0  0
   46.0590   33.1190   46.4190 O   0  0  0  0  0  0  0  0  0  0  0  0
   45.3330   32.2710   47.2800 C   0  0  0  0  0  0  0  0  0  0  0  0
   45.6570   30.8150   47.0410 C   0  0  0  0  0  0  0  0  0  0  0  0
   45.1570   30.2150   48.3600 C   0  0  0  0  0  0  0  0  0  0  0  0
   45.4910   31.2640   49.4020 C   0  0  0  0  0  0  0  0  0  0  0  0
   45.8830   32.5040   48.6690 C   0  0  0  0  0  0  0  0  0  0  0  0
   44.3683   33.9484   41.1871 H   0  0  0  0  0  0  0  0  0  0  0  0
   46.7741   34.2866   40.5344 H   0  0  0  0  0  0  0  0  0  0  0  0
   49.4596   34.6554   43.2556 H   0  0  0  0  0  0  0  0  0  0  0  0
   49.2959   33.7272   41.7340 H   0  0  0  0  0  0  0  0  0  0  0  0
   49.1726   36.7247   42.1976 H   0  0  0  0  0  0  0  0  0  0  0  0
   49.9622   35.8046   40.8722 H   0  0  0  0  0  0  0  0  0  0  0  0
   48.1799   36.0285   40.8722 H   0  0  0  0  0  0  0  0  0  0  0  0
   44.2621   32.4750   47.1333 H   0  0  0  0  0  0  0  0  0  0  0  0
   45.1112   30.4115   46.1754 H   0  0  0  0  0  0  0  0  0  0  0  0
   46.7110   30.6061   46.8054 H   0  0  0  0  0  0  0  0  0  0  0  0
   44.0722   30.0374   48.3203 H   0  0  0  0  0  0  0  0  0  0  0  0
   45.6209   29.2423   48.5806 H   0  0  0  0  0  0  0  0  0  0  0  0
   44.6122   31.4612   50.0336 H   0  0  0  0  0  0  0  0  0  0  0  0
   46.3076   30.9209   50.0542 H   0  0  0  0  0  0  0  0  0  0  0  0
   46.9766   32.6199   48.6461 H   0  0  0  0  0  0  0  0  0  0  0  0
   45.4989   33.4222   49.1373 H   0  0  0  0  0  0  0  0  0  0  0  0
  1  6  2  0
  2  1  1  0
  2  3  2  0
  3  4  1  0
  4  5  2  0
  5  9  1  0
  6  5  1  0
  7  3  1  0
  8  7  1  0
  9 10  2  0
  9 11  1  0
 11 12  1  0
 12 16  1  0
 13 12  1  0
 13 14  1  0
 14 15  1  0
 16 15  1  0
  1 17  1  0
  2 18  1  0
  7 19  1  0
  7 20  1  0
  8 21  1  0
  8 22  1  0
  8 23  1  0
 12 24  1  0
 13 25  1  0
 13 26  1  0
 14 27  1  0
 14 28  1  0
 15 29  1  0
 15 30  1  0
 16 31  1  0
 16 32  1  0
M  ISO  8  17  14  18  14  19   8  20   8  21   8  22   8  23   8  24  13
M  ISO  8  25  13  26  13  27  13  28  13  29  13  30  13  31  13  32  13
M  END
>  <minimizedAffinity>  (1) 
-4.97639847

>  <minimizedRMSD>  (1) 
2.50156975

$$$$
