
     RDKit          3D

 26 27  0  0  0  0  0  0  0  0999 V2000
   46.6350   32.5200   44.8990 C   0  0  0  0  0  0  0  0  0  0  0  0
   47.1630   31.6250   43.9770 C   0  0  0  0  0  0  0  0  0  0  0  0
   47.6940   30.5440   44.6340 N   0  0  0  0  0  0  0  0  0  0  0  0
   47.4830   30.7930   45.9470 C   0  0  0  0  0  0  0  0  0  0  0  0
   46.8530   31.9690   46.1050 N   0  0  0  0  0  0  0  0  0  0  0  0
   44.5640   35.5100   45.3170 C   0  0  0  0  0  0  0  0  0  0  0  0
   44.7430   36.1910   44.0920 C   0  0  0  0  0  0  0  0  0  0  0  0
   45.5720   35.6100   43.1480 C   0  0  0  0  0  0  0  0  0  0  0  0
   46.1820   34.4140   43.4230 N   0  0  0  0  0  0  0  0  0  0  0  0
   45.9870   33.7830   44.6170 C   0  0  0  0  0  0  0  0  0  0  0  0
   45.1940   34.3330   45.5270 N   0  0  0  0  0  0  0  0  0  0  0  0
   46.4960   32.4950   47.4080 C   0  0  0  0  0  0  0  0  0  0  0  0
   47.6780   32.2410   48.3230 C   0  0  0  0  0  0  0  0  0  0  0  0
   45.3220   31.7390   47.9930 C   0  0  0  0  0  0  0  0  0  0  0  0
   47.1563   31.7623   42.8856 H   0  0  0  0  0  0  0  0  0  0  0  0
   47.7846   30.1269   46.7688 H   0  0  0  0  0  0  0  0  0  0  0  0
   43.9148   35.9359   46.0962 H   0  0  0  0  0  0  0  0  0  0  0  0
   44.2409   37.1498   43.8953 H   0  0  0  0  0  0  0  0  0  0  0  0
   45.7405   36.1063   42.1809 H   0  0  0  0  0  0  0  0  0  0  0  0
   46.2371   33.5599   47.3137 H   0  0  0  0  0  0  0  0  0  0  0  0
   47.3519   32.3111   49.3712 H   0  0  0  0  0  0  0  0  0  0  0  0
   48.0811   31.2357   48.1308 H   0  0  0  0  0  0  0  0  0  0  0  0
   48.4585   32.9919   48.1308 H   0  0  0  0  0  0  0  0  0  0  0  0
   45.3746   31.7729   49.0912 H   0  0  0  0  0  0  0  0  0  0  0  0
   44.3829   32.2025   47.6564 H   0  0  0  0  0  0  0  0  0  0  0  0
   45.3555   30.6923   47.6564 H   0  0  0  0  0  0  0  0  0  0  0  0
  1  5  1  0
  2  3  1  0
  2  1  2  0
  3  4  2  0
  4  5  1  0
  5 12  1  0
  6 11  2  0
  7  6  1  0
  8  9  1  0
  8  7  2  0
  9 10  2  0
 10  1  1  0
 10 11  1  0
 12 14  1  0
 12 13  1  0
  2 15  1  0
  4 16  1  0
  6 17  1  0
  7 18  1  0
  8 19  1  0
 12 20  1  0
 13 21  1  0
 13 22  1  0
 13 23  1  0
 14 24  1  0
 14 25  1  0
 14 26  1  0
M  ISO  8  15  14  16  14  17  14  18  14  19  14  20   8  21   8  22   8
M  ISO  4  23   8  24   8  25   8  26   8
M  END
>  <minimizedAffinity>  (1) 
-4.14019585

>  <minimizedRMSD>  (1) 
2.5844686

$$$$
