
     RDKit          3D

 26 27  0  0  0  0  0  0  0  0999 V2000
   44.8470   35.8940   43.9040 C   0  0  0  0  0  0  0  0  0  0  0  0
   45.6430   35.9390   42.7370 C   0  0  0  0  0  0  0  0  0  0  0  0
   46.5680   34.9280   42.5270 C   0  0  0  0  0  0  0  0  0  0  0  0
   46.6850   33.9200   43.4530 N   0  0  0  0  0  0  0  0  0  0  0  0
   45.8960   33.9220   44.5600 C   0  0  0  0  0  0  0  0  0  0  0  0
   45.0010   34.8840   44.7800 N   0  0  0  0  0  0  0  0  0  0  0  0
   47.4590   34.8880   41.3160 C   0  0  0  0  0  0  0  0  0  0  0  0
   48.7540   35.6430   41.6300 C   0  0  0  0  0  0  0  0  0  0  0  0
   46.1040   32.8130   45.4720 C   0  0  0  0  0  0  0  0  0  0  0  0
   45.8930   31.6510   45.1120 O   0  0  0  0  0  0  0  0  0  0  0  0
   46.5500   33.0870   46.7680 O   0  0  0  0  0  0  0  0  0  0  0  0
   46.1500   32.2610   47.8140 C   0  0  0  0  0  0  0  0  0  0  0  0
   46.8230   31.4940   48.7520 C   0  0  0  0  0  0  0  0  0  0  0  0
   45.9050   30.9120   49.5090 N   0  0  0  0  0  0  0  0  0  0  0  0
   44.6740   31.2940   49.0700 C   0  0  0  0  0  0  0  0  0  0  0  0
   44.8190   32.1320   48.0160 N   0  0  0  0  0  0  0  0  0  0  0  0
   44.1039   36.6821   44.0957 H   0  0  0  0  0  0  0  0  0  0  0  0
   45.5310   36.7581   42.0114 H   0  0  0  0  0  0  0  0  0  0  0  0
   46.9494   35.3658   40.4663 H   0  0  0  0  0  0  0  0  0  0  0  0
   47.6889   33.8442   41.0559 H   0  0  0  0  0  0  0  0  0  0  0  0
   48.8803   35.7167   42.7202 H   0  0  0  0  0  0  0  0  0  0  0  0
   49.6082   35.1014   41.1976 H   0  0  0  0  0  0  0  0  0  0  0  0
   48.7035   36.6532   41.1976 H   0  0  0  0  0  0  0  0  0  0  0  0
   47.9136   31.3885   48.8494 H   0  0  0  0  0  0  0  0  0  0  0  0
   43.7148   30.9732   49.5024 H   0  0  0  0  0  0  0  0  0  0  0  0
   44.0658   32.5814   47.4760 H   0  0  0  0  0  0  0  0  0  0  0  0
  1  6  2  0
  2  1  1  0
  3  2  2  0
  3  4  1  0
  4  5  2  0
  5  6  1  0
  5  9  1  0
  7  8  1  0
  7  3  1  0
  9 11  1  0
 10  9  2  0
 11 12  1  0
 12 16  1  0
 12 13  2  0
 13 14  1  0
 15 14  2  0
 16 15  1  0
  1 17  1  0
  2 18  1  0
  7 19  1  0
  7 20  1  0
  8 21  1  0
  8 22  1  0
  8 23  1  0
 13 24  1  0
 15 25  1  0
 16 26  1  0
M  ISO  8  17  14  18  14  19   8  20   8  21   8  22   8  23   8  24  14
M  ISO  2  25  14  26   9
M  END
>  <minimizedAffinity>  (1) 
-5.00941038

>  <minimizedRMSD>  (1) 
1.35585868

$$$$
