
     RDKit          3D

 26 27  0  0  0  0  0  0  0  0999 V2000
   44.5350   35.8710   44.6380 C   0  0  0  0  0  0  0  0  0  0  0  0
   45.1040   35.8980   43.3650 C   0  0  0  0  0  0  0  0  0  0  0  0
   46.0350   34.9130   43.0340 C   0  0  0  0  0  0  0  0  0  0  0  0
   46.3340   33.9740   43.9860 N   0  0  0  0  0  0  0  0  0  0  0  0
   45.7640   33.9830   45.2000 C   0  0  0  0  0  0  0  0  0  0  0  0
   44.8690   34.9220   45.5310 N   0  0  0  0  0  0  0  0  0  0  0  0
   46.7260   34.8200   41.7000 C   0  0  0  0  0  0  0  0  0  0  0  0
   48.1860   35.2960   41.8740 C   0  0  0  0  0  0  0  0  0  0  0  0
   46.1760   32.9260   46.1110 C   0  0  0  0  0  0  0  0  0  0  0  0
   47.1230   32.1730   45.8150 O   0  0  0  0  0  0  0  0  0  0  0  0
   45.4970   32.7720   47.3150 O   0  0  0  0  0  0  0  0  0  0  0  0
   45.9030   31.7520   48.2230 C   0  0  0  0  0  0  0  0  0  0  0  0
   45.0820   30.5000   48.2790 C   0  0  0  0  0  0  0  0  0  0  0  0
   45.1490   31.4760   49.4560 C   0  0  0  0  0  0  0  0  0  0  0  0
   43.7995   36.6399   44.9170 H   0  0  0  0  0  0  0  0  0  0  0  0
   44.8256   36.6768   42.6397 H   0  0  0  0  0  0  0  0  0  0  0  0
   46.2108   35.4605   40.9691 H   0  0  0  0  0  0  0  0  0  0  0  0
   46.7072   33.7823   41.3356 H   0  0  0  0  0  0  0  0  0  0  0  0
   48.4214   35.3727   42.9458 H   0  0  0  0  0  0  0  0  0  0  0  0
   48.8663   34.5731   41.4000 H   0  0  0  0  0  0  0  0  0  0  0  0
   48.3095   36.2809   41.4000 H   0  0  0  0  0  0  0  0  0  0  0  0
   46.9598   31.9934   48.0360 H   0  0  0  0  0  0  0  0  0  0  0  0
   44.1621   30.4122   47.6823 H   0  0  0  0  0  0  0  0  0  0  0  0
   45.2704   29.4261   48.1332 H   0  0  0  0  0  0  0  0  0  0  0  0
   45.6822   31.1935   50.3757 H   0  0  0  0  0  0  0  0  0  0  0  0
   44.4080   32.0255   50.0552 H   0  0  0  0  0  0  0  0  0  0  0  0
  1  6  2  0
  2  1  1  0
  3  2  2  0
  3  4  1  0
  4  5  2  0
  5  6  1  0
  5  9  1  0
  7  8  1  0
  7  3  1  0
  9 11  1  0
 10  9  2  0
 11 12  1  0
 12 13  1  0
 12 14  1  0
 13 14  1  0
  1 15  1  0
  2 16  1  0
  7 17  1  0
  7 18  1  0
  8 19  1  0
  8 20  1  0
  8 21  1  0
 12 22  1  0
 13 23  1  0
 13 24  1  0
 14 25  1  0
 14 26  1  0
M  ISO  8  15  14  16  14  17   8  18   8  19   8  20   8  21   8  22  13
M  ISO  4  23  13  24  13  25  13  26  13
M  END
>  <minimizedAffinity>  (1) 
-4.76949739

>  <minimizedRMSD>  (1) 
0.995412886

$$$$
