
     RDKit          3D

 23 24  0  0  0  0  0  0  0  0999 V2000
   46.4330   32.4500   45.6710 C   0  0  0  0  0  0  0  0  0  0  0  0
   47.2770   31.5310   45.0970 C   0  0  0  0  0  0  0  0  0  0  0  0
   47.5600   30.5230   45.9690 N   0  0  0  0  0  0  0  0  0  0  0  0
   46.8820   30.8240   47.0970 C   0  0  0  0  0  0  0  0  0  0  0  0
   46.2170   31.9750   46.8970 N   0  0  0  0  0  0  0  0  0  0  0  0
   44.5400   35.5660   45.2880 C   0  0  0  0  0  0  0  0  0  0  0  0
   44.8700   35.9640   43.9750 C   0  0  0  0  0  0  0  0  0  0  0  0
   45.7320   35.1610   43.2500 C   0  0  0  0  0  0  0  0  0  0  0  0
   46.2190   34.0260   43.8350 N   0  0  0  0  0  0  0  0  0  0  0  0
   45.8840   33.6620   45.1060 C   0  0  0  0  0  0  0  0  0  0  0  0
   45.0600   34.4350   45.7960 N   0  0  0  0  0  0  0  0  0  0  0  0
   45.4040   32.5230   47.9650 C   0  0  0  0  0  0  0  0  0  0  0  0
   45.4460   31.6670   49.2190 C   0  0  0  0  0  0  0  0  0  0  0  0
   47.6710   31.5995   44.0723 H   0  0  0  0  0  0  0  0  0  0  0  0
   46.8749   30.2288   48.0221 H   0  0  0  0  0  0  0  0  0  0  0  0
   43.8584   36.1801   45.8949 H   0  0  0  0  0  0  0  0  0  0  0  0
   44.4542   36.8853   43.5410 H   0  0  0  0  0  0  0  0  0  0  0  0
   46.0197   35.4306   42.2231 H   0  0  0  0  0  0  0  0  0  0  0  0
   45.7745   33.5291   48.2110 H   0  0  0  0  0  0  0  0  0  0  0  0
   44.3622   32.5533   47.6131 H   0  0  0  0  0  0  0  0  0  0  0  0
   45.4142   32.3156   50.1069 H   0  0  0  0  0  0  0  0  0  0  0  0
   44.5801   30.9887   49.2291 H   0  0  0  0  0  0  0  0  0  0  0  0
   46.3742   31.0768   49.2291 H   0  0  0  0  0  0  0  0  0  0  0  0
  1  5  1  0
  2  1  2  0
  2  3  1  0
  3  4  2  0
  5  4  1  0
  5 12  1  0
  6 11  2  0
  7  6  1  0
  8  9  1  0
  8  7  2  0
  9 10  2  0
 10  1  1  0
 10 11  1  0
 12 13  1  0
  2 14  1  0
  4 15  1  0
  6 16  1  0
  7 17  1  0
  8 18  1  0
 12 19  1  0
 12 20  1  0
 13 21  1  0
 13 22  1  0
 13 23  1  0
M  ISO  8  14  14  15  14  16  14  17  14  18  14  19   8  20   8  21   8
M  ISO  2  22   8  23   8
M  END
>  <minimizedAffinity>  (1) 
-4.13971329

>  <minimizedRMSD>  (1) 
1.78787184

$$$$
