
     RDKit          3D

 25 26  0  0  0  0  0  0  0  0999 V2000
   44.8080   36.2000   43.9160 C   0  0  0  0  0  0  0  0  0  0  0  0
   45.6040   36.1530   42.7740 C   0  0  0  0  0  0  0  0  0  0  0  0
   46.4180   35.0390   42.5670 C   0  0  0  0  0  0  0  0  0  0  0  0
   46.3940   34.0310   43.5150 N   0  0  0  0  0  0  0  0  0  0  0  0
   45.6080   34.1230   44.6020 C   0  0  0  0  0  0  0  0  0  0  0  0
   44.8330   35.1830   44.7990 N   0  0  0  0  0  0  0  0  0  0  0  0
   47.3270   34.8640   41.3720 C   0  0  0  0  0  0  0  0  0  0  0  0
   48.6550   35.5880   41.6800 C   0  0  0  0  0  0  0  0  0  0  0  0
   45.6650   33.0080   45.5220 C   0  0  0  0  0  0  0  0  0  0  0  0
   45.9080   31.8520   45.0930 O   0  0  0  0  0  0  0  0  0  0  0  0
   45.4510   33.2270   46.8730 O   0  0  0  0  0  0  0  0  0  0  0  0
   46.1310   32.3760   47.7710 C   0  0  0  0  0  0  0  0  0  0  0  0
   47.5230   32.2980   47.9570 C   0  0  0  0  0  0  0  0  0  0  0  0
   47.6800   31.0360   49.2200 S   0  0  0  0  0  0  0  0  0  0  0  0
   45.7780   30.7990   49.3090 C   0  0  0  0  0  0  0  0  0  0  0  0
   45.3760   31.5820   48.5000 N   0  0  0  0  0  0  0  0  0  0  0  0
   44.1581   37.0688   44.0971 H   0  0  0  0  0  0  0  0  0  0  0  0
   45.5911   36.9795   42.0482 H   0  0  0  0  0  0  0  0  0  0  0  0
   46.8595   35.3036   40.4786 H   0  0  0  0  0  0  0  0  0  0  0  0
   47.5071   33.7961   41.1790 H   0  0  0  0  0  0  0  0  0  0  0  0
   48.7888   35.6609   42.7694 H   0  0  0  0  0  0  0  0  0  0  0  0
   49.4912   35.0209   41.2450 H   0  0  0  0  0  0  0  0  0  0  0  0
   48.6314   36.5981   41.2450 H   0  0  0  0  0  0  0  0  0  0  0  0
   48.3169   32.8689   47.4532 H   0  0  0  0  0  0  0  0  0  0  0  0
   45.2008   30.1129   49.9463 H   0  0  0  0  0  0  0  0  0  0  0  0
  1  6  2  0
  2  1  1  0
  3  2  2  0
  3  4  1  0
  4  5  2  0
  5  6  1  0
  5  9  1  0
  7  8  1  0
  7  3  1  0
  9 11  1  0
 10  9  2  0
 11 12  1  0
 12 13  2  0
 12 16  1  0
 13 14  1  0
 14 15  1  0
 16 15  2  0
  1 17  1  0
  2 18  1  0
  7 19  1  0
  7 20  1  0
  8 21  1  0
  8 22  1  0
  8 23  1  0
 13 24  1  0
 15 25  1  0
M  ISO  8  17  14  18  14  19   8  20   8  21   8  22   8  23   8  24  14
M  ISO  1  25  14
M  END
>  <minimizedAffinity>  (1) 
-4.62478876

>  <minimizedRMSD>  (1) 
0.999954402

$$$$
