
     RDKit          3D

 30 31  0  0  0  0  0  0  0  0999 V2000
   45.0680   33.9190   41.3930 C   0  0  0  0  0  0  0  0  0  0  0  0
   46.2720   34.3670   40.8610 C   0  0  0  0  0  0  0  0  0  0  0  0
   47.2650   34.7780   41.7360 C   0  0  0  0  0  0  0  0  0  0  0  0
   47.0060   34.7220   43.0830 N   0  0  0  0  0  0  0  0  0  0  0  0
   45.8210   34.2800   43.5480 C   0  0  0  0  0  0  0  0  0  0  0  0
   44.8580   33.8820   42.7300 N   0  0  0  0  0  0  0  0  0  0  0  0
   48.6120   35.2830   41.2770 C   0  0  0  0  0  0  0  0  0  0  0  0
   49.6240   35.0810   42.4260 C   0  0  0  0  0  0  0  0  0  0  0  0
   45.6800   34.2730   44.9970 C   0  0  0  0  0  0  0  0  0  0  0  0
   44.7520   34.8930   45.5460 O   0  0  0  0  0  0  0  0  0  0  0  0
   46.5940   33.5620   45.7730 O   0  0  0  0  0  0  0  0  0  0  0  0
   46.1350   32.4130   46.3890 C   0  0  0  0  0  0  0  0  0  0  0  0
   46.0670   31.2790   45.5560 C   0  0  0  0  0  0  0  0  0  0  0  0
   45.6050   30.1130   46.1670 C   0  0  0  0  0  0  0  0  0  0  0  0
   45.2340   30.0240   47.4680 N   0  0  0  0  0  0  0  0  0  0  0  0
   45.3270   31.1640   48.2150 C   0  0  0  0  0  0  0  0  0  0  0  0
   45.7650   32.3180   47.6790 N   0  0  0  0  0  0  0  0  0  0  0  0
   44.9440   31.1720   49.6590 C   0  0  0  0  0  0  0  0  0  0  0  0
   44.2692   33.5876   40.7132 H   0  0  0  0  0  0  0  0  0  0  0  0
   46.4323   34.3945   39.7731 H   0  0  0  0  0  0  0  0  0  0  0  0
   48.9382   34.7189   40.3908 H   0  0  0  0  0  0  0  0  0  0  0  0
   48.5468   36.3488   41.0129 H   0  0  0  0  0  0  0  0  0  0  0  0
   49.1076   35.1841   43.3918 H   0  0  0  0  0  0  0  0  0  0  0  0
   50.0668   34.0768   42.3523 H   0  0  0  0  0  0  0  0  0  0  0  0
   50.4184   35.8383   42.3523 H   0  0  0  0  0  0  0  0  0  0  0  0
   46.3584   31.3107   44.4958 H   0  0  0  0  0  0  0  0  0  0  0  0
   45.5371   29.2040   45.5513 H   0  0  0  0  0  0  0  0  0  0  0  0
   45.8522   31.1530   50.2793 H   0  0  0  0  0  0  0  0  0  0  0  0
   44.3677   32.0824   49.8804 H   0  0  0  0  0  0  0  0  0  0  0  0
   44.3301   30.2865   49.8804 H   0  0  0  0  0  0  0  0  0  0  0  0
  1  6  2  0
  2  1  1  0
  2  3  2  0
  3  4  1  0
  4  5  2  0
  5  9  1  0
  6  5  1  0
  7  3  1  0
  7  8  1  0
  9 10  2  0
  9 11  1  0
 11 12  1  0
 12 17  2  0
 13 14  2  0
 13 12  1  0
 14 15  1  0
 15 16  2  0
 16 18  1  0
 17 16  1  0
  1 19  1  0
  2 20  1  0
  7 21  1  0
  7 22  1  0
  8 23  1  0
  8 24  1  0
  8 25  1  0
 13 26  1  0
 14 27  1  0
 18 28  1  0
 18 29  1  0
 18 30  1  0
M  ISO  8  19  14  20  14  21   8  22   8  23   8  24   8  25   8  26  14
M  ISO  4  27  14  28   8  29   8  30   8
M  END
>  <minimizedAffinity>  (1) 
-5.15293503

>  <minimizedRMSD>  (1) 
0.820454597

$$$$
