
     RDKit          3D

 27 29  0  0  0  0  0  0  0  0999 V2000
   47.5090   31.1420   44.4550 C   0  0  0  0  0  0  0  0  0  0  0  0
   48.4960   30.5090   43.7370 C   0  0  0  0  0  0  0  0  0  0  0  0
   49.1440   29.5860   44.4890 N   0  0  0  0  0  0  0  0  0  0  0  0
   48.5360   29.6510   45.7110 C   0  0  0  0  0  0  0  0  0  0  0  0
   47.5680   30.5810   45.6730 N   0  0  0  0  0  0  0  0  0  0  0  0
   46.0400   34.4390   43.8850 C   0  0  0  0  0  0  0  0  0  0  0  0
   44.8560   34.1350   43.1680 C   0  0  0  0  0  0  0  0  0  0  0  0
   44.5870   32.8050   42.8950 C   0  0  0  0  0  0  0  0  0  0  0  0
   45.4740   31.8530   43.3290 N   0  0  0  0  0  0  0  0  0  0  0  0
   46.6030   32.1790   44.0170 C   0  0  0  0  0  0  0  0  0  0  0  0
   46.8860   33.4640   44.2950 N   0  0  0  0  0  0  0  0  0  0  0  0
   46.7670   30.8620   46.8170 C   0  0  0  0  0  0  0  0  0  0  0  0
   45.5700   30.2580   47.1450 C   0  0  0  0  0  0  0  0  0  0  0  0
   44.8560   30.5810   48.2630 C   0  0  0  0  0  0  0  0  0  0  0  0
   45.3370   31.5650   49.1320 C   0  0  0  0  0  0  0  0  0  0  0  0
   46.5360   32.1710   48.8050 C   0  0  0  0  0  0  0  0  0  0  0  0
   47.2630   31.8500   47.6760 C   0  0  0  0  0  0  0  0  0  0  0  0
   48.7304   30.7246   42.6841 H   0  0  0  0  0  0  0  0  0  0  0  0
   48.7978   29.0389   46.5866 H   0  0  0  0  0  0  0  0  0  0  0  0
   46.2769   35.4887   44.1133 H   0  0  0  0  0  0  0  0  0  0  0  0
   44.1721   34.9312   42.8387 H   0  0  0  0  0  0  0  0  0  0  0  0
   43.6809   32.5175   42.3416 H   0  0  0  0  0  0  0  0  0  0  0  0
   45.1732   29.4810   46.4751 H   0  0  0  0  0  0  0  0  0  0  0  0
   43.9065   30.0693   48.4791 H   0  0  0  0  0  0  0  0  0  0  0  0
   44.7834   31.8460   50.0400 H   0  0  0  0  0  0  0  0  0  0  0  0
   46.9301   32.9471   49.4775 H   0  0  0  0  0  0  0  0  0  0  0  0
   48.2124   32.3601   47.4559 H   0  0  0  0  0  0  0  0  0  0  0  0
  1  5  1  0
  2  1  2  0
  2  3  1  0
  3  4  2  0
  5  4  1  0
  5 12  1  0
  6 11  2  0
  7  6  1  0
  8  7  2  0
  8  9  1  0
  9 10  2  0
 10 11  1  0
 10  1  1  0
 12 13  2  0
 12 17  1  0
 13 14  1  0
 14 15  2  0
 16 15  1  0
 17 16  2  0
  2 18  1  0
  4 19  1  0
  6 20  1  0
  7 21  1  0
  8 22  1  0
 13 23  1  0
 14 24  1  0
 15 25  1  0
 16 26  1  0
 17 27  1  0
M  ISO  8  18  14  19  14  20  14  21  14  22  14  23  14  24  14  25  14
M  ISO  2  26  14  27  14
M  END
>  <minimizedAffinity>  (1) 
-4.03235912

>  <minimizedRMSD>  (1) 
4.04278517

$$$$
