
     RDKit          3D

 34 35  0  0  0  0  0  0  0  0999 V2000
   45.0690   35.1310   43.7690 C   0  0  0  0  0  0  0  0  0  0  0  0
   44.4590   35.6060   44.7410 O   0  0  0  0  0  0  0  0  0  0  0  0
   42.5920   35.1840   41.0440 C   0  0  0  0  0  0  0  0  0  0  0  0
   43.2750   34.4730   40.0490 C   0  0  0  0  0  0  0  0  0  0  0  0
   44.5420   34.0000   40.3230 C   0  0  0  0  0  0  0  0  0  0  0  0
   45.0780   34.2460   41.5620 N   0  0  0  0  0  0  0  0  0  0  0  0
   44.3800   34.9410   42.4960 C   0  0  0  0  0  0  0  0  0  0  0  0
   43.1610   35.4040   42.2530 N   0  0  0  0  0  0  0  0  0  0  0  0
   45.3740   33.2200   39.3270 C   0  0  0  0  0  0  0  0  0  0  0  0
   46.8650   33.4840   39.6130 C   0  0  0  0  0  0  0  0  0  0  0  0
   46.3990   34.7780   43.8760 O   0  0  0  0  0  0  0  0  0  0  0  0
   46.6830   33.5540   44.4770 C   0  0  0  0  0  0  0  0  0  0  0  0
   47.3030   32.6040   43.6730 C   0  0  0  0  0  0  0  0  0  0  0  0
   47.5760   31.3910   44.2930 C   0  0  0  0  0  0  0  0  0  0  0  0
   47.2810   31.0970   45.5890 N   0  0  0  0  0  0  0  0  0  0  0  0
   46.6760   32.0690   46.3200 C   0  0  0  0  0  0  0  0  0  0  0  0
   46.3960   33.2560   45.7560 N   0  0  0  0  0  0  0  0  0  0  0  0
   46.3130   31.8980   47.6850 N   0  0  0  0  0  0  0  0  0  0  0  0
   45.3990   30.8800   48.1190 C   0  0  0  0  0  0  0  0  0  0  0  0
   44.5760   30.4420   47.2140 N   0  0  0  0  0  0  0  0  0  0  0  0
   45.3750   30.3680   49.4470 N   0  0  0  0  0  0  0  0  0  0  0  0
   43.8610   29.7140   47.3690 H   0  0  0  0  0  0  0  0  0  0  0  0
   41.5815   35.5682   40.8409 H   0  0  0  0  0  0  0  0  0  0  0  0
   42.8103   34.2951   39.0680 H   0  0  0  0  0  0  0  0  0  0  0  0
   45.1299   33.5462   38.3052 H   0  0  0  0  0  0  0  0  0  0  0  0
   45.1595   32.1452   39.4205 H   0  0  0  0  0  0  0  0  0  0  0  0
   47.0302   33.5133   40.7001 H   0  0  0  0  0  0  0  0  0  0  0  0
   47.4711   32.6792   39.1715 H   0  0  0  0  0  0  0  0  0  0  0  0
   47.1580   34.4480   39.1715 H   0  0  0  0  0  0  0  0  0  0  0  0
   47.5591   32.7989   42.6211 H   0  0  0  0  0  0  0  0  0  0  0  0
   48.0666   30.6108   43.6925 H   0  0  0  0  0  0  0  0  0  0  0  0
   46.7219   32.5291   48.3889 H   0  0  0  0  0  0  0  0  0  0  0  0
   44.6971   29.6366   49.7048 H   0  0  0  0  0  0  0  0  0  0  0  0
   46.0355   30.7289   50.1501 H   0  0  0  0  0  0  0  0  0  0  0  0
  1 11  1  0
  1  2  2  0
  3  8  2  0
  4  5  2  0
  4  3  1  0
  5  6  1  0
  6  7  2  0
  7  1  1  0
  8  7  1  0
  9 10  1  0
  9  5  1  0
 11 12  1  0
 12 17  2  0
 13 14  2  0
 13 12  1  0
 14 15  1  0
 15 16  2  0
 16 18  1  0
 17 16  1  0
 18 19  1  0
 19 21  1  0
 20 22  1  0
 20 19  2  0
  3 23  1  0
  4 24  1  0
  9 25  1  0
  9 26  1  0
 10 27  1  0
 10 28  1  0
 10 29  1  0
 13 30  1  0
 14 31  1  0
 18 32  1  0
 21 33  1  0
 21 34  1  0
M  ISO  8  23  14  24  14  25   8  26   8  27   8  28   8  29   8  30  14
M  ISO  1  31  14
M  END
>  <minimizedAffinity>  (1) 
-5.19653749

>  <minimizedRMSD>  (1) 
3.29314303

$$$$
