
     RDKit          3D

 29 30  0  0  0  0  0  0  0  0999 V2000
   45.0160   33.9320   41.5020 C   0  0  0  0  0  0  0  0  0  0  0  0
   46.2200   34.3990   40.9690 C   0  0  0  0  0  0  0  0  0  0  0  0
   47.2340   34.7800   41.8330 C   0  0  0  0  0  0  0  0  0  0  0  0
   47.0160   34.6840   43.1940 N   0  0  0  0  0  0  0  0  0  0  0  0
   45.8210   34.2190   43.6610 C   0  0  0  0  0  0  0  0  0  0  0  0
   44.8450   33.8520   42.8370 N   0  0  0  0  0  0  0  0  0  0  0  0
   48.5610   35.2960   41.3580 C   0  0  0  0  0  0  0  0  0  0  0  0
   49.6080   35.0230   42.4700 C   0  0  0  0  0  0  0  0  0  0  0  0
   45.7190   34.1660   45.1190 C   0  0  0  0  0  0  0  0  0  0  0  0
   44.8150   34.7810   45.6990 O   0  0  0  0  0  0  0  0  0  0  0  0
   46.6480   33.4190   45.8310 O   0  0  0  0  0  0  0  0  0  0  0  0
   46.1530   32.3890   46.6220 C   0  0  0  0  0  0  0  0  0  0  0  0
   45.9350   31.1870   45.9580 C   0  0  0  0  0  0  0  0  0  0  0  0
   45.4390   30.1470   46.7390 C   0  0  0  0  0  0  0  0  0  0  0  0
   45.1660   30.2480   48.0740 N   0  0  0  0  0  0  0  0  0  0  0  0
   45.4070   31.4670   48.6560 C   0  0  0  0  0  0  0  0  0  0  0  0
   45.8860   32.5010   47.9390 N   0  0  0  0  0  0  0  0  0  0  0  0
   45.1440   31.6350   50.0350 N   0  0  0  0  0  0  0  0  0  0  0  0
   44.2019   33.6275   40.8278 H   0  0  0  0  0  0  0  0  0  0  0  0
   46.3608   34.4633   39.8799 H   0  0  0  0  0  0  0  0  0  0  0  0
   48.8542   34.7767   40.4337 H   0  0  0  0  0  0  0  0  0  0  0  0
   48.4988   36.3740   41.1483 H   0  0  0  0  0  0  0  0  0  0  0  0
   49.1362   35.1460   43.4560 H   0  0  0  0  0  0  0  0  0  0  0  0
   49.9884   33.9956   42.3712 H   0  0  0  0  0  0  0  0  0  0  0  0
   50.4417   35.7338   42.3712 H   0  0  0  0  0  0  0  0  0  0  0  0
   46.1413   31.0657   44.8843 H   0  0  0  0  0  0  0  0  0  0  0  0
   45.2546   29.1796   46.2489 H   0  0  0  0  0  0  0  0  0  0  0  0
   45.3199   32.5442   50.4858 H   0  0  0  0  0  0  0  0  0  0  0  0
   44.7765   30.8482   50.5888 H   0  0  0  0  0  0  0  0  0  0  0  0
  1  6  2  0
  2  1  1  0
  2  3  2  0
  3  4  1  0
  4  5  2  0
  5  9  1  0
  6  5  1  0
  7  3  1  0
  7  8  1  0
  9 10  2  0
  9 11  1  0
 11 12  1  0
 12 17  1  0
 13 12  2  0
 13 14  1  0
 14 15  2  0
 15 16  1  0
 16 18  1  0
 17 16  2  0
  1 19  1  0
  2 20  1  0
  7 21  1  0
  7 22  1  0
  8 23  1  0
  8 24  1  0
  8 25  1  0
 13 26  1  0
 14 27  1  0
 18 28  1  0
 18 29  1  0
M  ISO  8  19  14  20  14  21   8  22   8  23   8  24   8  25   8  26  14
M  ISO  1  27  14
M  END
>  <minimizedAffinity>  (1) 
-5.41269302

>  <minimizedRMSD>  (1) 
0.498607188

$$$$
