
     RDKit          3D

 30 31  0  0  0  0  0  0  0  0999 V2000
   44.9020   33.9510   41.3240 C   0  0  0  0  0  0  0  0  0  0  0  0
   46.1160   34.3310   40.7740 C   0  0  0  0  0  0  0  0  0  0  0  0
   47.1270   34.7630   41.6210 C   0  0  0  0  0  0  0  0  0  0  0  0
   46.8750   34.7920   42.9870 N   0  0  0  0  0  0  0  0  0  0  0  0
   45.6690   34.4080   43.4670 C   0  0  0  0  0  0  0  0  0  0  0  0
   44.6860   33.9910   42.6600 N   0  0  0  0  0  0  0  0  0  0  0  0
   48.4870   35.2010   41.1440 C   0  0  0  0  0  0  0  0  0  0  0  0
   49.4700   35.1330   42.3310 C   0  0  0  0  0  0  0  0  0  0  0  0
   45.5220   34.4840   44.9190 C   0  0  0  0  0  0  0  0  0  0  0  0
   44.6020   35.1310   45.4180 O   0  0  0  0  0  0  0  0  0  0  0  0
   46.4310   33.8190   45.7200 O   0  0  0  0  0  0  0  0  0  0  0  0
   46.1170   32.5140   46.0800 C   0  0  0  0  0  0  0  0  0  0  0  0
   46.1550   31.5610   45.0640 C   0  0  0  0  0  0  0  0  0  0  0  0
   45.8440   30.2600   45.4150 C   0  0  0  0  0  0  0  0  0  0  0  0
   45.5100   29.8770   46.6770 N   0  0  0  0  0  0  0  0  0  0  0  0
   45.4900   30.8500   47.6210 C   0  0  0  0  0  0  0  0  0  0  0  0
   45.7810   32.1250   47.3420 N   0  0  0  0  0  0  0  0  0  0  0  0
   45.1300   30.4280   48.9710 C   0  0  0  0  0  0  0  0  0  0  0  0
   45.0060   31.3040   49.8660 O   0  0  0  0  0  0  0  0  0  0  0  0
   44.9180   29.0960   49.3100 O   0  0  0  0  0  0  0  0  0  0  0  0
   44.0949   33.6088   40.6595 H   0  0  0  0  0  0  0  0  0  0  0  0
   46.2753   34.2910   39.6863 H   0  0  0  0  0  0  0  0  0  0  0  0
   48.8303   34.5337   40.3397 H   0  0  0  0  0  0  0  0  0  0  0  0
   48.4363   36.2292   40.7564 H   0  0  0  0  0  0  0  0  0  0  0  0
   48.9076   35.1719   43.2755 H   0  0  0  0  0  0  0  0  0  0  0  0
   50.0397   34.1933   42.2819 H   0  0  0  0  0  0  0  0  0  0  0  0
   50.1637   35.9853   42.2819 H   0  0  0  0  0  0  0  0  0  0  0  0
   46.4200   31.8309   44.0311 H   0  0  0  0  0  0  0  0  0  0  0  0
   45.8681   29.4909   44.6289 H   0  0  0  0  0  0  0  0  0  0  0  0
   44.6751   28.8542   50.2388 H   0  0  0  0  0  0  0  0  0  0  0  0
  1  6  2  0
  2  1  1  0
  2  3  2  0
  3  4  1  0
  4  5  2  0
  5  9  1  0
  6  5  1  0
  7  3  1  0
  7  8  1  0
  9 10  2  0
  9 11  1  0
 11 12  1  0
 12 17  2  0
 13 14  2  0
 13 12  1  0
 14 15  1  0
 15 16  2  0
 16 18  1  0
 17 16  1  0
 18 20  1  0
 18 19  2  0
  1 21  1  0
  2 22  1  0
  7 23  1  0
  7 24  1  0
  8 25  1  0
  8 26  1  0
  8 27  1  0
 13 28  1  0
 14 29  1  0
 20 30  1  0
M  ISO  8  21  14  22  14  23   8  24   8  25   8  26   8  27   8  28  14
M  ISO  2  29  14  30   3
M  END
>  <minimizedAffinity>  (1) 
-5.2599802

>  <minimizedRMSD>  (1) 
1.44400382

$$$$
