
     RDKit          3D

 34 36  0  0  0  0  0  0  0  0999 V2000
   45.6600   33.5840   43.5400 C   0  0  0  0  0  0  0  0  0  0  0  0
   45.5720   34.2090   44.6060 O   0  0  0  0  0  0  0  0  0  0  0  0
   42.8890   31.8690   41.8170 C   0  0  0  0  0  0  0  0  0  0  0  0
   42.2550   32.9410   41.1930 C   0  0  0  0  0  0  0  0  0  0  0  0
   42.7680   34.2180   41.3610 C   0  0  0  0  0  0  0  0  0  0  0  0
   43.9010   34.3750   42.1510 N   0  0  0  0  0  0  0  0  0  0  0  0
   44.4810   33.3040   42.7360 C   0  0  0  0  0  0  0  0  0  0  0  0
   43.9940   32.0690   42.5800 N   0  0  0  0  0  0  0  0  0  0  0  0
   42.1730   35.4440   40.7410 C   0  0  0  0  0  0  0  0  0  0  0  0
   42.0270   35.2140   39.2120 C   0  0  0  0  0  0  0  0  0  0  0  0
   46.9000   33.1320   43.0880 O   0  0  0  0  0  0  0  0  0  0  0  0
   47.5200   33.8780   42.0990 C   0  0  0  0  0  0  0  0  0  0  0  0
   48.2190   34.9900   42.5560 C   0  0  0  0  0  0  0  0  0  0  0  0
   48.8580   35.7700   41.6020 C   0  0  0  0  0  0  0  0  0  0  0  0
   48.8310   35.4980   40.2640 N   0  0  0  0  0  0  0  0  0  0  0  0
   48.1300   34.3970   39.8860 C   0  0  0  0  0  0  0  0  0  0  0  0
   47.4930   33.6090   40.7790 N   0  0  0  0  0  0  0  0  0  0  0  0
   47.9810   33.9410   38.5330 N   0  0  0  0  0  0  0  0  0  0  0  0
   48.6310   33.9590   37.3590 C   0  0  0  0  0  0  0  0  0  0  0  0
   47.8600   33.2930   36.4310 C   0  0  0  0  0  0  0  0  0  0  0  0
   46.7270   32.8730   37.0670 N   0  0  0  0  0  0  0  0  0  0  0  0
   46.8010   33.2730   38.3680 C   0  0  0  0  0  0  0  0  0  0  0  0
   42.4908   30.8514   41.6904 H   0  0  0  0  0  0  0  0  0  0  0  0
   41.3597   32.7766   40.5755 H   0  0  0  0  0  0  0  0  0  0  0  0
   41.1838   35.6376   41.1814 H   0  0  0  0  0  0  0  0  0  0  0  0
   42.8253   36.3099   40.9271 H   0  0  0  0  0  0  0  0  0  0  0  0
   41.4453   34.2977   39.0329 H   0  0  0  0  0  0  0  0  0  0  0  0
   41.5079   36.0720   38.7601 H   0  0  0  0  0  0  0  0  0  0  0  0
   43.0244   35.1094   38.7601 H   0  0  0  0  0  0  0  0  0  0  0  0
   48.2636   35.2404   43.6262 H   0  0  0  0  0  0  0  0  0  0  0  0
   49.4161   36.6548   41.9420 H   0  0  0  0  0  0  0  0  0  0  0  0
   49.6095   34.4246   37.1702 H   0  0  0  0  0  0  0  0  0  0  0  0
   48.1111   33.1298   35.3726 H   0  0  0  0  0  0  0  0  0  0  0  0
   46.0453   33.0904   39.1462 H   0  0  0  0  0  0  0  0  0  0  0  0
  1  2  2  0
  3  8  2  0
  4  5  2  0
  4  3  1  0
  5  6  1  0
  6  7  2  0
  7  1  1  0
  8  7  1  0
  9  5  1  0
 10  9  1  0
 11  1  1  0
 12 13  2  0
 12 11  1  0
 14 13  1  0
 15 14  2  0
 16 15  1  0
 16 17  2  0
 17 12  1  0
 18 16  1  0
 19 18  1  0
 20 21  1  0
 20 19  2  0
 21 22  2  0
 22 18  1  0
  3 23  1  0
  4 24  1  0
  9 25  1  0
  9 26  1  0
 10 27  1  0
 10 28  1  0
 10 29  1  0
 13 30  1  0
 14 31  1  0
 19 32  1  0
 20 33  1  0
 22 34  1  0
M  ISO  8  23  14  24  14  25   8  26   8  27   8  28   8  29   8  30  14
M  ISO  4  31  14  32  14  33  14  34  14
M  END
>  <minimizedAffinity>  (1) 
-4.79283762

>  <minimizedRMSD>  (1) 
8.61832333

$$$$
