
     RDKit          3D

 34 36  0  0  0  0  0  0  0  0999 V2000
   45.7700   33.8300   45.3620 C   0  0  0  0  0  0  0  0  0  0  0  0
   44.9220   34.4240   46.0370 O   0  0  0  0  0  0  0  0  0  0  0  0
   44.9170   33.8850   41.7790 C   0  0  0  0  0  0  0  0  0  0  0  0
   46.0880   34.4250   41.2310 C   0  0  0  0  0  0  0  0  0  0  0  0
   47.1260   34.7530   42.0760 C   0  0  0  0  0  0  0  0  0  0  0  0
   46.9840   34.5410   43.4450 N   0  0  0  0  0  0  0  0  0  0  0  0
   45.8180   34.0130   43.9060 C   0  0  0  0  0  0  0  0  0  0  0  0
   44.8130   33.6920   43.1100 N   0  0  0  0  0  0  0  0  0  0  0  0
   48.4290   35.3380   41.6030 C   0  0  0  0  0  0  0  0  0  0  0  0
   49.5610   34.8630   42.5500 C   0  0  0  0  0  0  0  0  0  0  0  0
   46.7010   32.9750   45.9620 O   0  0  0  0  0  0  0  0  0  0  0  0
   46.6770   31.6540   45.5510 C   0  0  0  0  0  0  0  0  0  0  0  0
   47.7640   31.2410   44.7890 C   0  0  0  0  0  0  0  0  0  0  0  0
   47.7620   29.9210   44.3660 C   0  0  0  0  0  0  0  0  0  0  0  0
   46.7860   29.0250   44.6440 N   0  0  0  0  0  0  0  0  0  0  0  0
   45.7370   29.4900   45.4020 C   0  0  0  0  0  0  0  0  0  0  0  0
   45.6940   30.7650   45.8360 N   0  0  0  0  0  0  0  0  0  0  0  0
   44.6840   28.5470   45.7100 C   0  0  0  0  0  0  0  0  0  0  0  0
   43.4380   28.4600   45.2510 C   0  0  0  0  0  0  0  0  0  0  0  0
   42.5900   27.4690   45.6840 C   0  0  0  0  0  0  0  0  0  0  0  0
   43.1420   26.5880   46.6240 C   0  0  0  0  0  0  0  0  0  0  0  0
   44.8160   27.1850   46.8570 S   0  0  0  0  0  0  0  0  0  0  0  0
   44.0779   33.6170   41.1202 H   0  0  0  0  0  0  0  0  0  0  0  0
   46.1771   34.5842   40.1462 H   0  0  0  0  0  0  0  0  0  0  0  0
   48.6370   34.9976   40.5779 H   0  0  0  0  0  0  0  0  0  0  0  0
   48.3709   36.4364   41.6104 H   0  0  0  0  0  0  0  0  0  0  0  0
   49.2446   34.9958   43.5951 H   0  0  0  0  0  0  0  0  0  0  0  0
   49.7732   33.7999   42.3634 H   0  0  0  0  0  0  0  0  0  0  0  0
   50.4683   35.4563   42.3634 H   0  0  0  0  0  0  0  0  0  0  0  0
   48.5848   31.9276   44.5344 H   0  0  0  0  0  0  0  0  0  0  0  0
   48.6141   29.5770   43.7614 H   0  0  0  0  0  0  0  0  0  0  0  0
   43.0809   29.1933   44.5129 H   0  0  0  0  0  0  0  0  0  0  0  0
   41.5562   27.3744   45.3203 H   0  0  0  0  0  0  0  0  0  0  0  0
   42.6583   25.7268   47.1082 H   0  0  0  0  0  0  0  0  0  0  0  0
  1 11  1  0
  1  2  2  0
  3  8  2  0
  4  3  1  0
  4  5  2  0
  5  6  1  0
  6  7  2  0
  7  1  1  0
  8  7  1  0
  9  5  1  0
  9 10  1  0
 12 17  1  0
 12 11  1  0
 13 12  2  0
 14 15  2  0
 14 13  1  0
 15 16  1  0
 16 18  1  0
 16 17  2  0
 18 22  1  0
 19 20  1  0
 19 18  2  0
 20 21  2  0
 21 22  1  0
  3 23  1  0
  4 24  1  0
  9 25  1  0
  9 26  1  0
 10 27  1  0
 10 28  1  0
 10 29  1  0
 13 30  1  0
 14 31  1  0
 19 32  1  0
 20 33  1  0
 21 34  1  0
M  ISO  8  23  14  24  14  25   8  26   8  27   8  28   8  29   8  30  14
M  ISO  4  31  14  32  14  33  14  34  14
M  END
>  <minimizedAffinity>  (1) 
-4.57091331

>  <minimizedRMSD>  (1) 
4.20191002

$$$$
