
     RDKit          3D

 37 39  0  0  0  0  0  0  0  0999 V2000
   43.1980   34.5640   40.3690 C   0  0  0  0  0  0  0  0  0  0  0  0
   43.4210   35.7180   40.7660 O   0  0  0  0  0  0  0  0  0  0  0  0
   39.9870   34.8500   38.5960 C   0  0  0  0  0  0  0  0  0  0  0  0
   39.8980   33.5860   38.0100 C   0  0  0  0  0  0  0  0  0  0  0  0
   40.9080   32.6850   38.2260 C   0  0  0  0  0  0  0  0  0  0  0  0
   41.9970   33.0300   39.0130 N   0  0  0  0  0  0  0  0  0  0  0  0
   42.0310   34.2850   39.5620 C   0  0  0  0  0  0  0  0  0  0  0  0
   41.0560   35.1830   39.3660 N   0  0  0  0  0  0  0  0  0  0  0  0
   40.9100   31.2930   37.6390 C   0  0  0  0  0  0  0  0  0  0  0  0
   42.3090   30.9990   37.0540 C   0  0  0  0  0  0  0  0  0  0  0  0
   44.0700   33.5330   40.6970 O   0  0  0  0  0  0  0  0  0  0  0  0
   45.0160   33.8140   41.6950 C   0  0  0  0  0  0  0  0  0  0  0  0
   46.3450   33.9510   41.2600 C   0  0  0  0  0  0  0  0  0  0  0  0
   47.2630   34.2260   42.2510 C   0  0  0  0  0  0  0  0  0  0  0  0
   46.9690   34.3690   43.5750 N   0  0  0  0  0  0  0  0  0  0  0  0
   45.6490   34.2210   43.9180 C   0  0  0  0  0  0  0  0  0  0  0  0
   44.7270   33.9550   42.9990 N   0  0  0  0  0  0  0  0  0  0  0  0
   45.2180   34.4010   45.6490 S   0  0  0  0  0  0  0  0  0  0  0  0
   45.8500   32.9620   46.5020 C   0  0  0  0  0  0  0  0  0  0  0  0
   45.2870   32.6830   47.7490 C   0  0  0  0  0  0  0  0  0  0  0  0
   45.7650   31.5660   48.4320 C   0  0  0  0  0  0  0  0  0  0  0  0
   46.7540   30.7280   47.9460 C   0  0  0  0  0  0  0  0  0  0  0  0
   47.2630   31.0790   46.6930 C   0  0  0  0  0  0  0  0  0  0  0  0
   46.8180   32.1530   46.0140 N   0  0  0  0  0  0  0  0  0  0  0  0
   39.1838   35.5837   38.4328 H   0  0  0  0  0  0  0  0  0  0  0  0
   39.0327   33.3179   37.3860 H   0  0  0  0  0  0  0  0  0  0  0  0
   40.6772   30.5602   38.4256 H   0  0  0  0  0  0  0  0  0  0  0  0
   40.1516   31.2220   36.8454 H   0  0  0  0  0  0  0  0  0  0  0  0
   43.0255   30.8484   37.8750 H   0  0  0  0  0  0  0  0  0  0  0  0
   42.2642   30.0907   36.4352 H   0  0  0  0  0  0  0  0  0  0  0  0
   42.6336   31.8485   36.4352 H   0  0  0  0  0  0  0  0  0  0  0  0
   46.6326   33.8462   40.2034 H   0  0  0  0  0  0  0  0  0  0  0  0
   48.3150   34.3389   41.9503 H   0  0  0  0  0  0  0  0  0  0  0  0
   44.4976   33.3195   48.1754 H   0  0  0  0  0  0  0  0  0  0  0  0
   45.3304   31.3366   49.4161 H   0  0  0  0  0  0  0  0  0  0  0  0
   47.1125   29.8509   48.5048 H   0  0  0  0  0  0  0  0  0  0  0  0
   48.0532   30.4574   46.2467 H   0  0  0  0  0  0  0  0  0  0  0  0
  1 11  1  0
  1  2  2  0
  3  8  2  0
  4  5  2  0
  4  3  1  0
  5  6  1  0
  6  7  2  0
  7  1  1  0
  8  7  1  0
  9  5  1  0
 10  9  1  0
 11 12  1  0
 12 17  1  0
 13 12  2  0
 13 14  1  0
 14 15  2  0
 15 16  1  0
 16 18  1  0
 17 16  2  0
 18 19  1  0
 19 20  2  0
 20 21  1  0
 22 21  2  0
 23 22  1  0
 24 19  1  0
 24 23  2  0
  3 25  1  0
  4 26  1  0
  9 27  1  0
  9 28  1  0
 10 29  1  0
 10 30  1  0
 10 31  1  0
 13 32  1  0
 14 33  1  0
 20 34  1  0
 21 35  1  0
 22 36  1  0
 23 37  1  0
M  ISO  8  25  14  26  14  27   8  28   8  29   8  30   8  31   8  32  14
M  ISO  5  33  14  34  14  35  14  36  14  37  14
M  END
>  <minimizedAffinity>  (1) 
-4.95107651

>  <minimizedRMSD>  (1) 
5.65998602

$$$$
