
     RDKit          3D

 35 37  0  0  0  0  0  0  0  0999 V2000
   48.5930   34.7240   41.2230 C   0  0  0  0  0  0  0  0  0  0  0  0
   48.8530   35.9310   41.2130 O   0  0  0  0  0  0  0  0  0  0  0  0
   45.2730   33.6820   40.0070 C   0  0  0  0  0  0  0  0  0  0  0  0
   45.5990   33.1480   38.7680 C   0  0  0  0  0  0  0  0  0  0  0  0
   46.9080   33.1460   38.3680 C   0  0  0  0  0  0  0  0  0  0  0  0
   47.8810   33.6770   39.2060 N   0  0  0  0  0  0  0  0  0  0  0  0
   47.5050   34.1900   40.4130 C   0  0  0  0  0  0  0  0  0  0  0  0
   46.2370   34.1990   40.8160 N   0  0  0  0  0  0  0  0  0  0  0  0
   47.3770   32.5890   37.0380 C   0  0  0  0  0  0  0  0  0  0  0  0
   48.6080   33.4180   36.5730 C   0  0  0  0  0  0  0  0  0  0  0  0
   49.3370   33.8420   42.0140 O   0  0  0  0  0  0  0  0  0  0  0  0
   48.6170   33.0320   42.8910 C   0  0  0  0  0  0  0  0  0  0  0  0
   48.8130   31.6620   42.7410 C   0  0  0  0  0  0  0  0  0  0  0  0
   48.1000   30.8570   43.6120 C   0  0  0  0  0  0  0  0  0  0  0  0
   47.2470   31.3240   44.5710 N   0  0  0  0  0  0  0  0  0  0  0  0
   47.1100   32.6690   44.6540 C   0  0  0  0  0  0  0  0  0  0  0  0
   47.7730   33.4900   43.8420 N   0  0  0  0  0  0  0  0  0  0  0  0
   45.9960   33.3050   45.9070 S   0  0  0  0  0  0  0  0  0  0  0  0
   46.1540   32.3470   47.3980 C   0  0  0  0  0  0  0  0  0  0  0  0
   45.0530   31.9960   48.1840 C   0  0  0  0  0  0  0  0  0  0  0  0
   45.6020   31.2620   49.2380 C   0  0  0  0  0  0  0  0  0  0  0  0
   46.9770   31.2130   49.0330 C   0  0  0  0  0  0  0  0  0  0  0  0
   47.2570   31.8710   47.9280 O   0  0  0  0  0  0  0  0  0  0  0  0
   44.2241   33.6873   40.3384 H   0  0  0  0  0  0  0  0  0  0  0  0
   44.8162   32.7322   38.1166 H   0  0  0  0  0  0  0  0  0  0  0  0
   47.6617   31.5330   37.1558 H   0  0  0  0  0  0  0  0  0  0  0  0
   46.5707   32.6538   36.2925 H   0  0  0  0  0  0  0  0  0  0  0  0
   49.1554   33.7866   37.4530 H   0  0  0  0  0  0  0  0  0  0  0  0
   49.2713   32.7819   35.9685 H   0  0  0  0  0  0  0  0  0  0  0  0
   48.2679   34.2718   35.9685 H   0  0  0  0  0  0  0  0  0  0  0  0
   49.4901   31.2466   41.9801 H   0  0  0  0  0  0  0  0  0  0  0  0
   48.2289   29.7680   43.5262 H   0  0  0  0  0  0  0  0  0  0  0  0
   43.9947   32.2419   48.0118 H   0  0  0  0  0  0  0  0  0  0  0  0
   45.0501   30.8076   50.0740 H   0  0  0  0  0  0  0  0  0  0  0  0
   47.7068   30.7096   49.6842 H   0  0  0  0  0  0  0  0  0  0  0  0
  1 11  1  0
  2  1  2  0
  3  8  2  0
  4  3  1  0
  5  4  2  0
  5  6  1  0
  6  7  2  0
  7  8  1  0
  7  1  1  0
  9  5  1  0
 10  9  1  0
 11 12  1  0
 12 17  1  0
 13 12  2  0
 13 14  1  0
 14 15  2  0
 15 16  1  0
 16 18  1  0
 17 16  2  0
 18 19  1  0
 19 23  1  0
 19 20  2  0
 20 21  1  0
 22 21  2  0
 23 22  1  0
  3 24  1  0
  4 25  1  0
  9 26  1  0
  9 27  1  0
 10 28  1  0
 10 29  1  0
 10 30  1  0
 13 31  1  0
 14 32  1  0
 20 33  1  0
 21 34  1  0
 22 35  1  0
M  ISO  8  24  14  25  14  26   8  27   8  28   8  29   8  30   8  31  14
M  ISO  4  32  14  33  14  34  14  35  14
M  END
>  <minimizedAffinity>  (1) 
-4.93326378

>  <minimizedRMSD>  (1) 
3.95086169

$$$$
