
     RDKit          3D

 43 45  0  0  0  0  0  0  0  0999 V2000
   45.8620   33.8290   44.3740 C   0  0  0  0  0  0  0  0  0  0  0  0
   44.9100   34.2380   45.0580 O   0  0  0  0  0  0  0  0  0  0  0  0
   44.6760   33.6580   40.8930 C   0  0  0  0  0  0  0  0  0  0  0  0
   45.8270   34.0030   40.2060 C   0  0  0  0  0  0  0  0  0  0  0  0
   46.9740   34.2860   40.9120 C   0  0  0  0  0  0  0  0  0  0  0  0
   46.9430   34.2170   42.2900 N   0  0  0  0  0  0  0  0  0  0  0  0
   45.7830   33.8720   42.9270 C   0  0  0  0  0  0  0  0  0  0  0  0
   44.6650   33.5960   42.2580 N   0  0  0  0  0  0  0  0  0  0  0  0
   48.2760   34.6710   40.2530 C   0  0  0  0  0  0  0  0  0  0  0  0
   48.9510   35.7500   41.1490 C   0  0  0  0  0  0  0  0  0  0  0  0
   47.0250   33.3230   44.9760 O   0  0  0  0  0  0  0  0  0  0  0  0
   47.0420   31.9580   45.2400 C   0  0  0  0  0  0  0  0  0  0  0  0
   47.8880   31.2150   44.4170 C   0  0  0  0  0  0  0  0  0  0  0  0
   47.9140   29.8420   44.6710 C   0  0  0  0  0  0  0  0  0  0  0  0
   47.1780   29.2250   45.6490 N   0  0  0  0  0  0  0  0  0  0  0  0
   46.3740   30.0380   46.4070 C   0  0  0  0  0  0  0  0  0  0  0  0
   46.3220   31.3530   46.1950 N   0  0  0  0  0  0  0  0  0  0  0  0
   45.4130   29.2350   47.6790 S   0  0  0  0  0  0  0  0  0  0  0  0
   42.6890   25.7410   46.9540 N   0  0  0  0  0  0  0  0  0  0  0  0
   43.7920   25.4990   47.8630 C   0  0  0  0  0  0  0  0  0  0  0  0
   44.3230   26.8550   48.2780 C   0  0  0  0  0  0  0  0  0  0  0  0
   44.8210   27.6270   47.0610 C   0  0  0  0  0  0  0  0  0  0  0  0
   43.6400   27.8160   46.1350 C   0  0  0  0  0  0  0  0  0  0  0  0
   43.1020   26.4510   45.7790 C   0  0  0  0  0  0  0  0  0  0  0  0
   43.7573   33.4306   40.3323 H   0  0  0  0  0  0  0  0  0  0  0  0
   45.8250   34.0505   39.1070 H   0  0  0  0  0  0  0  0  0  0  0  0
   48.9294   33.7901   40.1687 H   0  0  0  0  0  0  0  0  0  0  0  0
   48.0975   35.0633   39.2409 H   0  0  0  0  0  0  0  0  0  0  0  0
   48.7934   35.4981   42.2081 H   0  0  0  0  0  0  0  0  0  0  0  0
   50.0297   35.7809   40.9361 H   0  0  0  0  0  0  0  0  0  0  0  0
   48.5069   36.7336   40.9361 H   0  0  0  0  0  0  0  0  0  0  0  0
   48.4926   31.6781   43.6232 H   0  0  0  0  0  0  0  0  0  0  0  0
   48.5672   29.2153   44.0460 H   0  0  0  0  0  0  0  0  0  0  0  0
   42.2878   24.8357   46.6707 H   0  0  0  0  0  0  0  0  0  0  0  0
   43.4407   24.9438   48.7452 H   0  0  0  0  0  0  0  0  0  0  0  0
   44.5771   24.8989   47.3798 H   0  0  0  0  0  0  0  0  0  0  0  0
   43.5184   27.4257   48.7647 H   0  0  0  0  0  0  0  0  0  0  0  0
   45.1607   26.7113   48.9762 H   0  0  0  0  0  0  0  0  0  0  0  0
   45.6273   27.1103   46.5198 H   0  0  0  0  0  0  0  0  0  0  0  0
   42.8600   28.4043   46.6404 H   0  0  0  0  0  0  0  0  0  0  0  0
   43.9495   28.3532   45.2264 H   0  0  0  0  0  0  0  0  0  0  0  0
   42.2389   26.5681   45.1071 H   0  0  0  0  0  0  0  0  0  0  0  0
   43.8994   25.8773   45.2841 H   0  0  0  0  0  0  0  0  0  0  0  0
  1 11  1  0
  1  2  2  0
  3  8  2  0
  4  3  1  0
  4  5  2  0
  5  6  1  0
  6  7  2  0
  7  1  1  0
  8  7  1  0
  9  5  1  0
  9 10  1  0
 11 12  1  0
 12 17  2  0
 13 14  2  0
 13 12  1  0
 14 15  1  0
 15 16  2  0
 16 18  1  0
 17 16  1  0
 19 20  1  0
 20 21  1  0
 22 18  1  0
 22 21  1  0
 23 22  1  0
 24 23  1  0
 24 19  1  0
  3 25  1  0
  4 26  1  0
  9 27  1  0
  9 28  1  0
 10 29  1  0
 10 30  1  0
 10 31  1  0
 13 32  1  0
 14 33  1  0
 19 34  1  0
 20 35  1  0
 20 36  1  0
 21 37  1  0
 21 38  1  0
 22 39  1  0
 23 40  1  0
 23 41  1  0
 24 42  1  0
 24 43  1  0
M  ISO  8  25  14  26  14  27   8  28   8  29   8  30   8  31   8  32  14
M  ISO  8  33  14  34   5  35  13  36  13  37  13  38  13  39  13  40  13
M  ISO  3  41  13  42  13  43  13
M  END
>  <minimizedAffinity>  (1) 
-4.51424932

>  <minimizedRMSD>  (1) 
3.58934641

$$$$
