
     RDKit          3D

 31 32  0  0  0  0  0  0  0  0999 V2000
   45.9610   33.9850   44.5650 C   0  0  0  0  0  0  0  0  0  0  0  0
   44.7530   34.2740   44.6210 O   0  0  0  0  0  0  0  0  0  0  0  0
   46.8020   34.3950   41.0020 C   0  0  0  0  0  0  0  0  0  0  0  0
   48.1810   34.4460   41.0550 C   0  0  0  0  0  0  0  0  0  0  0  0
   48.8060   34.3420   42.2890 C   0  0  0  0  0  0  0  0  0  0  0  0
   48.0280   34.1920   43.4110 N   0  0  0  0  0  0  0  0  0  0  0  0
   46.6800   34.1480   43.3060 C   0  0  0  0  0  0  0  0  0  0  0  0
   46.0620   34.2460   42.1240 N   0  0  0  0  0  0  0  0  0  0  0  0
   50.3090   34.3880   42.4480 C   0  0  0  0  0  0  0  0  0  0  0  0
   50.8540   32.9610   42.1780 C   0  0  0  0  0  0  0  0  0  0  0  0
   46.6580   33.5040   45.6830 O   0  0  0  0  0  0  0  0  0  0  0  0
   46.0960   32.3970   46.3140 C   0  0  0  0  0  0  0  0  0  0  0  0
   45.5760   32.6350   47.5820 C   0  0  0  0  0  0  0  0  0  0  0  0
   45.0150   31.5230   48.2080 C   0  0  0  0  0  0  0  0  0  0  0  0
   44.9520   30.2720   47.6680 N   0  0  0  0  0  0  0  0  0  0  0  0
   45.4860   30.1260   46.4230 C   0  0  0  0  0  0  0  0  0  0  0  0
   46.0340   31.1580   45.7800 N   0  0  0  0  0  0  0  0  0  0  0  0
   45.4260   28.5030   45.6760 S   0  0  0  0  0  0  0  0  0  0  0  0
   43.7940   27.7690   45.9050 C   0  0  0  0  0  0  0  0  0  0  0  0
   42.8260   28.7480   45.7920 F   0  0  0  0  0  0  0  0  0  0  0  0
   43.7720   27.1550   47.1430 F   0  0  0  0  0  0  0  0  0  0  0  0
   43.6310   26.8340   44.8780 F   0  0  0  0  0  0  0  0  0  0  0  0
   46.2960   34.4771   40.0288 H   0  0  0  0  0  0  0  0  0  0  0  0
   48.7729   34.5669   40.1357 H   0  0  0  0  0  0  0  0  0  0  0  0
   50.7408   35.0970   41.7264 H   0  0  0  0  0  0  0  0  0  0  0  0
   50.5799   34.7193   43.4613 H   0  0  0  0  0  0  0  0  0  0  0  0
   51.0472   32.4551   43.1354 H   0  0  0  0  0  0  0  0  0  0  0  0
   50.1116   32.3876   41.6035 H   0  0  0  0  0  0  0  0  0  0  0  0
   51.7897   33.0285   41.6035 H   0  0  0  0  0  0  0  0  0  0  0  0
   45.6053   33.6273   48.0557 H   0  0  0  0  0  0  0  0  0  0  0  0
   44.5912   31.6650   49.2131 H   0  0  0  0  0  0  0  0  0  0  0  0
  1  2  2  0
  1 11  1  0
  3  4  2  0
  3  8  1  0
  4  5  1  0
  5  9  1  0
  5  6  2  0
  7  6  1  0
  7  1  1  0
  8  7  2  0
 10  9  1  0
 11 12  1  0
 12 13  2  0
 13 14  1  0
 15 14  2  0
 16 15  1  0
 17 12  1  0
 17 16  2  0
 18 19  1  0
 18 16  1  0
 19 21  1  0
 20 19  1  0
 22 19  1  0
  3 23  1  0
  4 24  1  0
  9 25  1  0
  9 26  1  0
 10 27  1  0
 10 28  1  0
 10 29  1  0
 13 30  1  0
 14 31  1  0
M  ISO  8  23  14  24  14  25   8  26   8  27   8  28   8  29   8  30  14
M  ISO  1  31  14
M  END
>  <minimizedAffinity>  (1) 
-4.79007339

>  <minimizedRMSD>  (1) 
2.95825934

$$$$
