
     RDKit          3D

 37 38  0  0  0  0  0  0  0  0999 V2000
   44.5310   33.9680   41.5020 C   0  0  0  0  0  0  0  0  0  0  0  0
   45.6650   34.2600   40.7750 C   0  0  0  0  0  0  0  0  0  0  0  0
   46.8560   34.4810   41.4570 C   0  0  0  0  0  0  0  0  0  0  0  0
   46.8610   34.4000   42.8330 N   0  0  0  0  0  0  0  0  0  0  0  0
   45.7210   34.1100   43.4950 C   0  0  0  0  0  0  0  0  0  0  0  0
   44.5620   33.8940   42.8590 N   0  0  0  0  0  0  0  0  0  0  0  0
   48.1510   34.8090   40.7600 C   0  0  0  0  0  0  0  0  0  0  0  0
   48.9330   35.8020   41.6430 C   0  0  0  0  0  0  0  0  0  0  0  0
   45.8400   34.0480   44.9480 C   0  0  0  0  0  0  0  0  0  0  0  0
   44.9800   34.5900   45.6720 O   0  0  0  0  0  0  0  0  0  0  0  0
   46.9340   33.3690   45.5070 O   0  0  0  0  0  0  0  0  0  0  0  0
   46.8100   31.9730   45.5870 C   0  0  0  0  0  0  0  0  0  0  0  0
   47.4870   31.2570   44.6030 C   0  0  0  0  0  0  0  0  0  0  0  0
   47.3660   29.8810   44.6810 C   0  0  0  0  0  0  0  0  0  0  0  0
   46.6540   29.2070   45.6200 N   0  0  0  0  0  0  0  0  0  0  0  0
   46.0180   29.9910   46.5510 C   0  0  0  0  0  0  0  0  0  0  0  0
   46.0970   31.3250   46.5300 N   0  0  0  0  0  0  0  0  0  0  0  0
   45.0560   29.1670   47.8230 S   0  0  0  0  0  0  0  0  0  0  0  0
   44.8660   27.4050   47.3460 C   0  0  0  0  0  0  0  0  0  0  0  0
   44.5320   26.5810   48.6000 C   0  0  0  0  0  0  0  0  0  0  0  0
   43.7030   27.2730   46.3670 C   0  0  0  0  0  0  0  0  0  0  0  0
   43.5824   33.7914   40.9738 H   0  0  0  0  0  0  0  0  0  0  0  0
   45.6283   34.3170   39.6771 H   0  0  0  0  0  0  0  0  0  0  0  0
   48.7410   33.8914   40.6186 H   0  0  0  0  0  0  0  0  0  0  0  0
   47.9507   35.2527   39.7736 H   0  0  0  0  0  0  0  0  0  0  0  0
   48.7515   35.5715   42.7032 H   0  0  0  0  0  0  0  0  0  0  0  0
   50.0083   35.7158   41.4279 H   0  0  0  0  0  0  0  0  0  0  0  0
   48.5971   36.8271   41.4279 H   0  0  0  0  0  0  0  0  0  0  0  0
   48.0774   31.7515   43.8176 H   0  0  0  0  0  0  0  0  0  0  0  0
   47.8897   29.2842   43.9197 H   0  0  0  0  0  0  0  0  0  0  0  0
   45.7976   27.0460   46.8843 H   0  0  0  0  0  0  0  0  0  0  0  0
   44.7701   27.1685   49.4990 H   0  0  0  0  0  0  0  0  0  0  0  0
   43.4611   26.3298   48.5992 H   0  0  0  0  0  0  0  0  0  0  0  0
   45.1258   25.6550   48.5992 H   0  0  0  0  0  0  0  0  0  0  0  0
   42.7624   27.1662   46.9273 H   0  0  0  0  0  0  0  0  0  0  0  0
   43.6528   28.1712   45.7340 H   0  0  0  0  0  0  0  0  0  0  0  0
   43.8554   26.3864   45.7340 H   0  0  0  0  0  0  0  0  0  0  0  0
  1  6  2  0
  2  3  2  0
  2  1  1  0
  3  4  1  0
  4  5  2  0
  5  9  1  0
  6  5  1  0
  7  3  1  0
  7  8  1  0
  9 11  1  0
  9 10  2  0
 11 12  1  0
 12 17  2  0
 13 14  2  0
 13 12  1  0
 14 15  1  0
 15 16  2  0
 16 18  1  0
 17 16  1  0
 19 18  1  0
 19 20  1  0
 21 19  1  0
  1 22  1  0
  2 23  1  0
  7 24  1  0
  7 25  1  0
  8 26  1  0
  8 27  1  0
  8 28  1  0
 13 29  1  0
 14 30  1  0
 19 31  1  0
 20 32  1  0
 20 33  1  0
 20 34  1  0
 21 35  1  0
 21 36  1  0
 21 37  1  0
M  ISO  8  22  14  23  14  24   8  25   8  26   8  27   8  28   8  29  14
M  ISO  8  30  14  31   8  32   8  33   8  34   8  35   8  36   8  37   8
M  END
>  <minimizedAffinity>  (1) 
-4.55689955

>  <minimizedRMSD>  (1) 
1.775805

$$$$
