
     RDKit          3D

 20 21  0  0  0  0  0  0  0  0999 V2000
   46.3430   32.3090   45.6470 C   0  0  0  0  0  0  0  0  0  0  0  0
   47.3410   31.4760   45.1570 C   0  0  0  0  0  0  0  0  0  0  0  0
   47.7530   30.6300   46.1330 N   0  0  0  0  0  0  0  0  0  0  0  0
   47.0120   30.9400   47.2230 C   0  0  0  0  0  0  0  0  0  0  0  0
   46.1560   31.9590   46.9320 N   0  0  0  0  0  0  0  0  0  0  0  0
   44.8720   35.5740   44.8200 C   0  0  0  0  0  0  0  0  0  0  0  0
   44.2890   35.3300   43.5570 C   0  0  0  0  0  0  0  0  0  0  0  0
   44.4120   34.0530   43.0180 C   0  0  0  0  0  0  0  0  0  0  0  0
   45.0800   33.0870   43.7080 N   0  0  0  0  0  0  0  0  0  0  0  0
   45.6330   33.3570   44.9270 C   0  0  0  0  0  0  0  0  0  0  0  0
   45.5260   34.5860   45.4660 N   0  0  0  0  0  0  0  0  0  0  0  0
   45.1960   32.5770   47.8330 C   0  0  0  0  0  0  0  0  0  0  0  0
   44.1740   31.6890   48.1920 F   0  0  0  0  0  0  0  0  0  0  0  0
   44.6410   33.7290   47.2860 F   0  0  0  0  0  0  0  0  0  0  0  0
   45.8130   32.9050   49.0350 F   0  0  0  0  0  0  0  0  0  0  0  0
   47.7374   31.4993   44.1312 H   0  0  0  0  0  0  0  0  0  0  0  0
   47.0898   30.4418   48.2006 H   0  0  0  0  0  0  0  0  0  0  0  0
   44.7929   36.5710   45.2779 H   0  0  0  0  0  0  0  0  0  0  0  0
   43.7543   36.1247   43.0162 H   0  0  0  0  0  0  0  0  0  0  0  0
   43.9707   33.8241   42.0367 H   0  0  0  0  0  0  0  0  0  0  0  0
  1  5  1  0
  2  1  2  0
  2  3  1  0
  3  4  2  0
  5  4  1  0
  5 12  1  0
  6 11  2  0
  7  6  1  0
  8  7  2  0
  8  9  1  0
  9 10  2  0
 10 11  1  0
 10  1  1  0
 12 13  1  0
 12 15  1  0
 14 12  1  0
  2 16  1  0
  4 17  1  0
  6 18  1  0
  7 19  1  0
  8 20  1  0
M  ISO  5  16  14  17  14  18  14  19  14  20  14
M  END
>  <minimizedAffinity>  (1) 
-4.09772778

>  <minimizedRMSD>  (1) 
1.82473207

$$$$
