
     RDKit          3D

 45 48  0  0  1  0  0  0  0  0999 V2000
   46.8340   31.7890   45.6340 C   0  0  0  0  0  0  0  0  0  0  0  0
   47.6190   31.0350   44.7640 C   0  0  0  0  0  0  0  0  0  0  0  0
   47.4480   29.6530   44.8460 C   0  0  0  0  0  0  0  0  0  0  0  0
   46.5820   29.0210   45.7030 N   0  0  0  0  0  0  0  0  0  0  0  0
   45.8590   29.8330   46.5110 C   0  0  0  0  0  0  0  0  0  0  0  0
   45.9850   31.1600   46.4720 N   0  0  0  0  0  0  0  0  0  0  0  0
   47.0070   33.1660   45.5490 O   0  0  0  0  0  0  0  0  0  0  0  0
   45.9260   33.9000   45.0240 C   0  0  0  0  0  0  0  0  0  0  0  0
   45.1010   34.4220   45.7790 O   0  0  0  0  0  0  0  0  0  0  0  0
   44.5670   34.0210   41.6100 C   0  0  0  0  0  0  0  0  0  0  0  0
   45.7320   34.3060   40.8710 C   0  0  0  0  0  0  0  0  0  0  0  0
   46.9200   34.4460   41.5320 C   0  0  0  0  0  0  0  0  0  0  0  0
   46.9450   34.3040   42.9130 N   0  0  0  0  0  0  0  0  0  0  0  0
   45.8010   34.0280   43.5990 C   0  0  0  0  0  0  0  0  0  0  0  0
   44.6280   33.8880   42.9660 N   0  0  0  0  0  0  0  0  0  0  0  0
   48.2010   34.7490   40.8210 C   0  0  0  0  0  0  0  0  0  0  0  0
   48.9710   35.8410   41.6450 C   0  0  0  0  0  0  0  0  0  0  0  0
   44.7200   29.0630   47.6400 S   0  0  0  0  0  0  0  0  0  0  0  0
   45.1670   27.3090   47.7960 C   0  0  1  0  0  0  0  0  0  0  0  0
   44.5660   26.6660   49.0410 C   0  0  0  0  0  0  0  0  0  0  0  0
   44.1040   26.2950   47.6630 C   0  0  2  0  0  0  0  0  0  0  0  0
   44.4300   24.9300   47.3030 N   0  0  0  0  0  0  0  0  0  0  0  0
   43.8160   24.5160   46.1780 C   0  0  0  0  0  0  0  0  0  0  0  0
   44.0720   23.2070   45.7520 C   0  0  0  0  0  0  0  0  0  0  0  0
   44.9340   22.4810   46.5410 C   0  0  0  0  0  0  0  0  0  0  0  0
   45.1880   21.2850   46.1790 O   0  0  0  0  0  0  0  0  0  0  0  0
   45.5540   22.8840   47.6660 N   0  0  0  0  0  0  0  0  0  0  0  0
   45.2640   24.1670   48.0270 C   0  0  0  0  0  0  0  0  0  0  0  0
   45.7950   24.6340   49.0680 O   0  0  0  0  0  0  0  0  0  0  0  0
   48.3259   31.4983   44.0600 H   0  0  0  0  0  0  0  0  0  0  0  0
   48.0512   29.0239   44.1749 H   0  0  0  0  0  0  0  0  0  0  0  0
   43.6040   33.9052   41.0912 H   0  0  0  0  0  0  0  0  0  0  0  0
   45.6861   34.4143   39.7773 H   0  0  0  0  0  0  0  0  0  0  0  0
   48.8118   33.8371   40.7488 H   0  0  0  0  0  0  0  0  0  0  0  0
   47.9947   35.1145   39.8042 H   0  0  0  0  0  0  0  0  0  0  0  0
   48.8371   35.6512   42.7202 H   0  0  0  0  0  0  0  0  0  0  0  0
   50.0417   35.8009   41.3961 H   0  0  0  0  0  0  0  0  0  0  0  0
   48.5737   36.8361   41.3961 H   0  0  0  0  0  0  0  0  0  0  0  0
   46.1578   27.4136   47.3297 H   0  0  0  0  0  0  0  0  0  0  0  0
   45.1564   25.9553   49.6380 H   0  0  0  0  0  0  0  0  0  0  0  0
   44.0854   27.0299   49.9611 H   0  0  0  0  0  0  0  0  0  0  0  0
   43.1635   26.3005   47.0926 H   0  0  0  0  0  0  0  0  0  0  0  0
   43.1411   25.1791   45.6169 H   0  0  0  0  0  0  0  0  0  0  0  0
   43.6135   22.7863   44.8450 H   0  0  0  0  0  0  0  0  0  0  0  0
   46.1895   22.2786   48.2050 H   0  0  0  0  0  0  0  0  0  0  0  0
  1  6  2  0
  2  3  2  0
  2  1  1  0
  3  4  1  0
  4  5  2  0
  5 18  1  0
  6  5  1  0
  7  1  1  0
  8  7  1  0
  8  9  2  0
 10 15  2  0
 11 12  2  0
 11 10  1  0
 12 13  1  0
 13 14  2  0
 14  8  1  0
 15 14  1  0
 16 12  1  0
 16 17  1  0
 18 19  1  0
 19 20  1  0
 21 19  1  0
 21 20  1  0
 22 21  1  0
 22 28  1  0
 23 22  1  0
 24 23  2  0
 24 25  1  0
 25 27  1  0
 26 25  2  0
 27 28  1  0
 28 29  2  0
  2 30  1  0
  3 31  1  0
 10 32  1  0
 11 33  1  0
 16 34  1  0
 16 35  1  0
 17 36  1  0
 17 37  1  0
 17 38  1  0
 19 39  1  6
 20 40  1  0
 20 41  1  0
 21 42  1  1
 23 43  1  0
 24 44  1  0
 27 45  1  0
M  ISO  8  30  14  31  14  32  14  33  14  34   8  35   8  36   8  37   8
M  ISO  8  38   8  39  13  40  13  41  13  42  13  43  14  44  14  45   9
M  END
>  <minimizedAffinity>  (1) 
-5.21139812

>  <minimizedRMSD>  (1) 
0.655131876

$$$$
