
     RDKit          3D

 42 45  0  0  1  0  0  0  0  0999 V2000
   46.7510   32.0130   45.5570 C   0  0  0  0  0  0  0  0  0  0  0  0
   47.4990   31.3520   44.5690 C   0  0  0  0  0  0  0  0  0  0  0  0
   47.4050   29.9700   44.5770 C   0  0  0  0  0  0  0  0  0  0  0  0
   46.6500   29.2410   45.4620 N   0  0  0  0  0  0  0  0  0  0  0  0
   45.9580   29.9610   46.3840 C   0  0  0  0  0  0  0  0  0  0  0  0
   46.0190   31.2790   46.4130 N   0  0  0  0  0  0  0  0  0  0  0  0
   46.8460   33.3930   45.5470 O   0  0  0  0  0  0  0  0  0  0  0  0
   45.7740   34.0960   44.9670 C   0  0  0  0  0  0  0  0  0  0  0  0
   44.9320   34.6610   45.6710 O   0  0  0  0  0  0  0  0  0  0  0  0
   44.5110   33.9660   41.5170 C   0  0  0  0  0  0  0  0  0  0  0  0
   45.6670   34.2560   40.7860 C   0  0  0  0  0  0  0  0  0  0  0  0
   46.8380   34.4870   41.4750 C   0  0  0  0  0  0  0  0  0  0  0  0
   46.8400   34.4260   42.8630 N   0  0  0  0  0  0  0  0  0  0  0  0
   45.6840   34.1390   43.5230 C   0  0  0  0  0  0  0  0  0  0  0  0
   44.5390   33.9130   42.8770 N   0  0  0  0  0  0  0  0  0  0  0  0
   48.1340   34.8060   40.7830 C   0  0  0  0  0  0  0  0  0  0  0  0
   48.9300   35.8010   41.6950 C   0  0  0  0  0  0  0  0  0  0  0  0
   44.9680   29.0510   47.5480 S   0  0  0  0  0  0  0  0  0  0  0  0
   45.0790   27.2820   47.1400 C   0  0  1  0  0  0  0  0  0  0  0  0
   44.0280   26.4300   47.8270 C   0  0  0  0  0  0  0  0  0  0  0  0
   44.0100   26.6170   46.3550 C   0  0  1  0  0  0  0  0  0  0  0  0
   42.8630   27.3780   45.8230 C   0  0  0  0  0  0  0  0  0  0  0  0
   41.5290   27.0260   45.8420 C   0  0  0  0  0  0  0  0  0  0  0  0
   40.7580   27.9640   45.2640 N   0  0  0  0  0  0  0  0  0  0  0  0
   41.5750   28.9360   44.8620 C   0  0  0  0  0  0  0  0  0  0  0  0
   42.8320   28.5870   45.1960 N   0  0  0  0  0  0  0  0  0  0  0  0
   48.1172   31.8947   43.8387 H   0  0  0  0  0  0  0  0  0  0  0  0
   47.9774   29.4159   43.8185 H   0  0  0  0  0  0  0  0  0  0  0  0
   43.5661   33.7781   40.9860 H   0  0  0  0  0  0  0  0  0  0  0  0
   45.6424   34.2988   39.6871 H   0  0  0  0  0  0  0  0  0  0  0  0
   48.7168   33.8847   40.6362 H   0  0  0  0  0  0  0  0  0  0  0  0
   47.9434   35.2558   39.7974 H   0  0  0  0  0  0  0  0  0  0  0  0
   48.7392   35.5625   42.7517 H   0  0  0  0  0  0  0  0  0  0  0  0
   50.0061   35.7084   41.4867 H   0  0  0  0  0  0  0  0  0  0  0  0
   48.6035   36.8306   41.4867 H   0  0  0  0  0  0  0  0  0  0  0  0
   46.1732   27.3095   47.0302 H   0  0  0  0  0  0  0  0  0  0  0  0
   44.3019   25.4550   48.2564 H   0  0  0  0  0  0  0  0  0  0  0  0
   43.3077   26.5841   48.6440 H   0  0  0  0  0  0  0  0  0  0  0  0
   44.0443   25.9734   45.4636 H   0  0  0  0  0  0  0  0  0  0  0  0
   41.1433   26.0921   46.2769 H   0  0  0  0  0  0  0  0  0  0  0  0
   41.2756   29.8611   44.3476 H   0  0  0  0  0  0  0  0  0  0  0  0
   43.6646   29.1615   45.0020 H   0  0  0  0  0  0  0  0  0  0  0  0
  1  6  2  0
  2  3  2  0
  2  1  1  0
  3  4  1  0
  4  5  2  0
  5  6  1  0
  5 18  1  0
  7  1  1  0
  8  7  1  0
  8  9  2  0
 10 15  2  0
 11 12  2  0
 11 10  1  0
 12 13  1  0
 13 14  2  0
 14  8  1  0
 15 14  1  0
 16 12  1  0
 16 17  1  0
 19 18  1  0
 19 20  1  0
 21 19  1  0
 21 20  1  0
 22 23  2  0
 22 21  1  0
 24 23  1  0
 25 26  1  0
 25 24  2  0
 26 22  1  0
  2 27  1  0
  3 28  1  0
 10 29  1  0
 11 30  1  0
 16 31  1  0
 16 32  1  0
 17 33  1  0
 17 34  1  0
 17 35  1  0
 19 36  1  6
 20 37  1  0
 20 38  1  0
 21 39  1  6
 23 40  1  0
 25 41  1  0
 26 42  1  0
M  ISO  8  27  14  28  14  29  14  30  14  31   8  32   8  33   8  34   8
M  ISO  8  35   8  36  13  37  13  38  13  39  13  40  14  41  14  42   9
M  END
>  <minimizedAffinity>  (1) 
-5.01306057

>  <minimizedRMSD>  (1) 
0.754947424

$$$$
