
     RDKit          3D

 48 51  0  0  1  0  0  0  0  0999 V2000
   46.7330   31.9300   45.4890 C   0  0  0  0  0  0  0  0  0  0  0  0
   47.5600   31.2800   44.5570 C   0  0  0  0  0  0  0  0  0  0  0  0
   47.4460   29.8930   44.5160 C   0  0  0  0  0  0  0  0  0  0  0  0
   46.6020   29.1700   45.3100 N   0  0  0  0  0  0  0  0  0  0  0  0
   45.8380   29.8720   46.1820 C   0  0  0  0  0  0  0  0  0  0  0  0
   45.9160   31.1910   46.2520 N   0  0  0  0  0  0  0  0  0  0  0  0
   46.8550   33.3140   45.5200 O   0  0  0  0  0  0  0  0  0  0  0  0
   45.8180   34.0460   44.9570 C   0  0  0  0  0  0  0  0  0  0  0  0
   44.9930   34.6310   45.6760 O   0  0  0  0  0  0  0  0  0  0  0  0
   44.5330   33.9680   41.5060 C   0  0  0  0  0  0  0  0  0  0  0  0
   45.6880   34.2660   40.7800 C   0  0  0  0  0  0  0  0  0  0  0  0
   46.8550   34.4820   41.4570 C   0  0  0  0  0  0  0  0  0  0  0  0
   46.8700   34.4030   42.8410 N   0  0  0  0  0  0  0  0  0  0  0  0
   45.7170   34.1100   43.5160 C   0  0  0  0  0  0  0  0  0  0  0  0
   44.5670   33.8950   42.8630 N   0  0  0  0  0  0  0  0  0  0  0  0
   48.1490   34.8080   40.7620 C   0  0  0  0  0  0  0  0  0  0  0  0
   48.9510   35.8070   41.6620 C   0  0  0  0  0  0  0  0  0  0  0  0
   44.7340   28.9370   47.2190 S   0  0  0  0  0  0  0  0  0  0  0  0
   45.2300   27.1830   47.1500 C   0  0  1  0  0  0  0  0  0  0  0  0
   44.6880   26.4010   48.3480 C   0  0  0  0  0  0  0  0  0  0  0  0
   44.2180   26.1320   46.9570 C   0  0  1  0  0  0  0  0  0  0  0  0
   42.8790   26.5920   46.4840 C   0  0  0  0  0  0  0  0  0  0  0  0
   42.8390   26.4820   44.9760 C   0  0  0  0  0  0  0  0  0  0  0  0
   41.6330   25.6820   44.5960 C   0  0  0  0  0  0  0  0  0  0  0  0
   40.7920   25.5700   45.8280 C   0  0  0  0  0  0  0  0  0  0  0  0
   41.7170   25.7790   47.0070 C   0  0  0  0  0  0  0  0  0  0  0  0
   48.2519   31.8309   43.9029 H   0  0  0  0  0  0  0  0  0  0  0  0
   48.0752   29.3450   43.7991 H   0  0  0  0  0  0  0  0  0  0  0  0
   43.5863   33.7906   40.9746 H   0  0  0  0  0  0  0  0  0  0  0  0
   45.6588   34.3258   39.6820 H   0  0  0  0  0  0  0  0  0  0  0  0
   48.7340   33.8883   40.6142 H   0  0  0  0  0  0  0  0  0  0  0  0
   47.9486   35.2596   39.7792 H   0  0  0  0  0  0  0  0  0  0  0  0
   48.7656   35.5761   42.7214 H   0  0  0  0  0  0  0  0  0  0  0  0
   50.0258   35.7111   41.4485 H   0  0  0  0  0  0  0  0  0  0  0  0
   48.6251   36.8357   41.4485 H   0  0  0  0  0  0  0  0  0  0  0  0
   46.1889   27.3755   46.6466 H   0  0  0  0  0  0  0  0  0  0  0  0
   45.3258   25.6716   48.8689 H   0  0  0  0  0  0  0  0  0  0  0  0
   44.2105   26.6571   49.3053 H   0  0  0  0  0  0  0  0  0  0  0  0
   44.1362   25.1999   46.3786 H   0  0  0  0  0  0  0  0  0  0  0  0
   42.7651   27.6202   46.8579 H   0  0  0  0  0  0  0  0  0  0  0  0
   42.7748   27.4860   44.5312 H   0  0  0  0  0  0  0  0  0  0  0  0
   43.7516   25.9910   44.6071 H   0  0  0  0  0  0  0  0  0  0  0  0
   41.0733   26.1935   43.7991 H   0  0  0  0  0  0  0  0  0  0  0  0
   41.9175   24.6893   44.2170 H   0  0  0  0  0  0  0  0  0  0  0  0
   40.0062   26.3397   45.8217 H   0  0  0  0  0  0  0  0  0  0  0  0
   40.2983   24.5885   45.8819 H   0  0  0  0  0  0  0  0  0  0  0  0
   42.0701   24.8111   47.3924 H   0  0  0  0  0  0  0  0  0  0  0  0
   41.2058   26.2920   47.8349 H   0  0  0  0  0  0  0  0  0  0  0  0
  1  7  1  0
  1  6  1  0
  2  1  2  0
  3  2  1  0
  3  4  2  0
  4  5  1  0
  5  6  2  0
  5 18  1  0
  8  7  1  0
  8  9  2  0
 10 15  2  0
 11 12  2  0
 11 10  1  0
 12 13  1  0
 13 14  2  0
 14  8  1  0
 15 14  1  0
 16 12  1  0
 16 17  1  0
 19 18  1  0
 19 20  1  0
 21 19  1  0
 21 20  1  0
 22 21  1  0
 22 26  1  0
 23 22  1  0
 24 23  1  0
 24 25  1  0
 25 26  1  0
  2 27  1  0
  3 28  1  0
 10 29  1  0
 11 30  1  0
 16 31  1  0
 16 32  1  0
 17 33  1  0
 17 34  1  0
 17 35  1  0
 19 36  1  6
 20 37  1  0
 20 38  1  0
 21 39  1  6
 22 40  1  0
 23 41  1  0
 23 42  1  0
 24 43  1  0
 24 44  1  0
 25 45  1  0
 25 46  1  0
 26 47  1  0
 26 48  1  0
M  ISO  8  27  14  28  14  29  14  30  14  31   8  32   8  33   8  34   8
M  ISO  8  35   8  36  13  37  13  38  13  39  13  40  13  41  13  42  13
M  ISO  6  43  13  44  13  45  13  46  13  47  13  48  13
M  END
>  <minimizedAffinity>  (1) 
-5.17272949

>  <minimizedRMSD>  (1) 
0.899500966

$$$$
