
     RDKit          3D

 47 50  0  0  1  0  0  0  0  0999 V2000
   46.7850   32.0280   45.5870 C   0  0  0  0  0  0  0  0  0  0  0  0
   47.4280   31.3230   44.5750 C   0  0  0  0  0  0  0  0  0  0  0  0
   47.3240   29.9430   44.6510 C   0  0  0  0  0  0  0  0  0  0  0  0
   46.6530   29.2600   45.6280 N   0  0  0  0  0  0  0  0  0  0  0  0
   46.0470   30.0230   46.5870 C   0  0  0  0  0  0  0  0  0  0  0  0
   46.1290   31.3430   46.5380 N   0  0  0  0  0  0  0  0  0  0  0  0
   46.8880   33.4120   45.5120 O   0  0  0  0  0  0  0  0  0  0  0  0
   45.8120   34.0800   44.9350 C   0  0  0  0  0  0  0  0  0  0  0  0
   44.9500   34.6290   45.6490 O   0  0  0  0  0  0  0  0  0  0  0  0
   44.5090   33.9840   41.4880 C   0  0  0  0  0  0  0  0  0  0  0  0
   45.6630   34.2700   40.7610 C   0  0  0  0  0  0  0  0  0  0  0  0
   46.8410   34.4870   41.4440 C   0  0  0  0  0  0  0  0  0  0  0  0
   46.8560   34.4170   42.8200 N   0  0  0  0  0  0  0  0  0  0  0  0
   45.7020   34.1330   43.4970 C   0  0  0  0  0  0  0  0  0  0  0  0
   44.5550   33.9210   42.8460 N   0  0  0  0  0  0  0  0  0  0  0  0
   48.1460   34.8040   40.7490 C   0  0  0  0  0  0  0  0  0  0  0  0
   48.9370   35.8080   41.6480 C   0  0  0  0  0  0  0  0  0  0  0  0
   45.1600   29.1790   47.8790 S   0  0  0  0  0  0  0  0  0  0  0  0
   45.1990   27.3950   47.4980 C   0  0  1  0  0  0  0  0  0  0  0  0
   44.3120   26.5690   48.4360 C   0  0  0  0  0  0  0  0  0  0  0  0
   43.9610   26.7270   47.0120 C   0  0  2  0  0  0  0  0  0  0  0  0
   44.0110   25.7000   46.0350 N   0  0  0  0  0  0  0  0  0  0  0  0
   43.4060   25.9480   44.7810 C   0  0  0  0  0  0  0  0  0  0  0  0
   42.5130   24.7760   44.4500 C   0  0  0  0  0  0  0  0  0  0  0  0
   42.5560   23.8680   45.6500 C   0  0  0  0  0  0  0  0  0  0  0  0
   43.7080   24.3850   46.4780 C   0  0  0  0  0  0  0  0  0  0  0  0
   47.9816   31.8266   43.7689 H   0  0  0  0  0  0  0  0  0  0  0  0
   47.8186   29.3521   43.8660 H   0  0  0  0  0  0  0  0  0  0  0  0
   43.5587   33.8088   40.9624 H   0  0  0  0  0  0  0  0  0  0  0  0
   45.6347   34.3217   39.6626 H   0  0  0  0  0  0  0  0  0  0  0  0
   48.7310   33.8823   40.6138 H   0  0  0  0  0  0  0  0  0  0  0  0
   47.9560   35.2437   39.7588 H   0  0  0  0  0  0  0  0  0  0  0  0
   48.7534   35.5749   42.7072 H   0  0  0  0  0  0  0  0  0  0  0  0
   50.0127   35.7221   41.4348 H   0  0  0  0  0  0  0  0  0  0  0  0
   48.6017   36.8337   41.4348 H   0  0  0  0  0  0  0  0  0  0  0  0
   46.2388   27.4023   47.1391 H   0  0  0  0  0  0  0  0  0  0  0  0
   44.6626   25.5971   48.8136 H   0  0  0  0  0  0  0  0  0  0  0  0
   43.8009   26.7530   49.3925 H   0  0  0  0  0  0  0  0  0  0  0  0
   43.0371   27.0467   46.5078 H   0  0  0  0  0  0  0  0  0  0  0  0
   42.8078   26.8697   44.8316 H   0  0  0  0  0  0  0  0  0  0  0  0
   44.1755   26.0715   44.0048 H   0  0  0  0  0  0  0  0  0  0  0  0
   41.4840   25.1194   44.2675 H   0  0  0  0  0  0  0  0  0  0  0  0
   42.8504   24.2572   43.5406 H   0  0  0  0  0  0  0  0  0  0  0  0
   41.6143   23.9269   46.2154 H   0  0  0  0  0  0  0  0  0  0  0  0
   42.6847   22.8121   45.3697 H   0  0  0  0  0  0  0  0  0  0  0  0
   44.5851   23.7347   46.3446 H   0  0  0  0  0  0  0  0  0  0  0  0
   43.4388   24.3934   47.5445 H   0  0  0  0  0  0  0  0  0  0  0  0
  1  6  2  0
  2  3  2  0
  2  1  1  0
  3  4  1  0
  4  5  2  0
  5 18  1  0
  6  5  1  0
  7  1  1  0
  8  7  1  0
  8  9  2  0
 10 15  2  0
 11 12  2  0
 11 10  1  0
 12 13  1  0
 13 14  2  0
 14  8  1  0
 15 14  1  0
 16 12  1  0
 16 17  1  0
 19 18  1  0
 19 20  1  0
 21 19  1  0
 21 20  1  0
 22 23  1  0
 22 26  1  0
 22 21  1  0
 24 23  1  0
 24 25  1  0
 25 26  1  0
  2 27  1  0
  3 28  1  0
 10 29  1  0
 11 30  1  0
 16 31  1  0
 16 32  1  0
 17 33  1  0
 17 34  1  0
 17 35  1  0
 19 36  1  6
 20 37  1  0
 20 38  1  0
 21 39  1  1
 23 40  1  0
 23 41  1  0
 24 42  1  0
 24 43  1  0
 25 44  1  0
 25 45  1  0
 26 46  1  0
 26 47  1  0
M  ISO  8  27  14  28  14  29  14  30  14  31   8  32   8  33   8  34   8
M  ISO  8  35   8  36  13  37  13  38  13  39  13  40  13  41  13  42  13
M  ISO  5  43  13  44  13  45  13  46  13  47  13
M  END
>  <minimizedAffinity>  (1) 
-4.80750275

>  <minimizedRMSD>  (1) 
0.308270395

$$$$
