
     RDKit          3D

 43 46  0  0  1  0  0  0  0  0999 V2000
   46.8780   31.5730   45.6270 C   0  0  0  0  0  0  0  0  0  0  0  0
   47.5030   30.7790   44.6560 C   0  0  0  0  0  0  0  0  0  0  0  0
   47.2770   29.4160   44.7690 C   0  0  0  0  0  0  0  0  0  0  0  0
   46.5160   28.8230   45.7290 N   0  0  0  0  0  0  0  0  0  0  0  0
   45.9390   29.6730   46.6410 C   0  0  0  0  0  0  0  0  0  0  0  0
   46.1320   30.9800   46.5660 N   0  0  0  0  0  0  0  0  0  0  0  0
   47.1040   32.9460   45.5150 O   0  0  0  0  0  0  0  0  0  0  0  0
   46.0200   33.7160   45.0620 C   0  0  0  0  0  0  0  0  0  0  0  0
   45.2240   34.2170   45.8680 O   0  0  0  0  0  0  0  0  0  0  0  0
   44.5640   34.0360   41.6950 C   0  0  0  0  0  0  0  0  0  0  0  0
   45.6980   34.3330   40.9420 C   0  0  0  0  0  0  0  0  0  0  0  0
   46.9150   34.4170   41.5820 C   0  0  0  0  0  0  0  0  0  0  0  0
   46.9980   34.2080   42.9580 N   0  0  0  0  0  0  0  0  0  0  0  0
   45.8460   33.9180   43.6520 C   0  0  0  0  0  0  0  0  0  0  0  0
   44.6620   33.8340   43.0350 N   0  0  0  0  0  0  0  0  0  0  0  0
   48.1960   34.7330   40.8520 C   0  0  0  0  0  0  0  0  0  0  0  0
   48.9600   35.8320   41.6570 C   0  0  0  0  0  0  0  0  0  0  0  0
   44.9330   28.9480   47.9160 S   0  0  0  0  0  0  0  0  0  0  0  0
   44.9900   27.1230   47.7140 C   0  0  1  0  0  0  0  0  0  0  0  0
   44.5780   26.4100   48.9970 C   0  0  0  0  0  0  0  0  0  0  0  0
   43.7340   26.3580   47.7570 C   0  0  2  0  0  0  0  0  0  0  0  0
   43.7550   25.0540   47.0040 C   0  0  0  0  0  0  0  0  0  0  0  0
   42.7680   24.6430   46.1180 C   0  0  0  0  0  0  0  0  0  0  0  0
   42.9020   23.4200   45.4870 C   0  0  0  0  0  0  0  0  0  0  0  0
   43.9550   22.6070   45.6980 N   0  0  0  0  0  0  0  0  0  0  0  0
   44.8970   23.0310   46.5630 C   0  0  0  0  0  0  0  0  0  0  0  0
   44.8080   24.2140   47.2000 N   0  0  0  0  0  0  0  0  0  0  0  0
   48.1293   31.2075   43.8596 H   0  0  0  0  0  0  0  0  0  0  0  0
   47.7508   28.7611   44.0229 H   0  0  0  0  0  0  0  0  0  0  0  0
   43.5834   33.9646   41.2017 H   0  0  0  0  0  0  0  0  0  0  0  0
   45.6230   34.4973   39.8569 H   0  0  0  0  0  0  0  0  0  0  0  0
   48.8157   33.8271   40.7787 H   0  0  0  0  0  0  0  0  0  0  0  0
   47.9749   35.0918   39.8359 H   0  0  0  0  0  0  0  0  0  0  0  0
   48.8343   35.6511   42.7347 H   0  0  0  0  0  0  0  0  0  0  0  0
   50.0294   35.7968   41.4016 H   0  0  0  0  0  0  0  0  0  0  0  0
   48.5545   36.8221   41.4016 H   0  0  0  0  0  0  0  0  0  0  0  0
   45.8285   27.1188   47.0020 H   0  0  0  0  0  0  0  0  0  0  0  0
   45.1233   25.5165   49.3350 H   0  0  0  0  0  0  0  0  0  0  0  0
   44.4210   26.7023   50.0458 H   0  0  0  0  0  0  0  0  0  0  0  0
   42.6806   26.5873   47.5383 H   0  0  0  0  0  0  0  0  0  0  0  0
   41.8933   25.2803   45.9212 H   0  0  0  0  0  0  0  0  0  0  0  0
   42.1182   23.0985   44.7854 H   0  0  0  0  0  0  0  0  0  0  0  0
   45.7689   22.3886   46.7555 H   0  0  0  0  0  0  0  0  0  0  0  0
  1  6  2  0
  2  3  2  0
  2  1  1  0
  3  4  1  0
  4  5  2  0
  5 18  1  0
  6  5  1  0
  7  1  1  0
  8  7  1  0
  8  9  2  0
 10 15  2  0
 11 12  2  0
 11 10  1  0
 12 13  1  0
 13 14  2  0
 14  8  1  0
 15 14  1  0
 16 12  1  0
 16 17  1  0
 19 21  1  0
 19 18  1  0
 19 20  1  0
 21 20  1  0
 22 27  1  0
 22 21  1  0
 23 22  2  0
 24 25  2  0
 24 23  1  0
 25 26  1  0
 26 27  2  0
  2 28  1  0
  3 29  1  0
 10 30  1  0
 11 31  1  0
 16 32  1  0
 16 33  1  0
 17 34  1  0
 17 35  1  0
 17 36  1  0
 19 37  1  6
 20 38  1  0
 20 39  1  0
 21 40  1  1
 23 41  1  0
 24 42  1  0
 26 43  1  0
M  ISO  8  28  14  29  14  30  14  31  14  32   8  33   8  34   8  35   8
M  ISO  8  36   8  37  13  38  13  39  13  40  13  41  14  42  14  43  14
M  END
>  <minimizedAffinity>  (1) 
-4.95339823

>  <minimizedRMSD>  (1) 
0.545880973

$$$$
