
     RDKit          3D

 49 52  0  0  1  0  0  0  0  0999 V2000
   46.7720   31.9300   45.4910 C   0  0  0  0  0  0  0  0  0  0  0  0
   47.5270   31.2910   44.5110 C   0  0  0  0  0  0  0  0  0  0  0  0
   47.4140   29.9150   44.4900 C   0  0  0  0  0  0  0  0  0  0  0  0
   46.6440   29.1630   45.3260 N   0  0  0  0  0  0  0  0  0  0  0  0
   45.9350   29.8640   46.2580 C   0  0  0  0  0  0  0  0  0  0  0  0
   46.0110   31.1840   46.3170 N   0  0  0  0  0  0  0  0  0  0  0  0
   46.8770   33.3250   45.5260 O   0  0  0  0  0  0  0  0  0  0  0  0
   45.8180   34.0370   44.9540 C   0  0  0  0  0  0  0  0  0  0  0  0
   44.9840   34.6070   45.6730 O   0  0  0  0  0  0  0  0  0  0  0  0
   44.5210   33.9690   41.5170 C   0  0  0  0  0  0  0  0  0  0  0  0
   45.6810   34.2680   40.7860 C   0  0  0  0  0  0  0  0  0  0  0  0
   46.8620   34.4840   41.4670 C   0  0  0  0  0  0  0  0  0  0  0  0
   46.8700   34.3990   42.8490 N   0  0  0  0  0  0  0  0  0  0  0  0
   45.7080   34.1030   43.5170 C   0  0  0  0  0  0  0  0  0  0  0  0
   44.5650   33.8930   42.8720 N   0  0  0  0  0  0  0  0  0  0  0  0
   48.1520   34.8100   40.7780 C   0  0  0  0  0  0  0  0  0  0  0  0
   48.9470   35.8080   41.6810 C   0  0  0  0  0  0  0  0  0  0  0  0
   44.9080   28.9520   47.3820 S   0  0  0  0  0  0  0  0  0  0  0  0
   44.5530   27.3200   46.6290 C   0  0  1  0  0  0  0  0  0  0  0  0
   44.0430   26.3040   47.6400 C   0  0  0  0  0  0  0  0  0  0  0  0
   43.1770   26.8040   46.5690 C   0  0  2  0  0  0  0  0  0  0  0  0
   42.6510   26.0040   45.5200 N   0  0  0  0  0  0  0  0  0  0  0  0
   41.2620   26.0450   45.2470 C   0  0  0  0  0  0  0  0  0  0  0  0
   40.4920   24.8080   45.6690 C   0  0  0  0  0  0  0  0  0  0  0  0
   41.0790   23.7100   44.9440 N   0  0  0  0  0  0  0  0  0  0  0  0
   42.4160   23.5370   45.4740 C   0  0  0  0  0  0  0  0  0  0  0  0
   43.2740   24.7410   45.3580 C   0  0  0  0  0  0  0  0  0  0  0  0
   48.1664   31.8418   43.8055 H   0  0  0  0  0  0  0  0  0  0  0  0
   47.9986   29.3769   43.7293 H   0  0  0  0  0  0  0  0  0  0  0  0
   43.5714   33.7953   40.9897 H   0  0  0  0  0  0  0  0  0  0  0  0
   45.6496   34.3292   39.6882 H   0  0  0  0  0  0  0  0  0  0  0  0
   48.7389   33.8912   40.6315 H   0  0  0  0  0  0  0  0  0  0  0  0
   47.9549   35.2608   39.7942 H   0  0  0  0  0  0  0  0  0  0  0  0
   48.7602   35.5735   42.7394 H   0  0  0  0  0  0  0  0  0  0  0  0
   50.0226   35.7168   41.4695 H   0  0  0  0  0  0  0  0  0  0  0  0
   48.6176   36.8360   41.4695 H   0  0  0  0  0  0  0  0  0  0  0  0
   45.3433   27.4138   45.8697 H   0  0  0  0  0  0  0  0  0  0  0  0
   44.4103   25.2674   47.6154 H   0  0  0  0  0  0  0  0  0  0  0  0
   43.9826   26.2524   48.7371 H   0  0  0  0  0  0  0  0  0  0  0  0
   42.1852   27.2789   46.5406 H   0  0  0  0  0  0  0  0  0  0  0  0
   40.8352   26.9102   45.7755 H   0  0  0  0  0  0  0  0  0  0  0  0
   41.1641   26.1115   44.1534 H   0  0  0  0  0  0  0  0  0  0  0  0
   40.5908   24.6472   46.7527 H   0  0  0  0  0  0  0  0  0  0  0  0
   39.4183   24.9072   45.4513 H   0  0  0  0  0  0  0  0  0  0  0  0
   41.1202   23.9288   43.9384 H   0  0  0  0  0  0  0  0  0  0  0  0
   42.3340   23.2726   46.5386 H   0  0  0  0  0  0  0  0  0  0  0  0
   42.8946   22.7477   44.8757 H   0  0  0  0  0  0  0  0  0  0  0  0
   44.0606   24.6606   46.1227 H   0  0  0  0  0  0  0  0  0  0  0  0
   43.6293   24.7340   44.3170 H   0  0  0  0  0  0  0  0  0  0  0  0
  1  7  1  0
  1  6  1  0
  2  1  2  0
  3  2  1  0
  3  4  2  0
  4  5  1  0
  5  6  2  0
  5 18  1  0
  8  7  1  0
  8  9  2  0
 10 15  2  0
 11 12  2  0
 11 10  1  0
 12 13  1  0
 13 14  2  0
 14  8  1  0
 15 14  1  0
 16 12  1  0
 16 17  1  0
 19 18  1  0
 19 20  1  0
 21 19  1  0
 21 20  1  0
 22 21  1  0
 23 22  1  0
 23 24  1  0
 25 26  1  0
 25 24  1  0
 27 26  1  0
 27 22  1  0
  2 28  1  0
  3 29  1  0
 10 30  1  0
 11 31  1  0
 16 32  1  0
 16 33  1  0
 17 34  1  0
 17 35  1  0
 17 36  1  0
 19 37  1  6
 20 38  1  0
 20 39  1  0
 21 40  1  1
 23 41  1  0
 23 42  1  0
 24 43  1  0
 24 44  1  0
 25 45  1  0
 26 46  1  0
 26 47  1  0
 27 48  1  0
 27 49  1  0
M  ISO  8  28  14  29  14  30  14  31  14  32   8  33   8  34   8  35   8
M  ISO  8  36   8  37  13  38  13  39  13  40  13  41  13  42  13  43  13
M  ISO  6  44  13  45   5  46  13  47  13  48  13  49  13
M  END
>  <minimizedAffinity>  (1) 
-4.87735367

>  <minimizedRMSD>  (1) 
1.03350556

$$$$
