
     RDKit          3D

 40 43  0  0  1  0  0  0  0  0999 V2000
   46.8170   31.9270   45.6570 C   0  0  0  0  0  0  0  0  0  0  0  0
   47.4760   31.1910   44.6750 C   0  0  0  0  0  0  0  0  0  0  0  0
   47.3460   29.8010   44.7650 C   0  0  0  0  0  0  0  0  0  0  0  0
   46.6270   29.1700   45.7390 N   0  0  0  0  0  0  0  0  0  0  0  0
   46.0160   29.9610   46.6570 C   0  0  0  0  0  0  0  0  0  0  0  0
   46.1210   31.2750   46.5980 N   0  0  0  0  0  0  0  0  0  0  0  0
   46.9610   33.3090   45.5450 O   0  0  0  0  0  0  0  0  0  0  0  0
   45.8740   34.0030   44.9910 C   0  0  0  0  0  0  0  0  0  0  0  0
   45.0250   34.5310   45.7340 O   0  0  0  0  0  0  0  0  0  0  0  0
   44.5610   34.0090   41.5640 C   0  0  0  0  0  0  0  0  0  0  0  0
   45.7170   34.2960   40.8250 C   0  0  0  0  0  0  0  0  0  0  0  0
   46.9030   34.4770   41.5100 C   0  0  0  0  0  0  0  0  0  0  0  0
   46.9080   34.3720   42.8860 N   0  0  0  0  0  0  0  0  0  0  0  0
   45.7590   34.0920   43.5590 C   0  0  0  0  0  0  0  0  0  0  0  0
   44.6040   33.9130   42.9200 N   0  0  0  0  0  0  0  0  0  0  0  0
   48.1860   34.7870   40.8040 C   0  0  0  0  0  0  0  0  0  0  0  0
   48.9690   35.8360   41.6540 C   0  0  0  0  0  0  0  0  0  0  0  0
   45.0660   29.1560   47.9450 S   0  0  0  0  0  0  0  0  0  0  0  0
   45.1230   27.3550   47.6320 C   0  0  1  0  0  0  0  0  0  0  0  0
   44.4560   26.5610   48.7540 C   0  0  0  0  0  0  0  0  0  0  0  0
   43.8520   26.6220   47.4010 C   0  0  2  0  0  0  0  0  0  0  0  0
   43.9790   25.4870   46.4490 C   0  0  0  0  0  0  0  0  0  0  0  0
   44.9380   25.2630   45.5170 N   0  0  0  0  0  0  0  0  0  0  0  0
   44.6520   24.1440   44.9060 O   0  0  0  0  0  0  0  0  0  0  0  0
   43.5520   23.6240   45.3940 C   0  0  0  0  0  0  0  0  0  0  0  0
   43.1030   24.4430   46.3660 N   0  0  0  0  0  0  0  0  0  0  0  0
   48.0621   31.6727   43.8784 H   0  0  0  0  0  0  0  0  0  0  0  0
   47.8512   29.1820   44.0089 H   0  0  0  0  0  0  0  0  0  0  0  0
   43.6056   33.8593   41.0398 H   0  0  0  0  0  0  0  0  0  0  0  0
   45.6808   34.3750   39.7284 H   0  0  0  0  0  0  0  0  0  0  0  0
   48.7848   33.8702   40.7001 H   0  0  0  0  0  0  0  0  0  0  0  0
   47.9803   35.1881   39.8006 H   0  0  0  0  0  0  0  0  0  0  0  0
   48.8151   35.6298   42.7235 H   0  0  0  0  0  0  0  0  0  0  0  0
   50.0416   35.7715   41.4188 H   0  0  0  0  0  0  0  0  0  0  0  0
   48.6021   36.8460   41.4188 H   0  0  0  0  0  0  0  0  0  0  0  0
   46.0798   27.3756   47.0898 H   0  0  0  0  0  0  0  0  0  0  0  0
   44.9100   25.6263   49.1147 H   0  0  0  0  0  0  0  0  0  0  0  0
   44.1137   26.7847   49.7752 H   0  0  0  0  0  0  0  0  0  0  0  0
   42.8279   26.8582   47.0763 H   0  0  0  0  0  0  0  0  0  0  0  0
   43.0792   22.6858   45.0681 H   0  0  0  0  0  0  0  0  0  0  0  0
  1  6  2  0
  2  3  2  0
  2  1  1  0
  3  4  1  0
  4  5  2  0
  5 18  1  0
  6  5  1  0
  7  1  1  0
  8  7  1  0
  8  9  2  0
 10 15  2  0
 11 12  2  0
 11 10  1  0
 12 13  1  0
 13 14  2  0
 14  8  1  0
 15 14  1  0
 16 12  1  0
 16 17  1  0
 19 18  1  0
 19 20  1  0
 21 19  1  0
 21 20  1  0
 22 21  1  0
 23 22  2  0
 24 25  1  0
 24 23  1  0
 25 26  2  0
 26 22  1  0
  2 27  1  0
  3 28  1  0
 10 29  1  0
 11 30  1  0
 16 31  1  0
 16 32  1  0
 17 33  1  0
 17 34  1  0
 17 35  1  0
 19 36  1  6
 20 37  1  0
 20 38  1  0
 21 39  1  1
 25 40  1  0
M  ISO  8  27  14  28  14  29  14  30  14  31   8  32   8  33   8  34   8
M  ISO  6  35   8  36  13  37  13  38  13  39  13  40  14
M  END
>  <minimizedAffinity>  (1) 
-4.77449656

>  <minimizedRMSD>  (1) 
0.213484243

$$$$
