
     RDKit          3D

 33 36  0  0  0  0  0  0  0  0999 V2000
   44.7060   35.8350   45.1210 C   0  0  0  0  0  0  0  0  0  0  0  0
   44.1670   35.8200   43.8250 C   0  0  0  0  0  0  0  0  0  0  0  0
   44.3310   34.6720   43.0750 C   0  0  0  0  0  0  0  0  0  0  0  0
   44.9990   33.6040   43.6040 N   0  0  0  0  0  0  0  0  0  0  0  0
   45.5110   33.6540   44.8700 C   0  0  0  0  0  0  0  0  0  0  0  0
   45.3560   34.7650   45.6000 N   0  0  0  0  0  0  0  0  0  0  0  0
   43.8730   34.4320   41.7500 N   0  0  0  0  0  0  0  0  0  0  0  0
   44.6260   33.7760   40.8180 C   0  0  0  0  0  0  0  0  0  0  0  0
   43.9220   33.7020   39.6500 N   0  0  0  0  0  0  0  0  0  0  0  0
   42.7580   34.3100   39.8900 C   0  0  0  0  0  0  0  0  0  0  0  0
   41.6240   34.5770   39.1600 C   0  0  0  0  0  0  0  0  0  0  0  0
   40.5480   35.2290   39.6490 N   0  0  0  0  0  0  0  0  0  0  0  0
   40.5360   35.6690   40.9370 C   0  0  0  0  0  0  0  0  0  0  0  0
   41.6210   35.4270   41.6770 N   0  0  0  0  0  0  0  0  0  0  0  0
   42.6790   34.7810   41.1800 C   0  0  0  0  0  0  0  0  0  0  0  0
   41.5040   34.1770   37.8110 N   0  0  0  0  0  0  0  0  0  0  0  0
   46.2170   32.5070   45.4090 C   0  0  0  0  0  0  0  0  0  0  0  0
   47.1390   31.6900   44.7440 C   0  0  0  0  0  0  0  0  0  0  0  0
   47.5800   30.7210   45.5840 N   0  0  0  0  0  0  0  0  0  0  0  0
   46.9420   30.9360   46.7490 C   0  0  0  0  0  0  0  0  0  0  0  0
   46.1170   32.0120   46.6540 N   0  0  0  0  0  0  0  0  0  0  0  0
   45.2620   32.5620   47.6870 C   0  0  0  0  0  0  0  0  0  0  0  0
   44.3160   31.6230   48.1380 F   0  0  0  0  0  0  0  0  0  0  0  0
   44.5900   33.7110   47.2560 F   0  0  0  0  0  0  0  0  0  0  0  0
   46.0080   32.8740   48.8180 F   0  0  0  0  0  0  0  0  0  0  0  0
   44.5941   36.7316   45.7483 H   0  0  0  0  0  0  0  0  0  0  0  0
   43.6325   36.6923   43.4208 H   0  0  0  0  0  0  0  0  0  0  0  0
   45.6362   33.3725   40.9817 H   0  0  0  0  0  0  0  0  0  0  0  0
   39.6678   36.2023   41.3515 H   0  0  0  0  0  0  0  0  0  0  0  0
   42.2764   33.6728   37.3527 H   0  0  0  0  0  0  0  0  0  0  0  0
   40.6441   34.3894   37.2854 H   0  0  0  0  0  0  0  0  0  0  0  0
   47.4575   31.8151   43.6986 H   0  0  0  0  0  0  0  0  0  0  0  0
   47.0705   30.3246   47.6544 H   0  0  0  0  0  0  0  0  0  0  0  0
  1  6  2  0
  2  1  1  0
  3  4  1  0
  3  2  2  0
  4  5  2  0
  5 17  1  0
  5  6  1  0
  7  3  1  0
  8  7  1  0
  9 10  1  0
  9  8  2  0
 10 15  2  0
 11 12  2  0
 11 10  1  0
 12 13  1  0
 13 14  2  0
 15 14  1  0
 15  7  1  0
 16 11  1  0
 17 21  1  0
 18 17  2  0
 18 19  1  0
 19 20  2  0
 21 20  1  0
 21 22  1  0
 22 23  1  0
 22 25  1  0
 24 22  1  0
  1 26  1  0
  2 27  1  0
  8 28  1  0
 13 29  1  0
 16 30  1  0
 16 31  1  0
 18 32  1  0
 20 33  1  0
M  ISO  6  26  14  27  14  28  14  29  14  32  14  33  14
M  END
>  <minimizedAffinity>  (1) 
-6.4457469

>  <minimizedRMSD>  (1) 
1.33433151

$$$$
