
     RDKit          3D

 37 39  0  0  1  0  0  0  0  0999 V2000
   46.7830   32.0020   45.5860 C   0  0  0  0  0  0  0  0  0  0  0  0
   47.4310   31.2870   44.5840 C   0  0  0  0  0  0  0  0  0  0  0  0
   47.3160   29.9090   44.6580 C   0  0  0  0  0  0  0  0  0  0  0  0
   46.6290   29.2360   45.6230 N   0  0  0  0  0  0  0  0  0  0  0  0
   46.0160   30.0100   46.5800 C   0  0  0  0  0  0  0  0  0  0  0  0
   46.1060   31.3320   46.5380 N   0  0  0  0  0  0  0  0  0  0  0  0
   46.8960   33.3940   45.5160 O   0  0  0  0  0  0  0  0  0  0  0  0
   45.8140   34.0720   44.9350 C   0  0  0  0  0  0  0  0  0  0  0  0
   44.9590   34.6200   45.6560 O   0  0  0  0  0  0  0  0  0  0  0  0
   44.5070   33.9700   41.5080 C   0  0  0  0  0  0  0  0  0  0  0  0
   45.6650   34.2610   40.7710 C   0  0  0  0  0  0  0  0  0  0  0  0
   46.8470   34.4820   41.4500 C   0  0  0  0  0  0  0  0  0  0  0  0
   46.8680   34.4120   42.8390 N   0  0  0  0  0  0  0  0  0  0  0  0
   45.7060   34.1250   43.4970 C   0  0  0  0  0  0  0  0  0  0  0  0
   44.5550   33.9080   42.8620 N   0  0  0  0  0  0  0  0  0  0  0  0
   48.1390   34.8000   40.7500 C   0  0  0  0  0  0  0  0  0  0  0  0
   48.9380   35.8090   41.6490 C   0  0  0  0  0  0  0  0  0  0  0  0
   45.1070   29.1780   47.8620 S   0  0  0  0  0  0  0  0  0  0  0  0
   45.4210   27.3900   47.7070 C   0  0  1  0  0  0  0  0  0  0  0  0
   44.3670   26.5630   48.4440 C   0  0  0  0  0  0  0  0  0  0  0  0
   44.4920   26.5420   46.9480 C   0  0  1  0  0  0  0  0  0  0  0  0
   43.3600   27.0680   46.1740 C   0  0  0  0  0  0  0  0  0  0  0  0
   42.2600   26.5780   46.3080 O   0  0  0  0  0  0  0  0  0  0  0  0
   47.9986   31.7846   43.7838 H   0  0  0  0  0  0  0  0  0  0  0  0
   47.8164   29.3137   43.8800 H   0  0  0  0  0  0  0  0  0  0  0  0
   43.5558   33.7913   40.9852 H   0  0  0  0  0  0  0  0  0  0  0  0
   45.6319   34.3121   39.6727 H   0  0  0  0  0  0  0  0  0  0  0  0
   48.7246   33.8795   40.6096 H   0  0  0  0  0  0  0  0  0  0  0  0
   47.9415   35.2403   39.7615 H   0  0  0  0  0  0  0  0  0  0  0  0
   48.7559   35.5791   42.7092 H   0  0  0  0  0  0  0  0  0  0  0  0
   50.0131   35.7199   41.4339 H   0  0  0  0  0  0  0  0  0  0  0  0
   48.6048   36.8350   41.4339 H   0  0  0  0  0  0  0  0  0  0  0  0
   46.5158   27.4902   47.6701 H   0  0  0  0  0  0  0  0  0  0  0  0
   44.6645   25.6867   49.0386 H   0  0  0  0  0  0  0  0  0  0  0  0
   43.5638   26.7707   49.1662 H   0  0  0  0  0  0  0  0  0  0  0  0
   44.6678   25.7889   46.1657 H   0  0  0  0  0  0  0  0  0  0  0  0
   43.5103   27.9040   45.4750 H   0  0  0  0  0  0  0  0  0  0  0  0
  1  6  2  0
  2  3  2  0
  2  1  1  0
  3  4  1  0
  4  5  2  0
  5 18  1  0
  6  5  1  0
  7  1  1  0
  8  7  1  0
  8  9  2  0
 10 15  2  0
 11 12  2  0
 11 10  1  0
 12 13  1  0
 13 14  2  0
 14  8  1  0
 15 14  1  0
 16 12  1  0
 16 17  1  0
 19 18  1  0
 19 20  1  0
 21 19  1  0
 21 20  1  0
 22 23  2  0
 22 21  1  0
  2 24  1  0
  3 25  1  0
 10 26  1  0
 11 27  1  0
 16 28  1  0
 16 29  1  0
 17 30  1  0
 17 31  1  0
 17 32  1  0
 19 33  1  1
 20 34  1  0
 20 35  1  0
 21 36  1  6
 22 37  1  0
M  ISO  8  24  14  25  14  26  14  27  14  28   8  29   8  30   8  31   8
M  ISO  6  32   8  33  13  34  13  35  13  36  13  37   6
M  END
>  <minimizedAffinity>  (1) 
-4.61820316

>  <minimizedRMSD>  (1) 
0.49812147

$$$$
