
     RDKit          3D

 42 45  0  0  1  0  0  0  0  0999 V2000
   46.8160   31.9300   45.6570 C   0  0  0  0  0  0  0  0  0  0  0  0
   47.4820   31.1720   44.6710 C   0  0  0  0  0  0  0  0  0  0  0  0
   47.3440   29.7920   44.7770 C   0  0  0  0  0  0  0  0  0  0  0  0
   46.6260   29.1530   45.7440 N   0  0  0  0  0  0  0  0  0  0  0  0
   46.0070   29.9570   46.6660 C   0  0  0  0  0  0  0  0  0  0  0  0
   46.1150   31.2740   46.6010 N   0  0  0  0  0  0  0  0  0  0  0  0
   46.9570   33.2980   45.5480 O   0  0  0  0  0  0  0  0  0  0  0  0
   45.8780   33.9930   45.0040 C   0  0  0  0  0  0  0  0  0  0  0  0
   45.0330   34.5190   45.7410 O   0  0  0  0  0  0  0  0  0  0  0  0
   44.5670   34.0130   41.5620 C   0  0  0  0  0  0  0  0  0  0  0  0
   45.7140   34.2990   40.8310 C   0  0  0  0  0  0  0  0  0  0  0  0
   46.9070   34.4790   41.5110 C   0  0  0  0  0  0  0  0  0  0  0  0
   46.9260   34.3710   42.8950 N   0  0  0  0  0  0  0  0  0  0  0  0
   45.7630   34.0870   43.5630 C   0  0  0  0  0  0  0  0  0  0  0  0
   44.6100   33.9110   42.9230 N   0  0  0  0  0  0  0  0  0  0  0  0
   48.1950   34.7910   40.8110 C   0  0  0  0  0  0  0  0  0  0  0  0
   48.9730   35.8380   41.6510 C   0  0  0  0  0  0  0  0  0  0  0  0
   45.0550   29.1580   47.9530 S   0  0  0  0  0  0  0  0  0  0  0  0
   45.1220   27.3660   47.6570 C   0  0  1  0  0  0  0  0  0  0  0  0
   44.4580   26.5410   48.7410 C   0  0  0  0  0  0  0  0  0  0  0  0
   43.8620   26.6190   47.3930 C   0  0  2  0  0  0  0  0  0  0  0  0
   44.0160   25.5660   46.4060 N   0  0  0  0  0  0  0  0  0  0  0  0
   43.2220   24.4890   46.4200 N   0  0  0  0  0  0  0  0  0  0  0  0
   43.5690   23.6640   45.4030 C   0  0  0  0  0  0  0  0  0  0  0  0
   44.6210   24.2290   44.7100 C   0  0  0  0  0  0  0  0  0  0  0  0
   44.8710   25.4260   45.3750 C   0  0  0  0  0  0  0  0  0  0  0  0
   48.0721   31.6418   43.8704 H   0  0  0  0  0  0  0  0  0  0  0  0
   47.8517   29.1701   44.0250 H   0  0  0  0  0  0  0  0  0  0  0  0
   43.6115   33.8668   41.0370 H   0  0  0  0  0  0  0  0  0  0  0  0
   45.6750   34.3807   39.7347 H   0  0  0  0  0  0  0  0  0  0  0  0
   48.7951   33.8744   40.7130 H   0  0  0  0  0  0  0  0  0  0  0  0
   47.9901   35.1913   39.8071 H   0  0  0  0  0  0  0  0  0  0  0  0
   48.8220   35.6347   42.7215 H   0  0  0  0  0  0  0  0  0  0  0  0
   50.0452   35.7751   41.4136 H   0  0  0  0  0  0  0  0  0  0  0  0
   48.6034   36.8465   41.4136 H   0  0  0  0  0  0  0  0  0  0  0  0
   46.0930   27.4103   47.1421 H   0  0  0  0  0  0  0  0  0  0  0  0
   44.9235   25.6053   49.0843 H   0  0  0  0  0  0  0  0  0  0  0  0
   44.1027   26.7377   49.7633 H   0  0  0  0  0  0  0  0  0  0  0  0
   42.8287   26.8296   47.0802 H   0  0  0  0  0  0  0  0  0  0  0  0
   43.0909   22.7016   45.1679 H   0  0  0  0  0  0  0  0  0  0  0  0
   45.1437   23.8245   43.8307 H   0  0  0  0  0  0  0  0  0  0  0  0
   45.6515   26.1504   45.0992 H   0  0  0  0  0  0  0  0  0  0  0  0
  1  6  2  0
  2  3  2  0
  2  1  1  0
  3  4  1  0
  4  5  2  0
  5 18  1  0
  6  5  1  0
  7  1  1  0
  8  7  1  0
  8  9  2  0
 10 15  2  0
 11 12  2  0
 11 10  1  0
 12 13  1  0
 13 14  2  0
 14  8  1  0
 15 14  1  0
 16 12  1  0
 16 17  1  0
 19 18  1  0
 19 20  1  0
 21 19  1  0
 21 20  1  0
 22 23  1  0
 22 21  1  0
 24 23  2  0
 25 26  2  0
 25 24  1  0
 26 22  1  0
  2 27  1  0
  3 28  1  0
 10 29  1  0
 11 30  1  0
 16 31  1  0
 16 32  1  0
 17 33  1  0
 17 34  1  0
 17 35  1  0
 19 36  1  6
 20 37  1  0
 20 38  1  0
 21 39  1  1
 24 40  1  0
 25 41  1  0
 26 42  1  0
M  ISO  8  27  14  28  14  29  14  30  14  31   8  32   8  33   8  34   8
M  ISO  8  35   8  36  13  37  13  38  13  39  13  40  14  41  14  42  14
M  END
>  <minimizedAffinity>  (1) 
-4.71024704

>  <minimizedRMSD>  (1) 
0.338073403

$$$$
