
     RDKit          3D

 42 44  0  0  1  0  0  0  0  0999 V2000
   48.2320   30.9270   48.8370 C   0  0  1  0  0  0  0  0  0  0  0  0
   45.4710   32.9420   47.4970 C   0  0  0  0  0  0  0  0  0  0  0  0
   45.7650   33.0900   46.1130 C   0  0  0  0  0  0  0  0  0  0  0  0
   46.9430   32.4690   45.6730 C   0  0  0  0  0  0  0  0  0  0  0  0
   47.7310   31.7740   46.5460 N   0  0  0  0  0  0  0  0  0  0  0  0
   47.3980   31.6710   47.8450 C   0  0  0  0  0  0  0  0  0  0  0  0
   46.2800   32.2530   48.2950 N   0  0  0  0  0  0  0  0  0  0  0  0
   44.9420   33.8150   45.2120 N   0  0  0  0  0  0  0  0  0  0  0  0
   44.5890   35.1790   45.3830 C   0  0  0  0  0  0  0  0  0  0  0  0
   44.3810   35.5780   46.6320 N   0  0  0  0  0  0  0  0  0  0  0  0
   44.5080   35.9430   44.1580 N   0  0  0  0  0  0  0  0  0  0  0  0
   44.1060   36.5440   46.8300 H   0  0  0  0  0  0  0  0  0  0  0  0
   48.6800   29.5980   48.2840 C   0  0  0  0  0  0  0  0  0  0  0  0
   49.4490   31.7650   49.2010 C   0  0  0  0  0  0  0  0  0  0  0  0
   50.1480   31.1450   50.3530 C   0  0  0  0  0  0  0  0  0  0  0  0
   49.9470   29.8020   50.6670 C   0  0  0  0  0  0  0  0  0  0  0  0
   50.5340   29.1550   51.7390 C   0  0  0  0  0  0  0  0  0  0  0  0
   51.3800   29.8670   52.5690 C   0  0  0  0  0  0  0  0  0  0  0  0
   51.6050   31.1990   52.2890 C   0  0  0  0  0  0  0  0  0  0  0  0
   52.4530   31.9340   53.0940 C   0  0  0  0  0  0  0  0  0  0  0  0
   52.7260   33.2680   52.8600 C   0  0  0  0  0  0  0  0  0  0  0  0
   52.1170   33.8910   51.7670 C   0  0  0  0  0  0  0  0  0  0  0  0
   51.2710   33.1180   50.9820 C   0  0  0  0  0  0  0  0  0  0  0  0
   50.9890   31.7900   51.2040 C   0  0  0  0  0  0  0  0  0  0  0  0
   47.6222   30.7380   49.7328 H   0  0  0  0  0  0  0  0  0  0  0  0
   44.5628   33.4036   47.9118 H   0  0  0  0  0  0  0  0  0  0  0  0
   47.2351   32.5423   44.6150 H   0  0  0  0  0  0  0  0  0  0  0  0
   44.5790   33.3214   44.3841 H   0  0  0  0  0  0  0  0  0  0  0  0
   44.2578   36.9417   44.1895 H   0  0  0  0  0  0  0  0  0  0  0  0
   44.7005   35.4885   43.2539 H   0  0  0  0  0  0  0  0  0  0  0  0
   48.9105   28.9143   49.1143 H   0  0  0  0  0  0  0  0  0  0  0  0
   47.8771   29.1681   47.6671 H   0  0  0  0  0  0  0  0  0  0  0  0
   49.5793   29.7419   47.6671 H   0  0  0  0  0  0  0  0  0  0  0  0
   50.1320   31.8133   48.3401 H   0  0  0  0  0  0  0  0  0  0  0  0
   49.1274   32.7818   49.4706 H   0  0  0  0  0  0  0  0  0  0  0  0
   49.2769   29.2179   50.0190 H   0  0  0  0  0  0  0  0  0  0  0  0
   50.3310   28.0906   51.9284 H   0  0  0  0  0  0  0  0  0  0  0  0
   51.8619   29.3833   53.4315 H   0  0  0  0  0  0  0  0  0  0  0  0
   52.9287   31.4389   53.9534 H   0  0  0  0  0  0  0  0  0  0  0  0
   53.4070   33.8269   53.5187 H   0  0  0  0  0  0  0  0  0  0  0  0
   52.3004   34.9511   51.5376 H   0  0  0  0  0  0  0  0  0  0  0  0
   50.7912   33.6035   50.1194 H   0  0  0  0  0  0  0  0  0  0  0  0
  1 14  1  0
  2  7  2  0
  3  2  1  0
  4  3  2  0
  4  5  1  0
  5  6  2  0
  6  7  1  0
  6  1  1  0
  8  9  1  0
  8  3  1  0
  9 10  2  0
 10 12  1  0
 11  9  1  0
 13  1  1  0
 14 15  1  0
 15 16  2  0
 15 24  1  0
 16 17  1  0
 17 18  2  0
 19 18  1  0
 19 20  2  0
 21 20  1  0
 22 21  2  0
 23 24  2  0
 23 22  1  0
 24 19  1  0
  1 25  1  1
  2 26  1  0
  4 27  1  0
  8 28  1  0
 11 29  1  0
 11 30  1  0
 13 31  1  0
 13 32  1  0
 13 33  1  0
 14 34  1  0
 14 35  1  0
 16 36  1  0
 17 37  1  0
 18 38  1  0
 20 39  1  0
 21 40  1  0
 22 41  1  0
 23 42  1  0
M  ISO  8  25   8  26  14  27  14  31   8  32   8  33   8  34   8  35   8
M  ISO  7  36  14  37  14  38  14  39  14  40  14  41  14  42  14
M  END
>  <minimizedAffinity>  (1) 
-6.50756264

>  <minimizedRMSD>  (1) 
0.9209885

$$$$
