
     RDKit          3D

 42 43  0  0  1  0  0  0  0  0999 V2000
   45.4900   32.9490   46.9660 C   0  0  0  0  0  0  0  0  0  0  0  0
   45.6950   33.0980   45.5620 C   0  0  0  0  0  0  0  0  0  0  0  0
   46.6550   32.2500   44.9870 C   0  0  0  0  0  0  0  0  0  0  0  0
   47.3230   31.3550   45.7740 N   0  0  0  0  0  0  0  0  0  0  0  0
   47.0810   31.2630   47.1040 C   0  0  0  0  0  0  0  0  0  0  0  0
   46.1840   32.0490   47.6650 N   0  0  0  0  0  0  0  0  0  0  0  0
   44.9700   34.0500   44.7870 N   0  0  0  0  0  0  0  0  0  0  0  0
   44.6570   35.3640   45.2000 C   0  0  0  0  0  0  0  0  0  0  0  0
   44.3450   35.4960   46.4630 N   0  0  0  0  0  0  0  0  0  0  0  0
   44.7310   36.3630   44.1640 N   0  0  0  0  0  0  0  0  0  0  0  0
   44.1390   36.4320   46.8670 H   0  0  0  0  0  0  0  0  0  0  0  0
   47.8330   30.2780   47.9340 C   0  0  1  0  0  0  0  0  0  0  0  0
   48.9950   29.6740   47.2220 C   0  0  0  0  0  0  0  0  0  0  0  0
   48.2540   30.9310   49.2440 C   0  0  0  0  0  0  0  0  0  0  0  0
   49.7360   30.8100   49.4970 C   0  0  0  0  0  0  0  0  0  0  0  0
   50.0320   30.0410   50.7650 C   0  0  0  0  0  0  0  0  0  0  0  0
   51.5390   30.0100   50.9400 C   0  0  0  0  0  0  0  0  0  0  0  0
   51.9250   31.4300   51.3630 C   0  0  0  0  0  0  0  0  0  0  0  0
   51.6680   32.2980   50.1440 C   0  0  0  0  0  0  0  0  0  0  0  0
   50.2510   32.2200   49.6790 C   0  0  0  0  0  0  0  0  0  0  0  0
   44.7514   33.5833   47.4780 H   0  0  0  0  0  0  0  0  0  0  0  0
   46.8680   32.3059   43.9093 H   0  0  0  0  0  0  0  0  0  0  0  0
   44.6495   33.7567   43.8531 H   0  0  0  0  0  0  0  0  0  0  0  0
   44.5179   37.3470   44.3813 H   0  0  0  0  0  0  0  0  0  0  0  0
   44.9970   36.0930   43.2063 H   0  0  0  0  0  0  0  0  0  0  0  0
   47.1555   29.4382   48.1477 H   0  0  0  0  0  0  0  0  0  0  0  0
   49.7204   29.2970   47.9580 H   0  0  0  0  0  0  0  0  0  0  0  0
   48.6468   28.8427   46.5913 H   0  0  0  0  0  0  0  0  0  0  0  0
   49.4753   30.4366   46.5913 H   0  0  0  0  0  0  0  0  0  0  0  0
   47.9877   31.9977   49.2085 H   0  0  0  0  0  0  0  0  0  0  0  0
   47.7310   30.4118   50.0606 H   0  0  0  0  0  0  0  0  0  0  0  0
   50.2085   30.2761   48.6593 H   0  0  0  0  0  0  0  0  0  0  0  0
   49.5644   30.5419   51.6255 H   0  0  0  0  0  0  0  0  0  0  0  0
   49.6289   29.0195   50.7010 H   0  0  0  0  0  0  0  0  0  0  0  0
   51.8219   29.2857   51.7181 H   0  0  0  0  0  0  0  0  0  0  0  0
   52.0531   29.7025   50.0174 H   0  0  0  0  0  0  0  0  0  0  0  0
   51.3050   31.7614   52.2090 H   0  0  0  0  0  0  0  0  0  0  0  0
   52.9728   31.4879   51.6928 H   0  0  0  0  0  0  0  0  0  0  0  0
   51.8993   33.3427   50.3990 H   0  0  0  0  0  0  0  0  0  0  0  0
   52.3094   31.9309   49.3292 H   0  0  0  0  0  0  0  0  0  0  0  0
   50.1752   32.7424   48.7139 H   0  0  0  0  0  0  0  0  0  0  0  0
   49.6345   32.6833   50.4634 H   0  0  0  0  0  0  0  0  0  0  0  0
  1  6  2  0
  2  1  1  0
  3  2  2  0
  3  4  1  0
  4  5  2  0
  5  6  1  0
  5 12  1  0
  7  8  1  0
  7  2  1  0
  8  9  2  0
  9 11  1  0
 10  8  1  0
 12 14  1  0
 13 12  1  0
 14 15  1  0
 15 20  1  0
 15 16  1  0
 16 17  1  0
 17 18  1  0
 19 18  1  0
 20 19  1  0
  1 21  1  0
  3 22  1  0
  7 23  1  0
 10 24  1  0
 10 25  1  0
 12 26  1  1
 13 27  1  0
 13 28  1  0
 13 29  1  0
 14 30  1  0
 14 31  1  0
 15 32  1  0
 16 33  1  0
 16 34  1  0
 17 35  1  0
 17 36  1  0
 18 37  1  0
 18 38  1  0
 19 39  1  0
 19 40  1  0
 20 41  1  0
 20 42  1  0
M  ISO  8  21  14  22  14  26   8  27   8  28   8  29   8  30   8  31   8
M  ISO  8  32  13  33  13  34  13  35  13  36  13  37  13  38  13  39  13
M  ISO  3  40  13  41  13  42  13
M  END
>  <minimizedAffinity>  (1) 
-5.62452555

>  <minimizedRMSD>  (1) 
1.47763681

$$$$
