
     RDKit          3D

 34 37  0  0  0  0  0  0  0  0999 V2000
   44.8060   35.5350   44.7880 C   0  0  0  0  0  0  0  0  0  0  0  0
   44.3290   35.3070   43.4740 C   0  0  0  0  0  0  0  0  0  0  0  0
   44.5460   34.0590   42.9210 C   0  0  0  0  0  0  0  0  0  0  0  0
   45.1950   33.0920   43.6220 N   0  0  0  0  0  0  0  0  0  0  0  0
   45.6450   33.3370   44.8840 C   0  0  0  0  0  0  0  0  0  0  0  0
   45.4490   34.5490   45.4560 N   0  0  0  0  0  0  0  0  0  0  0  0
   44.0580   33.8550   41.6010 N   0  0  0  0  0  0  0  0  0  0  0  0
   44.8870   33.8760   40.5300 C   0  0  0  0  0  0  0  0  0  0  0  0
   44.1090   33.6500   39.4430 N   0  0  0  0  0  0  0  0  0  0  0  0
   42.8290   33.4940   39.8290 C   0  0  0  0  0  0  0  0  0  0  0  0
   41.6600   33.2490   39.1350 C   0  0  0  0  0  0  0  0  0  0  0  0
   41.6310   33.1220   37.8940 O   0  0  0  0  0  0  0  0  0  0  0  0
   40.5540   33.1560   39.8960 N   0  0  0  0  0  0  0  0  0  0  0  0
   40.4810   33.2770   41.2340 C   0  0  0  0  0  0  0  0  0  0  0  0
   39.1870   33.1420   41.8510 N   0  0  0  0  0  0  0  0  0  0  0  0
   41.6320   33.5200   41.9280 N   0  0  0  0  0  0  0  0  0  0  0  0
   42.7900   33.6260   41.2200 C   0  0  0  0  0  0  0  0  0  0  0  0
   46.3340   32.3070   45.6270 C   0  0  0  0  0  0  0  0  0  0  0  0
   47.3370   31.4460   45.1700 C   0  0  0  0  0  0  0  0  0  0  0  0
   47.7370   30.6180   46.1610 N   0  0  0  0  0  0  0  0  0  0  0  0
   46.9910   30.9570   47.2340 C   0  0  0  0  0  0  0  0  0  0  0  0
   46.1440   31.9720   46.9250 N   0  0  0  0  0  0  0  0  0  0  0  0
   45.1760   32.6210   47.8100 C   0  0  0  0  0  0  0  0  0  0  0  0
   44.1230   31.7510   48.1460 F   0  0  0  0  0  0  0  0  0  0  0  0
   44.6550   33.7810   47.2480 F   0  0  0  0  0  0  0  0  0  0  0  0
   45.7630   32.9270   49.0220 F   0  0  0  0  0  0  0  0  0  0  0  0
   44.6538   36.5140   45.2659 H   0  0  0  0  0  0  0  0  0  0  0  0
   43.8046   36.0950   42.9136 H   0  0  0  0  0  0  0  0  0  0  0  0
   45.9742   34.0430   40.5402 H   0  0  0  0  0  0  0  0  0  0  0  0
   39.6692   32.9727   39.4015 H   0  0  0  0  0  0  0  0  0  0  0  0
   39.0922   33.2285   42.8730 H   0  0  0  0  0  0  0  0  0  0  0  0
   38.3562   32.9589   41.2704 H   0  0  0  0  0  0  0  0  0  0  0  0
   47.7433   31.4430   44.1478 H   0  0  0  0  0  0  0  0  0  0  0  0
   47.0599   30.4774   48.2215 H   0  0  0  0  0  0  0  0  0  0  0  0
  1  6  2  0
  2  1  1  0
  3  2  2  0
  3  4  1  0
  4  5  2  0
  5  6  1  0
  5 18  1  0
  7  3  1  0
  8  7  1  0
  9 10  1  0
  9  8  2  0
 10 17  2  0
 11 10  1  0
 11 13  1  0
 12 11  2  0
 13 14  1  0
 14 15  1  0
 14 16  2  0
 17  7  1  0
 17 16  1  0
 18 22  1  0
 19 18  2  0
 19 20  1  0
 20 21  2  0
 22 21  1  0
 22 23  1  0
 23 24  1  0
 23 26  1  0
 25 23  1  0
  1 27  1  0
  2 28  1  0
  8 29  1  0
 13 30  1  0
 15 31  1  0
 15 32  1  0
 19 33  1  0
 21 34  1  0
M  ISO  6  27  14  28  14  29  14  30   9  33  14  34  14
M  END
>  <minimizedAffinity>  (1) 
-6.14723253

>  <minimizedRMSD>  (1) 
0.479869455

$$$$
