
     RDKit          3D

 33 34  0  0  1  0  0  0  0  0999 V2000
   45.5340   33.0350   46.8280 C   0  0  0  0  0  0  0  0  0  0  0  0
   45.6740   33.1740   45.4290 C   0  0  0  0  0  0  0  0  0  0  0  0
   46.6250   32.3400   44.8620 C   0  0  0  0  0  0  0  0  0  0  0  0
   47.3450   31.4730   45.6270 N   0  0  0  0  0  0  0  0  0  0  0  0
   47.1640   31.3870   46.9720 C   0  0  0  0  0  0  0  0  0  0  0  0
   46.2720   32.1680   47.5000 N   0  0  0  0  0  0  0  0  0  0  0  0
   44.9100   34.0900   44.6620 N   0  0  0  0  0  0  0  0  0  0  0  0
   44.6280   35.4320   45.0790 C   0  0  0  0  0  0  0  0  0  0  0  0
   44.3600   35.5770   46.3730 N   0  0  0  0  0  0  0  0  0  0  0  0
   44.6750   36.4360   44.0400 N   0  0  0  0  0  0  0  0  0  0  0  0
   44.1130   36.4970   46.7560 H   0  0  0  0  0  0  0  0  0  0  0  0
   47.9810   30.4590   47.7820 C   0  0  1  0  0  0  0  0  0  0  0  0
   48.8260   29.5350   46.9150 C   0  0  0  0  0  0  0  0  0  0  0  0
   48.8150   31.1570   48.7680 C   0  0  0  0  0  0  0  0  0  0  0  0
   49.2200   30.5590   50.0370 C   0  0  0  0  0  0  0  0  0  0  0  0
   50.4440   31.1030   50.7690 C   0  0  0  0  0  0  0  0  0  0  0  0
   50.2430   29.6230   50.4310 C   0  0  0  0  0  0  0  0  0  0  0  0
   44.8018   33.6560   47.3649 H   0  0  0  0  0  0  0  0  0  0  0  0
   46.8010   32.3790   43.7769 H   0  0  0  0  0  0  0  0  0  0  0  0
   44.5373   33.7735   43.7555 H   0  0  0  0  0  0  0  0  0  0  0  0
   44.4829   37.4220   44.2676 H   0  0  0  0  0  0  0  0  0  0  0  0
   44.9006   36.1654   43.0721 H   0  0  0  0  0  0  0  0  0  0  0  0
   47.2663   29.8366   48.3405 H   0  0  0  0  0  0  0  0  0  0  0  0
   49.4279   28.8769   47.5589 H   0  0  0  0  0  0  0  0  0  0  0  0
   48.1674   28.9243   46.2799 H   0  0  0  0  0  0  0  0  0  0  0  0
   49.4930   30.1365   46.2799 H   0  0  0  0  0  0  0  0  0  0  0  0
   49.7472   31.4175   48.2453 H   0  0  0  0  0  0  0  0  0  0  0  0
   48.1335   31.9506   49.1080 H   0  0  0  0  0  0  0  0  0  0  0  0
   48.1297   30.4560   50.1397 H   0  0  0  0  0  0  0  0  0  0  0  0
   51.1956   31.7025   50.2346 H   0  0  0  0  0  0  0  0  0  0  0  0
   50.6348   31.6971   51.6749 H   0  0  0  0  0  0  0  0  0  0  0  0
   50.0413   28.9022   51.2370 H   0  0  0  0  0  0  0  0  0  0  0  0
   50.8407   28.8694   49.8973 H   0  0  0  0  0  0  0  0  0  0  0  0
  1  6  2  0
  2  1  1  0
  3  2  2  0
  3  4  1  0
  4  5  2  0
  5  6  1  0
  5 12  1  0
  7  8  1  0
  7  2  1  0
  8  9  2  0
  9 11  1  0
 10  8  1  0
 12 14  1  0
 13 12  1  0
 14 15  1  0
 15 17  1  0
 15 16  1  0
 17 16  1  0
  1 18  1  0
  3 19  1  0
  7 20  1  0
 10 21  1  0
 10 22  1  0
 12 23  1  1
 13 24  1  0
 13 25  1  0
 13 26  1  0
 14 27  1  0
 14 28  1  0
 15 29  1  0
 16 30  1  0
 16 31  1  0
 17 32  1  0
 17 33  1  0
M  ISO  8  18  14  19  14  23   8  24   8  25   8  26   8  27   8  28   8
M  ISO  5  29  13  30  13  31  13  32  13  33  13
M  END
>  <minimizedAffinity>  (1) 
-5.04200983

>  <minimizedRMSD>  (1) 
1.57547581

$$$$
