
     RDKit          3D

 33 34  0  0  1  0  0  0  0  0999 V2000
   45.4290   33.0010   47.3600 C   0  0  0  0  0  0  0  0  0  0  0  0
   45.7530   33.1730   45.9810 C   0  0  0  0  0  0  0  0  0  0  0  0
   46.9290   32.5500   45.5350 C   0  0  0  0  0  0  0  0  0  0  0  0
   47.6770   31.8330   46.4200 N   0  0  0  0  0  0  0  0  0  0  0  0
   47.3300   31.6980   47.7150 C   0  0  0  0  0  0  0  0  0  0  0  0
   46.2190   32.2780   48.1690 N   0  0  0  0  0  0  0  0  0  0  0  0
   44.9330   33.9340   45.1060 N   0  0  0  0  0  0  0  0  0  0  0  0
   44.5800   35.2980   45.3100 C   0  0  0  0  0  0  0  0  0  0  0  0
   44.3690   35.6560   46.5540 N   0  0  0  0  0  0  0  0  0  0  0  0
   44.5090   36.0850   44.1090 N   0  0  0  0  0  0  0  0  0  0  0  0
   44.0640   36.6080   46.7830 H   0  0  0  0  0  0  0  0  0  0  0  0
   48.1700   30.9110   48.6570 C   0  0  1  0  0  0  0  0  0  0  0  0
   48.7510   29.6870   48.0330 C   0  0  0  0  0  0  0  0  0  0  0  0
   49.2650   31.8020   49.2330 C   0  0  0  0  0  0  0  0  0  0  0  0
   49.9290   31.0300   50.2820 N   0  0  0  0  0  0  0  0  0  0  0  0
   49.7300   29.7670   50.6300 N   0  0  0  0  0  0  0  0  0  0  0  0
   50.5500   29.4400   51.6490 C   0  0  0  0  0  0  0  0  0  0  0  0
   51.3320   30.5450   51.9920 C   0  0  0  0  0  0  0  0  0  0  0  0
   50.9020   31.5250   51.1000 C   0  0  0  0  0  0  0  0  0  0  0  0
   44.5191   33.4675   47.7656 H   0  0  0  0  0  0  0  0  0  0  0  0
   47.2428   32.6394   44.4845 H   0  0  0  0  0  0  0  0  0  0  0  0
   44.5679   33.4659   44.2643 H   0  0  0  0  0  0  0  0  0  0  0  0
   44.2604   37.0832   44.1613 H   0  0  0  0  0  0  0  0  0  0  0  0
   44.7067   35.6507   43.1962 H   0  0  0  0  0  0  0  0  0  0  0  0
   47.5163   30.5583   49.4683 H   0  0  0  0  0  0  0  0  0  0  0  0
   49.0798   28.9942   48.8216 H   0  0  0  0  0  0  0  0  0  0  0  0
   47.9894   29.1970   47.4086 H   0  0  0  0  0  0  0  0  0  0  0  0
   49.6122   29.9672   47.4086 H   0  0  0  0  0  0  0  0  0  0  0  0
   49.9861   32.0719   48.4473 H   0  0  0  0  0  0  0  0  0  0  0  0
   48.8438   32.7349   49.6359 H   0  0  0  0  0  0  0  0  0  0  0  0
   50.5960   28.4544   52.1354 H   0  0  0  0  0  0  0  0  0  0  0  0
   52.1002   30.6227   52.7755 H   0  0  0  0  0  0  0  0  0  0  0  0
   51.2920   32.5528   51.0609 H   0  0  0  0  0  0  0  0  0  0  0  0
  1  6  2  0
  2  1  1  0
  3  2  2  0
  3  4  1  0
  4  5  2  0
  5  6  1  0
  5 12  1  0
  7  8  1  0
  7  2  1  0
  8  9  2  0
  9 11  1  0
 10  8  1  0
 12 14  1  0
 13 12  1  0
 14 15  1  0
 15 16  1  0
 15 19  1  0
 16 17  2  0
 17 18  1  0
 19 18  2  0
  1 20  1  0
  3 21  1  0
  7 22  1  0
 10 23  1  0
 10 24  1  0
 12 25  1  1
 13 26  1  0
 13 27  1  0
 13 28  1  0
 14 29  1  0
 14 30  1  0
 17 31  1  0
 18 32  1  0
 19 33  1  0
M  ISO  8  20  14  21  14  25   8  26   8  27   8  28   8  29   8  30   8
M  ISO  3  31  14  32  14  33  14
M  END
>  <minimizedAffinity>  (1) 
-5.29362822

>  <minimizedRMSD>  (1) 
0.40934208

$$$$
