
     RDKit          3D

 32 33  0  0  1  0  0  0  0  0999 V2000
   45.3990   32.9830   47.3610 C   0  0  0  0  0  0  0  0  0  0  0  0
   45.7420   33.1580   45.9920 C   0  0  0  0  0  0  0  0  0  0  0  0
   46.9160   32.5200   45.5660 C   0  0  0  0  0  0  0  0  0  0  0  0
   47.6500   31.7870   46.4540 N   0  0  0  0  0  0  0  0  0  0  0  0
   47.2740   31.6550   47.7490 C   0  0  0  0  0  0  0  0  0  0  0  0
   46.1660   32.2470   48.1860 N   0  0  0  0  0  0  0  0  0  0  0  0
   44.9410   33.9320   45.1110 N   0  0  0  0  0  0  0  0  0  0  0  0
   44.5990   35.2890   45.3050 C   0  0  0  0  0  0  0  0  0  0  0  0
   44.3590   35.6450   46.5500 N   0  0  0  0  0  0  0  0  0  0  0  0
   44.5630   36.0910   44.1160 N   0  0  0  0  0  0  0  0  0  0  0  0
   44.0750   36.6060   46.7830 H   0  0  0  0  0  0  0  0  0  0  0  0
   48.0940   30.8540   48.7000 C   0  0  1  0  0  0  0  0  0  0  0  0
   48.5690   29.5690   48.1070 C   0  0  0  0  0  0  0  0  0  0  0  0
   49.2520   31.7040   49.2060 C   0  0  0  0  0  0  0  0  0  0  0  0
   50.0070   31.0550   50.3090 C   0  0  0  0  0  0  0  0  0  0  0  0
   50.9300   31.8400   50.9720 C   0  0  0  0  0  0  0  0  0  0  0  0
   51.6570   30.6700   52.2780 S   0  0  0  0  0  0  0  0  0  0  0  0
   50.5050   29.3120   51.6190 C   0  0  0  0  0  0  0  0  0  0  0  0
   49.9560   29.8310   50.7920 N   0  0  0  0  0  0  0  0  0  0  0  0
   44.4882   33.4589   47.7534 H   0  0  0  0  0  0  0  0  0  0  0  0
   47.2444   32.6098   44.5200 H   0  0  0  0  0  0  0  0  0  0  0  0
   44.5814   33.4679   44.2647 H   0  0  0  0  0  0  0  0  0  0  0  0
   44.3216   37.0905   44.1761 H   0  0  0  0  0  0  0  0  0  0  0  0
   44.7785   35.6673   43.2023 H   0  0  0  0  0  0  0  0  0  0  0  0
   47.4561   30.5699   49.5499 H   0  0  0  0  0  0  0  0  0  0  0  0
   48.8285   28.8670   48.9131 H   0  0  0  0  0  0  0  0  0  0  0  0
   47.7718   29.1352   47.4855 H   0  0  0  0  0  0  0  0  0  0  0  0
   49.4567   29.7580   47.4855 H   0  0  0  0  0  0  0  0  0  0  0  0
   49.9424   31.8899   48.3701 H   0  0  0  0  0  0  0  0  0  0  0  0
   48.8273   32.6383   49.6018 H   0  0  0  0  0  0  0  0  0  0  0  0
   51.1838   32.8942   50.7869 H   0  0  0  0  0  0  0  0  0  0  0  0
   50.4022   28.2726   51.9641 H   0  0  0  0  0  0  0  0  0  0  0  0
  1  6  2  0
  2  1  1  0
  3  2  2  0
  3  4  1  0
  4  5  2  0
  5  6  1  0
  5 12  1  0
  7  8  1  0
  7  2  1  0
  8  9  2  0
  9 11  1  0
 10  8  1  0
 12 14  1  0
 13 12  1  0
 14 15  1  0
 15 19  1  0
 15 16  2  0
 16 17  1  0
 18 17  1  0
 19 18  2  0
  1 20  1  0
  3 21  1  0
  7 22  1  0
 10 23  1  0
 10 24  1  0
 12 25  1  1
 13 26  1  0
 13 27  1  0
 13 28  1  0
 14 29  1  0
 14 30  1  0
 16 31  1  0
 18 32  1  0
M  ISO  8  20  14  21  14  25   8  26   8  27   8  28   8  29   8  30   8
M  ISO  2  31  14  32  14
M  END
>  <minimizedAffinity>  (1) 
-5.46031761

>  <minimizedRMSD>  (1) 
0.305044383

$$$$
