
     RDKit          3D

 40 41  0  0  1  0  0  0  0  0999 V2000
   45.3400   33.0490   47.3010 C   0  0  0  0  0  0  0  0  0  0  0  0
   45.6880   33.2240   45.9500 C   0  0  0  0  0  0  0  0  0  0  0  0
   46.8780   32.5900   45.5360 C   0  0  0  0  0  0  0  0  0  0  0  0
   47.6080   31.8650   46.4350 N   0  0  0  0  0  0  0  0  0  0  0  0
   47.2110   31.7380   47.7250 C   0  0  0  0  0  0  0  0  0  0  0  0
   46.0970   32.3250   48.1340 N   0  0  0  0  0  0  0  0  0  0  0  0
   44.9050   33.9840   45.0440 N   0  0  0  0  0  0  0  0  0  0  0  0
   44.5970   35.3710   45.2070 C   0  0  0  0  0  0  0  0  0  0  0  0
   44.3610   35.7500   46.4540 N   0  0  0  0  0  0  0  0  0  0  0  0
   44.5850   36.1560   44.0040 N   0  0  0  0  0  0  0  0  0  0  0  0
   44.1360   36.7390   46.6620 H   0  0  0  0  0  0  0  0  0  0  0  0
   48.0630   30.9400   48.6600 C   0  0  1  0  0  0  0  0  0  0  0  0
   48.3380   29.5600   48.1820 C   0  0  0  0  0  0  0  0  0  0  0  0
   49.2640   31.7250   49.0740 C   0  0  0  0  0  0  0  0  0  0  0  0
   50.0530   31.2200   50.0960 N   0  0  0  0  0  0  0  0  0  0  0  0
   50.4090   29.8640   50.1810 C   0  0  0  0  0  0  0  0  0  0  0  0
   50.4430   29.4650   51.6600 C   0  0  0  0  0  0  0  0  0  0  0  0
   51.3420   30.3150   52.4000 N   0  0  0  0  0  0  0  0  0  0  0  0
   51.1080   31.7200   52.1630 C   0  0  0  0  0  0  0  0  0  0  0  0
   51.0760   32.0450   50.6710 C   0  0  0  0  0  0  0  0  0  0  0  0
   44.4219   33.5193   47.6831 H   0  0  0  0  0  0  0  0  0  0  0  0
   47.2170   32.6789   44.4933 H   0  0  0  0  0  0  0  0  0  0  0  0
   44.5328   33.5043   44.2120 H   0  0  0  0  0  0  0  0  0  0  0  0
   44.3708   37.1625   44.0480 H   0  0  0  0  0  0  0  0  0  0  0  0
   44.7906   35.7123   43.0975 H   0  0  0  0  0  0  0  0  0  0  0  0
   47.4867   30.7606   49.5796 H   0  0  0  0  0  0  0  0  0  0  0  0
   48.4710   28.8924   49.0460 H   0  0  0  0  0  0  0  0  0  0  0  0
   47.4924   29.2076   47.5731 H   0  0  0  0  0  0  0  0  0  0  0  0
   49.2541   29.5586   47.5731 H   0  0  0  0  0  0  0  0  0  0  0  0
   49.9064   31.8314   48.1874 H   0  0  0  0  0  0  0  0  0  0  0  0
   48.8528   32.6601   49.4820 H   0  0  0  0  0  0  0  0  0  0  0  0
   49.6674   29.2510   49.6478 H   0  0  0  0  0  0  0  0  0  0  0  0
   51.3961   29.7029   49.7232 H   0  0  0  0  0  0  0  0  0  0  0  0
   49.4311   29.5569   52.0815 H   0  0  0  0  0  0  0  0  0  0  0  0
   50.7973   28.4264   51.7365 H   0  0  0  0  0  0  0  0  0  0  0  0
   51.2203   30.1263   53.4052 H   0  0  0  0  0  0  0  0  0  0  0  0
   50.1427   32.0006   52.6095 H   0  0  0  0  0  0  0  0  0  0  0  0
   51.9335   32.2862   52.6190 H   0  0  0  0  0  0  0  0  0  0  0  0
   52.0496   31.8185   50.2118 H   0  0  0  0  0  0  0  0  0  0  0  0
   50.8690   33.1118   50.5008 H   0  0  0  0  0  0  0  0  0  0  0  0
  1  6  2  0
  2  1  1  0
  3  2  2  0
  3  4  1  0
  4  5  2  0
  5  6  1  0
  5 12  1  0
  7  8  1  0
  7  2  1  0
  8  9  2  0
  9 11  1  0
 10  8  1  0
 12 14  1  0
 13 12  1  0
 14 15  1  0
 15 16  1  0
 15 20  1  0
 16 17  1  0
 17 18  1  0
 19 18  1  0
 20 19  1  0
  1 21  1  0
  3 22  1  0
  7 23  1  0
 10 24  1  0
 10 25  1  0
 12 26  1  1
 13 27  1  0
 13 28  1  0
 13 29  1  0
 14 30  1  0
 14 31  1  0
 16 32  1  0
 16 33  1  0
 17 34  1  0
 17 35  1  0
 18 36  1  0
 19 37  1  0
 19 38  1  0
 20 39  1  0
 20 40  1  0
M  ISO  8  21  14  22  14  26   8  27   8  28   8  29   8  30   8  31   8
M  ISO  8  32  13  33  13  34  13  35  13  36   5  37  13  38  13  39  13
M  ISO  1  40  13
M  END
>  <minimizedAffinity>  (1) 
-5.38994694

>  <minimizedRMSD>  (1) 
0.367009103

$$$$
