
     RDKit          3D

 39 40  0  0  1  0  0  0  0  0999 V2000
   45.4500   32.9080   47.1190 C   0  0  0  0  0  0  0  0  0  0  0  0
   45.7060   33.0610   45.7270 C   0  0  0  0  0  0  0  0  0  0  0  0
   46.7100   32.2340   45.1980 C   0  0  0  0  0  0  0  0  0  0  0  0
   47.3630   31.3600   46.0160 N   0  0  0  0  0  0  0  0  0  0  0  0
   47.0750   31.2600   47.3300 C   0  0  0  0  0  0  0  0  0  0  0  0
   46.1390   32.0240   47.8530 N   0  0  0  0  0  0  0  0  0  0  0  0
   44.9910   33.9880   44.9210 N   0  0  0  0  0  0  0  0  0  0  0  0
   44.6540   35.3050   45.3030 C   0  0  0  0  0  0  0  0  0  0  0  0
   44.3290   35.4610   46.5630 N   0  0  0  0  0  0  0  0  0  0  0  0
   44.7190   36.2710   44.2420 N   0  0  0  0  0  0  0  0  0  0  0  0
   44.0760   36.3920   46.9410 H   0  0  0  0  0  0  0  0  0  0  0  0
   47.8100   30.2930   48.1920 C   0  0  1  0  0  0  0  0  0  0  0  0
   47.8560   28.9140   47.6270 C   0  0  0  0  0  0  0  0  0  0  0  0
   49.2140   30.8170   48.4600 C   0  0  0  0  0  0  0  0  0  0  0  0
   49.4560   31.0930   49.9030 C   0  0  0  0  0  0  0  0  0  0  0  0
   50.5300   32.1620   49.9910 C   0  0  0  0  0  0  0  0  0  0  0  0
   51.7080   31.5730   50.7020 C   0  0  0  0  0  0  0  0  0  0  0  0
   51.4690   30.1100   50.8590 C   0  0  0  0  0  0  0  0  0  0  0  0
   49.9870   29.9630   50.7090 C   0  0  0  0  0  0  0  0  0  0  0  0
   44.6755   33.5244   47.5988 H   0  0  0  0  0  0  0  0  0  0  0  0
   46.9682   32.2909   44.1302 H   0  0  0  0  0  0  0  0  0  0  0  0
   44.6956   33.6747   43.9853 H   0  0  0  0  0  0  0  0  0  0  0  0
   44.4896   37.2576   44.4290 H   0  0  0  0  0  0  0  0  0  0  0  0
   44.9950   35.9771   43.2942 H   0  0  0  0  0  0  0  0  0  0  0  0
   47.2540   30.2101   49.1375 H   0  0  0  0  0  0  0  0  0  0  0  0
   47.8804   28.1821   48.4478 H   0  0  0  0  0  0  0  0  0  0  0  0
   46.9631   28.7413   47.0082 H   0  0  0  0  0  0  0  0  0  0  0  0
   48.7584   28.8012   47.0082 H   0  0  0  0  0  0  0  0  0  0  0  0
   49.9416   30.0662   48.1180 H   0  0  0  0  0  0  0  0  0  0  0  0
   49.3249   31.7665   47.9158 H   0  0  0  0  0  0  0  0  0  0  0  0
   48.4676   31.3575   50.3070 H   0  0  0  0  0  0  0  0  0  0  0  0
   50.8244   32.4802   48.9800 H   0  0  0  0  0  0  0  0  0  0  0  0
   50.1531   33.0400   50.5361 H   0  0  0  0  0  0  0  0  0  0  0  0
   52.6215   31.7406   50.1126 H   0  0  0  0  0  0  0  0  0  0  0  0
   51.8352   32.0466   51.6867 H   0  0  0  0  0  0  0  0  0  0  0  0
   51.9984   29.5422   50.0797 H   0  0  0  0  0  0  0  0  0  0  0  0
   51.8359   29.7236   51.8213 H   0  0  0  0  0  0  0  0  0  0  0  0
   49.5156   29.9682   51.7029 H   0  0  0  0  0  0  0  0  0  0  0  0
   49.7623   29.0133   50.2015 H   0  0  0  0  0  0  0  0  0  0  0  0
  1  6  2  0
  2  1  1  0
  3  2  2  0
  3  4  1  0
  4  5  2  0
  5  6  1  0
  5 12  1  0
  7  8  1  0
  7  2  1  0
  8  9  2  0
  9 11  1  0
 10  8  1  0
 12 14  1  0
 13 12  1  0
 14 15  1  0
 15 16  1  0
 15 19  1  0
 16 17  1  0
 17 18  1  0
 19 18  1  0
  1 20  1  0
  3 21  1  0
  7 22  1  0
 10 23  1  0
 10 24  1  0
 12 25  1  1
 13 26  1  0
 13 27  1  0
 13 28  1  0
 14 29  1  0
 14 30  1  0
 15 31  1  0
 16 32  1  0
 16 33  1  0
 17 34  1  0
 17 35  1  0
 18 36  1  0
 18 37  1  0
 19 38  1  0
 19 39  1  0
M  ISO  8  20  14  21  14  25   8  26   8  27   8  28   8  29   8  30   8
M  ISO  8  31  13  32  13  33  13  34  13  35  13  36  13  37  13  38  13
M  ISO  1  39  13
M  END
>  <minimizedAffinity>  (1) 
-5.23159409

>  <minimizedRMSD>  (1) 
1.98152852

$$$$
