
     RDKit          3D

 27 27  0  0  1  0  0  0  0  0999 V2000
   45.6070   32.9640   46.7540 C   0  0  0  0  0  0  0  0  0  0  0  0
   45.6860   33.1310   45.3400 C   0  0  0  0  0  0  0  0  0  0  0  0
   46.5610   32.2680   44.6620 C   0  0  0  0  0  0  0  0  0  0  0  0
   47.2640   31.3480   45.3790 N   0  0  0  0  0  0  0  0  0  0  0  0
   47.1560   31.2270   46.7110 C   0  0  0  0  0  0  0  0  0  0  0  0
   46.3370   32.0270   47.3760 N   0  0  0  0  0  0  0  0  0  0  0  0
   44.9240   34.1140   44.6500 N   0  0  0  0  0  0  0  0  0  0  0  0
   44.6330   35.4060   45.1570 C   0  0  0  0  0  0  0  0  0  0  0  0
   44.3760   35.4660   46.4450 N   0  0  0  0  0  0  0  0  0  0  0  0
   44.6620   36.4670   44.1830 N   0  0  0  0  0  0  0  0  0  0  0  0
   44.1270   36.3550   46.8940 H   0  0  0  0  0  0  0  0  0  0  0  0
   47.9480   30.2070   47.4520 C   0  0  1  0  0  0  0  0  0  0  0  0
   48.9180   29.4750   46.5880 C   0  0  0  0  0  0  0  0  0  0  0  0
   48.6390   30.8560   48.6440 C   0  0  0  0  0  0  0  0  0  0  0  0
   47.7500   30.7200   49.7290 O   0  0  0  0  0  0  0  0  0  0  0  0
   44.9393   33.6115   47.3413 H   0  0  0  0  0  0  0  0  0  0  0  0
   46.6769   32.3336   43.5701 H   0  0  0  0  0  0  0  0  0  0  0  0
   44.5585   33.8708   43.7182 H   0  0  0  0  0  0  0  0  0  0  0  0
   44.4617   37.4356   44.4704 H   0  0  0  0  0  0  0  0  0  0  0  0
   44.8830   36.2570   43.1992 H   0  0  0  0  0  0  0  0  0  0  0  0
   47.2437   29.4437   47.8144 H   0  0  0  0  0  0  0  0  0  0  0  0
   49.6362   28.9330   47.2208 H   0  0  0  0  0  0  0  0  0  0  0  0
   48.3757   28.7591   45.9529 H   0  0  0  0  0  0  0  0  0  0  0  0
   49.4577   30.1929   45.9529 H   0  0  0  0  0  0  0  0  0  0  0  0
   49.5882   30.3441   48.8610 H   0  0  0  0  0  0  0  0  0  0  0  0
   48.8759   31.9119   48.4468 H   0  0  0  0  0  0  0  0  0  0  0  0
   48.2522   30.7968   50.5787 H   0  0  0  0  0  0  0  0  0  0  0  0
  1  6  2  0
  2  1  1  0
  3  2  2  0
  3  4  1  0
  4  5  2  0
  5  6  1  0
  5 12  1  0
  7  8  1  0
  7  2  1  0
  8  9  2  0
  9 11  1  0
 10  8  1  0
 12 14  1  0
 13 12  1  0
 14 15  1  0
  1 16  1  0
  3 17  1  0
  7 18  1  0
 10 19  1  0
 10 20  1  0
 12 21  1  1
 13 22  1  0
 13 23  1  0
 13 24  1  0
 14 25  1  0
 14 26  1  0
 15 27  1  0
M  ISO  8  16  14  17  14  21   8  22   8  23   8  24   8  25   8  26   8
M  ISO  1  27   3
M  END
>  <minimizedAffinity>  (1) 
-4.97138262

>  <minimizedRMSD>  (1) 
0.986239254

$$$$
