
     RDKit          3D

 28 28  0  0  1  0  0  0  0  0999 V2000
   45.6400   32.9470   46.7220 C   0  0  0  0  0  0  0  0  0  0  0  0
   45.6940   33.1250   45.3080 C   0  0  0  0  0  0  0  0  0  0  0  0
   46.5490   32.2650   44.6010 C   0  0  0  0  0  0  0  0  0  0  0  0
   47.2660   31.3260   45.2860 N   0  0  0  0  0  0  0  0  0  0  0  0
   47.1760   31.2020   46.6320 C   0  0  0  0  0  0  0  0  0  0  0  0
   46.3770   32.0040   47.3070 N   0  0  0  0  0  0  0  0  0  0  0  0
   44.9280   34.1190   44.6260 N   0  0  0  0  0  0  0  0  0  0  0  0
   44.6250   35.3990   45.1550 C   0  0  0  0  0  0  0  0  0  0  0  0
   44.3930   35.4480   46.4440 N   0  0  0  0  0  0  0  0  0  0  0  0
   44.6200   36.4600   44.1820 N   0  0  0  0  0  0  0  0  0  0  0  0
   44.1860   36.3520   46.9080 H   0  0  0  0  0  0  0  0  0  0  0  0
   47.9780   30.1710   47.3480 C   0  0  1  0  0  0  0  0  0  0  0  0
   48.8850   29.4060   46.4430 C   0  0  0  0  0  0  0  0  0  0  0  0
   48.7500   30.8260   48.4860 C   0  0  0  0  0  0  0  0  0  0  0  0
   47.8800   30.7080   49.6620 N   0  0  0  0  0  0  0  0  0  0  0  0
   44.9880   33.5902   47.3313 H   0  0  0  0  0  0  0  0  0  0  0  0
   46.6404   32.3465   43.5078 H   0  0  0  0  0  0  0  0  0  0  0  0
   44.5718   33.8906   43.6869 H   0  0  0  0  0  0  0  0  0  0  0  0
   44.4102   37.4253   44.4737 H   0  0  0  0  0  0  0  0  0  0  0  0
   44.8262   36.2538   43.1941 H   0  0  0  0  0  0  0  0  0  0  0  0
   47.2777   29.4302   47.7612 H   0  0  0  0  0  0  0  0  0  0  0  0
   49.5886   28.8125   47.0452 H   0  0  0  0  0  0  0  0  0  0  0  0
   48.2884   28.7342   45.8083 H   0  0  0  0  0  0  0  0  0  0  0  0
   49.4465   30.1073   45.8083 H   0  0  0  0  0  0  0  0  0  0  0  0
   49.7023   30.3026   48.6571 H   0  0  0  0  0  0  0  0  0  0  0  0
   48.9986   31.8741   48.2632 H   0  0  0  0  0  0  0  0  0  0  0  0
   48.4476   30.7850   50.5181 H   0  0  0  0  0  0  0  0  0  0  0  0
   47.1779   31.4615   49.6466 H   0  0  0  0  0  0  0  0  0  0  0  0
  1  6  2  0
  2  1  1  0
  3  4  1  0
  3  2  2  0
  4  5  2  0
  5  6  1  0
  5 12  1  0
  7  8  1  0
  7  2  1  0
  8  9  2  0
  9 11  1  0
 10  8  1  0
 12 14  1  0
 13 12  1  0
 14 15  1  0
  1 16  1  0
  3 17  1  0
  7 18  1  0
 10 19  1  0
 10 20  1  0
 12 21  1  1
 13 22  1  0
 13 23  1  0
 13 24  1  0
 14 25  1  0
 14 26  1  0
 15 27  1  0
 15 28  1  0
M  ISO  8  16  14  17  14  21   8  22   8  23   8  24   8  25   8  26   8
M  ISO  2  27   5  28   5
M  END
>  <minimizedAffinity>  (1) 
-4.94341183

>  <minimizedRMSD>  (1) 
1.04356837

$$$$
