
     RDKit          3D

 43 44  0  0  1  0  0  0  0  0999 V2000
   45.3100   33.0450   47.2740 C   0  0  0  0  0  0  0  0  0  0  0  0
   45.6820   33.2180   45.9190 C   0  0  0  0  0  0  0  0  0  0  0  0
   46.8640   32.5720   45.4900 C   0  0  0  0  0  0  0  0  0  0  0  0
   47.5710   31.8250   46.3990 N   0  0  0  0  0  0  0  0  0  0  0  0
   47.1700   31.6950   47.6750 C   0  0  0  0  0  0  0  0  0  0  0  0
   46.0590   32.3030   48.0780 N   0  0  0  0  0  0  0  0  0  0  0  0
   44.9180   33.9980   45.0170 N   0  0  0  0  0  0  0  0  0  0  0  0
   44.6130   35.3580   45.1670 C   0  0  0  0  0  0  0  0  0  0  0  0
   44.3630   35.7640   46.3770 N   0  0  0  0  0  0  0  0  0  0  0  0
   44.6050   36.1470   43.9610 N   0  0  0  0  0  0  0  0  0  0  0  0
   44.1060   36.7140   46.6270 H   0  0  0  0  0  0  0  0  0  0  0  0
   47.9560   30.8900   48.6340 C   0  0  1  0  0  0  0  0  0  0  0  0
   48.4450   29.6060   48.0490 C   0  0  0  0  0  0  0  0  0  0  0  0
   49.1210   31.7270   49.1800 C   0  0  0  0  0  0  0  0  0  0  0  0
   50.1070   30.8210   50.3430 S   0  0  0  0  0  0  0  0  0  0  0  0
   51.4680   31.6860   51.0940 C   0  0  0  0  0  0  0  0  0  0  0  0
   51.5290   31.6380   52.5950 C   0  0  0  0  0  0  0  0  0  0  0  0
   52.8780   32.2960   52.9420 C   0  0  0  0  0  0  0  0  0  0  0  0
   52.7760   33.7640   52.6890 C   0  0  0  0  0  0  0  0  0  0  0  0
   51.8090   34.1370   51.5970 C   0  0  0  0  0  0  0  0  0  0  0  0
   51.6440   33.0880   50.5530 C   0  0  0  0  0  0  0  0  0  0  0  0
   44.3993   33.5263   47.6599 H   0  0  0  0  0  0  0  0  0  0  0  0
   47.2098   32.6660   44.4500 H   0  0  0  0  0  0  0  0  0  0  0  0
   44.5547   33.5247   44.1774 H   0  0  0  0  0  0  0  0  0  0  0  0
   44.3881   37.1529   44.0051 H   0  0  0  0  0  0  0  0  0  0  0  0
   44.8161   35.7049   43.0550 H   0  0  0  0  0  0  0  0  0  0  0  0
   47.2860   30.6122   49.4610 H   0  0  0  0  0  0  0  0  0  0  0  0
   48.7097   28.9111   48.8596 H   0  0  0  0  0  0  0  0  0  0  0  0
   47.6534   29.1609   47.4283 H   0  0  0  0  0  0  0  0  0  0  0  0
   49.3321   29.8002   47.4283 H   0  0  0  0  0  0  0  0  0  0  0  0
   49.7594   32.0369   48.3395 H   0  0  0  0  0  0  0  0  0  0  0  0
   48.6969   32.5976   49.7017 H   0  0  0  0  0  0  0  0  0  0  0  0
   52.3429   31.0984   50.7790 H   0  0  0  0  0  0  0  0  0  0  0  0
   50.6949   32.2025   53.0372 H   0  0  0  0  0  0  0  0  0  0  0  0
   51.4481   30.6132   52.9865 H   0  0  0  0  0  0  0  0  0  0  0  0
   53.1141   32.1189   54.0017 H   0  0  0  0  0  0  0  0  0  0  0  0
   53.6758   31.8639   52.3200 H   0  0  0  0  0  0  0  0  0  0  0  0
   52.4507   34.2525   53.6194 H   0  0  0  0  0  0  0  0  0  0  0  0
   53.7705   34.0972   52.3575 H   0  0  0  0  0  0  0  0  0  0  0  0
   50.8270   34.3280   52.0543 H   0  0  0  0  0  0  0  0  0  0  0  0
   52.2210   35.0249   51.0952 H   0  0  0  0  0  0  0  0  0  0  0  0
   52.5372   33.0988   49.9110 H   0  0  0  0  0  0  0  0  0  0  0  0
   50.7197   33.3314   50.0086 H   0  0  0  0  0  0  0  0  0  0  0  0
  1  6  2  0
  2  1  1  0
  3  2  2  0
  3  4  1  0
  4  5  2  0
  5  6  1  0
  5 12  1  0
  7  8  1  0
  7  2  1  0
  8  9  2  0
  9 11  1  0
 10  8  1  0
 12 14  1  0
 13 12  1  0
 14 15  1  0
 15 16  1  0
 16 17  1  0
 17 18  1  0
 19 18  1  0
 20 19  1  0
 21 16  1  0
 21 20  1  0
  1 22  1  0
  3 23  1  0
  7 24  1  0
 10 25  1  0
 10 26  1  0
 12 27  1  1
 13 28  1  0
 13 29  1  0
 13 30  1  0
 14 31  1  0
 14 32  1  0
 16 33  1  0
 17 34  1  0
 17 35  1  0
 18 36  1  0
 18 37  1  0
 19 38  1  0
 19 39  1  0
 20 40  1  0
 20 41  1  0
 21 42  1  0
 21 43  1  0
M  ISO  8  22  14  23  14  27   8  28   8  29   8  30   8  31   8  32   8
M  ISO  8  33  13  34  13  35  13  36  13  37  13  38  13  39  13  40  13
M  ISO  3  41  13  42  13  43  13
M  END
>  <minimizedAffinity>  (1) 
-5.46661377

>  <minimizedRMSD>  (1) 
1.64486742

$$$$
