
     RDKit          3D

 32 33  0  0  1  0  0  0  0  0999 V2000
   45.3350   33.0220   47.2360 C   0  0  0  0  0  0  0  0  0  0  0  0
   45.7150   33.2060   45.8770 C   0  0  0  0  0  0  0  0  0  0  0  0
   46.8950   32.5550   45.4760 C   0  0  0  0  0  0  0  0  0  0  0  0
   47.5820   31.8110   46.3850 N   0  0  0  0  0  0  0  0  0  0  0  0
   47.1780   31.6700   47.6590 C   0  0  0  0  0  0  0  0  0  0  0  0
   46.0750   32.2700   48.0670 N   0  0  0  0  0  0  0  0  0  0  0  0
   44.9300   34.0020   45.0010 N   0  0  0  0  0  0  0  0  0  0  0  0
   44.6090   35.3610   45.1950 C   0  0  0  0  0  0  0  0  0  0  0  0
   44.3680   35.7220   46.4180 N   0  0  0  0  0  0  0  0  0  0  0  0
   44.5910   36.1650   44.0150 N   0  0  0  0  0  0  0  0  0  0  0  0
   44.0330   36.6500   46.6850 H   0  0  0  0  0  0  0  0  0  0  0  0
   47.9460   30.8510   48.6160 C   0  0  1  0  0  0  0  0  0  0  0  0
   48.4350   29.5590   48.0240 C   0  0  0  0  0  0  0  0  0  0  0  0
   49.0980   31.6210   49.1920 C   0  0  0  0  0  0  0  0  0  0  0  0
   50.0930   30.7330   50.3610 S   0  0  0  0  0  0  0  0  0  0  0  0
   51.0300   31.7530   51.4600 C   0  0  0  0  0  0  0  0  0  0  0  0
   51.5740   31.7630   52.7140 N   0  0  0  0  0  0  0  0  0  0  0  0
   52.0960   32.9310   52.9100 O   0  0  0  0  0  0  0  0  0  0  0  0
   51.9390   33.7160   51.8620 C   0  0  0  0  0  0  0  0  0  0  0  0
   51.2720   32.9860   50.9510 N   0  0  0  0  0  0  0  0  0  0  0  0
   44.4203   33.5036   47.6120 H   0  0  0  0  0  0  0  0  0  0  0  0
   47.2579   32.6459   44.4416 H   0  0  0  0  0  0  0  0  0  0  0  0
   44.5642   33.5479   44.1520 H   0  0  0  0  0  0  0  0  0  0  0  0
   44.3647   37.1678   44.0785 H   0  0  0  0  0  0  0  0  0  0  0  0
   44.8043   35.7421   43.1004 H   0  0  0  0  0  0  0  0  0  0  0  0
   47.2442   30.5952   49.4235 H   0  0  0  0  0  0  0  0  0  0  0  0
   48.6989   28.8617   48.8328 H   0  0  0  0  0  0  0  0  0  0  0  0
   47.6420   29.1169   47.4029 H   0  0  0  0  0  0  0  0  0  0  0  0
   49.3220   29.7527   47.4029 H   0  0  0  0  0  0  0  0  0  0  0  0
   49.7474   31.9337   48.3610 H   0  0  0  0  0  0  0  0  0  0  0  0
   48.6556   32.4623   49.7456 H   0  0  0  0  0  0  0  0  0  0  0  0
   52.2833   34.7553   51.7551 H   0  0  0  0  0  0  0  0  0  0  0  0
  1  6  2  0
  2  1  1  0
  3  2  2  0
  3  4  1  0
  4  5  2  0
  5  6  1  0
  5 12  1  0
  7  8  1  0
  7  2  1  0
  8  9  2  0
  9 11  1  0
 10  8  1  0
 12 14  1  0
 13 12  1  0
 14 15  1  0
 15 16  1  0
 16 17  2  0
 17 18  1  0
 19 18  1  0
 20 16  1  0
 20 19  2  0
  1 21  1  0
  3 22  1  0
  7 23  1  0
 10 24  1  0
 10 25  1  0
 12 26  1  1
 13 27  1  0
 13 28  1  0
 13 29  1  0
 14 30  1  0
 14 31  1  0
 19 32  1  0
M  ISO  8  21  14  22  14  26   8  27   8  28   8  29   8  30   8  31   8
M  ISO  1  32  14
M  END
>  <minimizedAffinity>  (1) 
-5.34537649

>  <minimizedRMSD>  (1) 
1.77935386

$$$$
