
     RDKit          3D

 36 38  0  0  0  0  0  0  0  0999 V2000
   44.5930   35.5860   45.4240 C   0  0  0  0  0  0  0  0  0  0  0  0
   44.4180   35.7240   44.0310 C   0  0  0  0  0  0  0  0  0  0  0  0
   44.8950   34.7120   43.2060 C   0  0  0  0  0  0  0  0  0  0  0  0
   45.5120   33.6260   43.7540 N   0  0  0  0  0  0  0  0  0  0  0  0
   45.6660   33.5190   45.0990 C   0  0  0  0  0  0  0  0  0  0  0  0
   45.2090   34.4940   45.9220 N   0  0  0  0  0  0  0  0  0  0  0  0
   46.3250   32.3570   45.6690 C   0  0  0  0  0  0  0  0  0  0  0  0
   47.2700   31.5290   45.0560 C   0  0  0  0  0  0  0  0  0  0  0  0
   47.6530   30.5490   45.9050 N   0  0  0  0  0  0  0  0  0  0  0  0
   46.9530   30.7580   47.0420 C   0  0  0  0  0  0  0  0  0  0  0  0
   46.1490   31.8560   46.8950 N   0  0  0  0  0  0  0  0  0  0  0  0
   45.2410   32.4080   47.8940 C   0  0  0  0  0  0  0  0  0  0  0  0
   44.3250   31.4570   48.3480 F   0  0  0  0  0  0  0  0  0  0  0  0
   44.5770   33.5340   47.4300 F   0  0  0  0  0  0  0  0  0  0  0  0
   45.9580   32.7610   49.0430 F   0  0  0  0  0  0  0  0  0  0  0  0
   44.7240   34.8330   41.7340 C   0  0  0  0  0  0  0  0  0  0  0  0
   43.2850   35.2110   41.5040 C   0  0  0  0  0  0  0  0  0  0  0  0
   42.8840   35.1210   40.0540 C   0  0  0  0  0  0  0  0  0  0  0  0
   43.0660   33.6450   39.6740 C   0  0  0  0  0  0  0  0  0  0  0  0
   44.5630   33.4070   39.6700 C   0  0  0  0  0  0  0  0  0  0  0  0
   45.1490   33.5900   41.0300 C   0  0  0  0  0  0  0  0  0  0  0  0
   44.2270   36.3691   46.1044 H   0  0  0  0  0  0  0  0  0  0  0  0
   43.9178   36.6082   43.6092 H   0  0  0  0  0  0  0  0  0  0  0  0
   47.6475   31.6565   44.0307 H   0  0  0  0  0  0  0  0  0  0  0  0
   47.0194   30.1390   47.9489 H   0  0  0  0  0  0  0  0  0  0  0  0
   45.3744   35.6105   41.3069 H   0  0  0  0  0  0  0  0  0  0  0  0
   42.6455   34.5333   42.0886 H   0  0  0  0  0  0  0  0  0  0  0  0
   43.1626   36.2581   41.8179 H   0  0  0  0  0  0  0  0  0  0  0  0
   41.8349   35.4255   39.9248 H   0  0  0  0  0  0  0  0  0  0  0  0
   43.4889   35.7853   39.4193 H   0  0  0  0  0  0  0  0  0  0  0  0
   42.5758   32.9948   40.4135 H   0  0  0  0  0  0  0  0  0  0  0  0
   42.6150   33.4176   38.6968 H   0  0  0  0  0  0  0  0  0  0  0  0
   44.7607   32.3795   39.3308 H   0  0  0  0  0  0  0  0  0  0  0  0
   45.0272   34.1389   38.9926 H   0  0  0  0  0  0  0  0  0  0  0  0
   44.8538   32.7292   41.6480 H   0  0  0  0  0  0  0  0  0  0  0  0
   46.2368   33.6718   40.8889 H   0  0  0  0  0  0  0  0  0  0  0  0
  1  6  2  0
  2  1  1  0
  3  4  1  0
  3  2  2  0
  4  5  2  0
  5  7  1  0
  5  6  1  0
  7 11  1  0
  8  7  2  0
  8  9  1  0
  9 10  2  0
 11 10  1  0
 11 12  1  0
 12 13  1  0
 12 15  1  0
 14 12  1  0
 16  3  1  0
 17 16  1  0
 18 17  1  0
 19 18  1  0
 20 19  1  0
 20 21  1  0
 21 16  1  0
  1 22  1  0
  2 23  1  0
  8 24  1  0
 10 25  1  0
 16 26  1  0
 17 27  1  0
 17 28  1  0
 18 29  1  0
 18 30  1  0
 19 31  1  0
 19 32  1  0
 20 33  1  0
 20 34  1  0
 21 35  1  0
 21 36  1  0
M  ISO  8  22  14  23  14  24  14  25  14  26  13  27  13  28  13  29  13
M  ISO  7  30  13  31  13  32  13  33  13  34  13  35  13  36  13
M  END
>  <minimizedAffinity>  (1) 
-5.84766817

>  <minimizedRMSD>  (1) 
1.08998895

$$$$
