
     RDKit          3D

 42 43  0  0  1  0  0  0  0  0999 V2000
   47.7520   29.7060   47.7860 C   0  0  1  0  0  0  0  0  0  0  0  0
   45.5750   32.5840   47.0260 C   0  0  0  0  0  0  0  0  0  0  0  0
   45.7810   32.8250   45.6500 C   0  0  0  0  0  0  0  0  0  0  0  0
   46.6840   31.9700   45.0120 C   0  0  0  0  0  0  0  0  0  0  0  0
   47.3070   30.9760   45.7110 N   0  0  0  0  0  0  0  0  0  0  0  0
   47.0630   30.7980   47.0400 C   0  0  0  0  0  0  0  0  0  0  0  0
   46.2090   31.5950   47.6780 N   0  0  0  0  0  0  0  0  0  0  0  0
   45.1020   33.8720   44.9800 N   0  0  0  0  0  0  0  0  0  0  0  0
   44.7250   35.1070   45.5530 C   0  0  0  0  0  0  0  0  0  0  0  0
   44.2930   35.0440   46.7780 N   0  0  0  0  0  0  0  0  0  0  0  0
   44.8640   36.2630   44.7220 N   0  0  0  0  0  0  0  0  0  0  0  0
   43.8830   35.8370   47.2810 H   0  0  0  0  0  0  0  0  0  0  0  0
   47.2870   28.3550   47.3900 C   0  0  0  0  0  0  0  0  0  0  0  0
   49.2630   29.8610   47.6070 C   0  0  0  0  0  0  0  0  0  0  0  0
   50.1780   29.6430   49.0920 S   0  0  0  0  0  0  0  0  0  0  0  0
   51.7520   32.9340   51.4010 N   0  0  0  0  0  0  0  0  0  0  0  0
   51.4630   31.7770   52.2070 C   0  0  0  0  0  0  0  0  0  0  0  0
   51.0330   30.5870   51.4210 C   0  0  0  0  0  0  0  0  0  0  0  0
   50.0080   30.8930   50.3390 C   0  0  0  0  0  0  0  0  0  0  0  0
   50.2000   32.2590   49.7350 C   0  0  0  0  0  0  0  0  0  0  0  0
   51.6300   32.6740   49.9830 C   0  0  0  0  0  0  0  0  0  0  0  0
   47.4962   29.7995   48.8518 H   0  0  0  0  0  0  0  0  0  0  0  0
   44.8743   33.2253   47.5808 H   0  0  0  0  0  0  0  0  0  0  0  0
   46.8942   32.0986   43.9400 H   0  0  0  0  0  0  0  0  0  0  0  0
   44.8625   33.7199   43.9899 H   0  0  0  0  0  0  0  0  0  0  0  0
   44.6052   37.1918   45.0843 H   0  0  0  0  0  0  0  0  0  0  0  0
   45.2229   36.1666   43.7614 H   0  0  0  0  0  0  0  0  0  0  0  0
   47.0819   27.7590   48.2915 H   0  0  0  0  0  0  0  0  0  0  0  0
   46.3678   28.4441   46.7924 H   0  0  0  0  0  0  0  0  0  0  0  0
   48.0663   27.8595   46.7924 H   0  0  0  0  0  0  0  0  0  0  0  0
   49.6044   29.1132   46.8761 H   0  0  0  0  0  0  0  0  0  0  0  0
   49.4419   30.8921   47.2683 H   0  0  0  0  0  0  0  0  0  0  0  0
   51.0947   33.6850   51.6556 H   0  0  0  0  0  0  0  0  0  0  0  0
   52.3701   31.5113   52.7697 H   0  0  0  0  0  0  0  0  0  0  0  0
   50.6230   32.0468   52.8639 H   0  0  0  0  0  0  0  0  0  0  0  0
   51.9215   30.1506   50.9413 H   0  0  0  0  0  0  0  0  0  0  0  0
   50.5499   29.8975   52.1290 H   0  0  0  0  0  0  0  0  0  0  0  0
   49.0004   30.8915   50.7804 H   0  0  0  0  0  0  0  0  0  0  0  0
   49.5141   32.9774   50.2078 H   0  0  0  0  0  0  0  0  0  0  0  0
   49.9872   32.2364   48.6560 H   0  0  0  0  0  0  0  0  0  0  0  0
   52.3152   31.8663   49.6861 H   0  0  0  0  0  0  0  0  0  0  0  0
   51.8885   33.5671   49.3952 H   0  0  0  0  0  0  0  0  0  0  0  0
  2  7  2  0
  3  2  1  0
  4  3  2  0
  4  5  1  0
  5  6  2  0
  6  7  1  0
  6  1  1  0
  8  9  1  0
  8  3  1  0
  9 10  2  0
 10 12  1  0
 11  9  1  0
 13  1  1  0
 14  1  1  0
 14 15  1  0
 15 19  1  0
 16 17  1  0
 18 17  1  0
 19 18  1  0
 20 21  1  0
 20 19  1  0
 21 16  1  0
  1 22  1  1
  2 23  1  0
  4 24  1  0
  8 25  1  0
 11 26  1  0
 11 27  1  0
 13 28  1  0
 13 29  1  0
 13 30  1  0
 14 31  1  0
 14 32  1  0
 16 33  1  0
 17 34  1  0
 17 35  1  0
 18 36  1  0
 18 37  1  0
 19 38  1  0
 20 39  1  0
 20 40  1  0
 21 41  1  0
 21 42  1  0
M  ISO  8  22   8  23  14  24  14  28   8  29   8  30   8  31   8  32   8
M  ISO  8  33   5  34  13  35  13  36  13  37  13  38  13  39  13  40  13
M  ISO  2  41  13  42  13
M  END
>  <minimizedAffinity>  (1) 
-5.0400629

>  <minimizedRMSD>  (1) 
1.65083265

$$$$
