
     RDKit          3D

 31 33  0  0  0  0  0  0  0  0999 V2000
   44.7890   35.7000   44.9890 C   0  0  0  0  0  0  0  0  0  0  0  0
   44.2380   35.5490   43.6920 C   0  0  0  0  0  0  0  0  0  0  0  0
   44.3920   34.3240   43.0540 C   0  0  0  0  0  0  0  0  0  0  0  0
   45.0560   33.3160   43.6730 N   0  0  0  0  0  0  0  0  0  0  0  0
   45.5810   33.4820   44.9260 C   0  0  0  0  0  0  0  0  0  0  0  0
   45.4370   34.6610   45.5510 N   0  0  0  0  0  0  0  0  0  0  0  0
   43.8330   34.1950   41.7570 N   0  0  0  0  0  0  0  0  0  0  0  0
   43.0860   35.2470   41.3670 C   0  0  0  0  0  0  0  0  0  0  0  0
   42.5120   35.1730   40.1000 C   0  0  0  0  0  0  0  0  0  0  0  0
   42.7630   34.0330   39.3690 C   0  0  0  0  0  0  0  0  0  0  0  0
   42.2380   33.8330   38.0640 N   0  0  0  0  0  0  0  0  0  0  0  0
   43.5190   33.0150   39.8130 N   0  0  0  0  0  0  0  0  0  0  0  0
   44.0800   33.0820   41.0480 C   0  0  0  0  0  0  0  0  0  0  0  0
   44.7940   32.1630   41.5150 O   0  0  0  0  0  0  0  0  0  0  0  0
   46.2840   32.3940   45.5700 C   0  0  0  0  0  0  0  0  0  0  0  0
   47.2510   31.5650   45.0180 C   0  0  0  0  0  0  0  0  0  0  0  0
   47.6740   30.6630   45.9410 N   0  0  0  0  0  0  0  0  0  0  0  0
   46.9670   30.9320   47.0680 C   0  0  0  0  0  0  0  0  0  0  0  0
   46.1240   31.9810   46.8460 N   0  0  0  0  0  0  0  0  0  0  0  0
   45.2040   32.5730   47.7980 C   0  0  0  0  0  0  0  0  0  0  0  0
   44.2110   31.6740   48.1960 F   0  0  0  0  0  0  0  0  0  0  0  0
   44.6020   33.7240   47.3030 F   0  0  0  0  0  0  0  0  0  0  0  0
   45.8670   32.8930   48.9740 F   0  0  0  0  0  0  0  0  0  0  0  0
   44.6889   36.6528   45.5296 H   0  0  0  0  0  0  0  0  0  0  0  0
   43.7037   36.3777   43.2043 H   0  0  0  0  0  0  0  0  0  0  0  0
   42.9369   36.1214   42.0176 H   0  0  0  0  0  0  0  0  0  0  0  0
   41.8877   35.9866   39.7021 H   0  0  0  0  0  0  0  0  0  0  0  0
   41.6447   34.5553   37.6313 H   0  0  0  0  0  0  0  0  0  0  0  0
   42.4507   32.9658   37.5506 H   0  0  0  0  0  0  0  0  0  0  0  0
   47.6207   31.6293   43.9840 H   0  0  0  0  0  0  0  0  0  0  0  0
   47.0600   30.3857   48.0182 H   0  0  0  0  0  0  0  0  0  0  0  0
  1  6  2  0
  2  1  1  0
  3  4  1  0
  3  2  2  0
  4  5  2  0
  5  6  1  0
  5 15  1  0
  7  3  1  0
  8  7  1  0
  9  8  2  0
 10 12  2  0
 10  9  1  0
 11 10  1  0
 12 13  1  0
 13 14  2  0
 13  7  1  0
 15 19  1  0
 16 15  2  0
 16 17  1  0
 17 18  2  0
 19 18  1  0
 19 20  1  0
 20 21  1  0
 20 23  1  0
 22 20  1  0
  1 24  1  0
  2 25  1  0
  8 26  1  0
  9 27  1  0
 11 28  1  0
 11 29  1  0
 16 30  1  0
 18 31  1  0
M  ISO  6  24  14  25  14  26  14  27  14  30  14  31  14
M  END
>  <minimizedAffinity>  (1) 
-5.71165037

>  <minimizedRMSD>  (1) 
0.323240042

$$$$
