
     RDKit          3D

 49 50  0  0  1  0  0  0  0  0999 V2000
   47.8530   30.4730   48.3250 C   0  0  1  0  0  0  0  0  0  0  0  0
   45.4120   32.9640   47.0960 C   0  0  0  0  0  0  0  0  0  0  0  0
   45.7400   33.1300   45.7410 C   0  0  0  0  0  0  0  0  0  0  0  0
   46.8180   32.3670   45.2730 C   0  0  0  0  0  0  0  0  0  0  0  0
   47.4850   31.5230   46.1030 N   0  0  0  0  0  0  0  0  0  0  0  0
   47.1140   31.4050   47.4190 C   0  0  0  0  0  0  0  0  0  0  0  0
   46.0890   32.1210   47.9020 N   0  0  0  0  0  0  0  0  0  0  0  0
   44.9970   34.0260   44.9340 N   0  0  0  0  0  0  0  0  0  0  0  0
   44.6490   35.3440   45.2570 C   0  0  0  0  0  0  0  0  0  0  0  0
   44.3300   35.5590   46.4880 N   0  0  0  0  0  0  0  0  0  0  0  0
   44.6950   36.2710   44.1800 N   0  0  0  0  0  0  0  0  0  0  0  0
   43.9350   36.4290   46.8530 H   0  0  0  0  0  0  0  0  0  0  0  0
   48.5470   29.3980   47.6030 C   0  0  0  0  0  0  0  0  0  0  0  0
   48.8150   31.2940   49.1890 C   0  0  0  0  0  0  0  0  0  0  0  0
   49.7010   30.3110   50.3690 S   0  0  0  0  0  0  0  0  0  0  0  0
   51.2910   30.9320   50.8980 C   0  0  1  0  0  0  0  0  0  0  0  0
   51.6700   30.0930   52.1340 C   0  0  0  0  0  0  0  0  0  0  0  0
   52.3930   30.6670   49.9080 C   0  0  0  0  0  0  0  0  0  0  0  0
   52.7260   31.9030   49.1160 C   0  0  0  0  0  0  0  0  0  0  0  0
   53.7060   31.6790   47.9930 C   0  0  0  0  0  0  0  0  0  0  0  0
   54.9530   31.2770   48.7860 C   0  0  0  0  0  0  0  0  0  0  0  0
   54.8610   32.0770   50.0780 C   0  0  0  0  0  0  0  0  0  0  0  0
   53.5720   32.8390   49.9950 C   0  0  0  0  0  0  0  0  0  0  0  0
   47.1232   29.9581   48.9670 H   0  0  0  0  0  0  0  0  0  0  0  0
   44.5743   33.5412   47.5144 H   0  0  0  0  0  0  0  0  0  0  0  0
   47.1280   32.4523   44.2210 H   0  0  0  0  0  0  0  0  0  0  0  0
   44.6813   33.6737   44.0191 H   0  0  0  0  0  0  0  0  0  0  0  0
   44.4524   37.2591   44.3403 H   0  0  0  0  0  0  0  0  0  0  0  0
   44.9710   35.9545   43.2395 H   0  0  0  0  0  0  0  0  0  0  0  0
   48.9966   28.7015   48.3260 H   0  0  0  0  0  0  0  0  0  0  0  0
   47.8274   28.8567   46.9712 H   0  0  0  0  0  0  0  0  0  0  0  0
   49.3366   29.8309   46.9712 H   0  0  0  0  0  0  0  0  0  0  0  0
   49.5426   31.7892   48.5291 H   0  0  0  0  0  0  0  0  0  0  0  0
   48.2111   32.0194   49.7538 H   0  0  0  0  0  0  0  0  0  0  0  0
   51.2011   32.0174   51.0524 H   0  0  0  0  0  0  0  0  0  0  0  0
   51.4178   30.6514   53.0476 H   0  0  0  0  0  0  0  0  0  0  0  0
   51.1129   29.1447   52.1183 H   0  0  0  0  0  0  0  0  0  0  0  0
   52.7499   29.8841   52.1183 H   0  0  0  0  0  0  0  0  0  0  0  0
   53.2908   30.3368   50.4511 H   0  0  0  0  0  0  0  0  0  0  0  0
   52.0523   29.8885   49.2095 H   0  0  0  0  0  0  0  0  0  0  0  0
   51.7483   32.2635   48.7638 H   0  0  0  0  0  0  0  0  0  0  0  0
   53.8735   32.5973   47.4111 H   0  0  0  0  0  0  0  0  0  0  0  0
   53.3827   30.9421   47.2430 H   0  0  0  0  0  0  0  0  0  0  0  0
   54.9479   30.1974   48.9966 H   0  0  0  0  0  0  0  0  0  0  0  0
   55.8822   31.4815   48.2340 H   0  0  0  0  0  0  0  0  0  0  0  0
   54.8520   31.4022   50.9467 H   0  0  0  0  0  0  0  0  0  0  0  0
   55.7224   32.7501   50.2000 H   0  0  0  0  0  0  0  0  0  0  0  0
   53.7140   33.8201   49.5183 H   0  0  0  0  0  0  0  0  0  0  0  0
   53.1212   33.0702   50.9714 H   0  0  0  0  0  0  0  0  0  0  0  0
  1 14  1  0
  2  7  2  0
  3  2  1  0
  4  3  2  0
  4  5  1  0
  5  6  2  0
  6  7  1  0
  6  1  1  0
  8  9  1  0
  8  3  1  0
  9 10  2  0
 10 12  1  0
 11  9  1  0
 13  1  1  0
 14 15  1  0
 15 16  1  0
 16 17  1  0
 18 16  1  0
 19 18  1  0
 19 23  1  0
 20 21  1  0
 20 19  1  0
 21 22  1  0
 23 22  1  0
  1 24  1  1
  2 25  1  0
  4 26  1  0
  8 27  1  0
 11 28  1  0
 11 29  1  0
 13 30  1  0
 13 31  1  0
 13 32  1  0
 14 33  1  0
 14 34  1  0
 16 35  1  1
 17 36  1  0
 17 37  1  0
 17 38  1  0
 18 39  1  0
 18 40  1  0
 19 41  1  0
 20 42  1  0
 20 43  1  0
 21 44  1  0
 21 45  1  0
 22 46  1  0
 22 47  1  0
 23 48  1  0
 23 49  1  0
M  ISO  8  24   8  25  14  26  14  30   8  31   8  32   8  33   8  34   8
M  ISO  8  35   8  36   8  37   8  38   8  39   8  40   8  41  13  42  13
M  ISO  7  43  13  44  13  45  13  46  13  47  13  48  13  49  13
M  END
>  <minimizedAffinity>  (1) 
-4.96881628

>  <minimizedRMSD>  (1) 
3.26716161

$$$$
