
     RDKit          3D

 45 46  0  0  1  0  0  0  0  0999 V2000
   47.6430   30.1530   47.9630 C   0  0  1  0  0  0  0  0  0  0  0  0
   45.4130   32.9140   46.9320 C   0  0  0  0  0  0  0  0  0  0  0  0
   45.6530   33.0790   45.5590 C   0  0  0  0  0  0  0  0  0  0  0  0
   46.6080   32.2070   45.0130 C   0  0  0  0  0  0  0  0  0  0  0  0
   47.2240   31.2900   45.7950 N   0  0  0  0  0  0  0  0  0  0  0  0
   46.9510   31.1780   47.1150 C   0  0  0  0  0  0  0  0  0  0  0  0
   46.0490   31.9880   47.6770 N   0  0  0  0  0  0  0  0  0  0  0  0
   44.9660   34.0610   44.8030 N   0  0  0  0  0  0  0  0  0  0  0  0
   44.6700   35.3620   45.2390 C   0  0  0  0  0  0  0  0  0  0  0  0
   44.3260   35.4880   46.4910 N   0  0  0  0  0  0  0  0  0  0  0  0
   44.7840   36.3950   44.2550 N   0  0  0  0  0  0  0  0  0  0  0  0
   43.9610   36.3390   46.9140 H   0  0  0  0  0  0  0  0  0  0  0  0
   47.4360   28.7840   47.4670 C   0  0  0  0  0  0  0  0  0  0  0  0
   49.1360   30.5080   48.0270 C   0  0  0  0  0  0  0  0  0  0  0  0
   49.5250   31.4870   49.4540 S   0  0  0  0  0  0  0  0  0  0  0  0
   51.0790   31.1740   50.2450 C   0  0  1  0  0  0  0  0  0  0  0  0
   51.1180   31.9130   51.5370 C   0  0  0  0  0  0  0  0  0  0  0  0
   51.4920   29.7720   50.3970 C   0  0  0  0  0  0  0  0  0  0  0  0
   50.6390   28.8240   50.9910 N   0  0  0  0  0  0  0  0  0  0  0  0
   50.4240   27.7420   50.0480 C   0  0  0  0  0  0  0  0  0  0  0  0
   51.5160   26.7750   49.8770 C   0  0  0  0  0  0  0  0  0  0  0  0
   52.6080   26.9570   50.6930 O   0  0  0  0  0  0  0  0  0  0  0  0
   52.2750   27.2550   52.0010 C   0  0  0  0  0  0  0  0  0  0  0  0
   51.1060   28.1640   52.1810 C   0  0  0  0  0  0  0  0  0  0  0  0
   47.2090   30.1720   48.9736 H   0  0  0  0  0  0  0  0  0  0  0  0
   44.6752   33.5675   47.4204 H   0  0  0  0  0  0  0  0  0  0  0  0
   46.8572   32.2693   43.9434 H   0  0  0  0  0  0  0  0  0  0  0  0
   44.6585   33.7986   43.8556 H   0  0  0  0  0  0  0  0  0  0  0  0
   44.5810   37.3725   44.5086 H   0  0  0  0  0  0  0  0  0  0  0  0
   45.0690   36.1610   43.2933 H   0  0  0  0  0  0  0  0  0  0  0  0
   47.3321   28.0969   48.3197 H   0  0  0  0  0  0  0  0  0  0  0  0
   46.5225   28.7499   46.8552 H   0  0  0  0  0  0  0  0  0  0  0  0
   48.2986   28.4813   46.8552 H   0  0  0  0  0  0  0  0  0  0  0  0
   49.7211   29.5773   48.0645 H   0  0  0  0  0  0  0  0  0  0  0  0
   49.3839   31.0978   47.1322 H   0  0  0  0  0  0  0  0  0  0  0  0
   51.8397   31.5492   49.5446 H   0  0  0  0  0  0  0  0  0  0  0  0
   51.0802   31.1963   52.3706 H   0  0  0  0  0  0  0  0  0  0  0  0
   52.0482   32.4970   51.5974 H   0  0  0  0  0  0  0  0  0  0  0  0
   50.2544   32.5917   51.5974 H   0  0  0  0  0  0  0  0  0  0  0  0
   51.7156   29.4009   49.3859 H   0  0  0  0  0  0  0  0  0  0  0  0
   52.3172   29.8409   51.1211 H   0  0  0  0  0  0  0  0  0  0  0  0
   49.4833   27.6501   49.4853 H   0  0  0  0  0  0  0  0  0  0  0  0
   51.4638   25.9573   49.1431 H   0  0  0  0  0  0  0  0  0  0  0  0
   52.8363   26.8478   52.8549 H   0  0  0  0  0  0  0  0  0  0  0  0
   50.6313   28.3197   53.1610 H   0  0  0  0  0  0  0  0  0  0  0  0
  1 14  1  0
  2  7  2  0
  3  2  1  0
  4  3  2  0
  4  5  1  0
  5  6  2  0
  6  7  1  0
  6  1  1  0
  8  9  1  0
  8  3  1  0
  9 10  2  0
 10 12  1  0
 11  9  1  0
 13  1  1  0
 14 15  1  0
 15 16  1  0
 16 18  1  0
 16 17  1  0
 18 19  1  0
 19 24  1  0
 20 19  1  0
 21 20  2  0
 21 22  1  0
 22 23  1  0
 23 24  2  0
  1 25  1  1
  2 26  1  0
  4 27  1  0
  8 28  1  0
 11 29  1  0
 11 30  1  0
 13 31  1  0
 13 32  1  0
 13 33  1  0
 14 34  1  0
 14 35  1  0
 16 36  1  6
 17 37  1  0
 17 38  1  0
 17 39  1  0
 18 40  1  0
 18 41  1  0
 20 42  1  0
 21 43  1  0
 23 44  1  0
 24 45  1  0
M  ISO  8  25   8  26  14  27  14  31   8  32   8  33   8  34   8  35   8
M  ISO  8  36   8  37   8  38   8  39   8  40   8  41   8  42  13  43  13
M  ISO  2  44  13  45  13
M  END
>  <minimizedAffinity>  (1) 
-5.04520988

>  <minimizedRMSD>  (1) 
1.70116043

$$$$
