
     RDKit          3D

 44 45  0  0  1  0  0  0  0  0999 V2000
   47.9190   30.5510   48.4500 C   0  0  1  0  0  0  0  0  0  0  0  0
   45.4220   32.9490   47.1690 C   0  0  0  0  0  0  0  0  0  0  0  0
   45.7390   33.1080   45.8130 C   0  0  0  0  0  0  0  0  0  0  0  0
   46.8370   32.3650   45.3480 C   0  0  0  0  0  0  0  0  0  0  0  0
   47.5210   31.5540   46.1980 N   0  0  0  0  0  0  0  0  0  0  0  0
   47.1550   31.4460   47.5140 C   0  0  0  0  0  0  0  0  0  0  0  0
   46.1140   32.1380   47.9970 N   0  0  0  0  0  0  0  0  0  0  0  0
   44.9790   33.9710   44.9910 N   0  0  0  0  0  0  0  0  0  0  0  0
   44.6460   35.3170   45.2760 C   0  0  0  0  0  0  0  0  0  0  0  0
   44.3300   35.5540   46.5040 N   0  0  0  0  0  0  0  0  0  0  0  0
   44.7020   36.2280   44.1880 N   0  0  0  0  0  0  0  0  0  0  0  0
   43.9270   36.4240   46.8500 H   0  0  0  0  0  0  0  0  0  0  0  0
   48.2690   29.2670   47.8310 C   0  0  0  0  0  0  0  0  0  0  0  0
   49.1560   31.3210   48.9400 C   0  0  0  0  0  0  0  0  0  0  0  0
   49.8910   30.8420   50.4090 S   0  0  0  0  0  0  0  0  0  0  0  0
   51.1390   29.6360   50.5280 C   0  0  1  0  0  0  0  0  0  0  0  0
   50.8260   28.6200   51.6110 C   0  0  0  0  0  0  0  0  0  0  0  0
   51.5220   28.9270   49.2740 C   0  0  0  0  0  0  0  0  0  0  0  0
   52.2690   29.6490   48.2630 C   0  0  0  0  0  0  0  0  0  0  0  0
   53.1620   30.6640   48.2150 C   0  0  0  0  0  0  0  0  0  0  0  0
   53.7950   31.1360   47.0940 C   0  0  0  0  0  0  0  0  0  0  0  0
   53.5170   30.5450   45.9150 N   0  0  0  0  0  0  0  0  0  0  0  0
   52.6380   29.5320   45.9100 C   0  0  0  0  0  0  0  0  0  0  0  0
   52.0270   29.0870   47.0340 N   0  0  0  0  0  0  0  0  0  0  0  0
   47.2850   30.2887   49.3098 H   0  0  0  0  0  0  0  0  0  0  0  0
   44.5695   33.5114   47.5776 H   0  0  0  0  0  0  0  0  0  0  0  0
   47.1438   32.4396   44.2943 H   0  0  0  0  0  0  0  0  0  0  0  0
   44.6350   33.5839   44.1006 H   0  0  0  0  0  0  0  0  0  0  0  0
   44.4703   37.2208   44.3351 H   0  0  0  0  0  0  0  0  0  0  0  0
   44.9744   35.8960   43.2518 H   0  0  0  0  0  0  0  0  0  0  0  0
   48.4715   28.5243   48.6167 H   0  0  0  0  0  0  0  0  0  0  0  0
   47.4324   28.9210   47.2062 H   0  0  0  0  0  0  0  0  0  0  0  0
   49.1655   29.3934   47.2062 H   0  0  0  0  0  0  0  0  0  0  0  0
   49.9207   31.2401   48.1535 H   0  0  0  0  0  0  0  0  0  0  0  0
   48.7770   32.3326   49.1475 H   0  0  0  0  0  0  0  0  0  0  0  0
   52.0237   30.2356   50.7882 H   0  0  0  0  0  0  0  0  0  0  0  0
   50.9683   29.0818   52.5992 H   0  0  0  0  0  0  0  0  0  0  0  0
   49.7831   28.2853   51.5094 H   0  0  0  0  0  0  0  0  0  0  0  0
   51.4998   27.7564   51.5094 H   0  0  0  0  0  0  0  0  0  0  0  0
   52.1304   28.0586   49.5667 H   0  0  0  0  0  0  0  0  0  0  0  0
   50.5597   28.7085   48.7879 H   0  0  0  0  0  0  0  0  0  0  0  0
   53.4037   31.1585   49.1674 H   0  0  0  0  0  0  0  0  0  0  0  0
   54.5079   31.9715   47.1551 H   0  0  0  0  0  0  0  0  0  0  0  0
   52.4035   29.0422   44.9534 H   0  0  0  0  0  0  0  0  0  0  0  0
  1 14  1  0
  2  7  2  0
  3  2  1  0
  4  3  2  0
  4  5  1  0
  5  6  2  0
  6  7  1  0
  6  1  1  0
  8  9  1  0
  8  3  1  0
  9 10  2  0
 10 12  1  0
 11  9  1  0
 13  1  1  0
 14 15  1  0
 15 16  1  0
 16 17  1  0
 18 16  1  0
 19 18  1  0
 20 19  2  0
 21 20  1  0
 22 21  2  0
 23 22  1  0
 23 24  2  0
 24 19  1  0
  1 25  1  1
  2 26  1  0
  4 27  1  0
  8 28  1  0
 11 29  1  0
 11 30  1  0
 13 31  1  0
 13 32  1  0
 13 33  1  0
 14 34  1  0
 14 35  1  0
 16 36  1  1
 17 37  1  0
 17 38  1  0
 17 39  1  0
 18 40  1  0
 18 41  1  0
 20 42  1  0
 21 43  1  0
 23 44  1  0
M  ISO  8  25   8  26  14  27  14  31   8  32   8  33   8  34   8  35   8
M  ISO  8  36   8  37   8  38   8  39   8  40   8  41   8  42  14  43  14
M  ISO  1  44  14
M  END
>  <minimizedAffinity>  (1) 
-4.82304621

>  <minimizedRMSD>  (1) 
1.83221376

$$$$
