
     RDKit          3D

 32 33  0  0  0  0  0  0  0  0999 V2000
   45.5980   35.2630   43.1120 C   0  0  0  0  0  0  0  0  0  0  0  0
   46.7290   35.0710   42.2870 C   0  0  0  0  0  0  0  0  0  0  0  0
   47.6440   34.0860   42.6700 C   0  0  0  0  0  0  0  0  0  0  0  0
   47.3970   33.3850   43.7960 N   0  0  0  0  0  0  0  0  0  0  0  0
   46.3070   33.5810   44.5790 C   0  0  0  0  0  0  0  0  0  0  0  0
   45.4140   34.5290   44.2180 N   0  0  0  0  0  0  0  0  0  0  0  0
   46.1390   32.7860   45.7500 N   0  0  0  0  0  0  0  0  0  0  0  0
   45.4340   33.3890   46.8550 C   0  0  0  0  0  0  0  0  0  0  0  0
   45.3090   32.5050   48.0470 C   0  0  0  0  0  0  0  0  0  0  0  0
   46.3680   31.4320   48.1190 C   0  0  0  0  0  0  0  0  0  0  0  0
   46.1770   30.5950   46.8540 C   0  0  0  0  0  0  0  0  0  0  0  0
   46.6980   31.4260   45.7240 C   0  0  0  0  0  0  0  0  0  0  0  0
   48.8260   33.8010   41.9150 N   0  0  0  0  0  0  0  0  0  0  0  0
   50.1120   34.1300   42.3950 C   0  0  0  0  0  0  0  0  0  0  0  0
   50.2150   35.2090   43.1060 N   0  0  0  0  0  0  0  0  0  0  0  0
   51.1920   33.2460   42.0590 N   0  0  0  0  0  0  0  0  0  0  0  0
   51.1680   35.4410   43.4370 H   0  0  0  0  0  0  0  0  0  0  0  0
   44.8556   36.0283   42.8417 H   0  0  0  0  0  0  0  0  0  0  0  0
   46.8833   35.6728   41.3793 H   0  0  0  0  0  0  0  0  0  0  0  0
   45.9737   34.2995   47.1544 H   0  0  0  0  0  0  0  0  0  0  0  0
   44.4124   33.5987   46.5051 H   0  0  0  0  0  0  0  0  0  0  0  0
   45.3833   33.1277   48.9507 H   0  0  0  0  0  0  0  0  0  0  0  0
   44.3379   31.9942   47.9686 H   0  0  0  0  0  0  0  0  0  0  0  0
   47.3719   31.8813   48.1363 H   0  0  0  0  0  0  0  0  0  0  0  0
   46.2766   30.8247   49.0316 H   0  0  0  0  0  0  0  0  0  0  0  0
   46.7432   29.6549   46.9292 H   0  0  0  0  0  0  0  0  0  0  0  0
   45.1202   30.3295   46.7036 H   0  0  0  0  0  0  0  0  0  0  0  0
   46.4253   30.9460   44.7725 H   0  0  0  0  0  0  0  0  0  0  0  0
   47.7906   31.5009   45.8271 H   0  0  0  0  0  0  0  0  0  0  0  0
   48.7358   33.3435   40.9966 H   0  0  0  0  0  0  0  0  0  0  0  0
   52.1461   33.4497   42.3894 H   0  0  0  0  0  0  0  0  0  0  0  0
   51.0128   32.4080   41.4875 H   0  0  0  0  0  0  0  0  0  0  0  0
  1  6  2  0
  2  3  2  0
  2  1  1  0
  3  4  1  0
  4  5  2  0
  5  7  1  0
  6  5  1  0
  7  8  1  0
  8  9  1  0
  9 10  1  0
 11 10  1  0
 12  7  1  0
 12 11  1  0
 13 14  1  0
 13  3  1  0
 14 15  2  0
 15 17  1  0
 16 14  1  0
  1 18  1  0
  2 19  1  0
  8 20  1  0
  8 21  1  0
  9 22  1  0
  9 23  1  0
 10 24  1  0
 10 25  1  0
 11 26  1  0
 11 27  1  0
 12 28  1  0
 12 29  1  0
 13 30  1  0
 16 31  1  0
 16 32  1  0
M  ISO  8  18  14  19  14  20  13  21  13  22  13  23  13  24  13  25  13
M  ISO  4  26  13  27  13  28  13  29  13
M  END
>  <minimizedAffinity>  (1) 
-5.83276367

>  <minimizedRMSD>  (1) 
0.368833035

$$$$
