
     RDKit          3D

 31 33  0  0  0  0  0  0  0  0999 V2000
   45.4080   34.8720   41.7570 C   0  0  0  0  0  0  0  0  0  0  0  0
   46.6890   34.5370   41.2890 C   0  0  0  0  0  0  0  0  0  0  0  0
   47.5830   34.0020   42.2250 C   0  0  0  0  0  0  0  0  0  0  0  0
   47.1750   33.8330   43.5190 N   0  0  0  0  0  0  0  0  0  0  0  0
   45.9260   34.1720   43.9230 C   0  0  0  0  0  0  0  0  0  0  0  0
   45.0550   34.6840   43.0520 N   0  0  0  0  0  0  0  0  0  0  0  0
   45.5570   33.9650   45.3210 C   0  0  0  0  0  0  0  0  0  0  0  0
   44.6820   34.7460   46.0460 C   0  0  0  0  0  0  0  0  0  0  0  0
   44.6260   34.2120   47.2800 N   0  0  0  0  0  0  0  0  0  0  0  0
   45.4240   33.1280   47.3760 C   0  0  0  0  0  0  0  0  0  0  0  0
   45.7130   32.2550   48.3890 C   0  0  0  0  0  0  0  0  0  0  0  0
   46.5930   31.1940   48.2200 C   0  0  0  0  0  0  0  0  0  0  0  0
   47.1930   31.0200   46.9850 C   0  0  0  0  0  0  0  0  0  0  0  0
   46.9060   31.9050   45.9470 C   0  0  0  0  0  0  0  0  0  0  0  0
   46.0260   32.9560   46.1350 C   0  0  0  0  0  0  0  0  0  0  0  0
   48.9240   33.6120   41.9010 N   0  0  0  0  0  0  0  0  0  0  0  0
   50.0550   34.1270   42.5780 C   0  0  0  0  0  0  0  0  0  0  0  0
   49.9590   35.3490   43.0100 N   0  0  0  0  0  0  0  0  0  0  0  0
   51.1820   33.2610   42.7160 N   0  0  0  0  0  0  0  0  0  0  0  0
   50.7880   35.7150   43.5210 H   0  0  0  0  0  0  0  0  0  0  0  0
   44.6741   35.2968   41.0563 H   0  0  0  0  0  0  0  0  0  0  0  0
   46.9764   34.6875   40.2379 H   0  0  0  0  0  0  0  0  0  0  0  0
   44.1370   35.6313   45.6865 H   0  0  0  0  0  0  0  0  0  0  0  0
   44.0500   34.5819   48.0497 H   0  0  0  0  0  0  0  0  0  0  0  0
   45.2331   32.3980   49.3684 H   0  0  0  0  0  0  0  0  0  0  0  0
   46.8087   30.5060   49.0507 H   0  0  0  0  0  0  0  0  0  0  0  0
   47.8931   30.1871   46.8233 H   0  0  0  0  0  0  0  0  0  0  0  0
   47.3849   31.7661   44.9665 H   0  0  0  0  0  0  0  0  0  0  0  0
   49.0703   32.9288   41.1442 H   0  0  0  0  0  0  0  0  0  0  0  0
   52.0286   33.5909   43.2011 H   0  0  0  0  0  0  0  0  0  0  0  0
   51.1483   32.3065   42.3304 H   0  0  0  0  0  0  0  0  0  0  0  0
  1  6  2  0
  2  1  1  0
  2  3  2  0
  3  4  1  0
  4  5  2  0
  5  7  1  0
  6  5  1  0
  7  8  2  0
  7 15  1  0
  8  9  1  0
  9 10  1  0
 10 11  2  0
 12 11  1  0
 13 12  2  0
 14 15  2  0
 14 13  1  0
 15 10  1  0
 16  3  1  0
 16 17  1  0
 17 19  1  0
 17 18  2  0
 18 20  1  0
  1 21  1  0
  2 22  1  0
  8 23  1  0
  9 24  1  0
 11 25  1  0
 12 26  1  0
 13 27  1  0
 14 28  1  0
 16 29  1  0
 19 30  1  0
 19 31  1  0
M  ISO  8  21  14  22  14  23  14  24   9  25  14  26  14  27  14  28  14
M  END
>  <minimizedAffinity>  (1) 
-6.92709684

>  <minimizedRMSD>  (1) 
1.6010102

$$$$
