
     RDKit          3D

 31 33  0  0  0  0  0  0  0  0999 V2000
   45.7920   34.5040   43.8470 C   0  0  0  0  0  0  0  0  0  0  0  0
   46.9620   34.5800   43.0350 C   0  0  0  0  0  0  0  0  0  0  0  0
   47.7780   33.4690   42.9960 C   0  0  0  0  0  0  0  0  0  0  0  0
   47.3860   32.4360   43.7270 N   0  0  0  0  0  0  0  0  0  0  0  0
   46.3200   32.2990   44.4970 C   0  0  0  0  0  0  0  0  0  0  0  0
   45.5070   33.3850   44.5440 N   0  0  0  0  0  0  0  0  0  0  0  0
   45.8360   31.2040   45.3170 C   0  0  0  0  0  0  0  0  0  0  0  0
   45.4620   30.0160   44.8080 N   0  0  0  0  0  0  0  0  0  0  0  0
   45.0140   28.9910   45.5250 C   0  0  0  0  0  0  0  0  0  0  0  0
   44.8880   29.0460   46.8570 N   0  0  0  0  0  0  0  0  0  0  0  0
   45.2370   30.1940   47.4590 C   0  0  0  0  0  0  0  0  0  0  0  0
   45.1150   30.2740   48.8300 C   0  0  0  0  0  0  0  0  0  0  0  0
   45.4570   31.4260   49.5050 C   0  0  0  0  0  0  0  0  0  0  0  0
   45.9240   32.4900   48.7420 C   0  0  0  0  0  0  0  0  0  0  0  0
   46.0250   32.3570   47.3780 C   0  0  0  0  0  0  0  0  0  0  0  0
   45.6970   31.2340   46.6820 C   0  0  0  0  0  0  0  0  0  0  0  0
   48.9710   33.3680   42.2340 N   0  0  0  0  0  0  0  0  0  0  0  0
   50.1650   34.0230   42.5810 C   0  0  0  0  0  0  0  0  0  0  0  0
   50.0440   35.1470   43.1820 N   0  0  0  0  0  0  0  0  0  0  0  0
   51.4000   33.3750   42.2310 N   0  0  0  0  0  0  0  0  0  0  0  0
   50.9260   35.6590   43.4140 H   0  0  0  0  0  0  0  0  0  0  0  0
   45.1140   35.3682   43.9055 H   0  0  0  0  0  0  0  0  0  0  0  0
   47.2037   35.4880   42.4630 H   0  0  0  0  0  0  0  0  0  0  0  0
   44.7362   28.0624   45.0049 H   0  0  0  0  0  0  0  0  0  0  0  0
   44.7396   29.4066   49.3928 H   0  0  0  0  0  0  0  0  0  0  0  0
   45.3645   31.5001   50.5986 H   0  0  0  0  0  0  0  0  0  0  0  0
   46.2114   33.4341   49.2279 H   0  0  0  0  0  0  0  0  0  0  0  0
   46.3978   33.2203   46.8073 H   0  0  0  0  0  0  0  0  0  0  0  0
   48.9613   32.7857   41.3844 H   0  0  0  0  0  0  0  0  0  0  0  0
   52.2992   33.8190   42.4660 H   0  0  0  0  0  0  0  0  0  0  0  0
   51.3855   32.4668   41.7453 H   0  0  0  0  0  0  0  0  0  0  0  0
  1  6  2  0
  2  1  1  0
  3  2  2  0
  3  4  1  0
  4  5  2  0
  5  6  1  0
  5  7  1  0
  7 16  1  0
  8  7  2  0
  8  9  1  0
  9 10  2  0
 10 11  1  0
 11 12  2  0
 12 13  1  0
 14 13  2  0
 15 14  1  0
 16 15  2  0
 16 11  1  0
 17 18  1  0
 17  3  1  0
 18 19  2  0
 19 21  1  0
 20 18  1  0
  1 22  1  0
  2 23  1  0
  9 24  1  0
 12 25  1  0
 13 26  1  0
 14 27  1  0
 15 28  1  0
 17 29  1  0
 20 30  1  0
 20 31  1  0
M  ISO  7  22  14  23  14  24  14  25  14  26  14  27  14  28  14
M  END
>  <minimizedAffinity>  (1) 
-6.49565601

>  <minimizedRMSD>  (1) 
2.20497489

$$$$
