
     RDKit          3D

 27 28  0  0  0  0  0  0  0  0999 V2000
   45.5810   35.1600   43.2270 C   0  0  0  0  0  0  0  0  0  0  0  0
   46.6890   34.9590   42.3660 C   0  0  0  0  0  0  0  0  0  0  0  0
   47.6550   34.0330   42.7520 C   0  0  0  0  0  0  0  0  0  0  0  0
   47.4900   33.3700   43.9280 N   0  0  0  0  0  0  0  0  0  0  0  0
   46.4280   33.5810   44.7250 C   0  0  0  0  0  0  0  0  0  0  0  0
   45.4910   34.4640   44.3740 N   0  0  0  0  0  0  0  0  0  0  0  0
   48.8130   33.7590   41.9510 N   0  0  0  0  0  0  0  0  0  0  0  0
   50.1200   34.1160   42.3830 C   0  0  0  0  0  0  0  0  0  0  0  0
   50.2350   35.1900   43.0860 N   0  0  0  0  0  0  0  0  0  0  0  0
   51.2050   33.2540   42.0020 N   0  0  0  0  0  0  0  0  0  0  0  0
   51.1940   35.4520   43.3860 H   0  0  0  0  0  0  0  0  0  0  0  0
   46.3000   32.8430   45.9760 C   0  0  0  0  0  0  0  0  0  0  0  0
   47.0810   31.7320   46.2120 C   0  0  0  0  0  0  0  0  0  0  0  0
   47.0060   30.9900   47.3760 C   0  0  0  0  0  0  0  0  0  0  0  0
   46.1020   31.4020   48.3320 C   0  0  0  0  0  0  0  0  0  0  0  0
   45.2940   32.5110   48.1460 C   0  0  0  0  0  0  0  0  0  0  0  0
   45.4050   33.2300   46.9520 C   0  0  0  0  0  0  0  0  0  0  0  0
   44.7971   35.8832   42.9576 H   0  0  0  0  0  0  0  0  0  0  0  0
   46.7829   35.5169   41.4226 H   0  0  0  0  0  0  0  0  0  0  0  0
   48.6949   33.2922   41.0405 H   0  0  0  0  0  0  0  0  0  0  0  0
   52.1671   33.4770   42.2946 H   0  0  0  0  0  0  0  0  0  0  0  0
   51.0205   32.4132   41.4364 H   0  0  0  0  0  0  0  0  0  0  0  0
   47.7977   31.4211   45.4376 H   0  0  0  0  0  0  0  0  0  0  0  0
   47.6420   30.1064   47.5332 H   0  0  0  0  0  0  0  0  0  0  0  0
   46.0202   30.8331   49.2699 H   0  0  0  0  0  0  0  0  0  0  0  0
   44.5788   32.8203   48.9224 H   0  0  0  0  0  0  0  0  0  0  0  0
   44.7715   34.1143   46.7890 H   0  0  0  0  0  0  0  0  0  0  0  0
  1  6  2  0
  2  3  2  0
  2  1  1  0
  3  4  1  0
  4  5  2  0
  5 12  1  0
  6  5  1  0
  7  8  1  0
  7  3  1  0
  8  9  2  0
  9 11  1  0
 10  8  1  0
 12 13  2  0
 12 17  1  0
 13 14  1  0
 14 15  2  0
 16 15  1  0
 17 16  2  0
  1 18  1  0
  2 19  1  0
  7 20  1  0
 10 21  1  0
 10 22  1  0
 13 23  1  0
 14 24  1  0
 15 25  1  0
 16 26  1  0
 17 27  1  0
M  ISO  7  18  14  19  14  23  14  24  14  25  14  26  14  27  14
M  END
>  <minimizedAffinity>  (1) 
-5.72842216

>  <minimizedRMSD>  (1) 
0.553576648

$$$$
