
     RDKit          3D

 26 27  0  0  0  0  0  0  0  0999 V2000
   45.5750   35.1790   43.2210 C   0  0  0  0  0  0  0  0  0  0  0  0
   46.6840   34.9710   42.3810 C   0  0  0  0  0  0  0  0  0  0  0  0
   47.6610   34.0430   42.7490 C   0  0  0  0  0  0  0  0  0  0  0  0
   47.4820   33.3810   43.9190 N   0  0  0  0  0  0  0  0  0  0  0  0
   46.4200   33.5850   44.7170 C   0  0  0  0  0  0  0  0  0  0  0  0
   45.4770   34.4800   44.3620 N   0  0  0  0  0  0  0  0  0  0  0  0
   48.8150   33.7660   41.9640 N   0  0  0  0  0  0  0  0  0  0  0  0
   50.1140   34.1200   42.3880 C   0  0  0  0  0  0  0  0  0  0  0  0
   50.2350   35.2050   43.0850 N   0  0  0  0  0  0  0  0  0  0  0  0
   51.1880   33.2540   42.0140 N   0  0  0  0  0  0  0  0  0  0  0  0
   51.1910   35.4550   43.4060 H   0  0  0  0  0  0  0  0  0  0  0  0
   46.2890   32.8390   45.9630 C   0  0  0  0  0  0  0  0  0  0  0  0
   47.0830   31.7300   46.1850 C   0  0  0  0  0  0  0  0  0  0  0  0
   46.9520   31.0310   47.3660 C   0  0  0  0  0  0  0  0  0  0  0  0
   46.0330   31.4470   48.3080 C   0  0  0  0  0  0  0  0  0  0  0  0
   45.2740   32.5540   48.0320 C   0  0  0  0  0  0  0  0  0  0  0  0
   45.3860   33.2550   46.8790 N   0  0  0  0  0  0  0  0  0  0  0  0
   44.7971   35.9063   42.9456 H   0  0  0  0  0  0  0  0  0  0  0  0
   46.7811   35.5348   41.4415 H   0  0  0  0  0  0  0  0  0  0  0  0
   48.6987   33.2918   41.0571 H   0  0  0  0  0  0  0  0  0  0  0  0
   52.1519   33.4747   42.3024 H   0  0  0  0  0  0  0  0  0  0  0  0
   50.9980   32.4093   41.4561 H   0  0  0  0  0  0  0  0  0  0  0  0
   47.8123   31.4082   45.4270 H   0  0  0  0  0  0  0  0  0  0  0  0
   47.5769   30.1460   47.5567 H   0  0  0  0  0  0  0  0  0  0  0  0
   45.9128   30.9034   49.2567 H   0  0  0  0  0  0  0  0  0  0  0  0
   44.5408   32.8882   48.7808 H   0  0  0  0  0  0  0  0  0  0  0  0
  1  6  2  0
  2  3  2  0
  2  1  1  0
  3  4  1  0
  4  5  2  0
  5 12  1  0
  6  5  1  0
  7  8  1  0
  7  3  1  0
  8  9  2  0
  9 11  1  0
 10  8  1  0
 12 13  2  0
 12 17  1  0
 13 14  1  0
 14 15  2  0
 16 15  1  0
 17 16  2  0
  1 18  1  0
  2 19  1  0
  7 20  1  0
 10 21  1  0
 10 22  1  0
 13 23  1  0
 14 24  1  0
 15 25  1  0
 16 26  1  0
M  ISO  6  18  14  19  14  23  14  24  14  25  14  26  14
M  END
>  <minimizedAffinity>  (1) 
-5.65388632

>  <minimizedRMSD>  (1) 
0.550004303

$$$$
