
     RDKit          3D

 30 31  0  0  0  0  0  0  0  0999 V2000
   45.6040   34.6960   41.8430 C   0  0  0  0  0  0  0  0  0  0  0  0
   46.8660   34.6230   41.2030 C   0  0  0  0  0  0  0  0  0  0  0  0
   47.9070   34.0200   41.8940 C   0  0  0  0  0  0  0  0  0  0  0  0
   47.6680   33.5370   43.1370 N   0  0  0  0  0  0  0  0  0  0  0  0
   46.4600   33.6150   43.7300 C   0  0  0  0  0  0  0  0  0  0  0  0
   45.4310   34.1980   43.0760 N   0  0  0  0  0  0  0  0  0  0  0  0
   49.2190   33.9010   41.3270 N   0  0  0  0  0  0  0  0  0  0  0  0
   50.3910   34.0880   42.1150 C   0  0  0  0  0  0  0  0  0  0  0  0
   50.3210   34.9880   43.0490 N   0  0  0  0  0  0  0  0  0  0  0  0
   51.5350   33.2710   41.8070 N   0  0  0  0  0  0  0  0  0  0  0  0
   51.1880   35.1200   43.6050 H   0  0  0  0  0  0  0  0  0  0  0  0
   45.9610   32.0690   47.5480 C   0  0  0  0  0  0  0  0  0  0  0  0
   46.7740   31.3740   46.6710 C   0  0  0  0  0  0  0  0  0  0  0  0
   46.9490   31.8820   45.3940 C   0  0  0  0  0  0  0  0  0  0  0  0
   46.2870   33.0680   45.0730 C   0  0  0  0  0  0  0  0  0  0  0  0
   45.4760   33.7570   45.9520 C   0  0  0  0  0  0  0  0  0  0  0  0
   45.3030   33.2430   47.2400 C   0  0  0  0  0  0  0  0  0  0  0  0
   45.7940   31.3610   49.1410 S   0  0  0  0  0  0  0  0  0  0  0  0
   47.1520   30.8650   49.5910 O   0  0  0  0  0  0  0  0  0  0  0  0
   44.8820   30.1510   49.0360 O   0  0  0  0  0  0  0  0  0  0  0  0
   44.7567   35.1664   41.3226 H   0  0  0  0  0  0  0  0  0  0  0  0
   47.0153   35.0307   40.1923 H   0  0  0  0  0  0  0  0  0  0  0  0
   49.3161   33.6751   40.3268 H   0  0  0  0  0  0  0  0  0  0  0  0
   52.4029   33.3737   42.3520 H   0  0  0  0  0  0  0  0  0  0  0  0
   51.4858   32.5836   41.0416 H   0  0  0  0  0  0  0  0  0  0  0  0
   47.2691   30.4415   46.9797 H   0  0  0  0  0  0  0  0  0  0  0  0
   47.5869   31.3689   44.6593 H   0  0  0  0  0  0  0  0  0  0  0  0
   44.9776   34.6886   45.6460 H   0  0  0  0  0  0  0  0  0  0  0  0
   44.6679   33.7535   47.9790 H   0  0  0  0  0  0  0  0  0  0  0  0
   45.2905   32.2863   50.0170 H   0  0  0  0  0  0  0  0  0  0  0  0
  1  6  2  0
  2  1  1  0
  2  3  2  0
  3  4  1  0
  4  5  2  0
  5 15  1  0
  6  5  1  0
  7  3  1  0
  7  8  1  0
  8  9  2  0
  9 11  1  0
 10  8  1  0
 12 18  1  0
 13 12  2  0
 14 13  1  0
 15 14  2  0
 15 16  1  0
 16 17  2  0
 17 12  1  0
 18 19  2  0
 20 18  2  0
  1 21  1  0
  2 22  1  0
  7 23  1  0
 10 24  1  0
 10 25  1  0
 13 26  1  0
 14 27  1  0
 16 28  1  0
 17 29  1  0
 18 30  1  0
M  ISO  7  21  14  22  14  26  14  27  14  28  14  29  14  30  11
M  END
>  <minimizedAffinity>  (1) 
-5.79817915

>  <minimizedRMSD>  (1) 
1.08978176

$$$$
