
     RDKit          3D

 24 25  0  0  0  0  0  0  0  0999 V2000
   45.5850   35.2070   43.1900 C   0  0  0  0  0  0  0  0  0  0  0  0
   46.6940   35.0000   42.3510 C   0  0  0  0  0  0  0  0  0  0  0  0
   47.6410   34.0690   42.7550 C   0  0  0  0  0  0  0  0  0  0  0  0
   47.4530   33.4170   43.9180 N   0  0  0  0  0  0  0  0  0  0  0  0
   46.3760   33.6290   44.7160 C   0  0  0  0  0  0  0  0  0  0  0  0
   45.4520   34.5250   44.3410 N   0  0  0  0  0  0  0  0  0  0  0  0
   48.8170   33.7690   41.9800 N   0  0  0  0  0  0  0  0  0  0  0  0
   50.1050   34.1180   42.4200 C   0  0  0  0  0  0  0  0  0  0  0  0
   50.2160   35.2140   43.0870 N   0  0  0  0  0  0  0  0  0  0  0  0
   51.1760   33.2120   42.0800 N   0  0  0  0  0  0  0  0  0  0  0  0
   51.1760   35.4640   43.4100 H   0  0  0  0  0  0  0  0  0  0  0  0
   46.2710   32.8380   45.9970 C   0  0  0  0  0  0  0  0  0  0  0  0
   45.4310   33.1790   47.0440 C   0  0  0  0  0  0  0  0  0  0  0  0
   45.4130   32.4020   48.1470 C   0  0  0  0  0  0  0  0  0  0  0  0
   46.2640   31.2500   48.2020 C   0  0  0  0  0  0  0  0  0  0  0  0
   47.1060   31.3130   46.5940 S   0  0  0  0  0  0  0  0  0  0  0  0
   44.8151   35.9374   42.9006 H   0  0  0  0  0  0  0  0  0  0  0  0
   46.8071   35.5557   41.4085 H   0  0  0  0  0  0  0  0  0  0  0  0
   48.7110   33.2847   41.0772 H   0  0  0  0  0  0  0  0  0  0  0  0
   52.1400   33.4194   42.3776 H   0  0  0  0  0  0  0  0  0  0  0  0
   50.9762   32.3581   41.5398 H   0  0  0  0  0  0  0  0  0  0  0  0
   44.7885   34.0694   46.9774 H   0  0  0  0  0  0  0  0  0  0  0  0
   44.7542   32.6493   48.9925 H   0  0  0  0  0  0  0  0  0  0  0  0
   46.3781   30.5147   49.0121 H   0  0  0  0  0  0  0  0  0  0  0  0
  1  6  2  0
  2  3  2  0
  2  1  1  0
  3  4  1  0
  4  5  2  0
  5 12  1  0
  6  5  1  0
  7  8  1  0
  7  3  1  0
  8  9  2  0
  9 11  1  0
 10  8  1  0
 12 16  1  0
 12 13  2  0
 13 14  1  0
 14 15  2  0
 16 15  1  0
  1 17  1  0
  2 18  1  0
  7 19  1  0
 10 20  1  0
 10 21  1  0
 13 22  1  0
 14 23  1  0
 15 24  1  0
M  ISO  5  17  14  18  14  22  14  23  14  24  14
M  END
>  <minimizedAffinity>  (1) 
-5.43471813

>  <minimizedRMSD>  (1) 
0.499216259

$$$$
