
     RDKit          3D

 22 23  0  0  0  0  0  0  0  0999 V2000
   45.5450   35.1840   43.1620 C   0  0  0  0  0  0  0  0  0  0  0  0
   46.6450   34.9480   42.3200 C   0  0  0  0  0  0  0  0  0  0  0  0
   47.6380   34.0760   42.7490 C   0  0  0  0  0  0  0  0  0  0  0  0
   47.4840   33.4930   43.9760 N   0  0  0  0  0  0  0  0  0  0  0  0
   46.4210   33.7310   44.7700 C   0  0  0  0  0  0  0  0  0  0  0  0
   45.4690   34.5700   44.3540 N   0  0  0  0  0  0  0  0  0  0  0  0
   48.7990   33.7640   41.9730 N   0  0  0  0  0  0  0  0  0  0  0  0
   50.1070   34.1120   42.4070 C   0  0  0  0  0  0  0  0  0  0  0  0
   50.2280   35.2160   43.0770 N   0  0  0  0  0  0  0  0  0  0  0  0
   51.1840   33.2280   42.0760 N   0  0  0  0  0  0  0  0  0  0  0  0
   51.1840   35.4790   43.3780 H   0  0  0  0  0  0  0  0  0  0  0  0
   46.3250   33.0670   46.0790 C   0  0  0  0  0  0  0  0  0  0  0  0
   47.1070   32.2050   46.7340 N   0  0  0  0  0  0  0  0  0  0  0  0
   46.5730   31.9100   47.8810 O   0  0  0  0  0  0  0  0  0  0  0  0
   45.4360   32.5800   47.9800 C   0  0  0  0  0  0  0  0  0  0  0  0
   45.2700   33.3060   46.8610 N   0  0  0  0  0  0  0  0  0  0  0  0
   44.7467   35.8712   42.8450 H   0  0  0  0  0  0  0  0  0  0  0  0
   46.7184   35.4437   41.3408 H   0  0  0  0  0  0  0  0  0  0  0  0
   48.6836   33.2735   41.0747 H   0  0  0  0  0  0  0  0  0  0  0  0
   52.1439   33.4510   42.3755 H   0  0  0  0  0  0  0  0  0  0  0  0
   50.9987   32.3692   41.5385 H   0  0  0  0  0  0  0  0  0  0  0  0
   44.7435   32.5481   48.8341 H   0  0  0  0  0  0  0  0  0  0  0  0
  1  6  2  0
  2  3  2  0
  2  1  1  0
  3  4  1  0
  4  5  2  0
  5 12  1  0
  6  5  1  0
  7  8  1  0
  7  3  1  0
  8  9  2  0
  9 11  1  0
 10  8  1  0
 12 13  2  0
 12 16  1  0
 13 14  1  0
 14 15  1  0
 16 15  2  0
  1 17  1  0
  2 18  1  0
  7 19  1  0
 10 20  1  0
 10 21  1  0
 15 22  1  0
M  ISO  3  17  14  18  14  22  14
M  END
>  <minimizedAffinity>  (1) 
-5.39711857

>  <minimizedRMSD>  (1) 
0.587359965

$$$$
