
     RDKit          3D

 19 19  0  0  0  0  0  0  0  0999 V2000
   45.5640   35.3180   43.1270 C   0  0  0  0  0  0  0  0  0  0  0  0
   46.6940   35.0760   42.3000 C   0  0  0  0  0  0  0  0  0  0  0  0
   47.6140   34.1230   42.7190 C   0  0  0  0  0  0  0  0  0  0  0  0
   47.3840   33.4770   43.8930 N   0  0  0  0  0  0  0  0  0  0  0  0
   46.3070   33.7210   44.6630 C   0  0  0  0  0  0  0  0  0  0  0  0
   45.4140   34.6300   44.2770 N   0  0  0  0  0  0  0  0  0  0  0  0
   48.7970   33.7780   41.9880 N   0  0  0  0  0  0  0  0  0  0  0  0
   50.0910   34.1190   42.4300 C   0  0  0  0  0  0  0  0  0  0  0  0
   50.2100   35.2140   43.0850 N   0  0  0  0  0  0  0  0  0  0  0  0
   51.1520   33.2170   42.1110 N   0  0  0  0  0  0  0  0  0  0  0  0
   51.1660   35.4640   43.4380 H   0  0  0  0  0  0  0  0  0  0  0  0
   46.1010   33.0020   45.9140 C   0  0  0  0  0  0  0  0  0  0  0  0
   47.0300   32.8860   46.7540 O   0  0  0  0  0  0  0  0  0  0  0  0
   44.8132   36.0650   42.8297 H   0  0  0  0  0  0  0  0  0  0  0  0
   46.8358   35.6258   41.3579 H   0  0  0  0  0  0  0  0  0  0  0  0
   48.6977   33.2597   41.1035 H   0  0  0  0  0  0  0  0  0  0  0  0
   52.1141   33.4258   42.4139 H   0  0  0  0  0  0  0  0  0  0  0  0
   50.9549   32.3579   41.5782 H   0  0  0  0  0  0  0  0  0  0  0  0
   45.1189   32.5544   46.1266 H   0  0  0  0  0  0  0  0  0  0  0  0
  1  6  2  0
  2  3  2  0
  2  1  1  0
  3  4  1  0
  4  5  2  0
  5 12  1  0
  6  5  1  0
  7  8  1  0
  7  3  1  0
  8  9  2  0
  9 11  1  0
 10  8  1  0
 12 13  2  0
  1 14  1  0
  2 15  1  0
  7 16  1  0
 10 17  1  0
 10 18  1  0
 12 19  1  0
M  ISO  3  14  14  15  14  19   6
M  END
>  <minimizedAffinity>  (1) 
-4.63167667

>  <minimizedRMSD>  (1) 
0.377907306

$$$$
