
     RDKit          3D

 26 26  0  0  0  0  0  0  0  0999 V2000
   45.5480   34.9160   43.6590 C   0  0  0  0  0  0  0  0  0  0  0  0
   46.5790   34.7940   42.7050 C   0  0  0  0  0  0  0  0  0  0  0  0
   47.6130   33.8910   42.9910 C   0  0  0  0  0  0  0  0  0  0  0  0
   47.5620   33.2040   44.1500 N   0  0  0  0  0  0  0  0  0  0  0  0
   46.5700   33.3350   45.0480 C   0  0  0  0  0  0  0  0  0  0  0  0
   45.5700   34.1850   44.8050 N   0  0  0  0  0  0  0  0  0  0  0  0
   48.7230   33.6750   42.0990 N   0  0  0  0  0  0  0  0  0  0  0  0
   50.0360   34.0820   42.4390 C   0  0  0  0  0  0  0  0  0  0  0  0
   50.1560   35.1500   43.1380 N   0  0  0  0  0  0  0  0  0  0  0  0
   51.1100   33.2610   41.9700 N   0  0  0  0  0  0  0  0  0  0  0  0
   51.1250   35.4700   43.3600 H   0  0  0  0  0  0  0  0  0  0  0  0
   46.5960   32.5320   46.3040 C   0  0  0  0  0  0  0  0  0  0  0  0
   46.6670   31.0750   45.9040 C   0  0  0  0  0  0  0  0  0  0  0  0
   45.4780   32.8520   47.2430 C   0  0  0  0  0  0  0  0  0  0  0  0
   44.7158   35.6111   43.4738 H   0  0  0  0  0  0  0  0  0  0  0  0
   46.5725   35.3823   41.7756 H   0  0  0  0  0  0  0  0  0  0  0  0
   48.5580   33.2139   41.1929 H   0  0  0  0  0  0  0  0  0  0  0  0
   52.0844   33.5126   42.1896 H   0  0  0  0  0  0  0  0  0  0  0  0
   50.9087   32.4185   41.4128 H   0  0  0  0  0  0  0  0  0  0  0  0
   47.4854   32.7927   46.8965 H   0  0  0  0  0  0  0  0  0  0  0  0
   46.6976   30.4479   46.8072 H   0  0  0  0  0  0  0  0  0  0  0  0
   45.7805   30.8151   45.3069 H   0  0  0  0  0  0  0  0  0  0  0  0
   47.5746   30.9025   45.3069 H   0  0  0  0  0  0  0  0  0  0  0  0
   45.8301   32.7512   48.2802 H   0  0  0  0  0  0  0  0  0  0  0  0
   45.1377   33.8836   47.0699 H   0  0  0  0  0  0  0  0  0  0  0  0
   44.6434   32.1567   47.0699 H   0  0  0  0  0  0  0  0  0  0  0  0
  1  6  2  0
  2  3  2  0
  2  1  1  0
  3  4  1  0
  4  5  2  0
  5 12  1  0
  6  5  1  0
  7  8  1  0
  7  3  1  0
  8  9  2  0
  9 11  1  0
 10  8  1  0
 12 14  1  0
 13 12  1  0
  1 15  1  0
  2 16  1  0
  7 17  1  0
 10 18  1  0
 10 19  1  0
 12 20  1  0
 13 21  1  0
 13 22  1  0
 13 23  1  0
 14 24  1  0
 14 25  1  0
 14 26  1  0
M  ISO  8  15  14  16  14  20   8  21   8  22   8  23   8  24   8  25   8
M  ISO  1  26   8
M  END
>  <minimizedAffinity>  (1) 
-4.72404575

>  <minimizedRMSD>  (1) 
0.65910095

$$$$
