
     RDKit          3D

 18 18  0  0  0  0  0  0  0  0999 V2000
   45.3610   35.4380   43.2920 C   0  0  0  0  0  0  0  0  0  0  0  0
   46.4280   35.2190   42.3950 C   0  0  0  0  0  0  0  0  0  0  0  0
   47.4160   34.2880   42.7460 C   0  0  0  0  0  0  0  0  0  0  0  0
   47.2690   33.6670   43.9340 N   0  0  0  0  0  0  0  0  0  0  0  0
   46.2550   33.8770   44.7830 C   0  0  0  0  0  0  0  0  0  0  0  0
   45.3040   34.7660   44.4540 N   0  0  0  0  0  0  0  0  0  0  0  0
   48.5410   33.9810   41.9240 N   0  0  0  0  0  0  0  0  0  0  0  0
   49.8720   34.1690   42.3660 C   0  0  0  0  0  0  0  0  0  0  0  0
   50.0840   35.1640   43.1690 N   0  0  0  0  0  0  0  0  0  0  0  0
   50.8530   33.2450   41.8810 N   0  0  0  0  0  0  0  0  0  0  0  0
   51.0670   35.2870   43.4710 H   0  0  0  0  0  0  0  0  0  0  0  0
   46.3000   33.1220   45.9580 O   0  0  0  0  0  0  0  0  0  0  0  0
   44.5725   36.1620   43.0388 H   0  0  0  0  0  0  0  0  0  0  0  0
   46.4834   35.7661   41.4423 H   0  0  0  0  0  0  0  0  0  0  0  0
   48.3789   33.6100   40.9769 H   0  0  0  0  0  0  0  0  0  0  0  0
   51.8365   33.3379   42.1725 H   0  0  0  0  0  0  0  0  0  0  0  0
   50.5750   32.4876   41.2407 H   0  0  0  0  0  0  0  0  0  0  0  0
   45.5861   33.2199   46.6369 H   0  0  0  0  0  0  0  0  0  0  0  0
  1  6  2  0
  2  3  2  0
  2  1  1  0
  3  4  1  0
  4  5  2  0
  5 12  1  0
  6  5  1  0
  7  8  1  0
  7  3  1  0
  8  9  2  0
  9 11  1  0
 10  8  1  0
  1 13  1  0
  2 14  1  0
  7 15  1  0
 10 16  1  0
 10 17  1  0
 12 18  1  0
M  ISO  3  13  14  14  14  18   3
M  END
>  <minimizedAffinity>  (1) 
-4.34314585

>  <minimizedRMSD>  (1) 
0.114642933

$$$$
