
     RDKit          3D

 32 34  0  0  0  0  0  0  0  0999 V2000
   44.7110   35.7220   45.0670 C   0  0  0  0  0  0  0  0  0  0  0  0
   44.2380   35.6330   43.7450 C   0  0  0  0  0  0  0  0  0  0  0  0
   44.4590   34.4480   43.0340 C   0  0  0  0  0  0  0  0  0  0  0  0
   45.1170   33.4440   43.6510 N   0  0  0  0  0  0  0  0  0  0  0  0
   45.5690   33.5420   44.9290 C   0  0  0  0  0  0  0  0  0  0  0  0
   45.3610   34.6720   45.6150 N   0  0  0  0  0  0  0  0  0  0  0  0
   46.2740   32.4260   45.5470 C   0  0  0  0  0  0  0  0  0  0  0  0
   47.2310   31.6040   44.9560 C   0  0  0  0  0  0  0  0  0  0  0  0
   47.6520   30.6820   45.8540 N   0  0  0  0  0  0  0  0  0  0  0  0
   46.9600   30.9310   46.9940 C   0  0  0  0  0  0  0  0  0  0  0  0
   46.1200   31.9970   46.8050 N   0  0  0  0  0  0  0  0  0  0  0  0
   45.2130   32.5710   47.7880 C   0  0  0  0  0  0  0  0  0  0  0  0
   44.2290   31.6480   48.1860 F   0  0  0  0  0  0  0  0  0  0  0  0
   44.5980   33.7270   47.3030 F   0  0  0  0  0  0  0  0  0  0  0  0
   45.8980   32.8910   48.9510 F   0  0  0  0  0  0  0  0  0  0  0  0
   43.9880   34.3450   41.6950 N   0  0  0  0  0  0  0  0  0  0  0  0
   44.7790   33.5360   40.7790 C   0  0  0  0  0  0  0  0  0  0  0  0
   44.1320   33.4010   39.4310 C   0  0  0  0  0  0  0  0  0  0  0  0
   43.4340   34.5830   39.0090 N   0  0  0  0  0  0  0  0  0  0  0  0
   42.4560   35.0880   39.9090 C   0  0  0  0  0  0  0  0  0  0  0  0
   42.7850   35.0350   41.3540 C   0  0  0  0  0  0  0  0  0  0  0  0
   44.5526   36.6407   45.6508 H   0  0  0  0  0  0  0  0  0  0  0  0
   43.7061   36.4764   43.2804 H   0  0  0  0  0  0  0  0  0  0  0  0
   47.5894   31.6906   43.9196 H   0  0  0  0  0  0  0  0  0  0  0  0
   47.0585   30.3621   47.9303 H   0  0  0  0  0  0  0  0  0  0  0  0
   45.7647   34.0074   40.6522 H   0  0  0  0  0  0  0  0  0  0  0  0
   44.8671   32.5284   41.2115 H   0  0  0  0  0  0  0  0  0  0  0  0
   44.9137   33.1755   38.6907 H   0  0  0  0  0  0  0  0  0  0  0  0
   43.3865   32.5960   39.5094 H   0  0  0  0  0  0  0  0  0  0  0  0
   43.6305   35.0386   38.1064 H   0  0  0  0  0  0  0  0  0  0  0  0
   41.5006   35.4986   39.5504 H   0  0  0  0  0  0  0  0  0  0  0  0
   42.1419   35.4987   42.1165 H   0  0  0  0  0  0  0  0  0  0  0  0
  1  6  2  0
  2  1  1  0
  3  4  1  0
  3  2  2  0
  4  5  2  0
  5  7  1  0
  5  6  1  0
  7 11  1  0
  8  7  2  0
  8  9  1  0
  9 10  2  0
 11 10  1  0
 11 12  1  0
 12 13  1  0
 12 15  1  0
 14 12  1  0
 16  3  1  0
 17 16  1  0
 18 17  1  0
 19 18  1  0
 19 20  1  0
 20 21  2  0
 21 16  1  0
  1 22  1  0
  2 23  1  0
  8 24  1  0
 10 25  1  0
 17 26  1  0
 17 27  1  0
 18 28  1  0
 18 29  1  0
 19 30  1  0
 20 31  1  0
 21 32  1  0
M  ISO  8  22  14  23  14  24  14  25  14  26  13  27  13  28  13  29  13
M  ISO  2  31  13  32  13
M  END
>  <minimizedAffinity>  (1) 
-5.48861122

>  <minimizedRMSD>  (1) 
0.531942725

$$$$
