
     RDKit          3D

 19 19  0  0  0  0  0  0  0  0999 V2000
   45.3590   35.4530   43.2780 C   0  0  0  0  0  0  0  0  0  0  0  0
   46.4290   35.2340   42.3870 C   0  0  0  0  0  0  0  0  0  0  0  0
   47.4050   34.3060   42.7360 C   0  0  0  0  0  0  0  0  0  0  0  0
   47.2730   33.6560   43.9280 N   0  0  0  0  0  0  0  0  0  0  0  0
   46.2440   33.8820   44.7630 C   0  0  0  0  0  0  0  0  0  0  0  0
   45.2980   34.7710   44.4400 N   0  0  0  0  0  0  0  0  0  0  0  0
   46.3140   33.0930   45.9450 N   0  0  0  0  0  0  0  0  0  0  0  0
   48.5310   34.0170   41.8890 N   0  0  0  0  0  0  0  0  0  0  0  0
   49.8610   34.1830   42.3580 C   0  0  0  0  0  0  0  0  0  0  0  0
   50.0800   35.1680   43.1670 N   0  0  0  0  0  0  0  0  0  0  0  0
   50.8430   33.2540   41.8980 N   0  0  0  0  0  0  0  0  0  0  0  0
   51.0690   35.2930   43.4760 H   0  0  0  0  0  0  0  0  0  0  0  0
   44.5734   36.1804   43.0255 H   0  0  0  0  0  0  0  0  0  0  0  0
   46.4910   35.7846   41.4368 H   0  0  0  0  0  0  0  0  0  0  0  0
   45.5812   33.1763   46.6640 H   0  0  0  0  0  0  0  0  0  0  0  0
   47.0975   32.4385   46.0817 H   0  0  0  0  0  0  0  0  0  0  0  0
   48.3701   33.6845   40.9275 H   0  0  0  0  0  0  0  0  0  0  0  0
   51.8197   33.3385   42.2138 H   0  0  0  0  0  0  0  0  0  0  0  0
   50.5746   32.4994   41.2504 H   0  0  0  0  0  0  0  0  0  0  0  0
  1  6  2  0
  2  3  2  0
  2  1  1  0
  3  4  1  0
  4  5  2  0
  5  7  1  0
  6  5  1  0
  8  9  1  0
  8  3  1  0
  9 10  2  0
 10 12  1  0
 11  9  1  0
  1 13  1  0
  2 14  1  0
  7 15  1  0
  7 16  1  0
  8 17  1  0
 11 18  1  0
 11 19  1  0
M  ISO  2  13  14  14  14
M  END
>  <minimizedAffinity>  (1) 
-4.37769747

>  <minimizedRMSD>  (1) 
0.122448519

$$$$
