
     RDKit          3D

 20 20  0  0  0  0  0  0  0  0999 V2000
   45.3630   35.4460   43.2610 C   0  0  0  0  0  0  0  0  0  0  0  0
   46.4380   35.2200   42.3670 C   0  0  0  0  0  0  0  0  0  0  0  0
   47.4180   34.2940   42.7350 C   0  0  0  0  0  0  0  0  0  0  0  0
   47.2900   33.6590   43.9310 N   0  0  0  0  0  0  0  0  0  0  0  0
   46.2590   33.8940   44.7570 C   0  0  0  0  0  0  0  0  0  0  0  0
   45.3030   34.7750   44.4360 N   0  0  0  0  0  0  0  0  0  0  0  0
   48.5310   34.0160   41.8800 N   0  0  0  0  0  0  0  0  0  0  0  0
   49.8690   34.1740   42.3440 C   0  0  0  0  0  0  0  0  0  0  0  0
   50.0950   35.1530   43.1600 N   0  0  0  0  0  0  0  0  0  0  0  0
   50.8540   33.2320   41.8660 N   0  0  0  0  0  0  0  0  0  0  0  0
   51.0770   35.2800   43.4690 H   0  0  0  0  0  0  0  0  0  0  0  0
   46.2080   33.1540   46.0350 C   0  0  0  0  0  0  0  0  0  0  0  0
   44.5751   36.1680   43.0005 H   0  0  0  0  0  0  0  0  0  0  0  0
   46.4999   35.7583   41.4097 H   0  0  0  0  0  0  0  0  0  0  0  0
   48.3627   33.6971   40.9152 H   0  0  0  0  0  0  0  0  0  0  0  0
   51.8333   33.3092   42.1758 H   0  0  0  0  0  0  0  0  0  0  0  0
   50.5772   32.4831   41.2153 H   0  0  0  0  0  0  0  0  0  0  0  0
   46.2570   33.8652   46.8727 H   0  0  0  0  0  0  0  0  0  0  0  0
   45.2685   32.5847   46.0918 H   0  0  0  0  0  0  0  0  0  0  0  0
   47.0605   32.4612   46.0918 H   0  0  0  0  0  0  0  0  0  0  0  0
  1  6  2  0
  2  3  2  0
  2  1  1  0
  3  4  1  0
  4  5  2  0
  5 12  1  0
  6  5  1  0
  7  8  1  0
  7  3  1  0
  8  9  2  0
  9 11  1  0
 10  8  1  0
  1 13  1  0
  2 14  1  0
  7 15  1  0
 10 16  1  0
 10 17  1  0
 12 18  1  0
 12 19  1  0
 12 20  1  0
M  ISO  5  13  14  14  14  18   8  19   8  20   8
M  END
>  <minimizedAffinity>  (1) 
-4.4514451

>  <minimizedRMSD>  (1) 
0.130669549

$$$$
