
     RDKit          3D

 38 41  0  0  1  0  0  0  0  0999 V2000
   46.4430   34.5920   41.9990 N   0  0  0  0  0  0  0  0  0  0  0  0
   47.7060   35.2410   41.7230 C   0  0  0  0  0  0  0  0  0  0  0  0
   48.4330   34.5230   40.6310 C   0  0  0  0  0  0  0  0  0  0  0  0
   47.5150   34.4310   39.5040 N   0  0  0  0  0  0  0  0  0  0  0  0
   46.5900   33.3780   39.8720 C   0  0  0  0  0  0  0  0  0  0  0  0
   45.7490   33.7470   41.0640 C   0  0  2  0  0  0  0  0  0  0  0  0
   44.4810   34.2460   40.6250 N   0  0  0  0  0  0  0  0  0  0  0  0
   43.7230   35.3350   40.9490 C   0  0  0  0  0  0  0  0  0  0  0  0
   42.5850   35.3530   40.2360 N   0  0  0  0  0  0  0  0  0  0  0  0
   42.6250   34.2590   39.4500 C   0  0  0  0  0  0  0  0  0  0  0  0
   41.6780   33.8540   38.5450 C   0  0  0  0  0  0  0  0  0  0  0  0
   40.6150   34.4830   38.3340 O   0  0  0  0  0  0  0  0  0  0  0  0
   41.8690   32.7310   37.8330 N   0  0  0  0  0  0  0  0  0  0  0  0
   43.0080   32.0460   38.0510 C   0  0  0  0  0  0  0  0  0  0  0  0
   43.3710   30.8440   37.3910 N   0  0  0  0  0  0  0  0  0  0  0  0
   43.9570   32.4310   38.9440 N   0  0  0  0  0  0  0  0  0  0  0  0
   43.8100   33.5520   39.6820 C   0  0  0  0  0  0  0  0  0  0  0  0
   44.5440   36.0420   44.8810 C   0  0  0  0  0  0  0  0  0  0  0  0
   45.1130   35.9360   43.6080 C   0  0  0  0  0  0  0  0  0  0  0  0
   45.8330   34.7850   43.2670 C   0  0  0  0  0  0  0  0  0  0  0  0
   45.9230   33.8270   44.2470 N   0  0  0  0  0  0  0  0  0  0  0  0
   45.3680   33.9570   45.4550 C   0  0  0  0  0  0  0  0  0  0  0  0
   44.6850   35.0490   45.7740 N   0  0  0  0  0  0  0  0  0  0  0  0
   47.5196   36.2797   41.4124 H   0  0  0  0  0  0  0  0  0  0  0  0
   48.3227   35.2238   42.6337 H   0  0  0  0  0  0  0  0  0  0  0  0
   49.3328   35.0856   40.3415 H   0  0  0  0  0  0  0  0  0  0  0  0
   48.7541   33.5240   40.9611 H   0  0  0  0  0  0  0  0  0  0  0  0
   48.0215   34.1852   38.6414 H   0  0  0  0  0  0  0  0  0  0  0  0
   45.9254   33.1770   39.0188 H   0  0  0  0  0  0  0  0  0  0  0  0
   47.1809   32.4895   40.1393 H   0  0  0  0  0  0  0  0  0  0  0  0
   45.5449   32.8407   41.6531 H   0  0  0  0  0  0  0  0  0  0  0  0
   44.0061   36.0942   41.6929 H   0  0  0  0  0  0  0  0  0  0  0  0
   41.1720   32.4066   37.1475 H   0  0  0  0  0  0  0  0  0  0  0  0
   44.2633   30.3817   37.6169 H   0  0  0  0  0  0  0  0  0  0  0  0
   42.7423   30.4335   36.6859 H   0  0  0  0  0  0  0  0  0  0  0  0
   43.9772   36.9447   45.1527 H   0  0  0  0  0  0  0  0  0  0  0  0
   44.9956   36.7517   42.8794 H   0  0  0  0  0  0  0  0  0  0  0  0
   45.4784   33.1496   46.1938 H   0  0  0  0  0  0  0  0  0  0  0  0
  1 20  1  0
  2  1  1  0
  3  2  1  0
  4  5  1  0
  4  3  1  0
  5  6  1  0
  6  1  1  0
  7  8  1  0
  7  6  1  0
  9  8  2  0
 10 17  2  0
 10  9  1  0
 11 10  1  0
 12 11  2  0
 13 14  1  0
 13 11  1  0
 14 16  2  0
 15 14  1  0
 16 17  1  0
 17  7  1  0
 18 23  2  0
 19 18  1  0
 20 19  2  0
 20 21  1  0
 21 22  2  0
 22 23  1  0
  2 24  1  0
  2 25  1  0
  3 26  1  0
  3 27  1  0
  4 28  1  0
  5 29  1  0
  5 30  1  0
  6 31  1  1
  8 32  1  0
 13 33  1  0
 15 34  1  0
 15 35  1  0
 18 36  1  0
 19 37  1  0
 22 38  1  0
M  ISO  8  24  13  25  13  26  13  27  13  28   5  29  13  30  13  31  13
M  ISO  5  32  14  33   9  36  14  37  14  38  14
M  END
>  <minimizedAffinity>  (1) 
-6.16692781

>  <minimizedRMSD>  (1) 
1.5739795

$$$$
