
     RDKit          3D

 24 25  0  0  0  0  0  0  0  0999 V2000
   44.4750   35.9630   44.7310 C   0  0  0  0  0  0  0  0  0  0  0  0
   45.1950   35.8960   43.5290 C   0  0  0  0  0  0  0  0  0  0  0  0
   46.1090   34.8360   43.3630 C   0  0  0  0  0  0  0  0  0  0  0  0
   46.2300   33.9410   44.3990 N   0  0  0  0  0  0  0  0  0  0  0  0
   45.5180   34.0470   45.5350 C   0  0  0  0  0  0  0  0  0  0  0  0
   44.6480   35.0500   45.6990 N   0  0  0  0  0  0  0  0  0  0  0  0
   46.8980   34.6640   42.1820 N   0  0  0  0  0  0  0  0  0  0  0  0
   48.3140   34.8970   42.2360 C   0  0  0  0  0  0  0  0  0  0  0  0
   49.0000   34.1760   41.1190 C   0  0  0  0  0  0  0  0  0  0  0  0
   48.3480   34.5720   39.8780 N   0  0  0  0  0  0  0  0  0  0  0  0
   47.0860   33.8730   39.8580 C   0  0  0  0  0  0  0  0  0  0  0  0
   46.1830   34.2570   40.9890 C   0  0  0  0  0  0  0  0  0  0  0  0
   43.7544   36.7801   44.8830 H   0  0  0  0  0  0  0  0  0  0  0  0
   45.0506   36.6483   42.7395 H   0  0  0  0  0  0  0  0  0  0  0  0
   45.6519   33.3038   46.3349 H   0  0  0  0  0  0  0  0  0  0  0  0
   48.5083   35.9759   42.1454 H   0  0  0  0  0  0  0  0  0  0  0  0
   48.7024   34.5244   43.1953 H   0  0  0  0  0  0  0  0  0  0  0  0
   50.0639   34.4539   41.0898 H   0  0  0  0  0  0  0  0  0  0  0  0
   48.9339   33.0873   41.2616 H   0  0  0  0  0  0  0  0  0  0  0  0
   48.1945   35.5904   39.8624 H   0  0  0  0  0  0  0  0  0  0  0  0
   46.5755   34.0994   38.9103 H   0  0  0  0  0  0  0  0  0  0  0  0
   47.3041   32.7999   39.9627 H   0  0  0  0  0  0  0  0  0  0  0  0
   45.5483   35.0931   40.6603 H   0  0  0  0  0  0  0  0  0  0  0  0
   45.5932   33.3663   41.2512 H   0  0  0  0  0  0  0  0  0  0  0  0
  1  6  2  0
  2  1  1  0
  3  2  2  0
  3  4  1  0
  4  5  2  0
  5  6  1  0
  7  8  1  0
  7  3  1  0
  9  8  1  0
 10  9  1  0
 11 10  1  0
 11 12  1  0
 12  7  1  0
  1 13  1  0
  2 14  1  0
  5 15  1  0
  8 16  1  0
  8 17  1  0
  9 18  1  0
  9 19  1  0
 10 20  1  0
 11 21  1  0
 11 22  1  0
 12 23  1  0
 12 24  1  0
M  ISO  8  13  14  14  14  15  14  16  13  17  13  18  13  19  13  20   5
M  ISO  4  21  13  22  13  23  13  24  13
M  END
>  <minimizedAffinity>  (1) 
-4.20057487

>  <minimizedRMSD>  (1) 
0.815946579

$$$$
