
     RDKit          3D

 38 41  0  0  1  0  0  0  0  0999 V2000
   46.8960   34.5830   42.2650 N   0  0  0  0  0  0  0  0  0  0  0  0
   48.3110   34.4950   42.4040 C   0  0  0  0  0  0  0  0  0  0  0  0
   48.8930   33.7160   41.2770 C   0  0  0  0  0  0  0  0  0  0  0  0
   48.4120   34.3010   40.0300 N   0  0  0  0  0  0  0  0  0  0  0  0
   47.0450   33.9040   39.9130 C   0  0  0  0  0  0  0  0  0  0  0  0
   46.1620   34.4340   41.0100 C   0  0  1  0  0  0  0  0  0  0  0  0
   45.0660   33.4980   41.2450 C   0  0  0  0  0  0  0  0  0  0  0  0
   45.3740   32.2340   41.6610 N   0  0  0  0  0  0  0  0  0  0  0  0
   44.4100   31.3240   41.8960 C   0  0  0  0  0  0  0  0  0  0  0  0
   43.0950   31.6060   41.7350 N   0  0  0  0  0  0  0  0  0  0  0  0
   42.7240   32.8280   41.3290 C   0  0  0  0  0  0  0  0  0  0  0  0
   41.3960   33.1800   41.1450 C   0  0  0  0  0  0  0  0  0  0  0  0
   41.0240   34.4440   40.7250 C   0  0  0  0  0  0  0  0  0  0  0  0
   42.0390   35.3480   40.4940 C   0  0  0  0  0  0  0  0  0  0  0  0
   43.3640   34.9950   40.6780 C   0  0  0  0  0  0  0  0  0  0  0  0
   43.7180   33.7440   41.0940 C   0  0  0  0  0  0  0  0  0  0  0  0
   44.5070   36.1250   44.7100 C   0  0  0  0  0  0  0  0  0  0  0  0
   45.2560   35.9540   43.5500 C   0  0  0  0  0  0  0  0  0  0  0  0
   46.0910   34.8380   43.4240 C   0  0  0  0  0  0  0  0  0  0  0  0
   46.1000   33.9820   44.4850 N   0  0  0  0  0  0  0  0  0  0  0  0
   45.3720   34.1660   45.5890 C   0  0  0  0  0  0  0  0  0  0  0  0
   44.5760   35.2370   45.7020 N   0  0  0  0  0  0  0  0  0  0  0  0
   48.7394   35.5082   42.4043 H   0  0  0  0  0  0  0  0  0  0  0  0
   48.5468   33.9861   43.3503 H   0  0  0  0  0  0  0  0  0  0  0  0
   49.9911   33.7681   41.3148 H   0  0  0  0  0  0  0  0  0  0  0  0
   48.5914   32.6604   41.3457 H   0  0  0  0  0  0  0  0  0  0  0  0
   48.4852   35.3278   40.0643 H   0  0  0  0  0  0  0  0  0  0  0  0
   46.6590   34.2697   38.9501 H   0  0  0  0  0  0  0  0  0  0  0  0
   47.0230   32.8067   39.9864 H   0  0  0  0  0  0  0  0  0  0  0  0
   45.7884   35.4176   40.6893 H   0  0  0  0  0  0  0  0  0  0  0  0
   44.7002   30.3170   42.2302 H   0  0  0  0  0  0  0  0  0  0  0  0
   40.6141   32.4310   41.3390 H   0  0  0  0  0  0  0  0  0  0  0  0
   39.9677   34.7155   40.5819 H   0  0  0  0  0  0  0  0  0  0  0  0
   41.7915   36.3658   40.1582 H   0  0  0  0  0  0  0  0  0  0  0  0
   44.1503   35.7395   40.4846 H   0  0  0  0  0  0  0  0  0  0  0  0
   43.8509   37.0023   44.8097 H   0  0  0  0  0  0  0  0  0  0  0  0
   45.1922   36.6918   42.7366 H   0  0  0  0  0  0  0  0  0  0  0  0
   45.4263   33.4349   46.4091 H   0  0  0  0  0  0  0  0  0  0  0  0
  1  2  1  0
  1 19  1  0
  3  2  1  0
  4  3  1  0
  5  4  1  0
  5  6  1  0
  6  7  1  0
  6  1  1  0
  7  8  2  0
  8  9  1  0
 10  9  2  0
 11 10  1  0
 12 11  2  0
 13 12  1  0
 14 15  1  0
 14 13  2  0
 15 16  2  0
 16  7  1  0
 16 11  1  0
 17 22  2  0
 18 17  1  0
 19 18  2  0
 19 20  1  0
 20 21  2  0
 21 22  1  0
  2 23  1  0
  2 24  1  0
  3 25  1  0
  3 26  1  0
  4 27  1  0
  5 28  1  0
  5 29  1  0
  6 30  1  6
  9 31  1  0
 12 32  1  0
 13 33  1  0
 14 34  1  0
 15 35  1  0
 17 36  1  0
 18 37  1  0
 21 38  1  0
M  ISO  8  23  13  24  13  25  13  26  13  27   5  28  13  29  13  30  13
M  ISO  8  31  14  32  14  33  14  34  14  35  14  36  14  37  14  38  14
M  END
>  <minimizedAffinity>  (1) 
-5.86875916

>  <minimizedRMSD>  (1) 
0.738700986

$$$$
