
     RDKit          3D

 38 41  0  0  1  0  0  0  0  0999 V2000
   46.9230   34.5950   42.2810 N   0  0  0  0  0  0  0  0  0  0  0  0
   48.3600   34.5390   42.4230 C   0  0  0  0  0  0  0  0  0  0  0  0
   48.9710   33.7920   41.2880 C   0  0  0  0  0  0  0  0  0  0  0  0
   48.4800   34.3810   40.0550 N   0  0  0  0  0  0  0  0  0  0  0  0
   47.1140   33.9870   39.9150 C   0  0  0  0  0  0  0  0  0  0  0  0
   46.2310   34.4320   41.0300 C   0  0  1  0  0  0  0  0  0  0  0  0
   45.0440   33.5550   41.1100 C   0  0  0  0  0  0  0  0  0  0  0  0
   44.9290   32.1990   41.3380 C   0  0  0  0  0  0  0  0  0  0  0  0
   43.6340   31.8350   41.3210 N   0  0  0  0  0  0  0  0  0  0  0  0
   42.8540   32.8850   41.0920 C   0  0  0  0  0  0  0  0  0  0  0  0
   41.5010   33.0420   40.9820 C   0  0  0  0  0  0  0  0  0  0  0  0
   41.0250   34.3110   40.7330 C   0  0  0  0  0  0  0  0  0  0  0  0
   41.8330   35.3970   40.5950 C   0  0  0  0  0  0  0  0  0  0  0  0
   43.1990   35.2310   40.7070 C   0  0  0  0  0  0  0  0  0  0  0  0
   43.7110   33.9540   40.9590 C   0  0  0  0  0  0  0  0  0  0  0  0
   44.5170   36.0810   44.7470 C   0  0  0  0  0  0  0  0  0  0  0  0
   45.2710   35.9310   43.5890 C   0  0  0  0  0  0  0  0  0  0  0  0
   46.1210   34.8250   43.4310 C   0  0  0  0  0  0  0  0  0  0  0  0
   46.1400   33.9480   44.4750 N   0  0  0  0  0  0  0  0  0  0  0  0
   45.4050   34.1090   45.5850 C   0  0  0  0  0  0  0  0  0  0  0  0
   44.6000   35.1620   45.7270 N   0  0  0  0  0  0  0  0  0  0  0  0
   48.7617   35.5629   42.4397 H   0  0  0  0  0  0  0  0  0  0  0  0
   48.6034   34.0191   43.3613 H   0  0  0  0  0  0  0  0  0  0  0  0
   50.0670   33.8748   41.3320 H   0  0  0  0  0  0  0  0  0  0  0  0
   48.7019   32.7266   41.3393 H   0  0  0  0  0  0  0  0  0  0  0  0
   48.5484   35.4076   40.1023 H   0  0  0  0  0  0  0  0  0  0  0  0
   46.7268   34.4129   38.9776 H   0  0  0  0  0  0  0  0  0  0  0  0
   47.1007   32.8871   39.9218 H   0  0  0  0  0  0  0  0  0  0  0  0
   45.8782   35.4484   40.8011 H   0  0  0  0  0  0  0  0  0  0  0  0
   45.7734   31.5151   41.5088 H   0  0  0  0  0  0  0  0  0  0  0  0
   43.2941   30.8735   41.4658 H   0  0  0  0  0  0  0  0  0  0  0  0
   40.8171   32.1870   41.0883 H   0  0  0  0  0  0  0  0  0  0  0  0
   39.9381   34.4530   40.6413 H   0  0  0  0  0  0  0  0  0  0  0  0
   41.4049   36.3908   40.3975 H   0  0  0  0  0  0  0  0  0  0  0  0
   43.8757   36.0915   40.5995 H   0  0  0  0  0  0  0  0  0  0  0  0
   43.8528   36.9502   44.8625 H   0  0  0  0  0  0  0  0  0  0  0  0
   45.2012   36.6844   42.7906 H   0  0  0  0  0  0  0  0  0  0  0  0
   45.4672   33.3616   46.3897 H   0  0  0  0  0  0  0  0  0  0  0  0
  1  2  1  0
  1 18  1  0
  3  2  1  0
  4  3  1  0
  5  4  1  0
  5  6  1  0
  6  7  1  0
  6  1  1  0
  7  8  2  0
  9  8  1  0
 10  9  1  0
 11 10  2  0
 12 11  1  0
 13 14  1  0
 13 12  2  0
 14 15  2  0
 15 10  1  0
 15  7  1  0
 16 21  2  0
 17 16  1  0
 18 17  2  0
 18 19  1  0
 19 20  2  0
 20 21  1  0
  2 22  1  0
  2 23  1  0
  3 24  1  0
  3 25  1  0
  4 26  1  0
  5 27  1  0
  5 28  1  0
  6 29  1  6
  8 30  1  0
  9 31  1  0
 11 32  1  0
 12 33  1  0
 13 34  1  0
 14 35  1  0
 16 36  1  0
 17 37  1  0
 20 38  1  0
M  ISO  8  22  13  23  13  24  13  25  13  26   5  27  13  28  13  29  13
M  ISO  8  30  14  31   9  32  14  33  14  34  14  35  14  36  14  37  14
M  ISO  1  38  14
M  END
>  <minimizedAffinity>  (1) 
-5.79142618

>  <minimizedRMSD>  (1) 
0.707395494

$$$$
