
     RDKit          3D

 32 34  0  0  1  0  0  0  0  0999 V2000
   47.0840   34.5010   42.3210 N   0  0  0  0  0  0  0  0  0  0  0  0
   48.4810   34.2320   42.5780 C   0  0  0  0  0  0  0  0  0  0  0  0
   49.0770   33.4590   41.4370 C   0  0  0  0  0  0  0  0  0  0  0  0
   48.8040   34.2170   40.2290 N   0  0  0  0  0  0  0  0  0  0  0  0
   47.4140   33.9890   39.9380 C   0  0  0  0  0  0  0  0  0  0  0  0
   46.5030   34.4960   40.9990 C   0  0  1  0  0  0  0  0  0  0  0  0
   44.5610   36.1040   44.5640 C   0  0  0  0  0  0  0  0  0  0  0  0
   45.3760   35.9100   43.4560 C   0  0  0  0  0  0  0  0  0  0  0  0
   46.2160   34.7890   43.4060 C   0  0  0  0  0  0  0  0  0  0  0  0
   46.1700   33.9470   44.4830 N   0  0  0  0  0  0  0  0  0  0  0  0
   45.3680   34.1600   45.5460 C   0  0  0  0  0  0  0  0  0  0  0  0
   44.5680   35.2360   45.5840 N   0  0  0  0  0  0  0  0  0  0  0  0
   45.2460   33.6870   40.9460 C   0  0  0  0  0  0  0  0  0  0  0  0
   44.0400   34.2470   40.5290 C   0  0  0  0  0  0  0  0  0  0  0  0
   42.8940   33.4470   40.4980 C   0  0  0  0  0  0  0  0  0  0  0  0
   42.9280   32.1440   40.8620 N   0  0  0  0  0  0  0  0  0  0  0  0
   44.1000   31.6280   41.2590 C   0  0  0  0  0  0  0  0  0  0  0  0
   45.1980   32.3840   41.2910 N   0  0  0  0  0  0  0  0  0  0  0  0
   49.0196   35.1842   42.6928 H   0  0  0  0  0  0  0  0  0  0  0  0
   48.5692   33.6381   43.4997 H   0  0  0  0  0  0  0  0  0  0  0  0
   50.1624   33.3507   41.5790 H   0  0  0  0  0  0  0  0  0  0  0  0
   48.6447   32.4494   41.3757 H   0  0  0  0  0  0  0  0  0  0  0  0
   48.9791   35.2198   40.3860 H   0  0  0  0  0  0  0  0  0  0  0  0
   47.1668   34.4955   38.9934 H   0  0  0  0  0  0  0  0  0  0  0  0
   47.2675   32.9007   39.8735 H   0  0  0  0  0  0  0  0  0  0  0  0
   46.2924   35.5567   40.7976 H   0  0  0  0  0  0  0  0  0  0  0  0
   43.9006   36.9828   44.6043 H   0  0  0  0  0  0  0  0  0  0  0  0
   45.3623   36.6302   42.6246 H   0  0  0  0  0  0  0  0  0  0  0  0
   45.3699   33.4487   46.3851 H   0  0  0  0  0  0  0  0  0  0  0  0
   43.9905   35.3040   40.2284 H   0  0  0  0  0  0  0  0  0  0  0  0
   41.9410   33.8875   40.1696 H   0  0  0  0  0  0  0  0  0  0  0  0
   44.1563   30.5718   41.5610 H   0  0  0  0  0  0  0  0  0  0  0  0
  1  2  1  0
  1  9  1  0
  3  2  1  0
  4  3  1  0
  5  4  1  0
  5  6  1  0
  6  1  1  0
  7 12  2  0
  8  7  1  0
  9  8  2  0
  9 10  1  0
 10 11  2  0
 11 12  1  0
 13  6  1  0
 13 18  1  0
 14 13  2  0
 15 14  1  0
 15 16  2  0
 16 17  1  0
 17 18  2  0
  2 19  1  0
  2 20  1  0
  3 21  1  0
  3 22  1  0
  4 23  1  0
  5 24  1  0
  5 25  1  0
  6 26  1  6
  7 27  1  0
  8 28  1  0
 11 29  1  0
 14 30  1  0
 15 31  1  0
 17 32  1  0
M  ISO  8  19  13  20  13  21  13  22  13  23   5  24  13  25  13  26  13
M  ISO  6  27  14  28  14  29  14  30  14  31  14  32  14
M  END
>  <minimizedAffinity>  (1) 
-4.80825615

>  <minimizedRMSD>  (1) 
0.916059136

$$$$
