
     RDKit          3D

 36 37  0  0  1  0  0  0  0  0999 V2000
   46.9720   34.6380   42.2360 N   0  0  0  0  0  0  0  0  0  0  0  0
   48.4170   34.6150   42.4270 C   0  0  0  0  0  0  0  0  0  0  0  0
   49.1000   33.9490   41.3040 C   0  0  0  0  0  0  0  0  0  0  0  0
   48.5900   34.4860   40.0530 N   0  0  0  0  0  0  0  0  0  0  0  0
   47.2650   33.9770   39.9180 C   0  0  0  0  0  0  0  0  0  0  0  0
   46.3290   34.4860   40.9790 C   0  0  1  0  0  0  0  0  0  0  0  0
   44.5260   36.0600   44.6790 C   0  0  0  0  0  0  0  0  0  0  0  0
   45.3030   35.9350   43.5350 C   0  0  0  0  0  0  0  0  0  0  0  0
   46.1720   34.8250   43.4040 C   0  0  0  0  0  0  0  0  0  0  0  0
   46.2050   33.9100   44.4400 N   0  0  0  0  0  0  0  0  0  0  0  0
   45.4250   34.0860   45.5270 C   0  0  0  0  0  0  0  0  0  0  0  0
   44.5970   35.1460   45.6460 N   0  0  0  0  0  0  0  0  0  0  0  0
   45.0690   33.7340   40.8630 C   0  0  0  0  0  0  0  0  0  0  0  0
   44.7250   32.7820   41.9760 C   0  0  0  0  0  0  0  0  0  0  0  0
   43.9500   34.7940   40.9000 C   0  0  0  0  0  0  0  0  0  0  0  0
   44.8820   33.0460   39.5250 C   0  0  0  0  0  0  0  0  0  0  0  0
   48.7836   35.6491   42.5056 H   0  0  0  0  0  0  0  0  0  0  0  0
   48.6345   34.0513   43.3462 H   0  0  0  0  0  0  0  0  0  0  0  0
   50.1826   34.1326   41.3698 H   0  0  0  0  0  0  0  0  0  0  0  0
   48.9139   32.8657   41.3462 H   0  0  0  0  0  0  0  0  0  0  0  0
   48.5764   35.5154   40.0845 H   0  0  0  0  0  0  0  0  0  0  0  0
   46.8740   34.2742   38.9337 H   0  0  0  0  0  0  0  0  0  0  0  0
   47.3201   32.8836   40.0250 H   0  0  0  0  0  0  0  0  0  0  0  0
   46.0200   35.5321   40.8371 H   0  0  0  0  0  0  0  0  0  0  0  0
   43.8475   36.9190   44.7877 H   0  0  0  0  0  0  0  0  0  0  0  0
   45.2439   36.6911   42.7382 H   0  0  0  0  0  0  0  0  0  0  0  0
   45.4648   33.3451   46.3391 H   0  0  0  0  0  0  0  0  0  0  0  0
   44.9019   33.2716   42.9450 H   0  0  0  0  0  0  0  0  0  0  0  0
   43.6661   32.4944   41.8984 H   0  0  0  0  0  0  0  0  0  0  0  0
   45.3555   31.8840   41.8984 H   0  0  0  0  0  0  0  0  0  0  0  0
   43.7020   35.0290   41.9456 H   0  0  0  0  0  0  0  0  0  0  0  0
   44.2925   35.7067   40.3904 H   0  0  0  0  0  0  0  0  0  0  0  0
   43.0572   34.4026   40.3904 H   0  0  0  0  0  0  0  0  0  0  0  0
   44.5967   31.9964   39.6891 H   0  0  0  0  0  0  0  0  0  0  0  0
   44.0901   33.5568   38.9576 H   0  0  0  0  0  0  0  0  0  0  0  0
   45.8235   33.0856   38.9576 H   0  0  0  0  0  0  0  0  0  0  0  0
  1  2  1  0
  1  9  1  0
  3  2  1  0
  4  3  1  0
  5  4  1  0
  5  6  1  0
  6  1  1  0
  7 12  2  0
  8  7  1  0
  9  8  2  0
  9 10  1  0
 10 11  2  0
 11 12  1  0
 13 15  1  0
 13  6  1  0
 13 14  1  0
 16 13  1  0
  2 17  1  0
  2 18  1  0
  3 19  1  0
  3 20  1  0
  4 21  1  0
  5 22  1  0
  5 23  1  0
  6 24  1  6
  7 25  1  0
  8 26  1  0
 11 27  1  0
 14 28  1  0
 14 29  1  0
 14 30  1  0
 15 31  1  0
 15 32  1  0
 15 33  1  0
 16 34  1  0
 16 35  1  0
 16 36  1  0
M  ISO  8  17  13  18  13  19  13  20  13  21   5  22  13  23  13  24  13
M  ISO  8  25  14  26  14  27  14  28   8  29   8  30   8  31   8  32   8
M  ISO  4  33   8  34   8  35   8  36   8
M  END
>  <minimizedAffinity>  (1) 
-4.7595849

>  <minimizedRMSD>  (1) 
0.510244489

$$$$
