
     RDKit          3D

 31 33  0  0  1  0  0  0  0  0999 V2000
   46.3190   34.4450   41.9820 N   0  0  0  0  0  0  0  0  0  0  0  0
   47.5340   35.1310   41.6040 C   0  0  0  0  0  0  0  0  0  0  0  0
   48.2160   34.3760   40.5060 C   0  0  0  0  0  0  0  0  0  0  0  0
   47.2280   34.1880   39.4400 N   0  0  0  0  0  0  0  0  0  0  0  0
   46.3880   33.1150   39.9190 C   0  0  0  0  0  0  0  0  0  0  0  0
   45.6160   33.5070   41.1550 C   0  0  2  0  0  0  0  0  0  0  0  0
   44.4970   36.0080   44.8660 C   0  0  0  0  0  0  0  0  0  0  0  0
   45.0250   35.8140   43.5970 C   0  0  0  0  0  0  0  0  0  0  0  0
   45.7690   34.6860   43.2690 C   0  0  0  0  0  0  0  0  0  0  0  0
   45.9350   33.7990   44.2890 N   0  0  0  0  0  0  0  0  0  0  0  0
   45.4260   33.9880   45.5090 C   0  0  0  0  0  0  0  0  0  0  0  0
   44.7170   35.0740   45.8010 N   0  0  0  0  0  0  0  0  0  0  0  0
   44.2400   33.9680   40.7510 C   0  0  0  0  0  0  0  0  0  0  0  0
   43.0290   33.3810   41.1390 C   0  0  0  0  0  0  0  0  0  0  0  0
   41.9860   34.0050   40.5870 N   0  0  0  0  0  0  0  0  0  0  0  0
   42.5070   34.9970   39.8420 C   0  0  0  0  0  0  0  0  0  0  0  0
   43.8490   34.9810   39.9350 N   0  0  0  0  0  0  0  0  0  0  0  0
   47.2884   36.1444   41.2537 H   0  0  0  0  0  0  0  0  0  0  0  0
   48.2036   35.1945   42.4744 H   0  0  0  0  0  0  0  0  0  0  0  0
   49.0746   34.9507   40.1286 H   0  0  0  0  0  0  0  0  0  0  0  0
   48.5921   33.4081   40.8689 H   0  0  0  0  0  0  0  0  0  0  0  0
   47.6889   33.9246   38.5573 H   0  0  0  0  0  0  0  0  0  0  0  0
   45.6749   32.8422   39.1271 H   0  0  0  0  0  0  0  0  0  0  0  0
   47.0379   32.2669   40.1803 H   0  0  0  0  0  0  0  0  0  0  0  0
   45.5047   32.6229   41.8000 H   0  0  0  0  0  0  0  0  0  0  0  0
   43.9106   36.9091   45.0989 H   0  0  0  0  0  0  0  0  0  0  0  0
   44.8490   36.5779   42.8253 H   0  0  0  0  0  0  0  0  0  0  0  0
   45.5967   33.2301   46.2878 H   0  0  0  0  0  0  0  0  0  0  0  0
   42.9477   32.5156   41.8131 H   0  0  0  0  0  0  0  0  0  0  0  0
   41.9230   35.7138   39.2461 H   0  0  0  0  0  0  0  0  0  0  0  0
   44.4840   35.6377   39.4593 H   0  0  0  0  0  0  0  0  0  0  0  0
  1  9  1  0
  2  1  1  0
  3  2  1  0
  4  5  1  0
  4  3  1  0
  5  6  1  0
  6  1  1  0
  7 12  2  0
  8  7  1  0
  9  8  2  0
  9 10  1  0
 10 11  2  0
 11 12  1  0
 13 14  2  0
 13  6  1  0
 15 14  1  0
 16 17  1  0
 16 15  2  0
 17 13  1  0
  2 18  1  0
  2 19  1  0
  3 20  1  0
  3 21  1  0
  4 22  1  0
  5 23  1  0
  5 24  1  0
  6 25  1  1
  7 26  1  0
  8 27  1  0
 11 28  1  0
 14 29  1  0
 16 30  1  0
 17 31  1  0
M  ISO  8  18  13  19  13  20  13  21  13  22   5  23  13  24  13  25  13
M  ISO  6  26  14  27  14  28  14  29  14  30  14  31   9
M  END
>  <minimizedAffinity>  (1) 
-5.07934761

>  <minimizedRMSD>  (1) 
1.54181063

$$$$
