
     RDKit          3D

 32 34  0  0  1  0  0  0  0  0999 V2000
   47.0750   34.4970   42.3430 N   0  0  0  0  0  0  0  0  0  0  0  0
   48.4720   34.2400   42.5810 C   0  0  0  0  0  0  0  0  0  0  0  0
   49.0650   33.4780   41.4320 C   0  0  0  0  0  0  0  0  0  0  0  0
   48.7820   34.2400   40.2230 N   0  0  0  0  0  0  0  0  0  0  0  0
   47.3870   34.0230   39.9510 C   0  0  0  0  0  0  0  0  0  0  0  0
   46.4790   34.5020   41.0340 C   0  0  1  0  0  0  0  0  0  0  0  0
   44.5490   36.0690   44.6260 C   0  0  0  0  0  0  0  0  0  0  0  0
   45.3590   35.8900   43.5020 C   0  0  0  0  0  0  0  0  0  0  0  0
   46.2150   34.7640   43.4440 C   0  0  0  0  0  0  0  0  0  0  0  0
   46.1920   33.9040   44.5190 N   0  0  0  0  0  0  0  0  0  0  0  0
   45.3890   34.1270   45.5800 C   0  0  0  0  0  0  0  0  0  0  0  0
   44.5850   35.1820   45.6380 N   0  0  0  0  0  0  0  0  0  0  0  0
   45.2200   33.7240   40.9380 C   0  0  0  0  0  0  0  0  0  0  0  0
   43.9990   34.2690   40.5580 C   0  0  0  0  0  0  0  0  0  0  0  0
   42.8460   33.5170   40.4800 C   0  0  0  0  0  0  0  0  0  0  0  0
   42.9020   32.2140   40.7820 N   0  0  0  0  0  0  0  0  0  0  0  0
   44.0770   31.6430   41.1580 C   0  0  0  0  0  0  0  0  0  0  0  0
   45.1670   32.3990   41.2210 N   0  0  0  0  0  0  0  0  0  0  0  0
   49.0027   35.1968   42.6943 H   0  0  0  0  0  0  0  0  0  0  0  0
   48.5743   33.6412   43.4981 H   0  0  0  0  0  0  0  0  0  0  0  0
   50.1517   33.3752   41.5678 H   0  0  0  0  0  0  0  0  0  0  0  0
   48.6353   32.4674   41.3682 H   0  0  0  0  0  0  0  0  0  0  0  0
   48.9674   35.2414   40.3768 H   0  0  0  0  0  0  0  0  0  0  0  0
   47.1285   34.5530   39.0224 H   0  0  0  0  0  0  0  0  0  0  0  0
   47.2424   32.9355   39.8703 H   0  0  0  0  0  0  0  0  0  0  0  0
   46.2603   35.5695   40.8836 H   0  0  0  0  0  0  0  0  0  0  0  0
   43.8785   36.9390   44.6844 H   0  0  0  0  0  0  0  0  0  0  0  0
   45.3320   36.6136   42.6739 H   0  0  0  0  0  0  0  0  0  0  0  0
   45.4007   33.4159   46.4192 H   0  0  0  0  0  0  0  0  0  0  0  0
   43.9509   35.3397   40.3104 H   0  0  0  0  0  0  0  0  0  0  0  0
   41.8960   33.9800   40.1747 H   0  0  0  0  0  0  0  0  0  0  0  0
   44.1241   30.5724   41.4060 H   0  0  0  0  0  0  0  0  0  0  0  0
  1  2  1  0
  1  9  1  0
  3  2  1  0
  4  3  1  0
  5  4  1  0
  5  6  1  0
  6  1  1  0
  7 12  2  0
  8  7  1  0
  9  8  2  0
  9 10  1  0
 10 11  2  0
 11 12  1  0
 13  6  1  0
 13 18  1  0
 14 13  2  0
 15 14  1  0
 15 16  2  0
 16 17  1  0
 17 18  2  0
  2 19  1  0
  2 20  1  0
  3 21  1  0
  3 22  1  0
  4 23  1  0
  5 24  1  0
  5 25  1  0
  6 26  1  6
  7 27  1  0
  8 28  1  0
 11 29  1  0
 14 30  1  0
 15 31  1  0
 17 32  1  0
M  ISO  8  19  13  20  13  21  13  22  13  23   5  24  13  25  13  26  13
M  ISO  6  27  14  28  14  29  14  30  14  31  14  32  14
M  END
>  <minimizedAffinity>  (1) 
-4.83388281

>  <minimizedRMSD>  (1) 
1.06702197

$$$$
