
     RDKit          3D

 33 35  0  0  0  0  0  0  0  0999 V2000
   44.8160   35.5810   44.8970 C   0  0  0  0  0  0  0  0  0  0  0  0
   44.3230   35.4050   43.5900 C   0  0  0  0  0  0  0  0  0  0  0  0
   44.5220   34.1580   42.9920 C   0  0  0  0  0  0  0  0  0  0  0  0
   45.1740   33.1730   43.6740 N   0  0  0  0  0  0  0  0  0  0  0  0
   45.6320   33.3850   44.9280 C   0  0  0  0  0  0  0  0  0  0  0  0
   45.4560   34.5790   45.5360 N   0  0  0  0  0  0  0  0  0  0  0  0
   46.3240   32.3280   45.6410 C   0  0  0  0  0  0  0  0  0  0  0  0
   47.3190   31.4840   45.1440 C   0  0  0  0  0  0  0  0  0  0  0  0
   47.7230   30.6230   46.1060 N   0  0  0  0  0  0  0  0  0  0  0  0
   46.9890   30.9250   47.1960 C   0  0  0  0  0  0  0  0  0  0  0  0
   46.1460   31.9520   46.9140 N   0  0  0  0  0  0  0  0  0  0  0  0
   45.1900   32.5680   47.8290 C   0  0  0  0  0  0  0  0  0  0  0  0
   44.1710   31.6910   48.1990 F   0  0  0  0  0  0  0  0  0  0  0  0
   44.6340   33.7330   47.2900 F   0  0  0  0  0  0  0  0  0  0  0  0
   45.8160   32.8990   49.0280 F   0  0  0  0  0  0  0  0  0  0  0  0
   43.9930   34.0250   41.6380 C   0  0  0  0  0  0  0  0  0  0  0  0
   43.6000   35.3740   41.0560 C   0  0  0  0  0  0  0  0  0  0  0  0
   42.4290   35.0920   40.1390 C   0  0  0  0  0  0  0  0  0  0  0  0
   41.7400   33.9040   40.7850 C   0  0  0  0  0  0  0  0  0  0  0  0
   42.8330   33.1120   41.4680 C   0  0  0  0  0  0  0  0  0  0  0  0
   44.6778   36.5474   45.4039 H   0  0  0  0  0  0  0  0  0  0  0  0
   43.8021   36.2166   43.0609 H   0  0  0  0  0  0  0  0  0  0  0  0
   47.7167   31.5147   44.1189 H   0  0  0  0  0  0  0  0  0  0  0  0
   47.0620   30.4158   48.1683 H   0  0  0  0  0  0  0  0  0  0  0  0
   44.8382   33.5707   41.1003 H   0  0  0  0  0  0  0  0  0  0  0  0
   43.3030   36.0667   41.8572 H   0  0  0  0  0  0  0  0  0  0  0  0
   44.4355   35.8460   40.5183 H   0  0  0  0  0  0  0  0  0  0  0  0
   42.7764   34.8402   39.1261 H   0  0  0  0  0  0  0  0  0  0  0  0
   41.7618   35.9588   40.0228 H   0  0  0  0  0  0  0  0  0  0  0  0
   40.9980   34.2460   41.5215 H   0  0  0  0  0  0  0  0  0  0  0  0
   41.2039   33.2950   40.0422 H   0  0  0  0  0  0  0  0  0  0  0  0
   42.4850   32.7573   42.4494 H   0  0  0  0  0  0  0  0  0  0  0  0
   43.1116   32.2323   40.8693 H   0  0  0  0  0  0  0  0  0  0  0  0
  1  6  2  0
  2  1  1  0
  3  2  2  0
  3  4  1  0
  4  5  2  0
  5  6  1  0
  5  7  1  0
  7 11  1  0
  8  7  2  0
  8  9  1  0
  9 10  2  0
 11 10  1  0
 11 12  1  0
 12 13  1  0
 12 15  1  0
 14 12  1  0
 16  3  1  0
 17 16  1  0
 18 19  1  0
 18 17  1  0
 19 20  1  0
 20 16  1  0
  1 21  1  0
  2 22  1  0
  8 23  1  0
 10 24  1  0
 16 25  1  0
 17 26  1  0
 17 27  1  0
 18 28  1  0
 18 29  1  0
 19 30  1  0
 19 31  1  0
 20 32  1  0
 20 33  1  0
M  ISO  8  21  14  22  14  23  14  24  14  25  13  26  13  27  13  28  13
M  ISO  5  29  13  30  13  31  13  32  13  33  13
M  END
>  <minimizedAffinity>  (1) 
-5.37198019

>  <minimizedRMSD>  (1) 
0.361919791

$$$$
