
     RDKit          3D

 30 32  0  0  1  0  0  0  0  0999 V2000
   47.0890   34.4810   42.2860 N   0  0  0  0  0  0  0  0  0  0  0  0
   48.4740   34.2550   42.5380 C   0  0  0  0  0  0  0  0  0  0  0  0
   49.0880   33.4920   41.4100 C   0  0  0  0  0  0  0  0  0  0  0  0
   48.7490   34.2000   40.1710 N   0  0  0  0  0  0  0  0  0  0  0  0
   47.3750   33.8720   39.9310 C   0  0  0  0  0  0  0  0  0  0  0  0
   46.4570   34.4200   40.9710 C   0  0  1  0  0  0  0  0  0  0  0  0
   44.5540   36.0990   44.5390 C   0  0  0  0  0  0  0  0  0  0  0  0
   45.3650   35.9120   43.4120 C   0  0  0  0  0  0  0  0  0  0  0  0
   46.2080   34.7980   43.3700 C   0  0  0  0  0  0  0  0  0  0  0  0
   46.1540   33.9810   44.4600 N   0  0  0  0  0  0  0  0  0  0  0  0
   45.3750   34.1740   45.5260 C   0  0  0  0  0  0  0  0  0  0  0  0
   44.5760   35.2330   45.5640 N   0  0  0  0  0  0  0  0  0  0  0  0
   45.2320   33.5530   41.1380 C   0  0  0  0  0  0  0  0  0  0  0  0
   44.0400   34.2120   40.7250 C   0  0  0  0  0  0  0  0  0  0  0  0
   42.8220   32.8600   41.0780 S   0  0  0  0  0  0  0  0  0  0  0  0
   44.1160   31.6820   41.7050 C   0  0  0  0  0  0  0  0  0  0  0  0
   45.3990   32.3370   41.6260 N   0  0  0  0  0  0  0  0  0  0  0  0
   48.9864   35.2227   42.6430 H   0  0  0  0  0  0  0  0  0  0  0  0
   48.5787   33.6709   43.4642 H   0  0  0  0  0  0  0  0  0  0  0  0
   50.1803   33.4508   41.5335 H   0  0  0  0  0  0  0  0  0  0  0  0
   48.7091   32.4596   41.3855 H   0  0  0  0  0  0  0  0  0  0  0  0
   48.8647   35.2166   40.2899 H   0  0  0  0  0  0  0  0  0  0  0  0
   47.0820   34.2818   38.9531 H   0  0  0  0  0  0  0  0  0  0  0  0
   47.2878   32.7758   39.9584 H   0  0  0  0  0  0  0  0  0  0  0  0
   46.1915   35.4279   40.6194 H   0  0  0  0  0  0  0  0  0  0  0  0
   43.8866   36.9722   44.5846 H   0  0  0  0  0  0  0  0  0  0  0  0
   45.3388   36.6276   42.5770 H   0  0  0  0  0  0  0  0  0  0  0  0
   45.3949   33.4626   46.3648 H   0  0  0  0  0  0  0  0  0  0  0  0
   43.8871   35.2223   40.3178 H   0  0  0  0  0  0  0  0  0  0  0  0
   43.9347   30.6613   42.0729 H   0  0  0  0  0  0  0  0  0  0  0  0
  1  2  1  0
  1  9  1  0
  3  2  1  0
  4  3  1  0
  5  4  1  0
  5  6  1  0
  6 13  1  0
  6  1  1  0
  7 12  2  0
  8  7  1  0
  9  8  2  0
  9 10  1  0
 10 11  2  0
 11 12  1  0
 13 17  1  0
 14 15  1  0
 14 13  2  0
 15 16  1  0
 17 16  2  0
  2 18  1  0
  2 19  1  0
  3 20  1  0
  3 21  1  0
  4 22  1  0
  5 23  1  0
  5 24  1  0
  6 25  1  6
  7 26  1  0
  8 27  1  0
 11 28  1  0
 14 29  1  0
 16 30  1  0
M  ISO  8  18  13  19  13  20  13  21  13  22   5  23  13  24  13  25  13
M  ISO  5  26  14  27  14  28  14  29  14  30  14
M  END
>  <minimizedAffinity>  (1) 
-4.65292406

>  <minimizedRMSD>  (1) 
0.880141675

$$$$
