
     RDKit          3D

 30 32  0  0  1  0  0  0  0  0999 V2000
   45.9220   34.2310   41.8790 N   0  0  0  0  0  0  0  0  0  0  0  0
   47.1080   34.8330   41.3440 C   0  0  0  0  0  0  0  0  0  0  0  0
   47.6320   34.0270   40.2000 C   0  0  0  0  0  0  0  0  0  0  0  0
   46.5360   33.8310   39.2680 N   0  0  0  0  0  0  0  0  0  0  0  0
   45.7030   32.8120   39.8770 C   0  0  0  0  0  0  0  0  0  0  0  0
   45.0820   33.3140   41.1530 C   0  0  2  0  0  0  0  0  0  0  0  0
   44.4730   35.9240   44.9020 C   0  0  0  0  0  0  0  0  0  0  0  0
   44.8360   35.7010   43.5750 C   0  0  0  0  0  0  0  0  0  0  0  0
   45.5170   34.5340   43.2080 C   0  0  0  0  0  0  0  0  0  0  0  0
   45.7910   33.6560   44.2300 N   0  0  0  0  0  0  0  0  0  0  0  0
   45.4270   33.9020   45.5010 C   0  0  0  0  0  0  0  0  0  0  0  0
   44.7780   35.0180   45.8340 N   0  0  0  0  0  0  0  0  0  0  0  0
   43.7670   33.8440   40.8470 N   0  0  0  0  0  0  0  0  0  0  0  0
   42.5850   33.3000   41.2540 C   0  0  0  0  0  0  0  0  0  0  0  0
   41.5790   34.0500   40.7900 N   0  0  0  0  0  0  0  0  0  0  0  0
   42.1410   35.0640   40.0910 C   0  0  0  0  0  0  0  0  0  0  0  0
   43.4640   34.9360   40.1270 N   0  0  0  0  0  0  0  0  0  0  0  0
   46.8723   35.8487   40.9936 H   0  0  0  0  0  0  0  0  0  0  0  0
   47.8741   34.8729   42.1323 H   0  0  0  0  0  0  0  0  0  0  0  0
   48.4538   34.5659   39.7058 H   0  0  0  0  0  0  0  0  0  0  0  0
   48.0197   33.0597   40.5522 H   0  0  0  0  0  0  0  0  0  0  0  0
   46.8899   33.5113   38.3551 H   0  0  0  0  0  0  0  0  0  0  0  0
   44.9044   32.5328   39.1739 H   0  0  0  0  0  0  0  0  0  0  0  0
   46.3315   31.9405   40.1125 H   0  0  0  0  0  0  0  0  0  0  0  0
   44.9696   32.4717   41.8514 H   0  0  0  0  0  0  0  0  0  0  0  0
   43.9370   36.8433   45.1805 H   0  0  0  0  0  0  0  0  0  0  0  0
   44.5851   36.4491   42.8086 H   0  0  0  0  0  0  0  0  0  0  0  0
   45.6699   33.1669   46.2824 H   0  0  0  0  0  0  0  0  0  0  0  0
   42.4761   32.3917   41.8648 H   0  0  0  0  0  0  0  0  0  0  0  0
   41.5912   35.8654   39.5758 H   0  0  0  0  0  0  0  0  0  0  0  0
  1  9  1  0
  2  1  1  0
  3  2  1  0
  4  5  1  0
  4  3  1  0
  5  6  1  0
  6  1  1  0
  7 12  2  0
  8  7  1  0
  9  8  2  0
  9 10  1  0
 10 11  2  0
 11 12  1  0
 13  6  1  0
 13 14  1  0
 15 14  2  0
 16 17  2  0
 16 15  1  0
 17 13  1  0
  2 18  1  0
  2 19  1  0
  3 20  1  0
  3 21  1  0
  4 22  1  0
  5 23  1  0
  5 24  1  0
  6 25  1  1
  7 26  1  0
  8 27  1  0
 11 28  1  0
 14 29  1  0
 16 30  1  0
M  ISO  8  18  13  19  13  20  13  21  13  22   5  23  13  24  13  25  13
M  ISO  5  26  14  27  14  28  14  29  14  30  14
M  END
>  <minimizedAffinity>  (1) 
-4.61482143

>  <minimizedRMSD>  (1) 
1.91940522

$$$$
