
     RDKit          3D

 31 33  0  0  1  0  0  0  0  0999 V2000
   46.9450   34.6250   42.2650 N   0  0  0  0  0  0  0  0  0  0  0  0
   48.3810   34.6090   42.4130 C   0  0  0  0  0  0  0  0  0  0  0  0
   49.0150   33.8690   41.2840 C   0  0  0  0  0  0  0  0  0  0  0  0
   48.4890   34.4280   40.0450 N   0  0  0  0  0  0  0  0  0  0  0  0
   47.1570   33.9010   39.9330 C   0  0  0  0  0  0  0  0  0  0  0  0
   46.2630   34.4520   41.0100 C   0  0  1  0  0  0  0  0  0  0  0  0
   44.5120   36.0640   44.7180 C   0  0  0  0  0  0  0  0  0  0  0  0
   45.2720   35.9290   43.5580 C   0  0  0  0  0  0  0  0  0  0  0  0
   46.1390   34.8230   43.4250 C   0  0  0  0  0  0  0  0  0  0  0  0
   46.1740   33.9410   44.4660 N   0  0  0  0  0  0  0  0  0  0  0  0
   45.4230   34.1090   45.5710 C   0  0  0  0  0  0  0  0  0  0  0  0
   44.5940   35.1640   45.6980 N   0  0  0  0  0  0  0  0  0  0  0  0
   45.0360   33.6890   41.1060 N   0  0  0  0  0  0  0  0  0  0  0  0
   44.8750   32.4260   41.5290 N   0  0  0  0  0  0  0  0  0  0  0  0
   43.5590   32.0890   41.4630 C   0  0  0  0  0  0  0  0  0  0  0  0
   42.8500   33.1550   40.9870 C   0  0  0  0  0  0  0  0  0  0  0  0
   43.7850   34.1280   40.7760 C   0  0  0  0  0  0  0  0  0  0  0  0
   48.7553   35.6433   42.4232 H   0  0  0  0  0  0  0  0  0  0  0  0
   48.6355   34.1039   43.3565 H   0  0  0  0  0  0  0  0  0  0  0  0
   50.1073   33.9943   41.3189 H   0  0  0  0  0  0  0  0  0  0  0  0
   48.7911   32.7941   41.3504 H   0  0  0  0  0  0  0  0  0  0  0  0
   48.4682   35.4567   40.0925 H   0  0  0  0  0  0  0  0  0  0  0  0
   46.7447   34.1730   38.9501 H   0  0  0  0  0  0  0  0  0  0  0  0
   47.2039   32.8076   40.0441 H   0  0  0  0  0  0  0  0  0  0  0  0
   45.9716   35.4713   40.7165 H   0  0  0  0  0  0  0  0  0  0  0  0
   43.8355   36.9245   44.8266 H   0  0  0  0  0  0  0  0  0  0  0  0
   45.1972   36.6764   42.7544 H   0  0  0  0  0  0  0  0  0  0  0  0
   45.4873   33.3717   46.3848 H   0  0  0  0  0  0  0  0  0  0  0  0
   43.1341   31.1150   41.7472 H   0  0  0  0  0  0  0  0  0  0  0  0
   41.7657   33.2163   40.8122 H   0  0  0  0  0  0  0  0  0  0  0  0
   43.5602   35.1335   40.3908 H   0  0  0  0  0  0  0  0  0  0  0  0
  1  2  1  0
  1  9  1  0
  3  2  1  0
  4  3  1  0
  5  4  1  0
  5  6  1  0
  6 13  1  0
  6  1  1  0
  7 12  2  0
  8  7  1  0
  9  8  2  0
  9 10  1  0
 10 11  2  0
 11 12  1  0
 13 14  1  0
 15 14  2  0
 16 15  1  0
 17 16  2  0
 17 13  1  0
  2 18  1  0
  2 19  1  0
  3 20  1  0
  3 21  1  0
  4 22  1  0
  5 23  1  0
  5 24  1  0
  6 25  1  6
  7 26  1  0
  8 27  1  0
 11 28  1  0
 15 29  1  0
 16 30  1  0
 17 31  1  0
M  ISO  8  18  13  19  13  20  13  21  13  22   5  23  13  24  13  25  13
M  ISO  6  26  14  27  14  28  14  29  14  30  14  31  14
M  END
>  <minimizedAffinity>  (1) 
-4.70313215

>  <minimizedRMSD>  (1) 
0.51750654

$$$$
