
     RDKit          3D

 26 27  0  0  1  0  0  0  0  0999 V2000
   46.8890   34.7510   42.0790 N   0  0  0  0  0  0  0  0  0  0  0  0
   48.2800   35.1260   42.1190 C   0  0  0  0  0  0  0  0  0  0  0  0
   49.0340   34.4480   41.0300 C   0  0  0  0  0  0  0  0  0  0  0  0
   48.3280   34.6670   39.7840 N   0  0  0  0  0  0  0  0  0  0  0  0
   47.1710   33.8110   39.8370 C   0  0  0  0  0  0  0  0  0  0  0  0
   46.2130   34.2180   40.9260 C   0  0  1  0  0  0  0  0  0  0  0  0
   44.4950   36.0580   44.6520 C   0  0  0  0  0  0  0  0  0  0  0  0
   45.2230   35.9880   43.4560 C   0  0  0  0  0  0  0  0  0  0  0  0
   46.1020   34.9130   43.2610 C   0  0  0  0  0  0  0  0  0  0  0  0
   46.1840   33.9860   44.2840 N   0  0  0  0  0  0  0  0  0  0  0  0
   45.4650   34.0950   45.4120 C   0  0  0  0  0  0  0  0  0  0  0  0
   44.6320   35.1100   45.6020 N   0  0  0  0  0  0  0  0  0  0  0  0
   45.3860   33.1270   41.3790 N   0  0  0  0  0  0  0  0  0  0  0  0
   48.3649   36.2156   41.9941 H   0  0  0  0  0  0  0  0  0  0  0  0
   48.7029   34.8213   43.0877 H   0  0  0  0  0  0  0  0  0  0  0  0
   50.0481   34.8686   40.9619 H   0  0  0  0  0  0  0  0  0  0  0  0
   49.1125   33.3705   41.2370 H   0  0  0  0  0  0  0  0  0  0  0  0
   48.9252   34.4148   38.9836 H   0  0  0  0  0  0  0  0  0  0  0  0
   46.6495   33.8596   38.8697 H   0  0  0  0  0  0  0  0  0  0  0  0
   47.5158   32.7893   40.0543 H   0  0  0  0  0  0  0  0  0  0  0  0
   45.5846   34.9929   40.4626 H   0  0  0  0  0  0  0  0  0  0  0  0
   43.8030   36.8968   44.8180 H   0  0  0  0  0  0  0  0  0  0  0  0
   45.1067   36.7629   42.6840 H   0  0  0  0  0  0  0  0  0  0  0  0
   45.5683   33.3282   46.1939 H   0  0  0  0  0  0  0  0  0  0  0  0
   45.3734   33.1104   42.4088 H   0  0  0  0  0  0  0  0  0  0  0  0
   44.4268   33.2537   41.0259 H   0  0  0  0  0  0  0  0  0  0  0  0
  1  2  1  0
  1  9  1  0
  3  2  1  0
  4  5  1  0
  4  3  1  0
  5  6  1  0
  6 13  1  0
  6  1  1  0
  7 12  2  0
  8  7  1  0
  9  8  2  0
  9 10  1  0
 10 11  2  0
 11 12  1  0
  2 14  1  0
  2 15  1  0
  3 16  1  0
  3 17  1  0
  4 18  1  0
  5 19  1  0
  5 20  1  0
  6 21  1  6
  7 22  1  0
  8 23  1  0
 11 24  1  0
 13 25  1  0
 13 26  1  0
M  ISO  8  14  13  15  13  16  13  17  13  18   5  19  13  20  13  21  13
M  ISO  5  22  14  23  14  24  14  25   5  26   5
M  END
>  <minimizedAffinity>  (1) 
-4.29461193

>  <minimizedRMSD>  (1) 
0.154627517

$$$$
