
     RDKit          3D

 27 28  0  0  1  0  0  0  0  0999 V2000
   47.1820   34.5150   42.3020 N   0  0  0  0  0  0  0  0  0  0  0  0
   48.5650   34.2330   42.6190 C   0  0  0  0  0  0  0  0  0  0  0  0
   49.2070   33.4650   41.5120 C   0  0  0  0  0  0  0  0  0  0  0  0
   48.9500   34.1970   40.2730 N   0  0  0  0  0  0  0  0  0  0  0  0
   47.5680   33.9310   39.9440 C   0  0  0  0  0  0  0  0  0  0  0  0
   46.6430   34.5230   40.9690 C   0  0  1  0  0  0  0  0  0  0  0  0
   44.6020   36.1200   44.4770 C   0  0  0  0  0  0  0  0  0  0  0  0
   45.4520   35.9470   43.3690 C   0  0  0  0  0  0  0  0  0  0  0  0
   46.2720   34.8070   43.3700 C   0  0  0  0  0  0  0  0  0  0  0  0
   46.1830   33.9480   44.4520 N   0  0  0  0  0  0  0  0  0  0  0  0
   45.3550   34.1670   45.4750 C   0  0  0  0  0  0  0  0  0  0  0  0
   44.5670   35.2450   45.4920 N   0  0  0  0  0  0  0  0  0  0  0  0
   45.2900   33.8330   40.8970 C   0  0  0  0  0  0  0  0  0  0  0  0
   45.0920   33.2530   39.6650 F   0  0  0  0  0  0  0  0  0  0  0  0
   45.1640   32.9420   41.9150 F   0  0  0  0  0  0  0  0  0  0  0  0
   44.3210   34.8080   41.0420 F   0  0  0  0  0  0  0  0  0  0  0  0
   49.1043   35.1809   42.7627 H   0  0  0  0  0  0  0  0  0  0  0  0
   48.6044   33.6320   43.5395 H   0  0  0  0  0  0  0  0  0  0  0  0
   50.2903   33.3872   41.6861 H   0  0  0  0  0  0  0  0  0  0  0  0
   48.7980   32.4454   41.4554 H   0  0  0  0  0  0  0  0  0  0  0  0
   49.0981   35.2064   40.4145 H   0  0  0  0  0  0  0  0  0  0  0  0
   47.3422   34.3696   38.9608 H   0  0  0  0  0  0  0  0  0  0  0  0
   47.4172   32.8415   39.9260 H   0  0  0  0  0  0  0  0  0  0  0  0
   46.5173   35.5877   40.7227 H   0  0  0  0  0  0  0  0  0  0  0  0
   43.9451   37.0016   44.5114 H   0  0  0  0  0  0  0  0  0  0  0  0
   45.4731   36.6708   42.5409 H   0  0  0  0  0  0  0  0  0  0  0  0
   45.3211   33.4535   46.3115 H   0  0  0  0  0  0  0  0  0  0  0  0
  1  2  1  0
  1  9  1  0
  3  2  1  0
  4  3  1  0
  5  4  1  0
  5  6  1  0
  6  1  1  0
  7 12  2  0
  8  9  2  0
  8  7  1  0
  9 10  1  0
 10 11  2  0
 11 12  1  0
 13  6  1  0
 13 16  1  0
 13 15  1  0
 14 13  1  0
  2 17  1  0
  2 18  1  0
  3 19  1  0
  3 20  1  0
  4 21  1  0
  5 22  1  0
  5 23  1  0
  6 24  1  6
  7 25  1  0
  8 26  1  0
 11 27  1  0
M  ISO  8  17  13  18  13  19  13  20  13  21   5  22  13  23  13  24  13
M  ISO  3  25  14  26  14  27  14
M  END
>  <minimizedAffinity>  (1) 
-4.59877682

>  <minimizedRMSD>  (1) 
0.771579623

$$$$
