
     RDKit          3D

 36 38  0  0  1  0  0  0  0  0999 V2000
   46.2130   34.4000   41.8640 N   0  0  0  0  0  0  0  0  0  0  0  0
   47.4600   35.0010   41.4500 C   0  0  0  0  0  0  0  0  0  0  0  0
   48.0770   34.2050   40.3460 C   0  0  0  0  0  0  0  0  0  0  0  0
   47.0700   34.0700   39.3150 N   0  0  0  0  0  0  0  0  0  0  0  0
   46.1640   33.0440   39.8060 C   0  0  0  0  0  0  0  0  0  0  0  0
   45.4340   33.5190   41.0360 C   0  0  2  0  0  0  0  0  0  0  0  0
   44.5220   36.0430   44.7780 C   0  0  0  0  0  0  0  0  0  0  0  0
   44.9970   35.8360   43.4840 C   0  0  0  0  0  0  0  0  0  0  0  0
   45.7010   34.6740   43.1580 C   0  0  0  0  0  0  0  0  0  0  0  0
   45.8780   33.7880   44.1790 N   0  0  0  0  0  0  0  0  0  0  0  0
   45.4110   34.0030   45.4250 C   0  0  0  0  0  0  0  0  0  0  0  0
   44.7440   35.1150   45.7150 N   0  0  0  0  0  0  0  0  0  0  0  0
   44.1020   33.9530   40.7590 N   0  0  0  0  0  0  0  0  0  0  0  0
   43.6920   33.9730   39.4050 C   0  0  0  0  0  0  0  0  0  0  0  0
   42.1670   33.9520   39.5520 C   0  0  0  0  0  0  0  0  0  0  0  0
   42.0280   32.8270   40.5730 C   0  0  0  0  0  0  0  0  0  0  0  0
   43.1790   33.1370   41.5070 C   0  0  0  0  0  0  0  0  0  0  0  0
   47.2697   36.0252   41.0966 H   0  0  0  0  0  0  0  0  0  0  0  0
   48.1500   35.0205   42.3065 H   0  0  0  0  0  0  0  0  0  0  0  0
   48.9585   34.7290   39.9481 H   0  0  0  0  0  0  0  0  0  0  0  0
   48.4075   33.2197   40.7066 H   0  0  0  0  0  0  0  0  0  0  0  0
   47.4995   33.7782   38.4255 H   0  0  0  0  0  0  0  0  0  0  0  0
   45.4310   32.8046   39.0215 H   0  0  0  0  0  0  0  0  0  0  0  0
   46.7508   32.1509   40.0670 H   0  0  0  0  0  0  0  0  0  0  0  0
   45.2968   32.6343   41.6751 H   0  0  0  0  0  0  0  0  0  0  0  0
   43.9696   36.9613   45.0262 H   0  0  0  0  0  0  0  0  0  0  0  0
   44.8154   36.5965   42.7103 H   0  0  0  0  0  0  0  0  0  0  0  0
   45.5837   33.2510   46.2090 H   0  0  0  0  0  0  0  0  0  0  0  0
   44.0347   34.8849   38.8941 H   0  0  0  0  0  0  0  0  0  0  0  0
   44.0973   33.1488   38.7997 H   0  0  0  0  0  0  0  0  0  0  0  0
   41.7787   34.9063   39.9375 H   0  0  0  0  0  0  0  0  0  0  0  0
   41.6083   33.8062   38.6157 H   0  0  0  0  0  0  0  0  0  0  0  0
   41.0609   32.8732   41.0952 H   0  0  0  0  0  0  0  0  0  0  0  0
   42.0567   31.8165   40.1395 H   0  0  0  0  0  0  0  0  0  0  0  0
   43.6689   32.2062   41.8290 H   0  0  0  0  0  0  0  0  0  0  0  0
   42.8297   33.6569   42.4113 H   0  0  0  0  0  0  0  0  0  0  0  0
  1  9  1  0
  2  1  1  0
  3  2  1  0
  4  5  1  0
  4  3  1  0
  5  6  1  0
  6  1  1  0
  7 12  2  0
  8  7  1  0
  9  8  2  0
  9 10  1  0
 10 11  2  0
 11 12  1  0
 13 14  1  0
 13  6  1  0
 13 17  1  0
 14 15  1  0
 15 16  1  0
 16 17  1  0
  2 18  1  0
  2 19  1  0
  3 20  1  0
  3 21  1  0
  4 22  1  0
  5 23  1  0
  5 24  1  0
  6 25  1  1
  7 26  1  0
  8 27  1  0
 11 28  1  0
 14 29  1  0
 14 30  1  0
 15 31  1  0
 15 32  1  0
 16 33  1  0
 16 34  1  0
 17 35  1  0
 17 36  1  0
M  ISO  8  18  13  19  13  20  13  21  13  22   5  23  13  24  13  25  13
M  ISO  8  26  14  27  14  28  14  29  13  30  13  31  13  32  13  33  13
M  ISO  3  34  13  35  13  36  13
M  END
>  <minimizedAffinity>  (1) 
-4.5905838

>  <minimizedRMSD>  (1) 
1.32276607

$$$$
