
     RDKit          3D

 31 33  0  0  1  0  0  0  0  0999 V2000
   46.5370   34.6240   41.9980 N   0  0  0  0  0  0  0  0  0  0  0  0
   47.9000   35.0870   41.8180 C   0  0  0  0  0  0  0  0  0  0  0  0
   48.5580   34.3530   40.7030 C   0  0  0  0  0  0  0  0  0  0  0  0
   47.6950   34.4960   39.5310 N   0  0  0  0  0  0  0  0  0  0  0  0
   46.5730   33.6330   39.7540 C   0  0  0  0  0  0  0  0  0  0  0  0
   45.8100   33.8820   41.0070 C   0  0  2  0  0  0  0  0  0  0  0  0
   44.5220   36.1930   44.7270 C   0  0  0  0  0  0  0  0  0  0  0  0
   45.1380   36.0660   43.4700 C   0  0  0  0  0  0  0  0  0  0  0  0
   45.8810   34.9030   43.2400 C   0  0  0  0  0  0  0  0  0  0  0  0
   45.9720   33.9540   44.2480 N   0  0  0  0  0  0  0  0  0  0  0  0
   45.3590   34.1370   45.4290 C   0  0  0  0  0  0  0  0  0  0  0  0
   44.6370   35.2530   45.6630 N   0  0  0  0  0  0  0  0  0  0  0  0
   44.4010   34.2520   40.7480 C   0  0  0  0  0  0  0  0  0  0  0  0
   43.2330   33.3940   41.0170 C   0  0  0  0  0  0  0  0  0  0  0  0
   43.7190   33.5930   39.5550 C   0  0  0  0  0  0  0  0  0  0  0  0
   47.8892   36.1623   41.5867 H   0  0  0  0  0  0  0  0  0  0  0  0
   48.4629   34.9036   42.7451 H   0  0  0  0  0  0  0  0  0  0  0  0
   49.5485   34.7855   40.4982 H   0  0  0  0  0  0  0  0  0  0  0  0
   48.7000   33.2929   40.9598 H   0  0  0  0  0  0  0  0  0  0  0  0
   48.1998   34.2127   38.6790 H   0  0  0  0  0  0  0  0  0  0  0  0
   45.8811   33.7516   38.9071 H   0  0  0  0  0  0  0  0  0  0  0  0
   46.9877   32.6187   39.8505 H   0  0  0  0  0  0  0  0  0  0  0  0
   45.7028   32.9208   41.5310 H   0  0  0  0  0  0  0  0  0  0  0  0
   43.9287   37.0936   44.9434 H   0  0  0  0  0  0  0  0  0  0  0  0
   45.0402   36.8465   42.7011 H   0  0  0  0  0  0  0  0  0  0  0  0
   45.4462   33.3701   46.2128 H   0  0  0  0  0  0  0  0  0  0  0  0
   44.6328   35.2712   41.0907 H   0  0  0  0  0  0  0  0  0  0  0  0
   43.3688   32.4216   41.5131 H   0  0  0  0  0  0  0  0  0  0  0  0
   42.2755   33.5294   41.5412 H   0  0  0  0  0  0  0  0  0  0  0  0
   43.1285   34.1944   38.8482 H   0  0  0  0  0  0  0  0  0  0  0  0
   44.0276   32.9400   38.7253 H   0  0  0  0  0  0  0  0  0  0  0  0
  1  9  1  0
  2  1  1  0
  3  2  1  0
  4  5  1  0
  4  3  1  0
  5  6  1  0
  6  1  1  0
  7 12  2  0
  8  7  1  0
  9  8  2  0
  9 10  1  0
 10 11  2  0
 11 12  1  0
 13  6  1  0
 13 14  1  0
 15 13  1  0
 15 14  1  0
  2 16  1  0
  2 17  1  0
  3 18  1  0
  3 19  1  0
  4 20  1  0
  5 21  1  0
  5 22  1  0
  6 23  1  1
  7 24  1  0
  8 25  1  0
 11 26  1  0
 13 27  1  0
 14 28  1  0
 14 29  1  0
 15 30  1  0
 15 31  1  0
M  ISO  8  16  13  17  13  18  13  19  13  20   5  21  13  22  13  23  13
M  ISO  8  24  14  25  14  26  14  27  13  28  13  29  13  30  13  31  13
M  END
>  <minimizedAffinity>  (1) 
-4.51317072

>  <minimizedRMSD>  (1) 
0.851590455

$$$$
