
     RDKit          3D

 25 26  0  0  1  0  0  0  0  0999 V2000
   46.4400   34.5110   42.0430 N   0  0  0  0  0  0  0  0  0  0  0  0
   47.6140   35.2750   41.6920 C   0  0  0  0  0  0  0  0  0  0  0  0
   48.3860   34.5710   40.6150 C   0  0  0  0  0  0  0  0  0  0  0  0
   47.4700   34.2770   39.5420 N   0  0  0  0  0  0  0  0  0  0  0  0
   46.6420   33.1820   39.9880 C   0  0  0  0  0  0  0  0  0  0  0  0
   45.8170   33.5320   41.1890 C   0  0  2  0  0  0  0  0  0  0  0  0
   44.5100   35.9550   44.9020 C   0  0  0  0  0  0  0  0  0  0  0  0
   45.0550   35.8510   43.6210 C   0  0  0  0  0  0  0  0  0  0  0  0
   45.8340   34.7220   43.3240 C   0  0  0  0  0  0  0  0  0  0  0  0
   46.0120   33.7810   44.3220 N   0  0  0  0  0  0  0  0  0  0  0  0
   45.4600   33.9360   45.5410 C   0  0  0  0  0  0  0  0  0  0  0  0
   44.7150   35.0130   45.8300 N   0  0  0  0  0  0  0  0  0  0  0  0
   44.2240   34.1720   40.5630 S   0  0  0  0  0  0  0  0  0  0  0  0
   47.3072   36.2673   41.3299 H   0  0  0  0  0  0  0  0  0  0  0  0
   48.2528   35.3813   42.5812 H   0  0  0  0  0  0  0  0  0  0  0  0
   49.1959   35.2194   40.2494 H   0  0  0  0  0  0  0  0  0  0  0  0
   48.8344   33.6450   41.0042 H   0  0  0  0  0  0  0  0  0  0  0  0
   47.9907   34.0058   38.6957 H   0  0  0  0  0  0  0  0  0  0  0  0
   45.9665   32.8953   39.1686 H   0  0  0  0  0  0  0  0  0  0  0  0
   47.3097   32.3556   40.2732 H   0  0  0  0  0  0  0  0  0  0  0  0
   45.6915   32.6336   41.8111 H   0  0  0  0  0  0  0  0  0  0  0  0
   43.8971   36.8328   45.1547 H   0  0  0  0  0  0  0  0  0  0  0  0
   44.8789   36.6315   42.8661 H   0  0  0  0  0  0  0  0  0  0  0  0
   45.6228   33.1675   46.3110 H   0  0  0  0  0  0  0  0  0  0  0  0
   43.4153   34.4969   41.6201 H   0  0  0  0  0  0  0  0  0  0  0  0
  1  9  1  0
  2  1  1  0
  3  2  1  0
  4  5  1  0
  4  3  1  0
  5  6  1  0
  6  1  1  0
  7 12  2  0
  8  7  1  0
  9  8  2  0
  9 10  1  0
 10 11  2  0
 11 12  1  0
 13  6  1  0
  2 14  1  0
  2 15  1  0
  3 16  1  0
  3 17  1  0
  4 18  1  0
  5 19  1  0
  5 20  1  0
  6 21  1  1
  7 22  1  0
  8 23  1  0
 11 24  1  0
 13 25  1  0
M  ISO  8  14  13  15  13  16  13  17  13  18   5  19  13  20  13  21  13
M  ISO  4  22  14  23  14  24  14  25  11
M  END
>  <minimizedAffinity>  (1) 
-4.15405083

>  <minimizedRMSD>  (1) 
0.76957202

$$$$
