
     RDKit          3D

 49 54  0  0  1  0  0  0  0  0999 V2000
   46.9550   34.6370   42.2190 N   0  0  0  0  0  0  0  0  0  0  0  0
   48.3870   34.6910   42.3540 C   0  0  0  0  0  0  0  0  0  0  0  0
   49.0400   33.9460   41.2400 C   0  0  0  0  0  0  0  0  0  0  0  0
   48.5070   34.4740   39.9880 N   0  0  0  0  0  0  0  0  0  0  0  0
   47.1860   33.8890   39.8820 C   0  0  0  0  0  0  0  0  0  0  0  0
   46.2700   34.3840   40.9770 C   0  0  1  0  0  0  0  0  0  0  0  0
   45.1180   33.5430   41.0880 N   0  0  0  0  0  0  0  0  0  0  0  0
   45.0480   32.2420   41.4160 C   0  0  0  0  0  0  0  0  0  0  0  0
   43.7640   31.7880   41.4150 N   0  0  0  0  0  0  0  0  0  0  0  0
   42.9750   32.8190   41.0770 C   0  0  0  0  0  0  0  0  0  0  0  0
   41.6250   33.0120   40.9050 C   0  0  0  0  0  0  0  0  0  0  0  0
   41.1430   34.2400   40.5440 N   0  0  0  0  0  0  0  0  0  0  0  0
   42.0060   35.2570   40.3620 C   0  0  0  0  0  0  0  0  0  0  0  0
   43.3320   35.0990   40.5240 N   0  0  0  0  0  0  0  0  0  0  0  0
   43.8210   33.8830   40.8820 C   0  0  0  0  0  0  0  0  0  0  0  0
   44.5140   36.0570   44.6650 C   0  0  0  0  0  0  0  0  0  0  0  0
   45.2670   35.9260   43.5070 C   0  0  0  0  0  0  0  0  0  0  0  0
   46.1540   34.8420   43.3640 C   0  0  0  0  0  0  0  0  0  0  0  0
   46.1900   33.9850   44.4250 N   0  0  0  0  0  0  0  0  0  0  0  0
   45.4640   34.1200   45.5320 C   0  0  0  0  0  0  0  0  0  0  0  0
   44.6310   35.1480   45.6500 N   0  0  0  0  0  0  0  0  0  0  0  0
   45.5800   33.1390   46.6140 C   0  0  0  0  0  0  0  0  0  0  0  0
   44.9640   33.2280   47.8310 C   0  0  0  0  0  0  0  0  0  0  0  0
   45.3200   32.1310   48.5500 N   0  0  0  0  0  0  0  0  0  0  0  0
   46.1440   31.3590   47.8100 C   0  0  0  0  0  0  0  0  0  0  0  0
   46.7840   30.1580   48.0560 C   0  0  0  0  0  0  0  0  0  0  0  0
   47.5920   29.6000   47.0590 C   0  0  0  0  0  0  0  0  0  0  0  0
   47.7640   30.2220   45.8400 C   0  0  0  0  0  0  0  0  0  0  0  0
   47.1190   31.4210   45.6100 C   0  0  0  0  0  0  0  0  0  0  0  0
   46.3210   31.9730   46.5900 C   0  0  0  0  0  0  0  0  0  0  0  0
   48.7145   35.7408   42.3295 H   0  0  0  0  0  0  0  0  0  0  0  0
   48.6740   34.2290   43.3101 H   0  0  0  0  0  0  0  0  0  0  0  0
   50.1293   34.0942   41.2767 H   0  0  0  0  0  0  0  0  0  0  0  0
   48.8375   32.8680   41.3235 H   0  0  0  0  0  0  0  0  0  0  0  0
   48.4486   35.5018   40.0217 H   0  0  0  0  0  0  0  0  0  0  0  0
   46.7539   34.1570   38.9066 H   0  0  0  0  0  0  0  0  0  0  0  0
   47.2835   32.7979   39.9815 H   0  0  0  0  0  0  0  0  0  0  0  0
   45.8985   35.3783   40.6881 H   0  0  0  0  0  0  0  0  0  0  0  0
   45.9221   31.6189   41.6563 H   0  0  0  0  0  0  0  0  0  0  0  0
   40.9286   32.1744   41.0585 H   0  0  0  0  0  0  0  0  0  0  0  0
   41.6162   36.2442   40.0729 H   0  0  0  0  0  0  0  0  0  0  0  0
   43.8213   36.9041   44.7777 H   0  0  0  0  0  0  0  0  0  0  0  0
   45.1710   36.6686   42.7012 H   0  0  0  0  0  0  0  0  0  0  0  0
   44.3013   34.0392   48.1670 H   0  0  0  0  0  0  0  0  0  0  0  0
   45.0096   31.9214   49.5095 H   0  0  0  0  0  0  0  0  0  0  0  0
   46.6596   29.6480   49.0227 H   0  0  0  0  0  0  0  0  0  0  0  0
   48.1012   28.6442   47.2517 H   0  0  0  0  0  0  0  0  0  0  0  0
   48.4027   29.7715   45.0660 H   0  0  0  0  0  0  0  0  0  0  0  0
   47.2416   31.9356   44.6456 H   0  0  0  0  0  0  0  0  0  0  0  0
  1  2  1  0
  1 18  1  0
  3  2  1  0
  4  3  1  0
  5  4  1  0
  5  6  1  0
  6  7  1  0
  6  1  1  0
  7  8  1  0
  9  8  2  0
 10  9  1  0
 11 10  2  0
 12 11  1  0
 13 14  1  0
 13 12  2  0
 14 15  2  0
 15 10  1  0
 15  7  1  0
 16 21  2  0
 17 16  1  0
 18 17  2  0
 18 19  1  0
 19 20  2  0
 20 21  1  0
 20 22  1  0
 22 23  2  0
 23 24  1  0
 25 26  2  0
 25 24  1  0
 27 26  1  0
 28 27  2  0
 29 28  1  0
 29 30  2  0
 30 22  1  0
 30 25  1  0
  2 31  1  0
  2 32  1  0
  3 33  1  0
  3 34  1  0
  4 35  1  0
  5 36  1  0
  5 37  1  0
  6 38  1  6
  8 39  1  0
 11 40  1  0
 13 41  1  0
 16 42  1  0
 17 43  1  0
 23 44  1  0
 24 45  1  0
 26 46  1  0
 27 47  1  0
 28 48  1  0
 29 49  1  0
M  ISO  8  31  13  32  13  33  13  34  13  35   5  36  13  37  13  38  13
M  ISO  8  39  14  40  14  41  14  42  14  43  14  44  14  45   9  46  14
M  ISO  3  47  14  48  14  49  14
M  END
>  <minimizedAffinity>  (1) 
-7.3801465

>  <minimizedRMSD>  (1) 
0.471270412

$$$$
