
     RDKit          3D

 49 54  0  0  1  0  0  0  0  0999 V2000
   46.9780   34.5200   42.4190 N   0  0  0  0  0  0  0  0  0  0  0  0
   48.4160   34.5840   42.4610 C   0  0  0  0  0  0  0  0  0  0  0  0
   49.0160   34.0130   41.2330 C   0  0  0  0  0  0  0  0  0  0  0  0
   48.3860   34.6600   40.0890 N   0  0  0  0  0  0  0  0  0  0  0  0
   47.0770   34.0880   39.9920 C   0  0  0  0  0  0  0  0  0  0  0  0
   46.2200   34.4020   41.1880 C   0  0  1  0  0  0  0  0  0  0  0  0
   45.1000   33.5140   41.2610 N   0  0  0  0  0  0  0  0  0  0  0  0
   45.0700   32.1970   41.4520 C   0  0  0  0  0  0  0  0  0  0  0  0
   43.8070   31.6990   41.4590 N   0  0  0  0  0  0  0  0  0  0  0  0
   42.9710   32.7320   41.2650 C   0  0  0  0  0  0  0  0  0  0  0  0
   41.6020   32.9190   41.1680 C   0  0  0  0  0  0  0  0  0  0  0  0
   41.0770   34.1540   40.9620 N   0  0  0  0  0  0  0  0  0  0  0  0
   41.9090   35.2250   40.8480 C   0  0  0  0  0  0  0  0  0  0  0  0
   43.2430   35.0850   40.9370 N   0  0  0  0  0  0  0  0  0  0  0  0
   43.7820   33.8490   41.1450 C   0  0  0  0  0  0  0  0  0  0  0  0
   44.5960   35.4880   45.1200 C   0  0  0  0  0  0  0  0  0  0  0  0
   45.2720   35.5330   43.9030 C   0  0  0  0  0  0  0  0  0  0  0  0
   46.2360   34.5740   43.6250 C   0  0  0  0  0  0  0  0  0  0  0  0
   46.4150   33.6720   44.6050 N   0  0  0  0  0  0  0  0  0  0  0  0
   45.8010   33.5910   45.7640 C   0  0  0  0  0  0  0  0  0  0  0  0
   44.8760   34.5200   46.0190 N   0  0  0  0  0  0  0  0  0  0  0  0
   45.9510   32.6480   46.8460 C   0  0  0  0  0  0  0  0  0  0  0  0
   45.4030   32.8140   48.0570 N   0  0  0  0  0  0  0  0  0  0  0  0
   45.5140   31.9720   49.0910 C   0  0  0  0  0  0  0  0  0  0  0  0
   46.2110   30.8360   49.0050 N   0  0  0  0  0  0  0  0  0  0  0  0
   46.8070   30.5660   47.8310 C   0  0  0  0  0  0  0  0  0  0  0  0
   47.5320   29.4040   47.7180 C   0  0  0  0  0  0  0  0  0  0  0  0
   48.1570   29.0750   46.5520 C   0  0  0  0  0  0  0  0  0  0  0  0
   48.0370   29.9620   45.4760 C   0  0  0  0  0  0  0  0  0  0  0  0
   47.3030   31.1050   45.6460 C   0  0  0  0  0  0  0  0  0  0  0  0
   46.6580   31.4680   46.8060 C   0  0  0  0  0  0  0  0  0  0  0  0
   48.7253   35.6354   42.5555 H   0  0  0  0  0  0  0  0  0  0  0  0
   48.7647   33.9968   43.3233 H   0  0  0  0  0  0  0  0  0  0  0  0
   50.0992   34.2041   41.2217 H   0  0  0  0  0  0  0  0  0  0  0  0
   48.8561   32.9253   41.1963 H   0  0  0  0  0  0  0  0  0  0  0  0
   48.3231   35.6767   40.2412 H   0  0  0  0  0  0  0  0  0  0  0  0
   46.5848   34.4845   39.0917 H   0  0  0  0  0  0  0  0  0  0  0  0
   47.1930   32.9953   39.9421 H   0  0  0  0  0  0  0  0  0  0  0  0
   45.8027   35.4099   41.0468 H   0  0  0  0  0  0  0  0  0  0  0  0
   45.9701   31.5797   41.5892 H   0  0  0  0  0  0  0  0  0  0  0  0
   40.9296   32.0533   41.2593 H   0  0  0  0  0  0  0  0  0  0  0  0
   41.4816   36.2245   40.6798 H   0  0  0  0  0  0  0  0  0  0  0  0
   43.8308   36.2441   45.3498 H   0  0  0  0  0  0  0  0  0  0  0  0
   45.0441   36.3206   43.1697 H   0  0  0  0  0  0  0  0  0  0  0  0
   45.0167   32.2228   50.0396 H   0  0  0  0  0  0  0  0  0  0  0  0
   47.6093   28.7283   48.5826 H   0  0  0  0  0  0  0  0  0  0  0  0
   48.7359   28.1442   46.4600 H   0  0  0  0  0  0  0  0  0  0  0  0
   48.5227   29.7451   44.5132 H   0  0  0  0  0  0  0  0  0  0  0  0
   47.2224   31.7874   44.7871 H   0  0  0  0  0  0  0  0  0  0  0  0
  1  2  1  0
  1 18  1  0
  3  2  1  0
  4  3  1  0
  5  4  1  0
  5  6  1  0
  6  7  1  0
  6  1  1  0
  7  8  1  0
  8  9  2  0
 10  9  1  0
 11 10  2  0
 12 11  1  0
 13 14  1  0
 13 12  2  0
 14 15  2  0
 15  7  1  0
 15 10  1  0
 16 21  2  0
 17 16  1  0
 18 17  2  0
 18 19  1  0
 19 20  2  0
 20 21  1  0
 20 22  1  0
 22 23  2  0
 23 24  1  0
 25 24  2  0
 26 25  1  0
 27 26  2  0
 28 27  1  0
 29 30  1  0
 29 28  2  0
 30 31  2  0
 31 22  1  0
 31 26  1  0
  2 32  1  0
  2 33  1  0
  3 34  1  0
  3 35  1  0
  4 36  1  0
  5 37  1  0
  5 38  1  0
  6 39  1  6
  8 40  1  0
 11 41  1  0
 13 42  1  0
 16 43  1  0
 17 44  1  0
 24 45  1  0
 27 46  1  0
 28 47  1  0
 29 48  1  0
 30 49  1  0
M  ISO  8  32  13  33  13  34  13  35  13  36   5  37  13  38  13  39  13
M  ISO  8  40  14  41  14  42  14  43  14  44  14  45  14  46  14  47  14
M  ISO  2  48  14  49  14
M  END
>  <minimizedAffinity>  (1) 
-7.49954605

>  <minimizedRMSD>  (1) 
0.65549022

$$$$
