
     RDKit          3D

 44 48  0  0  1  0  0  0  0  0999 V2000
   46.8890   34.5010   42.4310 N   0  0  0  0  0  0  0  0  0  0  0  0
   48.3250   34.4920   42.5010 C   0  0  0  0  0  0  0  0  0  0  0  0
   48.9100   33.8270   41.3040 C   0  0  0  0  0  0  0  0  0  0  0  0
   48.3280   34.4790   40.1220 N   0  0  0  0  0  0  0  0  0  0  0  0
   46.9930   33.9530   40.0350 C   0  0  0  0  0  0  0  0  0  0  0  0
   46.1380   34.3830   41.2020 C   0  0  1  0  0  0  0  0  0  0  0  0
   44.9750   33.5450   41.2990 N   0  0  0  0  0  0  0  0  0  0  0  0
   44.8670   32.2530   41.5790 C   0  0  0  0  0  0  0  0  0  0  0  0
   43.5760   31.8220   41.5760 N   0  0  0  0  0  0  0  0  0  0  0  0
   42.8020   32.8980   41.2760 C   0  0  0  0  0  0  0  0  0  0  0  0
   41.4520   33.1280   41.1220 C   0  0  0  0  0  0  0  0  0  0  0  0
   41.0060   34.3730   40.8100 N   0  0  0  0  0  0  0  0  0  0  0  0
   41.8930   35.3670   40.6560 C   0  0  0  0  0  0  0  0  0  0  0  0
   43.2150   35.1720   40.8010 N   0  0  0  0  0  0  0  0  0  0  0  0
   43.6790   33.9360   41.1130 C   0  0  0  0  0  0  0  0  0  0  0  0
   44.4910   35.6880   45.0420 C   0  0  0  0  0  0  0  0  0  0  0  0
   45.1830   35.6380   43.8270 C   0  0  0  0  0  0  0  0  0  0  0  0
   46.1380   34.6320   43.6290 C   0  0  0  0  0  0  0  0  0  0  0  0
   46.3050   33.7750   44.6680 N   0  0  0  0  0  0  0  0  0  0  0  0
   45.6410   33.8340   45.8170 C   0  0  0  0  0  0  0  0  0  0  0  0
   44.7390   34.7760   46.0190 N   0  0  0  0  0  0  0  0  0  0  0  0
   45.9440   32.8330   46.8320 C   0  0  0  0  0  0  0  0  0  0  0  0
   45.1570   32.6310   47.9470 C   0  0  0  0  0  0  0  0  0  0  0  0
   45.3960   31.7030   48.9330 C   0  0  0  0  0  0  0  0  0  0  0  0
   46.5240   30.9170   48.7760 C   0  0  0  0  0  0  0  0  0  0  0  0
   47.3120   31.1180   47.6620 C   0  0  0  0  0  0  0  0  0  0  0  0
   47.0440   32.0490   46.7030 N   0  0  0  0  0  0  0  0  0  0  0  0
   48.6898   35.5285   42.5518 H   0  0  0  0  0  0  0  0  0  0  0  0
   48.6302   33.9335   43.3982 H   0  0  0  0  0  0  0  0  0  0  0  0
   50.0034   33.9473   41.3017 H   0  0  0  0  0  0  0  0  0  0  0  0
   48.6888   32.7495   41.3065 H   0  0  0  0  0  0  0  0  0  0  0  0
   48.3082   35.5015   40.2441 H   0  0  0  0  0  0  0  0  0  0  0  0
   46.5298   34.3122   39.1042 H   0  0  0  0  0  0  0  0  0  0  0  0
   47.0591   32.8551   40.0490 H   0  0  0  0  0  0  0  0  0  0  0  0
   45.7783   35.4054   41.0139 H   0  0  0  0  0  0  0  0  0  0  0  0
   45.7272   31.6008   41.7906 H   0  0  0  0  0  0  0  0  0  0  0  0
   40.7354   32.3036   41.2517 H   0  0  0  0  0  0  0  0  0  0  0  0
   41.5273   36.3732   40.4032 H   0  0  0  0  0  0  0  0  0  0  0  0
   43.7388   36.4732   45.2083 H   0  0  0  0  0  0  0  0  0  0  0  0
   44.9802   36.3778   43.0386 H   0  0  0  0  0  0  0  0  0  0  0  0
   44.2646   33.2647   48.0562 H   0  0  0  0  0  0  0  0  0  0  0  0
   44.7272   31.5915   49.7992 H   0  0  0  0  0  0  0  0  0  0  0  0
   46.7857   30.1511   49.5209 H   0  0  0  0  0  0  0  0  0  0  0  0
   48.2078   30.4913   47.5405 H   0  0  0  0  0  0  0  0  0  0  0  0
  1  2  1  0
  1 18  1  0
  3  2  1  0
  4  3  1  0
  5  4  1  0
  5  6  1  0
  6  7  1  0
  6  1  1  0
  7  8  1  0
  9  8  2  0
 10  9  1  0
 11 10  2  0
 12 11  1  0
 13 14  1  0
 13 12  2  0
 14 15  2  0
 15 10  1  0
 15  7  1  0
 16 21  2  0
 17 16  1  0
 18 17  2  0
 18 19  1  0
 19 20  2  0
 20 21  1  0
 20 22  1  0
 22 23  2  0
 23 24  1  0
 25 24  2  0
 26 25  1  0
 27 22  1  0
 27 26  2  0
  2 28  1  0
  2 29  1  0
  3 30  1  0
  3 31  1  0
  4 32  1  0
  5 33  1  0
  5 34  1  0
  6 35  1  6
  8 36  1  0
 11 37  1  0
 13 38  1  0
 16 39  1  0
 17 40  1  0
 23 41  1  0
 24 42  1  0
 25 43  1  0
 26 44  1  0
M  ISO  8  28  13  29  13  30  13  31  13  32   5  33  13  34  13  35  13
M  ISO  8  36  14  37  14  38  14  39  14  40  14  41  14  42  14  43  14
M  ISO  1  44  14
M  END
>  <minimizedAffinity>  (1) 
-7.19781446

>  <minimizedRMSD>  (1) 
0.592165947

$$$$
