
     RDKit          3D

 33 35  0  0  0  0  0  0  0  0999 V2000
   44.8300   35.6930   44.9320 C   0  0  0  0  0  0  0  0  0  0  0  0
   44.2090   35.5270   43.6790 C   0  0  0  0  0  0  0  0  0  0  0  0
   44.3080   34.2800   43.0930 C   0  0  0  0  0  0  0  0  0  0  0  0
   44.9730   33.2700   43.6990 N   0  0  0  0  0  0  0  0  0  0  0  0
   45.5680   33.4660   44.9210 C   0  0  0  0  0  0  0  0  0  0  0  0
   45.4890   34.6730   45.5210 N   0  0  0  0  0  0  0  0  0  0  0  0
   46.2810   32.3850   45.5720 C   0  0  0  0  0  0  0  0  0  0  0  0
   47.2560   31.5670   45.0050 C   0  0  0  0  0  0  0  0  0  0  0  0
   47.6890   30.6720   45.9300 N   0  0  0  0  0  0  0  0  0  0  0  0
   46.9860   30.9360   47.0580 C   0  0  0  0  0  0  0  0  0  0  0  0
   46.1330   31.9770   46.8380 N   0  0  0  0  0  0  0  0  0  0  0  0
   45.2100   32.5610   47.7990 C   0  0  0  0  0  0  0  0  0  0  0  0
   44.2210   31.6510   48.1850 F   0  0  0  0  0  0  0  0  0  0  0  0
   44.6170   33.7160   47.3060 F   0  0  0  0  0  0  0  0  0  0  0  0
   45.8900   32.8730   48.9770 F   0  0  0  0  0  0  0  0  0  0  0  0
   43.6970   34.0700   41.8320 N   0  0  0  0  0  0  0  0  0  0  0  0
   43.6970   35.1320   40.8460 C   0  0  0  0  0  0  0  0  0  0  0  0
   42.6190   34.7270   39.8320 C   0  0  0  0  0  0  0  0  0  0  0  0
   41.4810   34.3540   40.5300 O   0  0  0  0  0  0  0  0  0  0  0  0
   41.6170   33.1270   41.1400 C   0  0  0  0  0  0  0  0  0  0  0  0
   43.0660   32.8080   41.4980 C   0  0  0  0  0  0  0  0  0  0  0  0
   44.7772   36.6682   45.4381 H   0  0  0  0  0  0  0  0  0  0  0  0
   43.6702   36.3518   43.1897 H   0  0  0  0  0  0  0  0  0  0  0  0
   47.6188   31.6355   43.9688 H   0  0  0  0  0  0  0  0  0  0  0  0
   47.0881   30.3921   48.0087 H   0  0  0  0  0  0  0  0  0  0  0  0
   43.4460   36.0952   41.3142 H   0  0  0  0  0  0  0  0  0  0  0  0
   44.6826   35.2603   40.3746 H   0  0  0  0  0  0  0  0  0  0  0  0
   42.9773   33.8816   39.2263 H   0  0  0  0  0  0  0  0  0  0  0  0
   42.3930   35.5704   39.1629 H   0  0  0  0  0  0  0  0  0  0  0  0
   41.0171   33.1233   42.0620 H   0  0  0  0  0  0  0  0  0  0  0  0
   41.2726   32.3612   40.4294 H   0  0  0  0  0  0  0  0  0  0  0  0
   43.1027   32.1254   42.3598 H   0  0  0  0  0  0  0  0  0  0  0  0
   43.5824   32.3152   40.6611 H   0  0  0  0  0  0  0  0  0  0  0  0
  1  6  2  0
  2  1  1  0
  3  2  2  0
  3  4  1  0
  4  5  2  0
  5  6  1  0
  5  7  1  0
  7 11  1  0
  8  7  2  0
  8  9  1  0
  9 10  2  0
 11 10  1  0
 11 12  1  0
 12 13  1  0
 12 15  1  0
 14 12  1  0
 16  3  1  0
 17 16  1  0
 18 19  1  0
 18 17  1  0
 19 20  1  0
 20 21  1  0
 21 16  1  0
  1 22  1  0
  2 23  1  0
  8 24  1  0
 10 25  1  0
 17 26  1  0
 17 27  1  0
 18 28  1  0
 18 29  1  0
 20 30  1  0
 20 31  1  0
 21 32  1  0
 21 33  1  0
M  ISO  8  22  14  23  14  24  14  25  14  26  13  27  13  28  13  29  13
M  ISO  4  30  13  31  13  32  13  33  13
M  END
>  <minimizedAffinity>  (1) 
-5.19164038

>  <minimizedRMSD>  (1) 
0.551398098

$$$$
