
     RDKit          3D

 42 46  0  0  1  0  0  0  0  0999 V2000
   46.9610   34.5840   42.3090 N   0  0  0  0  0  0  0  0  0  0  0  0
   48.3990   34.6270   42.4110 C   0  0  0  0  0  0  0  0  0  0  0  0
   49.0320   33.9360   41.2550 C   0  0  0  0  0  0  0  0  0  0  0  0
   48.4670   34.5220   40.0400 N   0  0  0  0  0  0  0  0  0  0  0  0
   47.1430   33.9620   39.9390 C   0  0  0  0  0  0  0  0  0  0  0  0
   46.2490   34.4090   41.0740 C   0  0  1  0  0  0  0  0  0  0  0  0
   45.0950   33.5500   41.1640 N   0  0  0  0  0  0  0  0  0  0  0  0
   45.0120   32.2590   41.4840 C   0  0  0  0  0  0  0  0  0  0  0  0
   43.7360   31.8000   41.4590 N   0  0  0  0  0  0  0  0  0  0  0  0
   42.9500   32.8310   41.1090 C   0  0  0  0  0  0  0  0  0  0  0  0
   41.6070   33.0330   40.9080 C   0  0  0  0  0  0  0  0  0  0  0  0
   41.1330   34.2510   40.5440 N   0  0  0  0  0  0  0  0  0  0  0  0
   41.9910   35.2690   40.3800 C   0  0  0  0  0  0  0  0  0  0  0  0
   43.3170   35.1100   40.5690 N   0  0  0  0  0  0  0  0  0  0  0  0
   43.7990   33.8960   40.9320 C   0  0  0  0  0  0  0  0  0  0  0  0
   44.5190   35.8140   44.8500 C   0  0  0  0  0  0  0  0  0  0  0  0
   45.2440   35.7460   43.6680 C   0  0  0  0  0  0  0  0  0  0  0  0
   46.1860   34.7230   43.4790 C   0  0  0  0  0  0  0  0  0  0  0  0
   46.3060   33.8470   44.5230 N   0  0  0  0  0  0  0  0  0  0  0  0
   45.5990   33.9270   45.6520 C   0  0  0  0  0  0  0  0  0  0  0  0
   44.7140   34.8910   45.8300 N   0  0  0  0  0  0  0  0  0  0  0  0
   45.8260   32.9210   46.7020 C   0  0  0  0  0  0  0  0  0  0  0  0
   45.1090   32.8130   47.8840 C   0  0  0  0  0  0  0  0  0  0  0  0
   45.4250   31.8350   48.7640 C   0  0  0  0  0  0  0  0  0  0  0  0
   46.4850   30.9410   48.4570 C   0  0  0  0  0  0  0  0  0  0  0  0
   47.0310   31.6060   46.7620 S   0  0  0  0  0  0  0  0  0  0  0  0
   48.7280   35.6765   42.4280 H   0  0  0  0  0  0  0  0  0  0  0  0
   48.7021   34.1155   43.3364 H   0  0  0  0  0  0  0  0  0  0  0  0
   50.1213   34.0876   41.2754 H   0  0  0  0  0  0  0  0  0  0  0  0
   48.8393   32.8537   41.2932 H   0  0  0  0  0  0  0  0  0  0  0  0
   48.4214   35.5479   40.1198 H   0  0  0  0  0  0  0  0  0  0  0  0
   46.6943   34.2815   38.9869 H   0  0  0  0  0  0  0  0  0  0  0  0
   47.2333   32.8669   39.9896 H   0  0  0  0  0  0  0  0  0  0  0  0
   45.8737   35.4181   40.8487 H   0  0  0  0  0  0  0  0  0  0  0  0
   45.8813   31.6353   41.7398 H   0  0  0  0  0  0  0  0  0  0  0  0
   40.9060   32.1963   41.0439 H   0  0  0  0  0  0  0  0  0  0  0  0
   41.6045   36.2556   40.0847 H   0  0  0  0  0  0  0  0  0  0  0  0
   43.7830   36.6185   44.9948 H   0  0  0  0  0  0  0  0  0  0  0  0
   45.0800   36.4946   42.8789 H   0  0  0  0  0  0  0  0  0  0  0  0
   44.2915   33.5154   48.1040 H   0  0  0  0  0  0  0  0  0  0  0  0
   44.8672   31.7335   49.7066 H   0  0  0  0  0  0  0  0  0  0  0  0
   46.8810   30.0962   49.0397 H   0  0  0  0  0  0  0  0  0  0  0  0
  1  2  1  0
  1 18  1  0
  3  2  1  0
  4  3  1  0
  5  4  1  0
  5  6  1  0
  6  7  1  0
  6  1  1  0
  7  8  1  0
  9  8  2  0
 10  9  1  0
 11 10  2  0
 12 11  1  0
 13 12  2  0
 13 14  1  0
 14 15  2  0
 15 10  1  0
 15  7  1  0
 16 21  2  0
 17 16  1  0
 18 17  2  0
 18 19  1  0
 19 20  2  0
 20 21  1  0
 20 22  1  0
 22 26  1  0
 22 23  2  0
 23 24  1  0
 25 24  2  0
 26 25  1  0
  2 27  1  0
  2 28  1  0
  3 29  1  0
  3 30  1  0
  4 31  1  0
  5 32  1  0
  5 33  1  0
  6 34  1  6
  8 35  1  0
 11 36  1  0
 13 37  1  0
 16 38  1  0
 17 39  1  0
 23 40  1  0
 24 41  1  0
 25 42  1  0
M  ISO  8  27  13  28  13  29  13  30  13  31   5  32  13  33  13  34  13
M  ISO  8  35  14  36  14  37  14  38  14  39  14  40  14  41  14  42  14
M  END
>  <minimizedAffinity>  (1) 
-6.86098576

>  <minimizedRMSD>  (1) 
0.505450785

$$$$
