
     RDKit          3D

 38 41  0  0  1  0  0  0  0  0999 V2000
   46.9230   34.6230   42.2720 N   0  0  0  0  0  0  0  0  0  0  0  0
   48.3690   34.6670   42.3760 C   0  0  0  0  0  0  0  0  0  0  0  0
   49.0010   33.9690   41.2320 C   0  0  0  0  0  0  0  0  0  0  0  0
   48.4340   34.5280   40.0090 N   0  0  0  0  0  0  0  0  0  0  0  0
   47.1120   33.9720   39.9080 C   0  0  0  0  0  0  0  0  0  0  0  0
   46.2200   34.4190   41.0370 C   0  0  1  0  0  0  0  0  0  0  0  0
   45.0780   33.5540   41.1490 N   0  0  0  0  0  0  0  0  0  0  0  0
   45.0140   32.2490   41.4100 C   0  0  0  0  0  0  0  0  0  0  0  0
   43.7400   31.7820   41.4330 N   0  0  0  0  0  0  0  0  0  0  0  0
   42.9310   32.8210   41.1780 C   0  0  0  0  0  0  0  0  0  0  0  0
   41.5730   33.0390   41.0580 C   0  0  0  0  0  0  0  0  0  0  0  0
   41.0750   34.2670   40.7820 N   0  0  0  0  0  0  0  0  0  0  0  0
   41.9300   35.3030   40.6200 C   0  0  0  0  0  0  0  0  0  0  0  0
   43.2580   35.1310   40.7290 N   0  0  0  0  0  0  0  0  0  0  0  0
   43.7670   33.9080   41.0050 C   0  0  0  0  0  0  0  0  0  0  0  0
   44.5140   35.9110   44.8250 C   0  0  0  0  0  0  0  0  0  0  0  0
   45.2400   35.8270   43.6330 C   0  0  0  0  0  0  0  0  0  0  0  0
   46.1450   34.7900   43.4460 C   0  0  0  0  0  0  0  0  0  0  0  0
   46.2550   33.9040   44.4830 N   0  0  0  0  0  0  0  0  0  0  0  0
   45.5510   34.0000   45.6190 C   0  0  0  0  0  0  0  0  0  0  0  0
   44.6870   34.9940   45.7940 N   0  0  0  0  0  0  0  0  0  0  0  0
   45.7670   32.9650   46.6750 C   0  0  0  0  0  0  0  0  0  0  0  0
   44.8230   33.0620   47.6640 F   0  0  0  0  0  0  0  0  0  0  0  0
   45.6410   31.7470   46.0380 F   0  0  0  0  0  0  0  0  0  0  0  0
   47.0620   33.0390   47.1750 F   0  0  0  0  0  0  0  0  0  0  0  0
   48.6981   35.7166   42.3843 H   0  0  0  0  0  0  0  0  0  0  0  0
   48.6708   34.1634   43.3062 H   0  0  0  0  0  0  0  0  0  0  0  0
   50.0891   34.1294   41.2489 H   0  0  0  0  0  0  0  0  0  0  0  0
   48.8125   32.8866   41.2867 H   0  0  0  0  0  0  0  0  0  0  0  0
   48.3886   35.5552   40.0703 H   0  0  0  0  0  0  0  0  0  0  0  0
   46.6649   34.2916   38.9552 H   0  0  0  0  0  0  0  0  0  0  0  0
   47.2008   32.8768   39.9605 H   0  0  0  0  0  0  0  0  0  0  0  0
   45.8401   35.4206   40.7870 H   0  0  0  0  0  0  0  0  0  0  0  0
   45.8978   31.6186   41.5875 H   0  0  0  0  0  0  0  0  0  0  0  0
   40.8797   32.1952   41.1897 H   0  0  0  0  0  0  0  0  0  0  0  0
   41.5310   36.3032   40.3952 H   0  0  0  0  0  0  0  0  0  0  0  0
   43.7968   36.7321   44.9714 H   0  0  0  0  0  0  0  0  0  0  0  0
   45.0948   36.5806   42.8450 H   0  0  0  0  0  0  0  0  0  0  0  0
  1  2  1  0
  1 18  1  0
  3  2  1  0
  4  3  1  0
  5  4  1  0
  5  6  1  0
  6  7  1  0
  6  1  1  0
  7  8  1  0
  8  9  2  0
 10  9  1  0
 11 10  2  0
 12 11  1  0
 13 14  1  0
 13 12  2  0
 14 15  2  0
 15  7  1  0
 15 10  1  0
 16 21  2  0
 17 16  1  0
 18 17  2  0
 18 19  1  0
 19 20  2  0
 20 21  1  0
 20 22  1  0
 22 25  1  0
 22 23  1  0
 24 22  1  0
  2 26  1  0
  2 27  1  0
  3 28  1  0
  3 29  1  0
  4 30  1  0
  5 31  1  0
  5 32  1  0
  6 33  1  6
  8 34  1  0
 11 35  1  0
 13 36  1  0
 16 37  1  0
 17 38  1  0
M  ISO  8  26  13  27  13  28  13  29  13  30   5  31  13  32  13  33  13
M  ISO  5  34  14  35  14  36  14  37  14  38  14
M  END
>  <minimizedAffinity>  (1) 
-6.60235262

>  <minimizedRMSD>  (1) 
0.172891974

$$$$
