
     RDKit          3D

 47 50  0  0  1  0  0  0  0  0999 V2000
   46.9870   34.4550   42.6390 N   0  0  0  0  0  0  0  0  0  0  0  0
   48.4290   34.4440   42.7200 C   0  0  0  0  0  0  0  0  0  0  0  0
   49.0140   33.8900   41.4600 C   0  0  0  0  0  0  0  0  0  0  0  0
   48.4370   34.6500   40.3460 N   0  0  0  0  0  0  0  0  0  0  0  0
   47.1000   34.1320   40.2160 C   0  0  0  0  0  0  0  0  0  0  0  0
   46.2440   34.4520   41.4110 C   0  0  1  0  0  0  0  0  0  0  0  0
   45.0760   33.6010   41.4330 N   0  0  0  0  0  0  0  0  0  0  0  0
   44.9770   32.2840   41.5650 C   0  0  0  0  0  0  0  0  0  0  0  0
   43.6800   31.8550   41.5350 N   0  0  0  0  0  0  0  0  0  0  0  0
   42.9060   32.9500   41.3760 C   0  0  0  0  0  0  0  0  0  0  0  0
   41.5540   33.1890   41.2740 C   0  0  0  0  0  0  0  0  0  0  0  0
   41.1020   34.4660   41.1150 N   0  0  0  0  0  0  0  0  0  0  0  0
   41.9870   35.4840   41.0600 C   0  0  0  0  0  0  0  0  0  0  0  0
   43.3080   35.2690   41.1580 N   0  0  0  0  0  0  0  0  0  0  0  0
   43.7750   34.0140   41.3150 C   0  0  0  0  0  0  0  0  0  0  0  0
   44.5990   35.4040   45.3610 C   0  0  0  0  0  0  0  0  0  0  0  0
   45.2900   35.4580   44.1550 C   0  0  0  0  0  0  0  0  0  0  0  0
   46.2370   34.4690   43.8540 C   0  0  0  0  0  0  0  0  0  0  0  0
   46.4040   33.5070   44.8010 N   0  0  0  0  0  0  0  0  0  0  0  0
   45.7300   33.4710   45.9570 C   0  0  0  0  0  0  0  0  0  0  0  0
   44.8360   34.4040   46.2420 N   0  0  0  0  0  0  0  0  0  0  0  0
   45.9850   32.3640   46.9470 C   0  0  0  0  0  0  0  0  0  0  0  0
   44.9690   32.3640   48.0450 C   0  0  0  0  0  0  0  0  0  0  0  0
   47.3640   32.4990   47.5540 C   0  0  0  0  0  0  0  0  0  0  0  0
   45.9460   31.0140   46.2440 C   0  0  0  0  0  0  0  0  0  0  0  0
   48.7923   35.4717   42.8678 H   0  0  0  0  0  0  0  0  0  0  0  0
   48.7357   33.8113   43.5660 H   0  0  0  0  0  0  0  0  0  0  0  0
   50.1079   34.0057   41.4692 H   0  0  0  0  0  0  0  0  0  0  0  0
   48.7876   32.8181   41.3615 H   0  0  0  0  0  0  0  0  0  0  0  0
   48.4187   35.6569   40.5621 H   0  0  0  0  0  0  0  0  0  0  0  0
   46.6360   34.5717   39.3208 H   0  0  0  0  0  0  0  0  0  0  0  0
   47.1700   33.0371   40.1362 H   0  0  0  0  0  0  0  0  0  0  0  0
   45.8835   35.4865   41.3121 H   0  0  0  0  0  0  0  0  0  0  0  0
   45.8410   31.6139   41.6849 H   0  0  0  0  0  0  0  0  0  0  0  0
   40.8407   32.3529   41.3206 H   0  0  0  0  0  0  0  0  0  0  0  0
   41.6172   36.5121   40.9321 H   0  0  0  0  0  0  0  0  0  0  0  0
   43.8555   36.1786   45.6002 H   0  0  0  0  0  0  0  0  0  0  0  0
   45.0945   36.2721   43.4415 H   0  0  0  0  0  0  0  0  0  0  0  0
   44.7200   31.3269   48.3141 H   0  0  0  0  0  0  0  0  0  0  0  0
   45.3792   32.8825   48.9241 H   0  0  0  0  0  0  0  0  0  0  0  0
   44.0607   32.8825   47.7041 H   0  0  0  0  0  0  0  0  0  0  0  0
   47.2841   32.4912   48.6511 H   0  0  0  0  0  0  0  0  0  0  0  0
   47.9928   31.6581   47.2262 H   0  0  0  0  0  0  0  0  0  0  0  0
   47.8178   33.4459   47.2262 H   0  0  0  0  0  0  0  0  0  0  0  0
   45.9228   30.2103   46.9946 H   0  0  0  0  0  0  0  0  0  0  0  0
   45.0458   30.9541   45.6147 H   0  0  0  0  0  0  0  0  0  0  0  0
   46.8413   30.9023   45.6147 H   0  0  0  0  0  0  0  0  0  0  0  0
  1  2  1  0
  1 18  1  0
  3  2  1  0
  4  3  1  0
  5  4  1  0
  5  6  1  0
  6  7  1  0
  6  1  1  0
  7  8  1  0
  9  8  2  0
 10  9  1  0
 11 10  2  0
 12 11  1  0
 13 12  2  0
 13 14  1  0
 14 15  2  0
 15 10  1  0
 15  7  1  0
 16 21  2  0
 17 16  1  0
 18 17  2  0
 18 19  1  0
 19 20  2  0
 20 21  1  0
 20 22  1  0
 22 24  1  0
 22 23  1  0
 25 22  1  0
  2 26  1  0
  2 27  1  0
  3 28  1  0
  3 29  1  0
  4 30  1  0
  5 31  1  0
  5 32  1  0
  6 33  1  6
  8 34  1  0
 11 35  1  0
 13 36  1  0
 16 37  1  0
 17 38  1  0
 23 39  1  0
 23 40  1  0
 23 41  1  0
 24 42  1  0
 24 43  1  0
 24 44  1  0
 25 45  1  0
 25 46  1  0
 25 47  1  0
M  ISO  8  26  13  27  13  28  13  29  13  30   5  31  13  32  13  33  13
M  ISO  8  34  14  35  14  36  14  37  14  38  14  39   8  40   8  41   8
M  ISO  6  42   8  43   8  44   8  45   8  46   8  47   8
M  END
>  <minimizedAffinity>  (1) 
-6.3089633

>  <minimizedRMSD>  (1) 
0.646372795

$$$$
