
     RDKit          3D

 44 47  0  0  1  0  0  0  0  0999 V2000
   46.9940   34.5150   42.4020 N   0  0  0  0  0  0  0  0  0  0  0  0
   48.4310   34.5570   42.4710 C   0  0  0  0  0  0  0  0  0  0  0  0
   49.0280   33.9330   41.2480 C   0  0  0  0  0  0  0  0  0  0  0  0
   48.4330   34.6120   40.0950 N   0  0  0  0  0  0  0  0  0  0  0  0
   47.1020   34.0540   39.9870 C   0  0  0  0  0  0  0  0  0  0  0  0
   46.2450   34.4100   41.1710 C   0  0  1  0  0  0  0  0  0  0  0  0
   45.0990   33.5480   41.2390 N   0  0  0  0  0  0  0  0  0  0  0  0
   45.0410   32.2340   41.4570 C   0  0  0  0  0  0  0  0  0  0  0  0
   43.7590   31.7640   41.4510 N   0  0  0  0  0  0  0  0  0  0  0  0
   42.9540   32.8240   41.2170 C   0  0  0  0  0  0  0  0  0  0  0  0
   41.5990   33.0250   41.0920 C   0  0  0  0  0  0  0  0  0  0  0  0
   41.1080   34.2780   40.8470 N   0  0  0  0  0  0  0  0  0  0  0  0
   41.9660   35.3080   40.7310 C   0  0  0  0  0  0  0  0  0  0  0  0
   43.2920   35.1450   40.8480 N   0  0  0  0  0  0  0  0  0  0  0  0
   43.7920   33.9060   41.0900 C   0  0  0  0  0  0  0  0  0  0  0  0
   44.5790   35.5370   45.0690 C   0  0  0  0  0  0  0  0  0  0  0  0
   45.2710   35.5440   43.8600 C   0  0  0  0  0  0  0  0  0  0  0  0
   46.2440   34.5800   43.6040 C   0  0  0  0  0  0  0  0  0  0  0  0
   46.4380   33.6780   44.6010 N   0  0  0  0  0  0  0  0  0  0  0  0
   45.7740   33.6730   45.7580 C   0  0  0  0  0  0  0  0  0  0  0  0
   44.8480   34.5890   46.0040 N   0  0  0  0  0  0  0  0  0  0  0  0
   46.0580   32.6340   46.8030 C   0  0  0  0  0  0  0  0  0  0  0  0
   46.0340   31.2450   46.1780 C   0  0  0  0  0  0  0  0  0  0  0  0
   45.0910   32.7350   47.9540 C   0  0  0  0  0  0  0  0  0  0  0  0
   48.7605   35.6041   42.5419 H   0  0  0  0  0  0  0  0  0  0  0  0
   48.7634   33.9967   43.3573 H   0  0  0  0  0  0  0  0  0  0  0  0
   50.1194   34.0702   41.2469 H   0  0  0  0  0  0  0  0  0  0  0  0
   48.8267   32.8520   41.2174 H   0  0  0  0  0  0  0  0  0  0  0  0
   48.3889   35.6285   40.2550 H   0  0  0  0  0  0  0  0  0  0  0  0
   46.6266   34.4430   39.0745 H   0  0  0  0  0  0  0  0  0  0  0  0
   47.1943   32.9585   39.9509 H   0  0  0  0  0  0  0  0  0  0  0  0
   45.8586   35.4290   41.0212 H   0  0  0  0  0  0  0  0  0  0  0  0
   45.9250   31.6008   41.6228 H   0  0  0  0  0  0  0  0  0  0  0  0
   40.9077   32.1750   41.1894 H   0  0  0  0  0  0  0  0  0  0  0  0
   41.5677   36.3143   40.5342 H   0  0  0  0  0  0  0  0  0  0  0  0
   43.8128   36.3010   45.2670 H   0  0  0  0  0  0  0  0  0  0  0  0
   45.0487   36.3127   43.1053 H   0  0  0  0  0  0  0  0  0  0  0  0
   47.0638   32.8151   47.2100 H   0  0  0  0  0  0  0  0  0  0  0  0
   46.0209   30.4852   46.9733 H   0  0  0  0  0  0  0  0  0  0  0  0
   45.1339   31.1389   45.5547 H   0  0  0  0  0  0  0  0  0  0  0  0
   46.9299   31.1079   45.5547 H   0  0  0  0  0  0  0  0  0  0  0  0
   45.6437   32.6773   48.9033 H   0  0  0  0  0  0  0  0  0  0  0  0
   44.5550   33.6940   47.8995 H   0  0  0  0  0  0  0  0  0  0  0  0
   44.3684   31.9074   47.8995 H   0  0  0  0  0  0  0  0  0  0  0  0
  1  2  1  0
  1 18  1  0
  3  2  1  0
  4  3  1  0
  5  4  1  0
  5  6  1  0
  6  7  1  0
  6  1  1  0
  7  8  1  0
  9  8  2  0
 10  9  1  0
 11 10  2  0
 12 11  1  0
 13 12  2  0
 13 14  1  0
 14 15  2  0
 15 10  1  0
 15  7  1  0
 16 21  2  0
 17 16  1  0
 18 17  2  0
 18 19  1  0
 19 20  2  0
 20 21  1  0
 20 22  1  0
 22 24  1  0
 23 22  1  0
  2 25  1  0
  2 26  1  0
  3 27  1  0
  3 28  1  0
  4 29  1  0
  5 30  1  0
  5 31  1  0
  6 32  1  6
  8 33  1  0
 11 34  1  0
 13 35  1  0
 16 36  1  0
 17 37  1  0
 22 38  1  0
 23 39  1  0
 23 40  1  0
 23 41  1  0
 24 42  1  0
 24 43  1  0
 24 44  1  0
M  ISO  8  25  13  26  13  27  13  28  13  29   5  30  13  31  13  32  13
M  ISO  8  33  14  34  14  35  14  36  14  37  14  38   8  39   8  40   8
M  ISO  4  41   8  42   8  43   8  44   8
M  END
>  <minimizedAffinity>  (1) 
-6.10592079

>  <minimizedRMSD>  (1) 
0.425495565

$$$$
