
     RDKit          3D

 38 41  0  0  1  0  0  0  0  0999 V2000
   46.9500   34.6230   42.2640 N   0  0  0  0  0  0  0  0  0  0  0  0
   48.3810   34.6730   42.3830 C   0  0  0  0  0  0  0  0  0  0  0  0
   49.0290   33.9400   41.2660 C   0  0  0  0  0  0  0  0  0  0  0  0
   48.4830   34.4840   40.0230 N   0  0  0  0  0  0  0  0  0  0  0  0
   47.1600   33.9200   39.9240 C   0  0  0  0  0  0  0  0  0  0  0  0
   46.2570   34.4020   41.0310 C   0  0  1  0  0  0  0  0  0  0  0  0
   45.1040   33.5530   41.1300 N   0  0  0  0  0  0  0  0  0  0  0  0
   45.0230   32.2590   41.4520 C   0  0  0  0  0  0  0  0  0  0  0  0
   43.7520   31.7830   41.4440 N   0  0  0  0  0  0  0  0  0  0  0  0
   42.9620   32.8310   41.0950 C   0  0  0  0  0  0  0  0  0  0  0  0
   41.6010   33.0200   40.9070 C   0  0  0  0  0  0  0  0  0  0  0  0
   41.1320   34.2500   40.5440 N   0  0  0  0  0  0  0  0  0  0  0  0
   42.0010   35.2690   40.3720 C   0  0  0  0  0  0  0  0  0  0  0  0
   43.3220   35.1100   40.5480 N   0  0  0  0  0  0  0  0  0  0  0  0
   43.8060   33.9000   40.9070 C   0  0  0  0  0  0  0  0  0  0  0  0
   44.4990   35.9630   44.7610 C   0  0  0  0  0  0  0  0  0  0  0  0
   45.2460   35.8540   43.5910 C   0  0  0  0  0  0  0  0  0  0  0  0
   46.1510   34.8020   43.4300 C   0  0  0  0  0  0  0  0  0  0  0  0
   46.2280   33.9340   44.4770 N   0  0  0  0  0  0  0  0  0  0  0  0
   45.5040   34.0490   45.5980 C   0  0  0  0  0  0  0  0  0  0  0  0
   44.6490   35.0420   45.7520 N   0  0  0  0  0  0  0  0  0  0  0  0
   45.6910   33.0220   46.6670 C   0  0  0  0  0  0  0  0  0  0  0  0
   48.7081   35.7231   42.3630 H   0  0  0  0  0  0  0  0  0  0  0  0
   48.6726   34.1991   43.3319 H   0  0  0  0  0  0  0  0  0  0  0  0
   50.1183   34.0899   41.2975 H   0  0  0  0  0  0  0  0  0  0  0  0
   48.8344   32.8599   41.3404 H   0  0  0  0  0  0  0  0  0  0  0  0
   48.4369   35.5121   40.0663 H   0  0  0  0  0  0  0  0  0  0  0  0
   46.7221   34.2089   38.9572 H   0  0  0  0  0  0  0  0  0  0  0  0
   47.2490   32.8269   40.0094 H   0  0  0  0  0  0  0  0  0  0  0  0
   45.8865   35.4046   40.7713 H   0  0  0  0  0  0  0  0  0  0  0  0
   45.8989   31.6411   41.6989 H   0  0  0  0  0  0  0  0  0  0  0  0
   40.9022   32.1825   41.0497 H   0  0  0  0  0  0  0  0  0  0  0  0
   41.6156   36.2569   40.0795 H   0  0  0  0  0  0  0  0  0  0  0  0
   43.7879   36.7931   44.8844 H   0  0  0  0  0  0  0  0  0  0  0  0
   45.1231   36.5987   42.7908 H   0  0  0  0  0  0  0  0  0  0  0  0
   45.6040   33.5000   47.6539 H   0  0  0  0  0  0  0  0  0  0  0  0
   44.9197   32.2441   46.5671 H   0  0  0  0  0  0  0  0  0  0  0  0
   46.6870   32.5659   46.5671 H   0  0  0  0  0  0  0  0  0  0  0  0
  1  2  1  0
  1 18  1  0
  3  2  1  0
  4  3  1  0
  5  4  1  0
  5  6  1  0
  6  7  1  0
  6  1  1  0
  7  8  1  0
  9  8  2  0
 10  9  1  0
 11 10  2  0
 12 11  1  0
 13 12  2  0
 13 14  1  0
 14 15  2  0
 15 10  1  0
 15  7  1  0
 16 21  2  0
 17 16  1  0
 18 17  2  0
 18 19  1  0
 19 20  2  0
 20 21  1  0
 20 22  1  0
  2 23  1  0
  2 24  1  0
  3 25  1  0
  3 26  1  0
  4 27  1  0
  5 28  1  0
  5 29  1  0
  6 30  1  6
  8 31  1  0
 11 32  1  0
 13 33  1  0
 16 34  1  0
 17 35  1  0
 22 36  1  0
 22 37  1  0
 22 38  1  0
M  ISO  8  23  13  24  13  25  13  26  13  27   5  28  13  29  13  30  13
M  ISO  8  31  14  32  14  33  14  34  14  35  14  36   8  37   8  38   8
M  END
>  <minimizedAffinity>  (1) 
-5.95430851

>  <minimizedRMSD>  (1) 
0.0556707457

$$$$
