
     RDKit          3D

 29 31  0  0  0  0  0  0  0  0999 V2000
   45.8040   34.4740   41.2480 N   0  0  0  0  0  0  0  0  0  0  0  0
   46.2910   33.6780   40.2510 C   0  0  0  0  0  0  0  0  0  0  0  0
   45.2470   33.2520   39.5040 N   0  0  0  0  0  0  0  0  0  0  0  0
   44.1100   33.7590   40.0030 C   0  0  0  0  0  0  0  0  0  0  0  0
   42.7760   33.6370   39.6190 C   0  0  0  0  0  0  0  0  0  0  0  0
   42.5030   32.9260   38.6140 O   0  0  0  0  0  0  0  0  0  0  0  0
   41.8730   34.2870   40.3500 N   0  0  0  0  0  0  0  0  0  0  0  0
   42.2110   35.0380   41.4220 C   0  0  0  0  0  0  0  0  0  0  0  0
   41.1650   35.6980   42.1440 N   0  0  0  0  0  0  0  0  0  0  0  0
   43.4790   35.1730   41.8140 N   0  0  0  0  0  0  0  0  0  0  0  0
   44.4460   34.5390   41.1140 C   0  0  0  0  0  0  0  0  0  0  0  0
   46.6030   35.1280   42.2650 C   0  0  0  0  0  0  0  0  0  0  0  0
   46.8280   32.7380   45.2060 C   0  0  0  0  0  0  0  0  0  0  0  0
   47.1010   33.3030   43.9390 C   0  0  0  0  0  0  0  0  0  0  0  0
   46.3900   34.4550   43.5760 C   0  0  0  0  0  0  0  0  0  0  0  0
   45.4810   34.9530   44.4710 N   0  0  0  0  0  0  0  0  0  0  0  0
   45.2480   34.3840   45.6750 C   0  0  0  0  0  0  0  0  0  0  0  0
   45.9340   33.2780   46.0180 N   0  0  0  0  0  0  0  0  0  0  0  0
   44.2630   35.0710   46.4380 N   0  0  0  0  0  0  0  0  0  0  0  0
   47.3489   33.4268   40.0843 H   0  0  0  0  0  0  0  0  0  0  0  0
   40.8792   34.2150   40.0889 H   0  0  0  0  0  0  0  0  0  0  0  0
   41.3920   36.2770   42.9650 H   0  0  0  0  0  0  0  0  0  0  0  0
   40.1857   35.5936   41.8422 H   0  0  0  0  0  0  0  0  0  0  0  0
   47.6665   35.0670   41.9906 H   0  0  0  0  0  0  0  0  0  0  0  0
   46.3031   36.1835   42.3429 H   0  0  0  0  0  0  0  0  0  0  0  0
   47.3684   31.8336   45.5221 H   0  0  0  0  0  0  0  0  0  0  0  0
   47.8441   32.8549   43.2630 H   0  0  0  0  0  0  0  0  0  0  0  0
   44.0037   34.7268   47.3735 H   0  0  0  0  0  0  0  0  0  0  0  0
   43.8092   35.9125   46.0548 H   0  0  0  0  0  0  0  0  0  0  0  0
  1 12  1  0
  2  1  1  0
  3  4  1  0
  3  2  2  0
  4 11  2  0
  5  4  1  0
  5  7  1  0
  6  5  2  0
  7  8  1  0
  8 10  2  0
  8  9  1  0
 11  1  1  0
 11 10  1  0
 12 15  1  0
 13 18  2  0
 14 13  1  0
 15 14  2  0
 15 16  1  0
 16 17  2  0
 17 18  1  0
 17 19  1  0
  2 20  1  0
  7 21  1  0
  9 22  1  0
  9 23  1  0
 12 24  1  0
 12 25  1  0
 13 26  1  0
 14 27  1  0
 19 28  1  0
 19 29  1  0
M  ISO  6  20  14  21   9  24   8  25   8  26  14  27  14
M  END
>  <minimizedAffinity>  (1) 
-5.80995369

>  <minimizedRMSD>  (1) 
0.229927361

$$$$
