
     RDKit          3D

 36 39  0  0  0  0  0  0  0  0999 V2000
   46.9660   34.4880   41.7870 C   0  0  0  0  0  0  0  0  0  0  0  0
   45.9200   34.1010   40.8370 N   0  0  0  0  0  0  0  0  0  0  0  0
   46.1270   33.4270   39.6620 C   0  0  0  0  0  0  0  0  0  0  0  0
   44.9320   33.2530   39.0650 N   0  0  0  0  0  0  0  0  0  0  0  0
   43.9820   33.7980   39.8320 C   0  0  0  0  0  0  0  0  0  0  0  0
   42.5870   33.8850   39.6650 C   0  0  0  0  0  0  0  0  0  0  0  0
   42.0580   33.3950   38.6500 O   0  0  0  0  0  0  0  0  0  0  0  0
   41.9230   34.5120   40.6520 N   0  0  0  0  0  0  0  0  0  0  0  0
   42.5240   35.0370   41.7450 C   0  0  0  0  0  0  0  0  0  0  0  0
   41.7070   35.6760   42.7150 N   0  0  0  0  0  0  0  0  0  0  0  0
   43.8520   34.9570   41.9120 N   0  0  0  0  0  0  0  0  0  0  0  0
   44.5890   34.3390   40.9620 C   0  0  0  0  0  0  0  0  0  0  0  0
   48.5940   31.3350   43.1060 C   0  0  0  0  0  0  0  0  0  0  0  0
   48.3230   32.4130   42.2370 C   0  0  0  0  0  0  0  0  0  0  0  0
   47.3270   33.3260   42.6210 C   0  0  0  0  0  0  0  0  0  0  0  0
   46.6850   33.1130   43.8130 N   0  0  0  0  0  0  0  0  0  0  0  0
   46.9800   32.0570   44.6220 C   0  0  0  0  0  0  0  0  0  0  0  0
   47.9390   31.1830   44.2440 N   0  0  0  0  0  0  0  0  0  0  0  0
   46.2780   31.8620   45.8780 C   0  0  0  0  0  0  0  0  0  0  0  0
   45.9490   32.9100   46.6860 C   0  0  0  0  0  0  0  0  0  0  0  0
   45.2740   32.6850   47.8870 C   0  0  0  0  0  0  0  0  0  0  0  0
   44.9140   31.4200   48.3060 C   0  0  0  0  0  0  0  0  0  0  0  0
   45.2800   30.4130   47.4370 C   0  0  0  0  0  0  0  0  0  0  0  0
   45.9300   30.6190   46.2780 N   0  0  0  0  0  0  0  0  0  0  0  0
   46.5952   35.2998   42.4300 H   0  0  0  0  0  0  0  0  0  0  0  0
   47.8529   34.8332   41.2354 H   0  0  0  0  0  0  0  0  0  0  0  0
   47.0988   33.0875   39.2742 H   0  0  0  0  0  0  0  0  0  0  0  0
   40.8997   34.5975   40.5716 H   0  0  0  0  0  0  0  0  0  0  0  0
   42.1335   36.0858   43.5582 H   0  0  0  0  0  0  0  0  0  0  0  0
   40.6879   35.7297   42.5753 H   0  0  0  0  0  0  0  0  0  0  0  0
   49.3683   30.6041   42.8301 H   0  0  0  0  0  0  0  0  0  0  0  0
   48.8725   32.5342   41.2918 H   0  0  0  0  0  0  0  0  0  0  0  0
   46.2162   33.9354   46.3907 H   0  0  0  0  0  0  0  0  0  0  0  0
   45.0199   33.5464   48.5221 H   0  0  0  0  0  0  0  0  0  0  0  0
   44.3819   31.2314   49.2501 H   0  0  0  0  0  0  0  0  0  0  0  0
   45.0245   29.3782   47.7088 H   0  0  0  0  0  0  0  0  0  0  0  0
  1 15  1  0
  2 12  1  0
  2  1  1  0
  3  2  1  0
  4  3  2  0
  4  5  1  0
  5 12  2  0
  6  5  1  0
  6  8  1  0
  7  6  2  0
  8  9  1  0
  9 11  2  0
  9 10  1  0
 12 11  1  0
 13 18  2  0
 14 15  2  0
 14 13  1  0
 15 16  1  0
 16 17  2  0
 17 19  1  0
 18 17  1  0
 19 24  1  0
 19 20  2  0
 20 21  1  0
 21 22  2  0
 23 22  1  0
 24 23  2  0
  1 25  1  0
  1 26  1  0
  3 27  1  0
  8 28  1  0
 10 29  1  0
 10 30  1  0
 13 31  1  0
 14 32  1  0
 20 33  1  0
 21 34  1  0
 22 35  1  0
 23 36  1  0
M  ISO  8  25   8  26   8  27  14  28   9  31  14  32  14  33  14  34  14
M  ISO  2  35  14  36  14
M  END
>  <minimizedAffinity>  (1) 
-5.67790985

>  <minimizedRMSD>  (1) 
2.36148524

$$$$
