
     RDKit          3D

 34 37  0  0  0  0  0  0  0  0999 V2000
   46.3380   34.2390   42.0740 N   0  0  0  0  0  0  0  0  0  0  0  0
   46.9260   33.6550   40.9910 C   0  0  0  0  0  0  0  0  0  0  0  0
   45.9930   33.5270   40.0210 N   0  0  0  0  0  0  0  0  0  0  0  0
   44.8240   34.0180   40.4660 C   0  0  0  0  0  0  0  0  0  0  0  0
   43.5680   34.1220   39.8620 C   0  0  0  0  0  0  0  0  0  0  0  0
   43.4320   33.7000   38.6940 O   0  0  0  0  0  0  0  0  0  0  0  0
   42.6100   34.6710   40.6000 N   0  0  0  0  0  0  0  0  0  0  0  0
   42.7940   35.1180   41.8630 C   0  0  0  0  0  0  0  0  0  0  0  0
   41.7080   35.6880   42.5650 N   0  0  0  0  0  0  0  0  0  0  0  0
   43.9980   35.0240   42.4560 N   0  0  0  0  0  0  0  0  0  0  0  0
   45.0310   34.4770   41.7760 C   0  0  0  0  0  0  0  0  0  0  0  0
   46.9910   34.5580   43.3380 C   0  0  0  0  0  0  0  0  0  0  0  0
   47.3540   31.0920   44.8570 C   0  0  0  0  0  0  0  0  0  0  0  0
   47.4910   32.1450   43.9220 C   0  0  0  0  0  0  0  0  0  0  0  0
   46.9100   33.3810   44.2460 C   0  0  0  0  0  0  0  0  0  0  0  0
   46.2530   33.4860   45.4390 N   0  0  0  0  0  0  0  0  0  0  0  0
   46.1430   32.4460   46.3160 C   0  0  0  0  0  0  0  0  0  0  0  0
   46.6960   31.2700   46.0080 N   0  0  0  0  0  0  0  0  0  0  0  0
   45.3970   32.7220   47.5700 C   0  0  0  0  0  0  0  0  0  0  0  0
   45.9420   32.2870   48.8700 C   0  0  0  0  0  0  0  0  0  0  0  0
   44.8160   31.4850   48.3020 C   0  0  0  0  0  0  0  0  0  0  0  0
   47.9781   33.3420   40.9191 H   0  0  0  0  0  0  0  0  0  0  0  0
   41.6713   34.7617   40.1859 H   0  0  0  0  0  0  0  0  0  0  0  0
   41.8398   36.0308   43.5273 H   0  0  0  0  0  0  0  0  0  0  0  0
   40.7847   35.7606   42.1144 H   0  0  0  0  0  0  0  0  0  0  0  0
   48.0463   34.8074   43.1534 H   0  0  0  0  0  0  0  0  0  0  0  0
   46.4887   35.4181   43.8048 H   0  0  0  0  0  0  0  0  0  0  0  0
   47.7962   30.1099   44.6336 H   0  0  0  0  0  0  0  0  0  0  0  0
   48.0330   32.0003   42.9758 H   0  0  0  0  0  0  0  0  0  0  0  0
   45.0233   33.6832   47.1874 H   0  0  0  0  0  0  0  0  0  0  0  0
   46.9500   31.8490   48.9155 H   0  0  0  0  0  0  0  0  0  0  0  0
   46.1051   32.7924   49.8333 H   0  0  0  0  0  0  0  0  0  0  0  0
   43.8166   31.5287   48.7594 H   0  0  0  0  0  0  0  0  0  0  0  0
   44.6469   30.4270   48.0528 H   0  0  0  0  0  0  0  0  0  0  0  0
  1 12  1  0
  2  1  1  0
  3  4  1  0
  3  2  2  0
  4 11  2  0
  5  4  1  0
  5  7  1  0
  6  5  2  0
  7  8  1  0
  8 10  2  0
  8  9  1  0
 11  1  1  0
 11 10  1  0
 12 15  1  0
 13 18  2  0
 14 15  2  0
 14 13  1  0
 15 16  1  0
 16 17  2  0
 17 19  1  0
 18 17  1  0
 19 21  1  0
 19 20  1  0
 21 20  1  0
  2 22  1  0
  7 23  1  0
  9 24  1  0
  9 25  1  0
 12 26  1  0
 12 27  1  0
 13 28  1  0
 14 29  1  0
 19 30  1  0
 20 31  1  0
 20 32  1  0
 21 33  1  0
 21 34  1  0
M  ISO  8  22  14  23   9  26   8  27   8  28  14  29  14  30  13  31  13
M  ISO  3  32  13  33  13  34  13
M  END
>  <minimizedAffinity>  (1) 
-5.45898533

>  <minimizedRMSD>  (1) 
1.66529322

$$$$
