
     RDKit          3D

 34 37  0  0  0  0  0  0  0  0999 V2000
   46.5680   35.0210   41.8730 C   0  0  0  0  0  0  0  0  0  0  0  0
   45.8920   35.0960   43.1510 N   0  0  0  0  0  0  0  0  0  0  0  0
   45.0510   36.0930   43.5430 C   0  0  0  0  0  0  0  0  0  0  0  0
   44.6220   35.8110   44.7940 N   0  0  0  0  0  0  0  0  0  0  0  0
   45.1720   34.6610   45.1970 C   0  0  0  0  0  0  0  0  0  0  0  0
   45.0540   33.9360   46.3990 C   0  0  0  0  0  0  0  0  0  0  0  0
   44.3220   34.3830   47.3010 O   0  0  0  0  0  0  0  0  0  0  0  0
   45.7630   32.7980   46.4620 N   0  0  0  0  0  0  0  0  0  0  0  0
   46.5460   32.3470   45.4640 C   0  0  0  0  0  0  0  0  0  0  0  0
   47.2480   31.1340   45.6410 N   0  0  0  0  0  0  0  0  0  0  0  0
   46.6660   33.0290   44.3120 N   0  0  0  0  0  0  0  0  0  0  0  0
   45.9840   34.1900   44.1650 C   0  0  0  0  0  0  0  0  0  0  0  0
   45.5210   32.1890   39.5830 C   0  0  0  0  0  0  0  0  0  0  0  0
   46.3280   32.9440   40.4540 C   0  0  0  0  0  0  0  0  0  0  0  0
   45.7890   34.1490   40.9430 C   0  0  0  0  0  0  0  0  0  0  0  0
   44.5230   34.5170   40.5510 N   0  0  0  0  0  0  0  0  0  0  0  0
   43.7940   33.7420   39.7060 C   0  0  0  0  0  0  0  0  0  0  0  0
   44.3030   32.5980   39.2390 N   0  0  0  0  0  0  0  0  0  0  0  0
   42.4850   34.1470   39.3160 N   0  0  0  0  0  0  0  0  0  0  0  0
   41.7930   35.2430   39.6780 C   0  0  0  0  0  0  0  0  0  0  0  0
   40.5420   35.2430   39.0550 C   0  0  0  0  0  0  0  0  0  0  0  0
   40.5300   34.1170   38.3240 N   0  0  0  0  0  0  0  0  0  0  0  0
   41.6770   33.4700   38.4760 C   0  0  0  0  0  0  0  0  0  0  0  0
   46.6522   36.0303   41.4439 H   0  0  0  0  0  0  0  0  0  0  0  0
   47.5725   34.5961   42.0160 H   0  0  0  0  0  0  0  0  0  0  0  0
   44.7700   36.9734   42.9464 H   0  0  0  0  0  0  0  0  0  0  0  0
   45.7046   32.2372   47.3240 H   0  0  0  0  0  0  0  0  0  0  0  0
   47.8517   30.7738   44.8882 H   0  0  0  0  0  0  0  0  0  0  0  0
   47.1562   30.6098   46.5229 H   0  0  0  0  0  0  0  0  0  0  0  0
   45.9053   31.2411   39.1783 H   0  0  0  0  0  0  0  0  0  0  0  0
   47.3354   32.6075   40.7401 H   0  0  0  0  0  0  0  0  0  0  0  0
   42.1578   36.0229   40.3625 H   0  0  0  0  0  0  0  0  0  0  0  0
   39.7457   35.9967   39.1437 H   0  0  0  0  0  0  0  0  0  0  0  0
   41.9324   32.5182   37.9873 H   0  0  0  0  0  0  0  0  0  0  0  0
  1  2  1  0
  2  3  1  0
  2 12  1  0
  3  4  2  0
  4  5  1  0
  5  6  1  0
  6  8  1  0
  6  7  2  0
  9 10  1  0
  9  8  1  0
 11  9  2  0
 12 11  1  0
 12  5  2  0
 13 14  2  0
 14 15  1  0
 15  1  1  0
 16 15  2  0
 17 16  1  0
 18 13  1  0
 18 17  2  0
 19 20  1  0
 19 17  1  0
 21 20  2  0
 22 23  2  0
 22 21  1  0
 23 19  1  0
  1 24  1  0
  1 25  1  0
  3 26  1  0
  8 27  1  0
 10 28  1  0
 10 29  1  0
 13 30  1  0
 14 31  1  0
 20 32  1  0
 21 33  1  0
 23 34  1  0
M  ISO  8  24   8  25   8  26  14  27   9  30  14  31  14  32  14  33  14
M  ISO  1  34  14
M  END
>  <minimizedAffinity>  (1) 
-5.62050104

>  <minimizedRMSD>  (1) 
6.49352121

$$$$
