
     RDKit          3D

 34 37  0  0  0  0  0  0  0  0999 V2000
   46.9380   34.6020   41.6900 C   0  0  0  0  0  0  0  0  0  0  0  0
   45.8820   34.1740   40.7680 N   0  0  0  0  0  0  0  0  0  0  0  0
   46.0870   33.4830   39.6030 C   0  0  0  0  0  0  0  0  0  0  0  0
   44.8790   33.2720   39.0340 N   0  0  0  0  0  0  0  0  0  0  0  0
   43.9270   33.8060   39.8010 C   0  0  0  0  0  0  0  0  0  0  0  0
   42.5310   33.8640   39.6680 C   0  0  0  0  0  0  0  0  0  0  0  0
   42.0020   33.3400   38.6680 O   0  0  0  0  0  0  0  0  0  0  0  0
   41.8720   34.4940   40.6520 N   0  0  0  0  0  0  0  0  0  0  0  0
   42.4800   35.0510   41.7220 C   0  0  0  0  0  0  0  0  0  0  0  0
   41.6750   35.6900   42.6980 N   0  0  0  0  0  0  0  0  0  0  0  0
   43.8090   35.0070   41.8690 N   0  0  0  0  0  0  0  0  0  0  0  0
   44.5540   34.3860   40.9150 C   0  0  0  0  0  0  0  0  0  0  0  0
   48.6620   31.4820   43.0070 C   0  0  0  0  0  0  0  0  0  0  0  0
   48.3340   32.5530   42.1350 C   0  0  0  0  0  0  0  0  0  0  0  0
   47.3420   33.4560   42.5370 C   0  0  0  0  0  0  0  0  0  0  0  0
   46.7480   33.2420   43.7570 N   0  0  0  0  0  0  0  0  0  0  0  0
   47.0880   32.2080   44.5580 C   0  0  0  0  0  0  0  0  0  0  0  0
   48.0370   31.3400   44.1810 N   0  0  0  0  0  0  0  0  0  0  0  0
   46.3900   32.0830   45.8280 C   0  0  0  0  0  0  0  0  0  0  0  0
   45.8930   33.0450   46.6210 C   0  0  0  0  0  0  0  0  0  0  0  0
   45.2640   32.7010   47.7890 C   0  0  0  0  0  0  0  0  0  0  0  0
   45.1820   31.3480   48.0730 C   0  0  0  0  0  0  0  0  0  0  0  0
   46.0360   30.5120   46.6220 S   0  0  0  0  0  0  0  0  0  0  0  0
   46.5617   35.4156   42.3276 H   0  0  0  0  0  0  0  0  0  0  0  0
   47.8055   34.9602   41.1162 H   0  0  0  0  0  0  0  0  0  0  0  0
   47.0589   33.1585   39.2029 H   0  0  0  0  0  0  0  0  0  0  0  0
   40.8459   34.5565   40.5882 H   0  0  0  0  0  0  0  0  0  0  0  0
   42.1129   36.1228   43.5237 H   0  0  0  0  0  0  0  0  0  0  0  0
   40.6521   35.7215   42.5816 H   0  0  0  0  0  0  0  0  0  0  0  0
   49.4390   30.7606   42.7139 H   0  0  0  0  0  0  0  0  0  0  0  0
   48.8458   32.6706   41.1685 H   0  0  0  0  0  0  0  0  0  0  0  0
   45.9899   34.1028   46.3353 H   0  0  0  0  0  0  0  0  0  0  0  0
   44.8458   33.4604   48.4660 H   0  0  0  0  0  0  0  0  0  0  0  0
   44.7210   30.8702   48.9500 H   0  0  0  0  0  0  0  0  0  0  0  0
  1 15  1  0
  2 12  1  0
  2  1  1  0
  3  2  1  0
  4  3  2  0
  4  5  1  0
  5 12  2  0
  6  5  1  0
  6  8  1  0
  7  6  2  0
  8  9  1  0
  9 11  2  0
  9 10  1  0
 12 11  1  0
 13 18  2  0
 14 15  2  0
 14 13  1  0
 15 16  1  0
 16 17  2  0
 17 19  1  0
 18 17  1  0
 19 20  2  0
 19 23  1  0
 20 21  1  0
 21 22  2  0
 23 22  1  0
  1 24  1  0
  1 25  1  0
  3 26  1  0
  8 27  1  0
 10 28  1  0
 10 29  1  0
 13 30  1  0
 14 31  1  0
 20 32  1  0
 21 33  1  0
 22 34  1  0
M  ISO  8  24   8  25   8  26  14  27   9  30  14  31  14  32  14  33  14
M  ISO  1  34  14
M  END
>  <minimizedAffinity>  (1) 
-5.33116722

>  <minimizedRMSD>  (1) 
2.22694111

$$$$
