
     RDKit          3D

 34 37  0  0  0  0  0  0  0  0999 V2000
   47.0310   34.4590   41.7990 C   0  0  0  0  0  0  0  0  0  0  0  0
   45.9990   34.0910   40.8400 N   0  0  0  0  0  0  0  0  0  0  0  0
   46.2140   33.4410   39.6740 C   0  0  0  0  0  0  0  0  0  0  0  0
   45.0200   33.2760   39.0530 N   0  0  0  0  0  0  0  0  0  0  0  0
   44.0620   33.8130   39.8120 C   0  0  0  0  0  0  0  0  0  0  0  0
   42.6690   33.9130   39.6350 C   0  0  0  0  0  0  0  0  0  0  0  0
   42.1630   33.4330   38.6010 O   0  0  0  0  0  0  0  0  0  0  0  0
   41.9920   34.5310   40.6210 N   0  0  0  0  0  0  0  0  0  0  0  0
   42.5950   35.0340   41.7220 C   0  0  0  0  0  0  0  0  0  0  0  0
   41.7730   35.6680   42.7000 N   0  0  0  0  0  0  0  0  0  0  0  0
   43.9130   34.9500   41.9070 N   0  0  0  0  0  0  0  0  0  0  0  0
   44.6640   34.3380   40.9550 C   0  0  0  0  0  0  0  0  0  0  0  0
   48.3840   31.2510   43.3000 C   0  0  0  0  0  0  0  0  0  0  0  0
   48.1980   32.2980   42.3590 C   0  0  0  0  0  0  0  0  0  0  0  0
   47.2930   33.3230   42.7140 C   0  0  0  0  0  0  0  0  0  0  0  0
   46.6590   33.2440   43.9280 N   0  0  0  0  0  0  0  0  0  0  0  0
   46.8740   32.2240   44.7880 C   0  0  0  0  0  0  0  0  0  0  0  0
   47.7280   31.2450   44.4690 N   0  0  0  0  0  0  0  0  0  0  0  0
   46.2140   32.1550   46.0380 N   0  0  0  0  0  0  0  0  0  0  0  0
   45.7010   33.1140   46.7730 N   0  0  0  0  0  0  0  0  0  0  0  0
   45.1610   32.5840   47.9070 C   0  0  0  0  0  0  0  0  0  0  0  0
   45.3530   31.2070   47.8680 C   0  0  0  0  0  0  0  0  0  0  0  0
   46.0150   30.9740   46.6840 C   0  0  0  0  0  0  0  0  0  0  0  0
   46.6939   35.3282   42.3829 H   0  0  0  0  0  0  0  0  0  0  0  0
   47.9555   34.7116   41.2591 H   0  0  0  0  0  0  0  0  0  0  0  0
   47.1899   33.1040   39.2944 H   0  0  0  0  0  0  0  0  0  0  0  0
   40.9701   34.6248   40.5329 H   0  0  0  0  0  0  0  0  0  0  0  0
   42.1971   36.0629   43.5515 H   0  0  0  0  0  0  0  0  0  0  0  0
   40.7552   35.7310   42.5548 H   0  0  0  0  0  0  0  0  0  0  0  0
   49.0784   30.4307   43.0656 H   0  0  0  0  0  0  0  0  0  0  0  0
   48.7337   32.3104   41.3983 H   0  0  0  0  0  0  0  0  0  0  0  0
   44.6619   33.1457   48.7104 H   0  0  0  0  0  0  0  0  0  0  0  0
   45.0433   30.4658   48.6195 H   0  0  0  0  0  0  0  0  0  0  0  0
   46.3335   29.9871   46.3172 H   0  0  0  0  0  0  0  0  0  0  0  0
  1 15  1  0
  2 12  1  0
  2  1  1  0
  3  2  1  0
  4  3  2  0
  4  5  1  0
  5 12  2  0
  6  5  1  0
  6  8  1  0
  7  6  2  0
  8  9  1  0
  9 11  2  0
  9 10  1  0
 12 11  1  0
 13 18  2  0
 14 15  2  0
 14 13  1  0
 15 16  1  0
 16 17  2  0
 17 19  1  0
 18 17  1  0
 19 23  1  0
 19 20  1  0
 20 21  2  0
 22 21  1  0
 23 22  2  0
  1 24  1  0
  1 25  1  0
  3 26  1  0
  8 27  1  0
 10 28  1  0
 10 29  1  0
 13 30  1  0
 14 31  1  0
 21 32  1  0
 22 33  1  0
 23 34  1  0
M  ISO  8  24   8  25   8  26  14  27   9  30  14  31  14  32  14  33  14
M  ISO  1  34  14
M  END
>  <minimizedAffinity>  (1) 
-5.52794456

>  <minimizedRMSD>  (1) 
1.99782979

$$$$
