
     RDKit          3D

 27 29  0  0  0  0  0  0  0  0999 V2000
   44.7110   35.6960   45.0580 C   0  0  0  0  0  0  0  0  0  0  0  0
   44.2540   35.6110   43.7360 C   0  0  0  0  0  0  0  0  0  0  0  0
   44.4880   34.4380   43.0430 C   0  0  0  0  0  0  0  0  0  0  0  0
   45.1490   33.4000   43.6470 N   0  0  0  0  0  0  0  0  0  0  0  0
   45.5820   33.5200   44.9440 C   0  0  0  0  0  0  0  0  0  0  0  0
   45.3530   34.6580   45.6140 N   0  0  0  0  0  0  0  0  0  0  0  0
   46.2800   32.4160   45.5740 C   0  0  0  0  0  0  0  0  0  0  0  0
   47.2480   31.5880   44.9970 C   0  0  0  0  0  0  0  0  0  0  0  0
   47.6620   30.6770   45.9030 N   0  0  0  0  0  0  0  0  0  0  0  0
   46.9630   30.9260   47.0320 C   0  0  0  0  0  0  0  0  0  0  0  0
   46.1230   31.9870   46.8300 N   0  0  0  0  0  0  0  0  0  0  0  0
   45.2000   32.5720   47.7990 C   0  0  0  0  0  0  0  0  0  0  0  0
   44.2170   31.6570   48.1900 F   0  0  0  0  0  0  0  0  0  0  0  0
   44.6050   33.7300   47.3130 F   0  0  0  0  0  0  0  0  0  0  0  0
   45.8910   32.8810   48.9760 F   0  0  0  0  0  0  0  0  0  0  0  0
   44.1210   34.1270   41.7040 N   0  0  0  0  0  0  0  0  0  0  0  0
   42.8220   34.4210   41.4360 C   0  0  0  0  0  0  0  0  0  0  0  0
   42.5720   34.0780   40.1030 C   0  0  0  0  0  0  0  0  0  0  0  0
   43.7230   33.5900   39.6140 N   0  0  0  0  0  0  0  0  0  0  0  0
   44.6580   33.6190   40.5810 C   0  0  0  0  0  0  0  0  0  0  0  0
   44.5431   36.6143   45.6398 H   0  0  0  0  0  0  0  0  0  0  0  0
   43.7251   36.4522   43.2640 H   0  0  0  0  0  0  0  0  0  0  0  0
   47.6157   31.6670   43.9633 H   0  0  0  0  0  0  0  0  0  0  0  0
   47.0552   30.3612   47.9714 H   0  0  0  0  0  0  0  0  0  0  0  0
   42.0962   34.8519   42.1414 H   0  0  0  0  0  0  0  0  0  0  0  0
   41.6202   34.1867   39.5623 H   0  0  0  0  0  0  0  0  0  0  0  0
   45.6986   33.2802   40.4702 H   0  0  0  0  0  0  0  0  0  0  0  0
  1  6  2  0
  2  1  1  0
  3  4  1  0
  3  2  2  0
  4  5  2  0
  5  7  1  0
  5  6  1  0
  7 11  1  0
  8  7  2  0
  8  9  1  0
  9 10  2  0
 11 10  1  0
 11 12  1  0
 12 13  1  0
 12 15  1  0
 14 12  1  0
 16  3  1  0
 17 16  1  0
 18 17  2  0
 19 18  1  0
 19 20  2  0
 20 16  1  0
  1 21  1  0
  2 22  1  0
  8 23  1  0
 10 24  1  0
 17 25  1  0
 18 26  1  0
 20 27  1  0
M  ISO  7  21  14  22  14  23  14  24  14  25  14  26  14  27  14
M  END
>  <minimizedAffinity>  (1) 
-5.07619619

>  <minimizedRMSD>  (1) 
0.535101712

$$$$
