
     RDKit          3D

 33 36  0  0  0  0  0  0  0  0999 V2000
   46.9060   34.5810   41.9810 C   0  0  0  0  0  0  0  0  0  0  0  0
   45.9260   34.1780   40.9660 N   0  0  0  0  0  0  0  0  0  0  0  0
   46.2040   33.5090   39.8150 C   0  0  0  0  0  0  0  0  0  0  0  0
   45.0450   33.3210   39.1440 N   0  0  0  0  0  0  0  0  0  0  0  0
   44.0380   33.8630   39.8590 C   0  0  0  0  0  0  0  0  0  0  0  0
   42.6600   33.9400   39.6150 C   0  0  0  0  0  0  0  0  0  0  0  0
   42.1990   33.4400   38.5670 O   0  0  0  0  0  0  0  0  0  0  0  0
   41.9400   34.5660   40.5630 N   0  0  0  0  0  0  0  0  0  0  0  0
   42.4730   35.0900   41.6760 C   0  0  0  0  0  0  0  0  0  0  0  0
   41.6060   35.7280   42.6070 N   0  0  0  0  0  0  0  0  0  0  0  0
   43.7890   35.0270   41.9300 N   0  0  0  0  0  0  0  0  0  0  0  0
   44.5900   34.4110   41.0210 C   0  0  0  0  0  0  0  0  0  0  0  0
   48.6100   31.3880   43.1400 C   0  0  0  0  0  0  0  0  0  0  0  0
   48.2930   32.4980   42.3170 C   0  0  0  0  0  0  0  0  0  0  0  0
   47.3130   33.3940   42.7590 C   0  0  0  0  0  0  0  0  0  0  0  0
   46.7340   33.1230   43.9700 N   0  0  0  0  0  0  0  0  0  0  0  0
   47.0570   32.0580   44.7360 C   0  0  0  0  0  0  0  0  0  0  0  0
   48.0020   31.1990   44.3010 N   0  0  0  0  0  0  0  0  0  0  0  0
   46.3050   31.9580   46.0100 C   0  0  0  0  0  0  0  0  0  0  0  0
   46.1410   30.7080   46.5700 C   0  0  0  0  0  0  0  0  0  0  0  0
   45.1740   31.1060   48.0850 S   0  0  0  0  0  0  0  0  0  0  0  0
   45.1770   32.9600   47.6530 C   0  0  0  0  0  0  0  0  0  0  0  0
   45.7560   32.9570   46.6920 N   0  0  0  0  0  0  0  0  0  0  0  0
   46.4546   35.3251   42.6537 H   0  0  0  0  0  0  0  0  0  0  0  0
   47.7865   35.0222   41.4909 H   0  0  0  0  0  0  0  0  0  0  0  0
   47.2002   33.1778   39.4864 H   0  0  0  0  0  0  0  0  0  0  0  0
   40.9224   34.6474   40.4263 H   0  0  0  0  0  0  0  0  0  0  0  0
   41.9897   36.1388   43.4701 H   0  0  0  0  0  0  0  0  0  0  0  0
   40.5948   35.7789   42.4177 H   0  0  0  0  0  0  0  0  0  0  0  0
   49.3750   30.6707   42.8080 H   0  0  0  0  0  0  0  0  0  0  0  0
   48.8044   32.6511   41.3552 H   0  0  0  0  0  0  0  0  0  0  0  0
   46.4946   29.7316   46.2072 H   0  0  0  0  0  0  0  0  0  0  0  0
   44.7316   33.8054   48.1980 H   0  0  0  0  0  0  0  0  0  0  0  0
  1 15  1  0
  2 12  1  0
  2  1  1  0
  3  2  1  0
  4  3  2  0
  4  5  1  0
  5 12  2  0
  6  5  1  0
  6  8  1  0
  7  6  2  0
  8  9  1  0
  9 11  2  0
  9 10  1  0
 12 11  1  0
 13 18  2  0
 14 15  2  0
 14 13  1  0
 15 16  1  0
 16 17  2  0
 17 19  1  0
 18 17  1  0
 19 20  2  0
 19 23  1  0
 20 21  1  0
 22 21  1  0
 23 22  2  0
  1 24  1  0
  1 25  1  0
  3 26  1  0
  8 27  1  0
 10 28  1  0
 10 29  1  0
 13 30  1  0
 14 31  1  0
 20 32  1  0
 22 33  1  0
M  ISO  8  24   8  25   8  26  14  27   9  30  14  31  14  32  14  33  14
M  END
>  <minimizedAffinity>  (1) 
-5.17009974

>  <minimizedRMSD>  (1) 
2.20537257

$$$$
