
     RDKit          3D

 30 32  0  0  0  0  0  0  0  0999 V2000
   45.8770   34.4250   41.2020 N   0  0  0  0  0  0  0  0  0  0  0  0
   46.3260   33.6610   40.1690 C   0  0  0  0  0  0  0  0  0  0  0  0
   45.2620   33.2840   39.4230 N   0  0  0  0  0  0  0  0  0  0  0  0
   44.1470   33.7990   39.9700 C   0  0  0  0  0  0  0  0  0  0  0  0
   42.8060   33.7100   39.5950 C   0  0  0  0  0  0  0  0  0  0  0  0
   42.5030   33.0480   38.5710 O   0  0  0  0  0  0  0  0  0  0  0  0
   41.9330   34.3510   40.3700 N   0  0  0  0  0  0  0  0  0  0  0  0
   42.2880   35.0540   41.4630 C   0  0  0  0  0  0  0  0  0  0  0  0
   41.2870   35.7090   42.2370 N   0  0  0  0  0  0  0  0  0  0  0  0
   43.5820   35.1560   41.8510 N   0  0  0  0  0  0  0  0  0  0  0  0
   44.5210   34.5250   41.0990 C   0  0  0  0  0  0  0  0  0  0  0  0
   46.7040   35.0270   42.2330 C   0  0  0  0  0  0  0  0  0  0  0  0
   47.1420   32.4150   44.9370 C   0  0  0  0  0  0  0  0  0  0  0  0
   47.3340   33.0840   43.7100 C   0  0  0  0  0  0  0  0  0  0  0  0
   46.5780   34.2500   43.4920 C   0  0  0  0  0  0  0  0  0  0  0  0
   45.7160   34.6540   44.4780 N   0  0  0  0  0  0  0  0  0  0  0  0
   45.5730   33.9750   45.6360 C   0  0  0  0  0  0  0  0  0  0  0  0
   46.2880   32.8650   45.8510 N   0  0  0  0  0  0  0  0  0  0  0  0
   44.6020   34.5710   46.5610 C   0  0  0  0  0  0  0  0  0  0  0  0
   47.3754   33.3952   39.9738 H   0  0  0  0  0  0  0  0  0  0  0  0
   40.9346   34.3070   40.1208 H   0  0  0  0  0  0  0  0  0  0  0  0
   41.5533   36.2477   43.0735 H   0  0  0  0  0  0  0  0  0  0  0  0
   40.2971   35.6438   41.9600 H   0  0  0  0  0  0  0  0  0  0  0  0
   47.7543   35.0261   41.9062 H   0  0  0  0  0  0  0  0  0  0  0  0
   46.3728   36.0612   42.4082 H   0  0  0  0  0  0  0  0  0  0  0  0
   47.7134   31.4978   45.1427 H   0  0  0  0  0  0  0  0  0  0  0  0
   48.0435   32.7104   42.9570 H   0  0  0  0  0  0  0  0  0  0  0  0
   44.9165   34.3780   47.5973 H   0  0  0  0  0  0  0  0  0  0  0  0
   44.5507   35.6563   46.3895 H   0  0  0  0  0  0  0  0  0  0  0  0
   43.6110   34.1254   46.3895 H   0  0  0  0  0  0  0  0  0  0  0  0
  1 12  1  0
  2  1  1  0
  3  4  1  0
  3  2  2  0
  4 11  2  0
  5  4  1  0
  5  7  1  0
  6  5  2  0
  7  8  1  0
  8 10  2  0
  8  9  1  0
 11  1  1  0
 11 10  1  0
 12 15  1  0
 13 18  2  0
 14 13  1  0
 15 14  2  0
 15 16  1  0
 16 17  2  0
 17 18  1  0
 17 19  1  0
  2 20  1  0
  7 21  1  0
  9 22  1  0
  9 23  1  0
 12 24  1  0
 12 25  1  0
 13 26  1  0
 14 27  1  0
 19 28  1  0
 19 29  1  0
 19 30  1  0
M  ISO  8  20  14  21   9  24   8  25   8  26  14  27  14  28   8  29   8
M  ISO  1  30   8
M  END
>  <minimizedAffinity>  (1) 
-4.84503365

>  <minimizedRMSD>  (1) 
0.137262538

$$$$
