
     RDKit          3D

 39 41  0  0  0  0  0  0  0  0999 V2000
   46.4950   34.1740   41.8490 N   0  0  0  0  0  0  0  0  0  0  0  0
   47.0070   33.6420   40.7080 C   0  0  0  0  0  0  0  0  0  0  0  0
   46.0150   33.5680   39.7870 N   0  0  0  0  0  0  0  0  0  0  0  0
   44.8900   34.0450   40.3360 C   0  0  0  0  0  0  0  0  0  0  0  0
   43.5960   34.1910   39.8220 C   0  0  0  0  0  0  0  0  0  0  0  0
   43.3710   33.8350   38.6500 O   0  0  0  0  0  0  0  0  0  0  0  0
   42.6810   34.7180   40.6610 N   0  0  0  0  0  0  0  0  0  0  0  0
   42.9740   35.0910   41.9300 C   0  0  0  0  0  0  0  0  0  0  0  0
   41.9280   35.6330   42.7170 N   0  0  0  0  0  0  0  0  0  0  0  0
   44.2090   34.9570   42.4340 N   0  0  0  0  0  0  0  0  0  0  0  0
   45.1790   34.4330   41.6440 C   0  0  0  0  0  0  0  0  0  0  0  0
   47.2410   34.4190   43.0820 C   0  0  0  0  0  0  0  0  0  0  0  0
   47.9040   30.8660   44.2110 C   0  0  0  0  0  0  0  0  0  0  0  0
   47.8960   31.9980   43.3760 C   0  0  0  0  0  0  0  0  0  0  0  0
   47.3020   33.1650   43.8830 C   0  0  0  0  0  0  0  0  0  0  0  0
   46.7750   33.1260   45.1480 N   0  0  0  0  0  0  0  0  0  0  0  0
   46.8040   32.0180   45.9160 C   0  0  0  0  0  0  0  0  0  0  0  0
   47.3690   30.8990   45.4340 N   0  0  0  0  0  0  0  0  0  0  0  0
   46.2040   32.0870   47.2640 C   0  0  0  0  0  0  0  0  0  0  0  0
   45.4390   30.7740   47.4660 C   0  0  0  0  0  0  0  0  0  0  0  0
   47.3070   32.2190   48.2930 C   0  0  0  0  0  0  0  0  0  0  0  0
   45.2170   33.2260   47.3660 C   0  0  0  0  0  0  0  0  0  0  0  0
   48.0496   33.3252   40.5574 H   0  0  0  0  0  0  0  0  0  0  0  0
   41.7164   34.8424   40.3218 H   0  0  0  0  0  0  0  0  0  0  0  0
   42.1127   35.9279   43.6865 H   0  0  0  0  0  0  0  0  0  0  0  0
   40.9829   35.7322   42.3197 H   0  0  0  0  0  0  0  0  0  0  0  0
   48.2617   34.7458   42.8342 H   0  0  0  0  0  0  0  0  0  0  0  0
   46.7366   35.2029   43.6660 H   0  0  0  0  0  0  0  0  0  0  0  0
   48.3609   29.9333   43.8486 H   0  0  0  0  0  0  0  0  0  0  0  0
   48.3365   31.9702   42.3684 H   0  0  0  0  0  0  0  0  0  0  0  0
   45.3248   30.5780   48.5424 H   0  0  0  0  0  0  0  0  0  0  0  0
   44.4456   30.8531   47.0003 H   0  0  0  0  0  0  0  0  0  0  0  0
   45.9977   29.9488   47.0003 H   0  0  0  0  0  0  0  0  0  0  0  0
   46.8743   32.1672   49.3030 H   0  0  0  0  0  0  0  0  0  0  0  0
   48.0307   31.4011   48.1618 H   0  0  0  0  0  0  0  0  0  0  0  0
   47.8173   33.1846   48.1618 H   0  0  0  0  0  0  0  0  0  0  0  0
   45.0233   33.4495   48.4255 H   0  0  0  0  0  0  0  0  0  0  0  0
   45.6333   34.1171   46.8734 H   0  0  0  0  0  0  0  0  0  0  0  0
   44.2757   32.9408   46.8734 H   0  0  0  0  0  0  0  0  0  0  0  0
  1 12  1  0
  2  1  1  0
  3  4  1  0
  3  2  2  0
  4 11  2  0
  5  4  1  0
  5  7  1  0
  6  5  2  0
  7  8  1  0
  8 10  2  0
  8  9  1  0
 11  1  1  0
 11 10  1  0
 12 15  1  0
 13 18  2  0
 14 15  2  0
 14 13  1  0
 15 16  1  0
 16 17  2  0
 17 19  1  0
 18 17  1  0
 19 22  1  0
 19 20  1  0
 19 21  1  0
  2 23  1  0
  7 24  1  0
  9 25  1  0
  9 26  1  0
 12 27  1  0
 12 28  1  0
 13 29  1  0
 14 30  1  0
 20 31  1  0
 20 32  1  0
 20 33  1  0
 21 34  1  0
 21 35  1  0
 21 36  1  0
 22 37  1  0
 22 38  1  0
 22 39  1  0
M  ISO  8  23  14  24   9  27   8  28   8  29  14  30  14  31   8  32   8
M  ISO  7  33   8  34   8  35   8  36   8  37   8  38   8  39   8
M  END
>  <minimizedAffinity>  (1) 
-5.29701662

>  <minimizedRMSD>  (1) 
1.88897324

$$$$
