
     RDKit          3D

 26 28  0  0  0  0  0  0  0  0999 V2000
   44.7710   35.6710   44.9790 C   0  0  0  0  0  0  0  0  0  0  0  0
   44.2470   35.5350   43.6770 C   0  0  0  0  0  0  0  0  0  0  0  0
   44.4310   34.3120   43.0310 C   0  0  0  0  0  0  0  0  0  0  0  0
   45.0970   33.3020   43.6580 N   0  0  0  0  0  0  0  0  0  0  0  0
   45.5880   33.4820   44.9240 C   0  0  0  0  0  0  0  0  0  0  0  0
   45.4270   34.6440   45.5680 N   0  0  0  0  0  0  0  0  0  0  0  0
   46.2980   32.3890   45.5770 C   0  0  0  0  0  0  0  0  0  0  0  0
   47.2660   31.5630   45.0220 C   0  0  0  0  0  0  0  0  0  0  0  0
   47.6900   30.6600   45.9480 N   0  0  0  0  0  0  0  0  0  0  0  0
   46.9770   30.9390   47.0770 C   0  0  0  0  0  0  0  0  0  0  0  0
   46.1400   31.9790   46.8530 N   0  0  0  0  0  0  0  0  0  0  0  0
   45.2090   32.5820   47.8040 C   0  0  0  0  0  0  0  0  0  0  0  0
   44.2050   31.6670   48.1880 F   0  0  0  0  0  0  0  0  0  0  0  0
   44.6080   33.7170   47.2850 F   0  0  0  0  0  0  0  0  0  0  0  0
   45.8670   32.9010   48.9760 F   0  0  0  0  0  0  0  0  0  0  0  0
   43.9030   34.1740   41.7200 N   0  0  0  0  0  0  0  0  0  0  0  0
   44.5520   33.9730   40.5600 C   0  0  0  0  0  0  0  0  0  0  0  0
   43.6310   33.9070   39.5810 N   0  0  0  0  0  0  0  0  0  0  0  0
   42.4060   34.0690   40.1330 C   0  0  0  0  0  0  0  0  0  0  0  0
   42.6090   34.2320   41.4630 N   0  0  0  0  0  0  0  0  0  0  0  0
   44.6455   36.6201   45.5208 H   0  0  0  0  0  0  0  0  0  0  0  0
   43.7126   36.3630   43.1883 H   0  0  0  0  0  0  0  0  0  0  0  0
   47.6353   31.6285   43.9879 H   0  0  0  0  0  0  0  0  0  0  0  0
   47.0688   30.3978   48.0303 H   0  0  0  0  0  0  0  0  0  0  0  0
   45.6407   33.8793   40.4337 H   0  0  0  0  0  0  0  0  0  0  0  0
   41.4396   34.0685   39.6076 H   0  0  0  0  0  0  0  0  0  0  0  0
  1  6  2  0
  2  1  1  0
  3  4  1  0
  3  2  2  0
  4  5  2  0
  5  6  1  0
  5  7  1  0
  7 11  1  0
  8  7  2  0
  8  9  1  0
  9 10  2  0
 11 10  1  0
 11 12  1  0
 12 13  1  0
 12 15  1  0
 14 12  1  0
 16  3  1  0
 17 16  1  0
 18 19  1  0
 18 17  2  0
 19 20  2  0
 20 16  1  0
  1 21  1  0
  2 22  1  0
  8 23  1  0
 10 24  1  0
 17 25  1  0
 19 26  1  0
M  ISO  6  21  14  22  14  23  14  24  14  25  14  26  14
M  END
>  <minimizedAffinity>  (1) 
-5.0484314

>  <minimizedRMSD>  (1) 
0.279084325

$$$$
