
     RDKit          3D

 45 48  0  0  1  0  0  0  0  0999 V2000
   49.4250   30.3680   42.1510 C   0  0  0  0  0  0  0  0  0  0  0  0
   49.3520   31.7770   42.0150 C   0  0  0  0  0  0  0  0  0  0  0  0
   48.5760   32.4980   42.9470 C   0  0  0  0  0  0  0  0  0  0  0  0
   47.9420   31.8020   43.9250 N   0  0  0  0  0  0  0  0  0  0  0  0
   48.0390   30.4330   44.0220 C   0  0  0  0  0  0  0  0  0  0  0  0
   48.7680   29.7440   43.1490 N   0  0  0  0  0  0  0  0  0  0  0  0
   48.4320   33.9790   42.8800 C   0  0  0  0  0  0  0  0  0  0  0  0
   47.1080   34.3090   42.3520 N   0  0  0  0  0  0  0  0  0  0  0  0
   46.7520   34.2450   41.0350 C   0  0  0  0  0  0  0  0  0  0  0  0
   45.4530   34.6240   40.9410 N   0  0  0  0  0  0  0  0  0  0  0  0
   44.9890   34.9230   42.1640 C   0  0  0  0  0  0  0  0  0  0  0  0
   43.7410   35.3560   42.6030 C   0  0  0  0  0  0  0  0  0  0  0  0
   42.8270   35.5220   41.7620 O   0  0  0  0  0  0  0  0  0  0  0  0
   43.6060   35.5660   43.9060 N   0  0  0  0  0  0  0  0  0  0  0  0
   44.6120   35.3790   44.7910 C   0  0  0  0  0  0  0  0  0  0  0  0
   44.4000   35.6220   46.1710 N   0  0  0  0  0  0  0  0  0  0  0  0
   45.8310   34.9580   44.3840 N   0  0  0  0  0  0  0  0  0  0  0  0
   46.0320   34.7290   43.0810 C   0  0  0  0  0  0  0  0  0  0  0  0
   47.3320   29.7090   45.1230 C   0  0  1  0  0  0  0  0  0  0  0  0
   47.3550   28.2050   44.9060 C   0  0  0  0  0  0  0  0  0  0  0  0
   48.0060   29.9520   46.4520 C   0  0  0  0  0  0  0  0  0  0  0  0
   46.9790   30.3860   47.4280 C   0  0  0  0  0  0  0  0  0  0  0  0
   47.0610   31.6820   47.8960 C   0  0  0  0  0  0  0  0  0  0  0  0
   46.1960   32.2570   48.8040 C   0  0  0  0  0  0  0  0  0  0  0  0
   45.1550   31.4540   49.2800 C   0  0  0  0  0  0  0  0  0  0  0  0
   45.0950   30.1680   48.7980 C   0  0  0  0  0  0  0  0  0  0  0  0
   45.9520   29.6310   47.9130 N   0  0  0  0  0  0  0  0  0  0  0  0
   50.0214   29.7802   41.4378 H   0  0  0  0  0  0  0  0  0  0  0  0
   49.8861   32.2945   41.2045 H   0  0  0  0  0  0  0  0  0  0  0  0
   48.5433   34.4057   43.8878 H   0  0  0  0  0  0  0  0  0  0  0  0
   49.2077   34.3969   42.2215 H   0  0  0  0  0  0  0  0  0  0  0  0
   47.4015   33.9409   40.2009 H   0  0  0  0  0  0  0  0  0  0  0  0
   42.6933   35.8861   44.2601 H   0  0  0  0  0  0  0  0  0  0  0  0
   45.1674   35.4789   46.8430 H   0  0  0  0  0  0  0  0  0  0  0  0
   43.4785   35.9417   46.5020 H   0  0  0  0  0  0  0  0  0  0  0  0
   46.2999   30.0896   45.1217 H   0  0  0  0  0  0  0  0  0  0  0  0
   47.3628   27.6941   45.8801 H   0  0  0  0  0  0  0  0  0  0  0  0
   46.4614   27.9024   44.3404 H   0  0  0  0  0  0  0  0  0  0  0  0
   48.2575   27.9299   44.3404 H   0  0  0  0  0  0  0  0  0  0  0  0
   48.4816   29.0239   46.8019 H   0  0  0  0  0  0  0  0  0  0  0  0
   48.7777   30.7288   46.3466 H   0  0  0  0  0  0  0  0  0  0  0  0
   47.8821   32.3066   47.5143 H   0  0  0  0  0  0  0  0  0  0  0  0
   46.3194   33.2979   49.1377 H   0  0  0  0  0  0  0  0  0  0  0  0
   44.4197   31.8330   50.0050 H   0  0  0  0  0  0  0  0  0  0  0  0
   44.2803   29.5272   49.1662 H   0  0  0  0  0  0  0  0  0  0  0  0
  1  6  2  0
  2  1  1  0
  2  3  2  0
  3  4  1  0
  4  5  2  0
  5 19  1  0
  6  5  1  0
  7  3  1  0
  8  7  1  0
  8 18  1  0
  9  8  1  0
 10  9  2  0
 10 11  1  0
 11 12  1  0
 11 18  2  0
 12 14  1  0
 13 12  2  0
 14 15  1  0
 15 16  1  0
 17 15  2  0
 18 17  1  0
 19 21  1  0
 20 19  1  0
 21 22  1  0
 22 23  2  0
 22 27  1  0
 23 24  1  0
 24 25  2  0
 26 25  1  0
 27 26  2  0
  1 28  1  0
  2 29  1  0
  7 30  1  0
  7 31  1  0
  9 32  1  0
 14 33  1  0
 16 34  1  0
 16 35  1  0
 19 36  1  1
 20 37  1  0
 20 38  1  0
 20 39  1  0
 21 40  1  0
 21 41  1  0
 23 42  1  0
 24 43  1  0
 25 44  1  0
 26 45  1  0
M  ISO  8  28  14  29  14  30   8  31   8  32  14  33   9  36   8  37   8
M  ISO  8  38   8  39   8  40   8  41   8  42  14  43  14  44  14  45  14
M  END
>  <minimizedAffinity>  (1) 
-6.41173172

>  <minimizedRMSD>  (1) 
1.46586227

$$$$
