
     RDKit          3D

 46 49  0  0  1  0  0  0  0  0999 V2000
   49.4680   30.4010   42.1200 C   0  0  0  0  0  0  0  0  0  0  0  0
   49.3880   31.8060   41.9920 C   0  0  0  0  0  0  0  0  0  0  0  0
   48.5900   32.5180   42.9150 C   0  0  0  0  0  0  0  0  0  0  0  0
   47.9470   31.8050   43.8750 N   0  0  0  0  0  0  0  0  0  0  0  0
   48.0540   30.4390   43.9630 C   0  0  0  0  0  0  0  0  0  0  0  0
   48.8040   29.7650   43.0960 N   0  0  0  0  0  0  0  0  0  0  0  0
   48.4380   33.9990   42.8520 C   0  0  0  0  0  0  0  0  0  0  0  0
   47.1100   34.3200   42.3280 N   0  0  0  0  0  0  0  0  0  0  0  0
   46.7510   34.2500   41.0080 C   0  0  0  0  0  0  0  0  0  0  0  0
   45.4520   34.6180   40.9070 N   0  0  0  0  0  0  0  0  0  0  0  0
   44.9860   34.9200   42.1400 C   0  0  0  0  0  0  0  0  0  0  0  0
   43.7330   35.3470   42.5790 C   0  0  0  0  0  0  0  0  0  0  0  0
   42.8180   35.5050   41.7440 O   0  0  0  0  0  0  0  0  0  0  0  0
   43.6120   35.5560   43.8860 N   0  0  0  0  0  0  0  0  0  0  0  0
   44.6240   35.3780   44.7730 C   0  0  0  0  0  0  0  0  0  0  0  0
   44.4000   35.6260   46.1470 N   0  0  0  0  0  0  0  0  0  0  0  0
   45.8350   34.9660   44.3580 N   0  0  0  0  0  0  0  0  0  0  0  0
   46.0310   34.7330   43.0390 C   0  0  0  0  0  0  0  0  0  0  0  0
   47.3260   29.6990   45.0550 C   0  0  1  0  0  0  0  0  0  0  0  0
   47.4060   28.1980   44.8600 C   0  0  0  0  0  0  0  0  0  0  0  0
   47.9590   29.9930   46.3940 C   0  0  0  0  0  0  0  0  0  0  0  0
   47.0410   30.5460   47.3790 C   0  0  0  0  0  0  0  0  0  0  0  0
   47.0820   31.8530   47.8700 C   0  0  0  0  0  0  0  0  0  0  0  0
   46.1780   32.2920   48.7980 C   0  0  0  0  0  0  0  0  0  0  0  0
   45.2060   31.4680   49.2740 C   0  0  0  0  0  0  0  0  0  0  0  0
   45.0800   30.1510   48.8520 C   0  0  0  0  0  0  0  0  0  0  0  0
   46.0310   29.7750   47.9100 C   0  0  0  0  0  0  0  0  0  0  0  0
   50.0808   29.8235   41.4122 H   0  0  0  0  0  0  0  0  0  0  0  0
   49.9331   32.3318   41.1942 H   0  0  0  0  0  0  0  0  0  0  0  0
   48.5493   34.4243   43.8603 H   0  0  0  0  0  0  0  0  0  0  0  0
   49.2099   34.4240   42.1936 H   0  0  0  0  0  0  0  0  0  0  0  0
   47.4037   33.9477   40.1758 H   0  0  0  0  0  0  0  0  0  0  0  0
   42.6996   35.8705   44.2458 H   0  0  0  0  0  0  0  0  0  0  0  0
   45.1634   35.4930   46.8255 H   0  0  0  0  0  0  0  0  0  0  0  0
   43.4734   35.9397   46.4693 H   0  0  0  0  0  0  0  0  0  0  0  0
   46.2785   30.0328   45.0184 H   0  0  0  0  0  0  0  0  0  0  0  0
   47.4325   27.7017   45.8413 H   0  0  0  0  0  0  0  0  0  0  0  0
   46.5249   27.8537   44.2986 H   0  0  0  0  0  0  0  0  0  0  0  0
   48.3187   27.9493   44.2986 H   0  0  0  0  0  0  0  0  0  0  0  0
   48.3707   29.0548   46.7945 H   0  0  0  0  0  0  0  0  0  0  0  0
   48.7313   30.7562   46.2180 H   0  0  0  0  0  0  0  0  0  0  0  0
   47.8564   32.5428   47.5032 H   0  0  0  0  0  0  0  0  0  0  0  0
   46.2380   33.3272   49.1650 H   0  0  0  0  0  0  0  0  0  0  0  0
   44.4960   31.8580   50.0182 H   0  0  0  0  0  0  0  0  0  0  0  0
   44.3019   29.4701   49.2273 H   0  0  0  0  0  0  0  0  0  0  0  0
   45.9693   28.7389   47.5457 H   0  0  0  0  0  0  0  0  0  0  0  0
  1  6  2  0
  2  1  1  0
  2  3  2  0
  3  4  1  0
  4  5  2  0
  5 19  1  0
  6  5  1  0
  7  3  1  0
  8  7  1  0
  8 18  1  0
  9  8  1  0
 10  9  2  0
 10 11  1  0
 11 12  1  0
 11 18  2  0
 12 14  1  0
 13 12  2  0
 14 15  1  0
 15 16  1  0
 17 15  2  0
 18 17  1  0
 19 21  1  0
 20 19  1  0
 21 22  1  0
 22 23  2  0
 22 27  1  0
 23 24  1  0
 24 25  2  0
 26 25  1  0
 27 26  2  0
  1 28  1  0
  2 29  1  0
  7 30  1  0
  7 31  1  0
  9 32  1  0
 14 33  1  0
 16 34  1  0
 16 35  1  0
 19 36  1  1
 20 37  1  0
 20 38  1  0
 20 39  1  0
 21 40  1  0
 21 41  1  0
 23 42  1  0
 24 43  1  0
 25 44  1  0
 26 45  1  0
 27 46  1  0
M  ISO  8  28  14  29  14  30   8  31   8  32  14  33   9  36   8  37   8
M  ISO  8  38   8  39   8  40   8  41   8  42  14  43  14  44  14  45  14
M  ISO  1  46  14
M  END
>  <minimizedAffinity>  (1) 
-6.54132271

>  <minimizedRMSD>  (1) 
1.51803088

$$$$
