
     RDKit          3D

 41 44  0  0  1  0  0  0  0  0999 V2000
   49.1790   30.2300   42.4610 C   0  0  0  0  0  0  0  0  0  0  0  0
   49.1700   31.6230   42.2000 C   0  0  0  0  0  0  0  0  0  0  0  0
   48.4470   32.4650   43.0760 C   0  0  0  0  0  0  0  0  0  0  0  0
   47.8020   31.8840   44.1190 N   0  0  0  0  0  0  0  0  0  0  0  0
   47.8340   30.5280   44.3390 C   0  0  0  0  0  0  0  0  0  0  0  0
   48.5120   29.7310   43.5180 N   0  0  0  0  0  0  0  0  0  0  0  0
   48.3820   33.9340   42.8660 C   0  0  0  0  0  0  0  0  0  0  0  0
   47.0600   34.2800   42.3380 N   0  0  0  0  0  0  0  0  0  0  0  0
   46.6860   34.2250   41.0400 C   0  0  0  0  0  0  0  0  0  0  0  0
   45.3940   34.6200   40.9440 N   0  0  0  0  0  0  0  0  0  0  0  0
   44.9460   34.9240   42.1670 C   0  0  0  0  0  0  0  0  0  0  0  0
   43.7090   35.3740   42.6190 C   0  0  0  0  0  0  0  0  0  0  0  0
   42.7880   35.5530   41.7860 O   0  0  0  0  0  0  0  0  0  0  0  0
   43.5840   35.5870   43.9210 N   0  0  0  0  0  0  0  0  0  0  0  0
   44.6010   35.3850   44.8050 C   0  0  0  0  0  0  0  0  0  0  0  0
   44.3900   35.6350   46.1780 N   0  0  0  0  0  0  0  0  0  0  0  0
   45.8100   34.9480   44.3870 N   0  0  0  0  0  0  0  0  0  0  0  0
   45.9860   34.7170   43.0730 C   0  0  0  0  0  0  0  0  0  0  0  0
   47.1100   29.9370   45.5160 C   0  0  1  0  0  0  0  0  0  0  0  0
   47.2390   28.4280   45.5530 C   0  0  0  0  0  0  0  0  0  0  0  0
   47.7050   30.4530   46.8110 C   0  0  0  0  0  0  0  0  0  0  0  0
   46.5900   31.0120   47.6400 C   0  0  0  0  0  0  0  0  0  0  0  0
   45.5530   31.7970   47.3110 N   0  0  0  0  0  0  0  0  0  0  0  0
   44.8260   32.0380   48.3600 O   0  0  0  0  0  0  0  0  0  0  0  0
   45.3340   31.4360   49.4220 C   0  0  0  0  0  0  0  0  0  0  0  0
   46.4320   30.7980   48.9740 N   0  0  0  0  0  0  0  0  0  0  0  0
   49.7345   29.5527   41.7957 H   0  0  0  0  0  0  0  0  0  0  0  0
   49.7118   32.0386   41.3376 H   0  0  0  0  0  0  0  0  0  0  0  0
   48.5443   34.4513   43.8231 H   0  0  0  0  0  0  0  0  0  0  0  0
   49.1606   34.2433   42.1532 H   0  0  0  0  0  0  0  0  0  0  0  0
   47.3249   33.9115   40.2012 H   0  0  0  0  0  0  0  0  0  0  0  0
   42.6781   35.9200   44.2806 H   0  0  0  0  0  0  0  0  0  0  0  0
   45.1540   35.4846   46.8522 H   0  0  0  0  0  0  0  0  0  0  0  0
   43.4720   35.9678   46.5057 H   0  0  0  0  0  0  0  0  0  0  0  0
   46.0538   30.2258   45.4107 H   0  0  0  0  0  0  0  0  0  0  0  0
   47.2681   28.0880   46.5987 H   0  0  0  0  0  0  0  0  0  0  0  0
   46.3764   27.9737   45.0436 H   0  0  0  0  0  0  0  0  0  0  0  0
   48.1662   28.1267   45.0436 H   0  0  0  0  0  0  0  0  0  0  0  0
   48.1956   29.6297   47.3510 H   0  0  0  0  0  0  0  0  0  0  0  0
   48.4556   31.2302   46.6046 H   0  0  0  0  0  0  0  0  0  0  0  0
   44.9437   31.4527   50.4503 H   0  0  0  0  0  0  0  0  0  0  0  0
  1  6  2  0
  2  1  1  0
  2  3  2  0
  3  4  1  0
  4  5  2  0
  5 19  1  0
  6  5  1  0
  7  3  1  0
  8  7  1  0
  8 18  1  0
  9  8  1  0
 10  9  2  0
 10 11  1  0
 11 12  1  0
 11 18  2  0
 12 14  1  0
 13 12  2  0
 14 15  1  0
 15 16  1  0
 17 15  2  0
 18 17  1  0
 19 20  1  0
 19 21  1  0
 21 22  1  0
 22 26  1  0
 23 22  2  0
 23 24  1  0
 24 25  1  0
 26 25  2  0
  1 27  1  0
  2 28  1  0
  7 29  1  0
  7 30  1  0
  9 31  1  0
 14 32  1  0
 16 33  1  0
 16 34  1  0
 19 35  1  6
 20 36  1  0
 20 37  1  0
 20 38  1  0
 21 39  1  0
 21 40  1  0
 25 41  1  0
M  ISO  8  27  14  28  14  29   8  30   8  31  14  32   9  35   8  36   8
M  ISO  5  37   8  38   8  39   8  40   8  41  14
M  END
>  <minimizedAffinity>  (1) 
-6.04274654

>  <minimizedRMSD>  (1) 
1.24175692

$$$$
