
     RDKit          3D

 52 56  0  0  1  0  0  0  0  0999 V2000
   49.8280   30.7860   41.4180 C   0  0  0  0  0  0  0  0  0  0  0  0
   49.5170   32.1300   41.1150 C   0  0  0  0  0  0  0  0  0  0  0  0
   48.5660   32.7920   41.9070 C   0  0  0  0  0  0  0  0  0  0  0  0
   47.9940   32.0990   42.9310 N   0  0  0  0  0  0  0  0  0  0  0  0
   48.3220   30.7900   43.1930 C   0  0  0  0  0  0  0  0  0  0  0  0
   49.2240   30.1600   42.4430 N   0  0  0  0  0  0  0  0  0  0  0  0
   48.1630   34.2090   41.6630 C   0  0  0  0  0  0  0  0  0  0  0  0
   46.7410   34.2600   41.3470 N   0  0  0  0  0  0  0  0  0  0  0  0
   46.1660   33.7400   40.2340 C   0  0  0  0  0  0  0  0  0  0  0  0
   44.8330   33.9730   40.2880 N   0  0  0  0  0  0  0  0  0  0  0  0
   44.5570   34.6350   41.4210 C   0  0  0  0  0  0  0  0  0  0  0  0
   43.3570   35.1090   41.9550 C   0  0  0  0  0  0  0  0  0  0  0  0
   42.2950   34.9250   41.3210 O   0  0  0  0  0  0  0  0  0  0  0  0
   43.4350   35.7370   43.1300 N   0  0  0  0  0  0  0  0  0  0  0  0
   44.5930   35.9200   43.7900 C   0  0  0  0  0  0  0  0  0  0  0  0
   44.5850   36.6000   45.0340 N   0  0  0  0  0  0  0  0  0  0  0  0
   45.7700   35.4700   43.2920 N   0  0  0  0  0  0  0  0  0  0  0  0
   45.7600   34.8250   42.1050 C   0  0  0  0  0  0  0  0  0  0  0  0
   47.6590   30.0670   44.3400 C   0  0  1  0  0  0  0  0  0  0  0  0
   48.5560   30.0300   45.5580 C   0  0  0  0  0  0  0  0  0  0  0  0
   46.4050   30.7930   44.7270 C   0  0  0  0  0  0  0  0  0  0  0  0
   46.0170   30.6840   46.1150 C   0  0  0  0  0  0  0  0  0  0  0  0
   46.1180   31.6650   47.0940 C   0  0  0  0  0  0  0  0  0  0  0  0
   45.7160   31.4400   48.4110 C   0  0  0  0  0  0  0  0  0  0  0  0
   45.2020   30.2150   48.7730 C   0  0  0  0  0  0  0  0  0  0  0  0
   45.0960   29.2300   47.8120 C   0  0  0  0  0  0  0  0  0  0  0  0
   44.5680   28.0020   48.2150 C   0  0  0  0  0  0  0  0  0  0  0  0
   44.4320   26.9730   47.3050 C   0  0  0  0  0  0  0  0  0  0  0  0
   44.8270   27.1770   45.9850 C   0  0  0  0  0  0  0  0  0  0  0  0
   45.3370   28.4070   45.6550 C   0  0  0  0  0  0  0  0  0  0  0  0
   45.4930   29.4710   46.5340 C   0  0  0  0  0  0  0  0  0  0  0  0
   50.5702   30.2473   40.8106 H   0  0  0  0  0  0  0  0  0  0  0  0
   50.0089   32.6461   40.2774 H   0  0  0  0  0  0  0  0  0  0  0  0
   48.3603   34.8072   42.5648 H   0  0  0  0  0  0  0  0  0  0  0  0
   48.7416   34.6158   40.8205 H   0  0  0  0  0  0  0  0  0  0  0  0
   46.6940   33.2167   39.4232 H   0  0  0  0  0  0  0  0  0  0  0  0
   42.5676   36.0987   43.5515 H   0  0  0  0  0  0  0  0  0  0  0  0
   45.4662   36.7452   45.5472 H   0  0  0  0  0  0  0  0  0  0  0  0
   43.6980   36.9488   45.4246 H   0  0  0  0  0  0  0  0  0  0  0  0
   47.4446   29.0403   44.0085 H   0  0  0  0  0  0  0  0  0  0  0  0
   47.9393   30.0554   46.4685 H   0  0  0  0  0  0  0  0  0  0  0  0
   49.1534   29.1064   45.5455 H   0  0  0  0  0  0  0  0  0  0  0  0
   49.2274   30.9012   45.5455 H   0  0  0  0  0  0  0  0  0  0  0  0
   46.5489   31.8596   44.4997 H   0  0  0  0  0  0  0  0  0  0  0  0
   45.5959   30.3179   44.1528 H   0  0  0  0  0  0  0  0  0  0  0  0
   46.5275   32.6491   46.8223 H   0  0  0  0  0  0  0  0  0  0  0  0
   45.8096   32.2406   49.1595 H   0  0  0  0  0  0  0  0  0  0  0  0
   44.8820   30.0250   49.8081 H   0  0  0  0  0  0  0  0  0  0  0  0
   44.2596   27.8541   49.2605 H   0  0  0  0  0  0  0  0  0  0  0  0
   44.0168   26.0038   47.6184 H   0  0  0  0  0  0  0  0  0  0  0  0
   44.7333   26.3795   45.2332 H   0  0  0  0  0  0  0  0  0  0  0  0
   45.6471   28.5630   44.6112 H   0  0  0  0  0  0  0  0  0  0  0  0
  1  6  2  0
  2  1  1  0
  2  3  2  0
  3  4  1  0
  4  5  2  0
  5 19  1  0
  6  5  1  0
  7  3  1  0
  8  7  1  0
  8 18  1  0
  9 10  2  0
  9  8  1  0
 10 11  1  0
 11 12  1  0
 11 18  2  0
 12 14  1  0
 13 12  2  0
 14 15  1  0
 15 16  1  0
 17 15  2  0
 18 17  1  0
 19 21  1  0
 19 20  1  0
 21 22  1  0
 22 31  1  0
 22 23  2  0
 23 24  1  0
 24 25  2  0
 26 27  2  0
 26 25  1  0
 28 27  1  0
 29 28  2  0
 30 29  1  0
 30 31  2  0
 31 26  1  0
  1 32  1  0
  2 33  1  0
  7 34  1  0
  7 35  1  0
  9 36  1  0
 14 37  1  0
 16 38  1  0
 16 39  1  0
 19 40  1  6
 20 41  1  0
 20 42  1  0
 20 43  1  0
 21 44  1  0
 21 45  1  0
 23 46  1  0
 24 47  1  0
 25 48  1  0
 27 49  1  0
 28 50  1  0
 29 51  1  0
 30 52  1  0
M  ISO  8  32  14  33  14  34   8  35   8  36  14  37   9  40   8  41   8
M  ISO  8  42   8  43   8  44   8  45   8  46  14  47  14  48  14  49  14
M  ISO  3  50  14  51  14  52  14
M  END
>  <minimizedAffinity>  (1) 
-6.1987114

>  <minimizedRMSD>  (1) 
2.23992157

$$$$
