
     RDKit          3D

 26 28  0  0  0  0  0  0  0  0999 V2000
   44.7810   35.7000   44.9570 C   0  0  0  0  0  0  0  0  0  0  0  0
   44.2220   35.5360   43.6750 C   0  0  0  0  0  0  0  0  0  0  0  0
   44.3620   34.3070   43.0230 C   0  0  0  0  0  0  0  0  0  0  0  0
   45.0360   33.3400   43.6780 N   0  0  0  0  0  0  0  0  0  0  0  0
   45.5710   33.5010   44.9100 C   0  0  0  0  0  0  0  0  0  0  0  0
   45.4370   34.6750   45.5300 N   0  0  0  0  0  0  0  0  0  0  0  0
   46.2860   32.3990   45.5480 C   0  0  0  0  0  0  0  0  0  0  0  0
   47.2510   31.5740   44.9930 C   0  0  0  0  0  0  0  0  0  0  0  0
   47.6700   30.6730   45.9170 N   0  0  0  0  0  0  0  0  0  0  0  0
   46.9670   30.9390   47.0390 C   0  0  0  0  0  0  0  0  0  0  0  0
   46.1250   31.9850   46.8250 N   0  0  0  0  0  0  0  0  0  0  0  0
   45.2000   32.5770   47.7830 C   0  0  0  0  0  0  0  0  0  0  0  0
   44.2160   31.6750   48.1730 F   0  0  0  0  0  0  0  0  0  0  0  0
   44.6100   33.7420   47.2850 F   0  0  0  0  0  0  0  0  0  0  0  0
   45.8760   32.8980   48.9600 F   0  0  0  0  0  0  0  0  0  0  0  0
   43.8010   34.0790   41.6880 C   0  0  0  0  0  0  0  0  0  0  0  0
   43.7930   32.7890   41.1190 C   0  0  0  0  0  0  0  0  0  0  0  0
   42.9930   33.0730   39.4760 S   0  0  0  0  0  0  0  0  0  0  0  0
   42.8140   34.9220   39.8660 C   0  0  0  0  0  0  0  0  0  0  0  0
   43.2710   34.9990   40.9100 N   0  0  0  0  0  0  0  0  0  0  0  0
   44.6819   36.6593   45.4860 H   0  0  0  0  0  0  0  0  0  0  0  0
   43.6821   36.3641   43.1926 H   0  0  0  0  0  0  0  0  0  0  0  0
   47.6215   31.6396   43.9594 H   0  0  0  0  0  0  0  0  0  0  0  0
   47.0617   30.3898   47.9874 H   0  0  0  0  0  0  0  0  0  0  0  0
   44.1691   31.8477   41.5461 H   0  0  0  0  0  0  0  0  0  0  0  0
   42.3798   35.7184   39.2437 H   0  0  0  0  0  0  0  0  0  0  0  0
  1  6  2  0
  2  1  1  0
  3  2  2  0
  3  4  1  0
  4  5  2  0
  5  6  1  0
  5  7  1  0
  7 11  1  0
  8  7  2  0
  8  9  1  0
  9 10  2  0
 11 10  1  0
 11 12  1  0
 12 13  1  0
 12 15  1  0
 14 12  1  0
 16  3  1  0
 17 16  2  0
 18 19  1  0
 18 17  1  0
 19 20  2  0
 20 16  1  0
  1 21  1  0
  2 22  1  0
  8 23  1  0
 10 24  1  0
 17 25  1  0
 19 26  1  0
M  ISO  6  21  14  22  14  23  14  24  14  25  14  26  14
M  END
>  <minimizedAffinity>  (1) 
-4.96106815

>  <minimizedRMSD>  (1) 
0.274457961

$$$$
