
     RDKit          3D

 23 24  0  0  0  0  0  0  0  0999 V2000
   44.7430   35.6770   44.9930 C   0  0  0  0  0  0  0  0  0  0  0  0
   44.2770   35.5350   43.6560 C   0  0  0  0  0  0  0  0  0  0  0  0
   44.5030   34.3370   43.0060 C   0  0  0  0  0  0  0  0  0  0  0  0
   45.1550   33.3400   43.6460 N   0  0  0  0  0  0  0  0  0  0  0  0
   45.5970   33.4890   44.9240 C   0  0  0  0  0  0  0  0  0  0  0  0
   45.3850   34.6490   45.5740 N   0  0  0  0  0  0  0  0  0  0  0  0
   46.2960   32.4000   45.5850 C   0  0  0  0  0  0  0  0  0  0  0  0
   47.2720   31.5630   45.0340 C   0  0  0  0  0  0  0  0  0  0  0  0
   47.6840   30.6690   45.9640 N   0  0  0  0  0  0  0  0  0  0  0  0
   46.9690   30.9470   47.0860 C   0  0  0  0  0  0  0  0  0  0  0  0
   46.1290   31.9950   46.8540 N   0  0  0  0  0  0  0  0  0  0  0  0
   45.2030   32.5900   47.8000 C   0  0  0  0  0  0  0  0  0  0  0  0
   44.2040   31.6820   48.1820 F   0  0  0  0  0  0  0  0  0  0  0  0
   44.6000   33.7350   47.2870 F   0  0  0  0  0  0  0  0  0  0  0  0
   45.8640   32.9110   48.9790 F   0  0  0  0  0  0  0  0  0  0  0  0
   44.0190   34.2040   41.6340 C   0  0  0  0  0  0  0  0  0  0  0  0
   42.8880   33.6460   41.5050 O   0  0  0  0  0  0  0  0  0  0  0  0
   44.7350   34.6510   40.5410 O   0  0  0  0  0  0  0  0  0  0  0  0
   44.5800   36.6153   45.5435 H   0  0  0  0  0  0  0  0  0  0  0  0
   43.7498   36.3587   43.1524 H   0  0  0  0  0  0  0  0  0  0  0  0
   47.6478   31.6220   44.0019 H   0  0  0  0  0  0  0  0  0  0  0  0
   47.0555   30.4063   48.0400 H   0  0  0  0  0  0  0  0  0  0  0  0
   44.3669   34.5393   39.6288 H   0  0  0  0  0  0  0  0  0  0  0  0
  1  6  2  0
  2  1  1  0
  3  4  1  0
  3  2  2  0
  4  5  2  0
  5  6  1  0
  5  7  1  0
  7 11  1  0
  8  7  2  0
  8  9  1  0
  9 10  2  0
 11 10  1  0
 11 12  1  0
 12 13  1  0
 12 15  1  0
 14 12  1  0
 16  3  1  0
 17 16  2  0
 18 16  1  0
  1 19  1  0
  2 20  1  0
  8 21  1  0
 10 22  1  0
 18 23  1  0
M  ISO  5  19  14  20  14  21  14  22  14  23   3
M  END
>  <minimizedAffinity>  (1) 
-4.91650867

>  <minimizedRMSD>  (1) 
0.308308184

$$$$
