
     RDKit          3D

 18 19  0  0  0  0  0  0  0  0999 V2000
   44.5580   35.6840   44.8650 C   0  0  0  0  0  0  0  0  0  0  0  0
   45.1920   35.6780   43.6010 C   0  0  0  0  0  0  0  0  0  0  0  0
   46.1330   34.6610   43.3610 C   0  0  0  0  0  0  0  0  0  0  0  0
   46.3580   33.7720   44.3520 N   0  0  0  0  0  0  0  0  0  0  0  0
   45.7450   33.7980   45.5420 C   0  0  0  0  0  0  0  0  0  0  0  0
   44.8450   34.7570   45.7950 N   0  0  0  0  0  0  0  0  0  0  0  0
   45.9850   32.8800   46.5510 O   0  0  0  0  0  0  0  0  0  0  0  0
   45.2290   32.8140   47.7380 C   0  0  0  0  0  0  0  0  0  0  0  0
   44.9080   31.4270   48.2420 C   0  0  0  0  0  0  0  0  0  0  0  0
   45.9540   32.2790   48.9350 C   0  0  0  0  0  0  0  0  0  0  0  0
   43.8151   36.4629   45.0917 H   0  0  0  0  0  0  0  0  0  0  0  0
   44.9592   36.4360   42.8386 H   0  0  0  0  0  0  0  0  0  0  0  0
   46.6661   34.5922   42.4013 H   0  0  0  0  0  0  0  0  0  0  0  0
   44.6360   33.7157   47.5251 H   0  0  0  0  0  0  0  0  0  0  0  0
   43.9444   31.2278   48.7337 H   0  0  0  0  0  0  0  0  0  0  0  0
   44.8877   30.4199   47.8000 H   0  0  0  0  0  0  0  0  0  0  0  0
   47.0185   32.0124   48.8591 H   0  0  0  0  0  0  0  0  0  0  0  0
   46.1142   32.6269   49.9661 H   0  0  0  0  0  0  0  0  0  0  0  0
  1  6  2  0
  2  1  1  0
  3  2  2  0
  3  4  1  0
  4  5  2  0
  5  6  1  0
  5  7  1  0
  7  8  1  0
  8  9  1  0
  8 10  1  0
  9 10  1  0
  1 11  1  0
  2 12  1  0
  3 13  1  0
  8 14  1  0
  9 15  1  0
  9 16  1  0
 10 17  1  0
 10 18  1  0
M  ISO  8  11  14  12  14  13  14  14  13  15  13  16  13  17  13  18  13
M  END
>  <minimizedAffinity>  (1) 
-3.75305676

>  <minimizedRMSD>  (1) 
1.33855724

$$$$
