
     RDKit          3D

 27 28  0  0  0  0  0  0  0  0999 V2000
   44.5460   35.7940   42.9580 C   0  0  0  0  0  0  0  0  0  0  0  0
   43.6090   35.3540   42.0200 C   0  0  0  0  0  0  0  0  0  0  0  0
   44.0990   34.6170   40.9410 C   0  0  0  0  0  0  0  0  0  0  0  0
   45.4230   34.3690   40.8540 N   0  0  0  0  0  0  0  0  0  0  0  0
   46.2990   34.8120   41.7850 C   0  0  0  0  0  0  0  0  0  0  0  0
   45.8480   35.5240   42.8300 N   0  0  0  0  0  0  0  0  0  0  0  0
   47.6740   34.5760   41.7310 O   0  0  0  0  0  0  0  0  0  0  0  0
   48.4610   34.3320   42.8590 C   0  0  0  0  0  0  0  0  0  0  0  0
   49.9070   34.6580   42.5790 C   0  0  0  0  0  0  0  0  0  0  0  0
   50.7700   33.4660   42.3200 C   0  0  0  0  0  0  0  0  0  0  0  0
   50.0700   32.4770   41.4020 C   0  0  0  0  0  0  0  0  0  0  0  0
   48.7210   32.0960   41.9220 C   0  0  0  0  0  0  0  0  0  0  0  0
   48.3740   32.8530   43.1770 C   0  0  0  0  0  0  0  0  0  0  0  0
   44.2027   36.3780   43.8246 H   0  0  0  0  0  0  0  0  0  0  0  0
   42.5372   35.5775   42.1267 H   0  0  0  0  0  0  0  0  0  0  0  0
   43.4123   34.2414   40.1681 H   0  0  0  0  0  0  0  0  0  0  0  0
   48.1018   34.9543   43.6919 H   0  0  0  0  0  0  0  0  0  0  0  0
   49.9474   35.3106   41.6944 H   0  0  0  0  0  0  0  0  0  0  0  0
   50.3013   35.1397   43.4859 H   0  0  0  0  0  0  0  0  0  0  0  0
   51.7065   33.7958   41.8466 H   0  0  0  0  0  0  0  0  0  0  0  0
   50.9778   32.9683   43.2787 H   0  0  0  0  0  0  0  0  0  0  0  0
   50.6879   31.5709   41.3173 H   0  0  0  0  0  0  0  0  0  0  0  0
   49.9355   32.9568   40.4213 H   0  0  0  0  0  0  0  0  0  0  0  0
   47.9668   32.3168   41.1523 H   0  0  0  0  0  0  0  0  0  0  0  0
   48.7364   31.0226   42.1620 H   0  0  0  0  0  0  0  0  0  0  0  0
   49.0850   32.5989   43.9770 H   0  0  0  0  0  0  0  0  0  0  0  0
   47.3621   32.5904   43.5192 H   0  0  0  0  0  0  0  0  0  0  0  0
  2  1  2  0
  3  2  1  0
  4  3  2  0
  4  5  1  0
  5  6  2  0
  6  1  1  0
  7  5  1  0
  7  8  1  0
  8 13  1  0
  9  8  1  0
 10  9  1  0
 11 12  1  0
 11 10  1  0
 12 13  1  0
  1 14  1  0
  2 15  1  0
  3 16  1  0
  8 17  1  0
  9 18  1  0
  9 19  1  0
 10 20  1  0
 10 21  1  0
 11 22  1  0
 11 23  1  0
 12 24  1  0
 12 25  1  0
 13 26  1  0
 13 27  1  0
M  ISO  8  14  14  15  14  16  14  17  13  18  13  19  13  20  13  21  13
M  ISO  6  22  13  23  13  24  13  25  13  26  13  27  13
M  END
>  <minimizedAffinity>  (1) 
-4.03089666

>  <minimizedRMSD>  (1) 
6.41261959

$$$$
