
     RDKit          3D

 28 30  0  0  0  0  0  0  0  0999 V2000
   44.6540   36.0200   44.3650 C   0  0  0  0  0  0  0  0  0  0  0  0
   45.4600   36.0350   43.2350 C   0  0  0  0  0  0  0  0  0  0  0  0
   46.3540   34.9840   43.0800 C   0  0  0  0  0  0  0  0  0  0  0  0
   46.3720   34.0270   44.0400 N   0  0  0  0  0  0  0  0  0  0  0  0
   45.5930   34.0220   45.1230 C   0  0  0  0  0  0  0  0  0  0  0  0
   44.7140   35.0380   45.2950 N   0  0  0  0  0  0  0  0  0  0  0  0
   47.2230   34.9420   41.9180 C   0  0  0  0  0  0  0  0  0  0  0  0
   48.4670   35.5130   41.8010 C   0  0  0  0  0  0  0  0  0  0  0  0
   48.9840   35.2660   40.5610 N   0  0  0  0  0  0  0  0  0  0  0  0
   48.0440   34.5490   39.9500 C   0  0  0  0  0  0  0  0  0  0  0  0
   48.0780   34.0430   38.6700 C   0  0  0  0  0  0  0  0  0  0  0  0
   47.0210   33.3270   38.2000 C   0  0  0  0  0  0  0  0  0  0  0  0
   45.8800   33.0530   38.9240 C   0  0  0  0  0  0  0  0  0  0  0  0
   45.8670   33.5770   40.2220 C   0  0  0  0  0  0  0  0  0  0  0  0
   46.9260   34.3060   40.7200 C   0  0  0  0  0  0  0  0  0  0  0  0
   45.6140   33.0560   46.0920 O   0  0  0  0  0  0  0  0  0  0  0  0
   46.7510   32.3400   46.4900 C   0  0  0  0  0  0  0  0  0  0  0  0
   47.5000   33.0480   47.4170 F   0  0  0  0  0  0  0  0  0  0  0  0
   47.4870   31.9500   45.4010 F   0  0  0  0  0  0  0  0  0  0  0  0
   46.3090   31.1900   47.1680 F   0  0  0  0  0  0  0  0  0  0  0  0
   43.9362   36.8407   44.5110 H   0  0  0  0  0  0  0  0  0  0  0  0
   45.3933   36.8451   42.4938 H   0  0  0  0  0  0  0  0  0  0  0  0
   48.9735   36.0862   42.5915 H   0  0  0  0  0  0  0  0  0  0  0  0
   49.8944   35.5664   40.1845 H   0  0  0  0  0  0  0  0  0  0  0  0
   48.9558   34.2169   38.0303 H   0  0  0  0  0  0  0  0  0  0  0  0
   47.0807   32.9402   37.1720 H   0  0  0  0  0  0  0  0  0  0  0  0
   45.0442   32.4676   38.5132 H   0  0  0  0  0  0  0  0  0  0  0  0
   44.9890   33.4026   40.8613 H   0  0  0  0  0  0  0  0  0  0  0  0
  1  6  2  0
  2  1  1  0
  3  2  2  0
  3  4  1  0
  4  5  2  0
  5  6  1  0
  5 16  1  0
  7  3  1  0
  8  7  2  0
  9  8  1  0
 10  9  1  0
 10 15  2  0
 11 10  1  0
 12 11  2  0
 12 13  1  0
 13 14  2  0
 14 15  1  0
 15  7  1  0
 16 17  1  0
 17 20  1  0
 17 18  1  0
 19 17  1  0
  1 21  1  0
  2 22  1  0
  8 23  1  0
  9 24  1  0
 11 25  1  0
 12 26  1  0
 13 27  1  0
 14 28  1  0
M  ISO  8  21  14  22  14  23  14  24   9  25  14  26  14  27  14  28  14
M  END
>  <minimizedAffinity>  (1) 
-6.27283192

>  <minimizedRMSD>  (1) 
1.37278748

$$$$
