
     RDKit          3D

 23 24  0  0  1  0  0  0  0  0999 V2000
   50.0270   34.8520   42.4920 C   0  0  0  0  0  0  0  0  0  0  0  0
   50.4570   33.5350   42.2580 C   0  0  0  0  0  0  0  0  0  0  0  0
   49.4990   32.6240   41.8290 C   0  0  0  0  0  0  0  0  0  0  0  0
   48.2200   33.0550   41.6640 N   0  0  0  0  0  0  0  0  0  0  0  0
   47.8410   34.3220   41.8970 C   0  0  0  0  0  0  0  0  0  0  0  0
   48.7580   35.2150   42.3120 N   0  0  0  0  0  0  0  0  0  0  0  0
   46.5460   34.7640   41.7300 O   0  0  0  0  0  0  0  0  0  0  0  0
   46.1130   34.3240   44.0210 N   0  0  0  0  0  0  0  0  0  0  0  0
   44.9720   34.6510   44.8890 C   0  0  0  0  0  0  0  0  0  0  0  0
   44.7020   36.0900   44.5010 C   0  0  0  0  0  0  0  0  0  0  0  0
   45.0720   36.1140   43.0220 C   0  0  0  0  0  0  0  0  0  0  0  0
   45.5570   34.7100   42.7230 C   0  0  1  0  0  0  0  0  0  0  0  0
   50.7563   35.6019   42.8323 H   0  0  0  0  0  0  0  0  0  0  0  0
   51.5055   33.2381   42.4077 H   0  0  0  0  0  0  0  0  0  0  0  0
   49.7696   31.5771   41.6273 H   0  0  0  0  0  0  0  0  0  0  0  0
   46.9476   34.8782   44.2603 H   0  0  0  0  0  0  0  0  0  0  0  0
   44.1061   34.0074   44.6744 H   0  0  0  0  0  0  0  0  0  0  0  0
   45.1671   34.5041   45.9615 H   0  0  0  0  0  0  0  0  0  0  0  0
   43.6432   36.3487   44.6491 H   0  0  0  0  0  0  0  0  0  0  0  0
   45.2656   36.8175   45.1036 H   0  0  0  0  0  0  0  0  0  0  0  0
   44.1941   36.3602   42.4066 H   0  0  0  0  0  0  0  0  0  0  0  0
   45.8344   36.8741   42.7964 H   0  0  0  0  0  0  0  0  0  0  0  0
   44.7948   34.0110   42.3483 H   0  0  0  0  0  0  0  0  0  0  0  0
  2  1  2  0
  3  2  1  0
  4  3  2  0
  4  5  1  0
  5  6  2  0
  6  1  1  0
  7  5  1  0
  8  9  1  0
 10  9  1  0
 11 10  1  0
 12  7  1  0
 12 11  1  0
 12  8  1  0
  1 13  1  0
  2 14  1  0
  3 15  1  0
  8 16  1  0
  9 17  1  0
  9 18  1  0
 10 19  1  0
 10 20  1  0
 11 21  1  0
 11 22  1  0
 12 23  1  6
M  ISO  8  13  14  14  14  15  14  16   5  17  13  18  13  19  13  20  13
M  ISO  3  21  13  22  13  23  13
M  END
>  <minimizedAffinity>  (1) 
-3.74515867

>  <minimizedRMSD>  (1) 
5.109375

$$$$
