
     RDKit          3D

 14 14  0  0  0  0  0  0  0  0999 V2000
   44.6800   36.0280   44.3420 C   0  0  0  0  0  0  0  0  0  0  0  0
   45.4820   35.5420   43.3050 C   0  0  0  0  0  0  0  0  0  0  0  0
   46.1630   34.3580   43.5370 C   0  0  0  0  0  0  0  0  0  0  0  0
   46.0130   33.7450   44.7470 N   0  0  0  0  0  0  0  0  0  0  0  0
   45.2340   34.2390   45.7260 C   0  0  0  0  0  0  0  0  0  0  0  0
   44.5620   35.3880   45.5240 N   0  0  0  0  0  0  0  0  0  0  0  0
   45.0670   33.6380   46.9570 O   0  0  0  0  0  0  0  0  0  0  0  0
   45.8660   32.5890   47.4390 C   0  0  0  0  0  0  0  0  0  0  0  0
   47.2180   32.8860   47.3800 F   0  0  0  0  0  0  0  0  0  0  0  0
   45.5570   31.4050   46.8000 F   0  0  0  0  0  0  0  0  0  0  0  0
   45.5850   32.4380   48.8020 F   0  0  0  0  0  0  0  0  0  0  0  0
   44.1254   36.9655   44.1888 H   0  0  0  0  0  0  0  0  0  0  0  0
   45.5685   36.0761   42.3473 H   0  0  0  0  0  0  0  0  0  0  0  0
   46.8107   33.9214   42.7625 H   0  0  0  0  0  0  0  0  0  0  0  0
  1  6  2  0
  2  3  2  0
  2  1  1  0
  3  4  1  0
  4  5  2  0
  5  7  1  0
  6  5  1  0
  7  8  1  0
  8 11  1  0
  9  8  1  0
 10  8  1  0
  1 12  1  0
  2 13  1  0
  3 14  1  0
M  ISO  3  12  14  13  14  14  14
M  END
>  <minimizedAffinity>  (1) 
-3.88716078

>  <minimizedRMSD>  (1) 
0.398978472

$$$$
