
     RDKit          3D

 29 30  0  0  0  0  0  0  0  0999 V2000
   44.5900   36.1100   44.4390 C   0  0  0  0  0  0  0  0  0  0  0  0
   45.4200   35.8010   43.3560 C   0  0  0  0  0  0  0  0  0  0  0  0
   46.1920   34.6680   43.4710 C   0  0  0  0  0  0  0  0  0  0  0  0
   46.1080   33.9310   44.6020 N   0  0  0  0  0  0  0  0  0  0  0  0
   45.2970   34.2480   45.6360 C   0  0  0  0  0  0  0  0  0  0  0  0
   44.5260   35.3530   45.5590 N   0  0  0  0  0  0  0  0  0  0  0  0
   47.0690   34.2570   42.4390 N   0  0  0  0  0  0  0  0  0  0  0  0
   46.8120   33.2090   41.5130 C   0  0  0  0  0  0  0  0  0  0  0  0
   46.7050   33.8850   40.1430 C   0  0  0  0  0  0  0  0  0  0  0  0
   48.1230   34.3110   39.8210 C   0  0  0  0  0  0  0  0  0  0  0  0
   48.6040   35.3020   40.8250 C   0  0  0  0  0  0  0  0  0  0  0  0
   48.3430   34.9110   42.2510 C   0  0  0  0  0  0  0  0  0  0  0  0
   45.1970   33.5140   46.7910 O   0  0  0  0  0  0  0  0  0  0  0  0
   46.0900   32.5020   47.1730 C   0  0  0  0  0  0  0  0  0  0  0  0
   47.4010   32.9270   47.1940 F   0  0  0  0  0  0  0  0  0  0  0  0
   45.9140   31.3860   46.3830 F   0  0  0  0  0  0  0  0  0  0  0  0
   45.7840   32.1440   48.4890 F   0  0  0  0  0  0  0  0  0  0  0  0
   43.9603   37.0098   44.3773 H   0  0  0  0  0  0  0  0  0  0  0  0
   45.4537   36.4331   42.4564 H   0  0  0  0  0  0  0  0  0  0  0  0
   47.6369   32.4813   41.5184 H   0  0  0  0  0  0  0  0  0  0  0  0
   45.8945   32.6580   41.7671 H   0  0  0  0  0  0  0  0  0  0  0  0
   46.3301   33.1779   39.3883 H   0  0  0  0  0  0  0  0  0  0  0  0
   46.0035   34.7323   40.1472 H   0  0  0  0  0  0  0  0  0  0  0  0
   48.7799   33.4289   39.8378 H   0  0  0  0  0  0  0  0  0  0  0  0
   48.1406   34.7739   38.8233 H   0  0  0  0  0  0  0  0  0  0  0  0
   49.6892   35.4260   40.6946 H   0  0  0  0  0  0  0  0  0  0  0  0
   48.0437   36.2313   40.6448 H   0  0  0  0  0  0  0  0  0  0  0  0
   49.1391   34.2253   42.5765 H   0  0  0  0  0  0  0  0  0  0  0  0
   48.3254   35.8366   42.8451 H   0  0  0  0  0  0  0  0  0  0  0  0
  1  6  2  0
  2  3  2  0
  2  1  1  0
  3  4  1  0
  4  5  2  0
  5 13  1  0
  6  5  1  0
  7  3  1  0
  8  7  1  0
  9  8  1  0
 10  9  1  0
 10 11  1  0
 11 12  1  0
 12  7  1  0
 13 14  1  0
 14 15  1  0
 14 17  1  0
 16 14  1  0
  1 18  1  0
  2 19  1  0
  8 20  1  0
  8 21  1  0
  9 22  1  0
  9 23  1  0
 10 24  1  0
 10 25  1  0
 11 26  1  0
 11 27  1  0
 12 28  1  0
 12 29  1  0
M  ISO  8  18  14  19  14  20  13  21  13  22  13  23  13  24  13  25  13
M  ISO  4  26  13  27  13  28  13  29  13
M  END
>  <minimizedAffinity>  (1) 
-5.42067623

>  <minimizedRMSD>  (1) 
1.0927757

$$$$
