
     RDKit          3D

 30 32  0  0  0  0  0  0  0  0999 V2000
   44.3850   35.8810   44.8750 C   0  0  0  0  0  0  0  0  0  0  0  0
   44.9680   35.9290   43.6190 C   0  0  0  0  0  0  0  0  0  0  0  0
   45.9350   35.0060   43.2990 C   0  0  0  0  0  0  0  0  0  0  0  0
   46.2420   34.1020   44.2850 N   0  0  0  0  0  0  0  0  0  0  0  0
   45.6850   34.0550   45.4920 C   0  0  0  0  0  0  0  0  0  0  0  0
   44.7490   34.9600   45.7720 N   0  0  0  0  0  0  0  0  0  0  0  0
   46.7360   34.8800   42.1110 C   0  0  0  0  0  0  0  0  0  0  0  0
   47.9900   35.5150   42.1170 C   0  0  0  0  0  0  0  0  0  0  0  0
   48.8890   35.4940   41.0790 C   0  0  0  0  0  0  0  0  0  0  0  0
   48.5820   34.8120   39.9310 C   0  0  0  0  0  0  0  0  0  0  0  0
   47.3720   34.1610   39.8560 C   0  0  0  0  0  0  0  0  0  0  0  0
   47.0480   33.4370   38.7300 C   0  0  0  0  0  0  0  0  0  0  0  0
   45.8450   32.7270   38.6210 C   0  0  0  0  0  0  0  0  0  0  0  0
   44.9890   32.7920   39.7190 C   0  0  0  0  0  0  0  0  0  0  0  0
   45.3610   33.5300   40.8150 C   0  0  0  0  0  0  0  0  0  0  0  0
   46.5300   34.2300   40.9350 C   0  0  0  0  0  0  0  0  0  0  0  0
   46.0240   33.1280   46.4550 O   0  0  0  0  0  0  0  0  0  0  0  0
   46.1110   31.7470   46.2520 C   0  0  0  0  0  0  0  0  0  0  0  0
   47.4220   31.2820   46.2510 F   0  0  0  0  0  0  0  0  0  0  0  0
   45.4530   31.3920   45.0900 F   0  0  0  0  0  0  0  0  0  0  0  0
   45.4910   31.1150   47.3350 F   0  0  0  0  0  0  0  0  0  0  0  0
   43.6085   36.6143   45.1384 H   0  0  0  0  0  0  0  0  0  0  0  0
   44.6619   36.6934   42.8897 H   0  0  0  0  0  0  0  0  0  0  0  0
   48.2730   36.0715   43.0227 H   0  0  0  0  0  0  0  0  0  0  0  0
   49.8500   36.0217   41.1687 H   0  0  0  0  0  0  0  0  0  0  0  0
   49.2876   34.7854   39.0875 H   0  0  0  0  0  0  0  0  0  0  0  0
   47.7567   33.4155   37.8890 H   0  0  0  0  0  0  0  0  0  0  0  0
   45.5904   32.1506   37.7194 H   0  0  0  0  0  0  0  0  0  0  0  0
   44.0271   32.2585   39.7074 H   0  0  0  0  0  0  0  0  0  0  0  0
   44.6632   33.5609   41.6648 H   0  0  0  0  0  0  0  0  0  0  0  0
  1  6  2  0
  2  1  1  0
  3  2  2  0
  3  4  1  0
  4  5  2  0
  5  6  1  0
  5 17  1  0
  7  8  2  0
  7  3  1  0
  9  8  1  0
 10  9  2  0
 11 10  1  0
 11 16  2  0
 12 11  1  0
 13 12  2  0
 13 14  1  0
 14 15  2  0
 15 16  1  0
 16  7  1  0
 18 17  1  0
 18 21  1  0
 19 18  1  0
 20 18  1  0
  1 22  1  0
  2 23  1  0
  8 24  1  0
  9 25  1  0
 10 26  1  0
 12 27  1  0
 13 28  1  0
 14 29  1  0
 15 30  1  0
M  ISO  8  22  14  23  14  24  14  25  14  26  14  27  14  28  14  29  14
M  ISO  1  30  14
M  END
>  <minimizedAffinity>  (1) 
-6.1108532

>  <minimizedRMSD>  (1) 
2.02175093

$$$$
