
     RDKit          3D

 21 22  0  0  0  0  0  0  0  0999 V2000
   44.5450   35.8690   44.3240 C   0  0  0  0  0  0  0  0  0  0  0  0
   45.3190   35.9080   43.1520 C   0  0  0  0  0  0  0  0  0  0  0  0
   46.3280   34.9780   43.0670 C   0  0  0  0  0  0  0  0  0  0  0  0
   46.5370   34.0910   44.0690 N   0  0  0  0  0  0  0  0  0  0  0  0
   45.7710   34.0800   45.1880 C   0  0  0  0  0  0  0  0  0  0  0  0
   44.7680   34.9710   45.3210 N   0  0  0  0  0  0  0  0  0  0  0  0
   47.1910   34.9290   41.8970 C   0  0  0  0  0  0  0  0  0  0  0  0
   46.9800   34.2310   40.7330 C   0  0  0  0  0  0  0  0  0  0  0  0
   48.0160   34.4360   39.8650 C   0  0  0  0  0  0  0  0  0  0  0  0
   48.8520   35.2670   40.5270 N   0  0  0  0  0  0  0  0  0  0  0  0
   48.3650   35.5570   41.7240 N   0  0  0  0  0  0  0  0  0  0  0  0
   45.9440   33.2000   46.2330 O   0  0  0  0  0  0  0  0  0  0  0  0
   46.1400   31.8100   46.0610 C   0  0  0  0  0  0  0  0  0  0  0  0
   47.4680   31.4590   46.1180 F   0  0  0  0  0  0  0  0  0  0  0  0
   45.4980   31.3760   44.9210 F   0  0  0  0  0  0  0  0  0  0  0  0
   45.5540   31.1750   47.1690 F   0  0  0  0  0  0  0  0  0  0  0  0
   43.7258   36.5938   44.4399 H   0  0  0  0  0  0  0  0  0  0  0  0
   45.1293   36.6380   42.3514 H   0  0  0  0  0  0  0  0  0  0  0  0
   46.1037   33.5983   40.5287 H   0  0  0  0  0  0  0  0  0  0  0  0
   48.1413   34.0186   38.8550 H   0  0  0  0  0  0  0  0  0  0  0  0
   49.7426   35.6244   40.1530 H   0  0  0  0  0  0  0  0  0  0  0  0
  1  6  2  0
  2  1  1  0
  3  2  2  0
  3  4  1  0
  4  5  2  0
  5  6  1  0
  5 12  1  0
  7  3  1  0
  8  7  1  0
  9 10  1  0
  9  8  2  0
 10 11  1  0
 11  7  2  0
 13 14  1  0
 13 12  1  0
 13 16  1  0
 15 13  1  0
  1 17  1  0
  2 18  1  0
  8 19  1  0
  9 20  1  0
 10 21  1  0
M  ISO  5  17  14  18  14  19  14  20  14  21   9
M  END
>  <minimizedAffinity>  (1) 
-5.0967865

>  <minimizedRMSD>  (1) 
1.47037888

$$$$
