
     RDKit          3D

 28 29  0  0  0  0  0  0  0  0999 V2000
   44.5900   36.0850   44.4260 C   0  0  0  0  0  0  0  0  0  0  0  0
   45.4440   35.7370   43.3780 C   0  0  0  0  0  0  0  0  0  0  0  0
   46.2210   34.6090   43.5320 C   0  0  0  0  0  0  0  0  0  0  0  0
   46.1120   33.9000   44.6900 N   0  0  0  0  0  0  0  0  0  0  0  0
   45.2760   34.2590   45.6900 C   0  0  0  0  0  0  0  0  0  0  0  0
   44.5110   35.3610   45.5510 N   0  0  0  0  0  0  0  0  0  0  0  0
   47.1480   34.1150   42.5520 N   0  0  0  0  0  0  0  0  0  0  0  0
   46.9420   34.3100   41.1350 C   0  0  0  0  0  0  0  0  0  0  0  0
   48.1350   34.4920   40.2960 C   0  0  0  0  0  0  0  0  0  0  0  0
   49.3490   33.8970   40.7920 N   0  0  0  0  0  0  0  0  0  0  0  0
   49.4860   34.1700   42.2270 C   0  0  0  0  0  0  0  0  0  0  0  0
   48.3330   33.4050   42.8530 C   0  0  0  0  0  0  0  0  0  0  0  0
   45.1440   33.5640   46.8720 O   0  0  0  0  0  0  0  0  0  0  0  0
   46.0090   32.5350   47.2910 C   0  0  0  0  0  0  0  0  0  0  0  0
   47.3370   32.9190   47.2460 F   0  0  0  0  0  0  0  0  0  0  0  0
   45.7810   31.3840   46.5670 F   0  0  0  0  0  0  0  0  0  0  0  0
   45.7450   32.2820   48.6420 F   0  0  0  0  0  0  0  0  0  0  0  0
   43.9617   36.9823   44.3252 H   0  0  0  0  0  0  0  0  0  0  0  0
   45.4951   36.3422   42.4609 H   0  0  0  0  0  0  0  0  0  0  0  0
   46.4034   33.4291   40.7558 H   0  0  0  0  0  0  0  0  0  0  0  0
   46.3970   35.2625   41.0588 H   0  0  0  0  0  0  0  0  0  0  0  0
   48.3091   35.5727   40.1875 H   0  0  0  0  0  0  0  0  0  0  0  0
   47.9153   33.9758   39.3498 H   0  0  0  0  0  0  0  0  0  0  0  0
   49.3181   32.8789   40.6390 H   0  0  0  0  0  0  0  0  0  0  0  0
   50.4513   33.8026   42.6054 H   0  0  0  0  0  0  0  0  0  0  0  0
   49.4597   35.2447   42.4600 H   0  0  0  0  0  0  0  0  0  0  0  0
   48.4690   33.3435   43.9428 H   0  0  0  0  0  0  0  0  0  0  0  0
   48.2847   32.3794   42.4582 H   0  0  0  0  0  0  0  0  0  0  0  0
  1  6  2  0
  2  3  2  0
  2  1  1  0
  3  4  1  0
  4  5  2  0
  5 13  1  0
  6  5  1  0
  7 12  1  0
  7  3  1  0
  8  7  1  0
  9 10  1  0
  9  8  1  0
 10 11  1  0
 11 12  1  0
 13 14  1  0
 14 17  1  0
 15 14  1  0
 16 14  1  0
  1 18  1  0
  2 19  1  0
  8 20  1  0
  8 21  1  0
  9 22  1  0
  9 23  1  0
 10 24  1  0
 11 25  1  0
 11 26  1  0
 12 27  1  0
 12 28  1  0
M  ISO  8  18  14  19  14  20  13  21  13  22  13  23  13  24   5  25  13
M  ISO  3  26  13  27  13  28  13
M  END
>  <minimizedAffinity>  (1) 
-5.25324059

>  <minimizedRMSD>  (1) 
0.882083416

$$$$
