
     RDKit          3D

 22 23  0  0  0  0  0  0  0  0999 V2000
   46.2990   32.3800   45.5860 C   0  0  0  0  0  0  0  0  0  0  0  0
   47.2850   31.5450   45.0470 C   0  0  0  0  0  0  0  0  0  0  0  0
   47.7000   30.6630   45.9870 N   0  0  0  0  0  0  0  0  0  0  0  0
   46.9850   30.9440   47.0930 C   0  0  0  0  0  0  0  0  0  0  0  0
   46.1360   31.9790   46.8620 N   0  0  0  0  0  0  0  0  0  0  0  0
   44.7890   35.6540   44.9190 C   0  0  0  0  0  0  0  0  0  0  0  0
   44.2360   35.4870   43.6410 C   0  0  0  0  0  0  0  0  0  0  0  0
   44.3980   34.2520   43.0430 C   0  0  0  0  0  0  0  0  0  0  0  0
   45.0630   33.2570   43.6740 N   0  0  0  0  0  0  0  0  0  0  0  0
   45.5890   33.4590   44.9230 C   0  0  0  0  0  0  0  0  0  0  0  0
   45.4480   34.6480   45.5280 N   0  0  0  0  0  0  0  0  0  0  0  0
   43.8400   34.0340   41.7140 C   0  0  0  0  0  0  0  0  0  0  0  0
   43.9710   34.8830   40.8040 O   0  0  0  0  0  0  0  0  0  0  0  0
   45.1950   32.5840   47.8020 C   0  0  0  0  0  0  0  0  0  0  0  0
   44.2030   31.6710   48.1840 F   0  0  0  0  0  0  0  0  0  0  0  0
   44.6170   33.7350   47.2940 F   0  0  0  0  0  0  0  0  0  0  0  0
   45.8550   32.8960   48.9900 F   0  0  0  0  0  0  0  0  0  0  0  0
   47.6651   31.5974   44.0161 H   0  0  0  0  0  0  0  0  0  0  0  0
   47.0758   30.4098   48.0503 H   0  0  0  0  0  0  0  0  0  0  0  0
   44.6833   36.6210   45.4325 H   0  0  0  0  0  0  0  0  0  0  0  0
   43.6972   36.3030   43.1371 H   0  0  0  0  0  0  0  0  0  0  0  0
   43.2919   33.1031   41.5066 H   0  0  0  0  0  0  0  0  0  0  0  0
  1  5  1  0
  2  1  2  0
  2  3  1  0
  3  4  2  0
  5  4  1  0
  5 14  1  0
  6 11  2  0
  7  6  1  0
  8  7  2  0
  8  9  1  0
  9 10  2  0
 10 11  1  0
 10  1  1  0
 12  8  1  0
 13 12  2  0
 14 15  1  0
 14 17  1  0
 16 14  1  0
  2 18  1  0
  4 19  1  0
  6 20  1  0
  7 21  1  0
 12 22  1  0
M  ISO  5  18  14  19  14  20  14  21  14  22   6
M  END
>  <minimizedAffinity>  (1) 
-4.44915056

>  <minimizedRMSD>  (1) 
0.189804301

$$$$
