
     RDKit          3D

 21 22  0  0  0  0  0  0  0  0999 V2000
   45.1840   35.5480   43.2100 C   0  0  0  0  0  0  0  0  0  0  0  0
   46.4000   35.1950   42.5910 C   0  0  0  0  0  0  0  0  0  0  0  0
   47.2160   34.3250   43.2760 C   0  0  0  0  0  0  0  0  0  0  0  0
   46.8170   33.8610   44.4860 N   0  0  0  0  0  0  0  0  0  0  0  0
   45.6470   34.2090   45.0660 C   0  0  0  0  0  0  0  0  0  0  0  0
   44.8330   35.0620   44.4090 N   0  0  0  0  0  0  0  0  0  0  0  0
   48.5030   33.8760   42.7540 C   0  0  0  0  0  0  0  0  0  0  0  0
   48.7250   32.8280   41.8850 C   0  0  0  0  0  0  0  0  0  0  0  0
   50.0640   32.7780   41.6750 N   0  0  0  0  0  0  0  0  0  0  0  0
   50.6240   33.7810   42.4100 C   0  0  0  0  0  0  0  0  0  0  0  0
   49.6710   34.4580   43.0740 N   0  0  0  0  0  0  0  0  0  0  0  0
   45.2300   33.7490   46.2860 O   0  0  0  0  0  0  0  0  0  0  0  0
   45.8230   32.6650   46.9670 C   0  0  0  0  0  0  0  0  0  0  0  0
   47.1310   32.9210   47.3430 F   0  0  0  0  0  0  0  0  0  0  0  0
   45.6910   31.5150   46.2240 F   0  0  0  0  0  0  0  0  0  0  0  0
   45.1160   32.4930   48.1710 F   0  0  0  0  0  0  0  0  0  0  0  0
   44.5037   36.2420   42.6946 H   0  0  0  0  0  0  0  0  0  0  0  0
   46.6831   35.5962   41.6067 H   0  0  0  0  0  0  0  0  0  0  0  0
   47.9652   32.1633   41.4481 H   0  0  0  0  0  0  0  0  0  0  0  0
   51.7003   34.0040   42.4533 H   0  0  0  0  0  0  0  0  0  0  0  0
   49.8087   35.2623   43.7025 H   0  0  0  0  0  0  0  0  0  0  0  0
  1  6  2  0
  2  1  1  0
  2  3  2  0
  3  4  1  0
  4  5  2  0
  5 12  1  0
  6  5  1  0
  7 11  1  0
  7  3  1  0
  8  7  2  0
  9  8  1  0
  9 10  2  0
 10 11  1  0
 12 13  1  0
 13 14  1  0
 13 16  1  0
 15 13  1  0
  1 17  1  0
  2 18  1  0
  8 19  1  0
 10 20  1  0
 11 21  1  0
M  ISO  5  17  14  18  14  19  14  20  14  21   9
M  END
>  <minimizedAffinity>  (1) 
-4.93456078

>  <minimizedRMSD>  (1) 
1.31991863

$$$$
