
     RDKit          3D

 21 22  0  0  0  0  0  0  0  0999 V2000
   44.7420   35.9810   43.9820 C   0  0  0  0  0  0  0  0  0  0  0  0
   45.7150   35.5820   43.0660 C   0  0  0  0  0  0  0  0  0  0  0  0
   46.5140   34.4930   43.4180 C   0  0  0  0  0  0  0  0  0  0  0  0
   46.2950   33.9010   44.6170 N   0  0  0  0  0  0  0  0  0  0  0  0
   45.3510   34.3080   45.4770 C   0  0  0  0  0  0  0  0  0  0  0  0
   44.5780   35.3500   45.1520 N   0  0  0  0  0  0  0  0  0  0  0  0
   47.5620   33.9160   42.6450 N   0  0  0  0  0  0  0  0  0  0  0  0
   47.5360   32.9610   41.7270 N   0  0  0  0  0  0  0  0  0  0  0  0
   48.7830   32.7380   41.2540 C   0  0  0  0  0  0  0  0  0  0  0  0
   49.6090   33.6130   41.9310 C   0  0  0  0  0  0  0  0  0  0  0  0
   48.8270   34.3490   42.8020 C   0  0  0  0  0  0  0  0  0  0  0  0
   45.1130   33.7170   46.7030 O   0  0  0  0  0  0  0  0  0  0  0  0
   45.8530   32.6330   47.2230 C   0  0  0  0  0  0  0  0  0  0  0  0
   47.2080   32.9450   47.3240 F   0  0  0  0  0  0  0  0  0  0  0  0
   45.6220   31.4960   46.4880 F   0  0  0  0  0  0  0  0  0  0  0  0
   45.4230   32.4280   48.5340 F   0  0  0  0  0  0  0  0  0  0  0  0
   44.0932   36.8350   43.7376 H   0  0  0  0  0  0  0  0  0  0  0  0
   45.8472   36.1035   42.1066 H   0  0  0  0  0  0  0  0  0  0  0  0
   49.0791   32.0081   40.4862 H   0  0  0  0  0  0  0  0  0  0  0  0
   50.6971   33.7079   41.8005 H   0  0  0  0  0  0  0  0  0  0  0  0
   49.1715   35.1355   43.4896 H   0  0  0  0  0  0  0  0  0  0  0  0
  1  6  2  0
  2  3  2  0
  2  1  1  0
  3  4  1  0
  4  5  2  0
  5 12  1  0
  6  5  1  0
  7 11  1  0
  7  3  1  0
  8  7  1  0
  9  8  2  0
  9 10  1  0
 10 11  2  0
 12 13  1  0
 13 14  1  0
 13 16  1  0
 15 13  1  0
  1 17  1  0
  2 18  1  0
  9 19  1  0
 10 20  1  0
 11 21  1  0
M  ISO  5  17  14  18  14  19  14  20  14  21  14
M  END
>  <minimizedAffinity>  (1) 
-4.69393635

>  <minimizedRMSD>  (1) 
0.518947363

$$$$
