
     RDKit          3D

 21 21  0  0  0  0  0  0  0  0999 V2000
   44.6940   36.1160   44.0770 C   0  0  0  0  0  0  0  0  0  0  0  0
   45.6110   35.8290   43.0760 C   0  0  0  0  0  0  0  0  0  0  0  0
   46.4220   34.7170   43.2690 C   0  0  0  0  0  0  0  0  0  0  0  0
   46.2720   33.9920   44.4060 N   0  0  0  0  0  0  0  0  0  0  0  0
   45.3800   34.2890   45.3580 C   0  0  0  0  0  0  0  0  0  0  0  0
   44.5800   35.3670   45.1910 N   0  0  0  0  0  0  0  0  0  0  0  0
   47.4150   34.3060   42.3090 N   0  0  0  0  0  0  0  0  0  0  0  0
   47.2120   34.4380   40.8990 C   0  0  0  0  0  0  0  0  0  0  0  0
   45.9850   34.2690   40.5030 N   0  0  0  0  0  0  0  0  0  0  0  0
   48.3990   34.7370   40.1380 N   0  0  0  0  0  0  0  0  0  0  0  0
   45.8030   34.3580   39.4810 H   0  0  0  0  0  0  0  0  0  0  0  0
   45.1970   33.5800   46.5230 O   0  0  0  0  0  0  0  0  0  0  0  0
   46.0640   32.5510   46.9520 C   0  0  0  0  0  0  0  0  0  0  0  0
   47.3680   33.0060   47.0930 F   0  0  0  0  0  0  0  0  0  0  0  0
   45.9670   31.4460   46.1350 F   0  0  0  0  0  0  0  0  0  0  0  0
   45.6550   32.1820   48.2400 F   0  0  0  0  0  0  0  0  0  0  0  0
   44.0349   36.9884   43.9564 H   0  0  0  0  0  0  0  0  0  0  0  0
   45.6922   36.4518   42.1729 H   0  0  0  0  0  0  0  0  0  0  0  0
   48.3002   33.9039   42.6492 H   0  0  0  0  0  0  0  0  0  0  0  0
   48.3409   34.8484   39.1157 H   0  0  0  0  0  0  0  0  0  0  0  0
   49.3054   34.8393   40.6165 H   0  0  0  0  0  0  0  0  0  0  0  0
  1  6  2  0
  2  3  2  0
  2  1  1  0
  3  4  1  0
  4  5  2  0
  5 12  1  0
  6  5  1  0
  7  3  1  0
  8  7  1  0
  9  8  2  0
 10  8  1  0
 11  9  1  0
 12 13  1  0
 13 14  1  0
 13 16  1  0
 15 13  1  0
  1 17  1  0
  2 18  1  0
  7 19  1  0
 10 20  1  0
 10 21  1  0
M  ISO  2  17  14  18  14
M  END
>  <minimizedAffinity>  (1) 
-4.79121017

>  <minimizedRMSD>  (1) 
0.55128783

$$$$
