
     RDKit          3D

 26 26  0  0  0  0  0  0  0  0999 V2000
   44.6280   36.1790   44.1630 C   0  0  0  0  0  0  0  0  0  0  0  0
   45.5090   35.8090   43.1400 C   0  0  0  0  0  0  0  0  0  0  0  0
   46.2720   34.6800   43.3450 C   0  0  0  0  0  0  0  0  0  0  0  0
   46.1290   34.0030   44.5140 N   0  0  0  0  0  0  0  0  0  0  0  0
   45.2730   34.3790   45.4860 C   0  0  0  0  0  0  0  0  0  0  0  0
   44.5250   35.4730   45.3020 N   0  0  0  0  0  0  0  0  0  0  0  0
   47.2500   34.1260   42.4020 C   0  0  0  0  0  0  0  0  0  0  0  0
   48.1550   33.1790   43.1710 C   0  0  0  0  0  0  0  0  0  0  0  0
   46.5910   33.4370   41.2360 C   0  0  0  0  0  0  0  0  0  0  0  0
   48.1540   35.2100   41.8470 C   0  0  0  0  0  0  0  0  0  0  0  0
   45.1150   33.7010   46.6790 O   0  0  0  0  0  0  0  0  0  0  0  0
   45.9560   32.6490   47.1090 C   0  0  0  0  0  0  0  0  0  0  0  0
   47.2940   33.0060   47.0820 F   0  0  0  0  0  0  0  0  0  0  0  0
   45.6920   31.5000   46.3960 F   0  0  0  0  0  0  0  0  0  0  0  0
   45.6630   32.4140   48.4610 F   0  0  0  0  0  0  0  0  0  0  0  0
   44.0018   37.0736   44.0308 H   0  0  0  0  0  0  0  0  0  0  0  0
   45.5888   36.3945   42.2122 H   0  0  0  0  0  0  0  0  0  0  0  0
   48.0107   33.3300   44.2510 H   0  0  0  0  0  0  0  0  0  0  0  0
   47.9055   32.1401   42.9095 H   0  0  0  0  0  0  0  0  0  0  0  0
   49.2042   33.3811   42.9095 H   0  0  0  0  0  0  0  0  0  0  0  0
   45.8756   32.6891   41.6086 H   0  0  0  0  0  0  0  0  0  0  0  0
   46.0590   34.1802   40.6239 H   0  0  0  0  0  0  0  0  0  0  0  0
   47.3571   32.9386   40.6239 H   0  0  0  0  0  0  0  0  0  0  0  0
   48.6156   35.7635   42.6780 H   0  0  0  0  0  0  0  0  0  0  0  0
   48.9408   34.7511   41.2302 H   0  0  0  0  0  0  0  0  0  0  0  0
   47.5613   35.9016   41.2302 H   0  0  0  0  0  0  0  0  0  0  0  0
  1  6  2  0
  2  3  2  0
  2  1  1  0
  3  4  1  0
  4  5  2  0
  5 11  1  0
  6  5  1  0
  7  8  1  0
  7  3  1  0
  9  7  1  0
 10  7  1  0
 11 12  1  0
 12 15  1  0
 13 12  1  0
 14 12  1  0
  1 16  1  0
  2 17  1  0
  8 18  1  0
  8 19  1  0
  8 20  1  0
  9 21  1  0
  9 22  1  0
  9 23  1  0
 10 24  1  0
 10 25  1  0
 10 26  1  0
M  ISO  8  16  14  17  14  18   8  19   8  20   8  21   8  22   8  23   8
M  ISO  3  24   8  25   8  26   8
M  END
>  <minimizedAffinity>  (1) 
-4.75440311

>  <minimizedRMSD>  (1) 
0.453061551

$$$$
