
     RDKit          3D

 21 22  0  0  0  0  0  0  0  0999 V2000
   44.6520   36.0680   44.2140 C   0  0  0  0  0  0  0  0  0  0  0  0
   45.5570   35.6910   43.2030 C   0  0  0  0  0  0  0  0  0  0  0  0
   46.3360   34.5770   43.4340 C   0  0  0  0  0  0  0  0  0  0  0  0
   46.1720   33.9220   44.6300 N   0  0  0  0  0  0  0  0  0  0  0  0
   45.3070   34.2980   45.5740 C   0  0  0  0  0  0  0  0  0  0  0  0
   44.5360   35.3870   45.3650 N   0  0  0  0  0  0  0  0  0  0  0  0
   47.2830   34.1060   42.4810 N   0  0  0  0  0  0  0  0  0  0  0  0
   48.3580   33.3730   42.8030 C   0  0  0  0  0  0  0  0  0  0  0  0
   48.9840   33.1440   41.5980 C   0  0  0  0  0  0  0  0  0  0  0  0
   48.2900   33.7320   40.5790 N   0  0  0  0  0  0  0  0  0  0  0  0
   47.2110   34.3390   41.1580 C   0  0  0  0  0  0  0  0  0  0  0  0
   45.1340   33.6470   46.7730 O   0  0  0  0  0  0  0  0  0  0  0  0
   45.9420   32.5870   47.2150 C   0  0  0  0  0  0  0  0  0  0  0  0
   47.2750   32.9340   47.2360 F   0  0  0  0  0  0  0  0  0  0  0  0
   45.7100   31.4390   46.4840 F   0  0  0  0  0  0  0  0  0  0  0  0
   45.6100   32.3440   48.5510 F   0  0  0  0  0  0  0  0  0  0  0  0
   44.0174   36.9523   44.0548 H   0  0  0  0  0  0  0  0  0  0  0  0
   45.6391   36.2623   42.2666 H   0  0  0  0  0  0  0  0  0  0  0  0
   48.6691   33.0323   43.8016 H   0  0  0  0  0  0  0  0  0  0  0  0
   49.9129   32.5681   41.4735 H   0  0  0  0  0  0  0  0  0  0  0  0
   46.4287   34.9119   40.6385 H   0  0  0  0  0  0  0  0  0  0  0  0
  1  6  2  0
  2  3  2  0
  2  1  1  0
  3  4  1  0
  4  5  2  0
  5 12  1  0
  6  5  1  0
  7  8  1  0
  7  3  1  0
  9  8  2  0
 10 11  2  0
 10  9  1  0
 11  7  1  0
 12 13  1  0
 13 14  1  0
 13 16  1  0
 15 13  1  0
  1 17  1  0
  2 18  1  0
  8 19  1  0
  9 20  1  0
 11 21  1  0
M  ISO  5  17  14  18  14  19  14  20  14  21  14
M  END
>  <minimizedAffinity>  (1) 
-4.66542101

>  <minimizedRMSD>  (1) 
0.743334413

$$$$
