
     RDKit          3D

 17 17  0  0  0  0  0  0  0  0999 V2000
   44.6380   36.0680   44.3840 C   0  0  0  0  0  0  0  0  0  0  0  0
   45.4700   35.6390   43.3370 C   0  0  0  0  0  0  0  0  0  0  0  0
   46.1860   34.4830   43.5420 C   0  0  0  0  0  0  0  0  0  0  0  0
   46.0560   33.8230   44.7220 N   0  0  0  0  0  0  0  0  0  0  0  0
   45.2490   34.2540   45.7130 C   0  0  0  0  0  0  0  0  0  0  0  0
   44.5390   35.3860   45.5340 N   0  0  0  0  0  0  0  0  0  0  0  0
   47.0600   34.0050   42.4810 C   0  0  0  0  0  0  0  0  0  0  0  0
   47.1110   34.7160   41.4380 O   0  0  0  0  0  0  0  0  0  0  0  0
   47.8100   32.8630   42.5400 O   0  0  0  0  0  0  0  0  0  0  0  0
   45.0960   33.6090   46.9180 O   0  0  0  0  0  0  0  0  0  0  0  0
   45.9120   32.5710   47.3660 C   0  0  0  0  0  0  0  0  0  0  0  0
   47.2590   32.9230   47.3430 F   0  0  0  0  0  0  0  0  0  0  0  0
   45.6500   31.4050   46.6890 F   0  0  0  0  0  0  0  0  0  0  0  0
   45.6190   32.3600   48.7240 F   0  0  0  0  0  0  0  0  0  0  0  0
   44.0510   36.9896   44.2569 H   0  0  0  0  0  0  0  0  0  0  0  0
   45.5455   36.2024   42.3953 H   0  0  0  0  0  0  0  0  0  0  0  0
   48.3812   32.6058   41.7734 H   0  0  0  0  0  0  0  0  0  0  0  0
  1  6  2  0
  2  3  2  0
  2  1  1  0
  3  4  1  0
  4  5  2  0
  5 10  1  0
  6  5  1  0
  7  9  1  0
  7  3  1  0
  8  7  2  0
 10 11  1  0
 11 14  1  0
 12 11  1  0
 13 11  1  0
  1 15  1  0
  2 16  1  0
  9 17  1  0
M  ISO  3  15  14  16  14  17   3
M  END
>  <minimizedAffinity>  (1) 
-4.28705072

>  <minimizedRMSD>  (1) 
0.251314372

$$$$
