
     RDKit          3D

 27 28  0  0  0  0  0  0  0  0999 V2000
   44.5300   36.0900   44.4210 C   0  0  0  0  0  0  0  0  0  0  0  0
   45.3810   35.8640   43.3480 C   0  0  0  0  0  0  0  0  0  0  0  0
   46.2280   34.7830   43.4250 C   0  0  0  0  0  0  0  0  0  0  0  0
   46.1810   34.0070   44.5350 N   0  0  0  0  0  0  0  0  0  0  0  0
   45.3510   34.2390   45.5670 C   0  0  0  0  0  0  0  0  0  0  0  0
   44.5240   35.2870   45.5030 N   0  0  0  0  0  0  0  0  0  0  0  0
   47.1680   34.3870   42.4350 N   0  0  0  0  0  0  0  0  0  0  0  0
   46.8390   34.2530   41.0120 C   0  0  0  0  0  0  0  0  0  0  0  0
   48.1350   34.6410   40.2960 C   0  0  0  0  0  0  0  0  0  0  0  0
   48.8200   35.6350   40.9870 O   0  0  0  0  0  0  0  0  0  0  0  0
   49.4020   35.1840   42.1580 C   0  0  0  0  0  0  0  0  0  0  0  0
   48.5550   34.0750   42.7270 C   0  0  0  0  0  0  0  0  0  0  0  0
   45.2870   33.4640   46.7040 O   0  0  0  0  0  0  0  0  0  0  0  0
   46.1250   32.3700   46.9660 C   0  0  0  0  0  0  0  0  0  0  0  0
   47.4390   32.7520   47.1350 F   0  0  0  0  0  0  0  0  0  0  0  0
   45.9880   31.3930   45.9950 F   0  0  0  0  0  0  0  0  0  0  0  0
   45.7510   31.8280   48.2040 F   0  0  0  0  0  0  0  0  0  0  0  0
   43.8420   36.9476   44.3871 H   0  0  0  0  0  0  0  0  0  0  0  0
   45.3781   36.5249   42.4687 H   0  0  0  0  0  0  0  0  0  0  0  0
   46.5541   33.2180   40.7720 H   0  0  0  0  0  0  0  0  0  0  0  0
   45.9856   34.8794   40.7132 H   0  0  0  0  0  0  0  0  0  0  0  0
   47.8906   35.0092   39.2887 H   0  0  0  0  0  0  0  0  0  0  0  0
   48.7794   33.7512   40.2414 H   0  0  0  0  0  0  0  0  0  0  0  0
   50.4128   34.8054   41.9462 H   0  0  0  0  0  0  0  0  0  0  0  0
   49.4719   36.0092   42.8820 H   0  0  0  0  0  0  0  0  0  0  0  0
   48.7037   34.0102   43.8150 H   0  0  0  0  0  0  0  0  0  0  0  0
   48.8350   33.1086   42.2824 H   0  0  0  0  0  0  0  0  0  0  0  0
  1  6  2  0
  2  3  2  0
  2  1  1  0
  3  4  1  0
  4  5  2  0
  5 13  1  0
  6  5  1  0
  7 12  1  0
  7  3  1  0
  8  7  1  0
  9 10  1  0
  9  8  1  0
 10 11  1  0
 11 12  1  0
 13 14  1  0
 14 15  1  0
 14 17  1  0
 16 14  1  0
  1 18  1  0
  2 19  1  0
  8 20  1  0
  8 21  1  0
  9 22  1  0
  9 23  1  0
 11 24  1  0
 11 25  1  0
 12 26  1  0
 12 27  1  0
M  ISO  8  18  14  19  14  20  13  21  13  22  13  23  13  24  13  25  13
M  ISO  2  26  13  27  13
M  END
>  <minimizedAffinity>  (1) 
-5.2890687

>  <minimizedRMSD>  (1) 
1.43089247

$$$$
