
     RDKit          3D

 22 23  0  0  0  0  0  0  0  0999 V2000
   46.3380   32.3160   45.6540 C   0  0  0  0  0  0  0  0  0  0  0  0
   47.3380   31.4940   45.1500 C   0  0  0  0  0  0  0  0  0  0  0  0
   47.7520   30.6400   46.1300 N   0  0  0  0  0  0  0  0  0  0  0  0
   47.0110   30.9440   47.2130 C   0  0  0  0  0  0  0  0  0  0  0  0
   46.1510   31.9620   46.9290 N   0  0  0  0  0  0  0  0  0  0  0  0
   44.8750   35.5810   44.8290 C   0  0  0  0  0  0  0  0  0  0  0  0
   44.2880   35.3490   43.5750 C   0  0  0  0  0  0  0  0  0  0  0  0
   44.4030   34.0820   43.0350 C   0  0  0  0  0  0  0  0  0  0  0  0
   45.0670   33.1180   43.7200 N   0  0  0  0  0  0  0  0  0  0  0  0
   45.6250   33.3710   44.9300 C   0  0  0  0  0  0  0  0  0  0  0  0
   45.5210   34.5920   45.4640 N   0  0  0  0  0  0  0  0  0  0  0  0
   43.8960   33.6120   41.7910 N   0  0  0  0  0  0  0  0  0  0  0  0
   45.1880   32.5750   47.8340 C   0  0  0  0  0  0  0  0  0  0  0  0
   44.1750   31.6900   48.1880 F   0  0  0  0  0  0  0  0  0  0  0  0
   44.6370   33.7390   47.2950 F   0  0  0  0  0  0  0  0  0  0  0  0
   45.8150   32.9030   49.0350 F   0  0  0  0  0  0  0  0  0  0  0  0
   47.7332   31.5265   44.1239 H   0  0  0  0  0  0  0  0  0  0  0  0
   47.0891   30.4416   48.1885 H   0  0  0  0  0  0  0  0  0  0  0  0
   44.8049   36.5764   45.2919 H   0  0  0  0  0  0  0  0  0  0  0  0
   43.7545   36.1487   43.0403 H   0  0  0  0  0  0  0  0  0  0  0  0
   44.0542   32.6348   41.5065 H   0  0  0  0  0  0  0  0  0  0  0  0
   43.3708   34.2491   41.1752 H   0  0  0  0  0  0  0  0  0  0  0  0
  1  5  1  0
  2  1  2  0
  2  3  1  0
  3  4  2  0
  5  4  1  0
  5 13  1  0
  6 11  2  0
  7  6  1  0
  8  7  2  0
  8  9  1  0
  9 10  2  0
 10 11  1  0
 10  1  1  0
 12  8  1  0
 13 14  1  0
 13 16  1  0
 15 13  1  0
  2 17  1  0
  4 18  1  0
  6 19  1  0
  7 20  1  0
 12 21  1  0
 12 22  1  0
M  ISO  4  17  14  18  14  19  14  20  14
M  END
>  <minimizedAffinity>  (1) 
-4.28464508

>  <minimizedRMSD>  (1) 
0.0188701339

$$$$
