
     RDKit          3D

 42 44  0  0  1  0  0  0  0  0999 V2000
   47.2790   34.4920   42.2990 N   0  0  0  0  0  0  0  0  0  0  0  0
   46.9510   34.1770   40.9050 C   0  0  0  0  0  0  0  0  0  0  0  0
   48.1920   34.6350   40.1300 C   0  0  0  0  0  0  0  0  0  0  0  0
   48.7550   35.7790   40.7110 O   0  0  0  0  0  0  0  0  0  0  0  0
   49.3850   35.5150   41.9050 C   0  0  0  0  0  0  0  0  0  0  0  0
   48.6830   34.3860   42.5970 C   0  0  2  0  0  0  0  0  0  0  0  0
   44.5160   36.1200   44.1870 C   0  0  0  0  0  0  0  0  0  0  0  0
   45.4030   35.9130   43.1400 C   0  0  0  0  0  0  0  0  0  0  0  0
   46.2900   34.8650   43.2630 C   0  0  0  0  0  0  0  0  0  0  0  0
   46.2400   34.1080   44.3890 N   0  0  0  0  0  0  0  0  0  0  0  0
   45.3810   34.3160   45.3900 C   0  0  0  0  0  0  0  0  0  0  0  0
   44.5130   35.3340   45.2810 N   0  0  0  0  0  0  0  0  0  0  0  0
   45.3100   33.5640   46.5390 O   0  0  0  0  0  0  0  0  0  0  0  0
   46.0370   32.3870   46.7490 C   0  0  0  0  0  0  0  0  0  0  0  0
   47.3770   32.6510   46.9270 F   0  0  0  0  0  0  0  0  0  0  0  0
   45.8240   31.4610   45.7420 F   0  0  0  0  0  0  0  0  0  0  0  0
   45.6300   31.8290   47.9680 F   0  0  0  0  0  0  0  0  0  0  0  0
   49.1970   33.0830   42.2570 N   0  0  0  0  0  0  0  0  0  0  0  0
   48.7870   32.6660   40.9590 C   0  0  0  0  0  0  0  0  0  0  0  0
   49.8530   31.8420   40.2310 C   0  0  0  0  0  0  0  0  0  0  0  0
   50.4360   30.8430   41.2220 C   0  0  0  0  0  0  0  0  0  0  0  0
   51.1280   31.6460   42.2780 C   0  0  0  0  0  0  0  0  0  0  0  0
   50.6220   33.0940   42.3110 C   0  0  0  0  0  0  0  0  0  0  0  0
   46.7832   33.0976   40.7753 H   0  0  0  0  0  0  0  0  0  0  0  0
   46.0280   34.6672   40.5619 H   0  0  0  0  0  0  0  0  0  0  0  0
   47.9043   34.8630   39.0931 H   0  0  0  0  0  0  0  0  0  0  0  0
   48.9379   33.8269   40.1551 H   0  0  0  0  0  0  0  0  0  0  0  0
   50.4315   35.2350   41.7141 H   0  0  0  0  0  0  0  0  0  0  0  0
   49.3575   36.4114   42.5420 H   0  0  0  0  0  0  0  0  0  0  0  0
   48.8630   34.4781   43.6783 H   0  0  0  0  0  0  0  0  0  0  0  0
   43.7956   36.9487   44.1218 H   0  0  0  0  0  0  0  0  0  0  0  0
   45.3985   36.5583   42.2491 H   0  0  0  0  0  0  0  0  0  0  0  0
   47.8782   32.0543   41.0581 H   0  0  0  0  0  0  0  0  0  0  0  0
   48.6083   33.5731   40.3630 H   0  0  0  0  0  0  0  0  0  0  0  0
   49.3971   31.3060   39.3855 H   0  0  0  0  0  0  0  0  0  0  0  0
   50.6443   32.5000   39.8424 H   0  0  0  0  0  0  0  0  0  0  0  0
   49.6330   30.2388   41.6693 H   0  0  0  0  0  0  0  0  0  0  0  0
   51.1341   30.1524   40.7263 H   0  0  0  0  0  0  0  0  0  0  0  0
   50.9434   31.1812   43.2578 H   0  0  0  0  0  0  0  0  0  0  0  0
   52.2033   31.6632   42.0468 H   0  0  0  0  0  0  0  0  0  0  0  0
   51.0207   33.6450   41.4464 H   0  0  0  0  0  0  0  0  0  0  0  0
   50.9577   33.5868   43.2354 H   0  0  0  0  0  0  0  0  0  0  0  0
  1  6  1  0
  1  9  1  0
  2  1  1  0
  3  4  1  0
  3  2  1  0
  4  5  1  0
  5  6  1  0
  7 12  2  0
  8  9  2  0
  8  7  1  0
  9 10  1  0
 10 11  2  0
 11 13  1  0
 12 11  1  0
 13 14  1  0
 14 15  1  0
 14 17  1  0
 16 14  1  0
 18 23  1  0
 18  6  1  0
 19 18  1  0
 20 19  1  0
 20 21  1  0
 21 22  1  0
 22 23  1  0
  2 24  1  0
  2 25  1  0
  3 26  1  0
  3 27  1  0
  5 28  1  0
  5 29  1  0
  6 30  1  1
  7 31  1  0
  8 32  1  0
 19 33  1  0
 19 34  1  0
 20 35  1  0
 20 36  1  0
 21 37  1  0
 21 38  1  0
 22 39  1  0
 22 40  1  0
 23 41  1  0
 23 42  1  0
M  ISO  8  24  13  25  13  26  13  27  13  28  13  29  13  30  13  31  14
M  ISO  8  32  14  33  13  34  13  35  13  36  13  37  13  38  13  39  13
M  ISO  3  40  13  41  13  42  13
M  END
>  <minimizedAffinity>  (1) 
-6.09502554

>  <minimizedRMSD>  (1) 
0.426576376

$$$$
