
     RDKit          3D

 38 41  0  0  1  0  0  0  0  0999 V2000
   47.1440   34.3560   42.4870 N   0  0  0  0  0  0  0  0  0  0  0  0
   46.8680   34.4000   41.0610 C   0  0  0  0  0  0  0  0  0  0  0  0
   48.2190   34.6980   40.4160 C   0  0  0  0  0  0  0  0  0  0  0  0
   48.9890   35.5110   41.2220 O   0  0  0  0  0  0  0  0  0  0  0  0
   49.4620   34.8760   42.3660 C   0  0  0  0  0  0  0  0  0  0  0  0
   48.4670   33.8590   42.8050 C   0  0  2  0  0  0  0  0  0  0  0  0
   48.6830   32.5300   42.3280 N   0  0  0  0  0  0  0  0  0  0  0  0
   47.7360   31.5800   42.4300 C   0  0  0  0  0  0  0  0  0  0  0  0
   48.1910   30.4290   41.9110 N   0  0  0  0  0  0  0  0  0  0  0  0
   49.4540   30.5890   41.4510 C   0  0  0  0  0  0  0  0  0  0  0  0
   50.4390   29.8330   40.8340 C   0  0  0  0  0  0  0  0  0  0  0  0
   51.6130   30.4170   40.5350 N   0  0  0  0  0  0  0  0  0  0  0  0
   51.8840   31.7050   40.8030 C   0  0  0  0  0  0  0  0  0  0  0  0
   50.9150   32.4210   41.4020 N   0  0  0  0  0  0  0  0  0  0  0  0
   49.7130   31.9150   41.7350 C   0  0  0  0  0  0  0  0  0  0  0  0
   44.5230   36.0700   44.4740 C   0  0  0  0  0  0  0  0  0  0  0  0
   45.3640   35.8460   43.3980 C   0  0  0  0  0  0  0  0  0  0  0  0
   46.1990   34.7670   43.4810 C   0  0  0  0  0  0  0  0  0  0  0  0
   46.1520   33.9910   44.5970 N   0  0  0  0  0  0  0  0  0  0  0  0
   45.3280   34.2290   45.6260 C   0  0  0  0  0  0  0  0  0  0  0  0
   44.5080   35.2800   45.5580 N   0  0  0  0  0  0  0  0  0  0  0  0
   45.2610   33.4580   46.7690 O   0  0  0  0  0  0  0  0  0  0  0  0
   46.1720   32.4320   47.0860 C   0  0  0  0  0  0  0  0  0  0  0  0
   47.4570   32.8950   47.2430 F   0  0  0  0  0  0  0  0  0  0  0  0
   46.0950   31.4160   46.1580 F   0  0  0  0  0  0  0  0  0  0  0  0
   45.8370   31.9240   48.3490 F   0  0  0  0  0  0  0  0  0  0  0  0
   46.4756   33.4336   40.7115 H   0  0  0  0  0  0  0  0  0  0  0  0
   46.1088   35.1542   40.8063 H   0  0  0  0  0  0  0  0  0  0  0  0
   48.7527   33.7510   40.2475 H   0  0  0  0  0  0  0  0  0  0  0  0
   48.0425   35.2190   39.4634 H   0  0  0  0  0  0  0  0  0  0  0  0
   50.4198   34.3826   42.1442 H   0  0  0  0  0  0  0  0  0  0  0  0
   49.6128   35.6163   43.1655 H   0  0  0  0  0  0  0  0  0  0  0  0
   48.5872   33.7364   43.8915 H   0  0  0  0  0  0  0  0  0  0  0  0
   46.7392   31.7247   42.8721 H   0  0  0  0  0  0  0  0  0  0  0  0
   50.2633   28.7741   40.5933 H   0  0  0  0  0  0  0  0  0  0  0  0
   52.8543   32.1541   40.5445 H   0  0  0  0  0  0  0  0  0  0  0  0
   43.8391   36.9308   44.4389 H   0  0  0  0  0  0  0  0  0  0  0  0
   45.3607   36.5052   42.5174 H   0  0  0  0  0  0  0  0  0  0  0  0
  1  6  1  0
  1 18  1  0
  2  1  1  0
  3  2  1  0
  3  4  1  0
  4  5  1  0
  5  6  1  0
  7  8  1  0
  7  6  1  0
  9  8  2  0
 10 15  2  0
 10  9  1  0
 11 10  1  0
 12 13  1  0
 12 11  2  0
 13 14  2  0
 14 15  1  0
 15  7  1  0
 16 21  2  0
 17 18  2  0
 17 16  1  0
 18 19  1  0
 19 20  2  0
 20 22  1  0
 21 20  1  0
 22 23  1  0
 23 24  1  0
 23 26  1  0
 25 23  1  0
  2 27  1  0
  2 28  1  0
  3 29  1  0
  3 30  1  0
  5 31  1  0
  5 32  1  0
  6 33  1  1
  8 34  1  0
 11 35  1  0
 13 36  1  0
 16 37  1  0
 17 38  1  0
M  ISO  8  27  13  28  13  29  13  30  13  31  13  32  13  33  13  34  14
M  ISO  4  35  14  36  14  37  14  38  14
M  END
>  <minimizedAffinity>  (1) 
-6.13051462

>  <minimizedRMSD>  (1) 
0.327649295

$$$$
