
     RDKit          3D

 37 39  0  0  1  0  0  0  0  0999 V2000
   47.2360   34.4360   42.3570 N   0  0  0  0  0  0  0  0  0  0  0  0
   46.9000   34.0570   40.9960 C   0  0  0  0  0  0  0  0  0  0  0  0
   48.0970   34.5370   40.1690 C   0  0  0  0  0  0  0  0  0  0  0  0
   48.6760   35.6710   40.7020 O   0  0  0  0  0  0  0  0  0  0  0  0
   49.3180   35.4850   41.9010 C   0  0  0  0  0  0  0  0  0  0  0  0
   48.6460   34.3750   42.6540 C   0  0  2  0  0  0  0  0  0  0  0  0
   49.2570   33.0540   42.5440 C   0  0  0  0  0  0  0  0  0  0  0  0
   50.5540   33.0150   42.0670 C   0  0  0  0  0  0  0  0  0  0  0  0
   51.2300   31.8240   41.9110 C   0  0  0  0  0  0  0  0  0  0  0  0
   50.6360   30.6000   42.2290 C   0  0  0  0  0  0  0  0  0  0  0  0
   49.3470   30.6050   42.7050 C   0  0  0  0  0  0  0  0  0  0  0  0
   48.7170   31.8220   42.8420 C   0  0  0  0  0  0  0  0  0  0  0  0
   44.5310   36.1570   44.2530 C   0  0  0  0  0  0  0  0  0  0  0  0
   45.4090   35.9190   43.2110 C   0  0  0  0  0  0  0  0  0  0  0  0
   46.2600   34.8400   43.3250 C   0  0  0  0  0  0  0  0  0  0  0  0
   46.1700   34.1020   44.4460 N   0  0  0  0  0  0  0  0  0  0  0  0
   45.3220   34.3350   45.4460 C   0  0  0  0  0  0  0  0  0  0  0  0
   44.4970   35.3710   45.3470 N   0  0  0  0  0  0  0  0  0  0  0  0
   45.2370   33.5710   46.5950 O   0  0  0  0  0  0  0  0  0  0  0  0
   46.1060   32.5140   46.9180 C   0  0  0  0  0  0  0  0  0  0  0  0
   47.4010   32.9420   47.1040 F   0  0  0  0  0  0  0  0  0  0  0  0
   46.0290   31.5070   45.9810 F   0  0  0  0  0  0  0  0  0  0  0  0
   45.7200   31.9990   48.1620 F   0  0  0  0  0  0  0  0  0  0  0  0
   46.7795   32.9668   40.9125 H   0  0  0  0  0  0  0  0  0  0  0  0
   45.9496   34.4956   40.6577 H   0  0  0  0  0  0  0  0  0  0  0  0
   47.7555   34.7600   39.1474 H   0  0  0  0  0  0  0  0  0  0  0  0
   48.8528   33.7378   40.1721 H   0  0  0  0  0  0  0  0  0  0  0  0
   50.3700   35.2210   41.7178 H   0  0  0  0  0  0  0  0  0  0  0  0
   49.2733   36.4119   42.4916 H   0  0  0  0  0  0  0  0  0  0  0  0
   48.7987   34.5438   43.7302 H   0  0  0  0  0  0  0  0  0  0  0  0
   51.0585   33.9569   41.8057 H   0  0  0  0  0  0  0  0  0  0  0  0
   52.2608   31.8375   41.5273 H   0  0  0  0  0  0  0  0  0  0  0  0
   51.1864   29.6561   42.1015 H   0  0  0  0  0  0  0  0  0  0  0  0
   48.8350   29.6676   42.9680 H   0  0  0  0  0  0  0  0  0  0  0  0
   47.6860   31.8092   43.2253 H   0  0  0  0  0  0  0  0  0  0  0  0
   43.8415   37.0115   44.1868 H   0  0  0  0  0  0  0  0  0  0  0  0
   45.4277   36.5676   42.3228 H   0  0  0  0  0  0  0  0  0  0  0  0
  1  6  1  0
  1 15  1  0
  2  1  1  0
  3  4  1  0
  3  2  1  0
  4  5  1  0
  5  6  1  0
  7  6  1  0
  7 12  1  0
  8  7  2  0
  9  8  1  0
  9 10  2  0
 10 11  1  0
 11 12  2  0
 13 18  2  0
 14 15  2  0
 14 13  1  0
 15 16  1  0
 16 17  2  0
 17 19  1  0
 18 17  1  0
 19 20  1  0
 20 21  1  0
 20 23  1  0
 22 20  1  0
  2 24  1  0
  2 25  1  0
  3 26  1  0
  3 27  1  0
  5 28  1  0
  5 29  1  0
  6 30  1  1
  8 31  1  0
  9 32  1  0
 10 33  1  0
 11 34  1  0
 12 35  1  0
 13 36  1  0
 14 37  1  0
M  ISO  8  24  13  25  13  26  13  27  13  28  13  29  13  30  13  31  14
M  ISO  6  32  14  33  14  34  14  35  14  36  14  37  14
M  END
>  <minimizedAffinity>  (1) 
-6.17998743

>  <minimizedRMSD>  (1) 
0.836028159

$$$$
