
     RDKit          3D

 34 36  0  0  1  0  0  0  0  0999 V2000
   47.2870   34.4590   42.3250 N   0  0  0  0  0  0  0  0  0  0  0  0
   46.9940   34.0420   40.9630 C   0  0  0  0  0  0  0  0  0  0  0  0
   48.1620   34.5960   40.1440 C   0  0  0  0  0  0  0  0  0  0  0  0
   48.7100   35.7420   40.6880 O   0  0  0  0  0  0  0  0  0  0  0  0
   49.3750   35.5110   41.8610 C   0  0  0  0  0  0  0  0  0  0  0  0
   48.7020   34.4430   42.6400 C   0  0  2  0  0  0  0  0  0  0  0  0
   44.5260   36.1060   44.1840 C   0  0  0  0  0  0  0  0  0  0  0  0
   45.4130   35.8940   43.1370 C   0  0  0  0  0  0  0  0  0  0  0  0
   46.2860   34.8530   43.2710 C   0  0  0  0  0  0  0  0  0  0  0  0
   46.2390   34.0920   44.4040 N   0  0  0  0  0  0  0  0  0  0  0  0
   45.3680   34.3220   45.4000 C   0  0  0  0  0  0  0  0  0  0  0  0
   44.5070   35.3410   45.2820 N   0  0  0  0  0  0  0  0  0  0  0  0
   45.2930   33.5760   46.5570 O   0  0  0  0  0  0  0  0  0  0  0  0
   46.0320   32.4070   46.7950 C   0  0  0  0  0  0  0  0  0  0  0  0
   47.3830   32.6570   46.9330 F   0  0  0  0  0  0  0  0  0  0  0  0
   45.7850   31.4640   45.8250 F   0  0  0  0  0  0  0  0  0  0  0  0
   45.6450   31.8970   48.0400 F   0  0  0  0  0  0  0  0  0  0  0  0
   49.3190   33.1160   42.6130 C   0  0  0  0  0  0  0  0  0  0  0  0
   50.6570   32.8910   42.2520 C   0  0  0  0  0  0  0  0  0  0  0  0
   50.9800   31.5530   42.3110 C   0  0  0  0  0  0  0  0  0  0  0  0
   49.7900   30.9900   42.7210 C   0  0  0  0  0  0  0  0  0  0  0  0
   48.9010   31.9090   42.8730 O   0  0  0  0  0  0  0  0  0  0  0  0
   46.9520   32.9452   40.8909 H   0  0  0  0  0  0  0  0  0  0  0  0
   46.0190   34.4086   40.6096 H   0  0  0  0  0  0  0  0  0  0  0  0
   47.8007   34.8274   39.1311 H   0  0  0  0  0  0  0  0  0  0  0  0
   48.9496   33.8282   40.1349 H   0  0  0  0  0  0  0  0  0  0  0  0
   50.4061   35.2002   41.6370 H   0  0  0  0  0  0  0  0  0  0  0  0
   49.3777   36.4363   42.4558 H   0  0  0  0  0  0  0  0  0  0  0  0
   48.8428   34.6883   43.7030 H   0  0  0  0  0  0  0  0  0  0  0  0
   43.8093   36.9370   44.1079 H   0  0  0  0  0  0  0  0  0  0  0  0
   45.4123   36.5341   42.2425 H   0  0  0  0  0  0  0  0  0  0  0  0
   51.3601   33.6845   41.9585 H   0  0  0  0  0  0  0  0  0  0  0  0
   51.9386   31.0614   42.0887 H   0  0  0  0  0  0  0  0  0  0  0  0
   49.6248   29.9161   42.8926 H   0  0  0  0  0  0  0  0  0  0  0  0
  1  6  1  0
  1  9  1  0
  2  1  1  0
  3  4  1  0
  3  2  1  0
  4  5  1  0
  5  6  1  0
  7 12  2  0
  8  9  2  0
  8  7  1  0
  9 10  1  0
 10 11  2  0
 11 13  1  0
 12 11  1  0
 13 14  1  0
 14 15  1  0
 14 17  1  0
 16 14  1  0
 18  6  1  0
 18 22  1  0
 19 20  1  0
 19 18  2  0
 20 21  2  0
 21 22  1  0
  2 23  1  0
  2 24  1  0
  3 25  1  0
  3 26  1  0
  5 27  1  0
  5 28  1  0
  6 29  1  1
  7 30  1  0
  8 31  1  0
 19 32  1  0
 20 33  1  0
 21 34  1  0
M  ISO  8  23  13  24  13  25  13  26  13  27  13  28  13  29  13  30  14
M  ISO  4  31  14  32  14  33  14  34  14
M  END
>  <minimizedAffinity>  (1) 
-5.96405792

>  <minimizedRMSD>  (1) 
0.600558758

$$$$
