
     RDKit          3D

 34 36  0  0  1  0  0  0  0  0999 V2000
   47.2850   34.4440   42.3800 N   0  0  0  0  0  0  0  0  0  0  0  0
   46.9800   33.9930   41.0220 C   0  0  0  0  0  0  0  0  0  0  0  0
   48.1750   34.4760   40.1940 C   0  0  0  0  0  0  0  0  0  0  0  0
   48.6850   35.6670   40.6780 O   0  0  0  0  0  0  0  0  0  0  0  0
   49.3310   35.5560   41.8910 C   0  0  0  0  0  0  0  0  0  0  0  0
   48.6960   34.4610   42.6840 C   0  0  2  0  0  0  0  0  0  0  0  0
   44.5150   36.1240   44.1890 C   0  0  0  0  0  0  0  0  0  0  0  0
   45.4160   35.8900   43.1640 C   0  0  0  0  0  0  0  0  0  0  0  0
   46.2900   34.8340   43.3290 C   0  0  0  0  0  0  0  0  0  0  0  0
   46.2190   34.1010   44.4560 N   0  0  0  0  0  0  0  0  0  0  0  0
   45.3370   34.3430   45.4420 C   0  0  0  0  0  0  0  0  0  0  0  0
   44.4800   35.3640   45.3020 N   0  0  0  0  0  0  0  0  0  0  0  0
   45.2500   33.6040   46.6040 O   0  0  0  0  0  0  0  0  0  0  0  0
   46.0140   32.4540   46.8690 C   0  0  0  0  0  0  0  0  0  0  0  0
   47.3630   32.7370   46.9900 F   0  0  0  0  0  0  0  0  0  0  0  0
   45.7700   31.4780   45.9300 F   0  0  0  0  0  0  0  0  0  0  0  0
   45.6290   31.9640   48.1230 F   0  0  0  0  0  0  0  0  0  0  0  0
   49.3620   33.2090   42.5430 N   0  0  0  0  0  0  0  0  0  0  0  0
   48.8230   31.9970   42.7690 C   0  0  0  0  0  0  0  0  0  0  0  0
   49.8310   31.0630   42.5070 C   0  0  0  0  0  0  0  0  0  0  0  0
   50.9270   31.7600   42.1360 N   0  0  0  0  0  0  0  0  0  0  0  0
   50.6440   33.0560   42.1580 C   0  0  0  0  0  0  0  0  0  0  0  0
   46.8953   32.8969   40.9838 H   0  0  0  0  0  0  0  0  0  0  0  0
   46.0216   34.3851   40.6509 H   0  0  0  0  0  0  0  0  0  0  0  0
   47.8511   34.6237   39.1532 H   0  0  0  0  0  0  0  0  0  0  0  0
   48.9658   33.7139   40.2565 H   0  0  0  0  0  0  0  0  0  0  0  0
   50.3925   35.3214   41.7230 H   0  0  0  0  0  0  0  0  0  0  0  0
   49.2528   36.5054   42.4410 H   0  0  0  0  0  0  0  0  0  0  0  0
   48.8049   34.6623   43.7599 H   0  0  0  0  0  0  0  0  0  0  0  0
   43.8041   36.9578   44.0920 H   0  0  0  0  0  0  0  0  0  0  0  0
   45.4346   36.5165   42.2600 H   0  0  0  0  0  0  0  0  0  0  0  0
   47.7944   31.7831   43.0949 H   0  0  0  0  0  0  0  0  0  0  0  0
   49.7471   29.9692   42.5877 H   0  0  0  0  0  0  0  0  0  0  0  0
   51.3396   33.8695   41.9044 H   0  0  0  0  0  0  0  0  0  0  0  0
  1  6  1  0
  1  9  1  0
  2  1  1  0
  3  4  1  0
  3  2  1  0
  4  5  1  0
  5  6  1  0
  7 12  2  0
  8  9  2  0
  8  7  1  0
  9 10  1  0
 10 11  2  0
 11 13  1  0
 12 11  1  0
 13 14  1  0
 14 15  1  0
 14 17  1  0
 16 14  1  0
 18  6  1  0
 18 19  1  0
 20 19  2  0
 21 22  2  0
 21 20  1  0
 22 18  1  0
  2 23  1  0
  2 24  1  0
  3 25  1  0
  3 26  1  0
  5 27  1  0
  5 28  1  0
  6 29  1  1
  7 30  1  0
  8 31  1  0
 19 32  1  0
 20 33  1  0
 22 34  1  0
M  ISO  8  23  13  24  13  25  13  26  13  27  13  28  13  29  13  30  14
M  ISO  4  31  14  32  14  33  14  34  14
M  END
>  <minimizedAffinity>  (1) 
-5.87268209

>  <minimizedRMSD>  (1) 
0.49531433

$$$$
