
     RDKit          3D

 40 42  0  0  1  0  0  0  0  0999 V2000
   47.2430   34.4430   42.3440 N   0  0  0  0  0  0  0  0  0  0  0  0
   46.9150   34.0620   40.9840 C   0  0  0  0  0  0  0  0  0  0  0  0
   48.1080   34.5650   40.1620 C   0  0  0  0  0  0  0  0  0  0  0  0
   48.6800   35.6990   40.7040 O   0  0  0  0  0  0  0  0  0  0  0  0
   49.3280   35.4930   41.8950 C   0  0  0  0  0  0  0  0  0  0  0  0
   48.6560   34.3860   42.6450 C   0  0  2  0  0  0  0  0  0  0  0  0
   44.5210   36.1240   44.2520 C   0  0  0  0  0  0  0  0  0  0  0  0
   45.4020   35.8970   43.2000 C   0  0  0  0  0  0  0  0  0  0  0  0
   46.2640   34.8420   43.3130 C   0  0  0  0  0  0  0  0  0  0  0  0
   46.1940   34.1000   44.4390 N   0  0  0  0  0  0  0  0  0  0  0  0
   45.3490   34.3190   45.4460 C   0  0  0  0  0  0  0  0  0  0  0  0
   44.5090   35.3430   45.3420 N   0  0  0  0  0  0  0  0  0  0  0  0
   45.2740   33.5650   46.5960 O   0  0  0  0  0  0  0  0  0  0  0  0
   46.0350   32.4080   46.8360 C   0  0  0  0  0  0  0  0  0  0  0  0
   47.3760   32.6890   46.9530 F   0  0  0  0  0  0  0  0  0  0  0  0
   45.7960   31.4400   45.8850 F   0  0  0  0  0  0  0  0  0  0  0  0
   45.6680   31.8990   48.0910 F   0  0  0  0  0  0  0  0  0  0  0  0
   50.6470   30.6070   42.2250 C   0  0  0  0  0  0  0  0  0  0  0  0
   49.3730   30.6070   42.6960 C   0  0  0  0  0  0  0  0  0  0  0  0
   48.7380   31.8180   42.8280 C   0  0  0  0  0  0  0  0  0  0  0  0
   49.2580   33.0580   42.5290 C   0  0  0  0  0  0  0  0  0  0  0  0
   50.5610   33.0190   42.0510 C   0  0  0  0  0  0  0  0  0  0  0  0
   51.2440   31.8300   41.9000 C   0  0  0  0  0  0  0  0  0  0  0  0
   51.4620   29.0710   42.0540 S   0  0  0  0  0  0  0  0  0  0  0  0
   52.4850   29.2690   40.9430 O   0  0  0  0  0  0  0  0  0  0  0  0
   50.5190   27.9740   41.7350 O   0  0  0  0  0  0  0  0  0  0  0  0
   46.8125   32.9702   40.8973 H   0  0  0  0  0  0  0  0  0  0  0  0
   45.9577   34.4842   40.6444 H   0  0  0  0  0  0  0  0  0  0  0  0
   47.7629   34.7957   39.1433 H   0  0  0  0  0  0  0  0  0  0  0  0
   48.8713   33.7729   40.1593 H   0  0  0  0  0  0  0  0  0  0  0  0
   50.3756   35.2202   41.6998 H   0  0  0  0  0  0  0  0  0  0  0  0
   49.2941   36.4147   42.4945 H   0  0  0  0  0  0  0  0  0  0  0  0
   48.8149   34.5614   43.7192 H   0  0  0  0  0  0  0  0  0  0  0  0
   43.8159   36.9659   44.1883 H   0  0  0  0  0  0  0  0  0  0  0  0
   45.4051   36.5428   42.3095 H   0  0  0  0  0  0  0  0  0  0  0  0
   48.8662   29.6679   42.9630 H   0  0  0  0  0  0  0  0  0  0  0  0
   47.7076   31.7951   43.2123 H   0  0  0  0  0  0  0  0  0  0  0  0
   51.0622   33.9615   41.7856 H   0  0  0  0  0  0  0  0  0  0  0  0
   52.2753   31.8436   41.5177 H   0  0  0  0  0  0  0  0  0  0  0  0
   52.0604   28.6985   43.2287 H   0  0  0  0  0  0  0  0  0  0  0  0
  1  6  1  0
  1  9  1  0
  2  1  1  0
  3  4  1  0
  3  2  1  0
  4  5  1  0
  5  6  1  0
  7 12  2  0
  8  9  2  0
  8  7  1  0
  9 10  1  0
 10 11  2  0
 11 13  1  0
 12 11  1  0
 13 14  1  0
 14 15  1  0
 14 17  1  0
 16 14  1  0
 18 19  2  0
 19 20  1  0
 21  6  1  0
 21 20  2  0
 22 21  1  0
 23 22  2  0
 23 18  1  0
 24 18  1  0
 25 24  2  0
 26 24  2  0
  2 27  1  0
  2 28  1  0
  3 29  1  0
  3 30  1  0
  5 31  1  0
  5 32  1  0
  6 33  1  1
  7 34  1  0
  8 35  1  0
 19 36  1  0
 20 37  1  0
 22 38  1  0
 23 39  1  0
 24 40  1  0
M  ISO  8  27  13  28  13  29  13  30  13  31  13  32  13  33  13  34  14
M  ISO  6  35  14  36  14  37  14  38  14  39  14  40  11
M  END
>  <minimizedAffinity>  (1) 
-6.01451921

>  <minimizedRMSD>  (1) 
0.824024737

$$$$
