
     RDKit          3D

 34 36  0  0  1  0  0  0  0  0999 V2000
   47.3020   34.5220   42.2710 N   0  0  0  0  0  0  0  0  0  0  0  0
   46.9950   34.1770   40.8860 C   0  0  0  0  0  0  0  0  0  0  0  0
   48.1950   34.6500   40.0900 C   0  0  0  0  0  0  0  0  0  0  0  0
   48.7410   35.8080   40.6510 O   0  0  0  0  0  0  0  0  0  0  0  0
   49.3840   35.5890   41.8440 C   0  0  0  0  0  0  0  0  0  0  0  0
   48.7010   34.4790   42.5760 C   0  0  2  0  0  0  0  0  0  0  0  0
   44.5240   36.1020   44.1520 C   0  0  0  0  0  0  0  0  0  0  0  0
   45.4190   35.9060   43.1100 C   0  0  0  0  0  0  0  0  0  0  0  0
   46.3060   34.8750   43.2370 C   0  0  0  0  0  0  0  0  0  0  0  0
   46.2660   34.1140   44.3440 N   0  0  0  0  0  0  0  0  0  0  0  0
   45.3930   34.3140   45.3480 C   0  0  0  0  0  0  0  0  0  0  0  0
   44.5210   35.3150   45.2450 N   0  0  0  0  0  0  0  0  0  0  0  0
   45.3350   33.5490   46.4910 O   0  0  0  0  0  0  0  0  0  0  0  0
   46.0490   32.3570   46.6850 C   0  0  0  0  0  0  0  0  0  0  0  0
   47.4000   32.5690   46.8570 F   0  0  0  0  0  0  0  0  0  0  0  0
   45.7990   31.4650   45.6660 F   0  0  0  0  0  0  0  0  0  0  0  0
   45.6250   31.7810   47.8900 F   0  0  0  0  0  0  0  0  0  0  0  0
   49.3390   33.1620   42.4540 C   0  0  0  0  0  0  0  0  0  0  0  0
   49.0460   31.8310   42.7780 C   0  0  0  0  0  0  0  0  0  0  0  0
   50.0570   31.0290   42.4070 N   0  0  0  0  0  0  0  0  0  0  0  0
   50.9640   31.8460   41.8600 C   0  0  0  0  0  0  0  0  0  0  0  0
   50.5550   33.1300   41.8780 N   0  0  0  0  0  0  0  0  0  0  0  0
   46.8632   33.0903   40.7781 H   0  0  0  0  0  0  0  0  0  0  0  0
   46.0601   34.6428   40.5411 H   0  0  0  0  0  0  0  0  0  0  0  0
   47.8809   34.8636   39.0577 H   0  0  0  0  0  0  0  0  0  0  0  0
   48.9594   33.8591   40.1033 H   0  0  0  0  0  0  0  0  0  0  0  0
   50.4313   35.3129   41.6518 H   0  0  0  0  0  0  0  0  0  0  0  0
   49.3546   36.5050   42.4524 H   0  0  0  0  0  0  0  0  0  0  0  0
   48.8182   34.6498   43.6563 H   0  0  0  0  0  0  0  0  0  0  0  0
   43.7960   36.9238   44.0834 H   0  0  0  0  0  0  0  0  0  0  0  0
   45.4144   36.5528   42.2203 H   0  0  0  0  0  0  0  0  0  0  0  0
   48.1206   31.4916   43.2662 H   0  0  0  0  0  0  0  0  0  0  0  0
   51.9264   31.5107   41.4460 H   0  0  0  0  0  0  0  0  0  0  0  0
   51.0783   33.9402   41.5164 H   0  0  0  0  0  0  0  0  0  0  0  0
  1  6  1  0
  1  9  1  0
  2  1  1  0
  3  4  1  0
  3  2  1  0
  4  5  1  0
  5  6  1  0
  7 12  2  0
  8  9  2  0
  8  7  1  0
  9 10  1  0
 10 11  2  0
 11 13  1  0
 12 11  1  0
 13 14  1  0
 14 15  1  0
 14 17  1  0
 16 14  1  0
 18  6  1  0
 18 19  2  0
 20 19  1  0
 21 22  1  0
 21 20  2  0
 22 18  1  0
  2 23  1  0
  2 24  1  0
  3 25  1  0
  3 26  1  0
  5 27  1  0
  5 28  1  0
  6 29  1  1
  7 30  1  0
  8 31  1  0
 19 32  1  0
 21 33  1  0
 22 34  1  0
M  ISO  8  23  13  24  13  25  13  26  13  27  13  28  13  29  13  30  14
M  ISO  4  31  14  32  14  33  14  34   9
M  END
>  <minimizedAffinity>  (1) 
-5.89578104

>  <minimizedRMSD>  (1) 
0.452367485

$$$$
