
     RDKit          3D

 41 43  0  0  1  0  0  0  0  0999 V2000
   47.2330   34.4370   42.3820 N   0  0  0  0  0  0  0  0  0  0  0  0
   46.9150   34.2500   40.9680 C   0  0  0  0  0  0  0  0  0  0  0  0
   48.1920   34.6390   40.2380 C   0  0  0  0  0  0  0  0  0  0  0  0
   48.8150   35.7010   40.8810 O   0  0  0  0  0  0  0  0  0  0  0  0
   49.4090   35.3530   42.0900 C   0  0  0  0  0  0  0  0  0  0  0  0
   48.6060   34.2140   42.6920 C   0  0  2  0  0  0  0  0  0  0  0  0
   44.5260   36.1190   44.2760 C   0  0  0  0  0  0  0  0  0  0  0  0
   45.4010   35.8890   43.2260 C   0  0  0  0  0  0  0  0  0  0  0  0
   46.2600   34.8190   43.3510 C   0  0  0  0  0  0  0  0  0  0  0  0
   46.2060   34.0660   44.4670 N   0  0  0  0  0  0  0  0  0  0  0  0
   45.3460   34.3050   45.4800 C   0  0  0  0  0  0  0  0  0  0  0  0
   44.5050   35.3400   45.3750 N   0  0  0  0  0  0  0  0  0  0  0  0
   45.2760   33.5450   46.6270 O   0  0  0  0  0  0  0  0  0  0  0  0
   46.0490   32.4020   46.8670 C   0  0  0  0  0  0  0  0  0  0  0  0
   47.3980   32.6800   46.9810 F   0  0  0  0  0  0  0  0  0  0  0  0
   45.7880   31.4390   45.9050 F   0  0  0  0  0  0  0  0  0  0  0  0
   45.6880   31.8960   48.1230 F   0  0  0  0  0  0  0  0  0  0  0  0
   49.1880   32.9990   42.3430 N   0  0  0  0  0  0  0  0  0  0  0  0
   49.3580   32.7060   40.9530 C   0  0  0  0  0  0  0  0  0  0  0  0
   50.1100   31.3660   40.9110 C   0  0  0  0  0  0  0  0  0  0  0  0
   49.3220   30.3010   41.4760 N   0  0  0  0  0  0  0  0  0  0  0  0
   48.0920   30.8330   42.0000 C   0  0  0  0  0  0  0  0  0  0  0  0
   48.4060   31.9340   42.9880 C   0  0  0  0  0  0  0  0  0  0  0  0
   46.6537   33.2013   40.7632 H   0  0  0  0  0  0  0  0  0  0  0  0
   46.0505   34.8511   40.6497 H   0  0  0  0  0  0  0  0  0  0  0  0
   47.9445   34.9344   39.2077 H   0  0  0  0  0  0  0  0  0  0  0  0
   48.8750   33.7768   40.2313 H   0  0  0  0  0  0  0  0  0  0  0  0
   50.4461   35.0292   41.9177 H   0  0  0  0  0  0  0  0  0  0  0  0
   49.4233   36.2153   42.7728 H   0  0  0  0  0  0  0  0  0  0  0  0
   48.6267   34.1711   43.7910 H   0  0  0  0  0  0  0  0  0  0  0  0
   43.8260   36.9650   44.2099 H   0  0  0  0  0  0  0  0  0  0  0  0
   45.4093   36.5316   42.3333 H   0  0  0  0  0  0  0  0  0  0  0  0
   48.3809   32.6155   40.4558 H   0  0  0  0  0  0  0  0  0  0  0  0
   49.9082   33.5021   40.4300 H   0  0  0  0  0  0  0  0  0  0  0  0
   50.3450   31.1206   39.8648 H   0  0  0  0  0  0  0  0  0  0  0  0
   51.0300   31.4676   41.5054 H   0  0  0  0  0  0  0  0  0  0  0  0
   49.1108   29.6066   40.7452 H   0  0  0  0  0  0  0  0  0  0  0  0
   47.4869   31.2397   41.1763 H   0  0  0  0  0  0  0  0  0  0  0  0
   47.5295   30.0337   42.5046 H   0  0  0  0  0  0  0  0  0  0  0  0
   48.9855   31.5154   43.8240 H   0  0  0  0  0  0  0  0  0  0  0  0
   47.4614   32.3605   43.3565 H   0  0  0  0  0  0  0  0  0  0  0  0
  1  6  1  0
  1  9  1  0
  2  1  1  0
  3  4  1  0
  3  2  1  0
  4  5  1  0
  5  6  1  0
  7 12  2  0
  8  9  2  0
  8  7  1  0
  9 10  1  0
 10 11  2  0
 11 13  1  0
 12 11  1  0
 13 14  1  0
 14 15  1  0
 14 17  1  0
 16 14  1  0
 18  6  1  0
 18 23  1  0
 19 18  1  0
 20 19  1  0
 20 21  1  0
 21 22  1  0
 22 23  1  0
  2 24  1  0
  2 25  1  0
  3 26  1  0
  3 27  1  0
  5 28  1  0
  5 29  1  0
  6 30  1  1
  7 31  1  0
  8 32  1  0
 19 33  1  0
 19 34  1  0
 20 35  1  0
 20 36  1  0
 21 37  1  0
 22 38  1  0
 22 39  1  0
 23 40  1  0
 23 41  1  0
M  ISO  8  24  13  25  13  26  13  27  13  28  13  29  13  30  13  31  14
M  ISO  8  32  14  33  13  34  13  35  13  36  13  37   5  38  13  39  13
M  ISO  2  40  13  41  13
M  END
>  <minimizedAffinity>  (1) 
-5.83010244

>  <minimizedRMSD>  (1) 
0.602552593

$$$$
