
     RDKit          3D

 30 31  0  0  1  0  0  0  0  0999 V2000
   47.2490   34.4410   42.3540 N   0  0  0  0  0  0  0  0  0  0  0  0
   46.9190   34.0680   40.9730 C   0  0  0  0  0  0  0  0  0  0  0  0
   48.1480   34.5260   40.1810 C   0  0  0  0  0  0  0  0  0  0  0  0
   48.6970   35.6880   40.7110 O   0  0  0  0  0  0  0  0  0  0  0  0
   49.3530   35.4610   41.9110 C   0  0  0  0  0  0  0  0  0  0  0  0
   48.6730   34.3700   42.6640 C   0  0  2  0  0  0  0  0  0  0  0  0
   44.5250   36.1170   44.2320 C   0  0  0  0  0  0  0  0  0  0  0  0
   45.4050   35.8920   43.1850 C   0  0  0  0  0  0  0  0  0  0  0  0
   46.2670   34.8410   43.3150 C   0  0  0  0  0  0  0  0  0  0  0  0
   46.2250   34.0750   44.4440 N   0  0  0  0  0  0  0  0  0  0  0  0
   45.3600   34.3140   45.4480 C   0  0  0  0  0  0  0  0  0  0  0  0
   44.5070   35.3410   45.3360 N   0  0  0  0  0  0  0  0  0  0  0  0
   45.2820   33.5690   46.6020 O   0  0  0  0  0  0  0  0  0  0  0  0
   46.0360   32.4020   46.8390 C   0  0  0  0  0  0  0  0  0  0  0  0
   47.3760   32.6760   46.9550 F   0  0  0  0  0  0  0  0  0  0  0  0
   45.7930   31.4400   45.8850 F   0  0  0  0  0  0  0  0  0  0  0  0
   45.6670   31.9160   48.1030 F   0  0  0  0  0  0  0  0  0  0  0  0
   49.2400   33.0320   42.5090 C   0  0  0  0  0  0  0  0  0  0  0  0
   48.6590   31.9770   42.8980 O   0  0  0  0  0  0  0  0  0  0  0  0
   50.4760   32.8330   41.9130 O   0  0  0  0  0  0  0  0  0  0  0  0
   46.7742   32.9814   40.8822 H   0  0  0  0  0  0  0  0  0  0  0  0
   45.9830   34.5226   40.6163 H   0  0  0  0  0  0  0  0  0  0  0  0
   47.8505   34.7152   39.1390 H   0  0  0  0  0  0  0  0  0  0  0  0
   48.9071   33.7318   40.2360 H   0  0  0  0  0  0  0  0  0  0  0  0
   50.3940   35.1696   41.7078 H   0  0  0  0  0  0  0  0  0  0  0  0
   49.3345   36.3816   42.5129 H   0  0  0  0  0  0  0  0  0  0  0  0
   48.8442   34.5452   43.7364 H   0  0  0  0  0  0  0  0  0  0  0  0
   43.8175   36.9563   44.1607 H   0  0  0  0  0  0  0  0  0  0  0  0
   45.4088   36.5312   42.2898 H   0  0  0  0  0  0  0  0  0  0  0  0
   50.8387   31.9166   41.8196 H   0  0  0  0  0  0  0  0  0  0  0  0
  1  6  1  0
  1  9  1  0
  2  1  1  0
  3  4  1  0
  3  2  1  0
  4  5  1  0
  5  6  1  0
  7 12  2  0
  8  9  2  0
  8  7  1  0
  9 10  1  0
 10 11  2  0
 11 13  1  0
 12 11  1  0
 13 14  1  0
 14 15  1  0
 14 17  1  0
 16 14  1  0
 18  6  1  0
 18 19  2  0
 20 18  1  0
  2 21  1  0
  2 22  1  0
  3 23  1  0
  3 24  1  0
  5 25  1  0
  5 26  1  0
  6 27  1  1
  7 28  1  0
  8 29  1  0
 20 30  1  0
M  ISO  8  21  13  22  13  23  13  24  13  25  13  26  13  27  13  28  14
M  ISO  2  29  14  30   3
M  END
>  <minimizedAffinity>  (1) 
-5.53631449

>  <minimizedRMSD>  (1) 
0.519770384

$$$$
