
     RDKit          3D

 29 30  0  0  1  0  0  0  0  0999 V2000
   46.7190   33.8870   42.2170 N   0  0  0  0  0  0  0  0  0  0  0  0
   46.1020   33.1250   41.1150 C   0  0  0  0  0  0  0  0  0  0  0  0
   47.0650   33.3370   39.9430 C   0  0  0  0  0  0  0  0  0  0  0  0
   47.6420   34.5990   39.9760 O   0  0  0  0  0  0  0  0  0  0  0  0
   48.5750   34.7390   40.9860 C   0  0  0  0  0  0  0  0  0  0  0  0
   48.1600   33.8970   42.1560 C   0  0  1  0  0  0  0  0  0  0  0  0
   44.6750   36.2560   44.2140 C   0  0  0  0  0  0  0  0  0  0  0  0
   45.3650   35.7670   43.1110 C   0  0  0  0  0  0  0  0  0  0  0  0
   45.9760   34.5390   43.2280 C   0  0  0  0  0  0  0  0  0  0  0  0
   45.8680   33.8890   44.4010 N   0  0  0  0  0  0  0  0  0  0  0  0
   45.1970   34.3710   45.4650 C   0  0  0  0  0  0  0  0  0  0  0  0
   44.6040   35.5550   45.3580 N   0  0  0  0  0  0  0  0  0  0  0  0
   45.0800   33.7090   46.6780 O   0  0  0  0  0  0  0  0  0  0  0  0
   45.9320   32.6940   47.1040 C   0  0  0  0  0  0  0  0  0  0  0  0
   47.2570   33.0410   47.0160 F   0  0  0  0  0  0  0  0  0  0  0  0
   45.6650   31.4990   46.4390 F   0  0  0  0  0  0  0  0  0  0  0  0
   45.7000   32.4740   48.4780 F   0  0  0  0  0  0  0  0  0  0  0  0
   48.7810   34.2940   43.3930 N   0  0  0  0  0  0  0  0  0  0  0  0
   46.0247   32.0580   41.3711 H   0  0  0  0  0  0  0  0  0  0  0  0
   45.0773   33.4554   40.8898 H   0  0  0  0  0  0  0  0  0  0  0  0
   46.5100   33.2231   39.0002 H   0  0  0  0  0  0  0  0  0  0  0  0
   47.8687   32.5898   40.0193 H   0  0  0  0  0  0  0  0  0  0  0  0
   49.5606   34.4091   40.6257 H   0  0  0  0  0  0  0  0  0  0  0  0
   48.6361   35.7941   41.2912 H   0  0  0  0  0  0  0  0  0  0  0  0
   48.5207   32.8687   42.0057 H   0  0  0  0  0  0  0  0  0  0  0  0
   44.1778   37.2351   44.1491 H   0  0  0  0  0  0  0  0  0  0  0  0
   45.4210   36.3424   42.1752 H   0  0  0  0  0  0  0  0  0  0  0  0
   48.2262   33.9393   44.1850 H   0  0  0  0  0  0  0  0  0  0  0  0
   49.7335   33.9048   43.4394 H   0  0  0  0  0  0  0  0  0  0  0  0
  1  9  1  0
  2  1  1  0
  3  4  1  0
  3  2  1  0
  4  5  1  0
  5  6  1  0
  6  1  1  0
  6 18  1  0
  7 12  2  0
  8  9  2  0
  8  7  1  0
  9 10  1  0
 10 11  2  0
 11 13  1  0
 12 11  1  0
 13 14  1  0
 14 17  1  0
 15 14  1  0
 16 14  1  0
  2 19  1  0
  2 20  1  0
  3 21  1  0
  3 22  1  0
  5 23  1  0
  5 24  1  0
  6 25  1  6
  7 26  1  0
  8 27  1  0
 18 28  1  0
 18 29  1  0
M  ISO  8  19  13  20  13  21  13  22  13  23  13  24  13  25  13  26  14
M  ISO  3  27  14  28   5  29   5
M  END
>  <minimizedAffinity>  (1) 
-5.24399757

>  <minimizedRMSD>  (1) 
0.886766136

$$$$
