
     RDKit          3D

 44 47  0  0  1  0  0  0  0  0999 V2000
   47.2760   34.3360   42.4980 N   0  0  0  0  0  0  0  0  0  0  0  0
   46.9690   34.5040   41.0860 C   0  0  0  0  0  0  0  0  0  0  0  0
   48.3200   34.9180   40.4900 C   0  0  0  0  0  0  0  0  0  0  0  0
   49.0880   35.6540   41.3640 O   0  0  0  0  0  0  0  0  0  0  0  0
   49.5850   34.9180   42.4340 C   0  0  0  0  0  0  0  0  0  0  0  0
   48.6440   33.8480   42.7930 C   0  0  2  0  0  0  0  0  0  0  0  0
   44.6080   35.7470   44.6590 C   0  0  0  0  0  0  0  0  0  0  0  0
   45.4340   35.6430   43.5470 C   0  0  0  0  0  0  0  0  0  0  0  0
   46.3260   34.6230   43.5450 C   0  0  0  0  0  0  0  0  0  0  0  0
   46.3750   33.7630   44.6040 N   0  0  0  0  0  0  0  0  0  0  0  0
   45.5590   33.8900   45.6720 C   0  0  0  0  0  0  0  0  0  0  0  0
   44.6750   34.8890   45.6910 N   0  0  0  0  0  0  0  0  0  0  0  0
   45.5670   33.0530   46.7640 O   0  0  0  0  0  0  0  0  0  0  0  0
   46.6680   32.2500   47.1310 C   0  0  0  0  0  0  0  0  0  0  0  0
   47.6780   33.0040   47.6880 F   0  0  0  0  0  0  0  0  0  0  0  0
   47.1290   31.4950   46.0900 F   0  0  0  0  0  0  0  0  0  0  0  0
   46.2420   31.4100   48.1720 F   0  0  0  0  0  0  0  0  0  0  0  0
   48.8900   32.5340   42.1960 C   0  0  0  0  0  0  0  0  0  0  0  0
   48.1300   31.5440   42.3140 O   0  0  0  0  0  0  0  0  0  0  0  0
   50.0190   32.2750   41.4260 O   0  0  0  0  0  0  0  0  0  0  0  0
   50.9970   31.3830   41.8460 C   0  0  0  0  0  0  0  0  0  0  0  0
   51.0370   30.8360   43.0890 N   0  0  0  0  0  0  0  0  0  0  0  0
   52.0010   29.9740   43.4610 C   0  0  0  0  0  0  0  0  0  0  0  0
   52.9810   29.6090   42.6160 N   0  0  0  0  0  0  0  0  0  0  0  0
   53.0000   30.1090   41.3850 C   0  0  0  0  0  0  0  0  0  0  0  0
   53.9640   29.7930   40.4510 C   0  0  0  0  0  0  0  0  0  0  0  0
   54.0100   30.2940   39.1670 C   0  0  0  0  0  0  0  0  0  0  0  0
   52.9910   31.1690   38.8570 C   0  0  0  0  0  0  0  0  0  0  0  0
   51.9750   31.5620   39.7020 C   0  0  0  0  0  0  0  0  0  0  0  0
   52.0150   31.0070   40.9620 C   0  0  0  0  0  0  0  0  0  0  0  0
   46.6129   33.5620   40.6434 H   0  0  0  0  0  0  0  0  0  0  0  0
   46.1687   35.2351   40.8989 H   0  0  0  0  0  0  0  0  0  0  0  0
   48.8753   34.0093   40.2143 H   0  0  0  0  0  0  0  0  0  0  0  0
   48.1145   35.5531   39.6157 H   0  0  0  0  0  0  0  0  0  0  0  0
   50.5508   34.4733   42.1520 H   0  0  0  0  0  0  0  0  0  0  0  0
   49.7175   35.5852   43.2985 H   0  0  0  0  0  0  0  0  0  0  0  0
   48.7883   33.6466   43.8647 H   0  0  0  0  0  0  0  0  0  0  0  0
   43.8710   36.5628   44.6962 H   0  0  0  0  0  0  0  0  0  0  0  0
   45.3673   36.3533   42.7097 H   0  0  0  0  0  0  0  0  0  0  0  0
   51.9869   29.5586   44.4794 H   0  0  0  0  0  0  0  0  0  0  0  0
   54.7543   29.0897   40.7522 H   0  0  0  0  0  0  0  0  0  0  0  0
   54.7959   30.0178   38.4486 H   0  0  0  0  0  0  0  0  0  0  0  0
   52.9882   31.5927   37.8419 H   0  0  0  0  0  0  0  0  0  0  0  0
   51.1897   32.2673   39.3925 H   0  0  0  0  0  0  0  0  0  0  0  0
  1  6  1  0
  1  9  1  0
  2  1  1  0
  3  2  1  0
  3  4  1  0
  4  5  1  0
  5  6  1  0
  7 12  2  0
  8  7  1  0
  9  8  2  0
  9 10  1  0
 10 11  2  0
 11 12  1  0
 11 13  1  0
 13 14  1  0
 14 15  1  0
 14 17  1  0
 16 14  1  0
 18 19  2  0
 18  6  1  0
 20 21  1  0
 20 18  1  0
 21 22  2  0
 22 23  1  0
 24 23  2  0
 25 24  1  0
 26 25  2  0
 27 26  1  0
 28 27  2  0
 28 29  1  0
 29 30  2  0
 30 25  1  0
 30 21  1  0
  2 31  1  0
  2 32  1  0
  3 33  1  0
  3 34  1  0
  5 35  1  0
  5 36  1  0
  6 37  1  1
  7 38  1  0
  8 39  1  0
 23 40  1  0
 26 41  1  0
 27 42  1  0
 28 43  1  0
 29 44  1  0
M  ISO  8  31  13  32  13  33  13  34  13  35  13  36  13  37  13  38  14
M  ISO  6  39  14  40  14  41  14  42  14  43  14  44  14
M  END
>  <minimizedAffinity>  (1) 
-6.14147806

>  <minimizedRMSD>  (1) 
0.925940752

$$$$
