
     RDKit          3D

 37 39  0  0  1  0  0  0  0  0999 V2000
   47.2670   34.4490   42.3620 N   0  0  0  0  0  0  0  0  0  0  0  0
   46.9490   34.0120   41.0120 C   0  0  0  0  0  0  0  0  0  0  0  0
   48.1560   34.4910   40.1980 C   0  0  0  0  0  0  0  0  0  0  0  0
   48.6950   35.6630   40.6890 O   0  0  0  0  0  0  0  0  0  0  0  0
   49.3490   35.5120   41.9030 C   0  0  0  0  0  0  0  0  0  0  0  0
   48.7070   34.4550   42.6940 C   0  0  2  0  0  0  0  0  0  0  0  0
   44.5150   36.1220   44.2030 C   0  0  0  0  0  0  0  0  0  0  0  0
   45.4070   35.8920   43.1660 C   0  0  0  0  0  0  0  0  0  0  0  0
   46.2640   34.8530   43.3140 C   0  0  0  0  0  0  0  0  0  0  0  0
   46.2230   34.0860   44.4500 N   0  0  0  0  0  0  0  0  0  0  0  0
   45.3450   34.3300   45.4440 C   0  0  0  0  0  0  0  0  0  0  0  0
   44.4900   35.3520   45.3170 N   0  0  0  0  0  0  0  0  0  0  0  0
   45.2570   33.5960   46.6050 O   0  0  0  0  0  0  0  0  0  0  0  0
   46.0250   32.4520   46.8690 C   0  0  0  0  0  0  0  0  0  0  0  0
   47.3710   32.7270   46.9700 F   0  0  0  0  0  0  0  0  0  0  0  0
   45.7740   31.4670   45.9300 F   0  0  0  0  0  0  0  0  0  0  0  0
   45.6570   31.9860   48.1410 F   0  0  0  0  0  0  0  0  0  0  0  0
   49.3010   33.1160   42.5890 C   0  0  0  0  0  0  0  0  0  0  0  0
   48.6810   32.0430   42.7830 O   0  0  0  0  0  0  0  0  0  0  0  0
   50.6340   32.9190   42.2540 O   0  0  0  0  0  0  0  0  0  0  0  0
   50.9630   32.2180   41.1000 C   0  0  0  0  0  0  0  0  0  0  0  0
   50.3150   31.5860   40.0710 C   0  0  0  0  0  0  0  0  0  0  0  0
   51.2680   31.0970   39.2550 N   0  0  0  0  0  0  0  0  0  0  0  0
   52.4770   31.4000   39.7350 C   0  0  0  0  0  0  0  0  0  0  0  0
   52.3050   32.0930   40.8760 N   0  0  0  0  0  0  0  0  0  0  0  0
   46.8498   32.9175   40.9643 H   0  0  0  0  0  0  0  0  0  0  0  0
   45.9927   34.4107   40.6425 H   0  0  0  0  0  0  0  0  0  0  0  0
   47.8364   34.6582   39.1588 H   0  0  0  0  0  0  0  0  0  0  0  0
   48.9319   33.7140   40.2633 H   0  0  0  0  0  0  0  0  0  0  0  0
   50.3993   35.2418   41.7192 H   0  0  0  0  0  0  0  0  0  0  0  0
   49.2980   36.4594   42.4596 H   0  0  0  0  0  0  0  0  0  0  0  0
   48.8751   34.7032   43.7524 H   0  0  0  0  0  0  0  0  0  0  0  0
   43.8044   36.9574   44.1178 H   0  0  0  0  0  0  0  0  0  0  0  0
   45.4181   36.5236   42.2655 H   0  0  0  0  0  0  0  0  0  0  0  0
   49.2269   31.4957   39.9375 H   0  0  0  0  0  0  0  0  0  0  0  0
   53.4413   31.1311   39.2791 H   0  0  0  0  0  0  0  0  0  0  0  0
   53.0550   32.4646   41.4762 H   0  0  0  0  0  0  0  0  0  0  0  0
  1  6  1  0
  1  9  1  0
  2  1  1  0
  3  4  1  0
  3  2  1  0
  4  5  1  0
  5  6  1  0
  7 12  2  0
  8  9  2  0
  8  7  1  0
  9 10  1  0
 10 11  2  0
 11 13  1  0
 12 11  1  0
 13 14  1  0
 14 15  1  0
 14 17  1  0
 16 14  1  0
 18  6  1  0
 18 19  2  0
 20 18  1  0
 21 20  1  0
 22 21  2  0
 23 24  2  0
 23 22  1  0
 24 25  1  0
 25 21  1  0
  2 26  1  0
  2 27  1  0
  3 28  1  0
  3 29  1  0
  5 30  1  0
  5 31  1  0
  6 32  1  1
  7 33  1  0
  8 34  1  0
 22 35  1  0
 24 36  1  0
 25 37  1  0
M  ISO  8  26  13  27  13  28  13  29  13  30  13  31  13  32  13  33  14
M  ISO  4  34  14  35  14  36  14  37   9
M  END
>  <minimizedAffinity>  (1) 
-6.25581741

>  <minimizedRMSD>  (1) 
0.901111186

$$$$
