
     RDKit          3D

 41 44  0  0  1  0  0  0  0  0999 V2000
   47.2440   34.4570   42.4040 N   0  0  0  0  0  0  0  0  0  0  0  0
   46.9130   34.2810   40.9960 C   0  0  0  0  0  0  0  0  0  0  0  0
   48.1880   34.7460   40.2850 C   0  0  0  0  0  0  0  0  0  0  0  0
   48.8410   35.7570   40.9660 O   0  0  0  0  0  0  0  0  0  0  0  0
   49.4400   35.3390   42.1430 C   0  0  0  0  0  0  0  0  0  0  0  0
   48.6690   34.2430   42.7460 C   0  0  2  0  0  0  0  0  0  0  0  0
   44.5400   36.0330   44.3950 C   0  0  0  0  0  0  0  0  0  0  0  0
   45.4010   35.8610   43.3190 C   0  0  0  0  0  0  0  0  0  0  0  0
   46.2640   34.8180   43.4000 C   0  0  0  0  0  0  0  0  0  0  0  0
   46.2540   34.0050   44.4990 N   0  0  0  0  0  0  0  0  0  0  0  0
   45.4030   34.2020   45.5290 C   0  0  0  0  0  0  0  0  0  0  0  0
   44.5430   35.2280   45.4650 N   0  0  0  0  0  0  0  0  0  0  0  0
   45.3490   33.4180   46.6580 O   0  0  0  0  0  0  0  0  0  0  0  0
   46.1500   32.2770   46.8620 C   0  0  0  0  0  0  0  0  0  0  0  0
   47.4720   32.6020   47.0600 F   0  0  0  0  0  0  0  0  0  0  0  0
   46.0080   31.3690   45.8470 F   0  0  0  0  0  0  0  0  0  0  0  0
   45.7460   31.6910   48.0710 F   0  0  0  0  0  0  0  0  0  0  0  0
   49.1080   32.8820   42.4290 C   0  0  0  0  0  0  0  0  0  0  0  0
   48.5200   31.8380   42.8000 O   0  0  0  0  0  0  0  0  0  0  0  0
   50.2410   32.6340   41.6670 O   0  0  0  0  0  0  0  0  0  0  0  0
   52.6680   30.3130   38.6090 N   0  0  0  0  0  0  0  0  0  0  0  0
   53.4540   30.9280   39.5170 C   0  0  0  0  0  0  0  0  0  0  0  0
   52.6830   31.5940   40.3890 N   0  0  0  0  0  0  0  0  0  0  0  0
   51.3860   31.4040   40.0360 C   0  0  0  0  0  0  0  0  0  0  0  0
   50.1710   31.8260   40.5400 C   0  0  0  0  0  0  0  0  0  0  0  0
   49.0360   31.4310   39.9130 N   0  0  0  0  0  0  0  0  0  0  0  0
   49.0860   30.6450   38.8260 C   0  0  0  0  0  0  0  0  0  0  0  0
   50.2570   30.2000   38.2870 N   0  0  0  0  0  0  0  0  0  0  0  0
   51.3930   30.5970   38.9160 C   0  0  0  0  0  0  0  0  0  0  0  0
   46.6952   33.2269   40.7692 H   0  0  0  0  0  0  0  0  0  0  0  0
   46.0156   34.8373   40.6875 H   0  0  0  0  0  0  0  0  0  0  0  0
   47.9185   35.1133   39.2838 H   0  0  0  0  0  0  0  0  0  0  0  0
   48.8715   33.8857   40.2327 H   0  0  0  0  0  0  0  0  0  0  0  0
   50.4601   34.9889   41.9267 H   0  0  0  0  0  0  0  0  0  0  0  0
   49.4729   36.1833   42.8474 H   0  0  0  0  0  0  0  0  0  0  0  0
   48.8433   34.2921   43.8310 H   0  0  0  0  0  0  0  0  0  0  0  0
   43.8239   36.8675   44.3670 H   0  0  0  0  0  0  0  0  0  0  0  0
   45.3839   36.5338   42.4489 H   0  0  0  0  0  0  0  0  0  0  0  0
   52.9887   29.7307   37.8223 H   0  0  0  0  0  0  0  0  0  0  0  0
   54.5531   30.8892   39.5386 H   0  0  0  0  0  0  0  0  0  0  0  0
   48.1408   30.3467   38.3490 H   0  0  0  0  0  0  0  0  0  0  0  0
  1  6  1  0
  1  9  1  0
  2  1  1  0
  3  4  1  0
  3  2  1  0
  4  5  1  0
  5  6  1  0
  7 12  2  0
  8  9  2  0
  8  7  1  0
  9 10  1  0
 10 11  2  0
 11 13  1  0
 12 11  1  0
 13 14  1  0
 14 15  1  0
 14 17  1  0
 16 14  1  0
 18  6  1  0
 18 19  2  0
 20 18  1  0
 21 29  1  0
 21 22  1  0
 22 23  2  0
 24 23  1  0
 24 25  2  0
 25 20  1  0
 26 25  1  0
 27 26  2  0
 28 27  1  0
 28 29  2  0
 29 24  1  0
  2 30  1  0
  2 31  1  0
  3 32  1  0
  3 33  1  0
  5 34  1  0
  5 35  1  0
  6 36  1  1
  7 37  1  0
  8 38  1  0
 21 39  1  0
 22 40  1  0
 27 41  1  0
M  ISO  8  30  13  31  13  32  13  33  13  34  13  35  13  36  13  37  14
M  ISO  4  38  14  39   9  40  14  41  14
M  END
>  <minimizedAffinity>  (1) 
-6.19711399

>  <minimizedRMSD>  (1) 
1.55987477

$$$$
