
     RDKit          3D

 33 34  0  0  1  0  0  0  0  0999 V2000
   47.3010   34.4290   42.3570 N   0  0  0  0  0  0  0  0  0  0  0  0
   46.9900   33.9020   41.0350 C   0  0  0  0  0  0  0  0  0  0  0  0
   48.1600   34.4050   40.1830 C   0  0  0  0  0  0  0  0  0  0  0  0
   48.6480   35.6270   40.6070 O   0  0  0  0  0  0  0  0  0  0  0  0
   49.3210   35.5680   41.8180 C   0  0  0  0  0  0  0  0  0  0  0  0
   48.7450   34.5200   42.6710 C   0  0  2  0  0  0  0  0  0  0  0  0
   44.5300   36.1000   44.1710 C   0  0  0  0  0  0  0  0  0  0  0  0
   45.4270   35.8720   43.1370 C   0  0  0  0  0  0  0  0  0  0  0  0
   46.2880   34.8360   43.2990 C   0  0  0  0  0  0  0  0  0  0  0  0
   46.2410   34.0780   44.4380 N   0  0  0  0  0  0  0  0  0  0  0  0
   45.3540   34.3280   45.4250 C   0  0  0  0  0  0  0  0  0  0  0  0
   44.4970   35.3460   45.2820 N   0  0  0  0  0  0  0  0  0  0  0  0
   45.2640   33.5980   46.5900 O   0  0  0  0  0  0  0  0  0  0  0  0
   46.0190   32.4480   46.8600 C   0  0  0  0  0  0  0  0  0  0  0  0
   47.3690   32.7170   46.9650 F   0  0  0  0  0  0  0  0  0  0  0  0
   45.7790   31.4610   45.9370 F   0  0  0  0  0  0  0  0  0  0  0  0
   45.6510   31.9920   48.1350 F   0  0  0  0  0  0  0  0  0  0  0  0
   49.3990   33.2090   42.6250 C   0  0  0  0  0  0  0  0  0  0  0  0
   48.8400   32.1260   42.9160 O   0  0  0  0  0  0  0  0  0  0  0  0
   50.7270   33.0590   42.2430 O   0  0  0  0  0  0  0  0  0  0  0  0
   51.1360   32.2620   41.1880 C   0  0  0  0  0  0  0  0  0  0  0  0
   50.2690   31.7580   40.4270 O   0  0  0  0  0  0  0  0  0  0  0  0
   52.4620   32.0000   40.9460 O   0  0  0  0  0  0  0  0  0  0  0  0
   46.9521   32.8027   41.0459 H   0  0  0  0  0  0  0  0  0  0  0  0
   46.0080   34.2243   40.6585 H   0  0  0  0  0  0  0  0  0  0  0  0
   47.8185   34.5054   39.1422 H   0  0  0  0  0  0  0  0  0  0  0  0
   48.9757   33.6731   40.2774 H   0  0  0  0  0  0  0  0  0  0  0  0
   50.3817   35.3430   41.6330 H   0  0  0  0  0  0  0  0  0  0  0  0
   49.2248   36.5377   42.3284 H   0  0  0  0  0  0  0  0  0  0  0  0
   48.9182   34.8265   43.7131 H   0  0  0  0  0  0  0  0  0  0  0  0
   43.8169   36.9322   44.0769 H   0  0  0  0  0  0  0  0  0  0  0  0
   45.4393   36.4986   42.2330 H   0  0  0  0  0  0  0  0  0  0  0  0
   52.7218   31.4256   40.1826 H   0  0  0  0  0  0  0  0  0  0  0  0
  1  6  1  0
  1  9  1  0
  2  1  1  0
  3  4  1  0
  3  2  1  0
  4  5  1  0
  5  6  1  0
  7 12  2  0
  8  9  2  0
  8  7  1  0
  9 10  1  0
 10 11  2  0
 11 13  1  0
 12 11  1  0
 13 14  1  0
 14 15  1  0
 14 17  1  0
 16 14  1  0
 18  6  1  0
 18 19  2  0
 20 18  1  0
 21 20  1  0
 22 21  2  0
 23 21  1  0
  2 24  1  0
  2 25  1  0
  3 26  1  0
  3 27  1  0
  5 28  1  0
  5 29  1  0
  6 30  1  1
  7 31  1  0
  8 32  1  0
 23 33  1  0
M  ISO  8  24  13  25  13  26  13  27  13  28  13  29  13  30  13  31  14
M  ISO  2  32  14  33   3
M  END
>  <minimizedAffinity>  (1) 
-5.85892725

>  <minimizedRMSD>  (1) 
0.523958147

$$$$
