
     RDKit          3D

 40 42  0  0  1  0  0  0  0  0999 V2000
   47.2020   34.4420   42.3760 N   0  0  0  0  0  0  0  0  0  0  0  0
   46.8770   34.2690   40.9670 C   0  0  0  0  0  0  0  0  0  0  0  0
   48.1760   34.6840   40.2650 C   0  0  0  0  0  0  0  0  0  0  0  0
   48.8600   35.6730   40.9450 O   0  0  0  0  0  0  0  0  0  0  0  0
   49.4320   35.2400   42.1330 C   0  0  0  0  0  0  0  0  0  0  0  0
   48.6140   34.1790   42.7330 C   0  0  2  0  0  0  0  0  0  0  0  0
   44.5200   36.1250   44.3150 C   0  0  0  0  0  0  0  0  0  0  0  0
   45.3840   35.9000   43.2560 C   0  0  0  0  0  0  0  0  0  0  0  0
   46.2270   34.8430   43.3590 C   0  0  0  0  0  0  0  0  0  0  0  0
   46.1940   34.0590   44.4760 N   0  0  0  0  0  0  0  0  0  0  0  0
   45.3450   34.2940   45.4970 C   0  0  0  0  0  0  0  0  0  0  0  0
   44.5070   35.3340   45.4090 N   0  0  0  0  0  0  0  0  0  0  0  0
   45.2730   33.5320   46.6440 O   0  0  0  0  0  0  0  0  0  0  0  0
   46.0510   32.3840   46.8790 C   0  0  0  0  0  0  0  0  0  0  0  0
   47.3960   32.6710   46.9800 F   0  0  0  0  0  0  0  0  0  0  0  0
   45.8010   31.4220   45.9220 F   0  0  0  0  0  0  0  0  0  0  0  0
   45.6960   31.8890   48.1430 F   0  0  0  0  0  0  0  0  0  0  0  0
   49.0000   32.8000   42.4290 C   0  0  0  0  0  0  0  0  0  0  0  0
   48.2210   31.8200   42.4200 O   0  0  0  0  0  0  0  0  0  0  0  0
   50.3080   32.4570   42.1100 O   0  0  0  0  0  0  0  0  0  0  0  0
   50.6760   31.9930   40.8570 C   0  0  0  0  0  0  0  0  0  0  0  0
   52.0260   31.7350   40.7440 C   0  0  0  0  0  0  0  0  0  0  0  0
   52.5520   31.2610   39.5420 C   0  0  0  0  0  0  0  0  0  0  0  0
   51.6410   31.0830   38.5200 C   0  0  0  0  0  0  0  0  0  0  0  0
   50.2880   31.3340   38.6080 C   0  0  0  0  0  0  0  0  0  0  0  0
   49.7890   31.8070   39.8230 C   0  0  0  0  0  0  0  0  0  0  0  0
   46.6235   33.2220   40.7445 H   0  0  0  0  0  0  0  0  0  0  0  0
   46.0027   34.8547   40.6467 H   0  0  0  0  0  0  0  0  0  0  0  0
   47.9289   35.0554   39.2595 H   0  0  0  0  0  0  0  0  0  0  0  0
   48.8277   33.7988   40.2244 H   0  0  0  0  0  0  0  0  0  0  0  0
   50.4404   34.8502   41.9298 H   0  0  0  0  0  0  0  0  0  0  0  0
   49.4904   36.0869   42.8326 H   0  0  0  0  0  0  0  0  0  0  0  0
   48.7826   34.2315   43.8187 H   0  0  0  0  0  0  0  0  0  0  0  0
   43.8230   36.9744   44.2630 H   0  0  0  0  0  0  0  0  0  0  0  0
   45.3862   36.5510   42.3693 H   0  0  0  0  0  0  0  0  0  0  0  0
   52.6902   31.9035   41.6045 H   0  0  0  0  0  0  0  0  0  0  0  0
   53.6229   31.0432   39.4166 H   0  0  0  0  0  0  0  0  0  0  0  0
   52.0252   30.7112   37.5587 H   0  0  0  0  0  0  0  0  0  0  0  0
   49.6228   31.1668   37.7480 H   0  0  0  0  0  0  0  0  0  0  0  0
   48.7181   32.0244   39.9494 H   0  0  0  0  0  0  0  0  0  0  0  0
  1  6  1  0
  1  9  1  0
  2  1  1  0
  3  4  1  0
  3  2  1  0
  4  5  1  0
  5  6  1  0
  7 12  2  0
  8  9  2  0
  8  7  1  0
  9 10  1  0
 10 11  2  0
 11 13  1  0
 12 11  1  0
 13 14  1  0
 14 15  1  0
 14 17  1  0
 16 14  1  0
 18  6  1  0
 19 18  2  0
 20 18  1  0
 21 20  1  0
 22 21  2  0
 23 22  1  0
 24 25  1  0
 24 23  2  0
 25 26  2  0
 26 21  1  0
  2 27  1  0
  2 28  1  0
  3 29  1  0
  3 30  1  0
  5 31  1  0
  5 32  1  0
  6 33  1  1
  7 34  1  0
  8 35  1  0
 22 36  1  0
 23 37  1  0
 24 38  1  0
 25 39  1  0
 26 40  1  0
M  ISO  8  27  13  28  13  29  13  30  13  31  13  32  13  33  13  34  14
M  ISO  6  35  14  36  14  37  14  38  14  39  14  40  14
M  END
>  <minimizedAffinity>  (1) 
-6.0016408

>  <minimizedRMSD>  (1) 
1.2407285

$$$$
