
     RDKit          3D

 32 33  0  0  1  0  0  0  0  0999 V2000
   47.2650   34.4600   42.3400 N   0  0  0  0  0  0  0  0  0  0  0  0
   46.9460   34.0260   40.9880 C   0  0  0  0  0  0  0  0  0  0  0  0
   48.1490   34.5140   40.1760 C   0  0  0  0  0  0  0  0  0  0  0  0
   48.6840   35.6860   40.6720 O   0  0  0  0  0  0  0  0  0  0  0  0
   49.3420   35.5320   41.8840 C   0  0  0  0  0  0  0  0  0  0  0  0
   48.7080   34.4660   42.6710 C   0  0  2  0  0  0  0  0  0  0  0  0
   44.5180   36.1190   44.1980 C   0  0  0  0  0  0  0  0  0  0  0  0
   45.4040   35.8990   43.1530 C   0  0  0  0  0  0  0  0  0  0  0  0
   46.2640   34.8590   43.2960 C   0  0  0  0  0  0  0  0  0  0  0  0
   46.2270   34.0910   44.4290 N   0  0  0  0  0  0  0  0  0  0  0  0
   45.3540   34.3290   45.4300 C   0  0  0  0  0  0  0  0  0  0  0  0
   44.4920   35.3580   45.3030 N   0  0  0  0  0  0  0  0  0  0  0  0
   45.2720   33.5920   46.5880 O   0  0  0  0  0  0  0  0  0  0  0  0
   46.0250   32.4300   46.8330 C   0  0  0  0  0  0  0  0  0  0  0  0
   47.3740   32.7010   46.9450 F   0  0  0  0  0  0  0  0  0  0  0  0
   45.7790   31.4650   45.8930 F   0  0  0  0  0  0  0  0  0  0  0  0
   45.6570   31.9610   48.1040 F   0  0  0  0  0  0  0  0  0  0  0  0
   49.3040   33.1310   42.5580 C   0  0  0  0  0  0  0  0  0  0  0  0
   48.7370   32.0670   42.9000 O   0  0  0  0  0  0  0  0  0  0  0  0
   50.5800   32.9340   42.0440 O   0  0  0  0  0  0  0  0  0  0  0  0
   50.8580   31.9780   41.0770 C   0  0  0  0  0  0  0  0  0  0  0  0
   52.0360   31.8300   40.6560 O   0  0  0  0  0  0  0  0  0  0  0  0
   46.8520   32.9313   40.9361 H   0  0  0  0  0  0  0  0  0  0  0  0
   45.9870   34.4206   40.6213 H   0  0  0  0  0  0  0  0  0  0  0  0
   47.8275   34.6851   39.1380 H   0  0  0  0  0  0  0  0  0  0  0  0
   48.9282   33.7400   40.2370 H   0  0  0  0  0  0  0  0  0  0  0  0
   50.3935   35.2692   41.6962 H   0  0  0  0  0  0  0  0  0  0  0  0
   49.2866   36.4759   42.4461 H   0  0  0  0  0  0  0  0  0  0  0  0
   48.8811   34.7051   43.7306 H   0  0  0  0  0  0  0  0  0  0  0  0
   43.8059   36.9535   44.1171 H   0  0  0  0  0  0  0  0  0  0  0  0
   45.4090   36.5346   42.2552 H   0  0  0  0  0  0  0  0  0  0  0  0
   50.0488   31.3489   40.6778 H   0  0  0  0  0  0  0  0  0  0  0  0
  1  6  1  0
  1  9  1  0
  2  1  1  0
  3  4  1  0
  3  2  1  0
  4  5  1  0
  5  6  1  0
  7 12  2  0
  8  9  2  0
  8  7  1  0
  9 10  1  0
 10 11  2  0
 11 13  1  0
 12 11  1  0
 13 14  1  0
 14 15  1  0
 14 17  1  0
 16 14  1  0
 18  6  1  0
 18 19  2  0
 20 18  1  0
 21 20  1  0
 22 21  2  0
  2 23  1  0
  2 24  1  0
  3 25  1  0
  3 26  1  0
  5 27  1  0
  5 28  1  0
  6 29  1  1
  7 30  1  0
  8 31  1  0
 21 32  1  0
M  ISO  8  23  13  24  13  25  13  26  13  27  13  28  13  29  13  30  14
M  ISO  2  31  14  32   6
M  END
>  <minimizedAffinity>  (1) 
-5.48509216

>  <minimizedRMSD>  (1) 
0.258639872

$$$$
