
     RDKit          3D

 36 38  0  0  1  0  0  0  0  0999 V2000
   47.2990   34.5020   42.2960 N   0  0  0  0  0  0  0  0  0  0  0  0
   46.9850   34.1040   40.9320 C   0  0  0  0  0  0  0  0  0  0  0  0
   48.1910   34.6170   40.1400 C   0  0  0  0  0  0  0  0  0  0  0  0
   48.7270   35.7750   40.6690 O   0  0  0  0  0  0  0  0  0  0  0  0
   49.3780   35.5870   41.8810 C   0  0  0  0  0  0  0  0  0  0  0  0
   48.7410   34.4990   42.6350 C   0  0  2  0  0  0  0  0  0  0  0  0
   44.5220   36.0940   44.1740 C   0  0  0  0  0  0  0  0  0  0  0  0
   45.4120   35.9010   43.1250 C   0  0  0  0  0  0  0  0  0  0  0  0
   46.2900   34.8760   43.2560 C   0  0  0  0  0  0  0  0  0  0  0  0
   46.2640   34.0990   44.3790 N   0  0  0  0  0  0  0  0  0  0  0  0
   45.3860   34.3120   45.3820 C   0  0  0  0  0  0  0  0  0  0  0  0
   44.5150   35.3160   45.2710 N   0  0  0  0  0  0  0  0  0  0  0  0
   45.3180   33.5600   46.5330 O   0  0  0  0  0  0  0  0  0  0  0  0
   46.0420   32.3700   46.7410 C   0  0  0  0  0  0  0  0  0  0  0  0
   47.3910   32.6040   46.8900 F   0  0  0  0  0  0  0  0  0  0  0  0
   45.8020   31.4550   45.7550 F   0  0  0  0  0  0  0  0  0  0  0  0
   45.6400   31.8440   47.9770 F   0  0  0  0  0  0  0  0  0  0  0  0
   49.3330   33.1690   42.4890 C   0  0  0  0  0  0  0  0  0  0  0  0
   48.7760   32.0980   42.8310 O   0  0  0  0  0  0  0  0  0  0  0  0
   50.5960   32.9840   41.9400 O   0  0  0  0  0  0  0  0  0  0  0  0
   50.7820   32.0310   40.9230 C   0  0  0  0  0  0  0  0  0  0  0  0
   49.7970   31.6490   39.9450 C   0  0  0  0  0  0  0  0  0  0  0  0
   50.7220   30.4200   39.0020 S   0  0  0  0  0  0  0  0  0  0  0  0
   52.2880   30.6170   40.0780 C   0  0  0  0  0  0  0  0  0  0  0  0
   52.0160   31.5040   40.9700 N   0  0  0  0  0  0  0  0  0  0  0  0
   46.8934   33.0109   40.8498 H   0  0  0  0  0  0  0  0  0  0  0  0
   46.0262   34.5054   40.5721 H   0  0  0  0  0  0  0  0  0  0  0  0
   47.8728   34.8176   39.1063 H   0  0  0  0  0  0  0  0  0  0  0  0
   48.9700   33.8416   40.1847 H   0  0  0  0  0  0  0  0  0  0  0  0
   50.4308   35.3304   41.6921 H   0  0  0  0  0  0  0  0  0  0  0  0
   49.3175   36.5148   42.4689 H   0  0  0  0  0  0  0  0  0  0  0  0
   48.9122   34.7097   43.7010 H   0  0  0  0  0  0  0  0  0  0  0  0
   43.7941   36.9158   44.1047 H   0  0  0  0  0  0  0  0  0  0  0  0
   45.4049   36.5463   42.2342 H   0  0  0  0  0  0  0  0  0  0  0  0
   48.7658   32.0073   39.8100 H   0  0  0  0  0  0  0  0  0  0  0  0
   53.2387   30.0767   39.9583 H   0  0  0  0  0  0  0  0  0  0  0  0
  1  6  1  0
  1  9  1  0
  2  1  1  0
  3  4  1  0
  3  2  1  0
  4  5  1  0
  5  6  1  0
  7 12  2  0
  8  9  2  0
  8  7  1  0
  9 10  1  0
 10 11  2  0
 11 13  1  0
 12 11  1  0
 13 14  1  0
 14 15  1  0
 14 17  1  0
 16 14  1  0
 18  6  1  0
 18 19  2  0
 20 18  1  0
 21 25  1  0
 21 20  1  0
 22 21  2  0
 23 22  1  0
 23 24  1  0
 24 25  2  0
  2 26  1  0
  2 27  1  0
  3 28  1  0
  3 29  1  0
  5 30  1  0
  5 31  1  0
  6 32  1  1
  7 33  1  0
  8 34  1  0
 22 35  1  0
 24 36  1  0
M  ISO  8  26  13  27  13  28  13  29  13  30  13  31  13  32  13  33  14
M  ISO  3  34  14  35  14  36  14
M  END
>  <minimizedAffinity>  (1) 
-5.74503136

>  <minimizedRMSD>  (1) 
0.865315378

$$$$
