
     RDKit          3D

 23 24  0  0  0  0  0  0  0  0999 V2000
   45.4010   34.8490   44.4050 C   0  0  0  0  0  0  0  0  0  0  0  0
   46.4470   34.5110   43.5300 C   0  0  0  0  0  0  0  0  0  0  0  0
   47.2720   33.4410   43.9050 C   0  0  0  0  0  0  0  0  0  0  0  0
   47.0430   32.7870   45.0600 N   0  0  0  0  0  0  0  0  0  0  0  0
   46.0180   33.1420   45.8830 C   0  0  0  0  0  0  0  0  0  0  0  0
   45.2100   34.1660   45.5480 N   0  0  0  0  0  0  0  0  0  0  0  0
   48.3990   32.9900   43.0830 C   0  0  0  0  0  0  0  0  0  0  0  0
   49.4220   33.9080   42.8750 C   0  0  0  0  0  0  0  0  0  0  0  0
   50.5390   33.5690   42.1030 C   0  0  0  0  0  0  0  0  0  0  0  0
   50.6260   32.2960   41.5390 C   0  0  0  0  0  0  0  0  0  0  0  0
   49.5890   31.3800   41.7550 C   0  0  0  0  0  0  0  0  0  0  0  0
   48.5000   31.7480   42.5230 C   0  0  0  0  0  0  0  0  0  0  0  0
   44.5170   35.9500   44.0610 C   0  0  0  0  0  0  0  0  0  0  0  0
   44.9030   37.1330   44.1740 O   0  0  0  0  0  0  0  0  0  0  0  0
   43.2290   35.7030   43.6010 O   0  0  0  0  0  0  0  0  0  0  0  0
   46.6115   35.0616   42.5920 H   0  0  0  0  0  0  0  0  0  0  0  0
   45.8500   32.5926   46.8211 H   0  0  0  0  0  0  0  0  0  0  0  0
   49.3528   34.9109   43.3217 H   0  0  0  0  0  0  0  0  0  0  0  0
   51.3434   34.3018   41.9419 H   0  0  0  0  0  0  0  0  0  0  0  0
   51.4990   32.0150   40.9317 H   0  0  0  0  0  0  0  0  0  0  0  0
   49.6407   30.3728   41.3158 H   0  0  0  0  0  0  0  0  0  0  0  0
   47.6919   31.0201   42.6879 H   0  0  0  0  0  0  0  0  0  0  0  0
   42.9075   34.7715   43.5057 H   0  0  0  0  0  0  0  0  0  0  0  0
  1  6  2  0
  2  3  2  0
  2  1  1  0
  3  4  1  0
  4  5  2  0
  6  5  1  0
  7  3  1  0
  8  7  2  0
  9  8  1  0
 10 11  1  0
 10  9  2  0
 11 12  2  0
 12  7  1  0
 13 14  2  0
 13  1  1  0
 15 13  1  0
  2 16  1  0
  5 17  1  0
  8 18  1  0
  9 19  1  0
 10 20  1  0
 11 21  1  0
 12 22  1  0
 15 23  1  0
M  ISO  8  16  14  17  14  18  14  19  14  20  14  21  14  22  14  23   3
M  END
>  <minimizedAffinity>  (1) 
-4.85419512

>  <minimizedRMSD>  (1) 
2.46969891

$$$$
