
     RDKit          3D

 42 44  0  0  1  0  0  0  0  0999 V2000
   46.6700   33.8330   43.4010 C   0  0  0  0  0  0  0  0  0  0  0  0
   46.3580   33.7010   42.0570 C   0  0  0  0  0  0  0  0  0  0  0  0
   47.3940   33.7820   41.1200 C   0  0  0  0  0  0  0  0  0  0  0  0
   48.6370   33.9800   41.5520 N   0  0  0  0  0  0  0  0  0  0  0  0
   48.9450   34.1080   42.8740 C   0  0  0  0  0  0  0  0  0  0  0  0
   47.9510   34.0330   43.7810 N   0  0  0  0  0  0  0  0  0  0  0  0
   47.1590   33.6690   39.6920 C   0  0  0  0  0  0  0  0  0  0  0  0
   48.1370   34.2250   38.8600 C   0  0  0  0  0  0  0  0  0  0  0  0
   48.0180   34.1800   37.4610 C   0  0  0  0  0  0  0  0  0  0  0  0
   46.9160   33.5750   36.8950 C   0  0  0  0  0  0  0  0  0  0  0  0
   45.9560   33.0310   37.7200 C   0  0  0  0  0  0  0  0  0  0  0  0
   46.0870   33.0820   39.1080 C   0  0  0  0  0  0  0  0  0  0  0  0
   45.6260   33.7340   44.4620 C   0  0  2  0  0  0  0  0  0  0  0  0
   44.9000   35.1090   44.5610 C   0  0  0  0  0  0  0  0  0  0  0  0
   46.1720   33.4310   45.8160 C   0  0  0  0  0  0  0  0  0  0  0  0
   45.9270   32.0540   46.2990 C   0  0  0  0  0  0  0  0  0  0  0  0
   45.1880   31.9810   47.6120 C   0  0  0  0  0  0  0  0  0  0  0  0
   46.2020   32.3590   48.6680 C   0  0  0  0  0  0  0  0  0  0  0  0
   47.5350   32.0900   48.0150 C   0  0  0  0  0  0  0  0  0  0  0  0
   47.2880   31.4580   46.6830 C   0  0  0  0  0  0  0  0  0  0  0  0
   45.3194   33.5363   41.7343 H   0  0  0  0  0  0  0  0  0  0  0  0
   49.9849   34.2694   43.1942 H   0  0  0  0  0  0  0  0  0  0  0  0
   49.0170   34.7072   39.3106 H   0  0  0  0  0  0  0  0  0  0  0  0
   48.7968   34.6233   36.8231 H   0  0  0  0  0  0  0  0  0  0  0  0
   46.8050   33.5274   35.8017 H   0  0  0  0  0  0  0  0  0  0  0  0
   45.0721   32.5487   37.2772 H   0  0  0  0  0  0  0  0  0  0  0  0
   45.3047   32.6369   39.7403 H   0  0  0  0  0  0  0  0  0  0  0  0
   44.9606   32.9071   44.1732 H   0  0  0  0  0  0  0  0  0  0  0  0
   44.7599   35.3743   45.6193 H   0  0  0  0  0  0  0  0  0  0  0  0
   45.5080   35.8811   44.0668 H   0  0  0  0  0  0  0  0  0  0  0  0
   43.9195   35.0424   44.0668 H   0  0  0  0  0  0  0  0  0  0  0  0
   47.2595   33.5940   45.7890 H   0  0  0  0  0  0  0  0  0  0  0  0
   45.6457   34.0983   46.5144 H   0  0  0  0  0  0  0  0  0  0  0  0
   45.3600   31.5563   45.4985 H   0  0  0  0  0  0  0  0  0  0  0  0
   44.3448   32.6874   47.6183 H   0  0  0  0  0  0  0  0  0  0  0  0
   44.7685   30.9796   47.7890 H   0  0  0  0  0  0  0  0  0  0  0  0
   46.1070   33.4212   48.9375 H   0  0  0  0  0  0  0  0  0  0  0  0
   46.0686   31.7929   49.6017 H   0  0  0  0  0  0  0  0  0  0  0  0
   48.0813   33.0355   47.8822 H   0  0  0  0  0  0  0  0  0  0  0  0
   48.1369   31.4196   48.6460 H   0  0  0  0  0  0  0  0  0  0  0  0
   47.2369   30.3621   46.7632 H   0  0  0  0  0  0  0  0  0  0  0  0
   48.0816   31.6492   45.9457 H   0  0  0  0  0  0  0  0  0  0  0  0
  1  6  1  0
  1 13  1  0
  2  1  2  0
  3  4  2  0
  3  2  1  0
  4  5  1  0
  5  6  2  0
  7  3  1  0
  8  7  2  0
  9  8  1  0
 10  9  2  0
 10 11  1  0
 11 12  2  0
 12  7  1  0
 13 14  1  0
 13 15  1  0
 15 16  1  0
 16 20  1  0
 16 17  1  0
 17 18  1  0
 19 18  1  0
 20 19  1  0
  2 21  1  0
  5 22  1  0
  8 23  1  0
  9 24  1  0
 10 25  1  0
 11 26  1  0
 12 27  1  0
 13 28  1  6
 14 29  1  0
 14 30  1  0
 14 31  1  0
 15 32  1  0
 15 33  1  0
 16 34  1  0
 17 35  1  0
 17 36  1  0
 18 37  1  0
 18 38  1  0
 19 39  1  0
 19 40  1  0
 20 41  1  0
 20 42  1  0
M  ISO  8  21  14  22  14  23  14  24  14  25  14  26  14  27  14  28   8
M  ISO  8  29   8  30   8  31   8  32   8  33   8  34  13  35  13  36  13
M  ISO  6  37  13  38  13  39  13  40  13  41  13  42  13
M  END
>  <minimizedAffinity>  (1) 
-4.94156504

>  <minimizedRMSD>  (1) 
1.59717131

$$$$
