
     RDKit          3D

 30 31  0  0  1  0  0  0  0  0999 V2000
   46.5100   34.2450   42.9780 C   0  0  0  0  0  0  0  0  0  0  0  0
   46.3430   34.0430   41.6150 C   0  0  0  0  0  0  0  0  0  0  0  0
   47.4690   33.9950   40.7930 C   0  0  0  0  0  0  0  0  0  0  0  0
   48.6630   34.1440   41.3540 N   0  0  0  0  0  0  0  0  0  0  0  0
   48.8330   34.3430   42.6920 C   0  0  0  0  0  0  0  0  0  0  0  0
   47.7540   34.3910   43.4910 N   0  0  0  0  0  0  0  0  0  0  0  0
   47.3840   33.7990   39.3610 C   0  0  0  0  0  0  0  0  0  0  0  0
   48.3640   34.4330   38.5840 C   0  0  0  0  0  0  0  0  0  0  0  0
   48.3810   34.3190   37.1860 C   0  0  0  0  0  0  0  0  0  0  0  0
   47.4060   33.5650   36.5700 C   0  0  0  0  0  0  0  0  0  0  0  0
   46.4430   32.9420   37.3280 C   0  0  0  0  0  0  0  0  0  0  0  0
   46.4410   33.0660   38.7200 C   0  0  0  0  0  0  0  0  0  0  0  0
   45.3520   34.2940   43.9120 C   0  0  2  0  0  0  0  0  0  0  0  0
   44.8410   35.7630   43.9830 C   0  0  0  0  0  0  0  0  0  0  0  0
   45.6820   33.8670   45.3030 C   0  0  0  0  0  0  0  0  0  0  0  0
   46.0470   32.1120   45.4380 S   0  0  0  0  0  0  0  0  0  0  0  0
   45.3362   33.9224   41.1887 H   0  0  0  0  0  0  0  0  0  0  0  0
   49.8423   34.4629   43.1126 H   0  0  0  0  0  0  0  0  0  0  0  0
   49.1383   35.0344   39.0828 H   0  0  0  0  0  0  0  0  0  0  0  0
   49.1584   34.8223   36.5924 H   0  0  0  0  0  0  0  0  0  0  0  0
   47.3982   33.4618   35.4749 H   0  0  0  0  0  0  0  0  0  0  0  0
   45.6663   32.3399   36.8339 H   0  0  0  0  0  0  0  0  0  0  0  0
   45.6600   32.5596   39.3061 H   0  0  0  0  0  0  0  0  0  0  0  0
   44.5999   33.5940   43.5191 H   0  0  0  0  0  0  0  0  0  0  0  0
   44.7362   36.0643   45.0357 H   0  0  0  0  0  0  0  0  0  0  0  0
   45.5612   36.4264   43.4817 H   0  0  0  0  0  0  0  0  0  0  0  0
   43.8646   35.8362   43.4817 H   0  0  0  0  0  0  0  0  0  0  0  0
   46.5610   34.4340   45.6434 H   0  0  0  0  0  0  0  0  0  0  0  0
   44.7962   34.0651   45.9243 H   0  0  0  0  0  0  0  0  0  0  0  0
   46.1200   31.7611   46.7603 H   0  0  0  0  0  0  0  0  0  0  0  0
  1  6  2  0
  1 13  1  0
  2  1  1  0
  3  4  1  0
  3  2  2  0
  4  5  2  0
  5  6  1  0
  7  3  1  0
  8  7  2  0
  9  8  1  0
 10  9  2  0
 10 11  1  0
 11 12  2  0
 12  7  1  0
 13 14  1  0
 13 15  1  0
 15 16  1  0
  2 17  1  0
  5 18  1  0
  8 19  1  0
  9 20  1  0
 10 21  1  0
 11 22  1  0
 12 23  1  0
 13 24  1  6
 14 25  1  0
 14 26  1  0
 14 27  1  0
 15 28  1  0
 15 29  1  0
 16 30  1  0
M  ISO  8  17  14  18  14  19  14  20  14  21  14  22  14  23  14  24   8
M  ISO  6  25   8  26   8  27   8  28   8  29   8  30  11
M  END
>  <minimizedAffinity>  (1) 
-4.07338667

>  <minimizedRMSD>  (1) 
1.11599708

$$$$
