
     RDKit          3D

 35 37  0  0  1  0  0  0  0  0999 V2000
   46.6260   34.0540   43.1710 C   0  0  0  0  0  0  0  0  0  0  0  0
   46.3650   33.9220   41.8150 C   0  0  0  0  0  0  0  0  0  0  0  0
   47.4540   33.8910   40.9350 C   0  0  0  0  0  0  0  0  0  0  0  0
   48.6990   33.9900   41.4480 N   0  0  0  0  0  0  0  0  0  0  0  0
   48.9350   34.1180   42.7800 C   0  0  0  0  0  0  0  0  0  0  0  0
   47.8740   34.1470   43.6220 N   0  0  0  0  0  0  0  0  0  0  0  0
   47.3030   33.7710   39.4970 C   0  0  0  0  0  0  0  0  0  0  0  0
   48.2850   34.3810   38.7120 C   0  0  0  0  0  0  0  0  0  0  0  0
   48.2330   34.3270   37.3100 C   0  0  0  0  0  0  0  0  0  0  0  0
   47.1920   33.6590   36.7000 C   0  0  0  0  0  0  0  0  0  0  0  0
   46.2270   33.0610   37.4790 C   0  0  0  0  0  0  0  0  0  0  0  0
   46.2910   33.1220   38.8730 C   0  0  0  0  0  0  0  0  0  0  0  0
   45.5360   34.0880   44.1660 C   0  0  2  0  0  0  0  0  0  0  0  0
   44.6780   35.3710   43.9540 C   0  0  0  0  0  0  0  0  0  0  0  0
   45.9570   34.0470   45.5870 C   0  0  0  0  0  0  0  0  0  0  0  0
   45.7700   32.7700   46.2910 C   0  0  0  0  0  0  0  0  0  0  0  0
   46.0660   31.5020   45.7640 C   0  0  0  0  0  0  0  0  0  0  0  0
   45.6760   30.3570   47.1240 S   0  0  0  0  0  0  0  0  0  0  0  0
   45.1560   31.8380   48.2350 C   0  0  0  0  0  0  0  0  0  0  0  0
   45.3320   32.7010   47.5370 N   0  0  0  0  0  0  0  0  0  0  0  0
   45.3331   33.8440   41.4419 H   0  0  0  0  0  0  0  0  0  0  0  0
   49.9624   34.1962   43.1653 H   0  0  0  0  0  0  0  0  0  0  0  0
   49.1139   34.9132   39.2015 H   0  0  0  0  0  0  0  0  0  0  0  0
   49.0135   34.8118   36.7052 H   0  0  0  0  0  0  0  0  0  0  0  0
   47.1333   33.6046   35.6029 H   0  0  0  0  0  0  0  0  0  0  0  0
   45.3942   32.5279   36.9970 H   0  0  0  0  0  0  0  0  0  0  0  0
   45.5078   32.6357   39.4731 H   0  0  0  0  0  0  0  0  0  0  0  0
   44.9706   33.1614   43.9881 H   0  0  0  0  0  0  0  0  0  0  0  0
   44.3976   35.7903   44.9316 H   0  0  0  0  0  0  0  0  0  0  0  0
   45.2619   36.1136   43.3904 H   0  0  0  0  0  0  0  0  0  0  0  0
   43.7687   35.1150   43.3904 H   0  0  0  0  0  0  0  0  0  0  0  0
   47.0278   34.2959   45.6254 H   0  0  0  0  0  0  0  0  0  0  0  0
   45.3020   34.7631   46.1050 H   0  0  0  0  0  0  0  0  0  0  0  0
   46.4458   31.2575   44.7610 H   0  0  0  0  0  0  0  0  0  0  0  0
   44.7869   31.8399   49.2712 H   0  0  0  0  0  0  0  0  0  0  0  0
  1  6  1  0
  1 13  1  0
  2  1  2  0
  3  4  2  0
  3  2  1  0
  4  5  1  0
  5  6  2  0
  7  3  1  0
  8  7  2  0
  9  8  1  0
 10  9  2  0
 10 11  1  0
 11 12  2  0
 12  7  1  0
 13 15  1  0
 14 13  1  0
 15 16  1  0
 16 20  1  0
 17 16  2  0
 17 18  1  0
 18 19  1  0
 20 19  2  0
  2 21  1  0
  5 22  1  0
  8 23  1  0
  9 24  1  0
 10 25  1  0
 11 26  1  0
 12 27  1  0
 13 28  1  6
 14 29  1  0
 14 30  1  0
 14 31  1  0
 15 32  1  0
 15 33  1  0
 17 34  1  0
 19 35  1  0
M  ISO  8  21  14  22  14  23  14  24  14  25  14  26  14  27  14  28   8
M  ISO  7  29   8  30   8  31   8  32   8  33   8  34  14  35  14
M  END
>  <minimizedAffinity>  (1) 
-4.79512215

>  <minimizedRMSD>  (1) 
1.2844398

$$$$
