
     RDKit          3D

 23 24  0  0  0  0  0  0  0  0999 V2000
   44.5410   35.6470   44.4600 C   0  0  0  0  0  0  0  0  0  0  0  0
   44.5930   34.9810   43.2290 C   0  0  0  0  0  0  0  0  0  0  0  0
   44.9940   33.6520   43.1960 C   0  0  0  0  0  0  0  0  0  0  0  0
   45.3210   33.0470   44.3670 N   0  0  0  0  0  0  0  0  0  0  0  0
   45.2660   33.6960   45.5360 C   0  0  0  0  0  0  0  0  0  0  0  0
   44.8830   34.9710   45.5820 N   0  0  0  0  0  0  0  0  0  0  0  0
   45.6280   32.9630   46.6720 N   0  0  0  0  0  0  0  0  0  0  0  0
   46.6170   32.0560   46.6550 C   0  0  0  0  0  0  0  0  0  0  0  0
   46.7580   31.5000   47.8660 N   0  0  0  0  0  0  0  0  0  0  0  0
   45.8150   32.1000   48.6270 C   0  0  0  0  0  0  0  0  0  0  0  0
   45.1300   32.9910   47.8930 N   0  0  0  0  0  0  0  0  0  0  0  0
   45.5350   31.8680   50.0180 N   0  0  0  0  0  0  0  0  0  0  0  0
   44.2120   35.7460   42.0150 C   0  0  0  0  0  0  0  0  0  0  0  0
   44.8210   35.2150   40.8890 F   0  0  0  0  0  0  0  0  0  0  0  0
   44.5830   37.0840   42.0890 F   0  0  0  0  0  0  0  0  0  0  0  0
   42.8620   35.7060   41.7850 F   0  0  0  0  0  0  0  0  0  0  0  0
   47.5060   31.6210   45.5650 C   0  0  0  0  0  0  0  0  0  0  0  0
   47.8240   30.4400   45.2820 O   0  0  0  0  0  0  0  0  0  0  0  0
   44.2280   36.7001   44.5142 H   0  0  0  0  0  0  0  0  0  0  0  0
   45.0455   33.1026   42.2444 H   0  0  0  0  0  0  0  0  0  0  0  0
   44.7839   32.3942   50.4869 H   0  0  0  0  0  0  0  0  0  0  0  0
   46.0855   31.1756   50.5456 H   0  0  0  0  0  0  0  0  0  0  0  0
   47.9359   32.4124   44.9335 H   0  0  0  0  0  0  0  0  0  0  0  0
  1  6  2  0
  2  1  1  0
  3  2  2  0
  3  4  1  0
  4  5  2  0
  5  6  1  0
  5  7  1  0
  7 11  1  0
  8  7  1  0
  8  9  2  0
  9 10  1  0
 10 12  1  0
 11 10  2  0
 13 15  1  0
 13  2  1  0
 14 13  1  0
 16 13  1  0
 17  8  1  0
 18 17  2  0
  1 19  1  0
  3 20  1  0
 12 21  1  0
 12 22  1  0
 17 23  1  0
M  ISO  3  19  14  20  14  23   6
M  END
>  <minimizedAffinity>  (1) 
-5.03626442

>  <minimizedRMSD>  (1) 
1.5978421

$$$$
