
     RDKit          3D

 28 29  0  0  0  0  0  0  0  0999 V2000
   44.5700   35.6320   44.4490 C   0  0  0  0  0  0  0  0  0  0  0  0
   44.6000   34.9710   43.2220 C   0  0  0  0  0  0  0  0  0  0  0  0
   44.9840   33.6260   43.1910 C   0  0  0  0  0  0  0  0  0  0  0  0
   45.3110   33.0230   44.3590 N   0  0  0  0  0  0  0  0  0  0  0  0
   45.2750   33.6770   45.5220 C   0  0  0  0  0  0  0  0  0  0  0  0
   44.9130   34.9510   45.5650 N   0  0  0  0  0  0  0  0  0  0  0  0
   45.6380   32.9380   46.6620 N   0  0  0  0  0  0  0  0  0  0  0  0
   46.6160   32.0210   46.6420 C   0  0  0  0  0  0  0  0  0  0  0  0
   46.7550   31.4680   47.8580 N   0  0  0  0  0  0  0  0  0  0  0  0
   45.8220   32.0830   48.6190 C   0  0  0  0  0  0  0  0  0  0  0  0
   45.1410   32.9800   47.8890 N   0  0  0  0  0  0  0  0  0  0  0  0
   45.5420   31.8660   50.0170 N   0  0  0  0  0  0  0  0  0  0  0  0
   47.4900   31.5640   45.5850 N   0  0  0  0  0  0  0  0  0  0  0  0
   47.8070   30.1910   45.2950 C   0  0  0  0  0  0  0  0  0  0  0  0
   46.9730   29.3230   45.8170 N   0  0  0  0  0  0  0  0  0  0  0  0
   48.9440   29.8700   44.5020 N   0  0  0  0  0  0  0  0  0  0  0  0
   47.1930   28.3240   45.6120 H   0  0  0  0  0  0  0  0  0  0  0  0
   44.2200   35.7370   42.0110 C   0  0  0  0  0  0  0  0  0  0  0  0
   44.8240   35.2040   40.8790 F   0  0  0  0  0  0  0  0  0  0  0  0
   44.5810   37.0630   42.0800 F   0  0  0  0  0  0  0  0  0  0  0  0
   42.8590   35.6920   41.7910 F   0  0  0  0  0  0  0  0  0  0  0  0
   44.2724   36.6893   44.5079 H   0  0  0  0  0  0  0  0  0  0  0  0
   45.0195   33.0718   42.2415 H   0  0  0  0  0  0  0  0  0  0  0  0
   44.7980   32.4048   50.4829 H   0  0  0  0  0  0  0  0  0  0  0  0
   46.0860   31.1722   50.5495 H   0  0  0  0  0  0  0  0  0  0  0  0
   47.9230   32.2832   44.9882 H   0  0  0  0  0  0  0  0  0  0  0  0
   49.1674   28.8857   44.2967 H   0  0  0  0  0  0  0  0  0  0  0  0
   49.5436   30.6219   44.1333 H   0  0  0  0  0  0  0  0  0  0  0  0
  1  6  2  0
  2  1  1  0
  3  2  2  0
  3  4  1  0
  4  5  2  0
  5  6  1  0
  5  7  1  0
  7 11  1  0
  8  7  1  0
  8  9  2  0
  9 10  1  0
 10 12  1  0
 11 10  2  0
 13  8  1  0
 14 13  1  0
 14 15  2  0
 16 14  1  0
 17 15  1  0
 18 20  1  0
 18  2  1  0
 19 18  1  0
 21 18  1  0
  1 22  1  0
  3 23  1  0
 12 24  1  0
 12 25  1  0
 13 26  1  0
 16 27  1  0
 16 28  1  0
M  ISO  2  22  14  23  14
M  END
>  <minimizedAffinity>  (1) 
-5.59523153

>  <minimizedRMSD>  (1) 
1.88517761

$$$$
