
     RDKit          3D

 24 25  0  0  0  0  0  0  0  0999 V2000
   44.6300   35.6140   44.4010 C   0  0  0  0  0  0  0  0  0  0  0  0
   44.5700   34.9470   43.1830 C   0  0  0  0  0  0  0  0  0  0  0  0
   44.8610   33.5860   43.1480 C   0  0  0  0  0  0  0  0  0  0  0  0
   45.1890   32.9840   44.3160 N   0  0  0  0  0  0  0  0  0  0  0  0
   45.2430   33.6290   45.4670 C   0  0  0  0  0  0  0  0  0  0  0  0
   44.9690   34.9210   45.5150 N   0  0  0  0  0  0  0  0  0  0  0  0
   45.6000   32.8750   46.5960 N   0  0  0  0  0  0  0  0  0  0  0  0
   46.4870   31.8720   46.5510 C   0  0  0  0  0  0  0  0  0  0  0  0
   46.6440   31.3230   47.7610 N   0  0  0  0  0  0  0  0  0  0  0  0
   45.8060   32.0340   48.5640 C   0  0  0  0  0  0  0  0  0  0  0  0
   45.1770   32.9750   47.8440 N   0  0  0  0  0  0  0  0  0  0  0  0
   45.5830   31.8580   49.9720 N   0  0  0  0  0  0  0  0  0  0  0  0
   44.1970   35.7380   41.9940 C   0  0  0  0  0  0  0  0  0  0  0  0
   44.8140   35.2160   40.8510 F   0  0  0  0  0  0  0  0  0  0  0  0
   44.6110   37.0670   42.0810 F   0  0  0  0  0  0  0  0  0  0  0  0
   42.8540   35.7180   41.7360 F   0  0  0  0  0  0  0  0  0  0  0  0
   47.2320   31.3950   45.3310 C   0  0  0  0  0  0  0  0  0  0  0  0
   48.2480   30.5210   45.6520 F   0  0  0  0  0  0  0  0  0  0  0  0
   47.7960   32.4360   44.6500 F   0  0  0  0  0  0  0  0  0  0  0  0
   46.3940   30.7540   44.4420 F   0  0  0  0  0  0  0  0  0  0  0  0
   44.4055   36.6892   44.4598 H   0  0  0  0  0  0  0  0  0  0  0  0
   44.8258   33.0199   42.2055 H   0  0  0  0  0  0  0  0  0  0  0  0
   44.9166   32.4670   50.4680 H   0  0  0  0  0  0  0  0  0  0  0  0
   46.0895   31.1228   50.4857 H   0  0  0  0  0  0  0  0  0  0  0  0
  1  6  2  0
  2  1  1  0
  3  2  2  0
  3  4  1  0
  4  5  2  0
  5  6  1  0
  5  7  1  0
  7 11  1  0
  8  7  1  0
  8  9  2  0
  9 10  1  0
 10 12  1  0
 11 10  2  0
 13 15  1  0
 13  2  1  0
 14 13  1  0
 16 13  1  0
 17 18  1  0
 17  8  1  0
 19 17  1  0
 20 17  1  0
  1 21  1  0
  3 22  1  0
 12 23  1  0
 12 24  1  0
M  ISO  2  21  14  22  14
M  END
>  <minimizedAffinity>  (1) 
-5.24125528

>  <minimizedRMSD>  (1) 
1.87425816

$$$$
