
     RDKit          3D

 27 28  0  0  0  0  0  0  0  0999 V2000
   44.5550   35.6450   44.4470 C   0  0  0  0  0  0  0  0  0  0  0  0
   44.5880   34.9750   43.2190 C   0  0  0  0  0  0  0  0  0  0  0  0
   44.9730   33.6370   43.1890 C   0  0  0  0  0  0  0  0  0  0  0  0
   45.3000   33.0490   44.3630 N   0  0  0  0  0  0  0  0  0  0  0  0
   45.2660   33.6900   45.5190 C   0  0  0  0  0  0  0  0  0  0  0  0
   44.9020   34.9620   45.5670 N   0  0  0  0  0  0  0  0  0  0  0  0
   45.6330   32.9510   46.6600 N   0  0  0  0  0  0  0  0  0  0  0  0
   46.6250   32.0400   46.6290 C   0  0  0  0  0  0  0  0  0  0  0  0
   46.7740   31.4790   47.8390 N   0  0  0  0  0  0  0  0  0  0  0  0
   45.8270   32.0900   48.6060 C   0  0  0  0  0  0  0  0  0  0  0  0
   45.1280   32.9920   47.8870 N   0  0  0  0  0  0  0  0  0  0  0  0
   45.5510   31.8570   50.0070 N   0  0  0  0  0  0  0  0  0  0  0  0
   44.2040   35.7470   42.0180 C   0  0  0  0  0  0  0  0  0  0  0  0
   44.8170   35.2090   40.8810 F   0  0  0  0  0  0  0  0  0  0  0  0
   44.5920   37.0850   42.0860 F   0  0  0  0  0  0  0  0  0  0  0  0
   42.8600   35.7060   41.7630 F   0  0  0  0  0  0  0  0  0  0  0  0
   47.5220   31.5980   45.5130 C   0  0  0  0  0  0  0  0  0  0  0  0
   47.7020   30.1170   45.4400 C   0  0  0  0  0  0  0  0  0  0  0  0
   44.2545   36.7017   44.5032 H   0  0  0  0  0  0  0  0  0  0  0  0
   45.0100   33.0771   42.2429 H   0  0  0  0  0  0  0  0  0  0  0  0
   44.8038   32.3854   50.4795 H   0  0  0  0  0  0  0  0  0  0  0  0
   46.1018   31.1627   50.5319 H   0  0  0  0  0  0  0  0  0  0  0  0
   47.0896   31.9428   44.5622 H   0  0  0  0  0  0  0  0  0  0  0  0
   48.5135   32.0339   45.7048 H   0  0  0  0  0  0  0  0  0  0  0  0
   47.7523   29.7031   46.4579 H   0  0  0  0  0  0  0  0  0  0  0  0
   46.8515   29.6702   44.9042 H   0  0  0  0  0  0  0  0  0  0  0  0
   48.6347   29.8870   44.9042 H   0  0  0  0  0  0  0  0  0  0  0  0
  1  6  2  0
  2  1  1  0
  3  2  2  0
  3  4  1  0
  4  5  2  0
  5  6  1  0
  5  7  1  0
  7 11  1  0
  8  7  1  0
  8  9  2  0
  9 10  1  0
 10 12  1  0
 11 10  2  0
 13 15  1  0
 13  2  1  0
 14 13  1  0
 16 13  1  0
 17  8  1  0
 18 17  1  0
  1 19  1  0
  3 20  1  0
 12 21  1  0
 12 22  1  0
 17 23  1  0
 17 24  1  0
 18 25  1  0
 18 26  1  0
 18 27  1  0
M  ISO  7  19  14  20  14  23   8  24   8  25   8  26   8  27   8
M  END
>  <minimizedAffinity>  (1) 
-5.07697821

>  <minimizedRMSD>  (1) 
1.60142744

$$$$
