
     RDKit          3D

 37 39  0  0  0  0  0  0  0  0999 V2000
   45.1150   35.0920   44.5650 C   0  0  0  0  0  0  0  0  0  0  0  0
   44.7950   34.5460   43.3240 C   0  0  0  0  0  0  0  0  0  0  0  0
   44.8940   33.1740   43.1540 C   0  0  0  0  0  0  0  0  0  0  0  0
   45.2990   32.4280   44.2040 N   0  0  0  0  0  0  0  0  0  0  0  0
   45.6030   32.9420   45.3800 C   0  0  0  0  0  0  0  0  0  0  0  0
   45.5130   34.2670   45.5650 N   0  0  0  0  0  0  0  0  0  0  0  0
   46.0100   32.0570   46.3910 N   0  0  0  0  0  0  0  0  0  0  0  0
   46.7870   30.9890   46.1170 C   0  0  0  0  0  0  0  0  0  0  0  0
   47.0310   30.3060   47.2430 N   0  0  0  0  0  0  0  0  0  0  0  0
   46.3660   31.0090   48.2170 C   0  0  0  0  0  0  0  0  0  0  0  0
   45.7360   32.0890   47.6920 N   0  0  0  0  0  0  0  0  0  0  0  0
   46.3050   30.7030   49.6200 N   0  0  0  0  0  0  0  0  0  0  0  0
   47.4090   30.4280   44.8880 C   0  0  0  0  0  0  0  0  0  0  0  0
   48.8100   29.8940   45.1890 C   0  0  0  0  0  0  0  0  0  0  0  0
   49.3500   29.2140   43.9700 C   0  0  0  0  0  0  0  0  0  0  0  0
   48.4900   28.0920   43.4740 C   0  0  0  0  0  0  0  0  0  0  0  0
   47.2660   28.0260   44.3640 C   0  0  0  0  0  0  0  0  0  0  0  0
   46.5550   29.3380   44.2790 C   0  0  0  0  0  0  0  0  0  0  0  0
   44.3630   35.4900   42.2610 C   0  0  0  0  0  0  0  0  0  0  0  0
   44.8480   35.0810   41.0240 F   0  0  0  0  0  0  0  0  0  0  0  0
   44.7770   36.7860   42.4760 F   0  0  0  0  0  0  0  0  0  0  0  0
   42.9840   35.5180   42.1310 F   0  0  0  0  0  0  0  0  0  0  0  0
   45.0458   36.1771   44.7315 H   0  0  0  0  0  0  0  0  0  0  0  0
   44.6492   32.7054   42.1894 H   0  0  0  0  0  0  0  0  0  0  0  0
   45.7697   31.3104   50.2568 H   0  0  0  0  0  0  0  0  0  0  0  0
   46.7966   29.8763   49.9887 H   0  0  0  0  0  0  0  0  0  0  0  0
   47.4876   31.2451   44.1558 H   0  0  0  0  0  0  0  0  0  0  0  0
   49.4700   30.7288   45.4673 H   0  0  0  0  0  0  0  0  0  0  0  0
   48.7610   29.1764   46.0213 H   0  0  0  0  0  0  0  0  0  0  0  0
   49.4423   29.9612   43.1680 H   0  0  0  0  0  0  0  0  0  0  0  0
   50.3194   28.7758   44.2499 H   0  0  0  0  0  0  0  0  0  0  0  0
   48.1876   28.2827   42.4337 H   0  0  0  0  0  0  0  0  0  0  0  0
   49.0411   27.1404   43.5034 H   0  0  0  0  0  0  0  0  0  0  0  0
   46.6007   27.2192   44.0228 H   0  0  0  0  0  0  0  0  0  0  0  0
   47.5627   27.8214   45.4033 H   0  0  0  0  0  0  0  0  0  0  0  0
   46.3563   29.5773   43.2239 H   0  0  0  0  0  0  0  0  0  0  0  0
   45.6058   29.2714   44.8308 H   0  0  0  0  0  0  0  0  0  0  0  0
  1  6  2  0
  2  1  1  0
  3  2  2  0
  3  4  1  0
  4  5  2  0
  5  6  1  0
  5  7  1  0
  7 11  1  0
  8  7  1  0
  8  9  2  0
  9 10  1  0
 10 12  1  0
 11 10  2  0
 13 14  1  0
 13  8  1  0
 15 14  1  0
 16 15  1  0
 16 17  1  0
 18 17  1  0
 18 13  1  0
 19 21  1  0
 19  2  1  0
 20 19  1  0
 22 19  1  0
  1 23  1  0
  3 24  1  0
 12 25  1  0
 12 26  1  0
 13 27  1  0
 14 28  1  0
 14 29  1  0
 15 30  1  0
 15 31  1  0
 16 32  1  0
 16 33  1  0
 17 34  1  0
 17 35  1  0
 18 36  1  0
 18 37  1  0
M  ISO  8  23  14  24  14  27  13  28  13  29  13  30  13  31  13  32  13
M  ISO  5  33  13  34  13  35  13  36  13  37  13
M  END
>  <minimizedAffinity>  (1) 
-4.91203165

>  <minimizedRMSD>  (1) 
2.45043111

$$$$
