
     RDKit          3D

 46 48  0  0  0  0  0  0  0  0999 V2000
   47.5010   30.5800   44.6240 C   0  0  0  0  0  0  0  0  0  0  0  0
   45.0030   35.1170   44.3200 C   0  0  0  0  0  0  0  0  0  0  0  0
   44.6500   34.5050   43.1220 C   0  0  0  0  0  0  0  0  0  0  0  0
   44.8220   33.1320   43.0070 C   0  0  0  0  0  0  0  0  0  0  0  0
   45.3270   32.5190   44.0970 N   0  0  0  0  0  0  0  0  0  0  0  0
   45.6670   33.0480   45.2230 C   0  0  0  0  0  0  0  0  0  0  0  0
   45.5030   34.3680   45.3400 N   0  0  0  0  0  0  0  0  0  0  0  0
   46.1650   32.2130   46.2070 N   0  0  0  0  0  0  0  0  0  0  0  0
   46.9590   31.1570   45.9130 C   0  0  0  0  0  0  0  0  0  0  0  0
   47.2740   30.5470   47.0710 N   0  0  0  0  0  0  0  0  0  0  0  0
   46.6610   31.2440   48.0460 C   0  0  0  0  0  0  0  0  0  0  0  0
   45.9770   32.2720   47.5220 N   0  0  0  0  0  0  0  0  0  0  0  0
   46.6870   30.9730   49.4550 N   0  0  0  0  0  0  0  0  0  0  0  0
   44.1140   35.3810   42.0600 C   0  0  0  0  0  0  0  0  0  0  0  0
   44.6300   34.9920   40.8190 F   0  0  0  0  0  0  0  0  0  0  0  0
   44.4750   36.7280   42.2200 F   0  0  0  0  0  0  0  0  0  0  0  0
   42.7590   35.2920   41.9510 F   0  0  0  0  0  0  0  0  0  0  0  0
   48.1080   31.6590   43.7370 C   0  0  0  0  0  0  0  0  0  0  0  0
   48.6880   29.6380   44.9210 C   0  0  0  0  0  0  0  0  0  0  0  0
   46.4640   29.8730   43.8220 C   0  0  0  0  0  0  0  0  0  0  0  0
   45.6080   28.9900   44.5940 N   0  0  0  0  0  0  0  0  0  0  0  0
   46.0110   28.0810   45.4980 C   0  0  0  0  0  0  0  0  0  0  0  0
   45.2470   27.2270   46.2600 C   0  0  0  0  0  0  0  0  0  0  0  0
   45.8440   26.2830   47.2120 C   0  0  0  0  0  0  0  0  0  0  0  0
   43.8920   27.3150   46.0730 C   0  0  0  0  0  0  0  0  0  0  0  0
   43.1440   26.5580   46.7430 O   0  0  0  0  0  0  0  0  0  0  0  0
   43.4210   28.2050   45.1810 N   0  0  0  0  0  0  0  0  0  0  0  0
   44.2600   28.9940   44.4890 C   0  0  0  0  0  0  0  0  0  0  0  0
   43.6560   29.7620   43.7050 O   0  0  0  0  0  0  0  0  0  0  0  0
   44.8784   36.2030   44.4425 H   0  0  0  0  0  0  0  0  0  0  0  0
   44.5641   32.5821   42.0899 H   0  0  0  0  0  0  0  0  0  0  0  0
   46.1739   31.5839   50.1065 H   0  0  0  0  0  0  0  0  0  0  0  0
   47.2188   30.1676   49.8148 H   0  0  0  0  0  0  0  0  0  0  0  0
   48.5503   32.4452   44.3665 H   0  0  0  0  0  0  0  0  0  0  0  0
   48.8888   31.2152   43.1019 H   0  0  0  0  0  0  0  0  0  0  0  0
   47.3233   32.0959   43.1019 H   0  0  0  0  0  0  0  0  0  0  0  0
   48.8136   29.5383   46.0092 H   0  0  0  0  0  0  0  0  0  0  0  0
   48.4897   28.6488   44.4827 H   0  0  0  0  0  0  0  0  0  0  0  0
   49.6063   30.0559   44.4827 H   0  0  0  0  0  0  0  0  0  0  0  0
   46.9732   29.2732   43.0533 H   0  0  0  0  0  0  0  0  0  0  0  0
   45.8118   30.6501   43.3969 H   0  0  0  0  0  0  0  0  0  0  0  0
   47.0982   28.0100   45.6493 H   0  0  0  0  0  0  0  0  0  0  0  0
   45.6336   26.6157   48.2391 H   0  0  0  0  0  0  0  0  0  0  0  0
   45.4139   25.2828   47.0552 H   0  0  0  0  0  0  0  0  0  0  0  0
   46.9320   26.2429   47.0552 H   0  0  0  0  0  0  0  0  0  0  0  0
   42.4056   28.2825   45.0267 H   0  0  0  0  0  0  0  0  0  0  0  0
  1 19  1  0
  1  9  1  0
  2  7  2  0
  3  2  1  0
  4  3  2  0
  4  5  1  0
  5  6  2  0
  6  7  1  0
  6  8  1  0
  8 12  1  0
  9  8  1  0
  9 10  2  0
 10 11  1  0
 11 13  1  0
 12 11  2  0
 14 16  1  0
 14  3  1  0
 15 14  1  0
 17 14  1  0
 18  1  1  0
 20 21  1  0
 20  1  1  0
 21 22  1  0
 22 23  2  0
 23 24  1  0
 25 23  1  0
 25 26  2  0
 27 25  1  0
 28 21  1  0
 28 27  1  0
 29 28  2  0
  2 30  1  0
  4 31  1  0
 13 32  1  0
 13 33  1  0
 18 34  1  0
 18 35  1  0
 18 36  1  0
 19 37  1  0
 19 38  1  0
 19 39  1  0
 20 40  1  0
 20 41  1  0
 22 42  1  0
 24 43  1  0
 24 44  1  0
 24 45  1  0
 27 46  1  0
M  ISO  8  30  14  31  14  34   8  35   8  36   8  37   8  38   8  39   8
M  ISO  7  40   8  41   8  42  14  43   8  44   8  45   8  46   9
M  END
>  <minimizedAffinity>  (1) 
-5.45540571

>  <minimizedRMSD>  (1) 
0.6071527

$$$$
