
     RDKit          3D

 41 43  0  0  0  0  0  0  0  0999 V2000
   45.1300   35.0780   44.4260 C   0  0  0  0  0  0  0  0  0  0  0  0
   44.7210   34.4690   43.2360 C   0  0  0  0  0  0  0  0  0  0  0  0
   44.8690   33.0930   43.1140 C   0  0  0  0  0  0  0  0  0  0  0  0
   45.4050   32.4690   44.1790 N   0  0  0  0  0  0  0  0  0  0  0  0
   45.7950   32.9920   45.2940 C   0  0  0  0  0  0  0  0  0  0  0  0
   45.6580   34.3190   45.4260 N   0  0  0  0  0  0  0  0  0  0  0  0
   46.3220   32.1510   46.2580 N   0  0  0  0  0  0  0  0  0  0  0  0
   47.0970   31.0890   45.9290 C   0  0  0  0  0  0  0  0  0  0  0  0
   47.4530   30.4800   47.0760 N   0  0  0  0  0  0  0  0  0  0  0  0
   46.8880   31.1820   48.0730 C   0  0  0  0  0  0  0  0  0  0  0  0
   46.1880   32.2170   47.5680 N   0  0  0  0  0  0  0  0  0  0  0  0
   46.9860   30.9200   49.4860 N   0  0  0  0  0  0  0  0  0  0  0  0
   44.1590   35.3570   42.1950 C   0  0  0  0  0  0  0  0  0  0  0  0
   44.6340   34.9680   40.9350 F   0  0  0  0  0  0  0  0  0  0  0  0
   44.5330   36.6990   42.3540 F   0  0  0  0  0  0  0  0  0  0  0  0
   42.8020   35.2780   42.1270 F   0  0  0  0  0  0  0  0  0  0  0  0
   47.5880   30.5070   44.6280 C   0  0  0  0  0  0  0  0  0  0  0  0
   48.1140   31.6070   43.6930 C   0  0  0  0  0  0  0  0  0  0  0  0
   48.8230   29.6180   44.8770 C   0  0  0  0  0  0  0  0  0  0  0  0
   46.5470   29.7680   43.8800 C   0  0  0  0  0  0  0  0  0  0  0  0
   45.7390   28.8300   44.7230 C   0  0  0  0  0  0  0  0  0  0  0  0
   44.4330   29.2140   44.9620 C   0  0  0  0  0  0  0  0  0  0  0  0
   43.6590   28.3550   45.7460 C   0  0  0  0  0  0  0  0  0  0  0  0
   44.2000   27.2080   46.2310 N   0  0  0  0  0  0  0  0  0  0  0  0
   45.4790   26.8990   45.9560 C   0  0  0  0  0  0  0  0  0  0  0  0
   46.2850   27.6960   45.1980 N   0  0  0  0  0  0  0  0  0  0  0  0
   45.0258   36.1655   44.5541 H   0  0  0  0  0  0  0  0  0  0  0  0
   44.5678   32.5493   42.2064 H   0  0  0  0  0  0  0  0  0  0  0  0
   46.5044   31.5341   50.1583 H   0  0  0  0  0  0  0  0  0  0  0  0
   47.5377   30.1186   49.8241 H   0  0  0  0  0  0  0  0  0  0  0  0
   48.5118   32.4388   44.2929 H   0  0  0  0  0  0  0  0  0  0  0  0
   48.9137   31.1974   43.0584 H   0  0  0  0  0  0  0  0  0  0  0  0
   47.2931   31.9723   43.0584 H   0  0  0  0  0  0  0  0  0  0  0  0
   48.9808   29.5044   45.9597 H   0  0  0  0  0  0  0  0  0  0  0  0
   48.6599   28.6287   44.4245 H   0  0  0  0  0  0  0  0  0  0  0  0
   49.7094   30.0866   44.4245 H   0  0  0  0  0  0  0  0  0  0  0  0
   45.8633   30.4998   43.4249 H   0  0  0  0  0  0  0  0  0  0  0  0
   47.0694   29.1531   43.1324 H   0  0  0  0  0  0  0  0  0  0  0  0
   44.0231   30.1501   44.5549 H   0  0  0  0  0  0  0  0  0  0  0  0
   42.6121   28.6077   45.9702 H   0  0  0  0  0  0  0  0  0  0  0  0
   45.8931   25.9633   46.3597 H   0  0  0  0  0  0  0  0  0  0  0  0
  1  6  2  0
  2  1  1  0
  3  2  2  0
  3  4  1  0
  4  5  2  0
  5  6  1  0
  5  7  1  0
  7 11  1  0
  8  7  1  0
  8  9  2  0
  9 10  1  0
 10 12  1  0
 11 10  2  0
 13 15  1  0
 13  2  1  0
 14 13  1  0
 16 13  1  0
 17 19  1  0
 17  8  1  0
 18 17  1  0
 20 17  1  0
 20 21  1  0
 21 22  2  0
 21 26  1  0
 22 23  1  0
 23 24  2  0
 25 24  1  0
 26 25  2  0
  1 27  1  0
  3 28  1  0
 12 29  1  0
 12 30  1  0
 18 31  1  0
 18 32  1  0
 18 33  1  0
 19 34  1  0
 19 35  1  0
 19 36  1  0
 20 37  1  0
 20 38  1  0
 22 39  1  0
 23 40  1  0
 25 41  1  0
M  ISO  8  27  14  28  14  31   8  32   8  33   8  34   8  35   8  36   8
M  ISO  5  37   8  38   8  39  14  40  14  41  14
M  END
>  <minimizedAffinity>  (1) 
-5.15082359

>  <minimizedRMSD>  (1) 
0.458338648

$$$$
