
     RDKit          3D

 49 52  0  0  0  0  0  0  0  0999 V2000
   47.4960   30.4620   44.5810 C   0  0  0  0  0  0  0  0  0  0  0  0
   45.1410   35.0640   44.2800 C   0  0  0  0  0  0  0  0  0  0  0  0
   44.6960   34.4330   43.1330 C   0  0  0  0  0  0  0  0  0  0  0  0
   44.8060   33.0500   43.0600 C   0  0  0  0  0  0  0  0  0  0  0  0
   45.3470   32.4570   44.1360 N   0  0  0  0  0  0  0  0  0  0  0  0
   45.7740   33.0130   45.2250 C   0  0  0  0  0  0  0  0  0  0  0  0
   45.6750   34.3380   45.3070 N   0  0  0  0  0  0  0  0  0  0  0  0
   46.2990   32.1790   46.2110 N   0  0  0  0  0  0  0  0  0  0  0  0
   47.0470   31.0700   45.9020 C   0  0  0  0  0  0  0  0  0  0  0  0
   47.3910   30.4960   47.0650 N   0  0  0  0  0  0  0  0  0  0  0  0
   46.8580   31.2500   48.0420 C   0  0  0  0  0  0  0  0  0  0  0  0
   46.1830   32.2910   47.5210 N   0  0  0  0  0  0  0  0  0  0  0  0
   46.9610   31.0250   49.4610 N   0  0  0  0  0  0  0  0  0  0  0  0
   44.1320   35.2870   42.0630 C   0  0  0  0  0  0  0  0  0  0  0  0
   44.6510   34.9000   40.8200 F   0  0  0  0  0  0  0  0  0  0  0  0
   44.4400   36.6450   42.2280 F   0  0  0  0  0  0  0  0  0  0  0  0
   42.7810   35.1500   41.9520 F   0  0  0  0  0  0  0  0  0  0  0  0
   48.1580   31.4970   43.7100 C   0  0  0  0  0  0  0  0  0  0  0  0
   48.5880   29.4160   44.8790 C   0  0  0  0  0  0  0  0  0  0  0  0
   46.3350   29.8200   43.8870 C   0  0  0  0  0  0  0  0  0  0  0  0
   45.5550   28.8250   44.6230 C   0  0  0  0  0  0  0  0  0  0  0  0
   44.6530   29.0780   45.6340 C   0  0  0  0  0  0  0  0  0  0  0  0
   43.9310   28.1230   46.3160 C   0  0  0  0  0  0  0  0  0  0  0  0
   44.1180   26.8020   45.9660 C   0  0  0  0  0  0  0  0  0  0  0  0
   45.0120   26.5070   44.9590 C   0  0  0  0  0  0  0  0  0  0  0  0
   45.1320   25.1670   44.6750 C   0  0  0  0  0  0  0  0  0  0  0  0
   45.9850   24.7350   43.6910 C   0  0  0  0  0  0  0  0  0  0  0  0
   46.7060   25.6720   43.0070 C   0  0  0  0  0  0  0  0  0  0  0  0
   46.5460   27.0040   43.3350 C   0  0  0  0  0  0  0  0  0  0  0  0
   45.7140   27.4940   44.3030 C   0  0  0  0  0  0  0  0  0  0  0  0
   45.0646   36.1579   44.3663 H   0  0  0  0  0  0  0  0  0  0  0  0
   44.4725   32.4798   42.1805 H   0  0  0  0  0  0  0  0  0  0  0  0
   46.5079   31.6745   50.1196 H   0  0  0  0  0  0  0  0  0  0  0  0
   47.4878   30.2147   49.8170 H   0  0  0  0  0  0  0  0  0  0  0  0
   48.6424   32.2543   44.3440 H   0  0  0  0  0  0  0  0  0  0  0  0
   48.9142   31.0124   43.0749 H   0  0  0  0  0  0  0  0  0  0  0  0
   47.4010   31.9803   43.0749 H   0  0  0  0  0  0  0  0  0  0  0  0
   48.7030   29.3059   45.9674 H   0  0  0  0  0  0  0  0  0  0  0  0
   48.2989   28.4492   44.4411 H   0  0  0  0  0  0  0  0  0  0  0  0
   49.5415   29.7464   44.4411 H   0  0  0  0  0  0  0  0  0  0  0  0
   45.6444   30.6245   43.5940 H   0  0  0  0  0  0  0  0  0  0  0  0
   46.7899   29.2538   43.0609 H   0  0  0  0  0  0  0  0  0  0  0  0
   44.4967   30.1286   45.9199 H   0  0  0  0  0  0  0  0  0  0  0  0
   43.2282   28.4050   47.1138 H   0  0  0  0  0  0  0  0  0  0  0  0
   43.5657   26.0011   46.4794 H   0  0  0  0  0  0  0  0  0  0  0  0
   44.5386   24.4346   45.2420 H   0  0  0  0  0  0  0  0  0  0  0  0
   46.0854   23.6643   43.4595 H   0  0  0  0  0  0  0  0  0  0  0  0
   47.4014   25.3712   42.2095 H   0  0  0  0  0  0  0  0  0  0  0  0
   47.1403   27.7351   42.7674 H   0  0  0  0  0  0  0  0  0  0  0  0
  1 19  1  0
  1  9  1  0
  2  7  2  0
  3  2  1  0
  4  3  2  0
  4  5  1  0
  5  6  2  0
  6  7  1  0
  6  8  1  0
  8 12  1  0
  9  8  1  0
  9 10  2  0
 10 11  1  0
 11 13  1  0
 12 11  2  0
 14 16  1  0
 14  3  1  0
 15 14  1  0
 17 14  1  0
 18  1  1  0
 20  1  1  0
 20 21  1  0
 21 22  2  0
 22 23  1  0
 24 23  2  0
 25 24  1  0
 26 25  2  0
 27 26  1  0
 28 29  1  0
 28 27  2  0
 29 30  2  0
 30 21  1  0
 30 25  1  0
  2 31  1  0
  4 32  1  0
 13 33  1  0
 13 34  1  0
 18 35  1  0
 18 36  1  0
 18 37  1  0
 19 38  1  0
 19 39  1  0
 19 40  1  0
 20 41  1  0
 20 42  1  0
 22 43  1  0
 23 44  1  0
 24 45  1  0
 26 46  1  0
 27 47  1  0
 28 48  1  0
 29 49  1  0
M  ISO  8  31  14  32  14  35   8  36   8  37   8  38   8  39   8  40   8
M  ISO  8  41   8  42   8  43  14  44  14  45  14  46  14  47  14  48  14
M  ISO  1  49  14
M  END
>  <minimizedAffinity>  (1) 
-5.19585657

>  <minimizedRMSD>  (1) 
3.57602954

$$$$
