
     RDKit          3D

 40 41  0  0  0  0  0  0  0  0999 V2000
   44.8820   35.1790   44.3270 C   0  0  0  0  0  0  0  0  0  0  0  0
   44.5750   34.6180   43.0820 C   0  0  0  0  0  0  0  0  0  0  0  0
   44.8670   33.2830   42.8750 C   0  0  0  0  0  0  0  0  0  0  0  0
   45.4310   32.6360   43.9150 N   0  0  0  0  0  0  0  0  0  0  0  0
   45.7300   33.1150   45.0770 C   0  0  0  0  0  0  0  0  0  0  0  0
   45.4550   34.4100   45.2970 N   0  0  0  0  0  0  0  0  0  0  0  0
   46.3140   32.2660   46.0000 N   0  0  0  0  0  0  0  0  0  0  0  0
   47.2060   31.3150   45.6250 C   0  0  0  0  0  0  0  0  0  0  0  0
   47.5980   30.6650   46.7370 N   0  0  0  0  0  0  0  0  0  0  0  0
   46.9320   31.2390   47.7660 C   0  0  0  0  0  0  0  0  0  0  0  0
   46.1400   32.2260   47.3070 N   0  0  0  0  0  0  0  0  0  0  0  0
   47.0190   30.9030   49.1610 N   0  0  0  0  0  0  0  0  0  0  0  0
   43.9590   35.5250   42.0880 C   0  0  0  0  0  0  0  0  0  0  0  0
   44.3260   35.1250   40.7950 F   0  0  0  0  0  0  0  0  0  0  0  0
   44.3750   36.8590   42.2170 F   0  0  0  0  0  0  0  0  0  0  0  0
   42.6000   35.4820   42.1310 F   0  0  0  0  0  0  0  0  0  0  0  0
   47.7910   30.8770   44.3100 C   0  0  0  0  0  0  0  0  0  0  0  0
   48.9430   29.8820   44.5240 C   0  0  0  0  0  0  0  0  0  0  0  0
   46.7580   30.0680   43.5030 C   0  0  0  0  0  0  0  0  0  0  0  0
   48.3370   31.9990   43.5050 C   0  0  0  0  0  0  0  0  0  0  0  0
   49.2750   31.5750   42.4740 N   0  0  0  0  0  0  0  0  0  0  0  0
   49.9010   32.5650   41.6610 C   0  0  0  0  0  0  0  0  0  0  0  0
   50.0350   33.7840   42.0630 N   0  0  0  0  0  0  0  0  0  0  0  0
   50.3760   32.1680   40.3880 N   0  0  0  0  0  0  0  0  0  0  0  0
   49.6980   34.0990   42.9830 H   0  0  0  0  0  0  0  0  0  0  0  0
   44.6615   36.2387   44.5230 H   0  0  0  0  0  0  0  0  0  0  0  0
   44.6526   32.7794   41.9208 H   0  0  0  0  0  0  0  0  0  0  0  0
   46.4554   31.4195   49.8513 H   0  0  0  0  0  0  0  0  0  0  0  0
   47.6449   30.1457   49.4703 H   0  0  0  0  0  0  0  0  0  0  0  0
   49.1085   29.7390   45.6020 H   0  0  0  0  0  0  0  0  0  0  0  0
   48.6853   28.9178   44.0615 H   0  0  0  0  0  0  0  0  0  0  0  0
   49.8595   30.2772   44.0615 H   0  0  0  0  0  0  0  0  0  0  0  0
   46.0844   29.5404   44.1943 H   0  0  0  0  0  0  0  0  0  0  0  0
   46.1722   30.7500   42.8692 H   0  0  0  0  0  0  0  0  0  0  0  0
   47.2798   29.3358   42.8692 H   0  0  0  0  0  0  0  0  0  0  0  0
   47.4981   32.5190   43.0193 H   0  0  0  0  0  0  0  0  0  0  0  0
   48.8905   32.6520   44.1958 H   0  0  0  0  0  0  0  0  0  0  0  0
   49.4827   30.5758   42.3346 H   0  0  0  0  0  0  0  0  0  0  0  0
   50.2636   31.1923   40.0777 H   0  0  0  0  0  0  0  0  0  0  0  0
   50.8341   32.8548   39.7721 H   0  0  0  0  0  0  0  0  0  0  0  0
  1  6  2  0
  2  1  1  0
  3  2  2  0
  3  4  1  0
  4  5  2  0
  5  6  1  0
  5  7  1  0
  7 11  1  0
  8  7  1  0
  8  9  2  0
  9 10  1  0
 10 12  1  0
 11 10  2  0
 13 16  1  0
 13 15  1  0
 13  2  1  0
 14 13  1  0
 17 18  1  0
 17  8  1  0
 19 17  1  0
 20 17  1  0
 21 20  1  0
 22 23  2  0
 22 21  1  0
 23 25  1  0
 24 22  1  0
  1 26  1  0
  3 27  1  0
 12 28  1  0
 12 29  1  0
 18 30  1  0
 18 31  1  0
 18 32  1  0
 19 33  1  0
 19 34  1  0
 19 35  1  0
 20 36  1  0
 20 37  1  0
 21 38  1  0
 24 39  1  0
 24 40  1  0
M  ISO  8  26  14  27  14  30   8  31   8  32   8  33   8  34   8  35   8
M  ISO  2  36   8  37   8
M  END
>  <minimizedAffinity>  (1) 
-5.34278488

>  <minimizedRMSD>  (1) 
2.97437477

$$$$
