
     RDKit          3D

 44 47  0  0  0  0  0  0  0  0999 V2000
   47.6580   30.6360   44.4440 C   0  0  0  0  0  0  0  0  0  0  0  0
   45.0210   35.0990   44.4360 C   0  0  0  0  0  0  0  0  0  0  0  0
   44.6750   34.5520   43.2080 C   0  0  0  0  0  0  0  0  0  0  0  0
   44.8840   33.1990   43.0160 C   0  0  0  0  0  0  0  0  0  0  0  0
   45.4180   32.5340   44.0660 N   0  0  0  0  0  0  0  0  0  0  0  0
   45.7510   33.0060   45.2160 C   0  0  0  0  0  0  0  0  0  0  0  0
   45.5530   34.3100   45.4120 N   0  0  0  0  0  0  0  0  0  0  0  0
   46.2830   32.1300   46.1480 N   0  0  0  0  0  0  0  0  0  0  0  0
   47.1080   31.1150   45.7790 C   0  0  0  0  0  0  0  0  0  0  0  0
   47.4570   30.4460   46.8970 N   0  0  0  0  0  0  0  0  0  0  0  0
   46.8330   31.0710   47.9240 C   0  0  0  0  0  0  0  0  0  0  0  0
   46.1080   32.1100   47.4620 N   0  0  0  0  0  0  0  0  0  0  0  0
   46.8930   30.7300   49.3160 N   0  0  0  0  0  0  0  0  0  0  0  0
   44.1080   35.4760   42.2010 C   0  0  0  0  0  0  0  0  0  0  0  0
   44.5210   35.0870   40.9210 F   0  0  0  0  0  0  0  0  0  0  0  0
   44.5410   36.8020   42.3620 F   0  0  0  0  0  0  0  0  0  0  0  0
   42.7480   35.4540   42.1930 F   0  0  0  0  0  0  0  0  0  0  0  0
   48.2700   31.7970   43.6700 C   0  0  0  0  0  0  0  0  0  0  0  0
   48.8420   29.6890   44.6920 C   0  0  0  0  0  0  0  0  0  0  0  0
   46.6180   29.9780   43.6130 C   0  0  0  0  0  0  0  0  0  0  0  0
   47.2490   29.4980   42.3500 N   0  0  0  0  0  0  0  0  0  0  0  0
   48.0600   28.4510   42.1220 C   0  0  0  0  0  0  0  0  0  0  0  0
   48.4380   28.3790   40.8360 N   0  0  0  0  0  0  0  0  0  0  0  0
   47.8760   29.3990   40.1640 C   0  0  0  0  0  0  0  0  0  0  0  0
   47.8920   29.8460   38.8590 C   0  0  0  0  0  0  0  0  0  0  0  0
   47.2160   30.9290   38.4800 N   0  0  0  0  0  0  0  0  0  0  0  0
   46.4980   31.5890   39.4360 C   0  0  0  0  0  0  0  0  0  0  0  0
   46.4770   31.1630   40.7080 N   0  0  0  0  0  0  0  0  0  0  0  0
   47.1500   30.0730   41.1170 C   0  0  0  0  0  0  0  0  0  0  0  0
   44.8655   36.1719   44.6220 H   0  0  0  0  0  0  0  0  0  0  0  0
   44.6324   32.6958   42.0707 H   0  0  0  0  0  0  0  0  0  0  0  0
   46.3691   31.2873   50.0058 H   0  0  0  0  0  0  0  0  0  0  0  0
   47.4600   29.9279   49.6257 H   0  0  0  0  0  0  0  0  0  0  0  0
   48.6629   32.5424   44.3771 H   0  0  0  0  0  0  0  0  0  0  0  0
   49.0890   31.4246   43.0371 H   0  0  0  0  0  0  0  0  0  0  0  0
   47.4999   32.2622   43.0371 H   0  0  0  0  0  0  0  0  0  0  0  0
   48.9938   29.5676   45.7747 H   0  0  0  0  0  0  0  0  0  0  0  0
   48.6290   28.7093   44.2394 H   0  0  0  0  0  0  0  0  0  0  0  0
   49.7510   30.1121   44.2394 H   0  0  0  0  0  0  0  0  0  0  0  0
   46.1911   29.1251   44.1610 H   0  0  0  0  0  0  0  0  0  0  0  0
   45.8143   30.6929   43.3826 H   0  0  0  0  0  0  0  0  0  0  0  0
   48.3765   27.7376   42.8972 H   0  0  0  0  0  0  0  0  0  0  0  0
   48.4791   29.2928   38.1111 H   0  0  0  0  0  0  0  0  0  0  0  0
   45.9262   32.4866   39.1579 H   0  0  0  0  0  0  0  0  0  0  0  0
  1 19  1  0
  1  9  1  0
  2  7  2  0
  3  2  1  0
  4  3  2  0
  4  5  1  0
  5  6  2  0
  6  7  1  0
  6  8  1  0
  8 12  1  0
  9  8  1  0
  9 10  2  0
 10 11  1  0
 11 13  1  0
 12 11  2  0
 14 16  1  0
 14  3  1  0
 15 14  1  0
 17 14  1  0
 18  1  1  0
 20  1  1  0
 21 20  1  0
 22 21  1  0
 23 22  2  0
 24 23  1  0
 24 29  2  0
 25 24  1  0
 26 25  2  0
 26 27  1  0
 27 28  2  0
 28 29  1  0
 29 21  1  0
  2 30  1  0
  4 31  1  0
 13 32  1  0
 13 33  1  0
 18 34  1  0
 18 35  1  0
 18 36  1  0
 19 37  1  0
 19 38  1  0
 19 39  1  0
 20 40  1  0
 20 41  1  0
 22 42  1  0
 25 43  1  0
 27 44  1  0
M  ISO  8  30  14  31  14  34   8  35   8  36   8  37   8  38   8  39   8
M  ISO  5  40   8  41   8  42  14  43  14  44  14
M  END
>  <minimizedAffinity>  (1) 
-4.87560511

>  <minimizedRMSD>  (1) 
0.405467331

$$$$
