
     RDKit          3D

 34 35  0  0  0  0  0  0  0  0999 V2000
   45.0730   35.0850   44.4350 C   0  0  0  0  0  0  0  0  0  0  0  0
   44.7020   34.5080   43.2200 C   0  0  0  0  0  0  0  0  0  0  0  0
   44.8890   33.1470   43.0610 C   0  0  0  0  0  0  0  0  0  0  0  0
   45.4230   32.5010   44.1210 N   0  0  0  0  0  0  0  0  0  0  0  0
   45.7780   32.9990   45.2560 C   0  0  0  0  0  0  0  0  0  0  0  0
   45.6030   34.3100   45.4230 N   0  0  0  0  0  0  0  0  0  0  0  0
   46.3060   32.1390   46.2060 N   0  0  0  0  0  0  0  0  0  0  0  0
   47.1070   31.1030   45.8620 C   0  0  0  0  0  0  0  0  0  0  0  0
   47.4570   30.4640   46.9940 N   0  0  0  0  0  0  0  0  0  0  0  0
   46.8570   31.1310   48.0040 C   0  0  0  0  0  0  0  0  0  0  0  0
   46.1480   32.1630   47.5210 N   0  0  0  0  0  0  0  0  0  0  0  0
   46.9350   30.8310   49.4100 N   0  0  0  0  0  0  0  0  0  0  0  0
   44.1390   35.4170   42.2010 C   0  0  0  0  0  0  0  0  0  0  0  0
   44.5680   35.0200   40.9300 F   0  0  0  0  0  0  0  0  0  0  0  0
   44.5440   36.7520   42.3620 F   0  0  0  0  0  0  0  0  0  0  0  0
   42.7790   35.3680   42.1640 F   0  0  0  0  0  0  0  0  0  0  0  0
   47.6320   30.5750   44.5370 C   0  0  0  0  0  0  0  0  0  0  0  0
   48.2090   31.7130   43.6880 C   0  0  0  0  0  0  0  0  0  0  0  0
   48.8240   29.6360   44.7910 C   0  0  0  0  0  0  0  0  0  0  0  0
   46.5830   29.8790   43.7460 C   0  0  0  0  0  0  0  0  0  0  0  0
   46.7920   30.3010   42.3800 O   0  0  0  0  0  0  0  0  0  0  0  0
   44.9378   36.1648   44.5954 H   0  0  0  0  0  0  0  0  0  0  0  0
   44.6203   32.6239   42.1314 H   0  0  0  0  0  0  0  0  0  0  0  0
   46.4297   31.4164   50.0903 H   0  0  0  0  0  0  0  0  0  0  0  0
   47.4961   30.0310   49.7355 H   0  0  0  0  0  0  0  0  0  0  0  0
   48.6069   32.4977   44.3483 H   0  0  0  0  0  0  0  0  0  0  0  0
   49.0182   31.3229   43.0532 H   0  0  0  0  0  0  0  0  0  0  0  0
   47.4161   32.1352   43.0532 H   0  0  0  0  0  0  0  0  0  0  0  0
   48.9736   29.5182   45.8744 H   0  0  0  0  0  0  0  0  0  0  0  0
   48.6195   28.6537   44.3401 H   0  0  0  0  0  0  0  0  0  0  0  0
   49.7311   30.0648   44.3401 H   0  0  0  0  0  0  0  0  0  0  0  0
   46.6947   28.7882   43.8336 H   0  0  0  0  0  0  0  0  0  0  0  0
   45.5713   30.1250   44.1008 H   0  0  0  0  0  0  0  0  0  0  0  0
   47.2314   31.1881   42.3722 H   0  0  0  0  0  0  0  0  0  0  0  0
  1  6  2  0
  2  1  1  0
  3  2  2  0
  3  4  1  0
  4  5  2  0
  5  6  1  0
  5  7  1  0
  7 11  1  0
  8  7  1  0
  8  9  2  0
  9 10  1  0
 10 12  1  0
 11 10  2  0
 13 15  1  0
 13  2  1  0
 14 13  1  0
 16 13  1  0
 17 19  1  0
 17  8  1  0
 18 17  1  0
 20 17  1  0
 21 20  1  0
  1 22  1  0
  3 23  1  0
 12 24  1  0
 12 25  1  0
 18 26  1  0
 18 27  1  0
 18 28  1  0
 19 29  1  0
 19 30  1  0
 19 31  1  0
 20 32  1  0
 20 33  1  0
 21 34  1  0
M  ISO  8  22  14  23  14  26   8  27   8  28   8  29   8  30   8  31   8
M  ISO  3  32   8  33   8  34   3
M  END
>  <minimizedAffinity>  (1) 
-4.8278656

>  <minimizedRMSD>  (1) 
0.222357571

$$$$
