
     RDKit          3D

 40 42  0  0  0  0  0  0  0  0999 V2000
   45.0560   35.0910   44.4460 C   0  0  0  0  0  0  0  0  0  0  0  0
   44.6990   34.5170   43.2280 C   0  0  0  0  0  0  0  0  0  0  0  0
   44.8890   33.1560   43.0700 C   0  0  0  0  0  0  0  0  0  0  0  0
   45.4120   32.5080   44.1340 N   0  0  0  0  0  0  0  0  0  0  0  0
   45.7540   33.0040   45.2740 C   0  0  0  0  0  0  0  0  0  0  0  0
   45.5740   34.3160   45.4380 N   0  0  0  0  0  0  0  0  0  0  0  0
   46.2750   32.1430   46.2250 N   0  0  0  0  0  0  0  0  0  0  0  0
   47.0810   31.1100   45.8860 C   0  0  0  0  0  0  0  0  0  0  0  0
   47.4270   30.4690   47.0180 N   0  0  0  0  0  0  0  0  0  0  0  0
   46.8180   31.1300   48.0250 C   0  0  0  0  0  0  0  0  0  0  0  0
   46.1080   32.1630   47.5370 N   0  0  0  0  0  0  0  0  0  0  0  0
   46.8810   30.8360   49.4340 N   0  0  0  0  0  0  0  0  0  0  0  0
   44.1470   35.4300   42.2060 C   0  0  0  0  0  0  0  0  0  0  0  0
   44.5980   35.0370   40.9380 F   0  0  0  0  0  0  0  0  0  0  0  0
   44.5530   36.7630   42.3690 F   0  0  0  0  0  0  0  0  0  0  0  0
   42.7890   35.3810   42.1520 F   0  0  0  0  0  0  0  0  0  0  0  0
   47.6180   30.5870   44.5790 C   0  0  0  0  0  0  0  0  0  0  0  0
   48.2080   31.7190   43.7280 C   0  0  0  0  0  0  0  0  0  0  0  0
   48.8020   29.6310   44.8200 C   0  0  0  0  0  0  0  0  0  0  0  0
   46.5880   29.9050   43.7490 C   0  0  0  0  0  0  0  0  0  0  0  0
   47.2190   29.7880   42.3410 C   0  0  0  0  0  0  0  0  0  0  0  0
   47.9530   28.7050   41.9020 C   0  0  0  0  0  0  0  0  0  0  0  0
   48.2990   29.0640   40.5940 C   0  0  0  0  0  0  0  0  0  0  0  0
   47.7590   30.3270   40.3260 C   0  0  0  0  0  0  0  0  0  0  0  0
   47.1320   30.6990   41.4000 O   0  0  0  0  0  0  0  0  0  0  0  0
   44.9193   36.1707   44.6062 H   0  0  0  0  0  0  0  0  0  0  0  0
   44.6306   32.6341   42.1368 H   0  0  0  0  0  0  0  0  0  0  0  0
   46.3656   31.4223   50.1060 H   0  0  0  0  0  0  0  0  0  0  0  0
   47.4414   30.0395   49.7693 H   0  0  0  0  0  0  0  0  0  0  0  0
   48.6149   32.4997   44.3875 H   0  0  0  0  0  0  0  0  0  0  0  0
   49.0125   31.3194   43.0932 H   0  0  0  0  0  0  0  0  0  0  0  0
   47.4196   32.1496   43.0932 H   0  0  0  0  0  0  0  0  0  0  0  0
   48.9576   29.5054   45.9017 H   0  0  0  0  0  0  0  0  0  0  0  0
   48.5827   28.6537   44.3652 H   0  0  0  0  0  0  0  0  0  0  0  0
   49.7111   30.0513   44.3652 H   0  0  0  0  0  0  0  0  0  0  0  0
   46.3625   28.9080   44.1554 H   0  0  0  0  0  0  0  0  0  0  0  0
   45.6388   30.4605   43.7308 H   0  0  0  0  0  0  0  0  0  0  0  0
   48.2050   27.7835   42.4474 H   0  0  0  0  0  0  0  0  0  0  0  0
   48.8939   28.4569   39.8958 H   0  0  0  0  0  0  0  0  0  0  0  0
   47.8485   30.8942   39.3877 H   0  0  0  0  0  0  0  0  0  0  0  0
  1  6  2  0
  2  1  1  0
  3  2  2  0
  3  4  1  0
  4  5  2  0
  5  6  1  0
  5  7  1  0
  7 11  1  0
  8  7  1  0
  8  9  2  0
  9 10  1  0
 10 12  1  0
 11 10  2  0
 13 15  1  0
 13  2  1  0
 14 13  1  0
 16 13  1  0
 17 19  1  0
 17  8  1  0
 18 17  1  0
 20 17  1  0
 21 20  1  0
 22 21  2  0
 23 22  1  0
 24 23  2  0
 24 25  1  0
 25 21  1  0
  1 26  1  0
  3 27  1  0
 12 28  1  0
 12 29  1  0
 18 30  1  0
 18 31  1  0
 18 32  1  0
 19 33  1  0
 19 34  1  0
 19 35  1  0
 20 36  1  0
 20 37  1  0
 22 38  1  0
 23 39  1  0
 24 40  1  0
M  ISO  8  26  14  27  14  30   8  31   8  32   8  33   8  34   8  35   8
M  ISO  5  36   8  37   8  38  14  39  14  40  14
M  END
>  <minimizedAffinity>  (1) 
-4.74792719

>  <minimizedRMSD>  (1) 
0.404215991

$$$$
