
     RDKit          3D

 43 45  0  0  0  0  0  0  0  0999 V2000
   47.5970   30.6000   44.5780 C   0  0  0  0  0  0  0  0  0  0  0  0
   45.0340   35.1040   44.4660 C   0  0  0  0  0  0  0  0  0  0  0  0
   44.6930   34.5420   43.2380 C   0  0  0  0  0  0  0  0  0  0  0  0
   44.8940   33.1850   43.0730 C   0  0  0  0  0  0  0  0  0  0  0  0
   45.4080   32.5320   44.1390 N   0  0  0  0  0  0  0  0  0  0  0  0
   45.7330   33.0200   45.2870 C   0  0  0  0  0  0  0  0  0  0  0  0
   45.5450   34.3270   45.4600 N   0  0  0  0  0  0  0  0  0  0  0  0
   46.2460   32.1520   46.2430 N   0  0  0  0  0  0  0  0  0  0  0  0
   47.0570   31.1030   45.9060 C   0  0  0  0  0  0  0  0  0  0  0  0
   47.3800   30.4670   47.0390 N   0  0  0  0  0  0  0  0  0  0  0  0
   46.7650   31.1330   48.0420 C   0  0  0  0  0  0  0  0  0  0  0  0
   46.0640   32.1740   47.5520 N   0  0  0  0  0  0  0  0  0  0  0  0
   46.8200   30.8330   49.4440 N   0  0  0  0  0  0  0  0  0  0  0  0
   44.1480   35.4520   42.2100 C   0  0  0  0  0  0  0  0  0  0  0  0
   44.5990   35.0550   40.9430 F   0  0  0  0  0  0  0  0  0  0  0  0
   44.5590   36.7840   42.3800 F   0  0  0  0  0  0  0  0  0  0  0  0
   42.7870   35.4110   42.1580 F   0  0  0  0  0  0  0  0  0  0  0  0
   48.2030   31.7360   43.7680 C   0  0  0  0  0  0  0  0  0  0  0  0
   48.7710   29.6440   44.8460 C   0  0  0  0  0  0  0  0  0  0  0  0
   46.5500   29.9130   43.7700 C   0  0  0  0  0  0  0  0  0  0  0  0
   47.0520   29.6760   42.3520 C   0  0  0  0  0  0  0  0  0  0  0  0
   46.8770   30.5820   41.3260 C   0  0  0  0  0  0  0  0  0  0  0  0
   47.3330   30.4400   40.0370 C   0  0  0  0  0  0  0  0  0  0  0  0
   48.0270   29.2850   39.7510 C   0  0  0  0  0  0  0  0  0  0  0  0
   48.2410   28.3370   40.7300 C   0  0  0  0  0  0  0  0  0  0  0  0
   47.7550   28.5460   42.0030 C   0  0  0  0  0  0  0  0  0  0  0  0
   44.8896   36.1815   44.6334 H   0  0  0  0  0  0  0  0  0  0  0  0
   44.6509   32.6683   42.1328 H   0  0  0  0  0  0  0  0  0  0  0  0
   46.3044   31.4185   50.1165 H   0  0  0  0  0  0  0  0  0  0  0  0
   47.3751   30.0322   49.7779 H   0  0  0  0  0  0  0  0  0  0  0  0
   48.6090   32.4971   44.4506 H   0  0  0  0  0  0  0  0  0  0  0  0
   49.0116   31.3435   43.1338 H   0  0  0  0  0  0  0  0  0  0  0  0
   47.4267   32.1889   43.1338 H   0  0  0  0  0  0  0  0  0  0  0  0
   48.9108   29.5302   45.9311 H   0  0  0  0  0  0  0  0  0  0  0  0
   48.5539   28.6625   44.3993 H   0  0  0  0  0  0  0  0  0  0  0  0
   49.6882   30.0554   44.3993 H   0  0  0  0  0  0  0  0  0  0  0  0
   46.3073   28.9466   44.2359 H   0  0  0  0  0  0  0  0  0  0  0  0
   45.6521   30.5473   43.7318 H   0  0  0  0  0  0  0  0  0  0  0  0
   46.3218   31.5020   41.5611 H   0  0  0  0  0  0  0  0  0  0  0  0
   47.1528   31.2100   39.2724 H   0  0  0  0  0  0  0  0  0  0  0  0
   48.4133   29.1174   38.7348 H   0  0  0  0  0  0  0  0  0  0  0  0
   48.7975   27.4175   40.4957 H   0  0  0  0  0  0  0  0  0  0  0  0
   47.9365   27.7789   42.7702 H   0  0  0  0  0  0  0  0  0  0  0  0
  1 19  1  0
  1  9  1  0
  2  7  2  0
  3  2  1  0
  4  3  2  0
  4  5  1  0
  5  6  2  0
  6  7  1  0
  6  8  1  0
  8 12  1  0
  9  8  1  0
  9 10  2  0
 10 11  1  0
 11 13  1  0
 12 11  2  0
 14 16  1  0
 14  3  1  0
 15 14  1  0
 17 14  1  0
 18  1  1  0
 20  1  1  0
 21 20  1  0
 22 21  2  0
 23 22  1  0
 24 23  2  0
 24 25  1  0
 25 26  2  0
 26 21  1  0
  2 27  1  0
  4 28  1  0
 13 29  1  0
 13 30  1  0
 18 31  1  0
 18 32  1  0
 18 33  1  0
 19 34  1  0
 19 35  1  0
 19 36  1  0
 20 37  1  0
 20 38  1  0
 22 39  1  0
 23 40  1  0
 24 41  1  0
 25 42  1  0
 26 43  1  0
M  ISO  8  27  14  28  14  31   8  32   8  33   8  34   8  35   8  36   8
M  ISO  7  37   8  38   8  39  14  40  14  41  14  42  14  43  14
M  END
>  <minimizedAffinity>  (1) 
-4.74521255

>  <minimizedRMSD>  (1) 
0.318168551

$$$$
