
     RDKit          3D

 47 51  0  0  0  0  0  0  0  0999 V2000
   44.6940   35.5600   45.3860 C   0  0  0  0  0  0  0  0  0  0  0  0
   44.0340   35.6580   44.1390 C   0  0  0  0  0  0  0  0  0  0  0  0
   44.2300   34.6480   43.2340 C   0  0  0  0  0  0  0  0  0  0  0  0
   45.0260   33.6010   43.5310 N   0  0  0  0  0  0  0  0  0  0  0  0
   45.6590   33.5210   44.7480 C   0  0  0  0  0  0  0  0  0  0  0  0
   45.4840   34.4990   45.6530 N   0  0  0  0  0  0  0  0  0  0  0  0
   43.5550   34.7660   41.9850 N   0  0  0  0  0  0  0  0  0  0  0  0
   42.2400   34.9970   41.7920 C   0  0  0  0  0  0  0  0  0  0  0  0
   41.7450   35.0820   40.5090 C   0  0  0  0  0  0  0  0  0  0  0  0
   42.5530   34.9370   39.4070 C   0  0  0  0  0  0  0  0  0  0  0  0
   42.1000   35.0150   38.2390 O   0  0  0  0  0  0  0  0  0  0  0  0
   43.8470   34.7100   39.6410 N   0  0  0  0  0  0  0  0  0  0  0  0
   44.3320   34.6270   40.9110 C   0  0  0  0  0  0  0  0  0  0  0  0
   45.5840   34.4070   40.9640 O   0  0  0  0  0  0  0  0  0  0  0  0
   40.3130   35.3340   40.3030 C   0  0  0  0  0  0  0  0  0  0  0  0
   46.5130   32.3830   45.0510 C   0  0  0  0  0  0  0  0  0  0  0  0
   47.3110   31.6710   44.1800 C   0  0  0  0  0  0  0  0  0  0  0  0
   47.9470   30.6830   44.8380 N   0  0  0  0  0  0  0  0  0  0  0  0
   47.5340   30.7830   46.1480 C   0  0  0  0  0  0  0  0  0  0  0  0
   46.6760   31.8030   46.2690 N   0  0  0  0  0  0  0  0  0  0  0  0
   48.0600   29.8250   47.0990 C   0  0  0  0  0  0  0  0  0  0  0  0
   48.0040   28.4600   47.2100 C   0  0  0  0  0  0  0  0  0  0  0  0
   48.6500   27.9370   48.2580 N   0  0  0  0  0  0  0  0  0  0  0  0
   49.1810   28.9790   48.9140 C   0  0  0  0  0  0  0  0  0  0  0  0
   49.9450   29.0090   50.0620 C   0  0  0  0  0  0  0  0  0  0  0  0
   50.3740   30.2270   50.5340 C   0  0  0  0  0  0  0  0  0  0  0  0
   50.0750   31.4160   49.9140 C   0  0  0  0  0  0  0  0  0  0  0  0
   49.3130   31.2990   48.7800 C   0  0  0  0  0  0  0  0  0  0  0  0
   48.8290   30.1110   48.2210 C   0  0  0  0  0  0  0  0  0  0  0  0
   46.0280   32.2400   47.4800 C   0  0  0  0  0  0  0  0  0  0  0  0
   45.8050   31.2050   48.3940 F   0  0  0  0  0  0  0  0  0  0  0  0
   44.7890   32.8480   47.2280 F   0  0  0  0  0  0  0  0  0  0  0  0
   46.8180   33.1790   48.1550 F   0  0  0  0  0  0  0  0  0  0  0  0
   44.5631   36.3503   46.1398 H   0  0  0  0  0  0  0  0  0  0  0  0
   43.3859   36.5151   43.9038 H   0  0  0  0  0  0  0  0  0  0  0  0
   41.5670   35.1168   42.6538 H   0  0  0  0  0  0  0  0  0  0  0  0
   44.4915   34.5953   38.8458 H   0  0  0  0  0  0  0  0  0  0  0  0
   39.8122   35.4221   41.2784 H   0  0  0  0  0  0  0  0  0  0  0  0
   40.1828   36.2689   39.7381 H   0  0  0  0  0  0  0  0  0  0  0  0
   39.8714   34.4998   39.7381 H   0  0  0  0  0  0  0  0  0  0  0  0
   47.4130   31.8797   43.1048 H   0  0  0  0  0  0  0  0  0  0  0  0
   47.4629   27.8351   46.4843 H   0  0  0  0  0  0  0  0  0  0  0  0
   48.7242   26.9408   48.5090 H   0  0  0  0  0  0  0  0  0  0  0  0
   50.2054   28.0789   50.5884 H   0  0  0  0  0  0  0  0  0  0  0  0
   50.9840   30.2505   51.4491 H   0  0  0  0  0  0  0  0  0  0  0  0
   50.4204   32.3873   50.2978 H   0  0  0  0  0  0  0  0  0  0  0  0
   49.0565   32.2324   48.2575 H   0  0  0  0  0  0  0  0  0  0  0  0
  1  6  2  0
  2  1  1  0
  3  4  1  0
  3  2  2  0
  4  5  2  0
  5 16  1  0
  5  6  1  0
  7  3  1  0
  8  7  1  0
  9  8  2  0
 10 12  1  0
 10  9  1  0
 11 10  2  0
 12 13  1  0
 13 14  2  0
 13  7  1  0
 15  9  1  0
 16 20  1  0
 17 18  1  0
 17 16  2  0
 18 19  2  0
 19 20  1  0
 19 21  1  0
 20 30  1  0
 21 22  2  0
 21 29  1  0
 22 23  1  0
 23 24  1  0
 24 25  2  0
 25 26  1  0
 27 26  2  0
 28 27  1  0
 29 28  2  0
 29 24  1  0
 30 33  1  0
 30 31  1  0
 32 30  1  0
  1 34  1  0
  2 35  1  0
  8 36  1  0
 12 37  1  0
 15 38  1  0
 15 39  1  0
 15 40  1  0
 17 41  1  0
 22 42  1  0
 23 43  1  0
 25 44  1  0
 26 45  1  0
 27 46  1  0
 28 47  1  0
M  ISO  8  34  14  35  14  36  14  37   9  38   8  39   8  40   8  41  14
M  ISO  6  42  14  43   9  44  14  45  14  46  14  47  14
M  END
>  <minimizedAffinity>  (1) 
-6.91333342

>  <minimizedRMSD>  (1) 
0.701353371

$$$$
