
     RDKit          3D

 40 42  0  0  0  0  0  0  0  0999 V2000
   45.1010   35.1430   44.4280 C   0  0  0  0  0  0  0  0  0  0  0  0
   44.6960   34.5440   43.2310 C   0  0  0  0  0  0  0  0  0  0  0  0
   44.8360   33.1680   43.1020 C   0  0  0  0  0  0  0  0  0  0  0  0
   45.3640   32.5380   44.1700 N   0  0  0  0  0  0  0  0  0  0  0  0
   45.7490   33.0520   45.2880 C   0  0  0  0  0  0  0  0  0  0  0  0
   45.6190   34.3770   45.4270 N   0  0  0  0  0  0  0  0  0  0  0  0
   46.2660   32.2010   46.2490 N   0  0  0  0  0  0  0  0  0  0  0  0
   47.0350   31.1370   45.9210 C   0  0  0  0  0  0  0  0  0  0  0  0
   47.3810   30.5130   47.0610 N   0  0  0  0  0  0  0  0  0  0  0  0
   46.8090   31.2200   48.0630 C   0  0  0  0  0  0  0  0  0  0  0  0
   46.1220   32.2600   47.5620 N   0  0  0  0  0  0  0  0  0  0  0  0
   46.8980   30.9430   49.4740 N   0  0  0  0  0  0  0  0  0  0  0  0
   44.1440   35.4360   42.1910 C   0  0  0  0  0  0  0  0  0  0  0  0
   44.6150   35.0350   40.9240 F   0  0  0  0  0  0  0  0  0  0  0  0
   44.5490   36.7710   42.3440 F   0  0  0  0  0  0  0  0  0  0  0  0
   42.7900   35.3950   42.1300 F   0  0  0  0  0  0  0  0  0  0  0  0
   47.5320   30.5630   44.6040 C   0  0  0  0  0  0  0  0  0  0  0  0
   48.1150   31.6510   43.7150 C   0  0  0  0  0  0  0  0  0  0  0  0
   48.7260   29.6250   44.8820 C   0  0  0  0  0  0  0  0  0  0  0  0
   46.4680   29.8690   43.8420 C   0  0  0  0  0  0  0  0  0  0  0  0
   45.6550   28.9300   44.6780 C   0  0  0  0  0  0  0  0  0  0  0  0
   45.6490   27.6150   45.1120 C   0  0  0  0  0  0  0  0  0  0  0  0
   44.5580   27.4350   45.8800 N   0  0  0  0  0  0  0  0  0  0  0  0
   43.8850   28.5990   45.9360 C   0  0  0  0  0  0  0  0  0  0  0  0
   44.5490   29.5350   45.1980 N   0  0  0  0  0  0  0  0  0  0  0  0
   45.0013   36.2302   44.5619 H   0  0  0  0  0  0  0  0  0  0  0  0
   44.5365   32.6296   42.1907 H   0  0  0  0  0  0  0  0  0  0  0  0
   46.4179   31.5540   50.1501 H   0  0  0  0  0  0  0  0  0  0  0  0
   47.4417   30.1340   49.8067 H   0  0  0  0  0  0  0  0  0  0  0  0
   48.5418   32.4475   44.3423 H   0  0  0  0  0  0  0  0  0  0  0  0
   48.9040   31.2219   43.0799 H   0  0  0  0  0  0  0  0  0  0  0  0
   47.3207   32.0703   43.0799 H   0  0  0  0  0  0  0  0  0  0  0  0
   48.8627   29.5176   45.9682 H   0  0  0  0  0  0  0  0  0  0  0  0
   48.5282   28.6382   44.4380 H   0  0  0  0  0  0  0  0  0  0  0  0
   49.6379   30.0508   44.4380 H   0  0  0  0  0  0  0  0  0  0  0  0
   45.7951   30.6264   43.4136 H   0  0  0  0  0  0  0  0  0  0  0  0
   46.9637   29.2673   43.0660 H   0  0  0  0  0  0  0  0  0  0  0  0
   46.4034   26.8514   44.8714 H   0  0  0  0  0  0  0  0  0  0  0  0
   42.9491   28.7687   46.4885 H   0  0  0  0  0  0  0  0  0  0  0  0
   44.2673   30.5160   45.0594 H   0  0  0  0  0  0  0  0  0  0  0  0
  1  6  2  0
  2  1  1  0
  3  2  2  0
  3  4  1  0
  4  5  2  0
  5  6  1  0
  5  7  1  0
  7 11  1  0
  8  7  1  0
  8  9  2  0
  9 10  1  0
 10 12  1  0
 11 10  2  0
 13 15  1  0
 13  2  1  0
 14 13  1  0
 16 13  1  0
 17 19  1  0
 17  8  1  0
 18 17  1  0
 20 17  1  0
 20 21  1  0
 21 22  2  0
 21 25  1  0
 22 23  1  0
 23 24  2  0
 25 24  1  0
  1 26  1  0
  3 27  1  0
 12 28  1  0
 12 29  1  0
 18 30  1  0
 18 31  1  0
 18 32  1  0
 19 33  1  0
 19 34  1  0
 19 35  1  0
 20 36  1  0
 20 37  1  0
 22 38  1  0
 24 39  1  0
 25 40  1  0
M  ISO  8  26  14  27  14  30   8  31   8  32   8  33   8  34   8  35   8
M  ISO  5  36   8  37   8  38  14  39  14  40   9
M  END
>  <minimizedAffinity>  (1) 
-5.21430302

>  <minimizedRMSD>  (1) 
0.350702971

$$$$
