
     RDKit          3D

 46 48  0  0  0  0  0  0  0  0999 V2000
   47.5920   30.5600   44.5620 C   0  0  0  0  0  0  0  0  0  0  0  0
   45.0490   35.0790   44.4600 C   0  0  0  0  0  0  0  0  0  0  0  0
   44.7080   34.4950   43.2420 C   0  0  0  0  0  0  0  0  0  0  0  0
   44.9170   33.1320   43.0700 C   0  0  0  0  0  0  0  0  0  0  0  0
   45.4470   32.5420   44.1720 N   0  0  0  0  0  0  0  0  0  0  0  0
   45.7760   32.9940   45.2920 C   0  0  0  0  0  0  0  0  0  0  0  0
   45.5740   34.3110   45.4550 N   0  0  0  0  0  0  0  0  0  0  0  0
   46.2740   32.1200   46.2340 N   0  0  0  0  0  0  0  0  0  0  0  0
   47.0610   31.0910   45.8910 C   0  0  0  0  0  0  0  0  0  0  0  0
   47.3900   30.4570   47.0300 N   0  0  0  0  0  0  0  0  0  0  0  0
   46.7900   31.1230   48.0370 C   0  0  0  0  0  0  0  0  0  0  0  0
   46.1010   32.1480   47.5440 N   0  0  0  0  0  0  0  0  0  0  0  0
   46.8630   30.8280   49.4450 N   0  0  0  0  0  0  0  0  0  0  0  0
   44.1370   35.3810   42.2010 C   0  0  0  0  0  0  0  0  0  0  0  0
   44.6080   34.9910   40.9290 F   0  0  0  0  0  0  0  0  0  0  0  0
   44.5270   36.7170   42.3580 F   0  0  0  0  0  0  0  0  0  0  0  0
   42.7790   35.3310   42.1490 F   0  0  0  0  0  0  0  0  0  0  0  0
   48.2110   31.6680   43.7480 C   0  0  0  0  0  0  0  0  0  0  0  0
   48.7760   29.6150   44.8860 C   0  0  0  0  0  0  0  0  0  0  0  0
   46.5520   29.8640   43.7640 C   0  0  0  0  0  0  0  0  0  0  0  0
   46.2330   28.4750   44.2250 C   0  0  0  0  0  0  0  0  0  0  0  0
   46.7760   27.2070   43.9590 C   0  0  0  0  0  0  0  0  0  0  0  0
   46.1370   26.3580   44.7530 N   0  0  0  0  0  0  0  0  0  0  0  0
   45.2350   27.0780   45.4720 C   0  0  0  0  0  0  0  0  0  0  0  0
   45.2570   28.4070   45.1680 N   0  0  0  0  0  0  0  0  0  0  0  0
   44.1340   28.7500   46.0120 C   0  0  0  0  0  0  0  0  0  0  0  0
   42.7470   28.3760   45.4590 C   0  0  0  0  0  0  0  0  0  0  0  0
   44.8948   36.1567   44.6177 H   0  0  0  0  0  0  0  0  0  0  0  0
   44.6791   32.5904   42.1426 H   0  0  0  0  0  0  0  0  0  0  0  0
   46.3554   31.4160   50.1214 H   0  0  0  0  0  0  0  0  0  0  0  0
   47.4228   30.0291   49.7754 H   0  0  0  0  0  0  0  0  0  0  0  0
   48.6346   32.4262   44.4230 H   0  0  0  0  0  0  0  0  0  0  0  0
   49.0091   31.2550   43.1136 H   0  0  0  0  0  0  0  0  0  0  0  0
   47.4409   32.1311   43.1136 H   0  0  0  0  0  0  0  0  0  0  0  0
   48.8867   29.5266   45.9768 H   0  0  0  0  0  0  0  0  0  0  0  0
   48.5807   28.6217   44.4556 H   0  0  0  0  0  0  0  0  0  0  0  0
   49.7013   30.0256   44.4556 H   0  0  0  0  0  0  0  0  0  0  0  0
   46.9006   29.8074   42.7222 H   0  0  0  0  0  0  0  0  0  0  0  0
   45.6280   30.4494   43.8807 H   0  0  0  0  0  0  0  0  0  0  0  0
   47.5709   26.9666   43.2376 H   0  0  0  0  0  0  0  0  0  0  0  0
   44.5597   26.6355   46.2191 H   0  0  0  0  0  0  0  0  0  0  0  0
   44.2646   28.2345   46.9749 H   0  0  0  0  0  0  0  0  0  0  0  0
   44.1407   29.8472   46.0901 H   0  0  0  0  0  0  0  0  0  0  0  0
   42.0569   28.1899   46.2951 H   0  0  0  0  0  0  0  0  0  0  0  0
   42.3626   29.2026   44.8433 H   0  0  0  0  0  0  0  0  0  0  0  0
   42.8303   27.4682   44.8433 H   0  0  0  0  0  0  0  0  0  0  0  0
  1 19  1  0
  1  9  1  0
  2  7  2  0
  3  2  1  0
  4  3  2  0
  4  5  1  0
  5  6  2  0
  6  7  1  0
  6  8  1  0
  8 12  1  0
  9  8  1  0
  9 10  2  0
 10 11  1  0
 11 13  1  0
 12 11  2  0
 14 16  1  0
 14  3  1  0
 15 14  1  0
 17 14  1  0
 18  1  1  0
 20 21  1  0
 20  1  1  0
 21 25  1  0
 22 21  2  0
 22 23  1  0
 23 24  2  0
 25 24  1  0
 25 26  1  0
 27 26  1  0
  2 28  1  0
  4 29  1  0
 13 30  1  0
 13 31  1  0
 18 32  1  0
 18 33  1  0
 18 34  1  0
 19 35  1  0
 19 36  1  0
 19 37  1  0
 20 38  1  0
 20 39  1  0
 22 40  1  0
 24 41  1  0
 26 42  1  0
 26 43  1  0
 27 44  1  0
 27 45  1  0
 27 46  1  0
M  ISO  8  28  14  29  14  32   8  33   8  34   8  35   8  36   8  37   8
M  ISO  8  38   8  39   8  40  14  41  14  42   8  43   8  44   8  45   8
M  ISO  1  46   8
M  END
>  <minimizedAffinity>  (1) 
-5.01605082

>  <minimizedRMSD>  (1) 
0.955221713

$$$$
