
     RDKit          3D

 43 45  0  0  0  0  0  0  0  0999 V2000
   46.5190   31.6520   45.1130 C   0  0  0  0  0  0  0  0  0  0  0  0
   43.4690   27.4570   45.1440 C   0  0  0  0  0  0  0  0  0  0  0  0
   44.4110   27.1610   44.1500 C   0  0  0  0  0  0  0  0  0  0  0  0
   45.5690   27.9030   44.1170 C   0  0  0  0  0  0  0  0  0  0  0  0
   45.6510   28.8510   45.0800 N   0  0  0  0  0  0  0  0  0  0  0  0
   44.8530   29.1650   45.9950 C   0  0  0  0  0  0  0  0  0  0  0  0
   43.7190   28.4500   46.0370 N   0  0  0  0  0  0  0  0  0  0  0  0
   45.2170   30.1760   46.8630 N   0  0  0  0  0  0  0  0  0  0  0  0
   45.9260   31.2340   46.4520 C   0  0  0  0  0  0  0  0  0  0  0  0
   46.0940   32.0220   47.5290 N   0  0  0  0  0  0  0  0  0  0  0  0
   45.4800   31.4180   48.5660 C   0  0  0  0  0  0  0  0  0  0  0  0
   44.9420   30.2780   48.1520 N   0  0  0  0  0  0  0  0  0  0  0  0
   45.3830   31.8860   49.9230 N   0  0  0  0  0  0  0  0  0  0  0  0
   44.0890   26.0650   43.2170 C   0  0  0  0  0  0  0  0  0  0  0  0
   44.8730   26.1850   42.0570 F   0  0  0  0  0  0  0  0  0  0  0  0
   42.7510   26.0850   42.8090 F   0  0  0  0  0  0  0  0  0  0  0  0
   44.3460   24.8300   43.7420 F   0  0  0  0  0  0  0  0  0  0  0  0
   47.6060   30.6990   44.6800 C   0  0  0  0  0  0  0  0  0  0  0  0
   45.4120   31.4630   44.0440 C   0  0  0  0  0  0  0  0  0  0  0  0
   47.0370   33.0440   45.1180 C   0  0  0  0  0  0  0  0  0  0  0  0
   46.0870   34.0710   44.6040 C   0  0  0  0  0  0  0  0  0  0  0  0
   44.9950   34.7570   45.1750 C   0  0  0  0  0  0  0  0  0  0  0  0
   44.6170   35.6580   44.2830 N   0  0  0  0  0  0  0  0  0  0  0  0
   45.4410   35.5190   43.2100 C   0  0  0  0  0  0  0  0  0  0  0  0
   46.3640   34.5380   43.3580 N   0  0  0  0  0  0  0  0  0  0  0  0
   46.9780   34.5890   42.0470 C   0  0  0  0  0  0  0  0  0  0  0  0
   46.0400   34.7490   40.9430 F   0  0  0  0  0  0  0  0  0  0  0  0
   47.3470   33.3270   41.5930 F   0  0  0  0  0  0  0  0  0  0  0  0
   47.7290   35.6440   41.7320 F   0  0  0  0  0  0  0  0  0  0  0  0
   42.5298   26.8872   45.2012 H   0  0  0  0  0  0  0  0  0  0  0  0
   46.3611   27.7399   43.3714 H   0  0  0  0  0  0  0  0  0  0  0  0
   44.8816   31.3252   50.6266 H   0  0  0  0  0  0  0  0  0  0  0  0
   45.8149   32.7819   50.1909 H   0  0  0  0  0  0  0  0  0  0  0  0
   48.0939   30.2713   45.5683 H   0  0  0  0  0  0  0  0  0  0  0  0
   47.1661   29.8902   44.0780 H   0  0  0  0  0  0  0  0  0  0  0  0
   48.3503   31.2409   44.0780 H   0  0  0  0  0  0  0  0  0  0  0  0
   44.4454   31.2980   44.5424 H   0  0  0  0  0  0  0  0  0  0  0  0
   45.3515   32.3638   43.4156 H   0  0  0  0  0  0  0  0  0  0  0  0
   45.6538   30.5931   43.4156 H   0  0  0  0  0  0  0  0  0  0  0  0
   47.2971   33.3077   46.1538 H   0  0  0  0  0  0  0  0  0  0  0  0
   47.8995   33.0537   44.4353 H   0  0  0  0  0  0  0  0  0  0  0  0
   44.5473   34.5787   46.1638 H   0  0  0  0  0  0  0  0  0  0  0  0
   45.3654   36.1436   42.3077 H   0  0  0  0  0  0  0  0  0  0  0  0
  1 20  1  0
  1  9  1  0
  2  7  2  0
  3  2  1  0
  4  3  2  0
  4  5  1  0
  5  6  2  0
  6  7  1  0
  6  8  1  0
  8 12  1  0
  9  8  1  0
  9 10  2  0
 10 11  1  0
 11 13  1  0
 12 11  2  0
 14 17  1  0
 14  3  1  0
 15 14  1  0
 16 14  1  0
 18  1  1  0
 19  1  1  0
 21 20  1  0
 21 22  2  0
 23 22  1  0
 24 25  1  0
 24 23  2  0
 25 21  1  0
 26 25  1  0
 27 26  1  0
 28 26  1  0
 29 26  1  0
  2 30  1  0
  4 31  1  0
 13 32  1  0
 13 33  1  0
 18 34  1  0
 18 35  1  0
 18 36  1  0
 19 37  1  0
 19 38  1  0
 19 39  1  0
 20 40  1  0
 20 41  1  0
 22 42  1  0
 24 43  1  0
M  ISO  8  30  14  31  14  34   8  35   8  36   8  37   8  38   8  39   8
M  ISO  4  40   8  41   8  42  14  43  14
M  END
>  <minimizedAffinity>  (1) 
-5.51153469

>  <minimizedRMSD>  (1) 
6.13621473

$$$$
