
     RDKit          3D

 34 38  0  0  0  0  0  0  0  0999 V2000
   44.4850   36.0470   44.4640 C   0  0  0  0  0  0  0  0  0  0  0  0
   45.2520   35.9700   43.2960 C   0  0  0  0  0  0  0  0  0  0  0  0
   46.1790   34.9370   43.1680 C   0  0  0  0  0  0  0  0  0  0  0  0
   46.2920   34.0430   44.1950 N   0  0  0  0  0  0  0  0  0  0  0  0
   45.5290   34.1450   45.3200 C   0  0  0  0  0  0  0  0  0  0  0  0
   44.6280   35.1390   45.4600 N   0  0  0  0  0  0  0  0  0  0  0  0
   45.7500   33.1330   46.3280 N   0  0  0  0  0  0  0  0  0  0  0  0
   45.2650   33.0620   47.5820 C   0  0  0  0  0  0  0  0  0  0  0  0
   45.7490   31.9320   48.1510 N   0  0  0  0  0  0  0  0  0  0  0  0
   46.5400   31.2840   47.2630 C   0  0  0  0  0  0  0  0  0  0  0  0
   47.2660   30.0960   47.3490 C   0  0  0  0  0  0  0  0  0  0  0  0
   47.9590   29.7490   46.2370 N   0  0  0  0  0  0  0  0  0  0  0  0
   47.9370   30.5090   45.1370 C   0  0  0  0  0  0  0  0  0  0  0  0
   47.2330   31.6670   45.0460 N   0  0  0  0  0  0  0  0  0  0  0  0
   46.5250   32.0550   46.1290 C   0  0  0  0  0  0  0  0  0  0  0  0
   48.6560   30.1650   43.9560 N   0  0  0  0  0  0  0  0  0  0  0  0
   49.0710   28.9160   43.6070 C   0  0  0  0  0  0  0  0  0  0  0  0
   49.7270   28.9040   42.4350 N   0  0  0  0  0  0  0  0  0  0  0  0
   49.7490   30.1740   41.9960 C   0  0  0  0  0  0  0  0  0  0  0  0
   50.2660   30.7950   40.8780 C   0  0  0  0  0  0  0  0  0  0  0  0
   50.1090   32.1050   40.7460 N   0  0  0  0  0  0  0  0  0  0  0  0
   49.4680   32.8770   41.6500 C   0  0  0  0  0  0  0  0  0  0  0  0
   48.9740   32.2510   42.7320 N   0  0  0  0  0  0  0  0  0  0  0  0
   49.0880   30.9300   42.9430 C   0  0  0  0  0  0  0  0  0  0  0  0
   50.9230   29.9700   39.9590 N   0  0  0  0  0  0  0  0  0  0  0  0
   43.7523   36.8598   44.5758 H   0  0  0  0  0  0  0  0  0  0  0  0
   45.1256   36.7114   42.4933 H   0  0  0  0  0  0  0  0  0  0  0  0
   46.8017   34.8442   42.2660 H   0  0  0  0  0  0  0  0  0  0  0  0
   44.5948   33.7919   48.0596 H   0  0  0  0  0  0  0  0  0  0  0  0
   47.2755   29.4804   48.2606 H   0  0  0  0  0  0  0  0  0  0  0  0
   48.8895   28.0182   44.2161 H   0  0  0  0  0  0  0  0  0  0  0  0
   49.3560   33.9620   41.5081 H   0  0  0  0  0  0  0  0  0  0  0  0
   51.3308   30.3741   39.1038 H   0  0  0  0  0  0  0  0  0  0  0  0
   50.9990   28.9584   40.1375 H   0  0  0  0  0  0  0  0  0  0  0  0
  1  6  2  0
  2  1  1  0
  3  2  2  0
  3  4  1  0
  4  5  2  0
  5  6  1  0
  5  7  1  0
  7  8  1  0
  8  9  2  0
 10 11  2  0
 10  9  1  0
 12 11  1  0
 13 12  2  0
 14 13  1  0
 14 15  2  0
 15  7  1  0
 15 10  1  0
 16 13  1  0
 17 16  1  0
 18 17  2  0
 19 18  1  0
 19 24  2  0
 20 19  1  0
 21 20  2  0
 21 22  1  0
 22 23  2  0
 23 24  1  0
 24 16  1  0
 25 20  1  0
  1 26  1  0
  2 27  1  0
  3 28  1  0
  8 29  1  0
 11 30  1  0
 17 31  1  0
 22 32  1  0
 25 33  1  0
 25 34  1  0
M  ISO  7  26  14  27  14  28  14  29  14  30  14  31  14  32  14
M  END
>  <minimizedAffinity>  (1) 
-5.98520851

>  <minimizedRMSD>  (1) 
0.376966059

$$$$
