
     RDKit          3D

 37 41  0  0  0  0  0  0  0  0999 V2000
   44.4860   36.1650   44.5440 C   0  0  0  0  0  0  0  0  0  0  0  0
   45.1140   36.0070   43.2960 C   0  0  0  0  0  0  0  0  0  0  0  0
   45.9130   34.8870   43.1050 C   0  0  0  0  0  0  0  0  0  0  0  0
   46.0520   33.9970   44.1310 N   0  0  0  0  0  0  0  0  0  0  0  0
   45.4340   34.1840   45.3140 C   0  0  0  0  0  0  0  0  0  0  0  0
   44.6480   35.2600   45.5390 N   0  0  0  0  0  0  0  0  0  0  0  0
   45.6550   33.1680   46.3310 N   0  0  0  0  0  0  0  0  0  0  0  0
   45.2760   33.1280   47.6200 C   0  0  0  0  0  0  0  0  0  0  0  0
   45.7180   31.9730   48.1580 N   0  0  0  0  0  0  0  0  0  0  0  0
   46.3870   31.2620   47.2130 C   0  0  0  0  0  0  0  0  0  0  0  0
   47.0250   30.0310   47.2450 C   0  0  0  0  0  0  0  0  0  0  0  0
   47.5880   29.6310   46.1110 N   0  0  0  0  0  0  0  0  0  0  0  0
   47.5450   30.3720   44.9890 C   0  0  0  0  0  0  0  0  0  0  0  0
   46.9200   31.5790   44.9570 N   0  0  0  0  0  0  0  0  0  0  0  0
   46.3340   32.0300   46.0810 C   0  0  0  0  0  0  0  0  0  0  0  0
   48.1050   30.0790   43.6550 C   0  0  0  0  0  0  0  0  0  0  0  0
   48.0800   28.8330   43.0530 C   0  0  0  0  0  0  0  0  0  0  0  0
   48.5970   28.5480   41.8200 C   0  0  0  0  0  0  0  0  0  0  0  0
   49.1950   29.5330   41.0850 C   0  0  0  0  0  0  0  0  0  0  0  0
   49.2570   30.7980   41.6210 C   0  0  0  0  0  0  0  0  0  0  0  0
   49.8630   31.7520   40.8570 C   0  0  0  0  0  0  0  0  0  0  0  0
   49.9710   33.0430   41.3180 C   0  0  0  0  0  0  0  0  0  0  0  0
   49.4430   33.3340   42.5780 C   0  0  0  0  0  0  0  0  0  0  0  0
   48.8480   32.3090   43.2780 C   0  0  0  0  0  0  0  0  0  0  0  0
   48.7200   31.0180   42.8620 C   0  0  0  0  0  0  0  0  0  0  0  0
   43.8480   37.0443   44.7166 H   0  0  0  0  0  0  0  0  0  0  0  0
   44.9767   36.7482   42.4949 H   0  0  0  0  0  0  0  0  0  0  0  0
   46.4241   34.7202   42.1453 H   0  0  0  0  0  0  0  0  0  0  0  0
   44.7027   33.9052   48.1466 H   0  0  0  0  0  0  0  0  0  0  0  0
   47.0625   29.4200   48.1590 H   0  0  0  0  0  0  0  0  0  0  0  0
   47.6082   28.0094   43.6090 H   0  0  0  0  0  0  0  0  0  0  0  0
   48.5317   27.5257   41.4193 H   0  0  0  0  0  0  0  0  0  0  0  0
   49.6155   29.3196   40.0912 H   0  0  0  0  0  0  0  0  0  0  0  0
   50.2667   31.4875   39.8685 H   0  0  0  0  0  0  0  0  0  0  0  0
   50.4580   33.8223   40.7134 H   0  0  0  0  0  0  0  0  0  0  0  0
   49.5008   34.3493   42.9972 H   0  0  0  0  0  0  0  0  0  0  0  0
   48.4365   32.5558   44.2678 H   0  0  0  0  0  0  0  0  0  0  0  0
  1  6  2  0
  2  1  1  0
  3  2  2  0
  3  4  1  0
  4  5  2  0
  5  6  1  0
  5  7  1  0
  7  8  1  0
  8  9  2  0
 10 11  2  0
 10  9  1  0
 12 11  1  0
 13 12  2  0
 14 13  1  0
 14 15  2  0
 15  7  1  0
 15 10  1  0
 16 13  1  0
 17 16  2  0
 18 17  1  0
 19 20  1  0
 19 18  2  0
 20 25  2  0
 21 22  2  0
 21 20  1  0
 22 23  1  0
 23 24  2  0
 25 24  1  0
 25 16  1  0
  1 26  1  0
  2 27  1  0
  3 28  1  0
  8 29  1  0
 11 30  1  0
 17 31  1  0
 18 32  1  0
 19 33  1  0
 21 34  1  0
 22 35  1  0
 23 36  1  0
 24 37  1  0
M  ISO  8  26  14  27  14  28  14  29  14  30  14  31  14  32  14  33  14
M  ISO  4  34  14  35  14  36  14  37  14
M  END
>  <minimizedAffinity>  (1) 
-5.56027126

>  <minimizedRMSD>  (1) 
0.464245319

$$$$
