
     RDKit          3D

 35 39  0  0  0  0  0  0  0  0999 V2000
   44.4940   36.1030   44.4710 C   0  0  0  0  0  0  0  0  0  0  0  0
   45.2150   35.9790   43.2710 C   0  0  0  0  0  0  0  0  0  0  0  0
   46.0920   34.9080   43.1260 C   0  0  0  0  0  0  0  0  0  0  0  0
   46.2110   34.0240   44.1650 N   0  0  0  0  0  0  0  0  0  0  0  0
   45.5020   34.1800   45.2970 C   0  0  0  0  0  0  0  0  0  0  0  0
   44.6420   35.2070   45.4730 N   0  0  0  0  0  0  0  0  0  0  0  0
   45.7110   33.1830   46.3250 N   0  0  0  0  0  0  0  0  0  0  0  0
   45.2420   33.1150   47.5830 C   0  0  0  0  0  0  0  0  0  0  0  0
   45.7100   31.9960   48.1650 N   0  0  0  0  0  0  0  0  0  0  0  0
   46.4900   31.3270   47.2770 C   0  0  0  0  0  0  0  0  0  0  0  0
   47.2040   30.1260   47.3780 C   0  0  0  0  0  0  0  0  0  0  0  0
   47.8830   29.7560   46.2780 N   0  0  0  0  0  0  0  0  0  0  0  0
   47.8640   30.5010   45.1720 C   0  0  0  0  0  0  0  0  0  0  0  0
   47.1790   31.6730   45.0450 N   0  0  0  0  0  0  0  0  0  0  0  0
   46.4820   32.0870   46.1220 C   0  0  0  0  0  0  0  0  0  0  0  0
   48.6210   30.0620   43.9860 C   0  0  0  0  0  0  0  0  0  0  0  0
   48.9970   28.7640   43.6310 C   0  0  0  0  0  0  0  0  0  0  0  0
   49.6760   28.7840   42.4780 N   0  0  0  0  0  0  0  0  0  0  0  0
   49.7630   30.0750   42.0530 C   0  0  0  0  0  0  0  0  0  0  0  0
   50.3440   30.6780   40.9370 C   0  0  0  0  0  0  0  0  0  0  0  0
   50.2890   32.0450   40.7340 C   0  0  0  0  0  0  0  0  0  0  0  0
   49.6420   32.8550   41.6510 C   0  0  0  0  0  0  0  0  0  0  0  0
   49.0620   32.2620   42.7610 C   0  0  0  0  0  0  0  0  0  0  0  0
   49.1070   30.8890   42.9840 C   0  0  0  0  0  0  0  0  0  0  0  0
   43.7966   36.9442   44.5975 H   0  0  0  0  0  0  0  0  0  0  0  0
   45.0887   36.7139   42.4623 H   0  0  0  0  0  0  0  0  0  0  0  0
   46.6737   34.7753   42.2019 H   0  0  0  0  0  0  0  0  0  0  0  0
   44.5821   33.8549   48.0596 H   0  0  0  0  0  0  0  0  0  0  0  0
   47.2089   29.5240   48.2986 H   0  0  0  0  0  0  0  0  0  0  0  0
   48.7686   27.8592   44.2133 H   0  0  0  0  0  0  0  0  0  0  0  0
   50.0664   27.9627   41.9943 H   0  0  0  0  0  0  0  0  0  0  0  0
   50.8605   30.0483   40.1976 H   0  0  0  0  0  0  0  0  0  0  0  0
   50.7594   32.4883   39.8439 H   0  0  0  0  0  0  0  0  0  0  0  0
   49.5895   33.9436   41.5022 H   0  0  0  0  0  0  0  0  0  0  0  0
   48.5466   32.9006   43.4935 H   0  0  0  0  0  0  0  0  0  0  0  0
  1  6  2  0
  2  1  1  0
  3  2  2  0
  3  4  1  0
  4  5  2  0
  5  6  1  0
  5  7  1  0
  7  8  1  0
  8  9  2  0
 10 11  2  0
 10  9  1  0
 12 11  1  0
 13 12  2  0
 14 13  1  0
 14 15  2  0
 15  7  1  0
 15 10  1  0
 16 13  1  0
 17 16  2  0
 18 17  1  0
 19 18  1  0
 19 24  2  0
 20 19  1  0
 21 20  2  0
 21 22  1  0
 22 23  2  0
 23 24  1  0
 24 16  1  0
  1 25  1  0
  2 26  1  0
  3 27  1  0
  8 28  1  0
 11 29  1  0
 17 30  1  0
 18 31  1  0
 20 32  1  0
 21 33  1  0
 22 34  1  0
 23 35  1  0
M  ISO  8  25  14  26  14  27  14  28  14  29  14  30  14  31   9  32  14
M  ISO  3  33  14  34  14  35  14
M  END
>  <minimizedAffinity>  (1) 
-5.7345705

>  <minimizedRMSD>  (1) 
0.589460015

$$$$
