
     RDKit          3D

 31 34  0  0  0  0  0  0  0  0999 V2000
   44.5670   35.9740   44.4580 C   0  0  0  0  0  0  0  0  0  0  0  0
   45.3740   35.7990   43.3310 C   0  0  0  0  0  0  0  0  0  0  0  0
   46.2700   34.7130   43.3120 C   0  0  0  0  0  0  0  0  0  0  0  0
   46.3000   33.8900   44.3970 N   0  0  0  0  0  0  0  0  0  0  0  0
   45.5040   34.0950   45.4610 C   0  0  0  0  0  0  0  0  0  0  0  0
   44.6300   35.1330   45.5100 N   0  0  0  0  0  0  0  0  0  0  0  0
   45.6290   33.1560   46.5460 N   0  0  0  0  0  0  0  0  0  0  0  0
   45.0860   33.1620   47.7790 C   0  0  0  0  0  0  0  0  0  0  0  0
   45.4910   32.0710   48.4450 N   0  0  0  0  0  0  0  0  0  0  0  0
   46.3060   31.3340   47.6540 C   0  0  0  0  0  0  0  0  0  0  0  0
   46.9780   30.1360   47.8610 C   0  0  0  0  0  0  0  0  0  0  0  0
   47.7080   29.6960   46.8320 N   0  0  0  0  0  0  0  0  0  0  0  0
   47.7730   30.3840   45.6810 C   0  0  0  0  0  0  0  0  0  0  0  0
   47.1280   31.5540   45.4480 N   0  0  0  0  0  0  0  0  0  0  0  0
   46.3750   32.0360   46.4700 C   0  0  0  0  0  0  0  0  0  0  0  0
   48.5950   29.8530   44.5750 C   0  0  0  0  0  0  0  0  0  0  0  0
   48.7570   30.5900   43.4150 C   0  0  0  0  0  0  0  0  0  0  0  0
   49.5020   30.1540   42.3600 C   0  0  0  0  0  0  0  0  0  0  0  0
   50.1200   28.9240   42.4580 C   0  0  0  0  0  0  0  0  0  0  0  0
   49.9920   28.1460   43.5910 C   0  0  0  0  0  0  0  0  0  0  0  0
   49.2250   28.6160   44.6530 C   0  0  0  0  0  0  0  0  0  0  0  0
   43.8629   36.8186   44.4878 H   0  0  0  0  0  0  0  0  0  0  0  0
   45.3109   36.4925   42.4795 H   0  0  0  0  0  0  0  0  0  0  0  0
   46.9259   34.5346   42.4471 H   0  0  0  0  0  0  0  0  0  0  0  0
   44.4164   33.9390   48.1764 H   0  0  0  0  0  0  0  0  0  0  0  0
   46.9133   29.5850   48.8109 H   0  0  0  0  0  0  0  0  0  0  0  0
   48.2632   31.5701   43.3411 H   0  0  0  0  0  0  0  0  0  0  0  0
   49.6080   30.7674   41.4531 H   0  0  0  0  0  0  0  0  0  0  0  0
   50.7263   28.5565   41.6170 H   0  0  0  0  0  0  0  0  0  0  0  0
   50.4898   27.1671   43.6537 H   0  0  0  0  0  0  0  0  0  0  0  0
   49.1164   28.0043   45.5608 H   0  0  0  0  0  0  0  0  0  0  0  0
  1  6  2  0
  2  1  1  0
  3  2  2  0
  3  4  1  0
  4  5  2  0
  5  6  1  0
  5  7  1  0
  7  8  1  0
  8  9  2  0
 10 11  2  0
 10  9  1  0
 12 11  1  0
 13 12  2  0
 14 13  1  0
 14 15  2  0
 15  7  1  0
 15 10  1  0
 16 21  1  0
 16 13  1  0
 17 16  2  0
 18 19  2  0
 18 17  1  0
 19 20  1  0
 20 21  2  0
  1 22  1  0
  2 23  1  0
  3 24  1  0
  8 25  1  0
 11 26  1  0
 17 27  1  0
 18 28  1  0
 19 29  1  0
 20 30  1  0
 21 31  1  0
M  ISO  8  22  14  23  14  24  14  25  14  26  14  27  14  28  14  29  14
M  ISO  2  30  14  31  14
M  END
>  <minimizedAffinity>  (1) 
-5.14548302

>  <minimizedRMSD>  (1) 
0.430648535

$$$$
