
     RDKit          3D

 28 31  0  0  0  0  0  0  0  0999 V2000
   44.5750   35.9580   44.4350 C   0  0  0  0  0  0  0  0  0  0  0  0
   45.3910   35.7760   43.3170 C   0  0  0  0  0  0  0  0  0  0  0  0
   46.2770   34.7000   43.3240 C   0  0  0  0  0  0  0  0  0  0  0  0
   46.3050   33.8850   44.4100 N   0  0  0  0  0  0  0  0  0  0  0  0
   45.5020   34.0880   45.4740 C   0  0  0  0  0  0  0  0  0  0  0  0
   44.6400   35.1200   45.4890 N   0  0  0  0  0  0  0  0  0  0  0  0
   45.6250   33.1540   46.5640 N   0  0  0  0  0  0  0  0  0  0  0  0
   45.0810   33.1750   47.7900 C   0  0  0  0  0  0  0  0  0  0  0  0
   45.4930   32.0750   48.4560 N   0  0  0  0  0  0  0  0  0  0  0  0
   46.3080   31.3390   47.6580 C   0  0  0  0  0  0  0  0  0  0  0  0
   46.9860   30.1410   47.8510 C   0  0  0  0  0  0  0  0  0  0  0  0
   47.7170   29.6910   46.8280 N   0  0  0  0  0  0  0  0  0  0  0  0
   47.7810   30.3730   45.6750 C   0  0  0  0  0  0  0  0  0  0  0  0
   47.1310   31.5420   45.4570 N   0  0  0  0  0  0  0  0  0  0  0  0
   46.3750   32.0340   46.4800 C   0  0  0  0  0  0  0  0  0  0  0  0
   48.5360   29.9800   44.5110 N   0  0  0  0  0  0  0  0  0  0  0  0
   48.2260   30.6510   43.3740 C   0  0  0  0  0  0  0  0  0  0  0  0
   49.0550   30.1290   42.3830 C   0  0  0  0  0  0  0  0  0  0  0  0
   49.8230   29.1750   42.9510 N   0  0  0  0  0  0  0  0  0  0  0  0
   49.5060   29.0820   44.2610 C   0  0  0  0  0  0  0  0  0  0  0  0
   43.8669   36.7995   44.4563 H   0  0  0  0  0  0  0  0  0  0  0  0
   45.3365   36.4603   42.4575 H   0  0  0  0  0  0  0  0  0  0  0  0
   46.9406   34.5146   42.4666 H   0  0  0  0  0  0  0  0  0  0  0  0
   44.4135   33.9549   48.1852 H   0  0  0  0  0  0  0  0  0  0  0  0
   46.9234   29.5900   48.8010 H   0  0  0  0  0  0  0  0  0  0  0  0
   47.4738   31.4451   43.2578 H   0  0  0  0  0  0  0  0  0  0  0  0
   49.0793   30.4386   41.3277 H   0  0  0  0  0  0  0  0  0  0  0  0
   49.9593   28.3958   44.9915 H   0  0  0  0  0  0  0  0  0  0  0  0
  1  6  2  0
  2  3  2  0
  2  1  1  0
  3  4  1  0
  4  5  2  0
  5  6  1  0
  5  7  1  0
  7  8  1  0
  8  9  2  0
 10 11  2  0
 10  9  1  0
 12 11  1  0
 13 12  2  0
 14 13  1  0
 14 15  2  0
 15  7  1  0
 15 10  1  0
 16 13  1  0
 17 16  1  0
 18 19  1  0
 18 17  2  0
 19 20  2  0
 20 16  1  0
  1 21  1  0
  2 22  1  0
  3 23  1  0
  8 24  1  0
 11 25  1  0
 17 26  1  0
 18 27  1  0
 20 28  1  0
M  ISO  8  21  14  22  14  23  14  24  14  25  14  26  14  27  14  28  14
M  END
>  <minimizedAffinity>  (1) 
-5.28017759

>  <minimizedRMSD>  (1) 
0.230012

$$$$
