
     RDKit          3D

 24 26  0  0  0  0  0  0  0  0999 V2000
   44.5400   35.9690   44.4900 C   0  0  0  0  0  0  0  0  0  0  0  0
   45.3240   35.8290   43.3420 C   0  0  0  0  0  0  0  0  0  0  0  0
   46.2230   34.7670   43.2800 C   0  0  0  0  0  0  0  0  0  0  0  0
   46.2980   33.9130   44.3380 N   0  0  0  0  0  0  0  0  0  0  0  0
   45.5190   34.0830   45.4370 C   0  0  0  0  0  0  0  0  0  0  0  0
   44.6510   35.0970   45.5120 N   0  0  0  0  0  0  0  0  0  0  0  0
   45.6990   33.1100   46.4820 N   0  0  0  0  0  0  0  0  0  0  0  0
   45.2230   33.1140   47.7490 C   0  0  0  0  0  0  0  0  0  0  0  0
   45.6550   31.9920   48.3530 N   0  0  0  0  0  0  0  0  0  0  0  0
   46.4020   31.2620   47.5060 C   0  0  0  0  0  0  0  0  0  0  0  0
   47.0650   30.0470   47.6380 C   0  0  0  0  0  0  0  0  0  0  0  0
   47.7270   29.6030   46.5640 N   0  0  0  0  0  0  0  0  0  0  0  0
   47.7380   30.3110   45.4220 C   0  0  0  0  0  0  0  0  0  0  0  0
   47.1030   31.5040   45.2480 N   0  0  0  0  0  0  0  0  0  0  0  0
   46.4270   31.9750   46.3160 C   0  0  0  0  0  0  0  0  0  0  0  0
   48.4860   29.7980   44.2280 C   0  0  0  0  0  0  0  0  0  0  0  0
   43.8236   36.8007   44.5607 H   0  0  0  0  0  0  0  0  0  0  0  0
   45.2334   36.5401   42.5076 H   0  0  0  0  0  0  0  0  0  0  0  0
   46.8593   34.6211   42.3946 H   0  0  0  0  0  0  0  0  0  0  0  0
   44.5954   33.8947   48.2035 H   0  0  0  0  0  0  0  0  0  0  0  0
   47.0460   29.4787   48.5797 H   0  0  0  0  0  0  0  0  0  0  0  0
   49.3500   29.2055   44.5634 H   0  0  0  0  0  0  0  0  0  0  0  0
   47.8204   29.1654   43.6224 H   0  0  0  0  0  0  0  0  0  0  0  0
   48.8364   30.6468   43.6224 H   0  0  0  0  0  0  0  0  0  0  0  0
  1  6  2  0
  2  1  1  0
  3  2  2  0
  3  4  1  0
  4  5  2  0
  5  6  1  0
  5  7  1  0
  7  8  1  0
  8  9  2  0
 10 11  2  0
 10  9  1  0
 12 11  1  0
 13 12  2  0
 14 13  1  0
 14 15  2  0
 15  7  1  0
 15 10  1  0
 16 13  1  0
  1 17  1  0
  2 18  1  0
  3 19  1  0
  8 20  1  0
 11 21  1  0
 16 22  1  0
 16 23  1  0
 16 24  1  0
M  ISO  8  17  14  18  14  19  14  20  14  21  14  22   8  23   8  24   8
M  END
>  <minimizedAffinity>  (1) 
-4.91220284

>  <minimizedRMSD>  (1) 
0.0200326815

$$$$
