
     RDKit          3D

 39 42  0  0  0  0  0  0  0  0999 V2000
   44.8970   35.5860   45.0180 C   0  0  0  0  0  0  0  0  0  0  0  0
   44.1250   35.7330   43.8420 C   0  0  0  0  0  0  0  0  0  0  0  0
   44.1440   34.7030   42.9250 C   0  0  0  0  0  0  0  0  0  0  0  0
   44.8750   33.6010   43.1550 N   0  0  0  0  0  0  0  0  0  0  0  0
   45.6210   33.4730   44.3030 C   0  0  0  0  0  0  0  0  0  0  0  0
   45.6160   34.4670   45.2090 N   0  0  0  0  0  0  0  0  0  0  0  0
   46.4050   32.2690   44.5280 C   0  0  0  0  0  0  0  0  0  0  0  0
   47.0180   31.4630   43.5660 C   0  0  0  0  0  0  0  0  0  0  0  0
   47.6580   30.4300   44.1760 N   0  0  0  0  0  0  0  0  0  0  0  0
   47.4340   30.6080   45.5150 C   0  0  0  0  0  0  0  0  0  0  0  0
   46.6810   31.7130   45.7210 N   0  0  0  0  0  0  0  0  0  0  0  0
   47.9490   29.7170   46.4940 N   0  0  0  0  0  0  0  0  0  0  0  0
   47.9710   28.3750   46.5680 C   0  0  0  0  0  0  0  0  0  0  0  0
   48.5840   28.0640   47.7160 N   0  0  0  0  0  0  0  0  0  0  0  0
   48.9470   29.1760   48.3620 C   0  0  0  0  0  0  0  0  0  0  0  0
   48.5470   30.1860   47.5950 N   0  0  0  0  0  0  0  0  0  0  0  0
   46.2400   32.2230   46.9940 C   0  0  0  0  0  0  0  0  0  0  0  0
   46.0330   31.2080   47.9380 F   0  0  0  0  0  0  0  0  0  0  0  0
   45.0630   32.9660   46.8900 F   0  0  0  0  0  0  0  0  0  0  0  0
   47.2260   33.0420   47.5640 F   0  0  0  0  0  0  0  0  0  0  0  0
   43.3550   34.8780   41.7460 N   0  0  0  0  0  0  0  0  0  0  0  0
   42.0690   35.2550   41.6810 C   0  0  0  0  0  0  0  0  0  0  0  0
   41.4500   35.3790   40.4650 C   0  0  0  0  0  0  0  0  0  0  0  0
   42.1230   35.1220   39.2860 C   0  0  0  0  0  0  0  0  0  0  0  0
   41.5450   35.2380   38.1690 O   0  0  0  0  0  0  0  0  0  0  0  0
   43.4090   34.7460   39.3910 N   0  0  0  0  0  0  0  0  0  0  0  0
   43.9980   34.6320   40.6040 C   0  0  0  0  0  0  0  0  0  0  0  0
   45.2260   34.2650   40.5320 O   0  0  0  0  0  0  0  0  0  0  0  0
   40.0430   35.7920   40.4070 C   0  0  0  0  0  0  0  0  0  0  0  0
   44.9088   36.3851   45.7738 H   0  0  0  0  0  0  0  0  0  0  0  0
   43.5284   36.6400   43.6644 H   0  0  0  0  0  0  0  0  0  0  0  0
   46.9876   31.6374   42.4803 H   0  0  0  0  0  0  0  0  0  0  0  0
   47.5641   27.6696   45.8285 H   0  0  0  0  0  0  0  0  0  0  0  0
   49.4687   29.2422   49.3282 H   0  0  0  0  0  0  0  0  0  0  0  0
   41.5108   35.4648   42.6053 H   0  0  0  0  0  0  0  0  0  0  0  0
   43.9518   34.5425   38.5396 H   0  0  0  0  0  0  0  0  0  0  0  0
   39.6521   35.9067   41.4288 H   0  0  0  0  0  0  0  0  0  0  0  0
   39.9641   36.7512   39.8744 H   0  0  0  0  0  0  0  0  0  0  0  0
   39.4582   35.0276   39.8744 H   0  0  0  0  0  0  0  0  0  0  0  0
  1  6  2  0
  2  1  1  0
  3  4  1  0
  3  2  2  0
  4  5  2  0
  5  7  1  0
  5  6  1  0
  7 11  1  0
  8  9  1  0
  8  7  2  0
  9 10  2  0
 10 11  1  0
 10 12  1  0
 11 17  1  0
 12 13  1  0
 12 16  1  0
 13 14  2  0
 14 15  1  0
 16 15  2  0
 17 20  1  0
 17 18  1  0
 19 17  1  0
 21  3  1  0
 22 21  1  0
 23 22  2  0
 24 26  1  0
 24 23  1  0
 25 24  2  0
 26 27  1  0
 27 21  1  0
 28 27  2  0
 29 23  1  0
  1 30  1  0
  2 31  1  0
  8 32  1  0
 13 33  1  0
 15 34  1  0
 22 35  1  0
 26 36  1  0
 29 37  1  0
 29 38  1  0
 29 39  1  0
M  ISO  8  30  14  31  14  32  14  33  14  34  14  35  14  36   9  37   8
M  ISO  2  38   8  39   8
M  END
>  <minimizedAffinity>  (1) 
-6.53465271

>  <minimizedRMSD>  (1) 
0.877196252

$$$$
