
     RDKit          3D

 23 25  0  0  0  0  0  0  0  0999 V2000
   44.5580   36.0180   44.5040 C   0  0  0  0  0  0  0  0  0  0  0  0
   45.3190   35.8450   43.3320 C   0  0  0  0  0  0  0  0  0  0  0  0
   46.1810   34.7550   43.2570 C   0  0  0  0  0  0  0  0  0  0  0  0
   46.2450   33.9110   44.3160 N   0  0  0  0  0  0  0  0  0  0  0  0
   45.4920   34.1110   45.4320 C   0  0  0  0  0  0  0  0  0  0  0  0
   44.6510   35.1570   45.5320 N   0  0  0  0  0  0  0  0  0  0  0  0
   45.6600   33.1350   46.4830 N   0  0  0  0  0  0  0  0  0  0  0  0
   45.1570   33.1260   47.7300 C   0  0  0  0  0  0  0  0  0  0  0  0
   45.5800   32.0180   48.3540 N   0  0  0  0  0  0  0  0  0  0  0  0
   46.3670   31.2900   47.5160 C   0  0  0  0  0  0  0  0  0  0  0  0
   47.0470   30.0870   47.6520 C   0  0  0  0  0  0  0  0  0  0  0  0
   47.7380   29.6700   46.5860 N   0  0  0  0  0  0  0  0  0  0  0  0
   47.7680   30.3760   45.4550 C   0  0  0  0  0  0  0  0  0  0  0  0
   47.1140   31.5510   45.2940 N   0  0  0  0  0  0  0  0  0  0  0  0
   46.4010   32.0120   46.3500 C   0  0  0  0  0  0  0  0  0  0  0  0
   48.5300   29.9030   44.2940 C   0  0  0  0  0  0  0  0  0  0  0  0
   49.0040   30.6640   43.4140 O   0  0  0  0  0  0  0  0  0  0  0  0
   43.8732   36.8755   44.5799 H   0  0  0  0  0  0  0  0  0  0  0  0
   45.2342   36.5545   42.4957 H   0  0  0  0  0  0  0  0  0  0  0  0
   46.7951   34.5826   42.3608 H   0  0  0  0  0  0  0  0  0  0  0  0
   44.5068   33.8991   48.1653 H   0  0  0  0  0  0  0  0  0  0  0  0
   47.0187   29.5080   48.5868 H   0  0  0  0  0  0  0  0  0  0  0  0
   48.6957   28.8207   44.1880 H   0  0  0  0  0  0  0  0  0  0  0  0
  1  6  2  0
  2  1  1  0
  3  2  2  0
  3  4  1  0
  4  5  2  0
  5  6  1  0
  5  7  1  0
  7  8  1  0
  8  9  2  0
 10 11  2  0
 10  9  1  0
 12 11  1  0
 13 12  2  0
 14 13  1  0
 14 15  2  0
 15  7  1  0
 15 10  1  0
 16 13  1  0
 17 16  2  0
  1 18  1  0
  2 19  1  0
  3 20  1  0
  8 21  1  0
 11 22  1  0
 16 23  1  0
M  ISO  6  18  14  19  14  20  14  21  14  22  14  23   6
M  END
>  <minimizedAffinity>  (1) 
-4.77803564

>  <minimizedRMSD>  (1) 
0.509101033

$$$$
