
     RDKit          3D

 27 29  0  0  0  0  0  0  0  0999 V2000
   44.5830   35.9830   44.4810 C   0  0  0  0  0  0  0  0  0  0  0  0
   45.3670   35.7970   43.3310 C   0  0  0  0  0  0  0  0  0  0  0  0
   46.2380   34.6950   43.3010 C   0  0  0  0  0  0  0  0  0  0  0  0
   46.2750   33.8660   44.3860 N   0  0  0  0  0  0  0  0  0  0  0  0
   45.4910   34.0950   45.4780 C   0  0  0  0  0  0  0  0  0  0  0  0
   44.6430   35.1430   45.5420 N   0  0  0  0  0  0  0  0  0  0  0  0
   45.6350   33.1430   46.5430 N   0  0  0  0  0  0  0  0  0  0  0  0
   45.1030   33.1660   47.7890 C   0  0  0  0  0  0  0  0  0  0  0  0
   45.5140   32.0570   48.4430 N   0  0  0  0  0  0  0  0  0  0  0  0
   46.3040   31.3250   47.6270 C   0  0  0  0  0  0  0  0  0  0  0  0
   46.9660   30.1180   47.8240 C   0  0  0  0  0  0  0  0  0  0  0  0
   47.6790   29.6640   46.7790 N   0  0  0  0  0  0  0  0  0  0  0  0
   47.7370   30.3440   45.6320 C   0  0  0  0  0  0  0  0  0  0  0  0
   47.1000   31.5280   45.4080 N   0  0  0  0  0  0  0  0  0  0  0  0
   46.3750   32.0090   46.4390 C   0  0  0  0  0  0  0  0  0  0  0  0
   48.5800   29.6710   44.6000 C   0  0  0  0  0  0  0  0  0  0  0  0
   48.7380   30.5970   43.4010 C   0  0  0  0  0  0  0  0  0  0  0  0
   43.8959   36.8411   44.5217 H   0  0  0  0  0  0  0  0  0  0  0  0
   45.3013   36.4919   42.4808 H   0  0  0  0  0  0  0  0  0  0  0  0
   46.8749   34.5043   42.4247 H   0  0  0  0  0  0  0  0  0  0  0  0
   44.4498   33.9512   48.1974 H   0  0  0  0  0  0  0  0  0  0  0  0
   46.9096   29.5691   48.7756 H   0  0  0  0  0  0  0  0  0  0  0  0
   49.5698   29.4452   45.0235 H   0  0  0  0  0  0  0  0  0  0  0  0
   48.0984   28.7343   44.2827 H   0  0  0  0  0  0  0  0  0  0  0  0
   48.9133   31.6247   43.7520 H   0  0  0  0  0  0  0  0  0  0  0  0
   49.5927   30.2665   42.7926 H   0  0  0  0  0  0  0  0  0  0  0  0
   47.8220   30.5686   42.7926 H   0  0  0  0  0  0  0  0  0  0  0  0
  1  6  2  0
  2  1  1  0
  3  2  2  0
  3  4  1  0
  4  5  2  0
  5  6  1  0
  5  7  1  0
  7  8  1  0
  8  9  2  0
 10 11  2  0
 10  9  1  0
 12 11  1  0
 13 12  2  0
 14 13  1  0
 14 15  2  0
 15  7  1  0
 15 10  1  0
 16 13  1  0
 17 16  1  0
  1 18  1  0
  2 19  1  0
  3 20  1  0
  8 21  1  0
 11 22  1  0
 16 23  1  0
 16 24  1  0
 17 25  1  0
 17 26  1  0
 17 27  1  0
M  ISO  8  18  14  19  14  20  14  21  14  22  14  23   8  24   8  25   8
M  ISO  2  26   8  27   8
M  END
>  <minimizedAffinity>  (1) 
-4.84527636

>  <minimizedRMSD>  (1) 
0.41330269

$$$$
