
     RDKit          3D

 24 26  0  0  0  0  0  0  0  0999 V2000
   44.5900   35.8990   44.3450 C   0  0  0  0  0  0  0  0  0  0  0  0
   45.4490   35.7370   43.2560 C   0  0  0  0  0  0  0  0  0  0  0  0
   46.3790   34.6860   43.2940 C   0  0  0  0  0  0  0  0  0  0  0  0
   46.4060   33.8720   44.3800 N   0  0  0  0  0  0  0  0  0  0  0  0
   45.5450   34.0710   45.4200 C   0  0  0  0  0  0  0  0  0  0  0  0
   44.6430   35.0740   45.4080 N   0  0  0  0  0  0  0  0  0  0  0  0
   45.6760   33.1390   46.5120 N   0  0  0  0  0  0  0  0  0  0  0  0
   45.1450   33.2000   47.7540 C   0  0  0  0  0  0  0  0  0  0  0  0
   45.5460   32.1050   48.4160 N   0  0  0  0  0  0  0  0  0  0  0  0
   46.3240   31.3420   47.6290 C   0  0  0  0  0  0  0  0  0  0  0  0
   46.9760   30.1230   47.8490 C   0  0  0  0  0  0  0  0  0  0  0  0
   47.6820   29.6410   46.8150 N   0  0  0  0  0  0  0  0  0  0  0  0
   47.7460   30.2990   45.6500 C   0  0  0  0  0  0  0  0  0  0  0  0
   47.1210   31.4860   45.4070 N   0  0  0  0  0  0  0  0  0  0  0  0
   46.4030   32.0010   46.4280 C   0  0  0  0  0  0  0  0  0  0  0  0
   48.5410   29.7430   44.5040 C   0  0  0  0  0  0  0  0  0  0  0  0
   48.9710   30.7750   43.6900 F   0  0  0  0  0  0  0  0  0  0  0  0
   47.7870   28.8850   43.7380 F   0  0  0  0  0  0  0  0  0  0  0  0
   49.6810   29.1420   44.9960 F   0  0  0  0  0  0  0  0  0  0  0  0
   43.8550   36.7173   44.3343 H   0  0  0  0  0  0  0  0  0  0  0  0
   45.3983   36.4150   42.3913 H   0  0  0  0  0  0  0  0  0  0  0  0
   47.0746   34.5247   42.4572 H   0  0  0  0  0  0  0  0  0  0  0  0
   44.5023   34.0007   48.1488 H   0  0  0  0  0  0  0  0  0  0  0  0
   46.9133   29.5928   48.8107 H   0  0  0  0  0  0  0  0  0  0  0  0
  1  6  2  0
  2  3  2  0
  2  1  1  0
  3  4  1  0
  4  5  2  0
  5  7  1  0
  6  5  1  0
  7  8  1  0
  8  9  2  0
 10 11  2  0
 10  9  1  0
 12 11  1  0
 13 12  2  0
 14 13  1  0
 14 15  2  0
 15  7  1  0
 15 10  1  0
 16 19  1  0
 16 13  1  0
 17 16  1  0
 18 16  1  0
  1 20  1  0
  2 21  1  0
  3 22  1  0
  8 23  1  0
 11 24  1  0
M  ISO  5  20  14  21  14  22  14  23  14  24  14
M  END
>  <minimizedAffinity>  (1) 
-4.89872932

>  <minimizedRMSD>  (1) 
0.210640237

$$$$
