
     RDKit          3D

 27 29  0  0  0  0  0  0  0  0999 V2000
   44.4640   36.0250   44.4710 C   0  0  0  0  0  0  0  0  0  0  0  0
   45.1400   36.1130   43.2580 C   0  0  0  0  0  0  0  0  0  0  0  0
   46.1300   35.1520   42.9720 C   0  0  0  0  0  0  0  0  0  0  0  0
   46.3750   34.1850   43.8910 N   0  0  0  0  0  0  0  0  0  0  0  0
   45.6880   34.1430   45.0570 C   0  0  0  0  0  0  0  0  0  0  0  0
   44.7400   35.0460   45.3560 N   0  0  0  0  0  0  0  0  0  0  0  0
   46.0370   33.0620   45.9610 N   0  0  0  0  0  0  0  0  0  0  0  0
   45.6940   32.8660   47.2460 C   0  0  0  0  0  0  0  0  0  0  0  0
   46.2600   31.7260   47.6410 N   0  0  0  0  0  0  0  0  0  0  0  0
   46.9660   31.1700   46.6470 C   0  0  0  0  0  0  0  0  0  0  0  0
   47.7230   30.0080   46.5510 C   0  0  0  0  0  0  0  0  0  0  0  0
   48.3030   29.7620   45.3770 N   0  0  0  0  0  0  0  0  0  0  0  0
   48.1550   30.6010   44.3420 C   0  0  0  0  0  0  0  0  0  0  0  0
   47.4200   31.7480   44.4010 N   0  0  0  0  0  0  0  0  0  0  0  0
   46.8220   32.0260   45.5710 C   0  0  0  0  0  0  0  0  0  0  0  0
   48.8080   30.3250   43.0230 C   0  0  0  0  0  0  0  0  0  0  0  0
   48.7400   31.4580   42.2150 F   0  0  0  0  0  0  0  0  0  0  0  0
   48.2070   29.2910   42.3660 F   0  0  0  0  0  0  0  0  0  0  0  0
   50.1630   30.1130   43.2370 F   0  0  0  0  0  0  0  0  0  0  0  0
   47.8670   29.1110   47.6930 C   0  0  0  0  0  0  0  0  0  0  0  0
   47.7430   27.8740   47.5370 O   0  0  0  0  0  0  0  0  0  0  0  0
   48.1410   29.6750   48.9330 O   0  0  0  0  0  0  0  0  0  0  0  0
   43.6898   36.7682   44.7125 H   0  0  0  0  0  0  0  0  0  0  0  0
   44.9073   36.9132   42.5400 H   0  0  0  0  0  0  0  0  0  0  0  0
   46.6907   35.1852   42.0262 H   0  0  0  0  0  0  0  0  0  0  0  0
   45.0621   33.5256   47.8589 H   0  0  0  0  0  0  0  0  0  0  0  0
   48.2448   29.0950   49.7286 H   0  0  0  0  0  0  0  0  0  0  0  0
  1  6  2  0
  2  1  1  0
  3  2  2  0
  3  4  1  0
  4  5  2  0
  5  6  1  0
  5  7  1  0
  7  8  1  0
  8  9  2  0
 10  9  1  0
 11 10  2  0
 11 20  1  0
 12 11  1  0
 13 14  1  0
 13 12  2  0
 14 15  2  0
 15  7  1  0
 15 10  1  0
 16 19  1  0
 16 13  1  0
 17 16  1  0
 18 16  1  0
 20 22  1  0
 21 20  2  0
  1 23  1  0
  2 24  1  0
  3 25  1  0
  8 26  1  0
 22 27  1  0
M  ISO  5  23  14  24  14  25  14  26  14  27   3
M  END
>  <minimizedAffinity>  (1) 
-5.16501093

>  <minimizedRMSD>  (1) 
1.28114712

$$$$
