
     RDKit          3D

 31 34  0  0  0  0  0  0  0  0999 V2000
   44.4470   35.9900   44.4530 C   0  0  0  0  0  0  0  0  0  0  0  0
   45.1180   36.0950   43.2410 C   0  0  0  0  0  0  0  0  0  0  0  0
   46.1260   35.1600   42.9690 C   0  0  0  0  0  0  0  0  0  0  0  0
   46.4100   34.1960   43.8820 N   0  0  0  0  0  0  0  0  0  0  0  0
   45.7160   34.1430   45.0560 C   0  0  0  0  0  0  0  0  0  0  0  0
   44.7370   35.0310   45.3500 N   0  0  0  0  0  0  0  0  0  0  0  0
   46.0930   33.0800   45.9630 N   0  0  0  0  0  0  0  0  0  0  0  0
   45.7810   32.9010   47.2550 C   0  0  0  0  0  0  0  0  0  0  0  0
   46.3690   31.7640   47.6580 N   0  0  0  0  0  0  0  0  0  0  0  0
   47.0570   31.2020   46.6500 C   0  0  0  0  0  0  0  0  0  0  0  0
   47.8230   30.0460   46.5510 C   0  0  0  0  0  0  0  0  0  0  0  0
   48.3760   29.7920   45.3600 N   0  0  0  0  0  0  0  0  0  0  0  0
   48.1920   30.6200   44.3250 C   0  0  0  0  0  0  0  0  0  0  0  0
   47.4530   31.7560   44.3800 N   0  0  0  0  0  0  0  0  0  0  0  0
   46.8780   32.0460   45.5700 C   0  0  0  0  0  0  0  0  0  0  0  0
   48.8190   30.3240   42.9930 C   0  0  0  0  0  0  0  0  0  0  0  0
   48.7280   31.4470   42.1740 F   0  0  0  0  0  0  0  0  0  0  0  0
   48.1960   29.2830   42.3690 F   0  0  0  0  0  0  0  0  0  0  0  0
   50.1800   30.1140   43.1700 F   0  0  0  0  0  0  0  0  0  0  0  0
   47.9930   29.1570   47.7430 C   0  0  0  0  0  0  0  0  0  0  0  0
   49.1090   28.2240   47.8800 C   0  0  0  0  0  0  0  0  0  0  0  0
   49.1910   29.4760   48.6420 C   0  0  0  0  0  0  0  0  0  0  0  0
   43.6530   36.7146   44.6864 H   0  0  0  0  0  0  0  0  0  0  0  0
   44.8665   36.8857   42.5189 H   0  0  0  0  0  0  0  0  0  0  0  0
   46.6835   35.2068   42.0219 H   0  0  0  0  0  0  0  0  0  0  0  0
   45.1572   33.5648   47.8716 H   0  0  0  0  0  0  0  0  0  0  0  0
   46.9036   29.0325   47.8309 H   0  0  0  0  0  0  0  0  0  0  0  0
   48.9581   27.2742   48.4139 H   0  0  0  0  0  0  0  0  0  0  0  0
   49.7768   27.7278   47.1604 H   0  0  0  0  0  0  0  0  0  0  0  0
   49.9103   30.2560   48.3517 H   0  0  0  0  0  0  0  0  0  0  0  0
   49.3331   29.7475   49.6984 H   0  0  0  0  0  0  0  0  0  0  0  0
  1  6  2  0
  2  1  1  0
  3  2  2  0
  3  4  1  0
  4  5  2  0
  5  6  1  0
  5  7  1  0
  7  8  1  0
  8  9  2  0
 10  9  1  0
 11 10  2  0
 11 20  1  0
 12 11  1  0
 13 14  1  0
 13 12  2  0
 14 15  2  0
 15  7  1  0
 15 10  1  0
 16 19  1  0
 16 13  1  0
 17 16  1  0
 18 16  1  0
 20 21  1  0
 20 22  1  0
 21 22  1  0
  1 23  1  0
  2 24  1  0
  3 25  1  0
  8 26  1  0
 20 27  1  0
 21 28  1  0
 21 29  1  0
 22 30  1  0
 22 31  1  0
M  ISO  8  23  14  24  14  25  14  26  14  27  13  28  13  29  13  30  13
M  ISO  1  31  13
M  END
>  <minimizedAffinity>  (1) 
-4.9833827

>  <minimizedRMSD>  (1) 
1.37652564

$$$$
