
     RDKit          3D

 41 45  0  0  0  0  0  0  0  0999 V2000
   44.4570   36.0160   44.4580 C   0  0  0  0  0  0  0  0  0  0  0  0
   45.1330   36.0960   43.2400 C   0  0  0  0  0  0  0  0  0  0  0  0
   46.1150   35.1400   42.9730 C   0  0  0  0  0  0  0  0  0  0  0  0
   46.3700   34.1830   43.8990 N   0  0  0  0  0  0  0  0  0  0  0  0
   45.6790   34.1410   45.0910 C   0  0  0  0  0  0  0  0  0  0  0  0
   44.7320   35.0510   45.3620 N   0  0  0  0  0  0  0  0  0  0  0  0
   46.0580   33.0780   45.9650 N   0  0  0  0  0  0  0  0  0  0  0  0
   45.7380   32.8900   47.2630 C   0  0  0  0  0  0  0  0  0  0  0  0
   46.3200   31.7620   47.6720 N   0  0  0  0  0  0  0  0  0  0  0  0
   47.0120   31.2070   46.6760 C   0  0  0  0  0  0  0  0  0  0  0  0
   47.7790   30.0480   46.5990 C   0  0  0  0  0  0  0  0  0  0  0  0
   48.3420   29.7920   45.4140 N   0  0  0  0  0  0  0  0  0  0  0  0
   48.1700   30.6150   44.3660 C   0  0  0  0  0  0  0  0  0  0  0  0
   47.4270   31.7490   44.4200 N   0  0  0  0  0  0  0  0  0  0  0  0
   46.8410   32.0400   45.6080 C   0  0  0  0  0  0  0  0  0  0  0  0
   48.8070   30.3110   43.0360 C   0  0  0  0  0  0  0  0  0  0  0  0
   48.6590   31.3890   42.1910 F   0  0  0  0  0  0  0  0  0  0  0  0
   48.1740   29.2190   42.4500 F   0  0  0  0  0  0  0  0  0  0  0  0
   50.1390   30.1060   43.2000 F   0  0  0  0  0  0  0  0  0  0  0  0
   47.9630   29.1510   47.7760 C   0  0  0  0  0  0  0  0  0  0  0  0
   49.4280   29.1450   48.1180 C   0  0  0  0  0  0  0  0  0  0  0  0
   50.3580   28.1630   47.8060 C   0  0  0  0  0  0  0  0  0  0  0  0
   51.5330   28.5960   48.3150 N   0  0  0  0  0  0  0  0  0  0  0  0
   51.3880   29.7740   48.9180 C   0  0  0  0  0  0  0  0  0  0  0  0
   52.2690   30.6240   49.5840 C   0  0  0  0  0  0  0  0  0  0  0  0
   51.7780   31.8010   50.1050 C   0  0  0  0  0  0  0  0  0  0  0  0
   50.4490   32.1810   49.9980 C   0  0  0  0  0  0  0  0  0  0  0  0
   49.6040   31.3320   49.3400 C   0  0  0  0  0  0  0  0  0  0  0  0
   50.0590   30.1570   48.8120 C   0  0  0  0  0  0  0  0  0  0  0  0
   43.6791   36.7589   44.6881 H   0  0  0  0  0  0  0  0  0  0  0  0
   44.8996   36.8876   42.5128 H   0  0  0  0  0  0  0  0  0  0  0  0
   46.6734   35.1629   42.0256 H   0  0  0  0  0  0  0  0  0  0  0  0
   45.1077   33.5513   47.8758 H   0  0  0  0  0  0  0  0  0  0  0  0
   47.3800   29.5275   48.6294 H   0  0  0  0  0  0  0  0  0  0  0  0
   47.6160   28.1332   47.5443 H   0  0  0  0  0  0  0  0  0  0  0  0
   50.1765   27.2266   47.2581 H   0  0  0  0  0  0  0  0  0  0  0  0
   52.4231   28.0823   48.2455 H   0  0  0  0  0  0  0  0  0  0  0  0
   53.3318   30.3612   49.6912 H   0  0  0  0  0  0  0  0  0  0  0  0
   52.4737   32.4713   50.6310 H   0  0  0  0  0  0  0  0  0  0  0  0
   50.0889   33.1283   50.4258 H   0  0  0  0  0  0  0  0  0  0  0  0
   48.5421   31.5986   49.2340 H   0  0  0  0  0  0  0  0  0  0  0  0
  1  6  2  0
  2  1  1  0
  3  2  2  0
  3  4  1  0
  4  5  2  0
  5  6  1  0
  5  7  1  0
  7  8  1  0
  8  9  2  0
 10  9  1  0
 11 10  2  0
 11 20  1  0
 12 11  1  0
 13 14  1  0
 13 12  2  0
 14 15  2  0
 15  7  1  0
 15 10  1  0
 16 19  1  0
 16 13  1  0
 17 16  1  0
 18 16  1  0
 20 21  1  0
 21 29  1  0
 22 21  2  0
 22 23  1  0
 23 24  1  0
 24 25  2  0
 25 26  1  0
 27 26  2  0
 28 27  1  0
 29 24  1  0
 29 28  2  0
  1 30  1  0
  2 31  1  0
  3 32  1  0
  8 33  1  0
 20 34  1  0
 20 35  1  0
 22 36  1  0
 23 37  1  0
 25 38  1  0
 26 39  1  0
 27 40  1  0
 28 41  1  0
M  ISO  8  30  14  31  14  32  14  33  14  34   8  35   8  36  14  37   9
M  ISO  4  38  14  39  14  40  14  41  14
M  END
>  <minimizedAffinity>  (1) 
-6.16392756

>  <minimizedRMSD>  (1) 
1.30875564

$$$$
