
     RDKit          3D

 40 44  0  0  0  0  0  0  0  0999 V2000
   44.4670   36.0260   44.4400 C   0  0  0  0  0  0  0  0  0  0  0  0
   45.1600   36.1080   43.2320 C   0  0  0  0  0  0  0  0  0  0  0  0
   46.1560   35.1360   42.9750 C   0  0  0  0  0  0  0  0  0  0  0  0
   46.3900   34.1790   43.9050 N   0  0  0  0  0  0  0  0  0  0  0  0
   45.6860   34.1370   45.0750 C   0  0  0  0  0  0  0  0  0  0  0  0
   44.7280   35.0580   45.3430 N   0  0  0  0  0  0  0  0  0  0  0  0
   46.0360   33.0790   45.9610 N   0  0  0  0  0  0  0  0  0  0  0  0
   45.6900   32.9010   47.2450 C   0  0  0  0  0  0  0  0  0  0  0  0
   46.2520   31.7670   47.6750 N   0  0  0  0  0  0  0  0  0  0  0  0
   46.9610   31.2000   46.6890 C   0  0  0  0  0  0  0  0  0  0  0  0
   47.7200   30.0320   46.6310 C   0  0  0  0  0  0  0  0  0  0  0  0
   48.3060   29.7690   45.4530 N   0  0  0  0  0  0  0  0  0  0  0  0
   48.1600   30.5980   44.3970 C   0  0  0  0  0  0  0  0  0  0  0  0
   47.4220   31.7450   44.4380 N   0  0  0  0  0  0  0  0  0  0  0  0
   46.8210   32.0330   45.6110 C   0  0  0  0  0  0  0  0  0  0  0  0
   48.8210   30.2960   43.0830 C   0  0  0  0  0  0  0  0  0  0  0  0
   48.7370   31.3920   42.2500 F   0  0  0  0  0  0  0  0  0  0  0  0
   48.2070   29.2300   42.4730 F   0  0  0  0  0  0  0  0  0  0  0  0
   50.1650   30.0800   43.2940 F   0  0  0  0  0  0  0  0  0  0  0  0
   47.8570   29.1490   47.8050 C   0  0  0  0  0  0  0  0  0  0  0  0
   49.1860   29.1580   48.3090 N   0  0  0  0  0  0  0  0  0  0  0  0
   50.0450   28.1020   48.2190 C   0  0  0  0  0  0  0  0  0  0  0  0
   51.2190   28.3880   48.7720 N   0  0  0  0  0  0  0  0  0  0  0  0
   51.1780   29.6470   49.2480 C   0  0  0  0  0  0  0  0  0  0  0  0
   52.0520   30.4830   49.9030 C   0  0  0  0  0  0  0  0  0  0  0  0
   51.6540   31.7230   50.2370 N   0  0  0  0  0  0  0  0  0  0  0  0
   50.3990   32.1670   49.9380 C   0  0  0  0  0  0  0  0  0  0  0  0
   49.5340   31.3550   49.2960 N   0  0  0  0  0  0  0  0  0  0  0  0
   49.8990   30.1270   48.9550 C   0  0  0  0  0  0  0  0  0  0  0  0
   53.3340   29.9400   50.1740 N   0  0  0  0  0  0  0  0  0  0  0  0
   43.6876   36.7698   44.6621 H   0  0  0  0  0  0  0  0  0  0  0  0
   44.9395   36.9020   42.5033 H   0  0  0  0  0  0  0  0  0  0  0  0
   46.7300   35.1571   42.0368 H   0  0  0  0  0  0  0  0  0  0  0  0
   45.0539   33.5721   47.8408 H   0  0  0  0  0  0  0  0  0  0  0  0
   47.1727   29.4941   48.5941 H   0  0  0  0  0  0  0  0  0  0  0  0
   47.6110   28.1223   47.4963 H   0  0  0  0  0  0  0  0  0  0  0  0
   49.7978   27.1385   47.7494 H   0  0  0  0  0  0  0  0  0  0  0  0
   50.0931   33.1853   50.2199 H   0  0  0  0  0  0  0  0  0  0  0  0
   54.0413   30.5081   50.6618 H   0  0  0  0  0  0  0  0  0  0  0  0
   53.5577   28.9776   49.8830 H   0  0  0  0  0  0  0  0  0  0  0  0
  1  6  2  0
  2  1  1  0
  3  2  2  0
  3  4  1  0
  4  5  2  0
  5  6  1  0
  5  7  1  0
  7  8  1  0
  8  9  2  0
 10  9  1  0
 11 10  2  0
 11 20  1  0
 12 11  1  0
 13 14  1  0
 13 12  2  0
 14 15  2  0
 15  7  1  0
 15 10  1  0
 16 19  1  0
 16 13  1  0
 17 16  1  0
 18 16  1  0
 20 21  1  0
 21 29  1  0
 22 21  1  0
 22 23  2  0
 23 24  1  0
 24 25  2  0
 25 30  1  0
 25 26  1  0
 27 26  2  0
 28 27  1  0
 29 24  1  0
 29 28  2  0
  1 31  1  0
  2 32  1  0
  3 33  1  0
  8 34  1  0
 20 35  1  0
 20 36  1  0
 22 37  1  0
 27 38  1  0
 30 39  1  0
 30 40  1  0
M  ISO  8  31  14  32  14  33  14  34  14  35   8  36   8  37  14  38  14
M  END
>  <minimizedAffinity>  (1) 
-6.01227427

>  <minimizedRMSD>  (1) 
2.60758209

$$$$
