
     RDKit          3D

 44 47  0  0  1  0  0  0  0  0999 V2000
   46.7330   33.7070   43.2020 C   0  0  2  0  0  0  0  0  0  0  0  0
   47.3560   31.6440   46.8900 C   0  0  0  0  0  0  0  0  0  0  0  0
   46.6080   31.3700   48.0310 C   0  0  0  0  0  0  0  0  0  0  0  0
   45.4330   32.1090   48.2470 C   0  0  0  0  0  0  0  0  0  0  0  0
   45.0840   33.0470   47.3430 N   0  0  0  0  0  0  0  0  0  0  0  0
   45.8300   33.3040   46.2260 C   0  0  0  0  0  0  0  0  0  0  0  0
   46.9510   32.5970   46.0220 N   0  0  0  0  0  0  0  0  0  0  0  0
   45.4890   34.2830   45.2720 N   0  0  0  0  0  0  0  0  0  0  0  0
   44.6150   35.2370   45.6940 C   0  0  0  0  0  0  0  0  0  0  0  0
   44.4410   36.0950   44.5890 C   0  0  0  0  0  0  0  0  0  0  0  0
   45.2080   35.6270   43.5580 N   0  0  0  0  0  0  0  0  0  0  0  0
   45.8330   34.5260   44.0020 C   0  0  0  0  0  0  0  0  0  0  0  0
   47.3140   34.6550   42.1090 C   0  0  0  0  0  0  0  0  0  0  0  0
   46.0090   32.6130   42.4900 C   0  0  0  0  0  0  0  0  0  0  0  0
   46.0560   32.7170   41.0760 N   0  0  0  0  0  0  0  0  0  0  0  0
   47.1290   32.4880   40.3180 N   0  0  0  0  0  0  0  0  0  0  0  0
   46.7890   32.6880   39.0230 C   0  0  0  0  0  0  0  0  0  0  0  0
   45.4500   33.0580   38.9550 C   0  0  0  0  0  0  0  0  0  0  0  0
   45.0110   33.0670   40.2740 C   0  0  0  0  0  0  0  0  0  0  0  0
   43.6800   33.3970   40.6600 N   0  0  0  0  0  0  0  0  0  0  0  0
   43.1530   34.6140   40.8950 C   0  0  0  0  0  0  0  0  0  0  0  0
   41.8300   34.7300   41.2640 C   0  0  0  0  0  0  0  0  0  0  0  0
   41.0030   33.6340   41.4050 C   0  0  0  0  0  0  0  0  0  0  0  0
   39.6370   33.8330   41.7920 N   0  0  0  0  0  0  0  0  0  0  0  0
   41.5600   32.4120   41.1620 N   0  0  0  0  0  0  0  0  0  0  0  0
   42.8550   32.3210   40.8030 C   0  0  0  0  0  0  0  0  0  0  0  0
   43.2160   31.1240   40.6140 O   0  0  0  0  0  0  0  0  0  0  0  0
   47.4921   33.2523   43.8554 H   0  0  0  0  0  0  0  0  0  0  0  0
   48.2812   31.0822   46.6938 H   0  0  0  0  0  0  0  0  0  0  0  0
   46.9280   30.5960   48.7442 H   0  0  0  0  0  0  0  0  0  0  0  0
   44.8104   31.9264   49.1352 H   0  0  0  0  0  0  0  0  0  0  0  0
   44.1450   35.3207   46.6850 H   0  0  0  0  0  0  0  0  0  0  0  0
   43.7987   36.9875   44.5609 H   0  0  0  0  0  0  0  0  0  0  0  0
   47.8305   35.4978   42.5915 H   0  0  0  0  0  0  0  0  0  0  0  0
   48.0265   34.0987   41.4822 H   0  0  0  0  0  0  0  0  0  0  0  0
   46.4949   35.0373   41.4822 H   0  0  0  0  0  0  0  0  0  0  0  0
   46.4594   31.6528   42.7817 H   0  0  0  0  0  0  0  0  0  0  0  0
   44.9508   32.6891   42.7804 H   0  0  0  0  0  0  0  0  0  0  0  0
   47.4641   32.5758   38.1618 H   0  0  0  0  0  0  0  0  0  0  0  0
   44.8653   33.2926   38.0533 H   0  0  0  0  0  0  0  0  0  0  0  0
   43.7773   35.5138   40.7926 H   0  0  0  0  0  0  0  0  0  0  0  0
   41.4184   35.7324   41.4530 H   0  0  0  0  0  0  0  0  0  0  0  0
   39.0094   33.0236   41.9007 H   0  0  0  0  0  0  0  0  0  0  0  0
   39.2832   34.7854   41.9613 H   0  0  0  0  0  0  0  0  0  0  0  0
  1 12  1  0
  2  3  2  0
  3  4  1  0
  5  4  2  0
  6  5  1  0
  7  6  2  0
  7  2  1  0
  8  9  1  0
  8  6  1  0
 10  9  2  0
 11 12  2  0
 11 10  1  0
 12  8  1  0
 13  1  1  0
 14  1  1  0
 15 14  1  0
 16 15  1  0
 17 16  2  0
 18 17  1  0
 18 19  2  0
 19 20  1  0
 19 15  1  0
 20 26  1  0
 20 21  1  0
 21 22  2  0
 22 23  1  0
 23 24  1  0
 25 23  2  0
 26 25  1  0
 27 26  2  0
  1 28  1  1
  2 29  1  0
  3 30  1  0
  4 31  1  0
  9 32  1  0
 10 33  1  0
 13 34  1  0
 13 35  1  0
 13 36  1  0
 14 37  1  0
 14 38  1  0
 17 39  1  0
 18 40  1  0
 21 41  1  0
 22 42  1  0
 24 43  1  0
 24 44  1  0
M  ISO  8  28   8  29  14  30  14  31  14  32  14  33  14  34   8  35   8
M  ISO  7  36   8  37   8  38   8  39  14  40  14  41  14  42  14
M  END
>  <minimizedAffinity>  (1) 
-5.99168777

>  <minimizedRMSD>  (1) 
8.37785912

$$$$
