
     RDKit          3D

 37 40  0  0  0  0  0  0  0  0999 V2000
   44.4140   36.1140   44.3010 C   0  0  0  0  0  0  0  0  0  0  0  0
   45.0840   36.1660   43.0770 C   0  0  0  0  0  0  0  0  0  0  0  0
   46.0730   35.1990   42.8270 C   0  0  0  0  0  0  0  0  0  0  0  0
   46.3430   34.2650   43.7630 N   0  0  0  0  0  0  0  0  0  0  0  0
   45.6540   34.2560   44.9560 C   0  0  0  0  0  0  0  0  0  0  0  0
   44.6970   35.1680   45.2300 N   0  0  0  0  0  0  0  0  0  0  0  0
   46.0270   33.2130   45.8760 N   0  0  0  0  0  0  0  0  0  0  0  0
   45.7020   33.0490   47.1610 C   0  0  0  0  0  0  0  0  0  0  0  0
   46.2770   31.9380   47.6120 N   0  0  0  0  0  0  0  0  0  0  0  0
   46.9860   31.3610   46.6320 C   0  0  0  0  0  0  0  0  0  0  0  0
   47.7560   30.1980   46.5840 C   0  0  0  0  0  0  0  0  0  0  0  0
   48.3320   29.9150   45.4050 N   0  0  0  0  0  0  0  0  0  0  0  0
   48.1650   30.7210   44.3320 C   0  0  0  0  0  0  0  0  0  0  0  0
   47.4150   31.8590   44.3650 N   0  0  0  0  0  0  0  0  0  0  0  0
   46.8240   32.1730   45.5360 C   0  0  0  0  0  0  0  0  0  0  0  0
   48.8010   30.4030   43.0070 C   0  0  0  0  0  0  0  0  0  0  0  0
   48.7250   31.4760   42.1710 F   0  0  0  0  0  0  0  0  0  0  0  0
   48.1180   29.3470   42.4100 F   0  0  0  0  0  0  0  0  0  0  0  0
   50.1090   30.0980   43.2010 F   0  0  0  0  0  0  0  0  0  0  0  0
   47.9200   29.3220   47.7670 C   0  0  0  0  0  0  0  0  0  0  0  0
   49.0730   29.6400   48.6130 C   0  0  0  0  0  0  0  0  0  0  0  0
   48.9740   30.5750   49.6480 C   0  0  0  0  0  0  0  0  0  0  0  0
   50.0950   30.8590   50.4330 C   0  0  0  0  0  0  0  0  0  0  0  0
   51.3110   30.2330   50.2080 C   0  0  0  0  0  0  0  0  0  0  0  0
   51.4550   29.2930   49.1860 C   0  0  0  0  0  0  0  0  0  0  0  0
   50.3240   29.0490   48.4430 C   0  0  0  0  0  0  0  0  0  0  0  0
   43.6357   36.8606   44.5173 H   0  0  0  0  0  0  0  0  0  0  0  0
   44.8454   36.9393   42.3320 H   0  0  0  0  0  0  0  0  0  0  0  0
   46.6234   35.2035   41.8746 H   0  0  0  0  0  0  0  0  0  0  0  0
   45.0629   33.7231   47.7502 H   0  0  0  0  0  0  0  0  0  0  0  0
   47.0116   29.4041   48.3819 H   0  0  0  0  0  0  0  0  0  0  0  0
   48.0918   28.3072   47.3789 H   0  0  0  0  0  0  0  0  0  0  0  0
   48.0188   31.0844   49.8434 H   0  0  0  0  0  0  0  0  0  0  0  0
   50.0104   31.5947   51.2464 H   0  0  0  0  0  0  0  0  0  0  0  0
   52.1743   30.4802   50.8433 H   0  0  0  0  0  0  0  0  0  0  0  0
   52.4089   28.7820   48.9884 H   0  0  0  0  0  0  0  0  0  0  0  0
   50.4158   28.3121   47.6315 H   0  0  0  0  0  0  0  0  0  0  0  0
  1  6  2  0
  2  1  1  0
  3  2  2  0
  3  4  1  0
  4  5  2  0
  5  6  1  0
  5  7  1  0
  7  8  1  0
  8  9  2  0
 10  9  1  0
 11 10  2  0
 11 20  1  0
 12 11  1  0
 13 14  1  0
 13 12  2  0
 14 15  2  0
 15  7  1  0
 15 10  1  0
 16 19  1  0
 16 13  1  0
 17 16  1  0
 18 16  1  0
 20 21  1  0
 21 22  2  0
 22 23  1  0
 24 23  2  0
 25 24  1  0
 26 21  1  0
 26 25  2  0
  1 27  1  0
  2 28  1  0
  3 29  1  0
  8 30  1  0
 20 31  1  0
 20 32  1  0
 22 33  1  0
 23 34  1  0
 24 35  1  0
 25 36  1  0
 26 37  1  0
M  ISO  8  27  14  28  14  29  14  30  14  31   8  32   8  33  14  34  14
M  ISO  3  35  14  36  14  37  14
M  END
>  <minimizedAffinity>  (1) 
-5.73057747

>  <minimizedRMSD>  (1) 
0.593110621

$$$$
