
     RDKit          3D

 41 45  0  0  0  0  0  0  0  0999 V2000
   44.4680   35.9720   44.4540 C   0  0  0  0  0  0  0  0  0  0  0  0
   45.1820   36.0860   43.2530 C   0  0  0  0  0  0  0  0  0  0  0  0
   46.1890   35.1420   42.9970 C   0  0  0  0  0  0  0  0  0  0  0  0
   46.4280   34.1740   43.9100 N   0  0  0  0  0  0  0  0  0  0  0  0
   45.7080   34.1010   45.0640 C   0  0  0  0  0  0  0  0  0  0  0  0
   44.7280   35.0020   45.3360 N   0  0  0  0  0  0  0  0  0  0  0  0
   46.0560   33.0280   45.9510 N   0  0  0  0  0  0  0  0  0  0  0  0
   45.7130   32.8140   47.2250 C   0  0  0  0  0  0  0  0  0  0  0  0
   46.2790   31.6810   47.6300 N   0  0  0  0  0  0  0  0  0  0  0  0
   46.9920   31.1430   46.6350 C   0  0  0  0  0  0  0  0  0  0  0  0
   47.7600   29.9760   46.5590 C   0  0  0  0  0  0  0  0  0  0  0  0
   48.3460   29.7470   45.3780 N   0  0  0  0  0  0  0  0  0  0  0  0
   48.1990   30.5930   44.3410 C   0  0  0  0  0  0  0  0  0  0  0  0
   47.4570   31.7320   44.3970 N   0  0  0  0  0  0  0  0  0  0  0  0
   46.8510   31.9940   45.5710 C   0  0  0  0  0  0  0  0  0  0  0  0
   48.8770   30.3110   43.0290 C   0  0  0  0  0  0  0  0  0  0  0  0
   48.7430   31.4000   42.1970 F   0  0  0  0  0  0  0  0  0  0  0  0
   48.3060   29.2260   42.4120 F   0  0  0  0  0  0  0  0  0  0  0  0
   50.2260   30.1400   43.2420 F   0  0  0  0  0  0  0  0  0  0  0  0
   47.9200   29.0570   47.7090 C   0  0  0  0  0  0  0  0  0  0  0  0
   49.0950   29.3290   48.5360 C   0  0  0  0  0  0  0  0  0  0  0  0
   49.5220   30.5820   48.8090 N   0  0  0  0  0  0  0  0  0  0  0  0
   50.6330   30.6760   49.5920 C   0  0  0  0  0  0  0  0  0  0  0  0
   51.3050   29.6060   50.0930 N   0  0  0  0  0  0  0  0  0  0  0  0
   50.8860   28.3410   49.8250 C   0  0  0  0  0  0  0  0  0  0  0  0
   51.5960   27.2810   50.3520 C   0  0  0  0  0  0  0  0  0  0  0  0
   51.1450   26.0060   50.0640 C   0  0  0  0  0  0  0  0  0  0  0  0
   50.0230   25.8150   49.2740 C   0  0  0  0  0  0  0  0  0  0  0  0
   49.3620   26.9340   48.7810 C   0  0  0  0  0  0  0  0  0  0  0  0
   49.7710   28.2290   49.0400 C   0  0  0  0  0  0  0  0  0  0  0  0
   43.6734   36.6995   44.6762 H   0  0  0  0  0  0  0  0  0  0  0  0
   44.9604   36.8890   42.5346 H   0  0  0  0  0  0  0  0  0  0  0  0
   46.7750   35.1892   42.0673 H   0  0  0  0  0  0  0  0  0  0  0  0
   45.0706   33.4655   47.8356 H   0  0  0  0  0  0  0  0  0  0  0  0
   47.0252   29.1396   48.3435 H   0  0  0  0  0  0  0  0  0  0  0  0
   48.0549   28.0486   47.2908 H   0  0  0  0  0  0  0  0  0  0  0  0
   51.0098   31.6808   49.8339 H   0  0  0  0  0  0  0  0  0  0  0  0
   52.4863   27.4443   50.9770 H   0  0  0  0  0  0  0  0  0  0  0  0
   51.6825   25.1346   50.4662 H   0  0  0  0  0  0  0  0  0  0  0  0
   49.6637   24.8015   49.0423 H   0  0  0  0  0  0  0  0  0  0  0  0
   48.4706   26.7819   48.1547 H   0  0  0  0  0  0  0  0  0  0  0  0
  1  6  2  0
  2  1  1  0
  3  2  2  0
  3  4  1  0
  4  5  2  0
  5  6  1  0
  5  7  1  0
  7  8  1  0
  8  9  2  0
 10  9  1  0
 11 10  2  0
 11 20  1  0
 12 11  1  0
 13 14  1  0
 13 12  2  0
 14 15  2  0
 15  7  1  0
 15 10  1  0
 16 19  1  0
 16 13  1  0
 17 16  1  0
 18 16  1  0
 20 21  1  0
 21 22  2  0
 21 30  1  0
 22 23  1  0
 23 24  2  0
 25 24  1  0
 25 26  2  0
 27 26  1  0
 28 27  2  0
 29 30  2  0
 29 28  1  0
 30 25  1  0
  1 31  1  0
  2 32  1  0
  3 33  1  0
  8 34  1  0
 20 35  1  0
 20 36  1  0
 23 37  1  0
 26 38  1  0
 27 39  1  0
 28 40  1  0
 29 41  1  0
M  ISO  8  31  14  32  14  33  14  34  14  35   8  36   8  37  14  38  14
M  ISO  3  39  14  40  14  41  14
M  END
>  <minimizedAffinity>  (1) 
-5.8568182

>  <minimizedRMSD>  (1) 
2.78086448

$$$$
