
     RDKit          3D

 32 35  0  0  0  0  0  0  0  0999 V2000
   44.4560   36.0300   44.4610 C   0  0  0  0  0  0  0  0  0  0  0  0
   45.1450   36.1080   43.2510 C   0  0  0  0  0  0  0  0  0  0  0  0
   46.1350   35.1380   42.9620 C   0  0  0  0  0  0  0  0  0  0  0  0
   46.3720   34.1740   43.8770 N   0  0  0  0  0  0  0  0  0  0  0  0
   45.6720   34.1280   45.0650 C   0  0  0  0  0  0  0  0  0  0  0  0
   44.7290   35.0550   45.3330 N   0  0  0  0  0  0  0  0  0  0  0  0
   46.0420   33.0660   45.9380 N   0  0  0  0  0  0  0  0  0  0  0  0
   45.7110   32.8910   47.2360 C   0  0  0  0  0  0  0  0  0  0  0  0
   46.3020   31.7600   47.6610 N   0  0  0  0  0  0  0  0  0  0  0  0
   47.0030   31.2050   46.6710 C   0  0  0  0  0  0  0  0  0  0  0  0
   47.7830   30.0530   46.6020 C   0  0  0  0  0  0  0  0  0  0  0  0
   48.3560   29.8010   45.4210 N   0  0  0  0  0  0  0  0  0  0  0  0
   48.1850   30.6160   44.3650 C   0  0  0  0  0  0  0  0  0  0  0  0
   47.4290   31.7460   44.4130 N   0  0  0  0  0  0  0  0  0  0  0  0
   46.8350   32.0320   45.5910 C   0  0  0  0  0  0  0  0  0  0  0  0
   48.8430   30.3250   43.0440 C   0  0  0  0  0  0  0  0  0  0  0  0
   48.7250   31.4160   42.2140 F   0  0  0  0  0  0  0  0  0  0  0  0
   48.2600   29.2340   42.4530 F   0  0  0  0  0  0  0  0  0  0  0  0
   50.1950   30.1450   43.2570 F   0  0  0  0  0  0  0  0  0  0  0  0
   47.9910   29.1920   47.7750 C   0  0  0  0  0  0  0  0  0  0  0  0
   48.9990   29.8970   48.6340 C   0  0  0  0  0  0  0  0  0  0  0  0
   50.3300   29.9250   48.3400 N   0  0  0  0  0  0  0  0  0  0  0  0
   50.9480   30.6120   49.2690 O   0  0  0  0  0  0  0  0  0  0  0  0
   50.1150   31.0400   50.1580 C   0  0  0  0  0  0  0  0  0  0  0  0
   48.8720   30.6080   49.7890 N   0  0  0  0  0  0  0  0  0  0  0  0
   43.6831   36.7756   44.6990 H   0  0  0  0  0  0  0  0  0  0  0  0
   44.9228   36.9106   42.5324 H   0  0  0  0  0  0  0  0  0  0  0  0
   46.6964   35.1690   42.0166 H   0  0  0  0  0  0  0  0  0  0  0  0
   45.0725   33.5546   47.8376 H   0  0  0  0  0  0  0  0  0  0  0  0
   47.0470   29.0600   48.3240 H   0  0  0  0  0  0  0  0  0  0  0  0
   48.3416   28.1913   47.4823 H   0  0  0  0  0  0  0  0  0  0  0  0
   50.3601   31.6403   51.0466 H   0  0  0  0  0  0  0  0  0  0  0  0
  1  6  2  0
  2  1  1  0
  3  2  2  0
  3  4  1  0
  4  5  2  0
  5  6  1  0
  5  7  1  0
  7  8  1  0
  8  9  2  0
 10  9  1  0
 11 10  2  0
 11 20  1  0
 12 11  1  0
 13 14  1  0
 13 12  2  0
 14 15  2  0
 15  7  1  0
 15 10  1  0
 16 19  1  0
 16 13  1  0
 17 16  1  0
 18 16  1  0
 20 21  1  0
 21 25  1  0
 22 21  2  0
 22 23  1  0
 23 24  1  0
 25 24  2  0
  1 26  1  0
  2 27  1  0
  3 28  1  0
  8 29  1  0
 20 30  1  0
 20 31  1  0
 24 32  1  0
M  ISO  7  26  14  27  14  28  14  29  14  30   8  31   8  32  14
M  END
>  <minimizedAffinity>  (1) 
-5.5136075

>  <minimizedRMSD>  (1) 
0.280328155

$$$$
