
     RDKit          3D

 34 37  0  0  0  0  0  0  0  0999 V2000
   44.4320   35.9550   44.5340 C   0  0  0  0  0  0  0  0  0  0  0  0
   45.0090   35.9860   43.2470 C   0  0  0  0  0  0  0  0  0  0  0  0
   45.9770   35.0100   42.9350 C   0  0  0  0  0  0  0  0  0  0  0  0
   46.3060   34.0950   43.8660 N   0  0  0  0  0  0  0  0  0  0  0  0
   45.7190   34.0990   45.1090 C   0  0  0  0  0  0  0  0  0  0  0  0
   44.7980   35.0160   45.4320 N   0  0  0  0  0  0  0  0  0  0  0  0
   46.1780   33.0760   46.0010 N   0  0  0  0  0  0  0  0  0  0  0  0
   45.9730   32.9340   47.3150 C   0  0  0  0  0  0  0  0  0  0  0  0
   46.6130   31.8390   47.7330 N   0  0  0  0  0  0  0  0  0  0  0  0
   47.2390   31.2560   46.7110 C   0  0  0  0  0  0  0  0  0  0  0  0
   48.0260   30.1130   46.6260 C   0  0  0  0  0  0  0  0  0  0  0  0
   48.4990   29.8110   45.4080 N   0  0  0  0  0  0  0  0  0  0  0  0
   48.2200   30.5860   44.3310 C   0  0  0  0  0  0  0  0  0  0  0  0
   47.4550   31.7050   44.3980 N   0  0  0  0  0  0  0  0  0  0  0  0
   46.9630   32.0340   45.6150 C   0  0  0  0  0  0  0  0  0  0  0  0
   48.7430   30.2310   42.9770 C   0  0  0  0  0  0  0  0  0  0  0  0
   48.4170   31.2180   42.0660 F   0  0  0  0  0  0  0  0  0  0  0  0
   48.1390   29.0600   42.5220 F   0  0  0  0  0  0  0  0  0  0  0  0
   50.0960   30.1220   43.0190 F   0  0  0  0  0  0  0  0  0  0  0  0
   48.3260   29.2820   47.8120 C   0  0  0  0  0  0  0  0  0  0  0  0
   49.5900   29.6470   48.5240 C   0  0  0  0  0  0  0  0  0  0  0  0
   49.3360   30.2540   49.9060 C   0  0  0  0  0  0  0  0  0  0  0  0
   49.9960   28.9290   49.7720 C   0  0  0  0  0  0  0  0  0  0  0  0
   43.6753   36.7045   44.8088 H   0  0  0  0  0  0  0  0  0  0  0  0
   44.7129   36.7475   42.5105 H   0  0  0  0  0  0  0  0  0  0  0  0
   46.4566   34.9962   41.9452 H   0  0  0  0  0  0  0  0  0  0  0  0
   45.3759   33.6078   47.9470 H   0  0  0  0  0  0  0  0  0  0  0  0
   47.4913   29.3823   48.5214 H   0  0  0  0  0  0  0  0  0  0  0  0
   48.4599   28.2532   47.4463 H   0  0  0  0  0  0  0  0  0  0  0  0
   50.1329   29.8874   47.5980 H   0  0  0  0  0  0  0  0  0  0  0  0
   49.9153   31.1275   50.2397 H   0  0  0  0  0  0  0  0  0  0  0  0
   48.4544   30.6371   50.4409 H   0  0  0  0  0  0  0  0  0  0  0  0
   49.4584   28.0190   50.0767 H   0  0  0  0  0  0  0  0  0  0  0  0
   50.9411   28.5019   50.1386 H   0  0  0  0  0  0  0  0  0  0  0  0
  1  6  2  0
  2  1  1  0
  3  2  2  0
  3  4  1  0
  4  5  2  0
  5  6  1  0
  5  7  1  0
  7  8  1  0
  8  9  2  0
 10  9  1  0
 11 10  2  0
 11 20  1  0
 12 11  1  0
 13 14  1  0
 13 12  2  0
 14 15  2  0
 15  7  1  0
 15 10  1  0
 16 19  1  0
 16 13  1  0
 17 16  1  0
 18 16  1  0
 20 21  1  0
 21 23  1  0
 21 22  1  0
 23 22  1  0
  1 24  1  0
  2 25  1  0
  3 26  1  0
  8 27  1  0
 20 28  1  0
 20 29  1  0
 21 30  1  0
 22 31  1  0
 22 32  1  0
 23 33  1  0
 23 34  1  0
M  ISO  8  24  14  25  14  26  14  27  14  28   8  29   8  30  13  31  13
M  ISO  3  32  13  33  13  34  13
M  END
>  <minimizedAffinity>  (1) 
-4.98563862

>  <minimizedRMSD>  (1) 
1.44645321

$$$$
