
     RDKit          3D

 34 37  0  0  0  0  0  0  0  0999 V2000
   44.4850   36.2030   44.3330 C   0  0  0  0  0  0  0  0  0  0  0  0
   45.2250   36.2640   43.1410 C   0  0  0  0  0  0  0  0  0  0  0  0
   46.1820   35.2630   42.8870 C   0  0  0  0  0  0  0  0  0  0  0  0
   46.3470   34.2860   43.8040 N   0  0  0  0  0  0  0  0  0  0  0  0
   45.6080   34.2560   44.9570 C   0  0  0  0  0  0  0  0  0  0  0  0
   44.6830   35.2080   45.2220 N   0  0  0  0  0  0  0  0  0  0  0  0
   45.8990   33.1650   45.8390 N   0  0  0  0  0  0  0  0  0  0  0  0
   45.5140   32.9720   47.1110 C   0  0  0  0  0  0  0  0  0  0  0  0
   46.0360   31.8180   47.5310 N   0  0  0  0  0  0  0  0  0  0  0  0
   46.7540   31.2450   46.5720 C   0  0  0  0  0  0  0  0  0  0  0  0
   47.4860   30.0510   46.5100 C   0  0  0  0  0  0  0  0  0  0  0  0
   48.0890   29.7990   45.3440 N   0  0  0  0  0  0  0  0  0  0  0  0
   47.9910   30.6540   44.2970 C   0  0  0  0  0  0  0  0  0  0  0  0
   47.2920   31.8120   44.3310 N   0  0  0  0  0  0  0  0  0  0  0  0
   46.6630   32.1060   45.4980 C   0  0  0  0  0  0  0  0  0  0  0  0
   48.6770   30.3410   42.9910 C   0  0  0  0  0  0  0  0  0  0  0  0
   48.5930   31.4240   42.1490 F   0  0  0  0  0  0  0  0  0  0  0  0
   48.0440   29.2600   42.3790 F   0  0  0  0  0  0  0  0  0  0  0  0
   49.9940   30.0990   43.2120 F   0  0  0  0  0  0  0  0  0  0  0  0
   47.5750   29.1450   47.6670 C   0  0  0  0  0  0  0  0  0  0  0  0
   46.5220   28.1580   47.5550 N   0  0  0  0  0  0  0  0  0  0  0  0
   45.1850   28.2600   47.7420 C   0  0  0  0  0  0  0  0  0  0  0  0
   44.5650   27.0380   47.5150 C   0  0  0  0  0  0  0  0  0  0  0  0
   45.5620   26.1870   47.1840 N   0  0  0  0  0  0  0  0  0  0  0  0
   46.7080   26.8730   47.2140 C   0  0  0  0  0  0  0  0  0  0  0  0
   43.7332   36.9776   44.5447 H   0  0  0  0  0  0  0  0  0  0  0  0
   45.0602   37.0780   42.4198 H   0  0  0  0  0  0  0  0  0  0  0  0
   46.7805   35.2767   41.9642 H   0  0  0  0  0  0  0  0  0  0  0  0
   44.8791   33.6474   47.7033 H   0  0  0  0  0  0  0  0  0  0  0  0
   48.5545   28.6445   47.6727 H   0  0  0  0  0  0  0  0  0  0  0  0
   47.4632   29.7133   48.6022 H   0  0  0  0  0  0  0  0  0  0  0  0
   44.6621   29.1829   48.0334 H   0  0  0  0  0  0  0  0  0  0  0  0
   43.4912   26.8109   47.5888 H   0  0  0  0  0  0  0  0  0  0  0  0
   47.6909   26.4352   46.9856 H   0  0  0  0  0  0  0  0  0  0  0  0
  1  6  2  0
  2  1  1  0
  3  2  2  0
  3  4  1  0
  4  5  2  0
  5  6  1  0
  5  7  1  0
  7  8  1  0
  8  9  2  0
 10  9  1  0
 11 10  2  0
 11 20  1  0
 12 11  1  0
 13 14  1  0
 13 12  2  0
 14 15  2  0
 15  7  1  0
 15 10  1  0
 16 19  1  0
 16 13  1  0
 17 16  1  0
 18 16  1  0
 21 20  1  0
 21 22  1  0
 23 22  2  0
 24 25  2  0
 24 23  1  0
 25 21  1  0
  1 26  1  0
  2 27  1  0
  3 28  1  0
  8 29  1  0
 20 30  1  0
 20 31  1  0
 22 32  1  0
 23 33  1  0
 25 34  1  0
M  ISO  8  26  14  27  14  28  14  29  14  30   8  31   8  32  14  33  14
M  ISO  1  34  14
M  END
>  <minimizedAffinity>  (1) 
-5.08634377

>  <minimizedRMSD>  (1) 
0.474008501

$$$$
