
     RDKit          3D

 34 37  0  0  0  0  0  0  0  0999 V2000
   44.4080   36.1460   44.2410 C   0  0  0  0  0  0  0  0  0  0  0  0
   45.1110   36.2000   43.0280 C   0  0  0  0  0  0  0  0  0  0  0  0
   46.1150   35.2310   42.7920 C   0  0  0  0  0  0  0  0  0  0  0  0
   46.3520   34.3010   43.7370 N   0  0  0  0  0  0  0  0  0  0  0  0
   45.6370   34.2830   44.9160 C   0  0  0  0  0  0  0  0  0  0  0  0
   44.6840   35.1980   45.1440 N   0  0  0  0  0  0  0  0  0  0  0  0
   45.9910   33.2350   45.8350 N   0  0  0  0  0  0  0  0  0  0  0  0
   45.6340   33.0800   47.1220 C   0  0  0  0  0  0  0  0  0  0  0  0
   46.2080   31.9550   47.5670 N   0  0  0  0  0  0  0  0  0  0  0  0
   46.9270   31.3750   46.6040 C   0  0  0  0  0  0  0  0  0  0  0  0
   47.6970   30.2140   46.5630 C   0  0  0  0  0  0  0  0  0  0  0  0
   48.2930   29.9340   45.3990 N   0  0  0  0  0  0  0  0  0  0  0  0
   48.1430   30.7470   44.3320 C   0  0  0  0  0  0  0  0  0  0  0  0
   47.3990   31.8850   44.3450 N   0  0  0  0  0  0  0  0  0  0  0  0
   46.7850   32.1940   45.5080 C   0  0  0  0  0  0  0  0  0  0  0  0
   48.8220   30.4230   43.0230 C   0  0  0  0  0  0  0  0  0  0  0  0
   48.7540   31.5140   42.1800 F   0  0  0  0  0  0  0  0  0  0  0  0
   48.2100   29.3500   42.4240 F   0  0  0  0  0  0  0  0  0  0  0  0
   50.1500   30.1890   43.2450 F   0  0  0  0  0  0  0  0  0  0  0  0
   47.8430   29.3430   47.7540 C   0  0  0  0  0  0  0  0  0  0  0  0
   48.9190   29.9130   48.6040 C   0  0  0  0  0  0  0  0  0  0  0  0
   50.2920   29.8970   48.5360 C   0  0  0  0  0  0  0  0  0  0  0  0
   50.7760   30.6140   49.6280 C   0  0  0  0  0  0  0  0  0  0  0  0
   49.7060   31.0450   50.3300 N   0  0  0  0  0  0  0  0  0  0  0  0
   48.6100   30.6180   49.7060 N   0  0  0  0  0  0  0  0  0  0  0  0
   43.6241   36.8885   44.4512 H   0  0  0  0  0  0  0  0  0  0  0  0
   44.8876   36.9751   42.2801 H   0  0  0  0  0  0  0  0  0  0  0  0
   46.6908   35.2372   41.8548 H   0  0  0  0  0  0  0  0  0  0  0  0
   44.9881   33.7544   47.7034 H   0  0  0  0  0  0  0  0  0  0  0  0
   46.8976   29.3154   48.3156 H   0  0  0  0  0  0  0  0  0  0  0  0
   48.0962   28.3164   47.4506 H   0  0  0  0  0  0  0  0  0  0  0  0
   50.8984   29.4069   47.7601 H   0  0  0  0  0  0  0  0  0  0  0  0
   51.8330   30.7953   49.8728 H   0  0  0  0  0  0  0  0  0  0  0  0
   49.7329   31.6045   51.1944 H   0  0  0  0  0  0  0  0  0  0  0  0
  1  6  2  0
  2  1  1  0
  3  2  2  0
  3  4  1  0
  4  5  2  0
  5  6  1  0
  5  7  1  0
  7  8  1  0
  8  9  2  0
 10  9  1  0
 11 10  2  0
 11 20  1  0
 12 11  1  0
 13 14  1  0
 13 12  2  0
 14 15  2  0
 15  7  1  0
 15 10  1  0
 16 19  1  0
 16 13  1  0
 17 16  1  0
 18 16  1  0
 20 21  1  0
 21 25  2  0
 22 21  1  0
 22 23  2  0
 23 24  1  0
 25 24  1  0
  1 26  1  0
  2 27  1  0
  3 28  1  0
  8 29  1  0
 20 30  1  0
 20 31  1  0
 22 32  1  0
 23 33  1  0
 24 34  1  0
M  ISO  8  26  14  27  14  28  14  29  14  30   8  31   8  32  14  33  14
M  ISO  1  34   9
M  END
>  <minimizedAffinity>  (1) 
-5.59935665

>  <minimizedRMSD>  (1) 
0.583127379

$$$$
