
     RDKit          3D

 48 53  0  0  0  0  0  0  0  0999 V2000
   44.4430   35.9690   44.4830 C   0  0  0  0  0  0  0  0  0  0  0  0
   45.0960   36.0380   43.2330 C   0  0  0  0  0  0  0  0  0  0  0  0
   46.0880   35.0810   42.9540 C   0  0  0  0  0  0  0  0  0  0  0  0
   46.3720   34.1470   43.8830 N   0  0  0  0  0  0  0  0  0  0  0  0
   45.7090   34.1180   45.0870 C   0  0  0  0  0  0  0  0  0  0  0  0
   44.7610   35.0260   45.3640 N   0  0  0  0  0  0  0  0  0  0  0  0
   46.1140   33.0620   45.9890 N   0  0  0  0  0  0  0  0  0  0  0  0
   45.8050   32.8940   47.2900 C   0  0  0  0  0  0  0  0  0  0  0  0
   46.4110   31.7730   47.7020 N   0  0  0  0  0  0  0  0  0  0  0  0
   47.1030   31.2100   46.7060 C   0  0  0  0  0  0  0  0  0  0  0  0
   47.8860   30.0600   46.6280 C   0  0  0  0  0  0  0  0  0  0  0  0
   48.4430   29.7980   45.4370 N   0  0  0  0  0  0  0  0  0  0  0  0
   48.2400   30.6220   44.3830 C   0  0  0  0  0  0  0  0  0  0  0  0
   47.4810   31.7510   44.4290 N   0  0  0  0  0  0  0  0  0  0  0  0
   46.9080   32.0350   45.6250 C   0  0  0  0  0  0  0  0  0  0  0  0
   48.8760   30.3110   43.0450 C   0  0  0  0  0  0  0  0  0  0  0  0
   48.7370   31.4050   42.2050 F   0  0  0  0  0  0  0  0  0  0  0  0
   48.2730   29.2180   42.4740 F   0  0  0  0  0  0  0  0  0  0  0  0
   50.2230   30.1230   43.2140 F   0  0  0  0  0  0  0  0  0  0  0  0
   48.0950   29.1750   47.7880 C   0  0  0  0  0  0  0  0  0  0  0  0
   49.3590   29.5880   48.4590 C   0  0  0  0  0  0  0  0  0  0  0  0
   50.6480   29.1500   48.3450 C   0  0  0  0  0  0  0  0  0  0  0  0
   51.4290   29.9010   49.2230 C   0  0  0  0  0  0  0  0  0  0  0  0
   50.6010   30.7700   49.8430 N   0  0  0  0  0  0  0  0  0  0  0  0
   49.3670   30.5650   49.3710 N   0  0  0  0  0  0  0  0  0  0  0  0
   51.0600   31.7030   50.8160 C   0  0  0  0  0  0  0  0  0  0  0  0
   51.1730   33.0460   50.4900 C   0  0  0  0  0  0  0  0  0  0  0  0
   51.6210   33.7450   51.5480 N   0  0  0  0  0  0  0  0  0  0  0  0
   51.7990   32.8720   52.5560 C   0  0  0  0  0  0  0  0  0  0  0  0
   52.2310   33.0020   53.8570 C   0  0  0  0  0  0  0  0  0  0  0  0
   52.3090   31.8850   54.6700 C   0  0  0  0  0  0  0  0  0  0  0  0
   51.9600   30.6320   54.2050 C   0  0  0  0  0  0  0  0  0  0  0  0
   51.5140   30.4480   52.8920 C   0  0  0  0  0  0  0  0  0  0  0  0
   51.4610   31.5920   52.1400 C   0  0  0  0  0  0  0  0  0  0  0  0
   43.6626   36.7037   44.7304 H   0  0  0  0  0  0  0  0  0  0  0  0
   44.8368   36.8162   42.5001 H   0  0  0  0  0  0  0  0  0  0  0  0
   46.6234   35.0946   41.9932 H   0  0  0  0  0  0  0  0  0  0  0  0
   45.1723   33.5551   47.9004 H   0  0  0  0  0  0  0  0  0  0  0  0
   47.2519   29.2713   48.4879 H   0  0  0  0  0  0  0  0  0  0  0  0
   48.1598   28.1263   47.4623 H   0  0  0  0  0  0  0  0  0  0  0  0
   51.0054   28.3495   47.6806 H   0  0  0  0  0  0  0  0  0  0  0  0
   52.5133   29.8042   49.3808 H   0  0  0  0  0  0  0  0  0  0  0  0
   50.9311   33.4775   49.5075 H   0  0  0  0  0  0  0  0  0  0  0  0
   51.7953   34.7596   51.5805 H   0  0  0  0  0  0  0  0  0  0  0  0
   52.5131   33.9904   54.2487 H   0  0  0  0  0  0  0  0  0  0  0  0
   52.6560   31.9972   55.7078 H   0  0  0  0  0  0  0  0  0  0  0  0
   52.0340   29.7650   54.8780 H   0  0  0  0  0  0  0  0  0  0  0  0
   51.2284   29.4628   52.4947 H   0  0  0  0  0  0  0  0  0  0  0  0
  1  6  2  0
  2  1  1  0
  3  2  2  0
  3  4  1  0
  4  5  2  0
  5  6  1  0
  5  7  1  0
  7  8  1  0
  8  9  2  0
 10  9  1  0
 11 10  2  0
 11 20  1  0
 12 11  1  0
 13 14  1  0
 13 12  2  0
 14 15  2  0
 15  7  1  0
 15 10  1  0
 16 19  1  0
 16 13  1  0
 17 16  1  0
 18 16  1  0
 20 21  1  0
 21 25  2  0
 22 21  1  0
 22 23  2  0
 23 24  1  0
 24 26  1  0
 25 24  1  0
 26 34  1  0
 27 26  2  0
 27 28  1  0
 28 29  1  0
 29 30  2  0
 30 31  1  0
 32 31  2  0
 33 32  1  0
 34 29  1  0
 34 33  2  0
  1 35  1  0
  2 36  1  0
  3 37  1  0
  8 38  1  0
 20 39  1  0
 20 40  1  0
 22 41  1  0
 23 42  1  0
 27 43  1  0
 28 44  1  0
 30 45  1  0
 31 46  1  0
 32 47  1  0
 33 48  1  0
M  ISO  8  35  14  36  14  37  14  38  14  39   8  40   8  41  14  42  14
M  ISO  6  43  14  44   9  45  14  46  14  47  14  48  14
M  END
>  <minimizedAffinity>  (1) 
-7.29255724

>  <minimizedRMSD>  (1) 
0.896276832

$$$$
