
     RDKit          3D

 41 45  0  0  0  0  0  0  0  0999 V2000
   44.4310   35.9490   44.6860 C   0  0  0  0  0  0  0  0  0  0  0  0
   45.0470   36.0480   43.4160 C   0  0  0  0  0  0  0  0  0  0  0  0
   46.0240   35.0910   43.0970 C   0  0  0  0  0  0  0  0  0  0  0  0
   46.3350   34.1320   43.9900 N   0  0  0  0  0  0  0  0  0  0  0  0
   45.7090   34.0770   45.2090 C   0  0  0  0  0  0  0  0  0  0  0  0
   44.7770   34.9810   45.5290 N   0  0  0  0  0  0  0  0  0  0  0  0
   46.1310   33.0060   46.0750 N   0  0  0  0  0  0  0  0  0  0  0  0
   45.8610   32.7990   47.3740 C   0  0  0  0  0  0  0  0  0  0  0  0
   46.4760   31.6670   47.7390 N   0  0  0  0  0  0  0  0  0  0  0  0
   47.1390   31.1290   46.7110 C   0  0  0  0  0  0  0  0  0  0  0  0
   47.9120   29.9860   46.5800 C   0  0  0  0  0  0  0  0  0  0  0  0
   48.4390   29.7480   45.3730 N   0  0  0  0  0  0  0  0  0  0  0  0
   48.2100   30.5960   44.3500 C   0  0  0  0  0  0  0  0  0  0  0  0
   47.4590   31.7220   44.4420 N   0  0  0  0  0  0  0  0  0  0  0  0
   46.9170   31.9810   45.6570 C   0  0  0  0  0  0  0  0  0  0  0  0
   48.8070   30.3230   42.9860 C   0  0  0  0  0  0  0  0  0  0  0  0
   48.6390   31.4280   42.1760 F   0  0  0  0  0  0  0  0  0  0  0  0
   48.1890   29.2370   42.4030 F   0  0  0  0  0  0  0  0  0  0  0  0
   50.1450   30.1340   43.1050 F   0  0  0  0  0  0  0  0  0  0  0  0
   48.1530   29.0670   47.7160 C   0  0  0  0  0  0  0  0  0  0  0  0
   49.3910   29.5060   48.4060 C   0  0  0  0  0  0  0  0  0  0  0  0
   50.6800   29.6810   47.9730 C   0  0  0  0  0  0  0  0  0  0  0  0
   51.4320   30.1140   49.0640 C   0  0  0  0  0  0  0  0  0  0  0  0
   50.5950   30.1920   50.1240 N   0  0  0  0  0  0  0  0  0  0  0  0
   49.3940   29.8280   49.7100 N   0  0  0  0  0  0  0  0  0  0  0  0
   51.0020   30.6020   51.4280 C   0  0  0  0  0  0  0  0  0  0  0  0
   51.3870   31.8540   51.7980 C   0  0  0  0  0  0  0  0  0  0  0  0
   51.6910   31.7750   53.1540 C   0  0  0  0  0  0  0  0  0  0  0  0
   51.4890   30.5020   53.5770 N   0  0  0  0  0  0  0  0  0  0  0  0
   51.0740   29.8180   52.5140 N   0  0  0  0  0  0  0  0  0  0  0  0
   43.6606   36.6779   44.9778 H   0  0  0  0  0  0  0  0  0  0  0  0
   44.7716   36.8427   42.7070 H   0  0  0  0  0  0  0  0  0  0  0  0
   46.5329   35.1245   42.1224 H   0  0  0  0  0  0  0  0  0  0  0  0
   45.2463   33.4424   48.0207 H   0  0  0  0  0  0  0  0  0  0  0  0
   47.3033   29.1049   48.4136 H   0  0  0  0  0  0  0  0  0  0  0  0
   48.2625   28.0337   47.3551 H   0  0  0  0  0  0  0  0  0  0  0  0
   51.0525   29.5109   46.9520 H   0  0  0  0  0  0  0  0  0  0  0  0
   52.5067   30.3487   49.0632 H   0  0  0  0  0  0  0  0  0  0  0  0
   51.4459   32.7457   51.1567 H   0  0  0  0  0  0  0  0  0  0  0  0
   52.0386   32.6094   53.7809 H   0  0  0  0  0  0  0  0  0  0  0  0
   51.6289   30.1379   54.5303 H   0  0  0  0  0  0  0  0  0  0  0  0
  1  6  2  0
  2  1  1  0
  3  2  2  0
  3  4  1  0
  4  5  2  0
  5  6  1  0
  5  7  1  0
  7  8  1  0
  8  9  2  0
 10  9  1  0
 11 10  2  0
 11 20  1  0
 12 11  1  0
 13 14  1  0
 13 12  2  0
 14 15  2  0
 15  7  1  0
 15 10  1  0
 16 19  1  0
 16 13  1  0
 17 16  1  0
 18 16  1  0
 20 21  1  0
 21 25  2  0
 22 21  1  0
 22 23  2  0
 23 24  1  0
 24 26  1  0
 25 24  1  0
 26 27  1  0
 26 30  2  0
 27 28  2  0
 28 29  1  0
 30 29  1  0
  1 31  1  0
  2 32  1  0
  3 33  1  0
  8 34  1  0
 20 35  1  0
 20 36  1  0
 22 37  1  0
 23 38  1  0
 27 39  1  0
 28 40  1  0
 29 41  1  0
M  ISO  8  31  14  32  14  33  14  34  14  35   8  36   8  37  14  38  14
M  ISO  3  39  14  40  14  41   9
M  END
>  <minimizedAffinity>  (1) 
-6.63099098

>  <minimizedRMSD>  (1) 
0.998560846

$$$$
