
     RDKit          3D

 42 46  0  0  0  0  0  0  0  0999 V2000
   44.4490   36.0490   44.4250 C   0  0  0  0  0  0  0  0  0  0  0  0
   45.1540   36.1350   43.2030 C   0  0  0  0  0  0  0  0  0  0  0  0
   46.1470   35.1620   42.9480 C   0  0  0  0  0  0  0  0  0  0  0  0
   46.3750   34.2070   43.8700 N   0  0  0  0  0  0  0  0  0  0  0  0
   45.6650   34.1640   45.0450 C   0  0  0  0  0  0  0  0  0  0  0  0
   44.7190   35.0830   45.2960 N   0  0  0  0  0  0  0  0  0  0  0  0
   46.0140   33.0940   45.9300 N   0  0  0  0  0  0  0  0  0  0  0  0
   45.6530   32.9090   47.2190 C   0  0  0  0  0  0  0  0  0  0  0  0
   46.2150   31.7720   47.6470 N   0  0  0  0  0  0  0  0  0  0  0  0
   46.9370   31.2090   46.6640 C   0  0  0  0  0  0  0  0  0  0  0  0
   47.7030   30.0420   46.5940 C   0  0  0  0  0  0  0  0  0  0  0  0
   48.2960   29.7900   45.4240 N   0  0  0  0  0  0  0  0  0  0  0  0
   48.1490   30.6340   44.3790 C   0  0  0  0  0  0  0  0  0  0  0  0
   47.4140   31.7700   44.4180 N   0  0  0  0  0  0  0  0  0  0  0  0
   46.8030   32.0510   45.5870 C   0  0  0  0  0  0  0  0  0  0  0  0
   48.8270   30.3320   43.0640 C   0  0  0  0  0  0  0  0  0  0  0  0
   48.7580   31.4340   42.2440 F   0  0  0  0  0  0  0  0  0  0  0  0
   48.2070   29.2610   42.4500 F   0  0  0  0  0  0  0  0  0  0  0  0
   50.1560   30.0930   43.2830 F   0  0  0  0  0  0  0  0  0  0  0  0
   47.8420   29.1390   47.7590 C   0  0  0  0  0  0  0  0  0  0  0  0
   49.0800   29.5110   48.4820 C   0  0  0  0  0  0  0  0  0  0  0  0
   50.3150   28.9330   48.5770 C   0  0  0  0  0  0  0  0  0  0  0  0
   51.0960   29.7230   49.4010 C   0  0  0  0  0  0  0  0  0  0  0  0
   50.3350   30.7570   49.7890 N   0  0  0  0  0  0  0  0  0  0  0  0
   49.1400   30.6190   49.2370 N   0  0  0  0  0  0  0  0  0  0  0  0
   50.8780   31.7490   50.6530 C   0  0  0  0  0  0  0  0  0  0  0  0
   51.1610   32.9750   50.0460 C   0  0  0  0  0  0  0  0  0  0  0  0
   51.6900   34.0270   50.7670 C   0  0  0  0  0  0  0  0  0  0  0  0
   51.9450   33.8740   52.0960 N   0  0  0  0  0  0  0  0  0  0  0  0
   51.6560   32.6640   52.6550 C   0  0  0  0  0  0  0  0  0  0  0  0
   51.1330   31.6000   51.9800 N   0  0  0  0  0  0  0  0  0  0  0  0
   43.6691   36.7892   44.6571 H   0  0  0  0  0  0  0  0  0  0  0  0
   44.9374   36.9314   42.4758 H   0  0  0  0  0  0  0  0  0  0  0  0
   46.7242   35.1844   42.0118 H   0  0  0  0  0  0  0  0  0  0  0  0
   45.0101   33.5758   47.8124 H   0  0  0  0  0  0  0  0  0  0  0  0
   46.9732   29.2516   48.4242 H   0  0  0  0  0  0  0  0  0  0  0  0
   47.8940   28.0918   47.4264 H   0  0  0  0  0  0  0  0  0  0  0  0
   50.6323   28.0022   48.0842 H   0  0  0  0  0  0  0  0  0  0  0  0
   52.1427   29.5383   49.6844 H   0  0  0  0  0  0  0  0  0  0  0  0
   50.9584   33.1048   48.9726 H   0  0  0  0  0  0  0  0  0  0  0  0
   51.9046   34.9846   50.2701 H   0  0  0  0  0  0  0  0  0  0  0  0
   51.8595   32.5367   53.7285 H   0  0  0  0  0  0  0  0  0  0  0  0
  1  6  2  0
  2  1  1  0
  3  2  2  0
  3  4  1  0
  4  5  2  0
  5  6  1  0
  5  7  1  0
  7  8  1  0
  8  9  2  0
 10  9  1  0
 11 10  2  0
 11 20  1  0
 12 11  1  0
 13 14  1  0
 13 12  2  0
 14 15  2  0
 15  7  1  0
 15 10  1  0
 16 19  1  0
 16 13  1  0
 17 16  1  0
 18 16  1  0
 20 21  1  0
 21 22  1  0
 21 25  2  0
 22 23  2  0
 23 24  1  0
 24 26  1  0
 25 24  1  0
 26 31  1  0
 27 26  2  0
 27 28  1  0
 28 29  2  0
 29 30  1  0
 31 30  2  0
  1 32  1  0
  2 33  1  0
  3 34  1  0
  8 35  1  0
 20 36  1  0
 20 37  1  0
 22 38  1  0
 23 39  1  0
 27 40  1  0
 28 41  1  0
 30 42  1  0
M  ISO  8  32  14  33  14  34  14  35  14  36   8  37   8  38  14  39  14
M  ISO  3  40  14  41  14  42  14
M  END
>  <minimizedAffinity>  (1) 
-6.5870409

>  <minimizedRMSD>  (1) 
0.902024031

$$$$
