
     RDKit          3D

 46 50  0  0  1  0  0  0  0  0999 V2000
   44.4440   36.0660   44.3890 C   0  0  0  0  0  0  0  0  0  0  0  0
   45.1430   36.1420   43.1790 C   0  0  0  0  0  0  0  0  0  0  0  0
   46.1370   35.1740   42.9140 C   0  0  0  0  0  0  0  0  0  0  0  0
   46.3720   34.2190   43.8350 N   0  0  0  0  0  0  0  0  0  0  0  0
   45.6570   34.1860   45.0140 C   0  0  0  0  0  0  0  0  0  0  0  0
   44.7180   35.1020   45.2620 N   0  0  0  0  0  0  0  0  0  0  0  0
   46.0080   33.1120   45.9120 N   0  0  0  0  0  0  0  0  0  0  0  0
   45.6490   32.9290   47.2010 C   0  0  0  0  0  0  0  0  0  0  0  0
   46.2170   31.7920   47.6180 N   0  0  0  0  0  0  0  0  0  0  0  0
   46.9370   31.2270   46.6370 C   0  0  0  0  0  0  0  0  0  0  0  0
   47.6950   30.0690   46.5740 C   0  0  0  0  0  0  0  0  0  0  0  0
   48.2910   29.8110   45.3970 N   0  0  0  0  0  0  0  0  0  0  0  0
   48.1450   30.6470   44.3520 C   0  0  0  0  0  0  0  0  0  0  0  0
   47.4040   31.7920   44.3920 N   0  0  0  0  0  0  0  0  0  0  0  0
   46.7970   32.0700   45.5630 C   0  0  0  0  0  0  0  0  0  0  0  0
   48.8230   30.3480   43.0300 C   0  0  0  0  0  0  0  0  0  0  0  0
   48.7290   31.4490   42.2060 F   0  0  0  0  0  0  0  0  0  0  0  0
   48.2050   29.2820   42.4160 F   0  0  0  0  0  0  0  0  0  0  0  0
   50.1510   30.1170   43.2420 F   0  0  0  0  0  0  0  0  0  0  0  0
   47.8470   29.1620   47.7250 C   0  0  0  0  0  0  0  0  0  0  0  0
   49.0520   29.5920   48.4920 C   0  0  0  0  0  0  0  0  0  0  0  0
   50.3490   29.1740   48.4800 C   0  0  0  0  0  0  0  0  0  0  0  0
   51.0360   29.9430   49.4180 C   0  0  0  0  0  0  0  0  0  0  0  0
   50.1520   30.7960   49.9680 N   0  0  0  0  0  0  0  0  0  0  0  0
   48.9740   30.5690   49.4020 N   0  0  0  0  0  0  0  0  0  0  0  0
   51.0550   31.0580   52.1380 N   0  0  0  0  0  0  0  0  0  0  0  0
   52.1150   31.8610   52.6900 C   0  0  0  0  0  0  0  0  0  0  0  0
   52.4530   32.9550   51.7190 C   0  0  0  0  0  0  0  0  0  0  0  0
   51.6110   32.6750   50.4960 C   0  0  0  0  0  0  0  0  0  0  0  0
   50.5270   31.7520   50.9920 C   0  0  1  0  0  0  0  0  0  0  0  0
   43.6644   36.8073   44.6186 H   0  0  0  0  0  0  0  0  0  0  0  0
   44.9235   36.9371   42.4512 H   0  0  0  0  0  0  0  0  0  0  0  0
   46.7080   35.1993   41.9742 H   0  0  0  0  0  0  0  0  0  0  0  0
   45.0072   33.5932   47.7984 H   0  0  0  0  0  0  0  0  0  0  0  0
   46.9554   29.2198   48.3666 H   0  0  0  0  0  0  0  0  0  0  0  0
   47.9620   28.1233   47.3816 H   0  0  0  0  0  0  0  0  0  0  0  0
   50.7738   28.3794   47.8490 H   0  0  0  0  0  0  0  0  0  0  0  0
   52.1055   29.8666   49.6638 H   0  0  0  0  0  0  0  0  0  0  0  0
   51.4238   30.1397   51.8521 H   0  0  0  0  0  0  0  0  0  0  0  0
   51.7865   32.3016   53.6429 H   0  0  0  0  0  0  0  0  0  0  0  0
   53.0016   31.2352   52.8695 H   0  0  0  0  0  0  0  0  0  0  0  0
   52.2016   33.9383   52.1433 H   0  0  0  0  0  0  0  0  0  0  0  0
   53.5270   32.9764   51.4820 H   0  0  0  0  0  0  0  0  0  0  0  0
   52.2107   32.1866   49.7138 H   0  0  0  0  0  0  0  0  0  0  0  0
   51.2067   33.5934   50.0454 H   0  0  0  0  0  0  0  0  0  0  0  0
   49.6267   32.3278   51.2525 H   0  0  0  0  0  0  0  0  0  0  0  0
  1  6  2  0
  2  1  1  0
  3  2  2  0
  3  4  1  0
  4  5  2  0
  5  6  1  0
  5  7  1  0
  7  8  1  0
  8  9  2  0
 10  9  1  0
 11 10  2  0
 11 20  1  0
 12 11  1  0
 13 14  1  0
 13 12  2  0
 14 15  2  0
 15  7  1  0
 15 10  1  0
 16 19  1  0
 16 13  1  0
 17 16  1  0
 18 16  1  0
 20 21  1  0
 21 25  2  0
 22 21  1  0
 22 23  2  0
 23 24  1  0
 25 24  1  0
 26 27  1  0
 28 27  1  0
 29 30  1  0
 29 28  1  0
 30 24  1  0
 30 26  1  0
  1 31  1  0
  2 32  1  0
  3 33  1  0
  8 34  1  0
 20 35  1  0
 20 36  1  0
 22 37  1  0
 23 38  1  0
 26 39  1  0
 27 40  1  0
 27 41  1  0
 28 42  1  0
 28 43  1  0
 29 44  1  0
 29 45  1  0
 30 46  1  1
M  ISO  8  31  14  32  14  33  14  34  14  35   8  36   8  37  14  38  14
M  ISO  8  39   5  40  13  41  13  42  13  43  13  44  13  45  13  46  13
M  END
>  <minimizedAffinity>  (1) 
-6.3647356

>  <minimizedRMSD>  (1) 
0.62749809

$$$$
