
     RDKit          3D

 43 46  0  0  0  0  0  0  0  0999 V2000
   44.4430   36.0920   44.3570 C   0  0  0  0  0  0  0  0  0  0  0  0
   45.1410   36.1490   43.1300 C   0  0  0  0  0  0  0  0  0  0  0  0
   46.1180   35.1670   42.8920 C   0  0  0  0  0  0  0  0  0  0  0  0
   46.3520   34.2230   43.8240 N   0  0  0  0  0  0  0  0  0  0  0  0
   45.6430   34.2120   45.0070 C   0  0  0  0  0  0  0  0  0  0  0  0
   44.7090   35.1400   45.2480 N   0  0  0  0  0  0  0  0  0  0  0  0
   45.9960   33.1490   45.9100 N   0  0  0  0  0  0  0  0  0  0  0  0
   45.6380   32.9820   47.2020 C   0  0  0  0  0  0  0  0  0  0  0  0
   46.2060   31.8470   47.6330 N   0  0  0  0  0  0  0  0  0  0  0  0
   46.9180   31.2750   46.6700 C   0  0  0  0  0  0  0  0  0  0  0  0
   47.6810   30.1090   46.6200 C   0  0  0  0  0  0  0  0  0  0  0  0
   48.2740   29.8410   45.4440 N   0  0  0  0  0  0  0  0  0  0  0  0
   48.1290   30.6630   44.3920 C   0  0  0  0  0  0  0  0  0  0  0  0
   47.3900   31.8090   44.4100 N   0  0  0  0  0  0  0  0  0  0  0  0
   46.7790   32.1080   45.5790 C   0  0  0  0  0  0  0  0  0  0  0  0
   48.8020   30.3520   43.0720 C   0  0  0  0  0  0  0  0  0  0  0  0
   48.7390   31.4450   42.2360 F   0  0  0  0  0  0  0  0  0  0  0  0
   48.1960   29.2780   42.4690 F   0  0  0  0  0  0  0  0  0  0  0  0
   50.1410   30.1210   43.2920 F   0  0  0  0  0  0  0  0  0  0  0  0
   47.8270   29.2220   47.7830 C   0  0  0  0  0  0  0  0  0  0  0  0
   49.0670   29.6200   48.5070 C   0  0  0  0  0  0  0  0  0  0  0  0
   50.3480   29.1470   48.4960 C   0  0  0  0  0  0  0  0  0  0  0  0
   51.0870   29.9170   49.3840 C   0  0  0  0  0  0  0  0  0  0  0  0
   50.2610   30.8310   49.9130 N   0  0  0  0  0  0  0  0  0  0  0  0
   49.0630   30.6480   49.3870 N   0  0  0  0  0  0  0  0  0  0  0  0
   50.6420   31.8300   50.8880 C   0  0  0  0  0  0  0  0  0  0  0  0
   51.5190   31.2790   51.9880 C   0  0  0  0  0  0  0  0  0  0  0  0
   51.3470   33.0250   50.2340 C   0  0  0  0  0  0  0  0  0  0  0  0
   43.6707   36.8433   44.5784 H   0  0  0  0  0  0  0  0  0  0  0  0
   44.9277   36.9329   42.3884 H   0  0  0  0  0  0  0  0  0  0  0  0
   46.6877   35.1693   41.9510 H   0  0  0  0  0  0  0  0  0  0  0  0
   44.9978   33.6542   47.7921 H   0  0  0  0  0  0  0  0  0  0  0  0
   46.9560   29.3284   48.4463 H   0  0  0  0  0  0  0  0  0  0  0  0
   47.8910   28.1725   47.4599 H   0  0  0  0  0  0  0  0  0  0  0  0
   50.7258   28.3082   47.8930 H   0  0  0  0  0  0  0  0  0  0  0  0
   52.1565   29.7986   49.6122 H   0  0  0  0  0  0  0  0  0  0  0  0
   49.6973   32.1657   51.3406 H   0  0  0  0  0  0  0  0  0  0  0  0
   51.0925   31.5470   52.9659 H   0  0  0  0  0  0  0  0  0  0  0  0
   51.5737   30.1839   51.8995 H   0  0  0  0  0  0  0  0  0  0  0  0
   52.5293   31.7049   51.8995 H   0  0  0  0  0  0  0  0  0  0  0  0
   51.7402   33.6915   51.0158 H   0  0  0  0  0  0  0  0  0  0  0  0
   52.1767   32.6639   49.6086 H   0  0  0  0  0  0  0  0  0  0  0  0
   50.6296   33.5766   49.6086 H   0  0  0  0  0  0  0  0  0  0  0  0
  1  6  2  0
  2  1  1  0
  3  2  2  0
  3  4  1  0
  4  5  2  0
  5  6  1  0
  5  7  1  0
  7  8  1  0
  8  9  2  0
 10  9  1  0
 11 10  2  0
 11 20  1  0
 12 11  1  0
 13 14  1  0
 13 12  2  0
 14 15  2  0
 15  7  1  0
 15 10  1  0
 16 19  1  0
 16 13  1  0
 17 16  1  0
 18 16  1  0
 20 21  1  0
 21 25  2  0
 22 21  1  0
 22 23  2  0
 23 24  1  0
 24 26  1  0
 25 24  1  0
 26 27  1  0
 28 26  1  0
  1 29  1  0
  2 30  1  0
  3 31  1  0
  8 32  1  0
 20 33  1  0
 20 34  1  0
 22 35  1  0
 23 36  1  0
 26 37  1  0
 27 38  1  0
 27 39  1  0
 27 40  1  0
 28 41  1  0
 28 42  1  0
 28 43  1  0
M  ISO  8  29  14  30  14  31  14  32  14  33   8  34   8  35  14  36  14
M  ISO  7  37   8  38   8  39   8  40   8  41   8  42   8  43   8
M  END
>  <minimizedAffinity>  (1) 
-5.92266607

>  <minimizedRMSD>  (1) 
0.541540146

$$$$
