
     RDKit          3D

 41 45  0  0  0  0  0  0  0  0999 V2000
   44.4550   36.0600   44.3390 C   0  0  0  0  0  0  0  0  0  0  0  0
   45.1750   36.1210   43.1360 C   0  0  0  0  0  0  0  0  0  0  0  0
   46.1840   35.1540   42.8880 C   0  0  0  0  0  0  0  0  0  0  0  0
   46.3970   34.2150   43.8350 N   0  0  0  0  0  0  0  0  0  0  0  0
   45.6660   34.1910   45.0030 C   0  0  0  0  0  0  0  0  0  0  0  0
   44.7220   35.1030   45.2240 N   0  0  0  0  0  0  0  0  0  0  0  0
   46.0060   33.1320   45.9180 N   0  0  0  0  0  0  0  0  0  0  0  0
   45.6420   32.9660   47.1960 C   0  0  0  0  0  0  0  0  0  0  0  0
   46.2050   31.8290   47.6390 N   0  0  0  0  0  0  0  0  0  0  0  0
   46.9210   31.2580   46.6820 C   0  0  0  0  0  0  0  0  0  0  0  0
   47.6790   30.0920   46.6400 C   0  0  0  0  0  0  0  0  0  0  0  0
   48.2840   29.8170   45.4730 N   0  0  0  0  0  0  0  0  0  0  0  0
   48.1520   30.6360   44.4090 C   0  0  0  0  0  0  0  0  0  0  0  0
   47.4140   31.7820   44.4270 N   0  0  0  0  0  0  0  0  0  0  0  0
   46.7990   32.0830   45.5800 C   0  0  0  0  0  0  0  0  0  0  0  0
   48.8360   30.3140   43.1040 C   0  0  0  0  0  0  0  0  0  0  0  0
   48.7680   31.4040   42.2620 F   0  0  0  0  0  0  0  0  0  0  0  0
   48.2360   29.2430   42.5000 F   0  0  0  0  0  0  0  0  0  0  0  0
   50.1650   30.0820   43.3360 F   0  0  0  0  0  0  0  0  0  0  0  0
   47.8210   29.1980   47.8080 C   0  0  0  0  0  0  0  0  0  0  0  0
   49.0800   29.5630   48.5150 C   0  0  0  0  0  0  0  0  0  0  0  0
   50.2850   28.9220   48.6280 C   0  0  0  0  0  0  0  0  0  0  0  0
   51.1010   29.7420   49.4190 C   0  0  0  0  0  0  0  0  0  0  0  0
   50.3780   30.8360   49.7560 N   0  0  0  0  0  0  0  0  0  0  0  0
   49.1770   30.7090   49.2060 N   0  0  0  0  0  0  0  0  0  0  0  0
   50.8760   31.9000   50.5600 C   0  0  0  0  0  0  0  0  0  0  0  0
   51.3300   33.1970   50.4260 C   0  0  0  0  0  0  0  0  0  0  0  0
   51.6570   33.6140   51.6780 N   0  0  0  0  0  0  0  0  0  0  0  0
   51.4260   32.6410   52.5670 C   0  0  0  0  0  0  0  0  0  0  0  0
   50.9430   31.5770   51.8850 N   0  0  0  0  0  0  0  0  0  0  0  0
   43.6711   36.8022   44.5500 H   0  0  0  0  0  0  0  0  0  0  0  0
   44.9606   36.9064   42.3963 H   0  0  0  0  0  0  0  0  0  0  0  0
   46.7713   35.1689   41.9580 H   0  0  0  0  0  0  0  0  0  0  0  0
   44.9972   33.6400   47.7791 H   0  0  0  0  0  0  0  0  0  0  0  0
   46.9625   29.3268   48.4835 H   0  0  0  0  0  0  0  0  0  0  0  0
   47.8549   28.1474   47.4838 H   0  0  0  0  0  0  0  0  0  0  0  0
   50.5587   27.9532   48.1847 H   0  0  0  0  0  0  0  0  0  0  0  0
   52.1405   29.5344   49.7128 H   0  0  0  0  0  0  0  0  0  0  0  0
   51.4108   33.7761   49.4943 H   0  0  0  0  0  0  0  0  0  0  0  0
   51.5972   32.6960   53.6522 H   0  0  0  0  0  0  0  0  0  0  0  0
   50.6709   30.6731   52.2970 H   0  0  0  0  0  0  0  0  0  0  0  0
  1  6  2  0
  2  1  1  0
  3  2  2  0
  3  4  1  0
  4  5  2  0
  5  6  1  0
  5  7  1  0
  7  8  1  0
  8  9  2  0
 10  9  1  0
 11 10  2  0
 11 20  1  0
 12 11  1  0
 13 14  1  0
 13 12  2  0
 14 15  2  0
 15  7  1  0
 15 10  1  0
 16 19  1  0
 16 13  1  0
 17 16  1  0
 18 16  1  0
 20 21  1  0
 21 22  1  0
 21 25  2  0
 22 23  2  0
 23 24  1  0
 24 26  1  0
 25 24  1  0
 26 30  1  0
 27 26  2  0
 27 28  1  0
 28 29  2  0
 30 29  1  0
  1 31  1  0
  2 32  1  0
  3 33  1  0
  8 34  1  0
 20 35  1  0
 20 36  1  0
 22 37  1  0
 23 38  1  0
 27 39  1  0
 29 40  1  0
 30 41  1  0
M  ISO  8  31  14  32  14  33  14  34  14  35   8  36   8  37  14  38  14
M  ISO  3  39  14  40  14  41   9
M  END
>  <minimizedAffinity>  (1) 
-6.45201159

>  <minimizedRMSD>  (1) 
0.867124617

$$$$
