
     RDKit          3D

 21 22  0  0  0  0  0  0  0  0999 V2000
   46.1220   32.8560   46.4640 C   0  0  0  0  0  0  0  0  0  0  0  0
   45.4940   32.7940   47.6850 C   0  0  0  0  0  0  0  0  0  0  0  0
   45.8030   31.8560   48.6540 C   0  0  0  0  0  0  0  0  0  0  0  0
   46.7970   30.9750   48.3050 C   0  0  0  0  0  0  0  0  0  0  0  0
   47.4610   30.9910   47.0920 C   0  0  0  0  0  0  0  0  0  0  0  0
   47.0700   31.9470   46.2430 N   0  0  0  0  0  0  0  0  0  0  0  0
   44.5170   35.7180   44.8810 C   0  0  0  0  0  0  0  0  0  0  0  0
   45.1150   35.7480   43.5870 C   0  0  0  0  0  0  0  0  0  0  0  0
   46.0720   34.7680   43.2800 C   0  0  0  0  0  0  0  0  0  0  0  0
   46.3620   33.8580   44.2440 N   0  0  0  0  0  0  0  0  0  0  0  0
   45.7800   33.8500   45.4680 C   0  0  0  0  0  0  0  0  0  0  0  0
   44.8590   34.7870   45.7710 N   0  0  0  0  0  0  0  0  0  0  0  0
   45.1760   31.7690   49.9110 N   0  0  0  0  0  0  0  0  0  0  0  0
   44.7046   33.5284   47.9032 H   0  0  0  0  0  0  0  0  0  0  0  0
   47.0837   30.2066   49.0380 H   0  0  0  0  0  0  0  0  0  0  0  0
   48.2534   30.2695   46.8437 H   0  0  0  0  0  0  0  0  0  0  0  0
   43.7633   36.4734   45.1482 H   0  0  0  0  0  0  0  0  0  0  0  0
   44.8348   36.5162   42.8512 H   0  0  0  0  0  0  0  0  0  0  0  0
   46.5667   34.7389   42.2980 H   0  0  0  0  0  0  0  0  0  0  0  0
   45.4628   31.0405   50.5803 H   0  0  0  0  0  0  0  0  0  0  0  0
   44.4303   32.4338   50.1617 H   0  0  0  0  0  0  0  0  0  0  0  0
  1  2  2  0
  2  3  1  0
  3 13  1  0
  4  3  2  0
  5  4  1  0
  6  1  1  0
  6  5  2  0
  7 12  2  0
  8  7  1  0
  9  8  2  0
  9 10  1  0
 10 11  2  0
 11 12  1  0
 11  1  1  0
  2 14  1  0
  4 15  1  0
  5 16  1  0
  7 17  1  0
  8 18  1  0
  9 19  1  0
 13 20  1  0
 13 21  1  0
M  ISO  6  14  14  15  14  16  14  17  14  18  14  19  14
M  END
>  <minimizedAffinity>  (1) 
-5.01289845

>  <minimizedRMSD>  (1) 
0.567532778

$$$$
