
     RDKit          3D

 28 29  0  0  0  0  0  0  0  0999 V2000
   45.7480   33.9690   45.3610 C   0  0  0  0  0  0  0  0  0  0  0  0
   46.4340   33.8990   44.1500 C   0  0  0  0  0  0  0  0  0  0  0  0
   46.1830   34.7950   43.1300 C   0  0  0  0  0  0  0  0  0  0  0  0
   45.2260   35.7440   43.3870 C   0  0  0  0  0  0  0  0  0  0  0  0
   44.5290   35.8480   44.5610 C   0  0  0  0  0  0  0  0  0  0  0  0
   44.8340   34.9400   45.4990 N   0  0  0  0  0  0  0  0  0  0  0  0
   47.3600   31.2940   47.2580 C   0  0  0  0  0  0  0  0  0  0  0  0
   46.5650   31.2070   48.4160 C   0  0  0  0  0  0  0  0  0  0  0  0
   45.4650   32.0770   48.5430 C   0  0  0  0  0  0  0  0  0  0  0  0
   45.2300   32.9630   47.5300 N   0  0  0  0  0  0  0  0  0  0  0  0
   46.0250   33.0120   46.4280 C   0  0  0  0  0  0  0  0  0  0  0  0
   47.0720   32.1810   46.3120 N   0  0  0  0  0  0  0  0  0  0  0  0
   46.8570   34.7910   41.8300 C   0  0  0  0  0  0  0  0  0  0  0  0
   48.2590   35.3470   41.8580 C   0  0  0  0  0  0  0  0  0  0  0  0
   46.8520   33.3740   41.2930 C   0  0  0  0  0  0  0  0  0  0  0  0
   47.1907   33.1141   44.0038 H   0  0  0  0  0  0  0  0  0  0  0  0
   45.0029   36.4728   42.5939 H   0  0  0  0  0  0  0  0  0  0  0  0
   43.7684   36.6258   44.7239 H   0  0  0  0  0  0  0  0  0  0  0  0
   48.2240   30.6243   47.1356 H   0  0  0  0  0  0  0  0  0  0  0  0
   46.7976   30.4758   49.2042 H   0  0  0  0  0  0  0  0  0  0  0  0
   44.8153   32.0442   49.4300 H   0  0  0  0  0  0  0  0  0  0  0  0
   46.2977   35.4678   41.1673 H   0  0  0  0  0  0  0  0  0  0  0  0
   48.5819   35.4750   42.9017 H   0  0  0  0  0  0  0  0  0  0  0  0
   48.9398   34.6508   41.3463 H   0  0  0  0  0  0  0  0  0  0  0  0
   48.2776   36.3206   41.3463 H   0  0  0  0  0  0  0  0  0  0  0  0
   46.8495   32.6636   42.1329 H   0  0  0  0  0  0  0  0  0  0  0  0
   45.9533   33.2181   40.6782 H   0  0  0  0  0  0  0  0  0  0  0  0
   47.7496   33.2117   40.6782 H   0  0  0  0  0  0  0  0  0  0  0  0
  1  6  1  0
  1 11  1  0
  2  1  2  0
  3  4  2  0
  3  2  1  0
  4  5  1  0
  5  6  2  0
  7  8  2  0
  8  9  1  0
 10  9  2  0
 11 10  1  0
 12 11  2  0
 12  7  1  0
 13 14  1  0
 13  3  1  0
 15 13  1  0
  2 16  1  0
  4 17  1  0
  5 18  1  0
  7 19  1  0
  8 20  1  0
  9 21  1  0
 13 22  1  0
 14 23  1  0
 14 24  1  0
 14 25  1  0
 15 26  1  0
 15 27  1  0
 15 28  1  0
M  ISO  8  16  14  17  14  18  14  19  14  20  14  21  14  22   8  23   8
M  ISO  5  24   8  25   8  26   8  27   8  28   8
M  END
>  <minimizedAffinity>  (1) 
-5.28062773

>  <minimizedRMSD>  (1) 
6.22910929

$$$$
