
     RDKit          3D

 40 43  0  0  0  0  0  0  0  0999 V2000
   44.4560   36.0210   44.4520 C   0  0  0  0  0  0  0  0  0  0  0  0
   45.1410   36.1070   43.2390 C   0  0  0  0  0  0  0  0  0  0  0  0
   46.1350   35.1450   42.9680 C   0  0  0  0  0  0  0  0  0  0  0  0
   46.3820   34.1870   43.8840 N   0  0  0  0  0  0  0  0  0  0  0  0
   45.6810   34.1390   45.0680 C   0  0  0  0  0  0  0  0  0  0  0  0
   44.7350   35.0530   45.3300 N   0  0  0  0  0  0  0  0  0  0  0  0
   46.0430   33.0670   45.9580 N   0  0  0  0  0  0  0  0  0  0  0  0
   45.7010   32.8770   47.2490 C   0  0  0  0  0  0  0  0  0  0  0  0
   46.2710   31.7450   47.6600 N   0  0  0  0  0  0  0  0  0  0  0  0
   46.9810   31.1830   46.6680 C   0  0  0  0  0  0  0  0  0  0  0  0
   47.7420   30.0260   46.5940 C   0  0  0  0  0  0  0  0  0  0  0  0
   48.3270   29.7670   45.4120 N   0  0  0  0  0  0  0  0  0  0  0  0
   48.1610   30.6160   44.3740 C   0  0  0  0  0  0  0  0  0  0  0  0
   47.4240   31.7520   44.4220 N   0  0  0  0  0  0  0  0  0  0  0  0
   46.8240   32.0330   45.6060 C   0  0  0  0  0  0  0  0  0  0  0  0
   48.8220   30.3200   43.0450 C   0  0  0  0  0  0  0  0  0  0  0  0
   48.7190   31.4180   42.2200 F   0  0  0  0  0  0  0  0  0  0  0  0
   48.2170   29.2480   42.4420 F   0  0  0  0  0  0  0  0  0  0  0  0
   50.1670   30.1060   43.2460 F   0  0  0  0  0  0  0  0  0  0  0  0
   47.9040   29.1160   47.7540 C   0  0  0  0  0  0  0  0  0  0  0  0
   49.1470   29.4970   48.4660 C   0  0  0  0  0  0  0  0  0  0  0  0
   50.4280   29.0510   48.3680 C   0  0  0  0  0  0  0  0  0  0  0  0
   51.1920   29.7670   49.2840 C   0  0  0  0  0  0  0  0  0  0  0  0
   50.3780   30.6230   49.9180 N   0  0  0  0  0  0  0  0  0  0  0  0
   49.1700   30.4410   49.4130 N   0  0  0  0  0  0  0  0  0  0  0  0
   50.6860   31.5990   50.9710 C   0  0  0  0  0  0  0  0  0  0  0  0
   51.2300   32.8750   50.3620 C   0  0  0  0  0  0  0  0  0  0  0  0
   43.6761   36.7598   44.6884 H   0  0  0  0  0  0  0  0  0  0  0  0
   44.9117   36.9028   42.5151 H   0  0  0  0  0  0  0  0  0  0  0  0
   46.6999   35.1754   42.0246 H   0  0  0  0  0  0  0  0  0  0  0  0
   45.0647   33.5390   47.8547 H   0  0  0  0  0  0  0  0  0  0  0  0
   47.0416   29.2154   48.4295 H   0  0  0  0  0  0  0  0  0  0  0  0
   47.9634   28.0714   47.4144 H   0  0  0  0  0  0  0  0  0  0  0  0
   50.7934   28.2671   47.6884 H   0  0  0  0  0  0  0  0  0  0  0  0
   52.2721   29.6513   49.4573 H   0  0  0  0  0  0  0  0  0  0  0  0
   49.7688   31.8276   51.5335 H   0  0  0  0  0  0  0  0  0  0  0  0
   51.4441   31.1721   51.6441 H   0  0  0  0  0  0  0  0  0  0  0  0
   51.5252   33.5673   51.1642 H   0  0  0  0  0  0  0  0  0  0  0  0
   52.1061   32.6399   49.7398 H   0  0  0  0  0  0  0  0  0  0  0  0
   50.4537   33.3443   49.7398 H   0  0  0  0  0  0  0  0  0  0  0  0
  1  6  2  0
  2  1  1  0
  3  2  2  0
  3  4  1  0
  4  5  2  0
  5  6  1  0
  5  7  1  0
  7  8  1  0
  8  9  2  0
 10  9  1  0
 11 10  2  0
 11 20  1  0
 12 11  1  0
 13 14  1  0
 13 12  2  0
 14 15  2  0
 15  7  1  0
 15 10  1  0
 16 19  1  0
 16 13  1  0
 17 16  1  0
 18 16  1  0
 20 21  1  0
 21 25  2  0
 22 21  1  0
 22 23  2  0
 23 24  1  0
 24 26  1  0
 25 24  1  0
 27 26  1  0
  1 28  1  0
  2 29  1  0
  3 30  1  0
  8 31  1  0
 20 32  1  0
 20 33  1  0
 22 34  1  0
 23 35  1  0
 26 36  1  0
 26 37  1  0
 27 38  1  0
 27 39  1  0
 27 40  1  0
M  ISO  8  28  14  29  14  30  14  31  14  32   8  33   8  34  14  35  14
M  ISO  5  36   8  37   8  38   8  39   8  40   8
M  END
>  <minimizedAffinity>  (1) 
-5.64139462

>  <minimizedRMSD>  (1) 
0.564632773

$$$$
