
     RDKit          3D

 33 35  0  0  0  0  0  0  0  0999 V2000
   46.9080   32.5270   43.2740 C   0  0  0  0  0  0  0  0  0  0  0  0
   46.9740   32.3880   44.6400 C   0  0  0  0  0  0  0  0  0  0  0  0
   46.2880   31.4210   45.3400 C   0  0  0  0  0  0  0  0  0  0  0  0
   45.5180   30.5840   44.5760 C   0  0  0  0  0  0  0  0  0  0  0  0
   45.4160   30.6790   43.1940 C   0  0  0  0  0  0  0  0  0  0  0  0
   46.1290   31.6630   42.5970 N   0  0  0  0  0  0  0  0  0  0  0  0
   49.3990   35.0910   42.5780 C   0  0  0  0  0  0  0  0  0  0  0  0
   49.0640   35.5230   41.2620 C   0  0  0  0  0  0  0  0  0  0  0  0
   47.9680   34.9160   40.6190 C   0  0  0  0  0  0  0  0  0  0  0  0
   47.2930   33.9490   41.3040 N   0  0  0  0  0  0  0  0  0  0  0  0
   47.6470   33.5600   42.5720 C   0  0  0  0  0  0  0  0  0  0  0  0
   48.6890   34.1350   43.1860 N   0  0  0  0  0  0  0  0  0  0  0  0
   46.3430   31.2600   46.7510 N   0  0  0  0  0  0  0  0  0  0  0  0
   47.2800   32.0220   47.5280 C   0  0  0  0  0  0  0  0  0  0  0  0
   47.5670   31.4250   48.8820 C   0  0  0  0  0  0  0  0  0  0  0  0
   46.4000   31.0350   49.6040 N   0  0  0  0  0  0  0  0  0  0  0  0
   45.2030   30.9840   48.8230 C   0  0  0  0  0  0  0  0  0  0  0  0
   45.4740   30.3410   47.4570 C   0  0  0  0  0  0  0  0  0  0  0  0
   47.6090   33.0869   45.2042 H   0  0  0  0  0  0  0  0  0  0  0  0
   44.9488   29.7926   45.0855 H   0  0  0  0  0  0  0  0  0  0  0  0
   44.7868   29.9886   42.6131 H   0  0  0  0  0  0  0  0  0  0  0  0
   50.2519   35.5495   43.0999 H   0  0  0  0  0  0  0  0  0  0  0  0
   49.6465   36.3104   40.7613 H   0  0  0  0  0  0  0  0  0  0  0  0
   47.6677   35.2107   39.6026 H   0  0  0  0  0  0  0  0  0  0  0  0
   48.2250   32.0859   46.9686 H   0  0  0  0  0  0  0  0  0  0  0  0
   46.8283   33.0101   47.7001 H   0  0  0  0  0  0  0  0  0  0  0  0
   48.1995   30.5361   48.7410 H   0  0  0  0  0  0  0  0  0  0  0  0
   48.0618   32.2074   49.4761 H   0  0  0  0  0  0  0  0  0  0  0  0
   46.5654   30.0983   49.9992 H   0  0  0  0  0  0  0  0  0  0  0  0
   44.4476   30.3900   49.3583 H   0  0  0  0  0  0  0  0  0  0  0  0
   44.8397   32.0102   48.6651 H   0  0  0  0  0  0  0  0  0  0  0  0
   44.5324   30.2042   46.9050 H   0  0  0  0  0  0  0  0  0  0  0  0
   45.9362   29.3484   47.5624 H   0  0  0  0  0  0  0  0  0  0  0  0
  1  2  2  0
  2  3  1  0
  3 13  1  0
  4  3  2  0
  5  4  1  0
  6  5  2  0
  6  1  1  0
  7 12  2  0
  8  7  1  0
  9  8  2  0
  9 10  1  0
 10 11  2  0
 11 12  1  0
 11  1  1  0
 13 18  1  0
 13 14  1  0
 14 15  1  0
 15 16  1  0
 17 16  1  0
 18 17  1  0
  2 19  1  0
  4 20  1  0
  5 21  1  0
  7 22  1  0
  8 23  1  0
  9 24  1  0
 14 25  1  0
 14 26  1  0
 15 27  1  0
 15 28  1  0
 16 29  1  0
 17 30  1  0
 17 31  1  0
 18 32  1  0
 18 33  1  0
M  ISO  8  19  14  20  14  21  14  22  14  23  14  24  14  25  13  26  13
M  ISO  7  27  13  28  13  29   5  30  13  31  13  32  13  33  13
M  END
>  <minimizedAffinity>  (1) 
-4.75280666

>  <minimizedRMSD>  (1) 
4.28883886

$$$$
