
     RDKit          3D

 26 28  0  0  0  0  0  0  0  0999 V2000
   46.4960   32.6910   45.3380 C   0  0  0  0  0  0  0  0  0  0  0  0
   46.2790   32.4330   46.6750 C   0  0  0  0  0  0  0  0  0  0  0  0
   46.7590   31.3010   47.3040 C   0  0  0  0  0  0  0  0  0  0  0  0
   47.4760   30.4380   46.5040 C   0  0  0  0  0  0  0  0  0  0  0  0
   47.7160   30.6550   45.1660 C   0  0  0  0  0  0  0  0  0  0  0  0
   47.2080   31.7800   44.6520 N   0  0  0  0  0  0  0  0  0  0  0  0
   44.5600   35.7330   44.7940 C   0  0  0  0  0  0  0  0  0  0  0  0
   44.9850   36.1670   43.5200 C   0  0  0  0  0  0  0  0  0  0  0  0
   45.9390   35.4050   42.8580 C   0  0  0  0  0  0  0  0  0  0  0  0
   46.4220   34.2710   43.4650 N   0  0  0  0  0  0  0  0  0  0  0  0
   45.9720   33.8960   44.7070 C   0  0  0  0  0  0  0  0  0  0  0  0
   45.0500   34.6200   45.3660 N   0  0  0  0  0  0  0  0  0  0  0  0
   46.4930   31.0880   48.7320 C   0  0  0  0  0  0  0  0  0  0  0  0
   45.3940   31.7170   49.4720 C   0  0  0  0  0  0  0  0  0  0  0  0
   45.1920   30.2710   48.9840 C   0  0  0  0  0  0  0  0  0  0  0  0
   45.6998   33.1586   47.2649 H   0  0  0  0  0  0  0  0  0  0  0  0
   47.8800   29.5226   46.9611 H   0  0  0  0  0  0  0  0  0  0  0  0
   48.2921   29.9443   44.5553 H   0  0  0  0  0  0  0  0  0  0  0  0
   43.8054   36.3232   45.3347 H   0  0  0  0  0  0  0  0  0  0  0  0
   44.5735   37.0803   43.0655 H   0  0  0  0  0  0  0  0  0  0  0  0
   46.3020   35.7046   41.8638 H   0  0  0  0  0  0  0  0  0  0  0  0
   47.5671   31.0504   48.9663 H   0  0  0  0  0  0  0  0  0  0  0  0
   45.5074   31.9167   50.5478 H   0  0  0  0  0  0  0  0  0  0  0  0
   44.8263   32.6511   49.3489 H   0  0  0  0  0  0  0  0  0  0  0  0
   44.5006   30.0512   48.1572 H   0  0  0  0  0  0  0  0  0  0  0  0
   44.9332   29.3041   49.4402 H   0  0  0  0  0  0  0  0  0  0  0  0
  1  2  2  0
  2  3  1  0
  3 13  1  0
  4  3  2  0
  5  4  1  0
  6  5  2  0
  6  1  1  0
  7 12  2  0
  8  7  1  0
  9 10  1  0
  9  8  2  0
 10 11  2  0
 11  1  1  0
 11 12  1  0
 13 15  1  0
 13 14  1  0
 15 14  1  0
  2 16  1  0
  4 17  1  0
  5 18  1  0
  7 19  1  0
  8 20  1  0
  9 21  1  0
 13 22  1  0
 14 23  1  0
 14 24  1  0
 15 25  1  0
 15 26  1  0
M  ISO  8  16  14  17  14  18  14  19  14  20  14  21  14  22  13  23  13
M  ISO  3  24  13  25  13  26  13
M  END
>  <minimizedAffinity>  (1) 
-4.87614727

>  <minimizedRMSD>  (1) 
1.89116192

$$$$
