
     RDKit          3D

 26 28  0  0  0  0  0  0  0  0999 V2000
   46.0010   32.8300   44.0280 C   0  0  0  0  0  0  0  0  0  0  0  0
   45.7510   32.6290   45.3630 C   0  0  0  0  0  0  0  0  0  0  0  0
   46.4290   31.6940   46.1250 C   0  0  0  0  0  0  0  0  0  0  0  0
   47.3780   30.9720   45.4500 C   0  0  0  0  0  0  0  0  0  0  0  0
   47.6630   31.1390   44.1200 C   0  0  0  0  0  0  0  0  0  0  0  0
   46.9490   32.0740   43.4660 N   0  0  0  0  0  0  0  0  0  0  0  0
   44.8190   36.0500   42.8030 C   0  0  0  0  0  0  0  0  0  0  0  0
   43.8970   35.7080   41.7950 C   0  0  0  0  0  0  0  0  0  0  0  0
   43.6880   34.3590   41.5430 C   0  0  0  0  0  0  0  0  0  0  0  0
   44.3810   33.4520   42.2780 N   0  0  0  0  0  0  0  0  0  0  0  0
   45.2720   33.8200   43.2550 C   0  0  0  0  0  0  0  0  0  0  0  0
   45.4680   35.1170   43.4920 N   0  0  0  0  0  0  0  0  0  0  0  0
   46.1880   31.4580   47.5300 C   0  0  0  0  0  0  0  0  0  0  0  0
   45.0440   31.6930   48.2580 C   0  0  0  0  0  0  0  0  0  0  0  0
   45.2480   31.3210   49.5790 C   0  0  0  0  0  0  0  0  0  0  0  0
   46.5000   30.8750   49.6130 N   0  0  0  0  0  0  0  0  0  0  0  0
   47.0440   30.9570   48.4140 N   0  0  0  0  0  0  0  0  0  0  0  0
   44.9759   33.2395   45.8493 H   0  0  0  0  0  0  0  0  0  0  0  0
   47.9449   30.2130   46.0091 H   0  0  0  0  0  0  0  0  0  0  0  0
   48.4346   30.5405   43.6136 H   0  0  0  0  0  0  0  0  0  0  0  0
   45.0059   37.1111   43.0247 H   0  0  0  0  0  0  0  0  0  0  0  0
   43.3611   36.4828   41.2271 H   0  0  0  0  0  0  0  0  0  0  0  0
   42.9790   34.0333   40.7676 H   0  0  0  0  0  0  0  0  0  0  0  0
   44.1104   32.1118   47.8542 H   0  0  0  0  0  0  0  0  0  0  0  0
   44.5330   31.3816   50.4127 H   0  0  0  0  0  0  0  0  0  0  0  0
   46.9761   30.5174   50.4535 H   0  0  0  0  0  0  0  0  0  0  0  0
  1  2  2  0
  2  3  1  0
  3 13  1  0
  4  3  2  0
  5  4  1  0
  6  1  1  0
  6  5  2  0
  7 12  2  0
  8  7  1  0
  9  8  2  0
  9 10  1  0
 10 11  2  0
 11 12  1  0
 11  1  1  0
 13 14  1  0
 13 17  2  0
 14 15  2  0
 15 16  1  0
 17 16  1  0
  2 18  1  0
  4 19  1  0
  5 20  1  0
  7 21  1  0
  8 22  1  0
  9 23  1  0
 14 24  1  0
 15 25  1  0
 16 26  1  0
M  ISO  8  18  14  19  14  20  14  21  14  22  14  23  14  24  14  25  14
M  ISO  1  26   9
M  END
>  <minimizedAffinity>  (1) 
-4.64218903

>  <minimizedRMSD>  (1) 
3.11936879

$$$$
