
     RDKit          3D

 27 29  0  0  0  0  0  0  0  0999 V2000
   47.9330   31.7690   43.8090 C   0  0  0  0  0  0  0  0  0  0  0  0
   47.2360   31.8360   45.0130 C   0  0  0  0  0  0  0  0  0  0  0  0
   47.2430   30.7890   45.9070 C   0  0  0  0  0  0  0  0  0  0  0  0
   47.9690   29.6840   45.5490 C   0  0  0  0  0  0  0  0  0  0  0  0
   48.6740   29.5810   44.3610 C   0  0  0  0  0  0  0  0  0  0  0  0
   48.6080   30.6470   43.5580 N   0  0  0  0  0  0  0  0  0  0  0  0
   47.1900   35.0330   42.3430 C   0  0  0  0  0  0  0  0  0  0  0  0
   47.8850   34.9980   41.1000 C   0  0  0  0  0  0  0  0  0  0  0  0
   48.5950   33.8440   40.7990 C   0  0  0  0  0  0  0  0  0  0  0  0
   48.6060   32.7970   41.6860 N   0  0  0  0  0  0  0  0  0  0  0  0
   47.9180   32.8860   42.8710 C   0  0  0  0  0  0  0  0  0  0  0  0
   47.2300   33.9890   43.1750 N   0  0  0  0  0  0  0  0  0  0  0  0
   46.4950   30.9250   47.1450 C   0  0  0  0  0  0  0  0  0  0  0  0
   45.7260   29.9100   47.6730 C   0  0  0  0  0  0  0  0  0  0  0  0
   45.0630   30.1920   48.8710 C   0  0  0  0  0  0  0  0  0  0  0  0
   45.1560   31.3930   49.5020 N   0  0  0  0  0  0  0  0  0  0  0  0
   45.9100   32.3340   48.9480 C   0  0  0  0  0  0  0  0  0  0  0  0
   46.5600   32.0970   47.7960 N   0  0  0  0  0  0  0  0  0  0  0  0
   46.6672   32.7459   45.2550 H   0  0  0  0  0  0  0  0  0  0  0  0
   47.9936   28.8312   46.2433 H   0  0  0  0  0  0  0  0  0  0  0  0
   49.2497   28.6818   44.0964 H   0  0  0  0  0  0  0  0  0  0  0  0
   46.6148   35.9287   42.6203 H   0  0  0  0  0  0  0  0  0  0  0  0
   47.8600   35.8514   40.4065 H   0  0  0  0  0  0  0  0  0  0  0  0
   49.1479   33.7688   39.8511 H   0  0  0  0  0  0  0  0  0  0  0  0
   45.6388   28.9313   47.1785 H   0  0  0  0  0  0  0  0  0  0  0  0
   44.4384   29.4076   49.3233 H   0  0  0  0  0  0  0  0  0  0  0  0
   46.0037   33.3156   49.4355 H   0  0  0  0  0  0  0  0  0  0  0  0
  1  2  2  0
  2  3  1  0
  3 13  1  0
  4  3  2  0
  5  4  1  0
  6  1  1  0
  6  5  2  0
  7 12  2  0
  8  7  1  0
  9  8  2  0
  9 10  1  0
 10 11  2  0
 11 12  1  0
 11  1  1  0
 13 14  2  0
 13 18  1  0
 14 15  1  0
 15 16  2  0
 17 16  1  0
 18 17  2  0
  2 19  1  0
  4 20  1  0
  5 21  1  0
  7 22  1  0
  8 23  1  0
  9 24  1  0
 14 25  1  0
 15 26  1  0
 17 27  1  0
M  ISO  8  19  14  20  14  21  14  22  14  23  14  24  14  25  14  26  14
M  ISO  1  27  14
M  END
>  <minimizedAffinity>  (1) 
-4.37966061

>  <minimizedRMSD>  (1) 
3.79566598

$$$$
