
     RDKit          3D

 26 28  0  0  0  0  0  0  0  0999 V2000
   45.9750   32.8760   44.0830 C   0  0  0  0  0  0  0  0  0  0  0  0
   45.6480   32.6610   45.4110 C   0  0  0  0  0  0  0  0  0  0  0  0
   46.3020   31.7510   46.2160 C   0  0  0  0  0  0  0  0  0  0  0  0
   47.3140   31.0680   45.5880 C   0  0  0  0  0  0  0  0  0  0  0  0
   47.6770   31.2420   44.2800 C   0  0  0  0  0  0  0  0  0  0  0  0
   46.9740   32.1570   43.5770 N   0  0  0  0  0  0  0  0  0  0  0  0
   44.8280   36.0870   42.7810 C   0  0  0  0  0  0  0  0  0  0  0  0
   43.9230   35.7220   41.7680 C   0  0  0  0  0  0  0  0  0  0  0  0
   43.7130   34.3680   41.5390 C   0  0  0  0  0  0  0  0  0  0  0  0
   44.3870   33.4520   42.2990 N   0  0  0  0  0  0  0  0  0  0  0  0
   45.2550   33.8490   43.2710 C   0  0  0  0  0  0  0  0  0  0  0  0
   45.4570   35.1480   43.4910 N   0  0  0  0  0  0  0  0  0  0  0  0
   45.9160   31.5790   47.5720 N   0  0  0  0  0  0  0  0  0  0  0  0
   45.3990   30.3530   47.8660 C   0  0  0  0  0  0  0  0  0  0  0  0
   45.0740   30.3390   49.2090 C   0  0  0  0  0  0  0  0  0  0  0  0
   45.3980   31.5460   49.6930 N   0  0  0  0  0  0  0  0  0  0  0  0
   45.9160   32.3150   48.6990 C   0  0  0  0  0  0  0  0  0  0  0  0
   44.8245   33.2457   45.8468 H   0  0  0  0  0  0  0  0  0  0  0  0
   47.8733   30.3276   46.1787 H   0  0  0  0  0  0  0  0  0  0  0  0
   48.4974   30.6675   43.8252 H   0  0  0  0  0  0  0  0  0  0  0  0
   45.0181   37.1503   42.9889 H   0  0  0  0  0  0  0  0  0  0  0  0
   43.3976   36.4853   41.1753 H   0  0  0  0  0  0  0  0  0  0  0  0
   43.0140   34.0369   40.7569 H   0  0  0  0  0  0  0  0  0  0  0  0
   45.2642   29.5212   47.1590 H   0  0  0  0  0  0  0  0  0  0  0  0
   44.6353   29.5012   49.7708 H   0  0  0  0  0  0  0  0  0  0  0  0
   46.2710   33.3514   48.7978 H   0  0  0  0  0  0  0  0  0  0  0  0
  1  2  2  0
  2  3  1  0
  3 13  1  0
  4  3  2  0
  5  4  1  0
  6  1  1  0
  6  5  2  0
  7 12  2  0
  8  7  1  0
  9  8  2  0
  9 10  1  0
 10 11  2  0
 11 12  1  0
 11  1  1  0
 13 14  1  0
 13 17  1  0
 14 15  2  0
 15 16  1  0
 17 16  2  0
  2 18  1  0
  4 19  1  0
  5 20  1  0
  7 21  1  0
  8 22  1  0
  9 23  1  0
 14 24  1  0
 15 25  1  0
 17 26  1  0
M  ISO  8  18  14  19  14  20  14  21  14  22  14  23  14  24  14  25  14
M  ISO  1  26  14
M  END
>  <minimizedAffinity>  (1) 
-4.15080595

>  <minimizedRMSD>  (1) 
2.95709705

$$$$
