
     RDKit          3D

 40 43  0  0  0  0  0  0  0  0999 V2000
   44.7540   35.9240   45.0450 C   0  0  0  0  0  0  0  0  0  0  0  0
   44.0960   35.8620   43.7900 C   0  0  0  0  0  0  0  0  0  0  0  0
   44.1770   34.6710   43.0800 C   0  0  0  0  0  0  0  0  0  0  0  0
   44.8620   33.6060   43.5720 N   0  0  0  0  0  0  0  0  0  0  0  0
   45.4860   33.7050   44.7910 C   0  0  0  0  0  0  0  0  0  0  0  0
   45.4240   34.8490   45.5030 N   0  0  0  0  0  0  0  0  0  0  0  0
   43.5080   34.6360   41.8230 N   0  0  0  0  0  0  0  0  0  0  0  0
   42.1950   34.7120   41.5910 C   0  0  0  0  0  0  0  0  0  0  0  0
   41.7240   34.6610   40.3070 C   0  0  0  0  0  0  0  0  0  0  0  0
   42.5490   34.5320   39.2210 C   0  0  0  0  0  0  0  0  0  0  0  0
   42.1260   34.4850   38.0430 O   0  0  0  0  0  0  0  0  0  0  0  0
   43.8720   34.4570   39.4880 N   0  0  0  0  0  0  0  0  0  0  0  0
   44.3340   34.5080   40.7630 C   0  0  0  0  0  0  0  0  0  0  0  0
   45.6050   34.4250   40.8490 O   0  0  0  0  0  0  0  0  0  0  0  0
   40.2720   34.7470   40.0660 C   0  0  0  0  0  0  0  0  0  0  0  0
   46.2180   32.5520   45.3070 C   0  0  0  0  0  0  0  0  0  0  0  0
   47.1240   31.7460   44.6370 C   0  0  0  0  0  0  0  0  0  0  0  0
   47.5850   30.7790   45.4710 N   0  0  0  0  0  0  0  0  0  0  0  0
   46.9560   30.9990   46.6560 C   0  0  0  0  0  0  0  0  0  0  0  0
   46.1290   32.0660   46.5670 N   0  0  0  0  0  0  0  0  0  0  0  0
   45.2960   32.6010   47.6170 C   0  0  0  0  0  0  0  0  0  0  0  0
   44.3980   31.6440   48.1270 F   0  0  0  0  0  0  0  0  0  0  0  0
   44.5560   33.7020   47.1870 F   0  0  0  0  0  0  0  0  0  0  0  0
   46.0660   32.9780   48.7160 F   0  0  0  0  0  0  0  0  0  0  0  0
   47.2000   30.1280   47.8550 C   0  0  0  0  0  0  0  0  0  0  0  0
   48.5310   29.4810   48.0160 C   0  0  0  0  0  0  0  0  0  0  0  0
   48.1160   30.5660   48.9300 C   0  0  0  0  0  0  0  0  0  0  0  0
   44.7173   36.8470   45.6423 H   0  0  0  0  0  0  0  0  0  0  0  0
   43.5418   36.7255   43.3935 H   0  0  0  0  0  0  0  0  0  0  0  0
   41.4927   34.8155   42.4312 H   0  0  0  0  0  0  0  0  0  0  0  0
   44.5407   34.3595   38.7107 H   0  0  0  0  0  0  0  0  0  0  0  0
   39.7417   34.7784   41.0292 H   0  0  0  0  0  0  0  0  0  0  0  0
   40.0486   35.6600   39.4945 H   0  0  0  0  0  0  0  0  0  0  0  0
   39.9424   33.8668   39.4945 H   0  0  0  0  0  0  0  0  0  0  0  0
   47.4249   31.8709   43.5863 H   0  0  0  0  0  0  0  0  0  0  0  0
   46.1548   29.7864   47.8265 H   0  0  0  0  0  0  0  0  0  0  0  0
   48.5995   28.4468   48.3844 H   0  0  0  0  0  0  0  0  0  0  0  0
   49.3955   29.3035   47.3594 H   0  0  0  0  0  0  0  0  0  0  0  0
   48.6023   31.5508   48.8692 H   0  0  0  0  0  0  0  0  0  0  0  0
   48.0354   30.6712   50.0220 H   0  0  0  0  0  0  0  0  0  0  0  0
  1  6  2  0
  2  1  1  0
  3  4  1  0
  3  2  2  0
  4  5  2  0
  5 16  1  0
  5  6  1  0
  7  3  1  0
  8  7  1  0
  9  8  2  0
 10 12  1  0
 10  9  1  0
 11 10  2  0
 12 13  1  0
 13 14  2  0
 13  7  1  0
 15  9  1  0
 16 20  1  0
 17 16  2  0
 17 18  1  0
 18 19  2  0
 19 25  1  0
 20 19  1  0
 20 21  1  0
 21 22  1  0
 21 24  1  0
 23 21  1  0
 25 26  1  0
 25 27  1  0
 26 27  1  0
  1 28  1  0
  2 29  1  0
  8 30  1  0
 12 31  1  0
 15 32  1  0
 15 33  1  0
 15 34  1  0
 17 35  1  0
 25 36  1  0
 26 37  1  0
 26 38  1  0
 27 39  1  0
 27 40  1  0
M  ISO  8  28  14  29  14  30  14  31   9  32   8  33   8  34   8  35  14
M  ISO  5  36  13  37  13  38  13  39  13  40  13
M  END
>  <minimizedAffinity>  (1) 
-6.18745708

>  <minimizedRMSD>  (1) 
0.42926991

$$$$
