
     RDKit          3D

 22 23  0  0  0  0  0  0  0  0999 V2000
   46.0910   32.8540   46.0390 C   0  0  0  0  0  0  0  0  0  0  0  0
   45.5240   32.7010   47.2800 C   0  0  0  0  0  0  0  0  0  0  0  0
   45.8350   31.6680   48.1390 C   0  0  0  0  0  0  0  0  0  0  0  0
   46.7800   30.7800   47.6470 C   0  0  0  0  0  0  0  0  0  0  0  0
   47.3830   30.8890   46.4000 C   0  0  0  0  0  0  0  0  0  0  0  0
   47.0010   31.9390   45.6470 N   0  0  0  0  0  0  0  0  0  0  0  0
   44.4970   35.9010   44.8280 C   0  0  0  0  0  0  0  0  0  0  0  0
   45.0480   36.0590   43.5200 C   0  0  0  0  0  0  0  0  0  0  0  0
   45.9720   35.0970   43.0740 C   0  0  0  0  0  0  0  0  0  0  0  0
   46.2890   34.0740   43.9090 N   0  0  0  0  0  0  0  0  0  0  0  0
   45.7420   33.9590   45.1500 C   0  0  0  0  0  0  0  0  0  0  0  0
   44.8590   34.8660   45.5920 N   0  0  0  0  0  0  0  0  0  0  0  0
   45.2250   31.5080   49.4690 C   0  0  0  0  0  0  0  0  0  0  0  0
   44.7809   33.4431   47.6070 H   0  0  0  0  0  0  0  0  0  0  0  0
   47.0713   29.9335   48.2862 H   0  0  0  0  0  0  0  0  0  0  0  0
   48.1286   30.1608   46.0481 H   0  0  0  0  0  0  0  0  0  0  0  0
   43.7711   36.6347   45.2085 H   0  0  0  0  0  0  0  0  0  0  0  0
   44.7588   36.9066   42.8813 H   0  0  0  0  0  0  0  0  0  0  0  0
   46.4261   35.1713   42.0749 H   0  0  0  0  0  0  0  0  0  0  0  0
   45.9795   31.7059   50.2446 H   0  0  0  0  0  0  0  0  0  0  0  0
   44.3920   32.2180   49.5781 H   0  0  0  0  0  0  0  0  0  0  0  0
   44.8477   30.4805   49.5781 H   0  0  0  0  0  0  0  0  0  0  0  0
  1  2  2  0
  2  3  1  0
  3 13  1  0
  4  3  2  0
  5  4  1  0
  6  1  1  0
  6  5  2  0
  7 12  2  0
  8  7  1  0
  9  8  2  0
  9 10  1  0
 10 11  2  0
 11 12  1  0
 11  1  1  0
  2 14  1  0
  4 15  1  0
  5 16  1  0
  7 17  1  0
  8 18  1  0
  9 19  1  0
 13 20  1  0
 13 21  1  0
 13 22  1  0
M  ISO  8  14  14  15  14  16  14  17  14  18  14  19  14  20   8  21   8
M  ISO  1  22   8
M  END
>  <minimizedAffinity>  (1) 
-4.74171257

>  <minimizedRMSD>  (1) 
0.993991971

$$$$
