
     RDKit          3D

 41 44  0  0  1  0  0  0  0  0999 V2000
   45.4330   35.6690   42.8670 C   0  0  2  0  0  0  0  0  0  0  0  0
   49.1460   34.0840   41.4940 C   0  0  0  0  0  0  0  0  0  0  0  0
   49.8490   32.8900   41.6250 C   0  0  0  0  0  0  0  0  0  0  0  0
   49.4570   32.0030   42.6300 C   0  0  0  0  0  0  0  0  0  0  0  0
   48.4190   32.3380   43.4280 N   0  0  0  0  0  0  0  0  0  0  0  0
   47.7370   33.5150   43.2890 C   0  0  0  0  0  0  0  0  0  0  0  0
   48.1190   34.3620   42.3220 N   0  0  0  0  0  0  0  0  0  0  0  0
   46.6590   33.8940   44.1110 N   0  0  0  0  0  0  0  0  0  0  0  0
   46.5670   33.2330   45.2930 C   0  0  0  0  0  0  0  0  0  0  0  0
   45.4390   33.7840   45.9320 C   0  0  0  0  0  0  0  0  0  0  0  0
   44.9050   34.7420   45.1170 N   0  0  0  0  0  0  0  0  0  0  0  0
   45.6680   34.7880   44.0140 C   0  0  0  0  0  0  0  0  0  0  0  0
   45.2050   37.0840   43.4670 C   0  0  0  0  0  0  0  0  0  0  0  0
   44.1840   35.2900   42.1390 C   0  0  0  0  0  0  0  0  0  0  0  0
   44.4070   34.4750   40.9980 N   0  0  0  0  0  0  0  0  0  0  0  0
   45.6100   34.0860   40.5470 N   0  0  0  0  0  0  0  0  0  0  0  0
   45.4060   33.3240   39.4440 C   0  0  0  0  0  0  0  0  0  0  0  0
   44.0510   33.2250   39.1860 C   0  0  0  0  0  0  0  0  0  0  0  0
   43.4410   33.9650   40.1870 C   0  0  0  0  0  0  0  0  0  0  0  0
   42.0120   34.1900   40.3840 C   0  0  0  0  0  0  0  0  0  0  0  0
   41.3970   35.2150   39.6860 C   0  0  0  0  0  0  0  0  0  0  0  0
   40.0310   35.3690   39.9260 C   0  0  0  0  0  0  0  0  0  0  0  0
   39.2910   34.6180   40.7590 N   0  0  0  0  0  0  0  0  0  0  0  0
   39.9460   33.6230   41.4210 C   0  0  0  0  0  0  0  0  0  0  0  0
   41.2610   33.4490   41.2120 N   0  0  0  0  0  0  0  0  0  0  0  0
   46.2785   35.6116   42.1657 H   0  0  0  0  0  0  0  0  0  0  0  0
   49.4294   34.8037   40.7119 H   0  0  0  0  0  0  0  0  0  0  0  0
   50.6892   32.6518   40.9562 H   0  0  0  0  0  0  0  0  0  0  0  0
   49.9842   31.0478   42.7697 H   0  0  0  0  0  0  0  0  0  0  0  0
   47.2292   32.4397   45.6699 H   0  0  0  0  0  0  0  0  0  0  0  0
   45.0533   33.4924   46.9200 H   0  0  0  0  0  0  0  0  0  0  0  0
   45.2149   37.0225   44.5652 H   0  0  0  0  0  0  0  0  0  0  0  0
   46.0060   37.7585   43.1303 H   0  0  0  0  0  0  0  0  0  0  0  0
   44.2326   37.4727   43.1303 H   0  0  0  0  0  0  0  0  0  0  0  0
   43.5311   34.7415   42.8339 H   0  0  0  0  0  0  0  0  0  0  0  0
   43.7285   36.2244   41.7794 H   0  0  0  0  0  0  0  0  0  0  0  0
   46.1997   32.8548   38.8441 H   0  0  0  0  0  0  0  0  0  0  0  0
   43.5635   32.6783   38.3654 H   0  0  0  0  0  0  0  0  0  0  0  0
   41.9477   35.8641   38.9894 H   0  0  0  0  0  0  0  0  0  0  0  0
   39.5146   36.1762   39.3858 H   0  0  0  0  0  0  0  0  0  0  0  0
   39.4031   32.9692   42.1194 H   0  0  0  0  0  0  0  0  0  0  0  0
  1 13  1  0
  1 12  1  0
  2  3  2  0
  2  7  1  0
  3  4  1  0
  4  5  2  0
  6  5  1  0
  6  8  1  0
  7  6  2  0
  8  9  1  0
  9 10  2  0
 11 10  1  0
 12  8  1  0
 12 11  2  0
 14  1  1  0
 15 14  1  0
 16 15  1  0
 17 16  2  0
 18 17  1  0
 18 19  2  0
 19 20  1  0
 19 15  1  0
 20 25  2  0
 21 22  2  0
 21 20  1  0
 22 23  1  0
 23 24  2  0
 25 24  1  0
  1 26  1  6
  2 27  1  0
  3 28  1  0
  4 29  1  0
  9 30  1  0
 10 31  1  0
 13 32  1  0
 13 33  1  0
 13 34  1  0
 14 35  1  0
 14 36  1  0
 17 37  1  0
 18 38  1  0
 21 39  1  0
 22 40  1  0
 24 41  1  0
M  ISO  8  26   8  27  14  28  14  29  14  30  14  31  14  32   8  33   8
M  ISO  8  34   8  35   8  36   8  37  14  38  14  39  14  40  14  41  14
M  END
>  <minimizedAffinity>  (1) 
-5.73082209

>  <minimizedRMSD>  (1) 
8.65978432

$$$$
