
     RDKit          3D

 29 30  0  0  0  0  0  0  0  0999 V2000
   46.5390   32.5370   45.0630 C   0  0  0  0  0  0  0  0  0  0  0  0
   46.3210   31.9640   46.3010 C   0  0  0  0  0  0  0  0  0  0  0  0
   46.8830   30.7660   46.6770 C   0  0  0  0  0  0  0  0  0  0  0  0
   47.6850   30.1710   45.7280 C   0  0  0  0  0  0  0  0  0  0  0  0
   47.9310   30.7050   44.4790 C   0  0  0  0  0  0  0  0  0  0  0  0
   47.3380   31.8760   44.2070 N   0  0  0  0  0  0  0  0  0  0  0  0
   44.5580   35.5850   45.2620 C   0  0  0  0  0  0  0  0  0  0  0  0
   44.7890   36.2010   43.9830 C   0  0  0  0  0  0  0  0  0  0  0  0
   45.6310   35.5430   43.0760 C   0  0  0  0  0  0  0  0  0  0  0  0
   46.1900   34.3540   43.4450 N   0  0  0  0  0  0  0  0  0  0  0  0
   45.9370   33.8090   44.6760 C   0  0  0  0  0  0  0  0  0  0  0  0
   45.1330   34.4240   45.5590 N   0  0  0  0  0  0  0  0  0  0  0  0
   46.6290   30.1890   47.9990 C   0  0  0  0  0  0  0  0  0  0  0  0
   45.4800   29.3220   48.0600 N   0  0  0  0  0  0  0  0  0  0  0  0
   45.6550   27.9030   48.2150 C   0  0  0  0  0  0  0  0  0  0  0  0
   46.7400   27.3660   47.7670 N   0  0  0  0  0  0  0  0  0  0  0  0
   44.6700   27.0980   48.8420 N   0  0  0  0  0  0  0  0  0  0  0  0
   46.8950   26.3440   47.8650 H   0  0  0  0  0  0  0  0  0  0  0  0
   45.6703   32.4880   47.0166 H   0  0  0  0  0  0  0  0  0  0  0  0
   48.1587   29.2110   45.9811 H   0  0  0  0  0  0  0  0  0  0  0  0
   48.5776   30.1979   43.7477 H   0  0  0  0  0  0  0  0  0  0  0  0
   43.9033   36.0763   45.9968 H   0  0  0  0  0  0  0  0  0  0  0  0
   44.3184   37.1609   43.7241 H   0  0  0  0  0  0  0  0  0  0  0  0
   45.8372   35.9765   42.0862 H   0  0  0  0  0  0  0  0  0  0  0  0
   47.5144   29.6080   48.2965 H   0  0  0  0  0  0  0  0  0  0  0  0
   46.4219   31.0320   48.6746 H   0  0  0  0  0  0  0  0  0  0  0  0
   44.5320   29.7190   47.9925 H   0  0  0  0  0  0  0  0  0  0  0  0
   44.8200   26.0837   48.9404 H   0  0  0  0  0  0  0  0  0  0  0  0
   43.8046   27.5276   49.1990 H   0  0  0  0  0  0  0  0  0  0  0  0
  1  2  2  0
  2  3  1  0
  3 13  1  0
  4  3  2  0
  5  4  1  0
  6  5  2  0
  6  1  1  0
  7 12  2  0
  8  7  1  0
  9 10  1  0
  9  8  2  0
 10 11  2  0
 11  1  1  0
 11 12  1  0
 13 14  1  0
 14 15  1  0
 15 17  1  0
 16 18  1  0
 16 15  2  0
  2 19  1  0
  4 20  1  0
  5 21  1  0
  7 22  1  0
  8 23  1  0
  9 24  1  0
 13 25  1  0
 13 26  1  0
 14 27  1  0
 17 28  1  0
 17 29  1  0
M  ISO  8  19  14  20  14  21  14  22  14  23  14  24  14  25   8  26   8
M  END
>  <minimizedAffinity>  (1) 
-4.29488182

>  <minimizedRMSD>  (1) 
1.86615014

$$$$
