
     RDKit          3D

 27 28  0  0  0  0  0  0  0  0999 V2000
   46.4930   32.5870   44.7360 C   0  0  0  0  0  0  0  0  0  0  0  0
   46.0930   31.9410   45.9010 C   0  0  0  0  0  0  0  0  0  0  0  0
   46.6230   30.7240   46.2620 C   0  0  0  0  0  0  0  0  0  0  0  0
   47.5580   30.1940   45.4110 C   0  0  0  0  0  0  0  0  0  0  0  0
   47.9790   30.8030   44.2480 C   0  0  0  0  0  0  0  0  0  0  0  0
   47.4250   31.9800   43.9600 N   0  0  0  0  0  0  0  0  0  0  0  0
   44.5910   35.6830   44.8630 C   0  0  0  0  0  0  0  0  0  0  0  0
   44.9010   36.3060   43.6280 C   0  0  0  0  0  0  0  0  0  0  0  0
   45.7800   35.6370   42.7470 C   0  0  0  0  0  0  0  0  0  0  0  0
   46.2740   34.4450   43.1290 N   0  0  0  0  0  0  0  0  0  0  0  0
   45.9460   33.8830   44.3330 C   0  0  0  0  0  0  0  0  0  0  0  0
   45.1270   34.4890   45.1730 N   0  0  0  0  0  0  0  0  0  0  0  0
   46.1970   30.0430   47.5040 C   0  0  0  0  0  0  0  0  0  0  0  0
   45.1040   30.8450   48.0730 N   0  0  0  0  0  0  0  0  0  0  0  0
   45.6630   31.4810   49.2650 C   0  0  0  0  0  0  0  0  0  0  0  0
   44.7660   31.4100   50.3050 F   0  0  0  0  0  0  0  0  0  0  0  0
   46.8740   30.9010   49.6020 F   0  0  0  0  0  0  0  0  0  0  0  0
   45.9290   32.8190   49.0330 F   0  0  0  0  0  0  0  0  0  0  0  0
   45.3377   32.4128   46.5467 H   0  0  0  0  0  0  0  0  0  0  0  0
   48.0003   29.2214   45.6726 H   0  0  0  0  0  0  0  0  0  0  0  0
   48.7324   30.3416   43.5926 H   0  0  0  0  0  0  0  0  0  0  0  0
   43.9095   36.1779   45.5705 H   0  0  0  0  0  0  0  0  0  0  0  0
   44.4695   37.2825   43.3631 H   0  0  0  0  0  0  0  0  0  0  0  0
   46.0527   36.0779   41.7768 H   0  0  0  0  0  0  0  0  0  0  0  0
   45.8427   29.0268   47.2766 H   0  0  0  0  0  0  0  0  0  0  0  0
   47.0332   29.9548   48.2132 H   0  0  0  0  0  0  0  0  0  0  0  0
   44.7918   31.5576   47.3980 H   0  0  0  0  0  0  0  0  0  0  0  0
  1  2  2  0
  2  3  1  0
  3 13  1  0
  4  3  2  0
  5  4  1  0
  6  5  2  0
  6  1  1  0
  7 12  2  0
  8  7  1  0
  9 10  1  0
  9  8  2  0
 10 11  2  0
 11  1  1  0
 11 12  1  0
 13 14  1  0
 14 15  1  0
 15 17  1  0
 15 16  1  0
 18 15  1  0
  2 19  1  0
  4 20  1  0
  5 21  1  0
  7 22  1  0
  8 23  1  0
  9 24  1  0
 13 25  1  0
 13 26  1  0
 14 27  1  0
M  ISO  8  19  14  20  14  21  14  22  14  23  14  24  14  25   8  26   8
M  ISO  1  27   5
M  END
>  <minimizedAffinity>  (1) 
-4.89833117

>  <minimizedRMSD>  (1) 
1.61623859

$$$$
