
     RDKit          3D

 33 35  0  0  0  0  0  0  0  0999 V2000
   47.3770   33.8410   42.6130 C   0  0  0  0  0  0  0  0  0  0  0  0
   46.9710   33.7790   43.9190 C   0  0  0  0  0  0  0  0  0  0  0  0
   45.7710   34.3150   44.3420 C   0  0  0  0  0  0  0  0  0  0  0  0
   45.0200   34.9120   43.3670 C   0  0  0  0  0  0  0  0  0  0  0  0
   45.3840   34.9990   42.0470 C   0  0  0  0  0  0  0  0  0  0  0  0
   46.5570   34.4550   41.7230 N   0  0  0  0  0  0  0  0  0  0  0  0
   50.9680   33.2550   42.3110 C   0  0  0  0  0  0  0  0  0  0  0  0
   51.0530   32.2300   41.3490 C   0  0  0  0  0  0  0  0  0  0  0  0
   49.8590   31.7610   40.8170 C   0  0  0  0  0  0  0  0  0  0  0  0
   48.6830   32.2790   41.2180 N   0  0  0  0  0  0  0  0  0  0  0  0
   48.6400   33.2740   42.1580 C   0  0  0  0  0  0  0  0  0  0  0  0
   49.7700   33.7600   42.7020 N   0  0  0  0  0  0  0  0  0  0  0  0
   45.3400   34.2090   45.7630 C   0  0  0  0  0  0  0  0  0  0  0  0
   46.3690   33.4680   46.4660 N   0  0  0  0  0  0  0  0  0  0  0  0
   45.9760   32.4980   47.4090 C   0  0  0  0  0  0  0  0  0  0  0  0
   45.7680   31.3100   46.7110 C   0  0  0  0  0  0  0  0  0  0  0  0
   45.3840   30.1350   47.3490 C   0  0  0  0  0  0  0  0  0  0  0  0
   45.2140   30.1960   48.7370 C   0  0  0  0  0  0  0  0  0  0  0  0
   45.4310   31.3940   49.4060 C   0  0  0  0  0  0  0  0  0  0  0  0
   45.8020   32.5140   48.7370 N   0  0  0  0  0  0  0  0  0  0  0  0
   47.6223   33.2859   44.6556 H   0  0  0  0  0  0  0  0  0  0  0  0
   44.0566   35.3533   43.6619 H   0  0  0  0  0  0  0  0  0  0  0  0
   44.7443   35.4897   41.2987 H   0  0  0  0  0  0  0  0  0  0  0  0
   51.8916   33.6548   42.7549 H   0  0  0  0  0  0  0  0  0  0  0  0
   52.0230   31.8187   41.0327 H   0  0  0  0  0  0  0  0  0  0  0  0
   49.8743   30.9606   40.0626 H   0  0  0  0  0  0  0  0  0  0  0  0
   45.2320   35.2125   46.2005 H   0  0  0  0  0  0  0  0  0  0  0  0
   44.3682   33.6995   45.8406 H   0  0  0  0  0  0  0  0  0  0  0  0
   47.3661   33.6470   46.2799 H   0  0  0  0  0  0  0  0  0  0  0  0
   45.9121   31.3011   45.6205 H   0  0  0  0  0  0  0  0  0  0  0  0
   45.2216   29.2021   46.7892 H   0  0  0  0  0  0  0  0  0  0  0  0
   44.9097   29.2988   49.2959 H   0  0  0  0  0  0  0  0  0  0  0  0
   45.2996   31.4350   50.4974 H   0  0  0  0  0  0  0  0  0  0  0  0
  1  2  2  0
  2  3  1  0
  3 13  1  0
  4  3  2  0
  5  4  1  0
  6  5  2  0
  6  1  1  0
  7 12  2  0
  8  7  1  0
  9 10  1  0
  9  8  2  0
 10 11  2  0
 11  1  1  0
 11 12  1  0
 13 14  1  0
 14 15  1  0
 15 20  2  0
 16 17  2  0
 16 15  1  0
 17 18  1  0
 18 19  2  0
 20 19  1  0
  2 21  1  0
  4 22  1  0
  5 23  1  0
  7 24  1  0
  8 25  1  0
  9 26  1  0
 13 27  1  0
 13 28  1  0
 14 29  1  0
 16 30  1  0
 17 31  1  0
 18 32  1  0
 19 33  1  0
M  ISO  8  21  14  22  14  23  14  24  14  25  14  26  14  27   8  28   8
M  ISO  4  30  14  31  14  32  14  33  14
M  END
>  <minimizedAffinity>  (1) 
-5.53958988

>  <minimizedRMSD>  (1) 
4.92976761

$$$$
