
     RDKit          3D

 36 37  0  0  0  0  0  0  0  0999 V2000
   45.6240   33.6750   45.9490 C   0  0  0  0  0  0  0  0  0  0  0  0
   46.2500   33.5710   44.7190 C   0  0  0  0  0  0  0  0  0  0  0  0
   46.0200   34.4370   43.6850 C   0  0  0  0  0  0  0  0  0  0  0  0
   45.1110   35.4280   43.9650 C   0  0  0  0  0  0  0  0  0  0  0  0
   44.4500   35.5880   45.1770 C   0  0  0  0  0  0  0  0  0  0  0  0
   44.7450   34.6870   46.1270 N   0  0  0  0  0  0  0  0  0  0  0  0
   47.4600   31.7210   48.4100 C   0  0  0  0  0  0  0  0  0  0  0  0
   46.4350   31.0110   49.0840 C   0  0  0  0  0  0  0  0  0  0  0  0
   45.1030   31.2130   48.6830 C   0  0  0  0  0  0  0  0  0  0  0  0
   44.8810   32.0720   47.6760 N   0  0  0  0  0  0  0  0  0  0  0  0
   45.8800   32.7410   47.0440 C   0  0  0  0  0  0  0  0  0  0  0  0
   47.1390   32.5630   47.4100 N   0  0  0  0  0  0  0  0  0  0  0  0
   46.6700   34.3450   42.3780 C   0  0  0  0  0  0  0  0  0  0  0  0
   47.8060   33.4310   42.5290 N   0  0  0  0  0  0  0  0  0  0  0  0
   48.9230   33.8340   41.7030 C   0  0  0  0  0  0  0  0  0  0  0  0
   49.3700   32.6960   40.8170 C   0  0  0  0  0  0  0  0  0  0  0  0
   48.4110   34.9440   40.7920 C   0  0  0  0  0  0  0  0  0  0  0  0
   50.1070   34.3360   42.4730 C   0  0  0  0  0  0  0  0  0  0  0  0
   46.9678   32.7518   44.5652 H   0  0  0  0  0  0  0  0  0  0  0  0
   44.8888   36.1519   43.1672 H   0  0  0  0  0  0  0  0  0  0  0  0
   43.7301   36.4021   45.3470 H   0  0  0  0  0  0  0  0  0  0  0  0
   48.5116   31.5848   48.7024 H   0  0  0  0  0  0  0  0  0  0  0  0
   46.6766   30.3173   49.9028 H   0  0  0  0  0  0  0  0  0  0  0  0
   44.2729   30.6863   49.1765 H   0  0  0  0  0  0  0  0  0  0  0  0
   47.0229   35.3374   42.0607 H   0  0  0  0  0  0  0  0  0  0  0  0
   45.9682   33.9771   41.6150 H   0  0  0  0  0  0  0  0  0  0  0  0
   48.1033   33.4264   43.5152 H   0  0  0  0  0  0  0  0  0  0  0  0
   49.7010   31.8532   41.4416 H   0  0  0  0  0  0  0  0  0  0  0  0
   48.5313   32.3745   40.1820 H   0  0  0  0  0  0  0  0  0  0  0  0
   50.2033   33.0312   40.1820 H   0  0  0  0  0  0  0  0  0  0  0  0
   48.0283   35.7737   41.4045 H   0  0  0  0  0  0  0  0  0  0  0  0
   49.2332   35.3058   40.1571 H   0  0  0  0  0  0  0  0  0  0  0  0
   47.6021   34.5534   40.1571 H   0  0  0  0  0  0  0  0  0  0  0  0
   49.9061   34.2508   43.5511 H   0  0  0  0  0  0  0  0  0  0  0  0
   50.9925   33.7359   42.2165 H   0  0  0  0  0  0  0  0  0  0  0  0
   50.2913   35.3897   42.2165 H   0  0  0  0  0  0  0  0  0  0  0  0
  1  6  1  0
  1 11  1  0
  2  1  2  0
  3  4  2  0
  3  2  1  0
  4  5  1  0
  5  6  2  0
  7  8  2  0
  9  8  1  0
 10  9  2  0
 11 12  2  0
 11 10  1  0
 12  7  1  0
 13 14  1  0
 13  3  1  0
 15 18  1  0
 15 14  1  0
 16 15  1  0
 17 15  1  0
  2 19  1  0
  4 20  1  0
  5 21  1  0
  7 22  1  0
  8 23  1  0
  9 24  1  0
 13 25  1  0
 13 26  1  0
 14 27  1  0
 16 28  1  0
 16 29  1  0
 16 30  1  0
 17 31  1  0
 17 32  1  0
 17 33  1  0
 18 34  1  0
 18 35  1  0
 18 36  1  0
M  ISO  8  19  14  20  14  21  14  22  14  23  14  24  14  25   8  26   8
M  ISO  8  27   5  28   8  29   8  30   8  31   8  32   8  33   8  34   8
M  ISO  2  35   8  36   8
M  END
>  <minimizedAffinity>  (1) 
-5.34282637

>  <minimizedRMSD>  (1) 
7.2282238

$$$$
