
     RDKit          3D

 26 27  0  0  0  0  0  0  0  0999 V2000
   46.5950   32.7580   45.3610 C   0  0  0  0  0  0  0  0  0  0  0  0
   46.6940   32.6910   46.7430 C   0  0  0  0  0  0  0  0  0  0  0  0
   47.2030   31.6090   47.4000 C   0  0  0  0  0  0  0  0  0  0  0  0
   47.6160   30.5800   46.5700 C   0  0  0  0  0  0  0  0  0  0  0  0
   47.5370   30.6000   45.1890 C   0  0  0  0  0  0  0  0  0  0  0  0
   47.0190   31.7140   44.6420 N   0  0  0  0  0  0  0  0  0  0  0  0
   44.5520   35.7270   44.7530 C   0  0  0  0  0  0  0  0  0  0  0  0
   44.9810   36.1510   43.4720 C   0  0  0  0  0  0  0  0  0  0  0  0
   45.9880   35.3990   42.8190 C   0  0  0  0  0  0  0  0  0  0  0  0
   46.4900   34.3110   43.4500 N   0  0  0  0  0  0  0  0  0  0  0  0
   46.0400   33.9450   44.6880 C   0  0  0  0  0  0  0  0  0  0  0  0
   45.1030   34.6300   45.3160 N   0  0  0  0  0  0  0  0  0  0  0  0
   47.3250   31.5040   48.8560 C   0  0  0  0  0  0  0  0  0  0  0  0
   46.0580   31.9880   49.4190 N   0  0  0  0  0  0  0  0  0  0  0  0
   44.9070   31.1650   49.3680 C   0  0  0  0  0  0  0  0  0  0  0  0
   45.0440   29.9400   49.1100 O   0  0  0  0  0  0  0  0  0  0  0  0
   46.3462   33.5495   47.3363 H   0  0  0  0  0  0  0  0  0  0  0  0
   48.0377   29.6811   47.0435 H   0  0  0  0  0  0  0  0  0  0  0  0
   47.8780   29.7540   44.5742 H   0  0  0  0  0  0  0  0  0  0  0  0
   43.7724   36.2893   45.2879 H   0  0  0  0  0  0  0  0  0  0  0  0
   44.5436   37.0412   42.9964 H   0  0  0  0  0  0  0  0  0  0  0  0
   46.3534   35.6916   41.8236 H   0  0  0  0  0  0  0  0  0  0  0  0
   47.4949   30.4572   49.1482 H   0  0  0  0  0  0  0  0  0  0  0  0
   48.1754   32.0952   49.2266 H   0  0  0  0  0  0  0  0  0  0  0  0
   46.0068   32.9224   49.8493 H   0  0  0  0  0  0  0  0  0  0  0  0
   43.9086   31.5890   49.5509 H   0  0  0  0  0  0  0  0  0  0  0  0
  1  2  2  0
  2  3  1  0
  3 13  1  0
  4  3  2  0
  5  4  1  0
  6  5  2  0
  6  1  1  0
  7 12  2  0
  8  7  1  0
  9 10  1  0
  9  8  2  0
 10 11  2  0
 11 12  1  0
 11  1  1  0
 13 14  1  0
 15 14  1  0
 16 15  2  0
  2 17  1  0
  4 18  1  0
  5 19  1  0
  7 20  1  0
  8 21  1  0
  9 22  1  0
 13 23  1  0
 13 24  1  0
 14 25  1  0
 15 26  1  0
M  ISO  8  17  14  18  14  19  14  20  14  21  14  22  14  23   8  24   8
M  ISO  1  26   6
M  END
>  <minimizedAffinity>  (1) 
-5.01437998

>  <minimizedRMSD>  (1) 
0.78584981

$$$$
