
     RDKit          3D

 27 28  0  0  0  0  0  0  0  0999 V2000
   46.7210   32.6050   44.8900 C   0  0  0  0  0  0  0  0  0  0  0  0
   46.8750   32.2970   46.2210 C   0  0  0  0  0  0  0  0  0  0  0  0
   47.4110   31.1490   46.6980 C   0  0  0  0  0  0  0  0  0  0  0  0
   47.8100   30.2720   45.6950 C   0  0  0  0  0  0  0  0  0  0  0  0
   47.6880   30.5120   44.3360 C   0  0  0  0  0  0  0  0  0  0  0  0
   47.1380   31.6910   43.9830 N   0  0  0  0  0  0  0  0  0  0  0  0
   44.6140   35.5840   44.8550 C   0  0  0  0  0  0  0  0  0  0  0  0
   44.9480   36.1950   43.6280 C   0  0  0  0  0  0  0  0  0  0  0  0
   45.9210   35.5600   42.8070 C   0  0  0  0  0  0  0  0  0  0  0  0
   46.4700   34.4130   43.2430 N   0  0  0  0  0  0  0  0  0  0  0  0
   46.1200   33.8610   44.4300 C   0  0  0  0  0  0  0  0  0  0  0  0
   45.2040   34.4350   45.2300 N   0  0  0  0  0  0  0  0  0  0  0  0
   47.5630   30.7980   48.1070 C   0  0  0  0  0  0  0  0  0  0  0  0
   46.2410   30.5050   48.6300 N   0  0  0  0  0  0  0  0  0  0  0  0
   45.1320   31.2750   49.0470 C   0  0  0  0  0  0  0  0  0  0  0  0
   44.8970   31.3800   50.2700 O   0  0  0  0  0  0  0  0  0  0  0  0
   44.2730   31.9320   48.1940 O   0  0  0  0  0  0  0  0  0  0  0  0
   46.5361   33.0418   46.9561 H   0  0  0  0  0  0  0  0  0  0  0  0
   48.2563   29.3153   46.0042 H   0  0  0  0  0  0  0  0  0  0  0  0
   48.0218   29.7802   43.5857 H   0  0  0  0  0  0  0  0  0  0  0  0
   43.8646   36.0514   45.5107 H   0  0  0  0  0  0  0  0  0  0  0  0
   44.4700   37.1350   43.3152 H   0  0  0  0  0  0  0  0  0  0  0  0
   46.2162   35.9960   41.8412 H   0  0  0  0  0  0  0  0  0  0  0  0
   48.2102   29.9140   48.2059 H   0  0  0  0  0  0  0  0  0  0  0  0
   48.0248   31.6263   48.6644 H   0  0  0  0  0  0  0  0  0  0  0  0
   46.0704   29.4931   48.7183 H   0  0  0  0  0  0  0  0  0  0  0  0
   43.5154   32.4539   48.5597 H   0  0  0  0  0  0  0  0  0  0  0  0
  1  2  2  0
  2  3  1  0
  3 13  1  0
  4  3  2  0
  5  4  1  0
  6  5  2  0
  6  1  1  0
  7 12  2  0
  8  7  1  0
  9 10  1  0
  9  8  2  0
 10 11  2  0
 11  1  1  0
 11 12  1  0
 13 14  1  0
 14 15  1  0
 15 16  2  0
 17 15  1  0
  2 18  1  0
  4 19  1  0
  5 20  1  0
  7 21  1  0
  8 22  1  0
  9 23  1  0
 13 24  1  0
 13 25  1  0
 14 26  1  0
 17 27  1  0
M  ISO  8  18  14  19  14  20  14  21  14  22  14  23  14  24   8  25   8
M  ISO  1  27   3
M  END
>  <minimizedAffinity>  (1) 
-4.83624411

>  <minimizedRMSD>  (1) 
1.4258908

$$$$
