
     RDKit          3D

 34 36  0  0  0  0  0  0  0  0999 V2000
   47.1970   34.0360   42.4590 C   0  0  0  0  0  0  0  0  0  0  0  0
   48.1110   33.0260   42.7190 C   0  0  0  0  0  0  0  0  0  0  0  0
   48.9840   32.5590   41.7650 C   0  0  0  0  0  0  0  0  0  0  0  0
   48.8820   33.1680   40.5400 C   0  0  0  0  0  0  0  0  0  0  0  0
   47.9950   34.1700   40.2330 C   0  0  0  0  0  0  0  0  0  0  0  0
   47.1810   34.5640   41.2210 N   0  0  0  0  0  0  0  0  0  0  0  0
   45.3450   34.2220   45.6010 C   0  0  0  0  0  0  0  0  0  0  0  0
   44.5610   35.3860   45.4400 C   0  0  0  0  0  0  0  0  0  0  0  0
   44.6800   36.0990   44.2420 C   0  0  0  0  0  0  0  0  0  0  0  0
   45.5340   35.6620   43.2770 N   0  0  0  0  0  0  0  0  0  0  0  0
   46.2700   34.5260   43.4870 C   0  0  0  0  0  0  0  0  0  0  0  0
   46.1750   33.8310   44.6170 N   0  0  0  0  0  0  0  0  0  0  0  0
   49.9550   31.4800   42.0580 C   0  0  0  0  0  0  0  0  0  0  0  0
   49.1690   30.3450   42.5710 N   0  0  0  0  0  0  0  0  0  0  0  0
   49.3280   29.8840   43.9240 C   0  0  0  0  0  0  0  0  0  0  0  0
   48.3050   29.9620   44.8480 C   0  0  0  0  0  0  0  0  0  0  0  0
   48.4830   29.5110   46.1450 C   0  0  0  0  0  0  0  0  0  0  0  0
   49.7020   28.9810   46.5030 C   0  0  0  0  0  0  0  0  0  0  0  0
   50.7190   28.9080   45.5730 C   0  0  0  0  0  0  0  0  0  0  0  0
   50.5520   29.3540   44.2790 C   0  0  0  0  0  0  0  0  0  0  0  0
   48.1386   32.5823   43.7252 H   0  0  0  0  0  0  0  0  0  0  0  0
   49.5615   32.8282   39.7445 H   0  0  0  0  0  0  0  0  0  0  0  0
   47.9551   34.6238   39.2318 H   0  0  0  0  0  0  0  0  0  0  0  0
   45.2770   33.6362   46.5295 H   0  0  0  0  0  0  0  0  0  0  0  0
   43.8770   35.7220   46.2332 H   0  0  0  0  0  0  0  0  0  0  0  0
   44.0850   37.0100   44.0808 H   0  0  0  0  0  0  0  0  0  0  0  0
   50.4899   31.1897   41.1417 H   0  0  0  0  0  0  0  0  0  0  0  0
   50.7084   31.8078   42.7894 H   0  0  0  0  0  0  0  0  0  0  0  0
   48.4948   29.8740   41.9510 H   0  0  0  0  0  0  0  0  0  0  0  0
   47.3357   30.3881   44.5498 H   0  0  0  0  0  0  0  0  0  0  0  0
   47.6643   29.5751   46.8768 H   0  0  0  0  0  0  0  0  0  0  0  0
   49.8651   28.6165   47.5280 H   0  0  0  0  0  0  0  0  0  0  0  0
   51.6885   28.4828   45.8719 H   0  0  0  0  0  0  0  0  0  0  0  0
   51.3724   29.2891   43.5491 H   0  0  0  0  0  0  0  0  0  0  0  0
  1  2  2  0
  1 11  1  0
  3 13  1  0
  3  2  1  0
  4  3  2  0
  5  4  1  0
  5  6  2  0
  6  1  1  0
  8  7  2  0
  9  8  1  0
 10 11  1  0
 10  9  2  0
 11 12  2  0
 12  7  1  0
 13 14  1  0
 14 15  1  0
 15 20  1  0
 15 16  2  0
 16 17  1  0
 17 18  2  0
 19 18  1  0
 20 19  2  0
  2 21  1  0
  4 22  1  0
  5 23  1  0
  7 24  1  0
  8 25  1  0
  9 26  1  0
 13 27  1  0
 13 28  1  0
 14 29  1  0
 16 30  1  0
 17 31  1  0
 18 32  1  0
 19 33  1  0
 20 34  1  0
M  ISO  8  21  14  22  14  23  14  24  14  25  14  26  14  27   8  28   8
M  ISO  5  30  14  31  14  32  14  33  14  34  14
M  END
>  <minimizedAffinity>  (1) 
-4.2166357

>  <minimizedRMSD>  (1) 
6.60028601

$$$$
