
     RDKit          3D

 28 29  0  0  0  0  0  0  0  0999 V2000
   46.6520   32.5220   45.2070 C   0  0  0  0  0  0  0  0  0  0  0  0
   46.6250   32.0920   46.5310 C   0  0  0  0  0  0  0  0  0  0  0  0
   47.2310   30.9270   46.9400 C   0  0  0  0  0  0  0  0  0  0  0  0
   47.8640   30.2190   45.9540 C   0  0  0  0  0  0  0  0  0  0  0  0
   47.9180   30.6010   44.6310 C   0  0  0  0  0  0  0  0  0  0  0  0
   47.3010   31.7450   44.3310 N   0  0  0  0  0  0  0  0  0  0  0  0
   44.5730   35.5030   45.3090 C   0  0  0  0  0  0  0  0  0  0  0  0
   44.7930   36.0900   44.0440 C   0  0  0  0  0  0  0  0  0  0  0  0
   45.6640   35.4380   43.1630 C   0  0  0  0  0  0  0  0  0  0  0  0
   46.2560   34.2910   43.5480 N   0  0  0  0  0  0  0  0  0  0  0  0
   46.0070   33.7630   44.7910 C   0  0  0  0  0  0  0  0  0  0  0  0
   45.1880   34.3610   45.6370 N   0  0  0  0  0  0  0  0  0  0  0  0
   47.1870   30.4970   48.3610 C   0  0  0  0  0  0  0  0  0  0  0  0
   45.7870   30.4020   48.7340 N   0  0  0  0  0  0  0  0  0  0  0  0
   45.1210   29.3120   48.0760 C   0  0  0  0  0  0  0  0  0  0  0  0
   45.0840   28.0190   48.6750 N   0  0  0  0  0  0  0  0  0  0  0  0
   44.4990   29.2110   46.9900 O   0  0  0  0  0  0  0  0  0  0  0  0
   46.0999   32.7064   47.2771 H   0  0  0  0  0  0  0  0  0  0  0  0
   48.3638   29.2809   46.2372 H   0  0  0  0  0  0  0  0  0  0  0  0
   48.4374   30.0001   43.8700 H   0  0  0  0  0  0  0  0  0  0  0  0
   43.8939   35.9860   46.0271 H   0  0  0  0  0  0  0  0  0  0  0  0
   44.2961   37.0293   43.7598 H   0  0  0  0  0  0  0  0  0  0  0  0
   45.8630   35.8583   42.1661 H   0  0  0  0  0  0  0  0  0  0  0  0
   47.6752   29.5178   48.4744 H   0  0  0  0  0  0  0  0  0  0  0  0
   47.7162   31.2153   49.0045 H   0  0  0  0  0  0  0  0  0  0  0  0
   45.3243   31.0426   49.3946 H   0  0  0  0  0  0  0  0  0  0  0  0
   44.6044   27.2432   48.1964 H   0  0  0  0  0  0  0  0  0  0  0  0
   45.5369   27.8605   49.5864 H   0  0  0  0  0  0  0  0  0  0  0  0
  1  2  2  0
  2  3  1  0
  3 13  1  0
  4  3  2  0
  5  4  1  0
  6  5  2  0
  6  1  1  0
  7 12  2  0
  8  7  1  0
  9 10  1  0
  9  8  2  0
 10 11  2  0
 11  1  1  0
 11 12  1  0
 13 14  1  0
 15 16  1  0
 15 14  1  0
 17 15  2  0
  2 18  1  0
  4 19  1  0
  5 20  1  0
  7 21  1  0
  8 22  1  0
  9 23  1  0
 13 24  1  0
 13 25  1  0
 14 26  1  0
 16 27  1  0
 16 28  1  0
M  ISO  8  18  14  19  14  20  14  21  14  22  14  23  14  24   8  25   8
M  END
>  <minimizedAffinity>  (1) 
-4.72299194

>  <minimizedRMSD>  (1) 
1.2439934

$$$$
