
     RDKit          3D

 42 44  0  0  1  0  0  0  0  0999 V2000
   46.4250   32.4220   44.6330 C   0  0  0  0  0  0  0  0  0  0  0  0
   45.7930   31.4800   45.4560 C   0  0  0  0  0  0  0  0  0  0  0  0
   46.3560   30.2550   45.6630 C   0  0  0  0  0  0  0  0  0  0  0  0
   47.5470   29.9890   45.0410 C   0  0  0  0  0  0  0  0  0  0  0  0
   48.1870   30.8950   44.2290 C   0  0  0  0  0  0  0  0  0  0  0  0
   47.5820   32.0780   44.0690 N   0  0  0  0  0  0  0  0  0  0  0  0
   44.6160   35.5060   45.2880 C   0  0  0  0  0  0  0  0  0  0  0  0
   44.7550   36.2280   44.0940 C   0  0  0  0  0  0  0  0  0  0  0  0
   45.4730   35.6340   43.0630 C   0  0  0  0  0  0  0  0  0  0  0  0
   45.9960   34.4080   43.2480 N   0  0  0  0  0  0  0  0  0  0  0  0
   45.8280   33.7490   44.4350 C   0  0  0  0  0  0  0  0  0  0  0  0
   45.1480   34.2880   45.4420 N   0  0  0  0  0  0  0  0  0  0  0  0
   45.6450   29.3120   46.6100 C   0  0  2  0  0  0  0  0  0  0  0  0
   44.2870   29.4270   46.3640 N   0  0  0  0  0  0  0  0  0  0  0  0
   43.6540   28.5530   45.4560 C   0  0  0  0  0  0  0  0  0  0  0  0
   42.9630   27.4230   45.9010 N   0  0  0  0  0  0  0  0  0  0  0  0
   43.5410   28.5380   44.2030 O   0  0  0  0  0  0  0  0  0  0  0  0
   45.8220   29.9050   47.8970 N   0  0  0  0  0  0  0  0  0  0  0  0
   47.2160   30.1940   48.1110 C   0  0  0  0  0  0  0  0  0  0  0  0
   47.6030   31.6080   48.3220 C   0  0  0  0  0  0  0  0  0  0  0  0
   46.6700   32.4820   48.9380 N   0  0  0  0  0  0  0  0  0  0  0  0
   45.5260   31.7240   49.3670 C   0  0  0  0  0  0  0  0  0  0  0  0
   45.0220   31.0940   48.0690 C   0  0  0  0  0  0  0  0  0  0  0  0
   44.8365   31.7302   45.9382 H   0  0  0  0  0  0  0  0  0  0  0  0
   48.0128   29.0050   45.1985 H   0  0  0  0  0  0  0  0  0  0  0  0
   49.1431   30.6607   43.7381 H   0  0  0  0  0  0  0  0  0  0  0  0
   44.0540   35.9533   46.1211 H   0  0  0  0  0  0  0  0  0  0  0  0
   44.3119   37.2281   43.9777 H   0  0  0  0  0  0  0  0  0  0  0  0
   45.6122   36.1599   42.1069 H   0  0  0  0  0  0  0  0  0  0  0  0
   46.0026   28.2757   46.5194 H   0  0  0  0  0  0  0  0  0  0  0  0
   43.7376   30.1530   46.8456 H   0  0  0  0  0  0  0  0  0  0  0  0
   42.5074   26.7972   45.2215 H   0  0  0  0  0  0  0  0  0  0  0  0
   42.9092   27.2159   46.9085 H   0  0  0  0  0  0  0  0  0  0  0  0
   47.5354   29.6302   48.9999 H   0  0  0  0  0  0  0  0  0  0  0  0
   47.7060   29.9101   47.1680 H   0  0  0  0  0  0  0  0  0  0  0  0
   48.5081   31.6068   48.9471 H   0  0  0  0  0  0  0  0  0  0  0  0
   47.7165   32.0102   47.3045 H   0  0  0  0  0  0  0  0  0  0  0  0
   47.1082   32.9355   49.7524 H   0  0  0  0  0  0  0  0  0  0  0  0
   45.8144   30.9515   50.0951 H   0  0  0  0  0  0  0  0  0  0  0  0
   44.7662   32.3369   49.8740 H   0  0  0  0  0  0  0  0  0  0  0  0
   45.1658   31.7827   47.2234 H   0  0  0  0  0  0  0  0  0  0  0  0
   43.9465   30.8666   48.1099 H   0  0  0  0  0  0  0  0  0  0  0  0
  1  2  2  0
  2  3  1  0
  3 13  1  0
  4  3  2  0
  5  4  1  0
  6  5  2  0
  6  1  1  0
  7 12  2  0
  8  7  1  0
  9 10  1  0
  9  8  2  0
 10 11  2  0
 11  1  1  0
 11 12  1  0
 13 18  1  0
 14 13  1  0
 15 16  1  0
 15 14  1  0
 17 15  2  0
 18 23  1  0
 18 19  1  0
 19 20  1  0
 20 21  1  0
 21 22  1  0
 23 22  1  0
  2 24  1  0
  4 25  1  0
  5 26  1  0
  7 27  1  0
  8 28  1  0
  9 29  1  0
 13 30  1  1
 14 31  1  0
 16 32  1  0
 16 33  1  0
 19 34  1  0
 19 35  1  0
 20 36  1  0
 20 37  1  0
 21 38  1  0
 22 39  1  0
 22 40  1  0
 23 41  1  0
 23 42  1  0
M  ISO  8  24  14  25  14  26  14  27  14  28  14  29  14  30   8  34  13
M  ISO  8  35  13  36  13  37  13  38   5  39  13  40  13  41  13  42  13
M  END
>  <minimizedAffinity>  (1) 
-5.26442432

>  <minimizedRMSD>  (1) 
2.06524634

$$$$
