
     RDKit          3D

 43 45  0  0  1  0  0  0  0  0999 V2000
   46.4890   32.3790   44.5660 C   0  0  0  0  0  0  0  0  0  0  0  0
   45.8810   31.3820   45.3350 C   0  0  0  0  0  0  0  0  0  0  0  0
   46.4690   30.1560   45.4720 C   0  0  0  0  0  0  0  0  0  0  0  0
   47.6610   29.9520   44.8310 C   0  0  0  0  0  0  0  0  0  0  0  0
   48.2790   30.9120   44.0710 C   0  0  0  0  0  0  0  0  0  0  0  0
   47.6520   32.0920   43.9770 N   0  0  0  0  0  0  0  0  0  0  0  0
   44.6320   35.3940   45.4000 C   0  0  0  0  0  0  0  0  0  0  0  0
   44.7260   36.1680   44.2300 C   0  0  0  0  0  0  0  0  0  0  0  0
   45.4280   35.6300   43.1580 C   0  0  0  0  0  0  0  0  0  0  0  0
   45.9830   34.4130   43.2740 N   0  0  0  0  0  0  0  0  0  0  0  0
   45.8610   33.7020   44.4390 C   0  0  0  0  0  0  0  0  0  0  0  0
   45.1970   34.1850   45.4830 N   0  0  0  0  0  0  0  0  0  0  0  0
   45.7720   29.1530   46.3700 C   0  0  2  0  0  0  0  0  0  0  0  0
   44.4160   29.4130   46.3110 N   0  0  0  0  0  0  0  0  0  0  0  0
   43.5900   28.6810   45.4340 C   0  0  0  0  0  0  0  0  0  0  0  0
   42.8600   27.5640   45.8620 N   0  0  0  0  0  0  0  0  0  0  0  0
   43.3160   28.8090   44.2110 O   0  0  0  0  0  0  0  0  0  0  0  0
   46.1620   29.5640   47.6780 N   0  0  0  0  0  0  0  0  0  0  0  0
   45.1440   29.9720   48.5330 C   0  0  0  0  0  0  0  0  0  0  0  0
   45.1040   31.4120   48.9250 C   0  0  0  0  0  0  0  0  0  0  0  0
   46.3800   32.1660   48.5610 C   0  0  0  0  0  0  0  0  0  0  0  0
   47.5100   31.1890   48.9020 C   0  0  0  0  0  0  0  0  0  0  0  0
   47.4450   30.1500   47.7940 C   0  0  0  0  0  0  0  0  0  0  0  0
   44.9219   31.5861   45.8336 H   0  0  0  0  0  0  0  0  0  0  0  0
   48.1471   28.9702   44.9302 H   0  0  0  0  0  0  0  0  0  0  0  0
   49.2378   30.7231   43.5659 H   0  0  0  0  0  0  0  0  0  0  0  0
   44.0819   35.7916   46.2656 H   0  0  0  0  0  0  0  0  0  0  0  0
   44.2610   37.1628   44.1655 H   0  0  0  0  0  0  0  0  0  0  0  0
   45.5282   36.1973   42.2209 H   0  0  0  0  0  0  0  0  0  0  0  0
   45.9995   28.1085   46.1107 H   0  0  0  0  0  0  0  0  0  0  0  0
   44.0073   30.1444   46.9101 H   0  0  0  0  0  0  0  0  0  0  0  0
   42.2655   27.0510   45.1954 H   0  0  0  0  0  0  0  0  0  0  0  0
   42.9179   27.2560   46.8432 H   0  0  0  0  0  0  0  0  0  0  0  0
   44.1882   29.7385   48.0411 H   0  0  0  0  0  0  0  0  0  0  0  0
   45.3363   29.4328   49.4723 H   0  0  0  0  0  0  0  0  0  0  0  0
   44.2561   31.8909   48.4134 H   0  0  0  0  0  0  0  0  0  0  0  0
   44.9997   31.4518   50.0193 H   0  0  0  0  0  0  0  0  0  0  0  0
   46.4701   33.0879   49.1543 H   0  0  0  0  0  0  0  0  0  0  0  0
   46.3976   32.4757   47.5057 H   0  0  0  0  0  0  0  0  0  0  0  0
   48.4834   31.7013   48.9009 H   0  0  0  0  0  0  0  0  0  0  0  0
   47.3999   30.7474   49.9034 H   0  0  0  0  0  0  0  0  0  0  0  0
   48.1770   29.3577   48.0094 H   0  0  0  0  0  0  0  0  0  0  0  0
   47.6685   30.6582   46.8444 H   0  0  0  0  0  0  0  0  0  0  0  0
  1  2  2  0
  2  3  1  0
  3 13  1  0
  4  3  2  0
  5  4  1  0
  6  5  2  0
  6  1  1  0
  7 12  2  0
  8  7  1  0
  9 10  1  0
  9  8  2  0
 10 11  2  0
 11  1  1  0
 11 12  1  0
 13 18  1  0
 14 13  1  0
 15 16  1  0
 15 14  1  0
 17 15  2  0
 18 23  1  0
 18 19  1  0
 19 20  1  0
 21 22  1  0
 21 20  1  0
 23 22  1  0
  2 24  1  0
  4 25  1  0
  5 26  1  0
  7 27  1  0
  8 28  1  0
  9 29  1  0
 13 30  1  6
 14 31  1  0
 16 32  1  0
 16 33  1  0
 19 34  1  0
 19 35  1  0
 20 36  1  0
 20 37  1  0
 21 38  1  0
 21 39  1  0
 22 40  1  0
 22 41  1  0
 23 42  1  0
 23 43  1  0
M  ISO  8  24  14  25  14  26  14  27  14  28  14  29  14  30   8  34  13
M  ISO  8  35  13  36  13  37  13  38  13  39  13  40  13  41  13  42  13
M  ISO  1  43  13
M  END
>  <minimizedAffinity>  (1) 
-5.42121744

>  <minimizedRMSD>  (1) 
2.12371397

$$$$
