
     RDKit          3D

 44 46  0  0  1  0  0  0  0  0999 V2000
   46.8910   32.4510   44.4960 C   0  0  0  0  0  0  0  0  0  0  0  0
   46.9260   31.6760   45.6410 C   0  0  0  0  0  0  0  0  0  0  0  0
   47.6480   30.5200   45.7090 C   0  0  0  0  0  0  0  0  0  0  0  0
   48.3410   30.1620   44.5800 C   0  0  0  0  0  0  0  0  0  0  0  0
   48.3300   30.9070   43.4240 C   0  0  0  0  0  0  0  0  0  0  0  0
   47.5970   32.0260   43.4430 N   0  0  0  0  0  0  0  0  0  0  0  0
   44.7010   35.1700   45.5430 C   0  0  0  0  0  0  0  0  0  0  0  0
   44.6840   36.0150   44.4000 C   0  0  0  0  0  0  0  0  0  0  0  0
   45.4270   35.6250   43.2930 C   0  0  0  0  0  0  0  0  0  0  0  0
   46.1280   34.4810   43.3350 N   0  0  0  0  0  0  0  0  0  0  0  0
   46.1140   33.6960   44.4630 C   0  0  0  0  0  0  0  0  0  0  0  0
   45.4190   34.0420   45.5280 N   0  0  0  0  0  0  0  0  0  0  0  0
   47.6780   29.7550   47.0050 C   0  0  2  0  0  0  0  0  0  0  0  0
   46.5910   30.1610   47.7580 N   0  0  0  0  0  0  0  0  0  0  0  0
   45.3960   29.4120   47.7330 C   0  0  0  0  0  0  0  0  0  0  0  0
   45.0830   28.4540   48.7120 N   0  0  0  0  0  0  0  0  0  0  0  0
   44.4110   29.3960   46.9440 O   0  0  0  0  0  0  0  0  0  0  0  0
   48.8790   30.2490   47.7210 C   0  0  0  0  0  0  0  0  0  0  0  0
   48.4040   30.8610   49.0300 C   0  0  0  0  0  0  0  0  0  0  0  0
   49.5650   31.2810   49.9070 C   0  0  0  0  0  0  0  0  0  0  0  0
   50.3950   30.0820   50.2690 C   0  0  0  0  0  0  0  0  0  0  0  0
   49.9300   28.8570   49.5330 C   0  0  0  0  0  0  0  0  0  0  0  0
   49.7590   29.0630   48.0570 C   0  0  0  0  0  0  0  0  0  0  0  0
   46.3549   32.0011   46.5231 H   0  0  0  0  0  0  0  0  0  0  0  0
   48.9333   29.2353   44.6005 H   0  0  0  0  0  0  0  0  0  0  0  0
   48.8940   30.5991   42.5312 H   0  0  0  0  0  0  0  0  0  0  0  0
   44.1242   35.4437   46.4388 H   0  0  0  0  0  0  0  0  0  0  0  0
   44.1011   36.9478   44.3924 H   0  0  0  0  0  0  0  0  0  0  0  0
   45.4408   36.2497   42.3877 H   0  0  0  0  0  0  0  0  0  0  0  0
   47.6740   28.6666   46.8456 H   0  0  0  0  0  0  0  0  0  0  0  0
   46.6542   31.0104   48.3371 H   0  0  0  0  0  0  0  0  0  0  0  0
   44.1985   27.9294   48.6550 H   0  0  0  0  0  0  0  0  0  0  0  0
   45.7381   28.2763   49.4867 H   0  0  0  0  0  0  0  0  0  0  0  0
   49.4312   30.9775   47.1091 H   0  0  0  0  0  0  0  0  0  0  0  0
   47.7878   31.7446   48.8073 H   0  0  0  0  0  0  0  0  0  0  0  0
   47.8226   30.1008   49.5724 H   0  0  0  0  0  0  0  0  0  0  0  0
   50.1891   32.0054   49.3631 H   0  0  0  0  0  0  0  0  0  0  0  0
   49.1750   31.7414   50.8267 H   0  0  0  0  0  0  0  0  0  0  0  0
   51.4450   30.2804   50.0080 H   0  0  0  0  0  0  0  0  0  0  0  0
   50.2915   29.8999   51.3489 H   0  0  0  0  0  0  0  0  0  0  0  0
   50.6702   28.0582   49.6877 H   0  0  0  0  0  0  0  0  0  0  0  0
   48.9396   28.5990   49.9362 H   0  0  0  0  0  0  0  0  0  0  0  0
   49.3055   28.1576   47.6273 H   0  0  0  0  0  0  0  0  0  0  0  0
   50.7552   29.2639   47.6361 H   0  0  0  0  0  0  0  0  0  0  0  0
  1  2  2  0
  2  3  1  0
  3 13  1  0
  4  3  2  0
  5  6  2  0
  5  4  1  0
  6  1  1  0
  8  7  2  0
  9 10  2  0
  9  8  1  0
 10 11  1  0
 11  1  1  0
 11 12  2  0
 12  7  1  0
 13 18  1  0
 13 14  1  0
 15 14  1  0
 15 16  1  0
 17 15  2  0
 18 23  1  0
 18 19  1  0
 19 20  1  0
 20 21  1  0
 22 21  1  0
 23 22  1  0
  2 24  1  0
  4 25  1  0
  5 26  1  0
  7 27  1  0
  8 28  1  0
  9 29  1  0
 13 30  1  6
 14 31  1  0
 16 32  1  0
 16 33  1  0
 18 34  1  0
 19 35  1  0
 19 36  1  0
 20 37  1  0
 20 38  1  0
 21 39  1  0
 21 40  1  0
 22 41  1  0
 22 42  1  0
 23 43  1  0
 23 44  1  0
M  ISO  8  24  14  25  14  26  14  27  14  28  14  29  14  30   8  34  13
M  ISO  8  35  13  36  13  37  13  38  13  39  13  40  13  41  13  42  13
M  ISO  2  43  13  44  13
M  END
>  <minimizedAffinity>  (1) 
-5.37771368

>  <minimizedRMSD>  (1) 
1.83538294

$$$$
