
     RDKit          3D

 35 37  0  0  1  0  0  0  0  0999 V2000
   46.9180   32.2280   44.8870 C   0  0  0  0  0  0  0  0  0  0  0  0
   46.9080   31.4520   46.0480 C   0  0  0  0  0  0  0  0  0  0  0  0
   47.6510   30.3010   46.1210 C   0  0  0  0  0  0  0  0  0  0  0  0
   48.3870   29.9540   45.0250 C   0  0  0  0  0  0  0  0  0  0  0  0
   48.4150   30.7030   43.8640 C   0  0  0  0  0  0  0  0  0  0  0  0
   47.6700   31.8140   43.8600 N   0  0  0  0  0  0  0  0  0  0  0  0
   44.7080   34.9550   45.8580 C   0  0  0  0  0  0  0  0  0  0  0  0
   44.6520   35.7540   44.6990 C   0  0  0  0  0  0  0  0  0  0  0  0
   45.3840   35.3320   43.5960 C   0  0  0  0  0  0  0  0  0  0  0  0
   46.1130   34.2030   43.6530 N   0  0  0  0  0  0  0  0  0  0  0  0
   46.1280   33.4630   44.8160 C   0  0  0  0  0  0  0  0  0  0  0  0
   45.4420   33.8360   45.8830 N   0  0  0  0  0  0  0  0  0  0  0  0
   47.6350   29.5330   47.4180 C   0  0  2  0  0  0  0  0  0  0  0  0
   46.4750   29.8600   48.0900 N   0  0  0  0  0  0  0  0  0  0  0  0
   45.3140   29.0770   47.9050 C   0  0  0  0  0  0  0  0  0  0  0  0
   44.9420   28.0360   48.7760 N   0  0  0  0  0  0  0  0  0  0  0  0
   44.4040   29.0890   47.0270 O   0  0  0  0  0  0  0  0  0  0  0  0
   48.7200   30.1180   48.2010 C   0  0  0  0  0  0  0  0  0  0  0  0
   48.5040   31.0490   49.2230 C   0  0  0  0  0  0  0  0  0  0  0  0
   49.7260   31.4290   49.7910 C   0  0  0  0  0  0  0  0  0  0  0  0
   50.6160   30.6790   49.0500 C   0  0  0  0  0  0  0  0  0  0  0  0
   49.9990   29.9460   48.1540 O   0  0  0  0  0  0  0  0  0  0  0  0
   46.3004   31.7657   46.9096 H   0  0  0  0  0  0  0  0  0  0  0  0
   48.9872   29.0332   45.0681 H   0  0  0  0  0  0  0  0  0  0  0  0
   49.0157   30.4027   42.9928 H   0  0  0  0  0  0  0  0  0  0  0  0
   44.1421   35.2542   46.7526 H   0  0  0  0  0  0  0  0  0  0  0  0
   44.0524   36.6757   44.6685 H   0  0  0  0  0  0  0  0  0  0  0  0
   45.3672   35.9252   42.6698 H   0  0  0  0  0  0  0  0  0  0  0  0
   47.7174   28.4470   47.2639 H   0  0  0  0  0  0  0  0  0  0  0  0
   46.4558   30.6716   48.7239 H   0  0  0  0  0  0  0  0  0  0  0  0
   44.0843   27.4950   48.5953 H   0  0  0  0  0  0  0  0  0  0  0  0
   45.5274   27.8151   49.5942 H   0  0  0  0  0  0  0  0  0  0  0  0
   47.5190   31.4268   49.5344 H   0  0  0  0  0  0  0  0  0  0  0  0
   49.9237   32.1367   50.6096 H   0  0  0  0  0  0  0  0  0  0  0  0
   51.7066   30.6939   49.1927 H   0  0  0  0  0  0  0  0  0  0  0  0
  1  2  2  0
  2  3  1  0
  3 13  1  0
  4  3  2  0
  5  4  1  0
  6  5  2  0
  6  1  1  0
  7 12  2  0
  8  7  1  0
  9 10  1  0
  9  8  2  0
 10 11  2  0
 11  1  1  0
 11 12  1  0
 13 14  1  0
 13 18  1  0
 15 14  1  0
 15 16  1  0
 17 15  2  0
 18 19  2  0
 19 20  1  0
 21 20  2  0
 22 18  1  0
 22 21  1  0
  2 23  1  0
  4 24  1  0
  5 25  1  0
  7 26  1  0
  8 27  1  0
  9 28  1  0
 13 29  1  6
 14 30  1  0
 16 31  1  0
 16 32  1  0
 19 33  1  0
 20 34  1  0
 21 35  1  0
M  ISO  8  23  14  24  14  25  14  26  14  27  14  28  14  29   8  33  14
M  ISO  2  34  14  35  14
M  END
>  <minimizedAffinity>  (1) 
-5.26180744

>  <minimizedRMSD>  (1) 
1.59412789

$$$$
