
     RDKit          3D

 41 43  0  0  1  0  0  0  0  0999 V2000
   45.9100   28.7530   46.8260 C   0  0  0  0  0  0  0  0  0  0  0  0
   44.7650   27.9560   46.7510 C   0  0  0  0  0  0  0  0  0  0  0  0
   44.7880   26.7630   46.0830 C   0  0  0  0  0  0  0  0  0  0  0  0
   45.9710   26.3920   45.4950 C   0  0  0  0  0  0  0  0  0  0  0  0
   47.1110   27.1570   45.5530 C   0  0  0  0  0  0  0  0  0  0  0  0
   47.0190   28.3080   46.2220 N   0  0  0  0  0  0  0  0  0  0  0  0
   45.1380   31.2340   49.3800 C   0  0  0  0  0  0  0  0  0  0  0  0
   45.8260   32.3850   48.9230 C   0  0  0  0  0  0  0  0  0  0  0  0
   46.5460   32.2830   47.7330 C   0  0  0  0  0  0  0  0  0  0  0  0
   46.5610   31.1110   47.0710 N   0  0  0  0  0  0  0  0  0  0  0  0
   45.8790   30.0260   47.5560 C   0  0  0  0  0  0  0  0  0  0  0  0
   45.1950   30.1010   48.6730 N   0  0  0  0  0  0  0  0  0  0  0  0
   43.5300   25.9220   46.0960 C   0  0  2  0  0  0  0  0  0  0  0  0
   42.4910   26.7470   46.4800 N   0  0  0  0  0  0  0  0  0  0  0  0
   41.2890   26.7700   45.7440 C   0  0  0  0  0  0  0  0  0  0  0  0
   40.1680   26.0130   46.1110 N   0  0  0  0  0  0  0  0  0  0  0  0
   40.9370   27.3890   44.7050 O   0  0  0  0  0  0  0  0  0  0  0  0
   43.7310   25.0400   47.2020 N   0  0  0  0  0  0  0  0  0  0  0  0
   45.1670   24.7960   47.3400 C   0  0  0  0  0  0  0  0  0  0  0  0
   45.5090   24.2140   48.6760 C   0  0  0  0  0  0  0  0  0  0  0  0
   45.3170   25.1610   49.6540 O   0  0  0  0  0  0  0  0  0  0  0  0
   44.3800   26.1200   49.3310 C   0  0  0  0  0  0  0  0  0  0  0  0
   43.2910   25.6600   48.4150 C   0  0  0  0  0  0  0  0  0  0  0  0
   43.8355   28.2915   47.2342 H   0  0  0  0  0  0  0  0  0  0  0  0
   46.0086   25.4365   44.9512 H   0  0  0  0  0  0  0  0  0  0  0  0
   48.0484   26.8380   45.0740 H   0  0  0  0  0  0  0  0  0  0  0  0
   44.5584   31.2726   50.3141 H   0  0  0  0  0  0  0  0  0  0  0  0
   45.7934   33.3281   49.4882 H   0  0  0  0  0  0  0  0  0  0  0  0
   47.0957   33.1508   47.3396 H   0  0  0  0  0  0  0  0  0  0  0  0
   43.3275   25.4282   45.1342 H   0  0  0  0  0  0  0  0  0  0  0  0
   42.5951   27.3491   47.3092 H   0  0  0  0  0  0  0  0  0  0  0  0
   39.3083   26.0584   45.5455 H   0  0  0  0  0  0  0  0  0  0  0  0
   40.2039   25.4113   46.9462 H   0  0  0  0  0  0  0  0  0  0  0  0
   45.4855   24.0947   46.5547 H   0  0  0  0  0  0  0  0  0  0  0  0
   45.6871   25.7607   47.2454 H   0  0  0  0  0  0  0  0  0  0  0  0
   44.8620   23.3467   48.8741 H   0  0  0  0  0  0  0  0  0  0  0  0
   46.5619   23.8956   48.6772 H   0  0  0  0  0  0  0  0  0  0  0  0
   43.9150   26.4700   50.2644 H   0  0  0  0  0  0  0  0  0  0  0  0
   44.9230   26.9086   48.7894 H   0  0  0  0  0  0  0  0  0  0  0  0
   42.6805   26.5349   48.1470 H   0  0  0  0  0  0  0  0  0  0  0  0
   42.7364   24.8869   48.9671 H   0  0  0  0  0  0  0  0  0  0  0  0
  1 11  1  0
  2  1  2  0
  3 13  1  0
  3  2  1  0
  4  5  1  0
  4  3  2  0
  5  6  2  0
  6  1  1  0
  8  7  2  0
  9  8  1  0
 10 11  1  0
 10  9  2  0
 11 12  2  0
 12  7  1  0
 13 14  1  0
 13 18  1  0
 15 16  1  0
 15 14  1  0
 17 15  2  0
 18 19  1  0
 18 23  1  0
 19 20  1  0
 20 21  1  0
 22 21  1  0
 23 22  1  0
  2 24  1  0
  4 25  1  0
  5 26  1  0
  7 27  1  0
  8 28  1  0
  9 29  1  0
 13 30  1  6
 14 31  1  0
 16 32  1  0
 16 33  1  0
 19 34  1  0
 19 35  1  0
 20 36  1  0
 20 37  1  0
 22 38  1  0
 22 39  1  0
 23 40  1  0
 23 41  1  0
M  ISO  8  24  14  25  14  26  14  27  14  28  14  29  14  30   8  34  13
M  ISO  7  35  13  36  13  37  13  38  13  39  13  40  13  41  13
M  END
>  <minimizedAffinity>  (1) 
-4.41024923

>  <minimizedRMSD>  (1) 
6.25233603

$$$$
