
     RDKit          3D

 39 41  0  0  0  0  0  0  0  0999 V2000
   44.8320   35.9050   45.0580 C   0  0  0  0  0  0  0  0  0  0  0  0
   44.1220   35.9530   43.8330 C   0  0  0  0  0  0  0  0  0  0  0  0
   44.1060   34.8170   43.0550 C   0  0  0  0  0  0  0  0  0  0  0  0
   44.7510   33.6910   43.4530 N   0  0  0  0  0  0  0  0  0  0  0  0
   45.4340   33.6620   44.6410 C   0  0  0  0  0  0  0  0  0  0  0  0
   45.4610   34.7700   45.4220 N   0  0  0  0  0  0  0  0  0  0  0  0
   43.3880   34.8850   41.8280 N   0  0  0  0  0  0  0  0  0  0  0  0
   42.0740   35.1380   41.6790 C   0  0  0  0  0  0  0  0  0  0  0  0
   41.5270   35.1690   40.4100 C   0  0  0  0  0  0  0  0  0  0  0  0
   42.2890   34.9470   39.2830 C   0  0  0  0  0  0  0  0  0  0  0  0
   41.7830   34.9780   38.1360 O   0  0  0  0  0  0  0  0  0  0  0  0
   43.5910   34.7000   39.4860 N   0  0  0  0  0  0  0  0  0  0  0  0
   44.1190   34.6710   40.7330 C   0  0  0  0  0  0  0  0  0  0  0  0
   45.3730   34.4210   40.7560 O   0  0  0  0  0  0  0  0  0  0  0  0
   40.0890   35.4470   40.2550 C   0  0  0  0  0  0  0  0  0  0  0  0
   46.1180   32.4550   45.0570 C   0  0  0  0  0  0  0  0  0  0  0  0
   46.9130   31.6210   44.2800 C   0  0  0  0  0  0  0  0  0  0  0  0
   47.3770   30.5930   45.0320 N   0  0  0  0  0  0  0  0  0  0  0  0
   46.8610   30.8000   46.2820 C   0  0  0  0  0  0  0  0  0  0  0  0
   46.1070   31.9160   46.2930 N   0  0  0  0  0  0  0  0  0  0  0  0
   45.3990   32.4610   47.4280 C   0  0  0  0  0  0  0  0  0  0  0  0
   44.5060   31.5570   48.0130 F   0  0  0  0  0  0  0  0  0  0  0  0
   44.6870   33.6210   47.1070 F   0  0  0  0  0  0  0  0  0  0  0  0
   46.2940   32.7790   48.4580 F   0  0  0  0  0  0  0  0  0  0  0  0
   47.1480   29.8690   47.4040 C   0  0  0  0  0  0  0  0  0  0  0  0
   46.1960   28.6900   47.4360 C   0  0  0  0  0  0  0  0  0  0  0  0
   44.8697   36.7905   45.7094 H   0  0  0  0  0  0  0  0  0  0  0  0
   43.6007   36.8676   43.5139 H   0  0  0  0  0  0  0  0  0  0  0  0
   41.4408   35.3186   42.5602 H   0  0  0  0  0  0  0  0  0  0  0  0
   44.2033   34.5285   38.6757 H   0  0  0  0  0  0  0  0  0  0  0  0
   39.6238   35.5369   41.2477 H   0  0  0  0  0  0  0  0  0  0  0  0
   39.9551   36.3877   39.7007 H   0  0  0  0  0  0  0  0  0  0  0  0
   39.6141   34.6240   39.7007 H   0  0  0  0  0  0  0  0  0  0  0  0
   47.1331   31.7726   43.2130 H   0  0  0  0  0  0  0  0  0  0  0  0
   48.1751   29.4906   47.2948 H   0  0  0  0  0  0  0  0  0  0  0  0
   47.0212   30.4274   48.3432 H   0  0  0  0  0  0  0  0  0  0  0  0
   45.9795   28.4218   48.4806 H   0  0  0  0  0  0  0  0  0  0  0  0
   45.2600   28.9605   46.9253 H   0  0  0  0  0  0  0  0  0  0  0  0
   46.6576   27.8320   46.9253 H   0  0  0  0  0  0  0  0  0  0  0  0
  1  6  2  0
  2  1  1  0
  3  4  1  0
  3  2  2  0
  4  5  2  0
  5 16  1  0
  5  6  1  0
  7  3  1  0
  8  7  1  0
  9  8  2  0
 10 12  1  0
 10  9  1  0
 11 10  2  0
 12 13  1  0
 13 14  2  0
 13  7  1  0
 15  9  1  0
 16 20  1  0
 17 18  1  0
 17 16  2  0
 18 19  2  0
 19 20  1  0
 19 25  1  0
 20 21  1  0
 21 22  1  0
 21 24  1  0
 23 21  1  0
 25 26  1  0
  1 27  1  0
  2 28  1  0
  8 29  1  0
 12 30  1  0
 15 31  1  0
 15 32  1  0
 15 33  1  0
 17 34  1  0
 25 35  1  0
 25 36  1  0
 26 37  1  0
 26 38  1  0
 26 39  1  0
M  ISO  8  27  14  28  14  29  14  30   9  31   8  32   8  33   8  34  14
M  ISO  5  35   8  36   8  37   8  38   8  39   8
M  END
>  <minimizedAffinity>  (1) 
-6.06143093

>  <minimizedRMSD>  (1) 
0.128997728

$$$$
