
     RDKit          3D

 35 37  0  0  1  0  0  0  0  0999 V2000
   46.4930   32.5950   44.7130 C   0  0  0  0  0  0  0  0  0  0  0  0
   46.0370   31.9560   45.8720 C   0  0  0  0  0  0  0  0  0  0  0  0
   46.5480   30.7430   46.2420 C   0  0  0  0  0  0  0  0  0  0  0  0
   47.5120   30.1850   45.4430 C   0  0  0  0  0  0  0  0  0  0  0  0
   47.9790   30.7890   44.3000 C   0  0  0  0  0  0  0  0  0  0  0  0
   47.4430   31.9740   43.9900 N   0  0  0  0  0  0  0  0  0  0  0  0
   44.5930   35.6960   44.8230 C   0  0  0  0  0  0  0  0  0  0  0  0
   44.9100   36.3100   43.5960 C   0  0  0  0  0  0  0  0  0  0  0  0
   45.7940   35.6400   42.7330 C   0  0  0  0  0  0  0  0  0  0  0  0
   46.2950   34.4490   43.1090 N   0  0  0  0  0  0  0  0  0  0  0  0
   45.9520   33.8940   44.3160 C   0  0  0  0  0  0  0  0  0  0  0  0
   45.1280   34.5110   45.1330 N   0  0  0  0  0  0  0  0  0  0  0  0
   46.0500   30.1350   47.5310 C   0  0  2  0  0  0  0  0  0  0  0  0
   45.1570   29.1310   47.2020 N   0  0  0  0  0  0  0  0  0  0  0  0
   45.3950   27.8060   47.6240 C   0  0  0  0  0  0  0  0  0  0  0  0
   44.8130   27.2650   48.7790 N   0  0  0  0  0  0  0  0  0  0  0  0
   46.0950   26.8690   47.1490 O   0  0  0  0  0  0  0  0  0  0  0  0
   45.2270   31.2090   48.1500 C   0  0  0  0  0  0  0  0  0  0  0  0
   45.8830   32.2450   49.0290 C   0  0  0  0  0  0  0  0  0  0  0  0
   45.0900   31.1720   49.6860 C   0  0  0  0  0  0  0  0  0  0  0  0
   45.2619   32.4333   46.4896 H   0  0  0  0  0  0  0  0  0  0  0  0
   47.9310   29.2092   45.7297 H   0  0  0  0  0  0  0  0  0  0  0  0
   48.7530   30.3220   43.6733 H   0  0  0  0  0  0  0  0  0  0  0  0
   43.9061   36.1909   45.5253 H   0  0  0  0  0  0  0  0  0  0  0  0
   44.4790   37.2841   43.3215 H   0  0  0  0  0  0  0  0  0  0  0  0
   46.0721   36.0824   41.7650 H   0  0  0  0  0  0  0  0  0  0  0  0
   46.8664   29.7603   48.1659 H   0  0  0  0  0  0  0  0  0  0  0  0
   44.3170   29.3512   46.6481 H   0  0  0  0  0  0  0  0  0  0  0  0
   45.0147   26.2920   49.0500 H   0  0  0  0  0  0  0  0  0  0  0  0
   44.1837   27.8406   49.3566 H   0  0  0  0  0  0  0  0  0  0  0  0
   44.5545   31.2532   47.2806 H   0  0  0  0  0  0  0  0  0  0  0  0
   46.9779   32.2551   49.1345 H   0  0  0  0  0  0  0  0  0  0  0  0
   45.8615   33.3442   49.0643 H   0  0  0  0  0  0  0  0  0  0  0  0
   44.1259   31.4106   50.1589 H   0  0  0  0  0  0  0  0  0  0  0  0
   45.2876   30.4246   50.4685 H   0  0  0  0  0  0  0  0  0  0  0  0
  1  2  2  0
  2  3  1  0
  3 13  1  0
  4  3  2  0
  5  4  1  0
  6  5  2  0
  6  1  1  0
  7 12  2  0
  8  7  1  0
  9 10  1  0
  9  8  2  0
 10 11  2  0
 11  1  1  0
 11 12  1  0
 13 18  1  0
 14 13  1  0
 14 15  1  0
 15 16  1  0
 17 15  2  0
 18 19  1  0
 18 20  1  0
 19 20  1  0
  2 21  1  0
  4 22  1  0
  5 23  1  0
  7 24  1  0
  8 25  1  0
  9 26  1  0
 13 27  1  1
 14 28  1  0
 16 29  1  0
 16 30  1  0
 18 31  1  0
 19 32  1  0
 19 33  1  0
 20 34  1  0
 20 35  1  0
M  ISO  8  21  14  22  14  23  14  24  14  25  14  26  14  27   8  31  13
M  ISO  4  32  13  33  13  34  13  35  13
M  END
>  <minimizedAffinity>  (1) 
-5.19158983

>  <minimizedRMSD>  (1) 
1.45830584

$$$$
