
     RDKit          3D

 35 37  0  0  1  0  0  0  0  0999 V2000
   46.6640   32.6710   44.0860 C   0  0  0  0  0  0  0  0  0  0  0  0
   46.8020   31.9530   45.2850 C   0  0  0  0  0  0  0  0  0  0  0  0
   47.4570   30.7550   45.3020 C   0  0  0  0  0  0  0  0  0  0  0  0
   47.9630   30.2840   44.1210 C   0  0  0  0  0  0  0  0  0  0  0  0
   47.8420   30.9620   42.9320 C   0  0  0  0  0  0  0  0  0  0  0  0
   47.1950   32.1300   42.9730 N   0  0  0  0  0  0  0  0  0  0  0  0
   44.6350   35.4930   45.1550 C   0  0  0  0  0  0  0  0  0  0  0  0
   44.6940   36.3650   44.0590 C   0  0  0  0  0  0  0  0  0  0  0  0
   45.4470   35.9650   42.9380 C   0  0  0  0  0  0  0  0  0  0  0  0
   46.0700   34.7750   42.9670 N   0  0  0  0  0  0  0  0  0  0  0  0
   45.9780   33.9600   44.0680 C   0  0  0  0  0  0  0  0  0  0  0  0
   45.2790   34.3200   45.1220 N   0  0  0  0  0  0  0  0  0  0  0  0
   47.6150   30.0700   46.6380 C   0  0  2  0  0  0  0  0  0  0  0  0
   47.9950   31.0190   47.5630 N   0  0  0  0  0  0  0  0  0  0  0  0
   47.6040   30.8750   48.9120 C   0  0  0  0  0  0  0  0  0  0  0  0
   48.4320   30.3100   49.8930 N   0  0  0  0  0  0  0  0  0  0  0  0
   46.5460   31.1780   49.5340 O   0  0  0  0  0  0  0  0  0  0  0  0
   48.7690   29.1940   46.4700 C   0  0  0  0  0  0  0  0  0  0  0  0
   48.6630   27.8180   46.2440 C   0  0  0  0  0  0  0  0  0  0  0  0
   49.9260   27.2440   46.1240 C   0  0  0  0  0  0  0  0  0  0  0  0
   50.7290   28.3040   46.2830 N   0  0  0  0  0  0  0  0  0  0  0  0
   50.0700   29.4280   46.4820 N   0  0  0  0  0  0  0  0  0  0  0  0
   46.3798   32.3583   46.2164 H   0  0  0  0  0  0  0  0  0  0  0  0
   48.4906   29.3188   44.1236 H   0  0  0  0  0  0  0  0  0  0  0  0
   48.2567   30.5634   41.9944 H   0  0  0  0  0  0  0  0  0  0  0  0
   44.0562   35.7743   46.0471 H   0  0  0  0  0  0  0  0  0  0  0  0
   44.1687   37.3313   44.0740 H   0  0  0  0  0  0  0  0  0  0  0  0
   45.5237   36.6155   42.0543 H   0  0  0  0  0  0  0  0  0  0  0  0
   46.6963   29.5530   46.9523 H   0  0  0  0  0  0  0  0  0  0  0  0
   48.5611   31.8286   47.2715 H   0  0  0  0  0  0  0  0  0  0  0  0
   48.0981   30.2281   50.8639 H   0  0  0  0  0  0  0  0  0  0  0  0
   49.3739   29.9770   49.6425 H   0  0  0  0  0  0  0  0  0  0  0  0
   47.7143   27.2661   46.1712 H   0  0  0  0  0  0  0  0  0  0  0  0
   50.1946   26.1924   45.9450 H   0  0  0  0  0  0  0  0  0  0  0  0
   51.7570   28.2467   46.2528 H   0  0  0  0  0  0  0  0  0  0  0  0
  1  2  2  0
  2  3  1  0
  3 13  1  0
  4  3  2  0
  5  6  2  0
  5  4  1  0
  6  1  1  0
  8  7  2  0
  9 10  2  0
  9  8  1  0
 10 11  1  0
 11  1  1  0
 11 12  2  0
 12  7  1  0
 13 14  1  0
 14 15  1  0
 15 17  2  0
 15 16  1  0
 18 22  2  0
 18 13  1  0
 19 18  1  0
 20 19  2  0
 20 21  1  0
 21 22  1  0
  2 23  1  0
  4 24  1  0
  5 25  1  0
  7 26  1  0
  8 27  1  0
  9 28  1  0
 13 29  1  1
 14 30  1  0
 16 31  1  0
 16 32  1  0
 19 33  1  0
 20 34  1  0
 21 35  1  0
M  ISO  8  23  14  24  14  25  14  26  14  27  14  28  14  29   8  33  14
M  ISO  2  34  14  35   9
M  END
>  <minimizedAffinity>  (1) 
-4.47719193

>  <minimizedRMSD>  (1) 
3.36274052

$$$$
