
     RDKit          3D

 45 48  0  0  1  0  0  0  0  0999 V2000
   45.5120   30.1900   46.8460 C   0  0  2  0  0  0  0  0  0  0  0  0
   42.8950   27.9520   45.3310 C   0  0  0  0  0  0  0  0  0  0  0  0
   43.6790   29.0510   45.6650 C   0  0  0  0  0  0  0  0  0  0  0  0
   44.6970   28.9520   46.5640 C   0  0  0  0  0  0  0  0  0  0  0  0
   44.9200   27.7320   47.1280 C   0  0  0  0  0  0  0  0  0  0  0  0
   44.1700   26.6180   46.8290 C   0  0  0  0  0  0  0  0  0  0  0  0
   43.1860   26.7840   45.9380 N   0  0  0  0  0  0  0  0  0  0  0  0
   40.1250   29.3340   43.4370 C   0  0  0  0  0  0  0  0  0  0  0  0
   39.7930   28.2920   42.5530 C   0  0  0  0  0  0  0  0  0  0  0  0
   40.5390   27.1140   42.6230 C   0  0  0  0  0  0  0  0  0  0  0  0
   41.5270   27.0170   43.5120 N   0  0  0  0  0  0  0  0  0  0  0  0
   41.8120   28.0630   44.3540 C   0  0  0  0  0  0  0  0  0  0  0  0
   41.1230   29.1770   44.3030 N   0  0  0  0  0  0  0  0  0  0  0  0
   44.7310   31.1030   47.4600 N   0  0  0  0  0  0  0  0  0  0  0  0
   45.1150   31.8320   48.5910 C   0  0  0  0  0  0  0  0  0  0  0  0
   45.3950   33.2070   48.4310 N   0  0  0  0  0  0  0  0  0  0  0  0
   45.2860   31.5450   49.8190 O   0  0  0  0  0  0  0  0  0  0  0  0
   45.8490   30.7320   45.5140 C   0  0  2  0  0  0  0  0  0  0  0  0
   47.1740   30.4670   44.8910 C   0  0  0  0  0  0  0  0  0  0  0  0
   46.9540   31.8070   45.4920 C   0  0  1  0  0  0  0  0  0  0  0  0
   46.9000   32.8830   44.4900 C   0  0  0  0  0  0  0  0  0  0  0  0
   45.8690   33.8140   44.5660 C   0  0  0  0  0  0  0  0  0  0  0  0
   45.7670   34.8330   43.6660 C   0  0  0  0  0  0  0  0  0  0  0  0
   46.7090   34.9430   42.6590 C   0  0  0  0  0  0  0  0  0  0  0  0
   47.7400   34.0270   42.5700 C   0  0  0  0  0  0  0  0  0  0  0  0
   47.8360   32.9980   43.4840 C   0  0  0  0  0  0  0  0  0  0  0  0
   46.3903   29.9701   47.4707 H   0  0  0  0  0  0  0  0  0  0  0  0
   43.4721   30.0224   45.1922 H   0  0  0  0  0  0  0  0  0  0  0  0
   45.7381   27.6330   47.8566 H   0  0  0  0  0  0  0  0  0  0  0  0
   44.3688   25.6429   47.2976 H   0  0  0  0  0  0  0  0  0  0  0  0
   39.5604   30.2777   43.4126 H   0  0  0  0  0  0  0  0  0  0  0  0
   38.9717   28.4016   41.8294 H   0  0  0  0  0  0  0  0  0  0  0  0
   40.3133   26.2734   41.9503 H   0  0  0  0  0  0  0  0  0  0  0  0
   43.7926   31.2742   47.0715 H   0  0  0  0  0  0  0  0  0  0  0  0
   45.6803   33.7724   49.2433 H   0  0  0  0  0  0  0  0  0  0  0  0
   45.3139   33.6444   47.5020 H   0  0  0  0  0  0  0  0  0  0  0  0
   44.8132   30.6177   45.1618 H   0  0  0  0  0  0  0  0  0  0  0  0
   47.2501   30.3679   43.7981 H   0  0  0  0  0  0  0  0  0  0  0  0
   47.9377   29.6868   45.0250 H   0  0  0  0  0  0  0  0  0  0  0  0
   47.3961   32.4412   46.2746 H   0  0  0  0  0  0  0  0  0  0  0  0
   45.1214   33.7262   45.3681 H   0  0  0  0  0  0  0  0  0  0  0  0
   44.9446   35.5598   43.7398 H   0  0  0  0  0  0  0  0  0  0  0  0
   46.6373   35.7614   41.9275 H   0  0  0  0  0  0  0  0  0  0  0  0
   48.4868   34.1187   41.7675 H   0  0  0  0  0  0  0  0  0  0  0  0
   48.6578   32.2706   43.4103 H   0  0  0  0  0  0  0  0  0  0  0  0
  1 14  1  0
  2  3  2  0
  2  7  1  0
  3  4  1  0
  4  1  1  0
  4  5  2  0
  6  5  1  0
  7  6  2  0
  8 13  2  0
  9 10  2  0
  9  8  1  0
 10 11  1  0
 11 12  2  0
 12  2  1  0
 13 12  1  0
 14 15  1  0
 15 17  2  0
 16 15  1  0
 18  1  1  0
 19 20  1  0
 19 18  1  0
 20 18  1  0
 21 22  2  0
 21 20  1  0
 23 22  1  0
 24 23  2  0
 25 24  1  0
 25 26  2  0
 26 21  1  0
  1 27  1  1
  3 28  1  0
  5 29  1  0
  6 30  1  0
  8 31  1  0
  9 32  1  0
 10 33  1  0
 14 34  1  0
 16 35  1  0
 16 36  1  0
 18 37  1  6
 19 38  1  0
 19 39  1  0
 20 40  1  1
 22 41  1  0
 23 42  1  0
 24 43  1  0
 25 44  1  0
 26 45  1  0
M  ISO  8  27   8  28  14  29  14  30  14  31  14  32  14  33  14  37  13
M  ISO  8  38  13  39  13  40  13  41  14  42  14  43  14  44  14  45  14
M  END
>  <minimizedAffinity>  (1) 
-5.7398324

>  <minimizedRMSD>  (1) 
6.77124929

$$$$
