
     RDKit          3D

 35 37  0  0  0  0  0  0  0  0999 V2000
   44.8430   35.8990   45.0500 C   0  0  0  0  0  0  0  0  0  0  0  0
   44.1300   35.9120   43.8280 C   0  0  0  0  0  0  0  0  0  0  0  0
   44.1110   34.7500   43.0820 C   0  0  0  0  0  0  0  0  0  0  0  0
   44.7550   33.6250   43.5060 N   0  0  0  0  0  0  0  0  0  0  0  0
   45.4410   33.6540   44.7060 C   0  0  0  0  0  0  0  0  0  0  0  0
   45.4730   34.7740   45.4490 N   0  0  0  0  0  0  0  0  0  0  0  0
   43.3890   34.7890   41.8600 N   0  0  0  0  0  0  0  0  0  0  0  0
   42.0720   34.9750   41.6930 C   0  0  0  0  0  0  0  0  0  0  0  0
   41.5300   34.9850   40.4250 C   0  0  0  0  0  0  0  0  0  0  0  0
   42.3150   34.8070   39.2990 C   0  0  0  0  0  0  0  0  0  0  0  0
   41.8130   34.8170   38.1520 O   0  0  0  0  0  0  0  0  0  0  0  0
   43.6220   34.6240   39.5050 N   0  0  0  0  0  0  0  0  0  0  0  0
   44.1530   34.6150   40.7600 C   0  0  0  0  0  0  0  0  0  0  0  0
   45.4140   34.4280   40.7800 O   0  0  0  0  0  0  0  0  0  0  0  0
   40.0920   35.1900   40.2580 C   0  0  0  0  0  0  0  0  0  0  0  0
   46.1270   32.4520   45.1550 C   0  0  0  0  0  0  0  0  0  0  0  0
   46.9410   31.6080   44.4050 C   0  0  0  0  0  0  0  0  0  0  0  0
   47.3910   30.5960   45.1900 N   0  0  0  0  0  0  0  0  0  0  0  0
   46.8510   30.8180   46.4240 C   0  0  0  0  0  0  0  0  0  0  0  0
   46.0900   31.9350   46.4020 N   0  0  0  0  0  0  0  0  0  0  0  0
   47.0810   29.9680   47.5520 N   0  0  0  0  0  0  0  0  0  0  0  0
   45.3480   32.5080   47.5080 C   0  0  0  0  0  0  0  0  0  0  0  0
   44.4480   31.6010   48.0780 F   0  0  0  0  0  0  0  0  0  0  0  0
   44.6420   33.6590   47.1480 F   0  0  0  0  0  0  0  0  0  0  0  0
   46.2260   32.8230   48.5550 F   0  0  0  0  0  0  0  0  0  0  0  0
   44.8838   36.8041   45.6738 H   0  0  0  0  0  0  0  0  0  0  0  0
   43.6084   36.8172   43.4837 H   0  0  0  0  0  0  0  0  0  0  0  0
   41.4225   35.1199   42.5689 H   0  0  0  0  0  0  0  0  0  0  0  0
   44.2437   34.4863   38.6954 H   0  0  0  0  0  0  0  0  0  0  0  0
   39.6141   35.2581   41.2464 H   0  0  0  0  0  0  0  0  0  0  0  0
   39.9168   36.1222   39.7010 H   0  0  0  0  0  0  0  0  0  0  0  0
   39.6633   34.3439   39.7010 H   0  0  0  0  0  0  0  0  0  0  0  0
   47.1825   31.7406   43.3401 H   0  0  0  0  0  0  0  0  0  0  0  0
   46.6455   30.1872   48.4593 H   0  0  0  0  0  0  0  0  0  0  0  0
   47.6820   29.1370   47.4566 H   0  0  0  0  0  0  0  0  0  0  0  0
  1  6  2  0
  2  1  1  0
  3  4  1  0
  3  2  2  0
  4  5  2  0
  5 16  1  0
  5  6  1  0
  7  3  1  0
  8  7  1  0
  9  8  2  0
 10 12  1  0
 10  9  1  0
 11 10  2  0
 12 13  1  0
 13 14  2  0
 13  7  1  0
 15  9  1  0
 16 20  1  0
 17 16  2  0
 17 18  1  0
 18 19  2  0
 19 21  1  0
 20 19  1  0
 20 22  1  0
 22 23  1  0
 22 25  1  0
 24 22  1  0
  1 26  1  0
  2 27  1  0
  8 28  1  0
 12 29  1  0
 15 30  1  0
 15 31  1  0
 15 32  1  0
 17 33  1  0
 21 34  1  0
 21 35  1  0
M  ISO  8  26  14  27  14  28  14  29   9  30   8  31   8  32   8  33  14
M  END
>  <minimizedAffinity>  (1) 
-6.0566411

>  <minimizedRMSD>  (1) 
0.0598511808

$$$$
