
     RDKit          3D

 42 44  0  0  1  0  0  0  0  0999 V2000
   46.1880   31.4330   46.0680 C   0  0  2  0  0  0  0  0  0  0  0  0
   44.8450   27.9320   45.7840 C   0  0  0  0  0  0  0  0  0  0  0  0
   44.9710   29.2980   46.0400 C   0  0  0  0  0  0  0  0  0  0  0  0
   46.1390   29.9560   45.7890 C   0  0  0  0  0  0  0  0  0  0  0  0
   47.1800   29.2320   45.2810 C   0  0  0  0  0  0  0  0  0  0  0  0
   47.0870   27.8800   45.0160 C   0  0  0  0  0  0  0  0  0  0  0  0
   45.9090   27.3000   45.2860 N   0  0  0  0  0  0  0  0  0  0  0  0
   41.3150   27.0310   45.6200 C   0  0  0  0  0  0  0  0  0  0  0  0
   41.2320   25.9750   46.5440 C   0  0  0  0  0  0  0  0  0  0  0  0
   42.3830   25.5720   47.2180 C   0  0  0  0  0  0  0  0  0  0  0  0
   43.5430   26.2120   46.9580 N   0  0  0  0  0  0  0  0  0  0  0  0
   43.5850   27.2350   46.0530 C   0  0  0  0  0  0  0  0  0  0  0  0
   42.4910   27.6200   45.4100 N   0  0  0  0  0  0  0  0  0  0  0  0
   45.1660   31.7690   46.8850 N   0  0  0  0  0  0  0  0  0  0  0  0
   45.2770   32.6540   47.9620 C   0  0  0  0  0  0  0  0  0  0  0  0
   44.6790   33.9240   47.8510 N   0  0  0  0  0  0  0  0  0  0  0  0
   45.8290   32.5890   49.1080 O   0  0  0  0  0  0  0  0  0  0  0  0
   45.9090   32.0690   44.7630 C   0  0  2  0  0  0  0  0  0  0  0  0
   47.0260   32.5100   43.8750 C   0  0  0  0  0  0  0  0  0  0  0  0
   46.3050   33.5580   44.6260 C   0  0  1  0  0  0  0  0  0  0  0  0
   45.4410   34.4300   43.8690 N   0  0  0  0  0  0  0  0  0  0  0  0
   44.8120   35.6120   44.3300 C   0  0  0  0  0  0  0  0  0  0  0  0
   44.1690   35.5040   45.4090 N   0  0  0  0  0  0  0  0  0  0  0  0
   44.9190   36.8100   43.5780 N   0  0  0  0  0  0  0  0  0  0  0  0
   44.0190   34.6960   46.0160 H   0  0  0  0  0  0  0  0  0  0  0  0
   47.1451   31.7297   46.5217 H   0  0  0  0  0  0  0  0  0  0  0  0
   44.1147   29.8529   46.4508 H   0  0  0  0  0  0  0  0  0  0  0  0
   48.1302   29.7465   45.0748 H   0  0  0  0  0  0  0  0  0  0  0  0
   47.9335   27.3099   44.6057 H   0  0  0  0  0  0  0  0  0  0  0  0
   40.4194   27.3669   45.0768 H   0  0  0  0  0  0  0  0  0  0  0  0
   40.2713   25.4735   46.7325 H   0  0  0  0  0  0  0  0  0  0  0  0
   42.3473   24.7491   47.9471 H   0  0  0  0  0  0  0  0  0  0  0  0
   44.2449   31.3457   46.7028 H   0  0  0  0  0  0  0  0  0  0  0  0
   44.7461   34.5947   48.6299 H   0  0  0  0  0  0  0  0  0  0  0  0
   44.1745   34.1823   46.9910 H   0  0  0  0  0  0  0  0  0  0  0  0
   45.0137   31.4477   44.6131 H   0  0  0  0  0  0  0  0  0  0  0  0
   46.9079   32.4469   42.7832 H   0  0  0  0  0  0  0  0  0  0  0  0
   48.0858   32.2285   43.7879 H   0  0  0  0  0  0  0  0  0  0  0  0
   46.5793   34.3557   45.3320 H   0  0  0  0  0  0  0  0  0  0  0  0
   45.2626   34.1651   42.8898 H   0  0  0  0  0  0  0  0  0  0  0  0
   44.4620   37.6704   43.9122 H   0  0  0  0  0  0  0  0  0  0  0  0
   45.4537   36.8195   42.6977 H   0  0  0  0  0  0  0  0  0  0  0  0
  1 14  1  0
  2  3  2  0
  2 12  1  0
  4  3  1  0
  4  1  1  0
  5  4  2  0
  6  5  1  0
  6  7  2  0
  7  2  1  0
  8  9  2  0
  9 10  1  0
 11 10  2  0
 12 11  1  0
 13  8  1  0
 13 12  2  0
 14 15  1  0
 15 17  2  0
 16 15  1  0
 18  1  1  0
 19 20  1  0
 19 18  1  0
 20 18  1  0
 21 22  1  0
 21 20  1  0
 22 23  2  0
 23 25  1  0
 24 22  1  0
  1 26  1  1
  3 27  1  0
  5 28  1  0
  6 29  1  0
  8 30  1  0
  9 31  1  0
 10 32  1  0
 14 33  1  0
 16 34  1  0
 16 35  1  0
 18 36  1  6
 19 37  1  0
 19 38  1  0
 20 39  1  1
 21 40  1  0
 24 41  1  0
 24 42  1  0
M  ISO  8  26   8  27  14  28  14  29  14  30  14  31  14  32  14  36  13
M  ISO  3  37  13  38  13  39  13
M  END
>  <minimizedAffinity>  (1) 
-6.08757591

>  <minimizedRMSD>  (1) 
6.78427553

$$$$
