
     RDKit          3D

 41 43  0  0  1  0  0  0  0  0999 V2000
   47.2190   29.9510   48.0170 C   0  0  2  0  0  0  0  0  0  0  0  0
   46.6820   32.3450   45.1680 C   0  0  0  0  0  0  0  0  0  0  0  0
   46.6280   31.7150   46.4120 C   0  0  0  0  0  0  0  0  0  0  0  0
   47.3080   30.5580   46.6450 C   0  0  0  0  0  0  0  0  0  0  0  0
   48.0390   30.0390   45.6170 C   0  0  0  0  0  0  0  0  0  0  0  0
   48.1180   30.6270   44.3790 C   0  0  0  0  0  0  0  0  0  0  0  0
   47.4290   31.7610   44.2150 N   0  0  0  0  0  0  0  0  0  0  0  0
   44.5820   35.2480   45.7390 C   0  0  0  0  0  0  0  0  0  0  0  0
   44.6280   35.9390   44.5160 C   0  0  0  0  0  0  0  0  0  0  0  0
   45.4080   35.3690   43.4800 C   0  0  0  0  0  0  0  0  0  0  0  0
   46.0560   34.2170   43.7100 N   0  0  0  0  0  0  0  0  0  0  0  0
   45.9680   33.5980   44.9260 C   0  0  0  0  0  0  0  0  0  0  0  0
   45.2460   34.1130   45.9010 N   0  0  0  0  0  0  0  0  0  0  0  0
   45.9220   29.7200   48.3220 N   0  0  0  0  0  0  0  0  0  0  0  0
   45.1830   28.6390   47.8420 C   0  0  0  0  0  0  0  0  0  0  0  0
   44.8470   27.6030   48.7430 N   0  0  0  0  0  0  0  0  0  0  0  0
   44.6980   28.3260   46.7060 O   0  0  0  0  0  0  0  0  0  0  0  0
   47.6840   31.0170   48.9360 C   0  0  2  0  0  0  0  0  0  0  0  0
   48.9790   31.7080   48.7370 C   0  0  0  0  0  0  0  0  0  0  0  0
   48.8870   30.7130   49.8270 C   0  0  2  0  0  0  0  0  0  0  0  0
   49.7240   29.4890   49.6020 C   0  0  0  0  0  0  0  0  0  0  0  0
   50.4680   29.1960   50.8920 C   0  0  0  0  0  0  0  0  0  0  0  0
   47.7946   29.0160   48.0831 H   0  0  0  0  0  0  0  0  0  0  0  0
   46.0262   32.1602   47.2180 H   0  0  0  0  0  0  0  0  0  0  0  0
   48.5922   29.1038   45.7883 H   0  0  0  0  0  0  0  0  0  0  0  0
   48.7157   30.1889   43.5661 H   0  0  0  0  0  0  0  0  0  0  0  0
   43.9880   35.6541   46.5710 H   0  0  0  0  0  0  0  0  0  0  0  0
   44.0815   36.8824   44.3695 H   0  0  0  0  0  0  0  0  0  0  0  0
   45.4814   35.8641   42.5005 H   0  0  0  0  0  0  0  0  0  0  0  0
   45.4491   30.3858   48.9497 H   0  0  0  0  0  0  0  0  0  0  0  0
   44.3019   26.7926   48.4158 H   0  0  0  0  0  0  0  0  0  0  0  0
   45.1472   27.6585   49.7267 H   0  0  0  0  0  0  0  0  0  0  0  0
   46.6485   31.3640   49.0674 H   0  0  0  0  0  0  0  0  0  0  0  0
   49.5837   31.4842   47.8458 H   0  0  0  0  0  0  0  0  0  0  0  0
   49.2832   32.7640   48.6888 H   0  0  0  0  0  0  0  0  0  0  0  0
   49.0112   30.6716   50.9192 H   0  0  0  0  0  0  0  0  0  0  0  0
   49.0793   28.6372   49.3394 H   0  0  0  0  0  0  0  0  0  0  0  0
   50.4327   29.6529   48.7769 H   0  0  0  0  0  0  0  0  0  0  0  0
   49.8276   29.4482   51.7500 H   0  0  0  0  0  0  0  0  0  0  0  0
   50.7287   28.1280   50.9305 H   0  0  0  0  0  0  0  0  0  0  0  0
   51.3869   29.7994   50.9305 H   0  0  0  0  0  0  0  0  0  0  0  0
  1 14  1  0
  1 18  1  0
  2  3  2  0
  3  4  1  0
  4  1  1  0
  5  4  2  0
  6  5  1  0
  7  6  2  0
  7  2  1  0
  8 13  2  0
  9  8  1  0
 10 11  1  0
 10  9  2  0
 11 12  2  0
 12  2  1  0
 12 13  1  0
 15 14  1  0
 15 16  1  0
 17 15  2  0
 18 20  1  0
 19 18  1  0
 19 20  1  0
 21 20  1  0
 21 22  1  0
  1 23  1  6
  3 24  1  0
  5 25  1  0
  6 26  1  0
  8 27  1  0
  9 28  1  0
 10 29  1  0
 14 30  1  0
 16 31  1  0
 16 32  1  0
 18 33  1  1
 19 34  1  0
 19 35  1  0
 20 36  1  1
 21 37  1  0
 21 38  1  0
 22 39  1  0
 22 40  1  0
 22 41  1  0
M  ISO  8  23   8  24  14  25  14  26  14  27  14  28  14  29  14  33  13
M  ISO  8  34  13  35  13  36  13  37   8  38   8  39   8  40   8  41   8
M  END
>  <minimizedAffinity>  (1) 
-5.1822691

>  <minimizedRMSD>  (1) 
1.83781028

$$$$
