
     RDKit          3D

 41 44  0  0  1  0  0  0  0  0999 V2000
   45.5170   31.4470   43.5660 C   0  0  2  0  0  0  0  0  0  0  0  0
   44.0520   34.0360   41.2630 C   0  0  0  0  0  0  0  0  0  0  0  0
   44.1950   32.9920   42.1810 C   0  0  0  0  0  0  0  0  0  0  0  0
   45.4350   32.5640   42.5530 C   0  0  0  0  0  0  0  0  0  0  0  0
   46.5160   33.1850   41.9980 C   0  0  0  0  0  0  0  0  0  0  0  0
   46.4040   34.2150   41.0890 C   0  0  0  0  0  0  0  0  0  0  0  0
   45.1620   34.5890   40.7680 N   0  0  0  0  0  0  0  0  0  0  0  0
   40.8550   35.7810   41.3860 C   0  0  0  0  0  0  0  0  0  0  0  0
   40.2400   35.3890   40.1930 C   0  0  0  0  0  0  0  0  0  0  0  0
   40.9220   34.5240   39.3420 C   0  0  0  0  0  0  0  0  0  0  0  0
   42.1510   34.0990   39.7060 N   0  0  0  0  0  0  0  0  0  0  0  0
   42.7120   34.5070   40.8770 C   0  0  0  0  0  0  0  0  0  0  0  0
   42.0660   35.3320   41.6900 N   0  0  0  0  0  0  0  0  0  0  0  0
   44.3510   30.7640   43.5640 N   0  0  0  0  0  0  0  0  0  0  0  0
   44.2120   29.4520   44.0310 C   0  0  0  0  0  0  0  0  0  0  0  0
   43.5270   29.2460   45.2490 N   0  0  0  0  0  0  0  0  0  0  0  0
   44.5750   28.3120   43.6000 O   0  0  0  0  0  0  0  0  0  0  0  0
   45.6160   32.1310   44.8700 C   0  0  2  0  0  0  0  0  0  0  0  0
   46.9110   32.6650   45.3690 C   0  0  0  0  0  0  0  0  0  0  0  0
   46.4220   31.3980   45.9560 C   0  0  1  0  0  0  0  0  0  0  0  0
   46.0140   31.4630   47.3200 N   0  0  0  0  0  0  0  0  0  0  0  0
   46.4040   32.3020   48.3110 C   0  0  0  0  0  0  0  0  0  0  0  0
   45.7610   32.0010   49.4370 N   0  0  0  0  0  0  0  0  0  0  0  0
   44.9570   30.9620   49.1540 C   0  0  0  0  0  0  0  0  0  0  0  0
   45.1230   30.6410   47.8480 N   0  0  0  0  0  0  0  0  0  0  0  0
   46.3520   30.7617   43.3584 H   0  0  0  0  0  0  0  0  0  0  0  0
   43.3011   32.5123   42.6063 H   0  0  0  0  0  0  0  0  0  0  0  0
   47.5220   32.8484   42.2892 H   0  0  0  0  0  0  0  0  0  0  0  0
   47.2881   34.7022   40.6520 H   0  0  0  0  0  0  0  0  0  0  0  0
   40.3338   36.4630   42.0739 H   0  0  0  0  0  0  0  0  0  0  0  0
   39.2368   35.7570   39.9321 H   0  0  0  0  0  0  0  0  0  0  0  0
   40.4702   34.1942   38.3948 H   0  0  0  0  0  0  0  0  0  0  0  0
   43.5136   31.2378   43.1964 H   0  0  0  0  0  0  0  0  0  0  0  0
   43.4087   28.2918   45.6183 H   0  0  0  0  0  0  0  0  0  0  0  0
   43.1458   30.0500   45.7678 H   0  0  0  0  0  0  0  0  0  0  0  0
   44.6142   32.5693   44.7508 H   0  0  0  0  0  0  0  0  0  0  0  0
   47.7925   32.6541   44.7111 H   0  0  0  0  0  0  0  0  0  0  0  0
   47.2261   33.6303   45.7919 H   0  0  0  0  0  0  0  0  0  0  0  0
   46.7818   30.3642   46.0652 H   0  0  0  0  0  0  0  0  0  0  0  0
   47.1416   33.1106   48.2010 H   0  0  0  0  0  0  0  0  0  0  0  0
   44.2807   30.4588   49.8607 H   0  0  0  0  0  0  0  0  0  0  0  0
  1 18  1  0
  2  3  2  0
  3  4  1  0
  4  1  1  0
  5  4  2  0
  6  5  1  0
  7  6  2  0
  7  2  1  0
  8 13  2  0
  9  8  1  0
 10 11  1  0
 10  9  2  0
 11 12  2  0
 12  2  1  0
 12 13  1  0
 14  1  1  0
 14 15  1  0
 15 16  1  0
 17 15  2  0
 18 19  1  0
 18 20  1  0
 19 20  1  0
 20 21  1  0
 21 25  1  0
 21 22  1  0
 22 23  2  0
 24 23  1  0
 25 24  2  0
  1 26  1  6
  3 27  1  0
  5 28  1  0
  6 29  1  0
  8 30  1  0
  9 31  1  0
 10 32  1  0
 14 33  1  0
 16 34  1  0
 16 35  1  0
 18 36  1  1
 19 37  1  0
 19 38  1  0
 20 39  1  6
 22 40  1  0
 24 41  1  0
M  ISO  8  26   8  27  14  28  14  29  14  30  14  31  14  32  14  36  13
M  ISO  5  37  13  38  13  39  13  40  14  41  14
M  END
>  <minimizedAffinity>  (1) 
-5.18307304

>  <minimizedRMSD>  (1) 
4.4380784

$$$$
