
     RDKit          3D

 42 45  0  0  1  0  0  0  0  0999 V2000
   46.9670   29.9920   47.7320 C   0  0  2  0  0  0  0  0  0  0  0  0
   46.6540   32.4580   44.9140 C   0  0  0  0  0  0  0  0  0  0  0  0
   46.5120   31.8030   46.1330 C   0  0  0  0  0  0  0  0  0  0  0  0
   47.1530   30.6250   46.3780 C   0  0  0  0  0  0  0  0  0  0  0  0
   47.9350   30.1110   45.3900 C   0  0  0  0  0  0  0  0  0  0  0  0
   48.1030   30.7280   44.1690 C   0  0  0  0  0  0  0  0  0  0  0  0
   47.4480   31.8790   43.9900 N   0  0  0  0  0  0  0  0  0  0  0  0
   44.5880   35.4090   45.4440 C   0  0  0  0  0  0  0  0  0  0  0  0
   44.7060   36.0860   44.2220 C   0  0  0  0  0  0  0  0  0  0  0  0
   45.4970   35.5290   43.2080 C   0  0  0  0  0  0  0  0  0  0  0  0
   46.1100   34.3660   43.4530 N   0  0  0  0  0  0  0  0  0  0  0  0
   45.9790   33.7250   44.6550 C   0  0  0  0  0  0  0  0  0  0  0  0
   45.2430   34.2430   45.6020 N   0  0  0  0  0  0  0  0  0  0  0  0
   45.6720   29.6400   47.8900 N   0  0  0  0  0  0  0  0  0  0  0  0
   45.1740   28.3580   47.6430 C   0  0  0  0  0  0  0  0  0  0  0  0
   44.7890   27.5680   48.7460 N   0  0  0  0  0  0  0  0  0  0  0  0
   44.9620   27.6750   46.5880 O   0  0  0  0  0  0  0  0  0  0  0  0
   47.2420   31.0750   48.7010 C   0  0  2  0  0  0  0  0  0  0  0  0
   48.4300   31.9540   48.5850 C   0  0  0  0  0  0  0  0  0  0  0  0
   48.4670   30.8810   49.6120 C   0  0  2  0  0  0  0  0  0  0  0  0
   49.4330   29.7720   49.3290 C   0  0  0  0  0  0  0  0  0  0  0  0
   50.8780   29.9180   49.2460 C   0  0  0  0  0  0  0  0  0  0  0  0
   50.2790   29.3660   50.5340 C   0  0  0  0  0  0  0  0  0  0  0  0
   47.6099   29.1083   47.8577 H   0  0  0  0  0  0  0  0  0  0  0  0
   45.8720   32.2428   46.9121 H   0  0  0  0  0  0  0  0  0  0  0  0
   48.4566   29.1602   45.5741 H   0  0  0  0  0  0  0  0  0  0  0  0
   48.7417   30.2963   43.3843 H   0  0  0  0  0  0  0  0  0  0  0  0
   43.9729   35.8218   46.2572 H   0  0  0  0  0  0  0  0  0  0  0  0
   44.1849   37.0413   44.0613 H   0  0  0  0  0  0  0  0  0  0  0  0
   45.6105   36.0344   42.2376 H   0  0  0  0  0  0  0  0  0  0  0  0
   45.0111   30.3612   48.2124 H   0  0  0  0  0  0  0  0  0  0  0  0
   44.4183   26.6189   48.5953 H   0  0  0  0  0  0  0  0  0  0  0  0
   44.8785   27.9401   49.7022 H   0  0  0  0  0  0  0  0  0  0  0  0
   46.1661   31.2772   48.8088 H   0  0  0  0  0  0  0  0  0  0  0  0
   49.0763   31.8793   47.6980 H   0  0  0  0  0  0  0  0  0  0  0  0
   48.5789   33.0435   48.6140 H   0  0  0  0  0  0  0  0  0  0  0  0
   48.5972   30.8012   50.7014 H   0  0  0  0  0  0  0  0  0  0  0  0
   48.7299   29.3239   48.6114 H   0  0  0  0  0  0  0  0  0  0  0  0
   51.4561   29.2551   48.5854 H   0  0  0  0  0  0  0  0  0  0  0  0
   51.5532   30.7535   49.0093 H   0  0  0  0  0  0  0  0  0  0  0  0
   50.2716   29.9731   51.4513 H   0  0  0  0  0  0  0  0  0  0  0  0
   50.4074   28.4619   51.1472 H   0  0  0  0  0  0  0  0  0  0  0  0
  1 14  1  0
  1 18  1  0
  2  3  2  0
  3  4  1  0
  4  1  1  0
  5  4  2  0
  6  5  1  0
  7  6  2  0
  7  2  1  0
  8 13  2  0
  9  8  1  0
 10 11  1  0
 10  9  2  0
 11 12  2  0
 12  2  1  0
 12 13  1  0
 15 14  1  0
 15 16  1  0
 17 15  2  0
 18 20  1  0
 19 18  1  0
 19 20  1  0
 21 20  1  0
 21 23  1  0
 22 21  1  0
 22 23  1  0
  1 24  1  1
  3 25  1  0
  5 26  1  0
  6 27  1  0
  8 28  1  0
  9 29  1  0
 10 30  1  0
 14 31  1  0
 16 32  1  0
 16 33  1  0
 18 34  1  1
 19 35  1  0
 19 36  1  0
 20 37  1  1
 21 38  1  0
 22 39  1  0
 22 40  1  0
 23 41  1  0
 23 42  1  0
M  ISO  8  24   8  25  14  26  14  27  14  28  14  29  14  30  14  34  13
M  ISO  8  35  13  36  13  37  13  38  13  39  13  40  13  41  13  42  13
M  END
>  <minimizedAffinity>  (1) 
-5.28543663

>  <minimizedRMSD>  (1) 
1.72490573

$$$$
