
     RDKit          3D

 36 38  0  0  1  0  0  0  0  0999 V2000
   46.7750   32.7380   44.3500 C   0  0  0  0  0  0  0  0  0  0  0  0
   46.6970   31.9200   45.4740 C   0  0  0  0  0  0  0  0  0  0  0  0
   47.4250   30.7730   45.5650 C   0  0  0  0  0  0  0  0  0  0  0  0
   48.2340   30.4530   44.5160 C   0  0  0  0  0  0  0  0  0  0  0  0
   48.3380   31.2320   43.3890 C   0  0  0  0  0  0  0  0  0  0  0  0
   47.5990   32.3440   43.3610 N   0  0  0  0  0  0  0  0  0  0  0  0
   44.5890   35.4790   45.2840 C   0  0  0  0  0  0  0  0  0  0  0  0
   44.6170   36.3260   44.1710 C   0  0  0  0  0  0  0  0  0  0  0  0
   45.4110   35.9180   43.0740 C   0  0  0  0  0  0  0  0  0  0  0  0
   46.0910   34.7590   43.1450 N   0  0  0  0  0  0  0  0  0  0  0  0
   46.0210   33.9810   44.2600 C   0  0  0  0  0  0  0  0  0  0  0  0
   45.2890   34.3410   45.2920 N   0  0  0  0  0  0  0  0  0  0  0  0
   47.2960   29.9610   46.8310 C   0  0  2  0  0  0  0  0  0  0  0  0
   46.2130   29.1590   46.7320 N   0  0  0  0  0  0  0  0  0  0  0  0
   46.0300   27.9920   47.4770 C   0  0  0  0  0  0  0  0  0  0  0  0
   45.0630   27.9990   48.5070 N   0  0  0  0  0  0  0  0  0  0  0  0
   46.5550   26.8330   47.4600 O   0  0  0  0  0  0  0  0  0  0  0  0
   47.0040   30.9470   47.8910 C   0  0  2  0  0  0  0  0  0  0  0  0
   47.9430   32.0710   48.1680 C   0  0  0  0  0  0  0  0  0  0  0  0
   47.9460   30.9330   49.1090 C   0  0  2  0  0  0  0  0  0  0  0  0
   49.2790   29.7010   49.0680 S   0  0  0  0  0  0  0  0  0  0  0  0
   46.0346   32.2059   46.3044 H   0  0  0  0  0  0  0  0  0  0  0  0
   48.8300   29.5303   44.5741 H   0  0  0  0  0  0  0  0  0  0  0  0
   48.9962   30.9540   42.5527 H   0  0  0  0  0  0  0  0  0  0  0  0
   43.9846   35.7526   46.1614 H   0  0  0  0  0  0  0  0  0  0  0  0
   44.0473   37.2667   44.1500 H   0  0  0  0  0  0  0  0  0  0  0  0
   45.4721   36.5427   42.1706 H   0  0  0  0  0  0  0  0  0  0  0  0
   48.1960   29.3582   47.0223 H   0  0  0  0  0  0  0  0  0  0  0  0
   45.4753   29.4254   46.0644 H   0  0  0  0  0  0  0  0  0  0  0  0
   44.9068   27.1524   49.0725 H   0  0  0  0  0  0  0  0  0  0  0  0
   44.5142   28.8507   48.6924 H   0  0  0  0  0  0  0  0  0  0  0  0
   45.9229   30.8889   47.6964 H   0  0  0  0  0  0  0  0  0  0  0  0
   48.8077   32.2314   47.5073 H   0  0  0  0  0  0  0  0  0  0  0  0
   47.8184   33.1576   48.2856 H   0  0  0  0  0  0  0  0  0  0  0  0
   47.8552   30.8567   50.2026 H   0  0  0  0  0  0  0  0  0  0  0  0
   49.6357   29.3713   50.3490 H   0  0  0  0  0  0  0  0  0  0  0  0
  1  2  2  0
  2  3  1  0
  3 13  1  0
  4  3  2  0
  5  4  1  0
  6  5  2  0
  6  1  1  0
  7 12  2  0
  8  7  1  0
  9 10  1  0
  9  8  2  0
 10 11  2  0
 11  1  1  0
 11 12  1  0
 13 18  1  0
 14 13  1  0
 14 15  1  0
 15 16  1  0
 17 15  2  0
 18 19  1  0
 18 20  1  0
 19 20  1  0
 21 20  1  0
  2 22  1  0
  4 23  1  0
  5 24  1  0
  7 25  1  0
  8 26  1  0
  9 27  1  0
 13 28  1  1
 14 29  1  0
 16 30  1  0
 16 31  1  0
 18 32  1  1
 19 33  1  0
 19 34  1  0
 20 35  1  1
 21 36  1  0
M  ISO  8  22  14  23  14  24  14  25  14  26  14  27  14  28   8  32  13
M  ISO  4  33  13  34  13  35  13  36  11
M  END
>  <minimizedAffinity>  (1) 
-4.82815504

>  <minimizedRMSD>  (1) 
1.38886654

$$$$
