
     RDKit          3D

 40 43  0  0  0  0  0  0  0  0999 V2000
   44.9540   35.4670   45.0760 C   0  0  0  0  0  0  0  0  0  0  0  0
   44.1730   35.6400   43.9020 C   0  0  0  0  0  0  0  0  0  0  0  0
   44.2160   34.6530   42.9480 C   0  0  0  0  0  0  0  0  0  0  0  0
   44.9790   33.5440   43.1130 N   0  0  0  0  0  0  0  0  0  0  0  0
   45.7280   33.4050   44.2670 C   0  0  0  0  0  0  0  0  0  0  0  0
   45.7030   34.3570   45.2170 N   0  0  0  0  0  0  0  0  0  0  0  0
   43.4220   34.8510   41.7780 N   0  0  0  0  0  0  0  0  0  0  0  0
   42.1270   35.2400   41.7430 C   0  0  0  0  0  0  0  0  0  0  0  0
   41.5070   35.3840   40.5110 C   0  0  0  0  0  0  0  0  0  0  0  0
   42.1600   35.1470   39.3250 C   0  0  0  0  0  0  0  0  0  0  0  0
   41.5880   35.2800   38.2210 O   0  0  0  0  0  0  0  0  0  0  0  0
   43.4490   34.7610   39.4140 N   0  0  0  0  0  0  0  0  0  0  0  0
   44.0560   34.6200   40.6290 C   0  0  0  0  0  0  0  0  0  0  0  0
   45.2800   34.2500   40.5440 O   0  0  0  0  0  0  0  0  0  0  0  0
   40.0990   35.8070   40.4780 C   0  0  0  0  0  0  0  0  0  0  0  0
   46.5460   32.2130   44.4410 C   0  0  0  0  0  0  0  0  0  0  0  0
   47.2240   31.4910   43.4590 C   0  0  0  0  0  0  0  0  0  0  0  0
   47.8690   30.4480   44.0270 N   0  0  0  0  0  0  0  0  0  0  0  0
   47.5910   30.5230   45.3600 C   0  0  0  0  0  0  0  0  0  0  0  0
   46.7930   31.5860   45.6160 N   0  0  0  0  0  0  0  0  0  0  0  0
   48.0930   29.5780   46.3690 C   0  0  0  0  0  0  0  0  0  0  0  0
   49.1070   29.7170   47.2170 C   0  0  0  0  0  0  0  0  0  0  0  0
   49.4170   28.7040   48.0900 C   0  0  0  0  0  0  0  0  0  0  0  0
   48.6340   27.5720   48.0310 C   0  0  0  0  0  0  0  0  0  0  0  0
   47.3930   27.9910   46.6530 S   0  0  0  0  0  0  0  0  0  0  0  0
   46.2850   31.9970   46.9030 C   0  0  0  0  0  0  0  0  0  0  0  0
   46.1780   30.9290   47.8020 F   0  0  0  0  0  0  0  0  0  0  0  0
   45.0410   32.6280   46.7930 F   0  0  0  0  0  0  0  0  0  0  0  0
   47.1840   32.8730   47.5160 F   0  0  0  0  0  0  0  0  0  0  0  0
   44.9469   36.2343   45.8642 H   0  0  0  0  0  0  0  0  0  0  0  0
   43.5526   36.5374   43.7613 H   0  0  0  0  0  0  0  0  0  0  0  0
   41.5761   35.4384   42.6742 H   0  0  0  0  0  0  0  0  0  0  0  0
   43.9828   34.5700   38.5541 H   0  0  0  0  0  0  0  0  0  0  0  0
   39.7256   35.9192   41.5066 H   0  0  0  0  0  0  0  0  0  0  0  0
   40.0175   36.7693   39.9514 H   0  0  0  0  0  0  0  0  0  0  0  0
   39.5007   35.0490   39.9514 H   0  0  0  0  0  0  0  0  0  0  0  0
   47.2325   31.7335   42.3861 H   0  0  0  0  0  0  0  0  0  0  0  0
   49.6983   30.6446   47.2193 H   0  0  0  0  0  0  0  0  0  0  0  0
   50.2505   28.7919   48.8024 H   0  0  0  0  0  0  0  0  0  0  0  0
   48.7084   26.6537   48.6320 H   0  0  0  0  0  0  0  0  0  0  0  0
  1  6  2  0
  2  1  1  0
  3  4  1  0
  3  2  2  0
  4  5  2  0
  5 16  1  0
  5  6  1  0
  7  3  1  0
  8  7  1  0
  9  8  2  0
 10 12  1  0
 10  9  1  0
 11 10  2  0
 12 13  1  0
 13  7  1  0
 14 13  2  0
 15  9  1  0
 16 20  1  0
 17 18  1  0
 17 16  2  0
 18 19  2  0
 19 20  1  0
 19 21  1  0
 20 26  1  0
 21 25  1  0
 21 22  2  0
 22 23  1  0
 24 23  2  0
 25 24  1  0
 26 29  1  0
 26 27  1  0
 28 26  1  0
  1 30  1  0
  2 31  1  0
  8 32  1  0
 12 33  1  0
 15 34  1  0
 15 35  1  0
 15 36  1  0
 17 37  1  0
 22 38  1  0
 23 39  1  0
 24 40  1  0
M  ISO  8  30  14  31  14  32  14  33   9  34   8  35   8  36   8  37  14
M  ISO  3  38  14  39  14  40  14
M  END
>  <minimizedAffinity>  (1) 
-6.02135468

>  <minimizedRMSD>  (1) 
1.10637498

$$$$
