
     RDKit          3D

 45 48  0  0  1  0  0  0  0  0999 V2000
   46.7900   30.3840   45.9490 C   0  0  2  0  0  0  0  0  0  0  0  0
   48.5900   31.6530   42.9100 C   0  0  0  0  0  0  0  0  0  0  0  0
   47.6640   31.4760   43.9330 C   0  0  0  0  0  0  0  0  0  0  0  0
   47.8360   30.4920   44.8620 C   0  0  0  0  0  0  0  0  0  0  0  0
   48.9210   29.6930   44.7710 C   0  0  0  0  0  0  0  0  0  0  0  0
   49.8610   29.8310   43.7750 C   0  0  0  0  0  0  0  0  0  0  0  0
   49.6500   30.8150   42.8810 N   0  0  0  0  0  0  0  0  0  0  0  0
   48.2490   34.9640   41.4860 C   0  0  0  0  0  0  0  0  0  0  0  0
   48.1960   34.7400   40.1030 C   0  0  0  0  0  0  0  0  0  0  0  0
   48.2760   33.4120   39.6730 C   0  0  0  0  0  0  0  0  0  0  0  0
   48.4010   32.4200   40.5910 N   0  0  0  0  0  0  0  0  0  0  0  0
   48.4470   32.6980   41.9140 C   0  0  0  0  0  0  0  0  0  0  0  0
   48.3730   33.9420   42.3410 N   0  0  0  0  0  0  0  0  0  0  0  0
   45.9010   29.4280   45.6070 N   0  0  0  0  0  0  0  0  0  0  0  0
   44.8760   28.9450   46.4090 C   0  0  0  0  0  0  0  0  0  0  0  0
   43.5440   29.2670   46.0220 N   0  0  0  0  0  0  0  0  0  0  0  0
   44.8420   28.2320   47.4820 O   0  0  0  0  0  0  0  0  0  0  0  0
   46.0750   31.6710   45.9220 C   0  0  2  0  0  0  0  0  0  0  0  0
   46.6740   32.9330   46.3650 C   0  0  0  0  0  0  0  0  0  0  0  0
   45.7370   32.3080   47.2910 C   0  0  2  0  0  0  0  0  0  0  0  0
   46.2800   31.7470   48.5230 C   0  0  0  0  0  0  0  0  0  0  0  0
   45.4820   31.1920   49.3350 O   0  0  0  0  0  0  0  0  0  0  0  0
   47.5310   31.6890   49.0260 O   0  0  0  0  0  0  0  0  0  0  0  0
   48.2700   30.6000   49.4210 C   0  0  0  0  0  0  0  0  0  0  0  0
   49.5290   30.3130   48.5760 C   0  0  0  0  0  0  0  0  0  0  0  0
   49.5820   30.6580   50.0760 C   0  0  0  0  0  0  0  0  0  0  0  0
   47.2368   30.1501   46.9266 H   0  0  0  0  0  0  0  0  0  0  0  0
   46.7855   32.1352   43.9933 H   0  0  0  0  0  0  0  0  0  0  0  0
   49.0589   28.9012   45.5220 H   0  0  0  0  0  0  0  0  0  0  0  0
   50.7391   29.1714   43.7128 H   0  0  0  0  0  0  0  0  0  0  0  0
   48.1879   35.9919   41.8728 H   0  0  0  0  0  0  0  0  0  0  0  0
   48.0961   35.5708   39.3891 H   0  0  0  0  0  0  0  0  0  0  0  0
   48.2380   33.1732   38.5999 H   0  0  0  0  0  0  0  0  0  0  0  0
   45.9912   29.0197   44.6657 H   0  0  0  0  0  0  0  0  0  0  0  0
   42.7490   28.9319   46.5846 H   0  0  0  0  0  0  0  0  0  0  0  0
   43.3756   29.8350   45.1795 H   0  0  0  0  0  0  0  0  0  0  0  0
   45.5581   31.3660   45.0001 H   0  0  0  0  0  0  0  0  0  0  0  0
   47.7440   32.9619   46.6187 H   0  0  0  0  0  0  0  0  0  0  0  0
   46.7364   33.9360   45.9178 H   0  0  0  0  0  0  0  0  0  0  0  0
   44.8035   32.5863   47.8020 H   0  0  0  0  0  0  0  0  0  0  0  0
   47.3449   30.0900   49.7278 H   0  0  0  0  0  0  0  0  0  0  0  0
   49.7484   29.2923   48.2296 H   0  0  0  0  0  0  0  0  0  0  0  0
   49.9747   30.7097   47.6519 H   0  0  0  0  0  0  0  0  0  0  0  0
   49.9881   31.6281   50.3984 H   0  0  0  0  0  0  0  0  0  0  0  0
   50.0207   30.1728   50.9604 H   0  0  0  0  0  0  0  0  0  0  0  0
  2  3  2  0
  3  4  1  0
  4  1  1  0
  5  4  2  0
  6  5  1  0
  7  2  1  0
  7  6  2  0
  8 13  2  0
  9  8  1  0
 10  9  2  0
 10 11  1  0
 11 12  2  0
 12 13  1  0
 12  2  1  0
 14  1  1  0
 14 15  1  0
 15 17  2  0
 16 15  1  0
 18  1  1  0
 18 19  1  0
 18 20  1  0
 19 20  1  0
 20 21  1  0
 21 23  1  0
 21 22  2  0
 23 24  1  0
 24 26  1  0
 25 24  1  0
 25 26  1  0
  1 27  1  1
  3 28  1  0
  5 29  1  0
  6 30  1  0
  8 31  1  0
  9 32  1  0
 10 33  1  0
 14 34  1  0
 16 35  1  0
 16 36  1  0
 18 37  1  6
 19 38  1  0
 19 39  1  0
 20 40  1  1
 24 41  1  0
 25 42  1  0
 25 43  1  0
 26 44  1  0
 26 45  1  0
M  ISO  8  27   8  28  14  29  14  30  14  31  14  32  14  33  14  37  13
M  ISO  8  38  13  39  13  40  13  41  13  42  13  43  13  44  13  45  13
M  END
>  <minimizedAffinity>  (1) 
-4.85336447

>  <minimizedRMSD>  (1) 
1.17436838

$$$$
