
     RDKit          3D

 44 46  0  0  1  0  0  0  0  0999 V2000
   46.9620   30.4980   46.0360 C   0  0  2  0  0  0  0  0  0  0  0  0
   48.2630   31.9250   42.8160 C   0  0  0  0  0  0  0  0  0  0  0  0
   47.7230   31.7890   44.0920 C   0  0  0  0  0  0  0  0  0  0  0  0
   47.5360   30.5510   44.6370 C   0  0  0  0  0  0  0  0  0  0  0  0
   47.8830   29.4620   43.9170 C   0  0  0  0  0  0  0  0  0  0  0  0
   48.4210   29.5570   42.6490 C   0  0  0  0  0  0  0  0  0  0  0  0
   48.5880   30.7900   42.1530 N   0  0  0  0  0  0  0  0  0  0  0  0
   49.5720   35.2690   42.3390 C   0  0  0  0  0  0  0  0  0  0  0  0
   48.9940   35.6880   41.1350 C   0  0  0  0  0  0  0  0  0  0  0  0
   48.1320   34.7930   40.4840 C   0  0  0  0  0  0  0  0  0  0  0  0
   47.8970   33.5740   41.0350 N   0  0  0  0  0  0  0  0  0  0  0  0
   48.4910   33.2260   42.2100 C   0  0  0  0  0  0  0  0  0  0  0  0
   49.3030   34.0540   42.8350 N   0  0  0  0  0  0  0  0  0  0  0  0
   46.2480   29.3640   46.1730 N   0  0  0  0  0  0  0  0  0  0  0  0
   46.4000   28.4170   47.1790 C   0  0  0  0  0  0  0  0  0  0  0  0
   45.3420   28.3120   48.1290 N   0  0  0  0  0  0  0  0  0  0  0  0
   47.3220   27.5680   47.4700 O   0  0  0  0  0  0  0  0  0  0  0  0
   46.0160   31.6250   46.1040 C   0  0  2  0  0  0  0  0  0  0  0  0
   46.4040   32.9770   46.5170 C   0  0  0  0  0  0  0  0  0  0  0  0
   45.6900   32.1800   47.5090 C   0  0  2  0  0  0  0  0  0  0  0  0
   46.4640   31.7290   48.6700 C   0  0  0  0  0  0  0  0  0  0  0  0
   45.8820   31.0530   49.5670 O   0  0  0  0  0  0  0  0  0  0  0  0
   47.7620   31.8800   49.0460 O   0  0  0  0  0  0  0  0  0  0  0  0
   48.6060   30.8150   49.3640 C   0  0  0  0  0  0  0  0  0  0  0  0
   49.9150   31.2130   49.9670 C   0  0  0  0  0  0  0  0  0  0  0  0
   47.7473   30.5393   46.8052 H   0  0  0  0  0  0  0  0  0  0  0  0
   47.4449   32.6856   44.6655 H   0  0  0  0  0  0  0  0  0  0  0  0
   47.7317   28.4649   44.3562 H   0  0  0  0  0  0  0  0  0  0  0  0
   48.6994   28.6621   42.0731 H   0  0  0  0  0  0  0  0  0  0  0  0
   50.2519   35.9422   42.8817 H   0  0  0  0  0  0  0  0  0  0  0  0
   49.2077   36.6819   40.7150 H   0  0  0  0  0  0  0  0  0  0  0  0
   47.6509   35.0758   39.5361 H   0  0  0  0  0  0  0  0  0  0  0  0
   45.5214   29.1816   45.4661 H   0  0  0  0  0  0  0  0  0  0  0  0
   45.4039   27.6263   48.8951 H   0  0  0  0  0  0  0  0  0  0  0  0
   44.5158   28.9219   48.0492 H   0  0  0  0  0  0  0  0  0  0  0  0
   45.4828   31.2294   45.2270 H   0  0  0  0  0  0  0  0  0  0  0  0
   47.4678   33.2081   46.6752 H   0  0  0  0  0  0  0  0  0  0  0  0
   46.2350   33.9753   46.0871 H   0  0  0  0  0  0  0  0  0  0  0  0
   44.7705   32.2702   48.1059 H   0  0  0  0  0  0  0  0  0  0  0  0
   48.0823   30.1651   50.0805 H   0  0  0  0  0  0  0  0  0  0  0  0
   48.8417   30.3116   48.4148 H   0  0  0  0  0  0  0  0  0  0  0  0
   49.8358   31.1889   51.0639 H   0  0  0  0  0  0  0  0  0  0  0  0
   50.6974   30.5121   49.6404 H   0  0  0  0  0  0  0  0  0  0  0  0
   50.1748   32.2307   49.6404 H   0  0  0  0  0  0  0  0  0  0  0  0
  1 18  1  0
  1 14  1  0
  2  3  2  0
  3  4  1  0
  4  1  1  0
  5  4  2  0
  6  5  1  0
  7  6  2  0
  7  2  1  0
  8 13  2  0
  9  8  1  0
 10 11  1  0
 10  9  2  0
 11 12  2  0
 12  2  1  0
 12 13  1  0
 14 15  1  0
 15 17  2  0
 15 16  1  0
 18 19  1  0
 18 20  1  0
 19 20  1  0
 20 21  1  0
 21 23  1  0
 21 22  2  0
 23 24  1  0
 24 25  1  0
  1 26  1  1
  3 27  1  0
  5 28  1  0
  6 29  1  0
  8 30  1  0
  9 31  1  0
 10 32  1  0
 14 33  1  0
 16 34  1  0
 16 35  1  0
 18 36  1  6
 19 37  1  0
 19 38  1  0
 20 39  1  1
 24 40  1  0
 24 41  1  0
 25 42  1  0
 25 43  1  0
 25 44  1  0
M  ISO  8  26   8  27  14  28  14  29  14  30  14  31  14  32  14  36  13
M  ISO  8  37  13  38  13  39  13  40   8  41   8  42   8  43   8  44   8
M  END
>  <minimizedAffinity>  (1) 
-4.96358633

>  <minimizedRMSD>  (1) 
1.09353328

$$$$
