
     RDKit          3D

 24 25  0  0  0  0  0  0  0  0999 V2000
   46.5710   34.8200   41.6940 C   0  0  0  0  0  0  0  0  0  0  0  0
   45.1520   36.0730   43.2960 C   0  0  0  0  0  0  0  0  0  0  0  0
   45.9380   34.9430   42.9950 C   0  0  0  0  0  0  0  0  0  0  0  0
   46.0630   33.9800   44.0050 C   0  0  0  0  0  0  0  0  0  0  0  0
   45.4320   34.1890   45.1880 N   0  0  0  0  0  0  0  0  0  0  0  0
   44.6940   35.2800   45.4290 C   0  0  0  0  0  0  0  0  0  0  0  0
   44.5560   36.2170   44.4850 N   0  0  0  0  0  0  0  0  0  0  0  0
   47.9940   35.3310   41.8010 C   0  0  0  0  0  0  0  0  0  0  0  0
   48.9890   34.2420   41.6760 C   0  0  0  0  0  0  0  0  0  0  0  0
   50.1300   34.1930   42.4490 C   0  0  0  0  0  0  0  0  0  0  0  0
   51.0480   33.1550   42.3090 C   0  0  0  0  0  0  0  0  0  0  0  0
   50.7810   32.1950   41.3870 N   0  0  0  0  0  0  0  0  0  0  0  0
   49.6670   32.2390   40.6300 C   0  0  0  0  0  0  0  0  0  0  0  0
   48.7770   33.2460   40.7660 N   0  0  0  0  0  0  0  0  0  0  0  0
   46.0172   35.4165   40.9541 H   0  0  0  0  0  0  0  0  0  0  0  0
   46.5716   33.7678   41.3732 H   0  0  0  0  0  0  0  0  0  0  0  0
   45.0253   36.8564   42.5343 H   0  0  0  0  0  0  0  0  0  0  0  0
   46.6614   33.0715   43.8420 H   0  0  0  0  0  0  0  0  0  0  0  0
   44.2009   35.4056   46.4042 H   0  0  0  0  0  0  0  0  0  0  0  0
   48.1685   36.0642   40.9998 H   0  0  0  0  0  0  0  0  0  0  0  0
   48.1155   35.7877   42.7943 H   0  0  0  0  0  0  0  0  0  0  0  0
   50.3180   34.9861   43.1877 H   0  0  0  0  0  0  0  0  0  0  0  0
   51.9586   33.1144   42.9247 H   0  0  0  0  0  0  0  0  0  0  0  0
   49.4801   31.4449   39.8921 H   0  0  0  0  0  0  0  0  0  0  0  0
  1  8  1  0
  1  3  1  0
  2  7  2  0
  3  2  1  0
  3  4  2  0
  4  5  1  0
  5  6  2  0
  7  6  1  0
  9  8  1  0
  9 10  2  0
 11 10  1  0
 12 11  2  0
 13 14  2  0
 13 12  1  0
 14  9  1  0
  1 15  1  0
  1 16  1  0
  2 17  1  0
  4 18  1  0
  6 19  1  0
  8 20  1  0
  8 21  1  0
 10 22  1  0
 11 23  1  0
 13 24  1  0
M  ISO  8  15   8  16   8  17  14  18  14  19  14  20   8  21   8  22  14
M  ISO  2  23  14  24  14
M  END
>  <minimizedAffinity>  (1) 
-4.60204744

>  <minimizedRMSD>  (1) 
2.71766663

$$$$
