
     RDKit          3D

 23 24  0  0  0  0  0  0  0  0999 V2000
   46.6910   34.6920   41.6590 C   0  0  0  0  0  0  0  0  0  0  0  0
   45.2450   35.9860   43.1710 C   0  0  0  0  0  0  0  0  0  0  0  0
   46.0300   34.8510   42.9340 C   0  0  0  0  0  0  0  0  0  0  0  0
   46.1140   33.9340   43.9780 C   0  0  0  0  0  0  0  0  0  0  0  0
   45.4440   34.1900   45.1410 N   0  0  0  0  0  0  0  0  0  0  0  0
   44.7030   35.2980   45.3180 C   0  0  0  0  0  0  0  0  0  0  0  0
   44.6060   36.1900   44.3340 N   0  0  0  0  0  0  0  0  0  0  0  0
   48.0390   35.4220   41.7320 C   0  0  0  0  0  0  0  0  0  0  0  0
   49.0990   34.3780   41.8130 C   0  0  0  0  0  0  0  0  0  0  0  0
   50.2600   34.3760   42.5630 C   0  0  0  0  0  0  0  0  0  0  0  0
   50.8920   33.1860   42.2820 C   0  0  0  0  0  0  0  0  0  0  0  0
   50.0830   32.5080   41.3650 C   0  0  0  0  0  0  0  0  0  0  0  0
   49.0160   33.2570   41.1090 O   0  0  0  0  0  0  0  0  0  0  0  0
   46.0727   35.1280   40.8605 H   0  0  0  0  0  0  0  0  0  0  0  0
   46.8444   33.6255   41.4374 H   0  0  0  0  0  0  0  0  0  0  0  0
   45.1482   36.7386   42.3746 H   0  0  0  0  0  0  0  0  0  0  0  0
   46.7111   33.0167   43.8683 H   0  0  0  0  0  0  0  0  0  0  0  0
   44.1796   35.4667   46.2707 H   0  0  0  0  0  0  0  0  0  0  0  0
   48.1838   36.0377   40.8320 H   0  0  0  0  0  0  0  0  0  0  0  0
   48.0770   36.0872   42.6073 H   0  0  0  0  0  0  0  0  0  0  0  0
   50.6081   35.1651   43.2457 H   0  0  0  0  0  0  0  0  0  0  0  0
   51.8482   32.8362   42.6982 H   0  0  0  0  0  0  0  0  0  0  0  0
   50.2944   31.5205   40.9289 H   0  0  0  0  0  0  0  0  0  0  0  0
  1  8  1  0
  1  3  1  0
  2  7  2  0
  3  2  1  0
  3  4  2  0
  4  5  1  0
  5  6  2  0
  7  6  1  0
  8  9  1  0
  9 10  2  0
 11 10  1  0
 12 11  2  0
 13 12  1  0
 13  9  1  0
  1 14  1  0
  1 15  1  0
  2 16  1  0
  4 17  1  0
  6 18  1  0
  8 19  1  0
  8 20  1  0
 10 21  1  0
 11 22  1  0
 12 23  1  0
M  ISO  8  14   8  15   8  16  14  17  14  18  14  19   8  20   8  21  14
M  ISO  2  22  14  23  14
M  END
>  <minimizedAffinity>  (1) 
-4.5230298

>  <minimizedRMSD>  (1) 
2.54511857

$$$$
