
     RDKit          3D

 30 31  0  0  0  0  0  0  0  0999 V2000
   46.5880   34.7400   41.6480 C   0  0  0  0  0  0  0  0  0  0  0  0
   45.1890   35.9620   43.2250 C   0  0  0  0  0  0  0  0  0  0  0  0
   45.9920   34.8390   42.9570 C   0  0  0  0  0  0  0  0  0  0  0  0
   46.1250   33.9260   43.9860 C   0  0  0  0  0  0  0  0  0  0  0  0
   45.4860   34.1650   45.1630 N   0  0  0  0  0  0  0  0  0  0  0  0
   44.7240   35.2600   45.3740 C   0  0  0  0  0  0  0  0  0  0  0  0
   44.5650   36.1790   44.3970 N   0  0  0  0  0  0  0  0  0  0  0  0
   47.9940   35.3480   41.7390 C   0  0  0  0  0  0  0  0  0  0  0  0
   48.9880   34.3410   41.5920 N   0  0  0  0  0  0  0  0  0  0  0  0
   48.5730   33.1130   40.9950 C   0  0  0  0  0  0  0  0  0  0  0  0
   48.9310   31.9780   41.9340 C   0  0  0  0  0  0  0  0  0  0  0  0
   50.3660   31.9060   42.0640 N   0  0  0  0  0  0  0  0  0  0  0  0
   50.9790   33.1950   42.2500 C   0  0  0  0  0  0  0  0  0  0  0  0
   49.9330   34.2430   42.6520 C   0  0  0  0  0  0  0  0  0  0  0  0
   45.9839   35.2966   40.9164 H   0  0  0  0  0  0  0  0  0  0  0  0
   46.6381   33.6908   41.3215 H   0  0  0  0  0  0  0  0  0  0  0  0
   45.0634   36.7089   42.4273 H   0  0  0  0  0  0  0  0  0  0  0  0
   46.7371   33.0214   43.8555 H   0  0  0  0  0  0  0  0  0  0  0  0
   44.2304   35.4041   46.3464 H   0  0  0  0  0  0  0  0  0  0  0  0
   48.1165   36.0954   40.9413 H   0  0  0  0  0  0  0  0  0  0  0  0
   48.1120   35.8199   42.7256 H   0  0  0  0  0  0  0  0  0  0  0  0
   47.4856   33.1293   40.8299 H   0  0  0  0  0  0  0  0  0  0  0  0
   49.0765   32.9749   40.0268 H   0  0  0  0  0  0  0  0  0  0  0  0
   48.4807   32.1607   42.9208 H   0  0  0  0  0  0  0  0  0  0  0  0
   48.5479   31.0291   41.5305 H   0  0  0  0  0  0  0  0  0  0  0  0
   50.5928   31.3144   42.8761 H   0  0  0  0  0  0  0  0  0  0  0  0
   51.7391   33.1220   43.0418 H   0  0  0  0  0  0  0  0  0  0  0  0
   51.4424   33.5051   41.3018 H   0  0  0  0  0  0  0  0  0  0  0  0
   50.4200   35.2165   42.8108 H   0  0  0  0  0  0  0  0  0  0  0  0
   49.4336   33.9494   43.5871 H   0  0  0  0  0  0  0  0  0  0  0  0
  1  8  1  0
  1  3  1  0
  2  7  2  0
  3  2  1  0
  3  4  2  0
  4  5  1  0
  5  6  2  0
  7  6  1  0
  9  8  1  0
  9 14  1  0
 10  9  1  0
 10 11  1  0
 11 12  1  0
 12 13  1  0
 13 14  1  0
  1 15  1  0
  1 16  1  0
  2 17  1  0
  4 18  1  0
  6 19  1  0
  8 20  1  0
  8 21  1  0
 10 22  1  0
 10 23  1  0
 11 24  1  0
 11 25  1  0
 12 26  1  0
 13 27  1  0
 13 28  1  0
 14 29  1  0
 14 30  1  0
M  ISO  8  15   8  16   8  17  14  18  14  19  14  20   8  21   8  22  13
M  ISO  8  23  13  24  13  25  13  26   5  27  13  28  13  29  13  30  13
M  END
>  <minimizedAffinity>  (1) 
-4.15258312

>  <minimizedRMSD>  (1) 
2.7342124

$$$$
