
     RDKit          3D

 32 33  0  0  1  0  0  0  0  0999 V2000
   46.4680   34.2810   42.1040 C   0  0  1  0  0  0  0  0  0  0  0  0
   45.0190   35.6850   43.6650 C   0  0  0  0  0  0  0  0  0  0  0  0
   45.8430   34.5520   43.4110 C   0  0  0  0  0  0  0  0  0  0  0  0
   46.0410   33.6830   44.4820 C   0  0  0  0  0  0  0  0  0  0  0  0
   45.4460   33.9690   45.6680 N   0  0  0  0  0  0  0  0  0  0  0  0
   44.6790   35.0390   45.8780 C   0  0  0  0  0  0  0  0  0  0  0  0
   44.4650   35.9090   44.8550 N   0  0  0  0  0  0  0  0  0  0  0  0
   45.4640   34.3630   41.0020 C   0  0  0  0  0  0  0  0  0  0  0  0
   47.6100   35.2270   41.9230 C   0  0  0  0  0  0  0  0  0  0  0  0
   48.7870   34.7280   41.3270 N   0  0  0  0  0  0  0  0  0  0  0  0
   49.8620   34.7810   42.2750 C   0  0  0  0  0  0  0  0  0  0  0  0
   50.5970   33.5100   42.5020 C   0  0  0  0  0  0  0  0  0  0  0  0
   49.6160   32.4930   42.5440 O   0  0  0  0  0  0  0  0  0  0  0  0
   49.2880   32.3090   41.2020 C   0  0  0  0  0  0  0  0  0  0  0  0
   48.7230   33.5520   40.5530 C   0  0  0  0  0  0  0  0  0  0  0  0
   46.8593   33.2535   42.0716 H   0  0  0  0  0  0  0  0  0  0  0  0
   44.8336   36.4001   42.8500 H   0  0  0  0  0  0  0  0  0  0  0  0
   46.6659   32.7848   44.3689 H   0  0  0  0  0  0  0  0  0  0  0  0
   44.2258   35.2156   46.8646 H   0  0  0  0  0  0  0  0  0  0  0  0
   44.4545   34.4454   41.4311 H   0  0  0  0  0  0  0  0  0  0  0  0
   45.6720   35.2471   40.3815 H   0  0  0  0  0  0  0  0  0  0  0  0
   45.5258   33.4568   40.3815 H   0  0  0  0  0  0  0  0  0  0  0  0
   47.2521   36.0581   41.2976 H   0  0  0  0  0  0  0  0  0  0  0  0
   47.9102   35.4991   42.9457 H   0  0  0  0  0  0  0  0  0  0  0  0
   50.5862   35.5292   41.9203 H   0  0  0  0  0  0  0  0  0  0  0  0
   49.3935   35.0275   43.2392 H   0  0  0  0  0  0  0  0  0  0  0  0
   51.3036   33.3253   41.6795 H   0  0  0  0  0  0  0  0  0  0  0  0
   51.1813   33.5440   43.4334 H   0  0  0  0  0  0  0  0  0  0  0  0
   50.1963   32.0119   40.6573 H   0  0  0  0  0  0  0  0  0  0  0  0
   48.5090   31.5336   41.1584 H   0  0  0  0  0  0  0  0  0  0  0  0
   49.2800   33.7298   39.6212 H   0  0  0  0  0  0  0  0  0  0  0  0
   47.6523   33.3508   40.4009 H   0  0  0  0  0  0  0  0  0  0  0  0
  1  3  1  0
  2  7  2  0
  3  2  1  0
  3  4  2  0
  4  5  1  0
  5  6  2  0
  7  6  1  0
  8  1  1  0
  9  1  1  0
 10  9  1  0
 10 11  1  0
 11 12  1  0
 12 13  1  0
 14 13  1  0
 15 14  1  0
 15 10  1  0
  1 16  1  1
  2 17  1  0
  4 18  1  0
  6 19  1  0
  8 20  1  0
  8 21  1  0
  8 22  1  0
  9 23  1  0
  9 24  1  0
 11 25  1  0
 11 26  1  0
 12 27  1  0
 12 28  1  0
 14 29  1  0
 14 30  1  0
 15 31  1  0
 15 32  1  0
M  ISO  8  16   8  17  14  18  14  19  14  20   8  21   8  22   8  23   8
M  ISO  8  24   8  25  13  26  13  27  13  28  13  29  13  30  13  31  13
M  ISO  1  32  13
M  END
>  <minimizedAffinity>  (1) 
-4.33691549

>  <minimizedRMSD>  (1) 
1.29953337

$$$$
