
     RDKit          3D

 18 18  0  0  0  0  0  0  0  0999 V2000
   45.3100   35.9550   43.1510 C   0  0  0  0  0  0  0  0  0  0  0  0
   46.1660   34.8600   42.9640 C   0  0  0  0  0  0  0  0  0  0  0  0
   46.2580   33.9590   44.0180 C   0  0  0  0  0  0  0  0  0  0  0  0
   45.5340   34.1870   45.1340 N   0  0  0  0  0  0  0  0  0  0  0  0
   44.7160   35.2600   45.2750 C   0  0  0  0  0  0  0  0  0  0  0  0
   44.6040   36.1390   44.2890 N   0  0  0  0  0  0  0  0  0  0  0  0
   46.8680   34.7670   41.7030 C   0  0  0  0  0  0  0  0  0  0  0  0
   48.2850   35.3230   41.9260 C   0  0  0  0  0  0  0  0  0  0  0  0
   48.9390   35.6050   40.6910 N   0  0  0  0  0  0  0  0  0  0  0  0
   45.2092   36.6922   42.3408 H   0  0  0  0  0  0  0  0  0  0  0  0
   46.9093   33.0757   43.9441 H   0  0  0  0  0  0  0  0  0  0  0  0
   44.1467   35.4004   46.2057 H   0  0  0  0  0  0  0  0  0  0  0  0
   46.3469   35.3606   40.9374 H   0  0  0  0  0  0  0  0  0  0  0  0
   46.9091   33.7239   41.3562 H   0  0  0  0  0  0  0  0  0  0  0  0
   48.2161   36.2506   42.5133 H   0  0  0  0  0  0  0  0  0  0  0  0
   48.8727   34.5621   42.4604 H   0  0  0  0  0  0  0  0  0  0  0  0
   49.8690   36.0060   40.8787 H   0  0  0  0  0  0  0  0  0  0  0  0
   49.0433   34.7341   40.1510 H   0  0  0  0  0  0  0  0  0  0  0  0
  1  6  2  0
  2  1  1  0
  2  3  2  0
  3  4  1  0
  4  5  2  0
  6  5  1  0
  7  8  1  0
  7  2  1  0
  9  8  1  0
  1 10  1  0
  3 11  1  0
  5 12  1  0
  7 13  1  0
  7 14  1  0
  8 15  1  0
  8 16  1  0
  9 17  1  0
  9 18  1  0
M  ISO  8  10  14  11  14  12  14  13   8  14   8  15   8  16   8  17   5
M  ISO  1  18   5
M  END
>  <minimizedAffinity>  (1) 
-3.65172338

>  <minimizedRMSD>  (1) 
1.29372263

$$$$
