
     RDKit          3D

 39 41  0  0  1  0  0  0  0  0999 V2000
   47.3030   32.2130   43.2170 C   0  0  0  0  0  0  0  0  0  0  0  0
   47.6790   31.4230   44.4690 C   0  0  2  0  0  0  0  0  0  0  0  0
   47.2030   30.0390   44.6410 C   0  0  0  0  0  0  0  0  0  0  0  0
   46.5490   31.1300   45.3900 C   0  0  1  0  0  0  0  0  0  0  0  0
   46.8310   31.3910   46.8400 C   0  0  0  0  0  0  0  0  0  0  0  0
   45.8490   32.4530   47.3180 C   0  0  0  0  0  0  0  0  0  0  0  0
   45.6900   32.4210   48.8150 C   0  0  0  0  0  0  0  0  0  0  0  0
   45.0760   31.1270   49.2910 C   0  0  0  0  0  0  0  0  0  0  0  0
   45.2990   30.0030   48.2830 C   0  0  0  0  0  0  0  0  0  0  0  0
   46.7040   30.1830   47.7110 C   0  0  0  0  0  0  0  0  0  0  0  0
   47.3690   33.6690   43.4950 C   0  0  0  0  0  0  0  0  0  0  0  0
   45.3550   34.9870   44.0740 C   0  0  0  0  0  0  0  0  0  0  0  0
   46.1630   34.3660   43.1290 C   0  0  0  0  0  0  0  0  0  0  0  0
   45.7740   34.4460   41.8160 C   0  0  0  0  0  0  0  0  0  0  0  0
   44.6340   35.1140   41.4810 N   0  0  0  0  0  0  0  0  0  0  0  0
   43.8680   35.7110   42.4420 C   0  0  0  0  0  0  0  0  0  0  0  0
   44.2250   35.6490   43.7260 N   0  0  0  0  0  0  0  0  0  0  0  0
   46.2802   31.9467   42.9120 H   0  0  0  0  0  0  0  0  0  0  0  0
   48.0095   31.9677   42.4103 H   0  0  0  0  0  0  0  0  0  0  0  0
   48.6745   31.8866   44.5316 H   0  0  0  0  0  0  0  0  0  0  0  0
   46.6666   29.5377   43.8219 H   0  0  0  0  0  0  0  0  0  0  0  0
   47.6770   29.0855   44.9171 H   0  0  0  0  0  0  0  0  0  0  0  0
   45.4921   31.4096   45.5117 H   0  0  0  0  0  0  0  0  0  0  0  0
   47.8787   31.7165   46.9201 H   0  0  0  0  0  0  0  0  0  0  0  0
   46.2203   33.4443   47.0187 H   0  0  0  0  0  0  0  0  0  0  0  0
   44.8692   32.2487   46.8616 H   0  0  0  0  0  0  0  0  0  0  0  0
   46.6803   32.5363   49.2798 H   0  0  0  0  0  0  0  0  0  0  0  0
   45.0172   33.2423   49.1028 H   0  0  0  0  0  0  0  0  0  0  0  0
   45.5346   30.8443   50.2500 H   0  0  0  0  0  0  0  0  0  0  0  0
   43.9928   31.2790   49.4072 H   0  0  0  0  0  0  0  0  0  0  0  0
   45.2176   29.0265   48.7829 H   0  0  0  0  0  0  0  0  0  0  0  0
   44.5440   30.0390   47.4839 H   0  0  0  0  0  0  0  0  0  0  0  0
   46.9562   29.2934   47.1151 H   0  0  0  0  0  0  0  0  0  0  0  0
   47.3898   30.3170   48.5605 H   0  0  0  0  0  0  0  0  0  0  0  0
   47.5444   33.8130   44.5713 H   0  0  0  0  0  0  0  0  0  0  0  0
   48.1867   34.0838   42.8872 H   0  0  0  0  0  0  0  0  0  0  0  0
   45.6410   34.9398   45.1351 H   0  0  0  0  0  0  0  0  0  0  0  0
   46.3826   33.9706   41.0327 H   0  0  0  0  0  0  0  0  0  0  0  0
   42.9509   36.2463   42.1552 H   0  0  0  0  0  0  0  0  0  0  0  0
  1 11  1  0
  1  2  1  0
  2  3  1  0
  2  4  1  0
  3  4  1  0
  4  5  1  0
  5  6  1  0
  5 10  1  0
  6  7  1  0
  7  8  1  0
  9  8  1  0
 10  9  1  0
 13 11  1  0
 13 12  2  0
 14 13  1  0
 15 14  2  0
 15 16  1  0
 16 17  2  0
 17 12  1  0
  1 18  1  0
  1 19  1  0
  2 20  1  1
  3 21  1  0
  3 22  1  0
  4 23  1  6
  5 24  1  0
  6 25  1  0
  6 26  1  0
  7 27  1  0
  7 28  1  0
  8 29  1  0
  8 30  1  0
  9 31  1  0
  9 32  1  0
 10 33  1  0
 10 34  1  0
 11 35  1  0
 11 36  1  0
 12 37  1  0
 14 38  1  0
 16 39  1  0
M  ISO  8  18   8  19   8  20  13  21  13  22  13  23  13  24  13  25  13
M  ISO  8  26  13  27  13  28  13  29  13  30  13  31  13  32  13  33  13
M  ISO  6  34  13  35   8  36   8  37  14  38  14  39  14
M  END
>  <minimizedAffinity>  (1) 
-4.35570383

>  <minimizedRMSD>  (1) 
6.54666424

$$$$
