
     RDKit          3D

 33 35  0  0  1  0  0  0  0  0999 V2000
   46.6900   34.2970   43.4740 C   0  0  2  0  0  0  0  0  0  0  0  0
   47.7680   33.3040   43.6500 C   0  0  0  0  0  0  0  0  0  0  0  0
   46.3520   32.8990   43.8410 C   0  0  1  0  0  0  0  0  0  0  0  0
   45.9680   32.6010   45.2190 N   0  0  0  0  0  0  0  0  0  0  0  0
   45.6850   33.4870   46.1860 C   0  0  0  0  0  0  0  0  0  0  0  0
   45.3360   33.1150   47.4460 C   0  0  0  0  0  0  0  0  0  0  0  0
   45.2580   31.7860   47.7800 C   0  0  0  0  0  0  0  0  0  0  0  0
   44.9320   31.4700   48.9550 O   0  0  0  0  0  0  0  0  0  0  0  0
   45.5450   30.8910   46.7980 N   0  0  0  0  0  0  0  0  0  0  0  0
   45.8900   31.2840   45.5560 C   0  0  0  0  0  0  0  0  0  0  0  0
   46.1220   30.3120   44.7750 O   0  0  0  0  0  0  0  0  0  0  0  0
   46.2830   34.7040   42.0600 C   0  0  0  0  0  0  0  0  0  0  0  0
   46.0740   33.4870   41.2210 C   0  0  0  0  0  0  0  0  0  0  0  0
   45.9980   33.0990   38.7790 C   0  0  0  0  0  0  0  0  0  0  0  0
   46.6280   33.6270   39.8990 C   0  0  0  0  0  0  0  0  0  0  0  0
   47.8120   34.2950   39.7080 C   0  0  0  0  0  0  0  0  0  0  0  0
   48.3280   34.4200   38.4510 N   0  0  0  0  0  0  0  0  0  0  0  0
   47.6770   33.8870   37.3760 C   0  0  0  0  0  0  0  0  0  0  0  0
   46.5140   33.2270   37.5310 N   0  0  0  0  0  0  0  0  0  0  0  0
   46.5144   35.2999   43.8905 H   0  0  0  0  0  0  0  0  0  0  0  0
   48.3300   32.9423   42.7763 H   0  0  0  0  0  0  0  0  0  0  0  0
   48.6810   33.2486   44.2610 H   0  0  0  0  0  0  0  0  0  0  0  0
   45.6688   32.1472   43.4190 H   0  0  0  0  0  0  0  0  0  0  0  0
   45.7376   34.5599   45.9491 H   0  0  0  0  0  0  0  0  0  0  0  0
   45.1150   33.8830   48.2018 H   0  0  0  0  0  0  0  0  0  0  0  0
   45.4974   29.8840   47.0092 H   0  0  0  0  0  0  0  0  0  0  0  0
   45.3486   35.2830   42.1019 H   0  0  0  0  0  0  0  0  0  0  0  0
   47.0810   35.3172   41.6159 H   0  0  0  0  0  0  0  0  0  0  0  0
   46.5547   32.6304   41.7161 H   0  0  0  0  0  0  0  0  0  0  0  0
   44.9896   33.3363   41.1148 H   0  0  0  0  0  0  0  0  0  0  0  0
   45.0486   32.5588   38.9086 H   0  0  0  0  0  0  0  0  0  0  0  0
   48.3442   34.7290   40.5673 H   0  0  0  0  0  0  0  0  0  0  0  0
   48.1083   33.9982   36.3702 H   0  0  0  0  0  0  0  0  0  0  0  0
  1  2  1  0
  1  3  1  0
  2  3  1  0
  3  4  1  0
  4 10  1  0
  4  5  1  0
  5  6  2  0
  6  7  1  0
  7  8  2  0
  9  7  1  0
 10  9  1  0
 11 10  2  0
 12  1  1  0
 13 12  1  0
 14 15  2  0
 15 13  1  0
 16 15  1  0
 17 16  2  0
 18 19  2  0
 18 17  1  0
 19 14  1  0
  1 20  1  1
  2 21  1  0
  2 22  1  0
  3 23  1  6
  5 24  1  0
  6 25  1  0
  9 26  1  0
 12 27  1  0
 12 28  1  0
 13 29  1  0
 13 30  1  0
 14 31  1  0
 16 32  1  0
 18 33  1  0
M  ISO  8  20  13  21  13  22  13  23  13  24  14  25  14  26   9  27   8
M  ISO  6  28   8  29   8  30   8  31  14  32  14  33  14
M  END
>  <minimizedAffinity>  (1) 
-4.47772884

>  <minimizedRMSD>  (1) 
7.56439734

$$$$
