
     RDKit          3D

 24 25  0  0  1  0  0  0  0  0999 V2000
   46.8080   34.5740   41.9330 C   0  0  0  0  0  0  0  0  0  0  0  0
   45.2680   35.9850   43.2600 C   0  0  0  0  0  0  0  0  0  0  0  0
   46.0500   34.8440   43.1340 C   0  0  0  0  0  0  0  0  0  0  0  0
   46.0930   33.9710   44.1900 C   0  0  0  0  0  0  0  0  0  0  0  0
   45.3820   34.2350   45.3200 N   0  0  0  0  0  0  0  0  0  0  0  0
   44.6180   35.3640   45.4200 C   0  0  0  0  0  0  0  0  0  0  0  0
   44.5610   36.2340   44.3960 N   0  0  0  0  0  0  0  0  0  0  0  0
   47.6940   33.3870   42.0700 C   0  0  0  0  0  0  0  0  0  0  0  0
   49.0190   33.6260   41.3500 C   0  0  2  0  0  0  0  0  0  0  0  0
   50.2390   32.9250   41.8010 C   0  0  0  0  0  0  0  0  0  0  0  0
   50.0410   34.3590   42.1270 C   0  0  2  0  0  0  0  0  0  0  0  0
   49.7210   34.7900   43.3970 O   0  0  0  0  0  0  0  0  0  0  0  0
   47.4290   35.4524   41.7035 H   0  0  0  0  0  0  0  0  0  0  0  0
   46.0902   34.3625   41.1267 H   0  0  0  0  0  0  0  0  0  0  0  0
   45.2192   36.7007   42.4261 H   0  0  0  0  0  0  0  0  0  0  0  0
   46.7020   33.0573   44.1241 H   0  0  0  0  0  0  0  0  0  0  0  0
   44.0485   35.5614   46.3401 H   0  0  0  0  0  0  0  0  0  0  0  0
   47.8893   33.2017   43.1365 H   0  0  0  0  0  0  0  0  0  0  0  0
   47.1955   32.5158   41.6201 H   0  0  0  0  0  0  0  0  0  0  0  0
   48.5304   33.7277   40.3697 H   0  0  0  0  0  0  0  0  0  0  0  0
   50.1760   32.1664   42.5950 H   0  0  0  0  0  0  0  0  0  0  0  0
   51.0291   32.3410   41.3063 H   0  0  0  0  0  0  0  0  0  0  0  0
   50.6591   35.2585   41.9894 H   0  0  0  0  0  0  0  0  0  0  0  0
   50.1569   34.2029   44.0644 H   0  0  0  0  0  0  0  0  0  0  0  0
  1  8  1  0
  1  3  1  0
  2  7  2  0
  3  2  1  0
  3  4  2  0
  4  5  1  0
  5  6  2  0
  7  6  1  0
  9 10  1  0
  9  8  1  0
  9 11  1  0
 10 11  1  0
 11 12  1  0
  1 13  1  0
  1 14  1  0
  2 15  1  0
  4 16  1  0
  6 17  1  0
  8 18  1  0
  8 19  1  0
  9 20  1  6
 10 21  1  0
 10 22  1  0
 11 23  1  6
 12 24  1  0
M  ISO  8  13   8  14   8  15  14  16  14  17  14  18   8  19   8  20  13
M  ISO  4  21  13  22  13  23  13  24   3
M  END
>  <minimizedAffinity>  (1) 
-4.12477589

>  <minimizedRMSD>  (1) 
0.553854287

$$$$
