
     RDKit          3D

 25 26  0  0  1  0  0  0  0  0999 V2000
   48.0940   33.0480   42.9480 C   0  0  0  0  0  0  0  0  0  0  0  0
   49.2300   33.1430   41.9310 C   0  0  2  0  0  0  0  0  0  0  0  0
   50.6170   32.9040   42.3790 C   0  0  0  0  0  0  0  0  0  0  0  0
   50.1440   34.2820   42.0830 C   0  0  2  0  0  0  0  0  0  0  0  0
   50.1210   35.2000   43.1810 N   0  0  0  0  0  0  0  0  0  0  0  0
   46.9220   33.8090   42.4530 C   0  0  0  0  0  0  0  0  0  0  0  0
   45.4000   35.5370   43.3520 C   0  0  0  0  0  0  0  0  0  0  0  0
   46.1160   34.3580   43.5130 C   0  0  0  0  0  0  0  0  0  0  0  0
   46.0280   33.7230   44.7240 C   0  0  0  0  0  0  0  0  0  0  0  0
   45.2590   34.2510   45.7200 N   0  0  0  0  0  0  0  0  0  0  0  0
   44.5690   35.4110   45.5240 C   0  0  0  0  0  0  0  0  0  0  0  0
   44.6380   36.0460   44.3540 N   0  0  0  0  0  0  0  0  0  0  0  0
   47.8140   31.9934   43.0874 H   0  0  0  0  0  0  0  0  0  0  0  0
   48.4257   33.4696   43.9083 H   0  0  0  0  0  0  0  0  0  0  0  0
   48.6126   32.7265   41.1214 H   0  0  0  0  0  0  0  0  0  0  0  0
   50.8168   32.6004   43.4172 H   0  0  0  0  0  0  0  0  0  0  0  0
   51.4510   32.2738   42.0367 H   0  0  0  0  0  0  0  0  0  0  0  0
   50.3949   35.1131   41.4075 H   0  0  0  0  0  0  0  0  0  0  0  0
   50.1341   34.6755   44.0674 H   0  0  0  0  0  0  0  0  0  0  0  0
   50.9469   35.8136   43.1329 H   0  0  0  0  0  0  0  0  0  0  0  0
   47.2821   34.6357   41.8229 H   0  0  0  0  0  0  0  0  0  0  0  0
   46.2893   33.1072   41.8898 H   0  0  0  0  0  0  0  0  0  0  0  0
   45.4513   36.0704   42.3913 H   0  0  0  0  0  0  0  0  0  0  0  0
   46.5783   32.7858   44.8936 H   0  0  0  0  0  0  0  0  0  0  0  0
   43.9524   35.8247   46.3356 H   0  0  0  0  0  0  0  0  0  0  0  0
  2  4  1  0
  2  3  1  0
  2  1  1  0
  4  3  1  0
  4  5  1  0
  6  1  1  0
  6  8  1  0
  7  8  2  0
  7 12  1  0
  8  9  1  0
  9 10  2  0
 11 10  1  0
 12 11  2  0
  1 13  1  0
  1 14  1  0
  2 15  1  6
  3 16  1  0
  3 17  1  0
  4 18  1  6
  5 19  1  0
  5 20  1  0
  6 21  1  0
  6 22  1  0
  7 23  1  0
  9 24  1  0
 11 25  1  0
M  ISO  8  13   8  14   8  15  13  16  13  17  13  18  13  19   5  20   5
M  ISO  5  21   8  22   8  23  14  24  14  25  14
M  END
>  <minimizedAffinity>  (1) 
-4.26477242

>  <minimizedRMSD>  (1) 
0.850410044

$$$$
