
     RDKit          3D

 38 39  0  0  1  0  0  0  0  0999 V2000
   45.4300   35.2660   42.2200 C   0  0  2  0  0  0  0  0  0  0  0  0
   44.2820   35.4970   43.1140 C   0  0  0  0  0  0  0  0  0  0  0  0
   44.3230   34.2710   42.3020 C   0  0  1  0  0  0  0  0  0  0  0  0
   46.7690   34.7870   42.8070 C   0  0  0  0  0  0  0  0  0  0  0  0
   47.8720   35.2780   41.9190 C   0  0  0  0  0  0  0  0  0  0  0  0
   48.7390   33.2690   40.8060 C   0  0  0  0  0  0  0  0  0  0  0  0
   48.9040   34.2830   41.7500 C   0  0  0  0  0  0  0  0  0  0  0  0
   50.0600   34.2870   42.4890 C   0  0  0  0  0  0  0  0  0  0  0  0
   50.9910   33.3190   42.2800 N   0  0  0  0  0  0  0  0  0  0  0  0
   50.7970   32.3490   41.3550 C   0  0  0  0  0  0  0  0  0  0  0  0
   49.6870   32.3220   40.6270 N   0  0  0  0  0  0  0  0  0  0  0  0
   51.8040   31.2930   41.1220 C   0  0  0  0  0  0  0  0  0  0  0  0
   43.4000   34.0940   41.1160 C   0  0  0  0  0  0  0  0  0  0  0  0
   42.6130   35.3470   40.8990 C   0  0  0  0  0  0  0  0  0  0  0  0
   42.4160   32.9740   41.3790 C   0  0  0  0  0  0  0  0  0  0  0  0
   44.1180   33.7830   39.8340 C   0  0  0  0  0  0  0  0  0  0  0  0
   45.9144   35.8772   41.4442 H   0  0  0  0  0  0  0  0  0  0  0  0
   44.4159   35.4366   44.2041 H   0  0  0  0  0  0  0  0  0  0  0  0
   43.5564   36.3133   43.2450 H   0  0  0  0  0  0  0  0  0  0  0  0
   44.2417   33.1968   42.5246 H   0  0  0  0  0  0  0  0  0  0  0  0
   46.8980   35.1940   43.8208 H   0  0  0  0  0  0  0  0  0  0  0  0
   46.7876   33.6886   42.8641 H   0  0  0  0  0  0  0  0  0  0  0  0
   47.4520   35.5270   40.9333 H   0  0  0  0  0  0  0  0  0  0  0  0
   48.3233   36.1636   42.3903 H   0  0  0  0  0  0  0  0  0  0  0  0
   47.8230   33.2396   40.1977 H   0  0  0  0  0  0  0  0  0  0  0  0
   50.2320   35.0675   43.2448 H   0  0  0  0  0  0  0  0  0  0  0  0
   52.1667   30.9126   42.0883 H   0  0  0  0  0  0  0  0  0  0  0  0
   51.3475   30.4703   40.5521 H   0  0  0  0  0  0  0  0  0  0  0  0
   52.6474   31.7100   40.5521 H   0  0  0  0  0  0  0  0  0  0  0  0
   42.3400   35.7816   41.8719 H   0  0  0  0  0  0  0  0  0  0  0  0
   43.2206   36.0682   40.3327 H   0  0  0  0  0  0  0  0  0  0  0  0
   41.6995   35.1128   40.3327 H   0  0  0  0  0  0  0  0  0  0  0  0
   42.2966   32.8381   42.4640 H   0  0  0  0  0  0  0  0  0  0  0  0
   41.4435   33.2279   40.9320 H   0  0  0  0  0  0  0  0  0  0  0  0
   42.7929   32.0423   40.9320 H   0  0  0  0  0  0  0  0  0  0  0  0
   45.1056   33.3552   40.0613 H   0  0  0  0  0  0  0  0  0  0  0  0
   43.5302   33.0588   39.2509 H   0  0  0  0  0  0  0  0  0  0  0  0
   44.2441   34.7072   39.2509 H   0  0  0  0  0  0  0  0  0  0  0  0
  1  3  1  0
  1  4  1  0
  1  2  1  0
  3  2  1  0
  5  4  1  0
  6  7  2  0
  7  5  1  0
  7  8  1  0
  9  8  2  0
 10  9  1  0
 11  6  1  0
 11 10  2  0
 12 10  1  0
 13 15  1  0
 13  3  1  0
 14 13  1  0
 16 13  1  0
  1 17  1  6
  2 18  1  0
  2 19  1  0
  3 20  1  1
  4 21  1  0
  4 22  1  0
  5 23  1  0
  5 24  1  0
  6 25  1  0
  8 26  1  0
 12 27  1  0
 12 28  1  0
 12 29  1  0
 14 30  1  0
 14 31  1  0
 14 32  1  0
 15 33  1  0
 15 34  1  0
 15 35  1  0
 16 36  1  0
 16 37  1  0
 16 38  1  0
M  ISO  8  17  13  18  13  19  13  20  13  21   8  22   8  23   8  24   8
M  ISO  8  25  14  26  14  27   8  28   8  29   8  30   8  31   8  32   8
M  ISO  6  33   8  34   8  35   8  36   8  37   8  38   8
M  END
>  <minimizedAffinity>  (1) 
-4.22119474

>  <minimizedRMSD>  (1) 
1.37167716

$$$$
