
     RDKit          3D

 37 38  0  0  1  0  0  0  0  0999 V2000
   41.9320   33.9470   41.0220 C   0  0  2  0  0  0  0  0  0  0  0  0
   40.7900   33.0980   41.4040 C   0  0  0  0  0  0  0  0  0  0  0  0
   40.9010   33.5670   40.0140 C   0  0  1  0  0  0  0  0  0  0  0  0
   43.3160   33.3100   40.7950 C   0  0  0  0  0  0  0  0  0  0  0  0
   44.0110   33.2140   42.1200 C   0  0  0  0  0  0  0  0  0  0  0  0
   46.0660   33.9660   43.2430 C   0  0  0  0  0  0  0  0  0  0  0  0
   45.3520   33.7500   42.0580 C   0  0  0  0  0  0  0  0  0  0  0  0
   45.9620   34.0660   40.8700 C   0  0  0  0  0  0  0  0  0  0  0  0
   47.2200   34.5710   40.8620 N   0  0  0  0  0  0  0  0  0  0  0  0
   47.8930   34.7700   42.0340 C   0  0  0  0  0  0  0  0  0  0  0  0
   47.3180   34.4700   43.1920 N   0  0  0  0  0  0  0  0  0  0  0  0
   49.2280   35.3090   41.9760 C   0  0  0  0  0  0  0  0  0  0  0  0
   49.4070   36.5000   41.5590 O   0  0  0  0  0  0  0  0  0  0  0  0
   39.9690   34.6310   39.4740 C   0  0  0  0  0  0  0  0  0  0  0  0
   40.1420   35.8950   40.2560 C   0  0  0  0  0  0  0  0  0  0  0  0
   38.5310   34.1900   39.6340 C   0  0  0  0  0  0  0  0  0  0  0  0
   40.2040   34.9650   38.0280 C   0  0  0  0  0  0  0  0  0  0  0  0
   42.3542   34.8721   41.4413 H   0  0  0  0  0  0  0  0  0  0  0  0
   40.9517   32.0354   41.6380 H   0  0  0  0  0  0  0  0  0  0  0  0
   40.0108   33.1534   42.1784 H   0  0  0  0  0  0  0  0  0  0  0  0
   40.9007   33.0709   39.0322 H   0  0  0  0  0  0  0  0  0  0  0  0
   43.1971   32.3053   40.3633 H   0  0  0  0  0  0  0  0  0  0  0  0
   43.9072   33.9239   40.0996 H   0  0  0  0  0  0  0  0  0  0  0  0
   43.4348   33.7796   42.8671 H   0  0  0  0  0  0  0  0  0  0  0  0
   44.0778   32.1516   42.3971 H   0  0  0  0  0  0  0  0  0  0  0  0
   45.6080   33.7256   44.2138 H   0  0  0  0  0  0  0  0  0  0  0  0
   45.4283   33.9090   39.9210 H   0  0  0  0  0  0  0  0  0  0  0  0
   50.0866   34.6969   42.2894 H   0  0  0  0  0  0  0  0  0  0  0  0
   40.1109   35.6677   41.3318 H   0  0  0  0  0  0  0  0  0  0  0  0
   41.1110   36.3514   40.0055 H   0  0  0  0  0  0  0  0  0  0  0  0
   39.3313   36.5950   40.0055 H   0  0  0  0  0  0  0  0  0  0  0  0
   38.2873   34.1153   40.7041 H   0  0  0  0  0  0  0  0  0  0  0  0
   37.8666   34.9257   39.1571 H   0  0  0  0  0  0  0  0  0  0  0  0
   38.3933   33.2083   39.1571 H   0  0  0  0  0  0  0  0  0  0  0  0
   40.8357   35.8628   37.9570 H   0  0  0  0  0  0  0  0  0  0  0  0
   40.7087   34.1216   37.5342 H   0  0  0  0  0  0  0  0  0  0  0  0
   39.2396   35.1552   37.5342 H   0  0  0  0  0  0  0  0  0  0  0  0
  1  2  1  0
  3  1  1  0
  3  2  1  0
  4  1  1  0
  4  5  1  0
  7  5  1  0
  7  6  2  0
  8  7  1  0
  9  8  2  0
  9 10  1  0
 10 11  2  0
 11  6  1  0
 12 10  1  0
 13 12  2  0
 14 16  1  0
 14  3  1  0
 14 15  1  0
 17 14  1  0
  1 18  1  1
  2 19  1  0
  2 20  1  0
  3 21  1  6
  4 22  1  0
  4 23  1  0
  5 24  1  0
  5 25  1  0
  6 26  1  0
  8 27  1  0
 12 28  1  0
 15 29  1  0
 15 30  1  0
 15 31  1  0
 16 32  1  0
 16 33  1  0
 16 34  1  0
 17 35  1  0
 17 36  1  0
 17 37  1  0
M  ISO  8  18  13  19  13  20  13  21  13  22   8  23   8  24   8  25   8
M  ISO  8  26  14  27  14  28   6  29   8  30   8  31   8  32   8  33   8
M  ISO  4  34   8  35   8  36   8  37   8
M  END
>  <minimizedAffinity>  (1) 
-4.61249161

>  <minimizedRMSD>  (1) 
3.44361472

$$$$
