
     RDKit          3D

 46 50  0  0  1  0  0  0  0  0999 V2000
   45.9650   30.7460   47.3990 C   0  0  2  0  0  0  0  0  0  0  0  0
   44.7970   34.6530   46.1280 C   0  0  0  0  0  0  0  0  0  0  0  0
   44.6610   35.3240   44.9210 C   0  0  0  0  0  0  0  0  0  0  0  0
   45.2610   34.7650   43.7860 C   0  0  0  0  0  0  0  0  0  0  0  0
   45.9410   33.6050   43.9180 N   0  0  0  0  0  0  0  0  0  0  0  0
   46.0680   32.9560   45.1160 C   0  0  0  0  0  0  0  0  0  0  0  0
   45.4890   33.4970   46.1970 N   0  0  0  0  0  0  0  0  0  0  0  0
   46.7790   31.7510   45.2790 N   0  0  0  0  0  0  0  0  0  0  0  0
   47.6710   31.4600   44.2940 C   0  0  0  0  0  0  0  0  0  0  0  0
   48.2530   30.2370   44.6870 C   0  0  0  0  0  0  0  0  0  0  0  0
   47.6960   29.8500   45.8720 N   0  0  0  0  0  0  0  0  0  0  0  0
   46.8000   30.7900   46.2100 C   0  0  0  0  0  0  0  0  0  0  0  0
   46.7610   31.4790   48.5150 C   0  0  0  0  0  0  0  0  0  0  0  0
   45.7440   29.3420   47.8650 C   0  0  0  0  0  0  0  0  0  0  0  0
   44.7880   28.6320   47.0900 N   0  0  0  0  0  0  0  0  0  0  0  0
   44.1610   29.0950   46.0090 N   0  0  0  0  0  0  0  0  0  0  0  0
   43.3310   28.1190   45.5610 C   0  0  0  0  0  0  0  0  0  0  0  0
   43.4330   27.0090   46.3740 C   0  0  0  0  0  0  0  0  0  0  0  0
   44.3740   27.3540   47.3520 C   0  0  0  0  0  0  0  0  0  0  0  0
   44.7700   26.4700   48.3940 N   0  0  0  0  0  0  0  0  0  0  0  0
   44.0860   26.4210   49.5620 C   0  0  0  0  0  0  0  0  0  0  0  0
   44.6960   25.4910   50.3550 N   0  0  0  0  0  0  0  0  0  0  0  0
   45.7240   24.9960   49.6680 C   0  0  0  0  0  0  0  0  0  0  0  0
   46.7140   24.0590   49.8730 C   0  0  0  0  0  0  0  0  0  0  0  0
   47.6640   23.7420   48.9710 N   0  0  0  0  0  0  0  0  0  0  0  0
   47.6880   24.3600   47.7730 C   0  0  0  0  0  0  0  0  0  0  0  0
   46.7390   25.2750   47.5440 N   0  0  0  0  0  0  0  0  0  0  0  0
   45.8030   25.5880   48.4280 C   0  0  0  0  0  0  0  0  0  0  0  0
   46.7710   23.3590   51.1050 N   0  0  0  0  0  0  0  0  0  0  0  0
   44.9879   31.2007   47.1789 H   0  0  0  0  0  0  0  0  0  0  0  0
   44.3363   35.0675   47.0369 H   0  0  0  0  0  0  0  0  0  0  0  0
   44.0985   36.2672   44.8577 H   0  0  0  0  0  0  0  0  0  0  0  0
   45.1804   35.2601   42.8070 H   0  0  0  0  0  0  0  0  0  0  0  0
   47.8899   32.0484   43.3908 H   0  0  0  0  0  0  0  0  0  0  0  0
   49.0267   29.6867   44.1315 H   0  0  0  0  0  0  0  0  0  0  0  0
   46.4010   31.1475   49.5002 H   0  0  0  0  0  0  0  0  0  0  0  0
   47.8310   31.2434   48.4173 H   0  0  0  0  0  0  0  0  0  0  0  0
   46.6142   32.5648   48.4173 H   0  0  0  0  0  0  0  0  0  0  0  0
   46.7019   28.8036   47.8151 H   0  0  0  0  0  0  0  0  0  0  0  0
   45.3510   29.3994   48.8908 H   0  0  0  0  0  0  0  0  0  0  0  0
   42.6753   28.2007   44.6816 H   0  0  0  0  0  0  0  0  0  0  0  0
   42.8911   26.0568   46.2751 H   0  0  0  0  0  0  0  0  0  0  0  0
   43.2015   27.0202   49.8239 H   0  0  0  0  0  0  0  0  0  0  0  0
   48.4526   24.1229   47.0186 H   0  0  0  0  0  0  0  0  0  0  0  0
   47.5080   22.6575   51.2651 H   0  0  0  0  0  0  0  0  0  0  0  0
   46.0754   23.5521   51.8397 H   0  0  0  0  0  0  0  0  0  0  0  0
  1 14  1  0
  1 13  1  0
  2  7  2  0
  3  2  1  0
  4  5  1  0
  4  3  2  0
  5  6  2  0
  6  8  1  0
  6  7  1  0
  8 12  1  0
  9 10  2  0
  9  8  1  0
 10 11  1  0
 11 12  2  0
 12  1  1  0
 15 19  1  0
 15 14  1  0
 16 15  1  0
 17 16  2  0
 17 18  1  0
 18 19  2  0
 19 20  1  0
 20 28  1  0
 20 21  1  0
 21 22  2  0
 23 24  2  0
 23 22  1  0
 24 29  1  0
 25 24  1  0
 26 25  2  0
 27 26  1  0
 27 28  2  0
 28 23  1  0
  1 30  1  6
  2 31  1  0
  3 32  1  0
  4 33  1  0
  9 34  1  0
 10 35  1  0
 13 36  1  0
 13 37  1  0
 13 38  1  0
 14 39  1  0
 14 40  1  0
 17 41  1  0
 18 42  1  0
 21 43  1  0
 26 44  1  0
 29 45  1  0
 29 46  1  0
M  ISO  8  30   8  31  14  32  14  33  14  34  14  35  14  36   8  37   8
M  ISO  7  38   8  39   8  40   8  41  14  42  14  43  14  44  14
M  END
>  <minimizedAffinity>  (1) 
-5.62851191

>  <minimizedRMSD>  (1) 
2.08988881

$$$$
