
     RDKit          3D

 54 56  0  0  1  0  0  0  0  0999 V2000
   41.8490   34.5770   40.4900 C   0  0  0  0  0  0  0  0  0  0  0  0
   40.9630   33.4720   41.0890 C   0  0  2  0  0  0  0  0  0  0  0  0
   41.5880   32.2400   41.6270 C   0  0  0  0  0  0  0  0  0  0  0  0
   40.9100   32.2010   40.3100 C   0  0  1  0  0  0  0  0  0  0  0  0
   39.5960   31.4960   40.1410 C   0  0  0  0  0  0  0  0  0  0  0  0
   38.9850   31.2220   41.4750 C   0  0  0  0  0  0  0  0  0  0  0  0
   39.7870   30.1840   39.4330 C   0  0  0  0  0  0  0  0  0  0  0  0
   38.5710   32.2910   39.3760 C   0  0  0  0  0  0  0  0  0  0  0  0
   38.9280   32.7190   38.0130 C   0  0  0  0  0  0  0  0  0  0  0  0
   37.8320   33.4550   37.2280 C   0  0  0  0  0  0  0  0  0  0  0  0
   38.9780   34.2520   37.7270 C   0  0  0  0  0  0  0  0  0  0  0  0
   42.5410   35.2780   41.6020 C   0  0  0  0  0  0  0  0  0  0  0  0
   44.7660   35.6080   42.6230 C   0  0  0  0  0  0  0  0  0  0  0  0
   43.9630   35.0710   41.6140 C   0  0  0  0  0  0  0  0  0  0  0  0
   44.5590   34.3400   40.6380 C   0  0  0  0  0  0  0  0  0  0  0  0
   45.9130   34.1300   40.6370 N   0  0  0  0  0  0  0  0  0  0  0  0
   46.6710   34.6640   41.6290 C   0  0  0  0  0  0  0  0  0  0  0  0
   46.0980   35.3850   42.5950 N   0  0  0  0  0  0  0  0  0  0  0  0
   48.1380   34.4780   41.6920 C   0  0  0  0  0  0  0  0  0  0  0  0
   48.8870   35.7780   41.4930 C   0  0  0  0  0  0  0  0  0  0  0  0
   48.5870   33.8700   43.0030 C   0  0  0  0  0  0  0  0  0  0  0  0
   48.5030   33.5370   40.5390 C   0  0  0  0  0  0  0  0  0  0  0  0
   42.5921   34.1309   39.8126 H   0  0  0  0  0  0  0  0  0  0  0  0
   41.2327   35.2882   39.9205 H   0  0  0  0  0  0  0  0  0  0  0  0
   40.2424   34.1943   41.5000 H   0  0  0  0  0  0  0  0  0  0  0  0
   42.6837   32.1598   41.6828 H   0  0  0  0  0  0  0  0  0  0  0  0
   41.4969   31.6696   42.5631 H   0  0  0  0  0  0  0  0  0  0  0  0
   41.2076   31.8831   39.2999 H   0  0  0  0  0  0  0  0  0  0  0  0
   39.6806   31.5340   42.2680 H   0  0  0  0  0  0  0  0  0  0  0  0
   38.0445   31.7846   41.5701 H   0  0  0  0  0  0  0  0  0  0  0  0
   38.7796   30.1455   41.5701 H   0  0  0  0  0  0  0  0  0  0  0  0
   39.9040   29.3805   40.1751 H   0  0  0  0  0  0  0  0  0  0  0  0
   38.9096   29.9763   38.8029 H   0  0  0  0  0  0  0  0  0  0  0  0
   40.6872   30.2350   38.8029 H   0  0  0  0  0  0  0  0  0  0  0  0
   37.6630   31.6746   39.3016 H   0  0  0  0  0  0  0  0  0  0  0  0
   38.4566   33.2257   39.9446 H   0  0  0  0  0  0  0  0  0  0  0  0
   39.6013   31.8656   37.8445 H   0  0  0  0  0  0  0  0  0  0  0  0
   36.8379   33.5906   37.6791 H   0  0  0  0  0  0  0  0  0  0  0  0
   37.3734   33.3120   36.2384 H   0  0  0  0  0  0  0  0  0  0  0  0
   39.7167   34.6538   37.0179 H   0  0  0  0  0  0  0  0  0  0  0  0
   39.0822   35.1529   38.3495 H   0  0  0  0  0  0  0  0  0  0  0  0
   42.3471   36.3567   41.5077 H   0  0  0  0  0  0  0  0  0  0  0  0
   42.1460   34.8633   42.5412 H   0  0  0  0  0  0  0  0  0  0  0  0
   44.3188   36.2056   43.4310 H   0  0  0  0  0  0  0  0  0  0  0  0
   43.9445   33.9088   39.8340 H   0  0  0  0  0  0  0  0  0  0  0  0
   49.1365   36.2111   42.4729 H   0  0  0  0  0  0  0  0  0  0  0  0
   49.8126   35.5855   40.9307 H   0  0  0  0  0  0  0  0  0  0  0  0
   48.2562   36.4822   40.9307 H   0  0  0  0  0  0  0  0  0  0  0  0
   48.1621   34.4454   43.8386 H   0  0  0  0  0  0  0  0  0  0  0  0
   48.2402   32.8278   43.0617 H   0  0  0  0  0  0  0  0  0  0  0  0
   49.6852   33.8949   43.0617 H   0  0  0  0  0  0  0  0  0  0  0  0
   48.8725   32.5843   40.9462 H   0  0  0  0  0  0  0  0  0  0  0  0
   47.6119   33.3508   39.9216 H   0  0  0  0  0  0  0  0  0  0  0  0
   49.2866   34.0004   39.9216 H   0  0  0  0  0  0  0  0  0  0  0  0
  1  2  1  0
  1 12  1  0
  2  3  1  0
  4  2  1  0
  4  3  1  0
  5  4  1  0
  5  6  1  0
  7  5  1  0
  8  5  1  0
  9  8  1  0
 10 11  1  0
 10  9  1  0
 11  9  1  0
 12 14  1  0
 14 13  2  0
 15 14  1  0
 16 15  2  0
 16 17  1  0
 17 19  1  0
 17 18  2  0
 18 13  1  0
 19 21  1  0
 20 19  1  0
 22 19  1  0
  1 23  1  0
  1 24  1  0
  2 25  1  1
  3 26  1  0
  3 27  1  0
  4 28  1  6
  6 29  1  0
  6 30  1  0
  6 31  1  0
  7 32  1  0
  7 33  1  0
  7 34  1  0
  8 35  1  0
  8 36  1  0
  9 37  1  0
 10 38  1  0
 10 39  1  0
 11 40  1  0
 11 41  1  0
 12 42  1  0
 12 43  1  0
 13 44  1  0
 15 45  1  0
 20 46  1  0
 20 47  1  0
 20 48  1  0
 21 49  1  0
 21 50  1  0
 21 51  1  0
 22 52  1  0
 22 53  1  0
 22 54  1  0
M  ISO  8  23   8  24   8  25  13  26  13  27  13  28  13  29   8  30   8
M  ISO  8  31   8  32   8  33   8  34   8  35   8  36   8  37  13  38  13
M  ISO  8  39  13  40  13  41  13  42   8  43   8  44  14  45  14  46   8
M  ISO  8  47   8  48   8  49   8  50   8  51   8  52   8  53   8  54   8
M  END
>  <minimizedAffinity>  (1) 
-5.43037844

>  <minimizedRMSD>  (1) 
1.66393137

$$$$
