
     RDKit          3D

 48 49  0  0  1  0  0  0  0  0999 V2000
   41.9870   35.3110   40.4580 C   0  0  0  0  0  0  0  0  0  0  0  0
   40.8500   34.2710   40.5220 C   0  0  2  0  0  0  0  0  0  0  0  0
   41.1600   32.8300   40.4610 C   0  0  0  0  0  0  0  0  0  0  0  0
   40.5970   33.5130   39.2730 C   0  0  1  0  0  0  0  0  0  0  0  0
   39.1680   33.2500   38.8490 C   0  0  0  0  0  0  0  0  0  0  0  0
   38.2270   33.6480   39.9440 C   0  0  0  0  0  0  0  0  0  0  0  0
   38.9700   31.7810   38.5610 C   0  0  0  0  0  0  0  0  0  0  0  0
   38.7790   34.0100   37.6130 C   0  0  0  0  0  0  0  0  0  0  0  0
   37.6940   33.4090   37.0070 O   0  0  0  0  0  0  0  0  0  0  0  0
   42.6320   35.3800   41.7960 C   0  0  0  0  0  0  0  0  0  0  0  0
   44.8920   35.6910   42.7360 C   0  0  0  0  0  0  0  0  0  0  0  0
   44.0510   35.1630   41.7630 C   0  0  0  0  0  0  0  0  0  0  0  0
   44.6060   34.4280   40.7680 C   0  0  0  0  0  0  0  0  0  0  0  0
   45.9580   34.2070   40.7180 N   0  0  0  0  0  0  0  0  0  0  0  0
   46.7550   34.7360   41.6860 C   0  0  0  0  0  0  0  0  0  0  0  0
   46.2220   35.4520   42.6550 N   0  0  0  0  0  0  0  0  0  0  0  0
   48.2250   34.5220   41.6820 C   0  0  0  0  0  0  0  0  0  0  0  0
   48.9730   35.8270   41.5090 C   0  0  0  0  0  0  0  0  0  0  0  0
   48.7090   33.8890   42.9680 C   0  0  0  0  0  0  0  0  0  0  0  0
   48.5450   33.6410   40.4830 C   0  0  0  0  0  0  0  0  0  0  0  0
   42.7273   35.0069   39.7034 H   0  0  0  0  0  0  0  0  0  0  0  0
   41.5845   36.2962   40.1799 H   0  0  0  0  0  0  0  0  0  0  0  0
   40.2634   34.8855   41.2207 H   0  0  0  0  0  0  0  0  0  0  0  0
   42.2071   32.4930   40.4562 H   0  0  0  0  0  0  0  0  0  0  0  0
   40.8784   31.9491   41.0566 H   0  0  0  0  0  0  0  0  0  0  0  0
   40.9007   33.6084   38.2201 H   0  0  0  0  0  0  0  0  0  0  0  0
   38.6950   33.4501   40.9196 H   0  0  0  0  0  0  0  0  0  0  0  0
   37.9973   34.7203   39.8583 H   0  0  0  0  0  0  0  0  0  0  0  0
   37.2976   33.0659   39.8583 H   0  0  0  0  0  0  0  0  0  0  0  0
   38.8955   31.2283   39.5091 H   0  0  0  0  0  0  0  0  0  0  0  0
   38.0450   31.6423   37.9820 H   0  0  0  0  0  0  0  0  0  0  0  0
   39.8252   31.4023   37.9820 H   0  0  0  0  0  0  0  0  0  0  0  0
   38.5161   35.0420   37.8884 H   0  0  0  0  0  0  0  0  0  0  0  0
   39.6263   34.0134   36.9115 H   0  0  0  0  0  0  0  0  0  0  0  0
   37.0762   33.0668   37.7008 H   0  0  0  0  0  0  0  0  0  0  0  0
   42.4426   36.3762   42.2222 H   0  0  0  0  0  0  0  0  0  0  0  0
   42.1970   34.5741   42.4053 H   0  0  0  0  0  0  0  0  0  0  0  0
   44.4826   36.2942   43.5597 H   0  0  0  0  0  0  0  0  0  0  0  0
   43.9598   34.0013   39.9868 H   0  0  0  0  0  0  0  0  0  0  0  0
   49.2131   36.2458   42.4974 H   0  0  0  0  0  0  0  0  0  0  0  0
   49.9039   35.6450   40.9520 H   0  0  0  0  0  0  0  0  0  0  0  0
   48.3455   36.5383   40.9520 H   0  0  0  0  0  0  0  0  0  0  0  0
   48.2908   34.4359   43.8259 H   0  0  0  0  0  0  0  0  0  0  0  0
   48.3806   32.8399   43.0066 H   0  0  0  0  0  0  0  0  0  0  0  0
   49.8075   33.9310   43.0066 H   0  0  0  0  0  0  0  0  0  0  0  0
   48.9010   32.6608   40.8329 H   0  0  0  0  0  0  0  0  0  0  0  0
   47.6384   33.5061   39.8748 H   0  0  0  0  0  0  0  0  0  0  0  0
   49.3268   34.1194   39.8748 H   0  0  0  0  0  0  0  0  0  0  0  0
  1  2  1  0
  1 10  1  0
  3  2  1  0
  4  3  1  0
  4  2  1  0
  5  4  1  0
  5  6  1  0
  7  5  1  0
  8  5  1  0
  9  8  1  0
 12 10  1  0
 12 11  2  0
 13 12  1  0
 14 13  2  0
 14 15  1  0
 15 16  2  0
 16 11  1  0
 17 15  1  0
 17 19  1  0
 18 17  1  0
 20 17  1  0
  1 21  1  0
  1 22  1  0
  2 23  1  1
  3 24  1  0
  3 25  1  0
  4 26  1  6
  6 27  1  0
  6 28  1  0
  6 29  1  0
  7 30  1  0
  7 31  1  0
  7 32  1  0
  8 33  1  0
  8 34  1  0
  9 35  1  0
 10 36  1  0
 10 37  1  0
 11 38  1  0
 13 39  1  0
 18 40  1  0
 18 41  1  0
 18 42  1  0
 19 43  1  0
 19 44  1  0
 19 45  1  0
 20 46  1  0
 20 47  1  0
 20 48  1  0
M  ISO  8  21   8  22   8  23  13  24  13  25  13  26  13  27   8  28   8
M  ISO  8  29   8  30   8  31   8  32   8  33   8  34   8  35   3  36   8
M  ISO  8  37   8  38  14  39  14  40   8  41   8  42   8  43   8  44   8
M  ISO  4  45   8  46   8  47   8  48   8
M  END
>  <minimizedAffinity>  (1) 
-5.30571175

>  <minimizedRMSD>  (1) 
0.293032259

$$$$
