
     RDKit          3D

 17 17  0  0  0  0  0  0  0  0999 V2000
   44.6620   35.7720   44.5190 C   0  0  0  0  0  0  0  0  0  0  0  0
   45.5560   35.1240   43.6370 C   0  0  0  0  0  0  0  0  0  0  0  0
   46.2240   33.9860   44.1050 C   0  0  0  0  0  0  0  0  0  0  0  0
   45.9740   33.5650   45.3900 N   0  0  0  0  0  0  0  0  0  0  0  0
   45.1090   34.2200   46.1940 C   0  0  0  0  0  0  0  0  0  0  0  0
   44.4610   35.3100   45.7640 N   0  0  0  0  0  0  0  0  0  0  0  0
   44.8660   33.7610   47.5300 N   0  0  0  0  0  0  0  0  0  0  0  0
   45.2560   32.4660   47.9560 C   0  0  0  0  0  0  0  0  0  0  0  0
   45.2720   31.5270   47.0800 N   0  0  0  0  0  0  0  0  0  0  0  0
   45.6140   32.2380   49.3220 N   0  0  0  0  0  0  0  0  0  0  0  0
   45.5370   30.5460   47.2640 H   0  0  0  0  0  0  0  0  0  0  0  0
   44.1223   36.6688   44.1806 H   0  0  0  0  0  0  0  0  0  0  0  0
   45.7215   35.5010   42.6170 H   0  0  0  0  0  0  0  0  0  0  0  0
   46.9310   33.4424   43.4610 H   0  0  0  0  0  0  0  0  0  0  0  0
   44.3958   34.3883   48.1981 H   0  0  0  0  0  0  0  0  0  0  0  0
   45.8971   31.2968   49.6300 H   0  0  0  0  0  0  0  0  0  0  0  0
   45.5887   33.0150   49.9976 H   0  0  0  0  0  0  0  0  0  0  0  0
  1  6  2  0
  2  3  2  0
  2  1  1  0
  3  4  1  0
  4  5  2  0
  5  7  1  0
  6  5  1  0
  7  8  1  0
  8 10  1  0
  9 11  1  0
  9  8  2  0
  1 12  1  0
  2 13  1  0
  3 14  1  0
  7 15  1  0
 10 16  1  0
 10 17  1  0
M  ISO  3  12  14  13  14  14  14
M  END
>  <minimizedAffinity>  (1) 
-4.93113089

>  <minimizedRMSD>  (1) 
1.12716329

$$$$
