
     RDKit          3D

 33 35  0  0  0  0  0  0  0  0999 V2000
   44.4770   35.9200   44.5380 C   0  0  0  0  0  0  0  0  0  0  0  0
   45.4840   35.4280   43.6940 C   0  0  0  0  0  0  0  0  0  0  0  0
   46.2730   34.3660   44.1220 C   0  0  0  0  0  0  0  0  0  0  0  0
   45.9780   33.8890   45.3740 N   0  0  0  0  0  0  0  0  0  0  0  0
   45.0240   34.3630   46.1640 C   0  0  0  0  0  0  0  0  0  0  0  0
   44.2750   35.3760   45.7490 N   0  0  0  0  0  0  0  0  0  0  0  0
   44.8110   33.8050   47.4610 N   0  0  0  0  0  0  0  0  0  0  0  0
   45.3600   32.5590   47.8590 C   0  0  0  0  0  0  0  0  0  0  0  0
   45.5290   31.6850   46.9490 N   0  0  0  0  0  0  0  0  0  0  0  0
   45.7040   32.3050   49.2260 N   0  0  0  0  0  0  0  0  0  0  0  0
   45.8920   30.7300   47.0970 H   0  0  0  0  0  0  0  0  0  0  0  0
   47.2920   33.9300   43.2080 C   0  0  0  0  0  0  0  0  0  0  0  0
   47.7720   34.7540   42.2130 C   0  0  0  0  0  0  0  0  0  0  0  0
   48.7340   34.4170   41.3230 C   0  0  0  0  0  0  0  0  0  0  0  0
   49.3250   33.1730   41.3510 C   0  0  0  0  0  0  0  0  0  0  0  0
   48.9010   32.3040   42.3090 C   0  0  0  0  0  0  0  0  0  0  0  0
   49.4840   31.0560   42.3560 C   0  0  0  0  0  0  0  0  0  0  0  0
   49.1000   30.1360   43.3090 C   0  0  0  0  0  0  0  0  0  0  0  0
   48.1090   30.4950   44.2220 C   0  0  0  0  0  0  0  0  0  0  0  0
   47.5720   31.7560   44.1140 C   0  0  0  0  0  0  0  0  0  0  0  0
   47.9200   32.7070   43.1840 C   0  0  0  0  0  0  0  0  0  0  0  0
   43.8476   36.7584   44.2049 H   0  0  0  0  0  0  0  0  0  0  0  0
   45.6477   35.8779   42.7036 H   0  0  0  0  0  0  0  0  0  0  0  0
   44.2350   34.3288   48.1354 H   0  0  0  0  0  0  0  0  0  0  0  0
   46.1016   31.3941   49.4963 H   0  0  0  0  0  0  0  0  0  0  0  0
   45.5538   33.0332   49.9387 H   0  0  0  0  0  0  0  0  0  0  0  0
   47.3401   35.7628   42.1365 H   0  0  0  0  0  0  0  0  0  0  0  0
   49.0493   35.1486   40.5645 H   0  0  0  0  0  0  0  0  0  0  0  0
   50.1068   32.8936   40.6294 H   0  0  0  0  0  0  0  0  0  0  0  0
   50.2633   30.7911   41.6262 H   0  0  0  0  0  0  0  0  0  0  0  0
   49.5656   29.1402   43.3481 H   0  0  0  0  0  0  0  0  0  0  0  0
   47.7695   29.7952   44.9998 H   0  0  0  0  0  0  0  0  0  0  0  0
   46.7913   32.0295   44.8391 H   0  0  0  0  0  0  0  0  0  0  0  0
  1  6  2  0
  2  3  2  0
  2  1  1  0
  3  4  1  0
  4  5  2  0
  5  7  1  0
  6  5  1  0
  7  8  1  0
  8 10  1  0
  9 11  1  0
  9  8  2  0
 12  3  1  0
 13 12  2  0
 14 15  2  0
 14 13  1  0
 15 16  1  0
 16 17  1  0
 16 21  2  0
 17 18  2  0
 18 19  1  0
 20 19  2  0
 21 12  1  0
 21 20  1  0
  1 22  1  0
  2 23  1  0
  7 24  1  0
 10 25  1  0
 10 26  1  0
 13 27  1  0
 14 28  1  0
 15 29  1  0
 17 30  1  0
 18 31  1  0
 19 32  1  0
 20 33  1  0
M  ISO  8  22  14  23  14  27  14  28  14  29  14  30  14  31  14  32  14
M  ISO  1  33  14
M  END
>  <minimizedAffinity>  (1) 
-6.78464079

>  <minimizedRMSD>  (1) 
0.919787586

$$$$
