
     RDKit          3D

 27 28  0  0  0  0  0  0  0  0999 V2000
   44.5820   35.7980   44.4990 C   0  0  0  0  0  0  0  0  0  0  0  0
   45.5410   35.2350   43.6390 C   0  0  0  0  0  0  0  0  0  0  0  0
   46.2790   34.1510   44.1140 C   0  0  0  0  0  0  0  0  0  0  0  0
   46.0360   33.6850   45.3930 N   0  0  0  0  0  0  0  0  0  0  0  0
   45.1060   34.2600   46.1720 C   0  0  0  0  0  0  0  0  0  0  0  0
   44.4020   35.2950   45.7220 N   0  0  0  0  0  0  0  0  0  0  0  0
   44.8700   33.7630   47.4920 N   0  0  0  0  0  0  0  0  0  0  0  0
   45.3350   32.4870   47.9110 C   0  0  0  0  0  0  0  0  0  0  0  0
   45.4260   31.5650   47.0110 N   0  0  0  0  0  0  0  0  0  0  0  0
   45.6740   32.2730   49.2740 N   0  0  0  0  0  0  0  0  0  0  0  0
   45.7580   30.6070   47.1990 H   0  0  0  0  0  0  0  0  0  0  0  0
   47.2680   33.5290   43.3030 N   0  0  0  0  0  0  0  0  0  0  0  0
   47.4760   32.2260   43.5640 C   0  0  0  0  0  0  0  0  0  0  0  0
   48.4290   31.5510   42.8110 C   0  0  0  0  0  0  0  0  0  0  0  0
   49.1180   32.2490   41.8290 C   0  0  0  0  0  0  0  0  0  0  0  0
   49.9740   31.6630   41.1450 O   0  0  0  0  0  0  0  0  0  0  0  0
   48.8960   33.5530   41.5810 N   0  0  0  0  0  0  0  0  0  0  0  0
   47.9590   34.1570   42.3450 C   0  0  0  0  0  0  0  0  0  0  0  0
   47.7360   35.3750   42.1300 O   0  0  0  0  0  0  0  0  0  0  0  0
   43.9790   36.6545   44.1633 H   0  0  0  0  0  0  0  0  0  0  0  0
   45.7036   35.6352   42.6274 H   0  0  0  0  0  0  0  0  0  0  0  0
   44.3470   34.3477   48.1595 H   0  0  0  0  0  0  0  0  0  0  0  0
   46.0114   31.3498   49.5820 H   0  0  0  0  0  0  0  0  0  0  0  0
   45.5824   33.0410   49.9542 H   0  0  0  0  0  0  0  0  0  0  0  0
   46.9077   31.7093   44.3514 H   0  0  0  0  0  0  0  0  0  0  0  0
   48.6332   30.4850   42.9896 H   0  0  0  0  0  0  0  0  0  0  0  0
   49.4117   34.0625   40.8493 H   0  0  0  0  0  0  0  0  0  0  0  0
  1  6  2  0
  2  3  2  0
  2  1  1  0
  3  4  1  0
  4  5  2  0
  5  7  1  0
  6  5  1  0
  7  8  1  0
  8 10  1  0
  9 11  1  0
  9  8  2  0
 12 13  1  0
 12  3  1  0
 14 13  2  0
 15 14  1  0
 16 15  2  0
 17 15  1  0
 17 18  1  0
 18 12  1  0
 19 18  2  0
  1 20  1  0
  2 21  1  0
  7 22  1  0
 10 23  1  0
 10 24  1  0
 13 25  1  0
 14 26  1  0
 17 27  1  0
M  ISO  5  20  14  21  14  25  14  26  14  27   9
M  END
>  <minimizedAffinity>  (1) 
-6.26075554

>  <minimizedRMSD>  (1) 
0.383874267

$$$$
