
     RDKit          3D

 30 31  0  0  0  0  0  0  0  0999 V2000
   44.5660   35.8300   44.5780 C   0  0  0  0  0  0  0  0  0  0  0  0
   45.5150   35.2490   43.7000 C   0  0  0  0  0  0  0  0  0  0  0  0
   46.2360   34.1510   44.1510 C   0  0  0  0  0  0  0  0  0  0  0  0
   45.9890   33.6930   45.4150 N   0  0  0  0  0  0  0  0  0  0  0  0
   45.0850   34.2600   46.2250 C   0  0  0  0  0  0  0  0  0  0  0  0
   44.3870   35.3200   45.7970 N   0  0  0  0  0  0  0  0  0  0  0  0
   44.8620   33.7520   47.5350 N   0  0  0  0  0  0  0  0  0  0  0  0
   45.2950   32.4610   47.9230 C   0  0  0  0  0  0  0  0  0  0  0  0
   45.3630   31.5560   47.0260 N   0  0  0  0  0  0  0  0  0  0  0  0
   45.6410   32.2070   49.2900 N   0  0  0  0  0  0  0  0  0  0  0  0
   45.6820   30.5860   47.1880 H   0  0  0  0  0  0  0  0  0  0  0  0
   49.2160   32.2480   41.7390 C   0  0  0  0  0  0  0  0  0  0  0  0
   48.1620   31.4950   42.2660 C   0  0  0  0  0  0  0  0  0  0  0  0
   47.2190   32.1360   43.0380 C   0  0  0  0  0  0  0  0  0  0  0  0
   47.2350   33.4770   43.3340 C   0  0  0  0  0  0  0  0  0  0  0  0
   48.2810   34.1850   42.8020 C   0  0  0  0  0  0  0  0  0  0  0  0
   49.2500   33.5900   42.0220 C   0  0  0  0  0  0  0  0  0  0  0  0
   50.4470   31.5010   40.7510 S   0  0  0  0  0  0  0  0  0  0  0  0
   51.7770   32.1280   41.1280 O   0  0  0  0  0  0  0  0  0  0  0  0
   50.1080   31.7560   39.3170 O   0  0  0  0  0  0  0  0  0  0  0  0
   43.9775   36.7011   44.2540 H   0  0  0  0  0  0  0  0  0  0  0  0
   45.6758   35.6559   42.6908 H   0  0  0  0  0  0  0  0  0  0  0  0
   44.3706   34.3413   48.2221 H   0  0  0  0  0  0  0  0  0  0  0  0
   45.9564   31.2690   49.5757 H   0  0  0  0  0  0  0  0  0  0  0  0
   45.5744   32.9624   49.9870 H   0  0  0  0  0  0  0  0  0  0  0  0
   48.0879   30.4154   42.0684 H   0  0  0  0  0  0  0  0  0  0  0  0
   46.3954   31.5318   43.4461 H   0  0  0  0  0  0  0  0  0  0  0  0
   48.3498   35.2641   43.0040 H   0  0  0  0  0  0  0  0  0  0  0  0
   50.0679   34.2046   41.6180 H   0  0  0  0  0  0  0  0  0  0  0  0
   50.5212   30.1468   40.9449 H   0  0  0  0  0  0  0  0  0  0  0  0
  1  6  2  0
  2  3  2  0
  2  1  1  0
  3  4  1  0
  4  5  2  0
  5  7  1  0
  6  5  1  0
  7  8  1  0
  8 10  1  0
  9 11  1  0
  9  8  2  0
 12 17  2  0
 12 13  1  0
 13 14  2  0
 14 15  1  0
 15  3  1  0
 16 15  2  0
 17 16  1  0
 18 19  2  0
 18 12  1  0
 20 18  2  0
  1 21  1  0
  2 22  1  0
  7 23  1  0
 10 24  1  0
 10 25  1  0
 13 26  1  0
 14 27  1  0
 16 28  1  0
 17 29  1  0
 18 30  1  0
M  ISO  7  21  14  22  14  26  14  27  14  28  14  29  14  30  11
M  END
>  <minimizedAffinity>  (1) 
-6.32681084

>  <minimizedRMSD>  (1) 
1.13983178

$$$$
