
     RDKit          3D

 28 30  0  0  0  0  0  0  0  0999 V2000
   44.6080   35.8170   44.5410 C   0  0  0  0  0  0  0  0  0  0  0  0
   45.4770   35.1740   43.6460 C   0  0  0  0  0  0  0  0  0  0  0  0
   46.1460   34.0400   44.0950 C   0  0  0  0  0  0  0  0  0  0  0  0
   45.9260   33.6060   45.3800 N   0  0  0  0  0  0  0  0  0  0  0  0
   45.0870   34.2490   46.2040 C   0  0  0  0  0  0  0  0  0  0  0  0
   44.4370   35.3480   45.7770 N   0  0  0  0  0  0  0  0  0  0  0  0
   44.8740   33.7820   47.5380 N   0  0  0  0  0  0  0  0  0  0  0  0
   45.2510   32.4780   47.9380 C   0  0  0  0  0  0  0  0  0  0  0  0
   45.2360   31.5570   47.0570 N   0  0  0  0  0  0  0  0  0  0  0  0
   45.6320   32.2300   49.2910 N   0  0  0  0  0  0  0  0  0  0  0  0
   45.5120   30.5730   47.2190 H   0  0  0  0  0  0  0  0  0  0  0  0
   47.0560   33.2830   43.3040 N   0  0  0  0  0  0  0  0  0  0  0  0
   47.6860   32.2160   43.8510 C   0  0  0  0  0  0  0  0  0  0  0  0
   48.5060   31.6350   42.9380 N   0  0  0  0  0  0  0  0  0  0  0  0
   48.3910   32.3450   41.7970 C   0  0  0  0  0  0  0  0  0  0  0  0
   48.9130   32.3270   40.5060 C   0  0  0  0  0  0  0  0  0  0  0  0
   48.5680   33.2240   39.5740 N   0  0  0  0  0  0  0  0  0  0  0  0
   47.6720   34.2030   39.8820 C   0  0  0  0  0  0  0  0  0  0  0  0
   47.1230   34.2830   41.1180 N   0  0  0  0  0  0  0  0  0  0  0  0
   47.4880   33.3680   42.0330 C   0  0  0  0  0  0  0  0  0  0  0  0
   44.0628   36.7166   44.2195 H   0  0  0  0  0  0  0  0  0  0  0  0
   45.6241   35.5538   42.6242 H   0  0  0  0  0  0  0  0  0  0  0  0
   44.4349   34.4106   48.2257 H   0  0  0  0  0  0  0  0  0  0  0  0
   45.9066   31.2812   49.5831 H   0  0  0  0  0  0  0  0  0  0  0  0
   45.6324   32.9998   49.9753 H   0  0  0  0  0  0  0  0  0  0  0  0
   47.5524   31.8698   44.8865 H   0  0  0  0  0  0  0  0  0  0  0  0
   49.6385   31.5437   40.2412 H   0  0  0  0  0  0  0  0  0  0  0  0
   47.3900   34.9398   39.1154 H   0  0  0  0  0  0  0  0  0  0  0  0
  1  6  2  0
  2  3  2  0
  2  1  1  0
  3  4  1  0
  4  5  2  0
  5  7  1  0
  6  5  1  0
  7  8  1  0
  8 10  1  0
  9 11  1  0
  9  8  2  0
 12 13  1  0
 12  3  1  0
 14 13  2  0
 15 20  2  0
 15 14  1  0
 16 15  1  0
 17 18  1  0
 17 16  2  0
 18 19  2  0
 19 20  1  0
 20 12  1  0
  1 21  1  0
  2 22  1  0
  7 23  1  0
 10 24  1  0
 10 25  1  0
 13 26  1  0
 16 27  1  0
 18 28  1  0
M  ISO  5  21  14  22  14  26  14  27  14  28  14
M  END
>  <minimizedAffinity>  (1) 
-6.52327108

>  <minimizedRMSD>  (1) 
0.365811527

$$$$
