
     RDKit          3D

 27 28  0  0  0  0  0  0  0  0999 V2000
   44.6810   35.7020   44.4910 C   0  0  0  0  0  0  0  0  0  0  0  0
   45.7010   35.1650   43.6880 C   0  0  0  0  0  0  0  0  0  0  0  0
   46.4340   34.1100   44.2160 C   0  0  0  0  0  0  0  0  0  0  0  0
   46.1450   33.6390   45.4710 N   0  0  0  0  0  0  0  0  0  0  0  0
   45.1510   34.1910   46.2060 C   0  0  0  0  0  0  0  0  0  0  0  0
   44.4290   35.2160   45.7070 N   0  0  0  0  0  0  0  0  0  0  0  0
   44.8540   33.7030   47.5110 N   0  0  0  0  0  0  0  0  0  0  0  0
   45.3120   32.4450   47.9560 C   0  0  0  0  0  0  0  0  0  0  0  0
   45.4970   31.5280   47.0940 N   0  0  0  0  0  0  0  0  0  0  0  0
   45.5580   32.2270   49.3550 N   0  0  0  0  0  0  0  0  0  0  0  0
   45.8520   30.5780   47.2940 H   0  0  0  0  0  0  0  0  0  0  0  0
   47.5210   33.4530   43.5030 C   0  0  0  0  0  0  0  0  0  0  0  0
   48.4000   34.2370   42.7900 C   0  0  0  0  0  0  0  0  0  0  0  0
   49.4550   33.6360   42.0930 C   0  0  0  0  0  0  0  0  0  0  0  0
   49.6450   32.2520   42.1010 C   0  0  0  0  0  0  0  0  0  0  0  0
   48.7490   31.4900   42.8240 C   0  0  0  0  0  0  0  0  0  0  0  0
   47.7090   32.0910   43.5100 C   0  0  0  0  0  0  0  0  0  0  0  0
   44.0786   36.5395   44.1094 H   0  0  0  0  0  0  0  0  0  0  0  0
   45.9102   35.5630   42.6841 H   0  0  0  0  0  0  0  0  0  0  0  0
   44.2896   34.2844   48.1469 H   0  0  0  0  0  0  0  0  0  0  0  0
   45.8924   31.3094   49.6822 H   0  0  0  0  0  0  0  0  0  0  0  0
   45.3999   32.9884   50.0305 H   0  0  0  0  0  0  0  0  0  0  0  0
   48.2740   35.3295   42.7681 H   0  0  0  0  0  0  0  0  0  0  0  0
   50.1519   34.2695   41.5247 H   0  0  0  0  0  0  0  0  0  0  0  0
   50.4770   31.7869   41.5520 H   0  0  0  0  0  0  0  0  0  0  0  0
   48.8631   30.3964   42.8548 H   0  0  0  0  0  0  0  0  0  0  0  0
   47.0106   31.4596   44.0788 H   0  0  0  0  0  0  0  0  0  0  0  0
  1  6  2  0
  2  3  2  0
  2  1  1  0
  3  4  1  0
  4  5  2  0
  5  7  1  0
  6  5  1  0
  7  8  1  0
  8 10  1  0
  9 11  1  0
  9  8  2  0
 12 17  1  0
 12  3  1  0
 13 12  2  0
 14 15  2  0
 14 13  1  0
 15 16  1  0
 16 17  2  0
  1 18  1  0
  2 19  1  0
  7 20  1  0
 10 21  1  0
 10 22  1  0
 13 23  1  0
 14 24  1  0
 15 25  1  0
 16 26  1  0
 17 27  1  0
M  ISO  7  18  14  19  14  23  14  24  14  25  14  26  14  27  14
M  END
>  <minimizedAffinity>  (1) 
-6.14191532

>  <minimizedRMSD>  (1) 
0.863180935

$$$$
