
     RDKit          3D

 25 26  0  0  0  0  0  0  0  0999 V2000
   44.6900   35.7190   44.4890 C   0  0  0  0  0  0  0  0  0  0  0  0
   45.7000   35.1620   43.6900 C   0  0  0  0  0  0  0  0  0  0  0  0
   46.4160   34.0950   44.2110 C   0  0  0  0  0  0  0  0  0  0  0  0
   46.1220   33.6230   45.4690 N   0  0  0  0  0  0  0  0  0  0  0  0
   45.1320   34.1980   46.2030 C   0  0  0  0  0  0  0  0  0  0  0  0
   44.4500   35.2180   45.7010 N   0  0  0  0  0  0  0  0  0  0  0  0
   44.8380   33.6970   47.5080 N   0  0  0  0  0  0  0  0  0  0  0  0
   45.3260   32.4420   47.9610 C   0  0  0  0  0  0  0  0  0  0  0  0
   45.5240   31.5260   47.0980 N   0  0  0  0  0  0  0  0  0  0  0  0
   45.5750   32.2490   49.3460 N   0  0  0  0  0  0  0  0  0  0  0  0
   45.8470   30.5720   47.2990 H   0  0  0  0  0  0  0  0  0  0  0  0
   47.4930   33.4040   43.5160 C   0  0  0  0  0  0  0  0  0  0  0  0
   48.4480   34.0640   42.7700 C   0  0  0  0  0  0  0  0  0  0  0  0
   49.4820   33.4410   42.1000 C   0  0  0  0  0  0  0  0  0  0  0  0
   49.5930   32.1180   42.1560 N   0  0  0  0  0  0  0  0  0  0  0  0
   48.6580   31.4460   42.8890 C   0  0  0  0  0  0  0  0  0  0  0  0
   47.6580   32.0690   43.5370 N   0  0  0  0  0  0  0  0  0  0  0  0
   44.0974   36.5674   44.1161 H   0  0  0  0  0  0  0  0  0  0  0  0
   45.9160   35.5575   42.6865 H   0  0  0  0  0  0  0  0  0  0  0  0
   44.2542   34.2631   48.1401 H   0  0  0  0  0  0  0  0  0  0  0  0
   45.9289   31.3428   49.6843 H   0  0  0  0  0  0  0  0  0  0  0  0
   45.4017   33.0153   50.0121 H   0  0  0  0  0  0  0  0  0  0  0  0
   48.3810   35.1600   42.7048 H   0  0  0  0  0  0  0  0  0  0  0  0
   50.2077   34.0347   41.5248 H   0  0  0  0  0  0  0  0  0  0  0  0
   48.7253   30.3499   42.9522 H   0  0  0  0  0  0  0  0  0  0  0  0
  1  6  2  0
  2  3  2  0
  2  1  1  0
  3  4  1  0
  4  5  2  0
  5  7  1  0
  6  5  1  0
  7  8  1  0
  8 10  1  0
  9 11  1  0
  9  8  2  0
 12 17  1  0
 12  3  1  0
 13 12  2  0
 14 15  2  0
 14 13  1  0
 15 16  1  0
 16 17  2  0
  1 18  1  0
  2 19  1  0
  7 20  1  0
 10 21  1  0
 10 22  1  0
 13 23  1  0
 14 24  1  0
 16 25  1  0
M  ISO  5  18  14  19  14  23  14  24  14  25  14
M  END
>  <minimizedAffinity>  (1) 
-5.87940311

>  <minimizedRMSD>  (1) 
0.888723493

$$$$
