
     RDKit          3D

 30 31  0  0  0  0  0  0  0  0999 V2000
   44.5920   35.8530   44.5520 C   0  0  0  0  0  0  0  0  0  0  0  0
   45.4520   35.2110   43.6460 C   0  0  0  0  0  0  0  0  0  0  0  0
   46.1280   34.0560   44.0750 C   0  0  0  0  0  0  0  0  0  0  0  0
   45.9130   33.6120   45.3660 N   0  0  0  0  0  0  0  0  0  0  0  0
   45.0810   34.2620   46.1920 C   0  0  0  0  0  0  0  0  0  0  0  0
   44.4320   35.3680   45.7840 N   0  0  0  0  0  0  0  0  0  0  0  0
   44.8720   33.7880   47.5280 N   0  0  0  0  0  0  0  0  0  0  0  0
   45.2690   32.4820   47.9230 C   0  0  0  0  0  0  0  0  0  0  0  0
   45.2420   31.5670   47.0340 N   0  0  0  0  0  0  0  0  0  0  0  0
   45.6760   32.2330   49.2620 N   0  0  0  0  0  0  0  0  0  0  0  0
   45.4900   30.5780   47.1920 H   0  0  0  0  0  0  0  0  0  0  0  0
   47.0650   33.2590   43.2600 C   0  0  0  0  0  0  0  0  0  0  0  0
   47.6020   32.0370   43.9250 C   0  0  0  0  0  0  0  0  0  0  0  0
   48.7210   31.6280   42.9890 C   0  0  0  0  0  0  0  0  0  0  0  0
   49.2470   32.9230   42.4430 C   0  0  0  0  0  0  0  0  0  0  0  0
   48.3550   34.0210   42.9820 C   0  0  0  0  0  0  0  0  0  0  0  0
   44.0487   36.7587   44.2445 H   0  0  0  0  0  0  0  0  0  0  0  0
   45.5927   35.6019   42.6275 H   0  0  0  0  0  0  0  0  0  0  0  0
   44.4238   34.4080   48.2177 H   0  0  0  0  0  0  0  0  0  0  0  0
   45.9632   31.2852   49.5452 H   0  0  0  0  0  0  0  0  0  0  0  0
   45.6837   33.0003   49.9491 H   0  0  0  0  0  0  0  0  0  0  0  0
   46.4487   33.0210   42.3805 H   0  0  0  0  0  0  0  0  0  0  0  0
   47.9864   32.2662   44.9298 H   0  0  0  0  0  0  0  0  0  0  0  0
   46.8477   31.2517   44.0807 H   0  0  0  0  0  0  0  0  0  0  0  0
   49.5081   31.0887   43.5364 H   0  0  0  0  0  0  0  0  0  0  0  0
   48.3752   30.9494   42.1953 H   0  0  0  0  0  0  0  0  0  0  0  0
   49.2118   32.9123   41.3436 H   0  0  0  0  0  0  0  0  0  0  0  0
   50.2931   33.0817   42.7439 H   0  0  0  0  0  0  0  0  0  0  0  0
   48.7689   34.4588   43.9023 H   0  0  0  0  0  0  0  0  0  0  0  0
   48.2324   34.8740   42.2984 H   0  0  0  0  0  0  0  0  0  0  0  0
  1  6  2  0
  2  3  2  0
  2  1  1  0
  3  4  1  0
  4  5  2  0
  5  7  1  0
  6  5  1  0
  7  8  1  0
  8 10  1  0
  9 11  1  0
  9  8  2  0
 12 13  1  0
 12  3  1  0
 14 13  1  0
 15 16  1  0
 15 14  1  0
 16 12  1  0
  1 17  1  0
  2 18  1  0
  7 19  1  0
 10 20  1  0
 10 21  1  0
 12 22  1  0
 13 23  1  0
 13 24  1  0
 14 25  1  0
 14 26  1  0
 15 27  1  0
 15 28  1  0
 16 29  1  0
 16 30  1  0
M  ISO  8  17  14  18  14  22  13  23  13  24  13  25  13  26  13  27  13
M  ISO  3  28  13  29  13  30  13
M  END
>  <minimizedAffinity>  (1) 
-5.90979433

>  <minimizedRMSD>  (1) 
0.417391896

$$$$
