
     RDKit          3D

 22 23  0  0  0  0  0  0  0  0999 V2000
   44.6630   35.7260   44.5240 C   0  0  0  0  0  0  0  0  0  0  0  0
   45.6390   35.1510   43.6930 C   0  0  0  0  0  0  0  0  0  0  0  0
   46.3510   34.0690   44.1990 C   0  0  0  0  0  0  0  0  0  0  0  0
   46.0690   33.6200   45.4710 N   0  0  0  0  0  0  0  0  0  0  0  0
   45.1210   34.2120   46.2240 C   0  0  0  0  0  0  0  0  0  0  0  0
   44.4260   35.2560   45.7500 N   0  0  0  0  0  0  0  0  0  0  0  0
   44.8430   33.7310   47.5450 N   0  0  0  0  0  0  0  0  0  0  0  0
   45.2780   32.4450   47.9670 C   0  0  0  0  0  0  0  0  0  0  0  0
   45.4000   31.5180   47.0920 N   0  0  0  0  0  0  0  0  0  0  0  0
   45.5680   32.2220   49.3530 N   0  0  0  0  0  0  0  0  0  0  0  0
   45.7120   30.5560   47.2850 H   0  0  0  0  0  0  0  0  0  0  0  0
   47.3940   33.3140   43.5470 C   0  0  0  0  0  0  0  0  0  0  0  0
   47.7110   32.0270   43.2940 N   0  0  0  0  0  0  0  0  0  0  0  0
   48.8310   31.9610   42.6340 O   0  0  0  0  0  0  0  0  0  0  0  0
   49.2870   33.1700   42.4290 C   0  0  0  0  0  0  0  0  0  0  0  0
   48.4020   34.0140   42.9930 N   0  0  0  0  0  0  0  0  0  0  0  0
   44.0808   36.5834   44.1554 H   0  0  0  0  0  0  0  0  0  0  0  0
   45.8322   35.5410   42.6828 H   0  0  0  0  0  0  0  0  0  0  0  0
   44.3186   34.3278   48.2005 H   0  0  0  0  0  0  0  0  0  0  0  0
   45.8839   31.2944   49.6703 H   0  0  0  0  0  0  0  0  0  0  0  0
   45.4605   32.9894   50.0316 H   0  0  0  0  0  0  0  0  0  0  0  0
   50.2118   33.4435   41.8998 H   0  0  0  0  0  0  0  0  0  0  0  0
  1  6  2  0
  2  3  2  0
  2  1  1  0
  3  4  1  0
  4  5  2  0
  5  7  1  0
  6  5  1  0
  7  8  1  0
  8 10  1  0
  9 11  1  0
  9  8  2  0
 12  3  1  0
 13 12  2  0
 14 13  1  0
 15 14  1  0
 15 16  2  0
 16 12  1  0
  1 17  1  0
  2 18  1  0
  7 19  1  0
 10 20  1  0
 10 21  1  0
 15 22  1  0
M  ISO  3  17  14  18  14  22  14
M  END
>  <minimizedAffinity>  (1) 
-5.68334675

>  <minimizedRMSD>  (1) 
0.75684762

$$$$
