
     RDKit          3D

 20 20  0  0  0  0  0  0  0  0999 V2000
   44.6570   35.7690   44.5310 C   0  0  0  0  0  0  0  0  0  0  0  0
   45.6050   35.1690   43.6860 C   0  0  0  0  0  0  0  0  0  0  0  0
   46.2990   34.0640   44.1650 C   0  0  0  0  0  0  0  0  0  0  0  0
   46.0080   33.6340   45.4340 N   0  0  0  0  0  0  0  0  0  0  0  0
   45.1000   34.2210   46.2230 C   0  0  0  0  0  0  0  0  0  0  0  0
   44.4400   35.2780   45.7600 N   0  0  0  0  0  0  0  0  0  0  0  0
   44.8320   33.7380   47.5360 N   0  0  0  0  0  0  0  0  0  0  0  0
   45.2800   32.4490   47.9560 C   0  0  0  0  0  0  0  0  0  0  0  0
   45.3810   31.5230   47.0600 N   0  0  0  0  0  0  0  0  0  0  0  0
   45.5940   32.2450   49.3430 N   0  0  0  0  0  0  0  0  0  0  0  0
   45.6940   30.5660   47.2640 H   0  0  0  0  0  0  0  0  0  0  0  0
   47.3100   33.3850   43.3300 C   0  0  0  0  0  0  0  0  0  0  0  0
   47.6230   32.1480   43.8430 F   0  0  0  0  0  0  0  0  0  0  0  0
   46.8720   33.2460   42.0090 F   0  0  0  0  0  0  0  0  0  0  0  0
   48.4060   34.2240   43.2540 F   0  0  0  0  0  0  0  0  0  0  0  0
   44.0902   36.6453   44.1833 H   0  0  0  0  0  0  0  0  0  0  0  0
   45.7926   35.5617   42.6757 H   0  0  0  0  0  0  0  0  0  0  0  0
   44.3053   34.3295   48.1945 H   0  0  0  0  0  0  0  0  0  0  0  0
   45.9189   31.3229   49.6673 H   0  0  0  0  0  0  0  0  0  0  0  0
   45.4943   33.0208   50.0131 H   0  0  0  0  0  0  0  0  0  0  0  0
  1  6  2  0
  2  3  2  0
  2  1  1  0
  3  4  1  0
  4  5  2  0
  5  7  1  0
  6  5  1  0
  7  8  1  0
  8 10  1  0
  9 11  1  0
  9  8  2  0
 12 13  1  0
 12  3  1  0
 14 12  1  0
 15 12  1  0
  1 16  1  0
  2 17  1  0
  7 18  1  0
 10 19  1  0
 10 20  1  0
M  ISO  2  16  14  17  14
M  END
>  <minimizedAffinity>  (1) 
-5.5783844

>  <minimizedRMSD>  (1) 
0.296637505

$$$$
