
     RDKit          3D

 26 27  0  0  0  0  0  0  0  0999 V2000
   44.8000   35.0670   45.2250 C   0  0  0  0  0  0  0  0  0  0  0  0
   45.5150   34.8740   44.0400 C   0  0  0  0  0  0  0  0  0  0  0  0
   46.4560   33.8580   44.0030 C   0  0  0  0  0  0  0  0  0  0  0  0
   46.6420   33.0940   45.1180 N   0  0  0  0  0  0  0  0  0  0  0  0
   45.9390   33.3000   46.2490 C   0  0  0  0  0  0  0  0  0  0  0  0
   45.0170   34.2900   46.2980 N   0  0  0  0  0  0  0  0  0  0  0  0
   46.1590   32.4880   47.3860 N   0  0  0  0  0  0  0  0  0  0  0  0
   47.4570   32.4440   47.9910 C   0  0  0  0  0  0  0  0  0  0  0  0
   47.7480   31.1580   48.7010 C   0  0  0  0  0  0  0  0  0  0  0  0
   46.6810   30.7140   49.5530 N   0  0  0  0  0  0  0  0  0  0  0  0
   45.4290   31.3860   49.3700 C   0  0  0  0  0  0  0  0  0  0  0  0
   45.0880   31.7010   47.9430 C   0  0  0  0  0  0  0  0  0  0  0  0
   45.2500   35.7320   42.9130 C   0  0  0  0  0  0  0  0  0  0  0  0
   45.1600   36.9710   43.1400 O   0  0  0  0  0  0  0  0  0  0  0  0
   44.0479   35.8678   45.2794 H   0  0  0  0  0  0  0  0  0  0  0  0
   47.0425   33.6707   43.0914 H   0  0  0  0  0  0  0  0  0  0  0  0
   48.2120   32.5842   47.2034 H   0  0  0  0  0  0  0  0  0  0  0  0
   47.4858   33.2420   48.7475 H   0  0  0  0  0  0  0  0  0  0  0  0
   47.9365   30.3799   47.9466 H   0  0  0  0  0  0  0  0  0  0  0  0
   48.6206   31.3377   49.3462 H   0  0  0  0  0  0  0  0  0  0  0  0
   46.5314   29.7100   49.3782 H   0  0  0  0  0  0  0  0  0  0  0  0
   44.6336   30.7455   49.7788 H   0  0  0  0  0  0  0  0  0  0  0  0
   45.5168   32.3521   49.8885 H   0  0  0  0  0  0  0  0  0  0  0  0
   44.1477   32.2703   47.9020 H   0  0  0  0  0  0  0  0  0  0  0  0
   44.9621   30.7712   47.3688 H   0  0  0  0  0  0  0  0  0  0  0  0
   45.1311   35.3250   41.8980 H   0  0  0  0  0  0  0  0  0  0  0  0
  1  6  2  0
  2  1  1  0
  3  2  2  0
  3  4  1  0
  4  5  2  0
  5  6  1  0
  5  7  1  0
  7 12  1  0
  7  8  1  0
  8  9  1  0
  9 10  1  0
 11 10  1  0
 12 11  1  0
 13 14  2  0
 13  2  1  0
  1 15  1  0
  3 16  1  0
  8 17  1  0
  8 18  1  0
  9 19  1  0
  9 20  1  0
 10 21  1  0
 11 22  1  0
 11 23  1  0
 12 24  1  0
 12 25  1  0
 13 26  1  0
M  ISO  8  15  14  16  14  17  13  18  13  19  13  20  13  21   5  22  13
M  ISO  4  23  13  24  13  25  13  26   6
M  END
>  <minimizedAffinity>  (1) 
-5.14366055

>  <minimizedRMSD>  (1) 
0.875666142

$$$$
