
     RDKit          3D

 19 19  0  0  0  0  0  0  0  0999 V2000
   44.6350   35.7990   44.5530 C   0  0  0  0  0  0  0  0  0  0  0  0
   45.5470   35.1560   43.6680 C   0  0  0  0  0  0  0  0  0  0  0  0
   46.2260   34.0150   44.1260 C   0  0  0  0  0  0  0  0  0  0  0  0
   45.9560   33.5970   45.4140 N   0  0  0  0  0  0  0  0  0  0  0  0
   45.0890   34.2340   46.2140 C   0  0  0  0  0  0  0  0  0  0  0  0
   44.4470   35.3130   45.7810 N   0  0  0  0  0  0  0  0  0  0  0  0
   44.8550   33.7520   47.5370 N   0  0  0  0  0  0  0  0  0  0  0  0
   45.2600   32.4630   47.9600 C   0  0  0  0  0  0  0  0  0  0  0  0
   45.3050   31.5300   47.0690 N   0  0  0  0  0  0  0  0  0  0  0  0
   45.5990   32.2430   49.3290 N   0  0  0  0  0  0  0  0  0  0  0  0
   45.6010   30.5640   47.2670 H   0  0  0  0  0  0  0  0  0  0  0  0
   47.1750   33.3030   43.2780 C   0  0  0  0  0  0  0  0  0  0  0  0
   48.3520   33.7480   43.2130 O   0  0  0  0  0  0  0  0  0  0  0  0
   44.0869   36.6944   44.2247 H   0  0  0  0  0  0  0  0  0  0  0  0
   45.7152   35.5429   42.6521 H   0  0  0  0  0  0  0  0  0  0  0  0
   44.3731   34.3654   48.2096 H   0  0  0  0  0  0  0  0  0  0  0  0
   45.8943   31.3074   49.6425 H   0  0  0  0  0  0  0  0  0  0  0  0
   45.5483   33.0199   50.0034 H   0  0  0  0  0  0  0  0  0  0  0  0
   46.8735   32.4078   42.7142 H   0  0  0  0  0  0  0  0  0  0  0  0
  1  6  2  0
  2  3  2  0
  2  1  1  0
  3  4  1  0
  4  5  2  0
  5  7  1  0
  6  5  1  0
  7  8  1  0
  8 10  1  0
  9 11  1  0
  9  8  2  0
 12  3  1  0
 13 12  2  0
  1 14  1  0
  2 15  1  0
  7 16  1  0
 10 17  1  0
 10 18  1  0
 12 19  1  0
M  ISO  3  14  14  15  14  19   6
M  END
>  <minimizedAffinity>  (1) 
-5.15392923

>  <minimizedRMSD>  (1) 
0.296627641

$$$$
