
     RDKit          3D

 25 27  0  0  0  0  0  0  0  0999 V2000
   44.8730   34.8350   45.2870 C   0  0  0  0  0  0  0  0  0  0  0  0
   45.4390   34.9330   44.0090 C   0  0  0  0  0  0  0  0  0  0  0  0
   46.5100   34.1100   43.6810 C   0  0  0  0  0  0  0  0  0  0  0  0
   46.9690   33.2340   44.6260 N   0  0  0  0  0  0  0  0  0  0  0  0
   46.4050   33.1650   45.8440 C   0  0  0  0  0  0  0  0  0  0  0  0
   45.3640   33.9570   46.1780 N   0  0  0  0  0  0  0  0  0  0  0  0
   46.9610   32.2200   46.7480 N   0  0  0  0  0  0  0  0  0  0  0  0
   47.0360   32.4700   48.0660 C   0  0  0  0  0  0  0  0  0  0  0  0
   47.6080   31.3940   48.6680 N   0  0  0  0  0  0  0  0  0  0  0  0
   47.8850   30.4820   47.7170 C   0  0  0  0  0  0  0  0  0  0  0  0
   48.4440   29.2250   47.6540 C   0  0  0  0  0  0  0  0  0  0  0  0
   48.5910   28.5390   46.5060 N   0  0  0  0  0  0  0  0  0  0  0  0
   48.1760   29.0840   45.3270 C   0  0  0  0  0  0  0  0  0  0  0  0
   47.6270   30.3090   45.3600 N   0  0  0  0  0  0  0  0  0  0  0  0
   47.4790   30.9980   46.5040 C   0  0  0  0  0  0  0  0  0  0  0  0
   44.8740   35.8970   43.0830 C   0  0  0  0  0  0  0  0  0  0  0  0
   45.1930   37.1050   43.2650 O   0  0  0  0  0  0  0  0  0  0  0  0
   48.8880   28.6250   48.8660 N   0  0  0  0  0  0  0  0  0  0  0  0
   44.0243   35.4786   45.5618 H   0  0  0  0  0  0  0  0  0  0  0  0
   46.9768   34.1618   42.6863 H   0  0  0  0  0  0  0  0  0  0  0  0
   46.6940   33.3860   48.5701 H   0  0  0  0  0  0  0  0  0  0  0  0
   48.2874   28.5375   44.3789 H   0  0  0  0  0  0  0  0  0  0  0  0
   44.2036   35.5916   42.2661 H   0  0  0  0  0  0  0  0  0  0  0  0
   49.3103   27.6857   48.8511 H   0  0  0  0  0  0  0  0  0  0  0  0
   48.7870   29.1302   49.7579 H   0  0  0  0  0  0  0  0  0  0  0  0
  1  6  2  0
  2  1  1  0
  3  2  2  0
  3  4  1  0
  4  5  2  0
  5  6  1  0
  5  7  1  0
  7  8  1  0
  8  9  2  0
 10  9  1  0
 11 10  2  0
 11 18  1  0
 12 11  1  0
 13 14  1  0
 13 12  2  0
 14 15  2  0
 15  7  1  0
 15 10  1  0
 16 17  2  0
 16  2  1  0
  1 19  1  0
  3 20  1  0
  8 21  1  0
 13 22  1  0
 16 23  1  0
 18 24  1  0
 18 25  1  0
M  ISO  5  19  14  20  14  21  14  22  14  23   6
M  END
>  <minimizedAffinity>  (1) 
-4.97874165

>  <minimizedRMSD>  (1) 
0.13099274

$$$$
