
     RDKit          3D

 26 28  0  0  0  0  0  0  0  0999 V2000
   44.7920   34.9340   45.3420 C   0  0  0  0  0  0  0  0  0  0  0  0
   45.4050   34.9400   44.0750 C   0  0  0  0  0  0  0  0  0  0  0  0
   46.4530   34.0440   43.8190 C   0  0  0  0  0  0  0  0  0  0  0  0
   46.8150   33.2150   44.8260 N   0  0  0  0  0  0  0  0  0  0  0  0
   46.2220   33.2210   46.0290 C   0  0  0  0  0  0  0  0  0  0  0  0
   45.2190   34.0710   46.2880 N   0  0  0  0  0  0  0  0  0  0  0  0
   46.6720   32.2920   47.0630 C   0  0  0  0  0  0  0  0  0  0  0  0
   46.5110   32.4360   48.4260 C   0  0  0  0  0  0  0  0  0  0  0  0
   47.0660   31.3660   49.0310 N   0  0  0  0  0  0  0  0  0  0  0  0
   47.5750   30.5480   48.0830 C   0  0  0  0  0  0  0  0  0  0  0  0
   48.2410   29.3370   48.1230 C   0  0  0  0  0  0  0  0  0  0  0  0
   48.6800   28.6680   46.9850 C   0  0  0  0  0  0  0  0  0  0  0  0
   48.4290   29.2540   45.7650 C   0  0  0  0  0  0  0  0  0  0  0  0
   47.7640   30.4640   45.7100 C   0  0  0  0  0  0  0  0  0  0  0  0
   47.3420   31.1020   46.8590 C   0  0  0  0  0  0  0  0  0  0  0  0
   44.9200   35.8840   43.0790 C   0  0  0  0  0  0  0  0  0  0  0  0
   45.2020   37.0980   43.2820 O   0  0  0  0  0  0  0  0  0  0  0  0
   43.9684   35.6297   45.5604 H   0  0  0  0  0  0  0  0  0  0  0  0
   46.9588   34.0161   42.8426 H   0  0  0  0  0  0  0  0  0  0  0  0
   46.0156   33.2780   48.9316 H   0  0  0  0  0  0  0  0  0  0  0  0
   47.0969   31.1997   50.0470 H   0  0  0  0  0  0  0  0  0  0  0  0
   48.4335   28.8793   49.1045 H   0  0  0  0  0  0  0  0  0  0  0  0
   49.2084   27.7059   47.0574 H   0  0  0  0  0  0  0  0  0  0  0  0
   48.7564   28.7611   44.8377 H   0  0  0  0  0  0  0  0  0  0  0  0
   47.5672   30.9276   44.7321 H   0  0  0  0  0  0  0  0  0  0  0  0
   44.3420   35.5591   42.2013 H   0  0  0  0  0  0  0  0  0  0  0  0
  1  6  2  0
  2  1  1  0
  3  2  2  0
  3  4  1  0
  4  5  2  0
  5  6  1  0
  5  7  1  0
  7  8  2  0
  8  9  1  0
 10 11  2  0
 10  9  1  0
 12 11  1  0
 13 12  2  0
 14 13  1  0
 14 15  2  0
 15  7  1  0
 15 10  1  0
 16 17  2  0
 16  2  1  0
  1 18  1  0
  3 19  1  0
  8 20  1  0
  9 21  1  0
 11 22  1  0
 12 23  1  0
 13 24  1  0
 14 25  1  0
 16 26  1  0
M  ISO  8  18  14  19  14  20  14  21   9  22  14  23  14  24  14  25  14
M  ISO  1  26   6
M  END
>  <minimizedAffinity>  (1) 
-4.71807194

>  <minimizedRMSD>  (1) 
0.96656096

$$$$
