
     RDKit          3D

 48 51  0  0  1  0  0  0  0  0999 V2000
   47.6630   35.0810   41.6140 N   0  0  0  0  0  0  0  0  0  0  0  0
   49.0020   35.3400   42.0360 C   0  0  0  0  0  0  0  0  0  0  0  0
   49.9010   34.1710   42.0830 C   0  0  0  0  0  0  0  0  0  0  0  0
   49.1410   33.1400   42.6970 O   0  0  0  0  0  0  0  0  0  0  0  0
   48.3290   32.7110   41.6350 C   0  0  0  0  0  0  0  0  0  0  0  0
   47.4050   33.7730   41.1110 C   0  0  2  0  0  0  0  0  0  0  0  0
   47.5000   33.8200   39.6350 C   0  0  0  0  0  0  0  0  0  0  0  0
   48.4970   34.3830   38.8720 C   0  0  0  0  0  0  0  0  0  0  0  0
   48.5430   34.4200   37.4980 C   0  0  0  0  0  0  0  0  0  0  0  0
   47.5050   33.8470   36.7950 C   0  0  0  0  0  0  0  0  0  0  0  0
   46.4740   33.2650   37.4970 C   0  0  0  0  0  0  0  0  0  0  0  0
   45.4850   32.7140   36.7170 C   0  0  0  0  0  0  0  0  0  0  0  0
   44.4140   32.1040   37.3330 C   0  0  0  0  0  0  0  0  0  0  0  0
   44.3670   32.0650   38.7110 C   0  0  0  0  0  0  0  0  0  0  0  0
   45.3740   32.6270   39.4300 C   0  0  0  0  0  0  0  0  0  0  0  0
   46.4780   33.2550   38.8970 C   0  0  0  0  0  0  0  0  0  0  0  0
   46.7430   35.6300   42.5450 C   0  0  0  0  0  0  0  0  0  0  0  0
   45.4480   34.9030   42.7430 C   0  0  1  0  0  0  0  0  0  0  0  0
   44.6200   35.2540   45.1360 C   0  0  0  0  0  0  0  0  0  0  0  0
   45.3500   34.5100   44.1660 C   0  0  0  0  0  0  0  0  0  0  0  0
   45.9960   33.3550   44.6220 C   0  0  0  0  0  0  0  0  0  0  0  0
   45.8780   33.0340   45.9400 N   0  0  0  0  0  0  0  0  0  0  0  0
   45.1860   33.7510   46.8280 C   0  0  0  0  0  0  0  0  0  0  0  0
   44.5460   34.8820   46.4140 N   0  0  0  0  0  0  0  0  0  0  0  0
   44.2710   35.7060   42.3370 C   0  0  0  0  0  0  0  0  0  0  0  0
   49.4384   36.0729   41.3414 H   0  0  0  0  0  0  0  0  0  0  0  0
   48.9231   35.6964   43.0737 H   0  0  0  0  0  0  0  0  0  0  0  0
   50.2023   33.8752   41.0673 H   0  0  0  0  0  0  0  0  0  0  0  0
   50.8257   34.3861   42.6386 H   0  0  0  0  0  0  0  0  0  0  0  0
   48.9800   32.3809   40.8121 H   0  0  0  0  0  0  0  0  0  0  0  0
   47.6965   31.8990   42.0231 H   0  0  0  0  0  0  0  0  0  0  0  0
   46.3998   33.4895   41.4563 H   0  0  0  0  0  0  0  0  0  0  0  0
   49.3358   34.8470   39.4115 H   0  0  0  0  0  0  0  0  0  0  0  0
   49.3858   34.8943   36.9739 H   0  0  0  0  0  0  0  0  0  0  0  0
   47.5007   33.8547   35.6950 H   0  0  0  0  0  0  0  0  0  0  0  0
   45.5476   32.7593   35.6197 H   0  0  0  0  0  0  0  0  0  0  0  0
   43.6080   31.6545   36.7344 H   0  0  0  0  0  0  0  0  0  0  0  0
   43.5215   31.5830   39.2237 H   0  0  0  0  0  0  0  0  0  0  0  0
   45.3016   32.5763   40.5264 H   0  0  0  0  0  0  0  0  0  0  0  0
   47.2485   35.6759   43.5209 H   0  0  0  0  0  0  0  0  0  0  0  0
   46.4577   36.6032   42.1190 H   0  0  0  0  0  0  0  0  0  0  0  0
   45.4437   34.0143   42.0947 H   0  0  0  0  0  0  0  0  0  0  0  0
   44.0981   36.1691   44.8193 H   0  0  0  0  0  0  0  0  0  0  0  0
   46.5816   32.7253   43.9360 H   0  0  0  0  0  0  0  0  0  0  0  0
   45.1326   33.4339   47.8799 H   0  0  0  0  0  0  0  0  0  0  0  0
   43.7449   36.0649   43.2339 H   0  0  0  0  0  0  0  0  0  0  0  0
   44.6033   36.5666   41.7378 H   0  0  0  0  0  0  0  0  0  0  0  0
   43.5909   35.0827   41.7378 H   0  0  0  0  0  0  0  0  0  0  0  0
  1  2  1  0
  1 17  1  0
  2  3  1  0
  3  4  1  0
  5  4  1  0
  6  1  1  0
  6  5  1  0
  7  6  1  0
  8  7  2  0
  9  8  1  0
 10 11  1  0
 10  9  2  0
 11 16  2  0
 12 13  2  0
 12 11  1  0
 13 14  1  0
 14 15  2  0
 16 15  1  0
 16  7  1  0
 17 18  1  0
 18 20  1  0
 19 24  2  0
 20 21  2  0
 20 19  1  0
 21 22  1  0
 22 23  2  0
 24 23  1  0
 25 18  1  0
  2 26  1  0
  2 27  1  0
  3 28  1  0
  3 29  1  0
  5 30  1  0
  5 31  1  0
  6 32  1  6
  8 33  1  0
  9 34  1  0
 10 35  1  0
 12 36  1  0
 13 37  1  0
 14 38  1  0
 15 39  1  0
 17 40  1  0
 17 41  1  0
 18 42  1  6
 19 43  1  0
 21 44  1  0
 23 45  1  0
 25 46  1  0
 25 47  1  0
 25 48  1  0
M  ISO  8  26  13  27  13  28  13  29  13  30  13  31  13  32  13  33  14
M  ISO  8  34  14  35  14  36  14  37  14  38  14  39  14  40   8  41   8
M  ISO  7  42   8  43  14  44  14  45  14  46   8  47   8  48   8
M  END
>  <minimizedAffinity>  (1) 
-5.47022915

>  <minimizedRMSD>  (1) 
3.48905206

$$$$
