
     RDKit          3D

 19 20  0  0  0  0  0  0  0  0999 V2000
   44.8360   34.9730   45.2770 C   0  0  0  0  0  0  0  0  0  0  0  0
   45.6150   34.7440   44.1440 C   0  0  0  0  0  0  0  0  0  0  0  0
   46.5460   33.7220   44.1830 C   0  0  0  0  0  0  0  0  0  0  0  0
   46.6580   32.9830   45.3340 N   0  0  0  0  0  0  0  0  0  0  0  0
   45.9020   33.2150   46.4130 C   0  0  0  0  0  0  0  0  0  0  0  0
   44.9840   34.2130   46.3910 N   0  0  0  0  0  0  0  0  0  0  0  0
   46.0280   32.4240   47.6330 C   0  0  0  0  0  0  0  0  0  0  0  0
   44.9220   31.8250   48.2310 C   0  0  0  0  0  0  0  0  0  0  0  0
   45.4380   31.1800   49.3410 C   0  0  0  0  0  0  0  0  0  0  0  0
   46.7860   31.3860   49.4010 N   0  0  0  0  0  0  0  0  0  0  0  0
   47.1310   32.1480   48.3520 N   0  0  0  0  0  0  0  0  0  0  0  0
   45.4230   35.5740   42.9840 C   0  0  0  0  0  0  0  0  0  0  0  0
   45.1830   36.7800   43.1690 O   0  0  0  0  0  0  0  0  0  0  0  0
   44.0904   35.7817   45.2677 H   0  0  0  0  0  0  0  0  0  0  0  0
   47.1819   33.5065   43.3117 H   0  0  0  0  0  0  0  0  0  0  0  0
   43.8746   31.8574   47.8964 H   0  0  0  0  0  0  0  0  0  0  0  0
   44.8525   30.5922   50.0633 H   0  0  0  0  0  0  0  0  0  0  0  0
   47.4243   31.0216   50.1226 H   0  0  0  0  0  0  0  0  0  0  0  0
   45.4864   35.1559   41.9685 H   0  0  0  0  0  0  0  0  0  0  0  0
  1  6  2  0
  2  3  2  0
  2  1  1  0
  3  4  1  0
  4  5  2  0
  5  7  1  0
  6  5  1  0
  7  8  1  0
  7 11  2  0
  8  9  2  0
  9 10  1  0
 11 10  1  0
 12 13  2  0
 12  2  1  0
  1 14  1  0
  3 15  1  0
  8 16  1  0
  9 17  1  0
 10 18  1  0
 12 19  1  0
M  ISO  6  14  14  15  14  16  14  17  14  18   9  19   6
M  END
>  <minimizedAffinity>  (1) 
-4.58161545

>  <minimizedRMSD>  (1) 
1.03968382

$$$$
