
     RDKit          3D

 19 20  0  0  0  0  0  0  0  0999 V2000
   44.8440   35.0020   45.1630 C   0  0  0  0  0  0  0  0  0  0  0  0
   45.5650   34.8850   43.9610 C   0  0  0  0  0  0  0  0  0  0  0  0
   46.5560   33.9190   43.9140 C   0  0  0  0  0  0  0  0  0  0  0  0
   46.7870   33.1430   44.9990 N   0  0  0  0  0  0  0  0  0  0  0  0
   46.0850   33.2750   46.1350 C   0  0  0  0  0  0  0  0  0  0  0  0
   45.1150   34.2000   46.2230 N   0  0  0  0  0  0  0  0  0  0  0  0
   46.2750   32.4960   47.3100 N   0  0  0  0  0  0  0  0  0  0  0  0
   45.2420   32.2260   48.1500 C   0  0  0  0  0  0  0  0  0  0  0  0
   45.7410   31.4490   49.1990 C   0  0  0  0  0  0  0  0  0  0  0  0
   47.0710   31.2640   48.9700 N   0  0  0  0  0  0  0  0  0  0  0  0
   47.3920   31.9050   47.8140 C   0  0  0  0  0  0  0  0  0  0  0  0
   45.2200   35.7730   42.8800 C   0  0  0  0  0  0  0  0  0  0  0  0
   45.1520   36.9960   43.1400 O   0  0  0  0  0  0  0  0  0  0  0  0
   44.0474   35.7561   45.2448 H   0  0  0  0  0  0  0  0  0  0  0  0
   47.1524   33.7829   42.9998 H   0  0  0  0  0  0  0  0  0  0  0  0
   44.2008   32.5588   48.0267 H   0  0  0  0  0  0  0  0  0  0  0  0
   45.1661   31.0590   50.0518 H   0  0  0  0  0  0  0  0  0  0  0  0
   48.3933   31.9399   47.3599 H   0  0  0  0  0  0  0  0  0  0  0  0
   45.0242   35.3918   41.8669 H   0  0  0  0  0  0  0  0  0  0  0  0
  1  6  2  0
  2  1  1  0
  3  2  2  0
  3  4  1  0
  4  5  2  0
  5  6  1  0
  5  7  1  0
  7 11  1  0
  7  8  1  0
  8  9  2  0
 10  9  1  0
 11 10  2  0
 12 13  2  0
 12  2  1  0
  1 14  1  0
  3 15  1  0
  8 16  1  0
  9 17  1  0
 11 18  1  0
 12 19  1  0
M  ISO  6  14  14  15  14  16  14  17  14  18  14  19   6
M  END
>  <minimizedAffinity>  (1) 
-4.49721622

>  <minimizedRMSD>  (1) 
0.595891237

$$$$
