
     RDKit          3D

 19 20  0  0  0  0  0  0  0  0999 V2000
   44.6390   35.3080   45.2810 C   0  0  0  0  0  0  0  0  0  0  0  0
   45.3010   35.1670   44.0620 C   0  0  0  0  0  0  0  0  0  0  0  0
   46.1940   34.1230   43.9050 C   0  0  0  0  0  0  0  0  0  0  0  0
   46.3930   33.2780   44.9410 N   0  0  0  0  0  0  0  0  0  0  0  0
   45.7560   33.4150   46.1110 C   0  0  0  0  0  0  0  0  0  0  0  0
   44.8730   34.4330   46.2900 N   0  0  0  0  0  0  0  0  0  0  0  0
   45.8850   32.5800   47.2820 C   0  0  0  0  0  0  0  0  0  0  0  0
   45.0120   32.1850   48.2240 C   0  0  0  0  0  0  0  0  0  0  0  0
   45.3680   31.3800   49.2570 C   0  0  0  0  0  0  0  0  0  0  0  0
   46.8190   30.9980   49.2100 C   0  0  0  0  0  0  0  0  0  0  0  0
   47.4160   31.8800   47.6690 S   0  0  0  0  0  0  0  0  0  0  0  0
   45.0220   36.1270   43.0020 C   0  0  0  0  0  0  0  0  0  0  0  0
   45.1860   37.3330   43.2570 O   0  0  0  0  0  0  0  0  0  0  0  0
   43.9245   36.1319   45.4246 H   0  0  0  0  0  0  0  0  0  0  0  0
   46.7318   33.9829   42.9557 H   0  0  0  0  0  0  0  0  0  0  0  0
   43.9688   32.5272   48.1553 H   0  0  0  0  0  0  0  0  0  0  0  0
   44.6719   31.0453   50.0402 H   0  0  0  0  0  0  0  0  0  0  0  0
   47.3874   30.3617   49.9043 H   0  0  0  0  0  0  0  0  0  0  0  0
   44.6783   35.7965   42.0107 H   0  0  0  0  0  0  0  0  0  0  0  0
  1  6  2  0
  2  1  1  0
  3  2  2  0
  3  4  1  0
  4  5  2  0
  5  6  1  0
  5  7  1  0
  7 11  1  0
  7  8  2  0
  8  9  1  0
 10  9  2  0
 11 10  1  0
 12 13  2  0
 12  2  1  0
  1 14  1  0
  3 15  1  0
  8 16  1  0
  9 17  1  0
 10 18  1  0
 12 19  1  0
M  ISO  6  14  14  15  14  16  14  17  14  18  14  19   6
M  END
>  <minimizedAffinity>  (1) 
-4.4399538

>  <minimizedRMSD>  (1) 
0.83869642

$$$$
