
     RDKit          3D

 17 18  0  0  0  0  0  0  0  0999 V2000
   44.6920   35.2090   45.3050 C   0  0  0  0  0  0  0  0  0  0  0  0
   45.4640   34.8680   44.1940 C   0  0  0  0  0  0  0  0  0  0  0  0
   46.2830   33.7550   44.2870 C   0  0  0  0  0  0  0  0  0  0  0  0
   46.2860   33.0560   45.4630 N   0  0  0  0  0  0  0  0  0  0  0  0
   45.5330   33.4080   46.5140 C   0  0  0  0  0  0  0  0  0  0  0  0
   44.7260   34.4910   46.4450 N   0  0  0  0  0  0  0  0  0  0  0  0
   45.7180   32.5030   47.6410 C   0  0  0  0  0  0  0  0  0  0  0  0
   46.9200   32.2170   48.2190 N   0  0  0  0  0  0  0  0  0  0  0  0
   46.7300   31.3780   49.1940 O   0  0  0  0  0  0  0  0  0  0  0  0
   45.4410   31.0920   49.2900 C   0  0  0  0  0  0  0  0  0  0  0  0
   44.8110   31.7900   48.3250 N   0  0  0  0  0  0  0  0  0  0  0  0
   45.3820   35.6810   43.0000 C   0  0  0  0  0  0  0  0  0  0  0  0
   45.1770   36.9100   43.1650 O   0  0  0  0  0  0  0  0  0  0  0  0
   44.0360   36.0902   45.2488 H   0  0  0  0  0  0  0  0  0  0  0  0
   46.9122   33.4424   43.4406 H   0  0  0  0  0  0  0  0  0  0  0  0
   44.9733   30.4137   50.0188 H   0  0  0  0  0  0  0  0  0  0  0  0
   45.4937   35.2446   41.9964 H   0  0  0  0  0  0  0  0  0  0  0  0
  1  6  2  0
  2  3  2  0
  2  1  1  0
  3  4  1  0
  4  5  2  0
  5  7  1  0
  6  5  1  0
  7  8  2  0
  7 11  1  0
  8  9  1  0
  9 10  1  0
 11 10  2  0
 12 13  2  0
 12  2  1  0
  1 14  1  0
  3 15  1  0
 10 16  1  0
 12 17  1  0
M  ISO  4  14  14  15  14  16  14  17   6
M  END
>  <minimizedAffinity>  (1) 
-4.2132926

>  <minimizedRMSD>  (1) 
1.4017812

$$$$
