
     RDKit          3D

 15 15  0  0  0  0  0  0  0  0999 V2000
   44.8470   34.9170   45.2500 C   0  0  0  0  0  0  0  0  0  0  0  0
   45.4400   34.9540   43.9790 C   0  0  0  0  0  0  0  0  0  0  0  0
   46.5090   34.0880   43.7050 C   0  0  0  0  0  0  0  0  0  0  0  0
   46.9200   33.2480   44.6960 N   0  0  0  0  0  0  0  0  0  0  0  0
   46.3290   33.2390   45.9000 C   0  0  0  0  0  0  0  0  0  0  0  0
   45.3060   34.0630   46.1740 N   0  0  0  0  0  0  0  0  0  0  0  0
   44.9180   35.8930   43.0000 C   0  0  0  0  0  0  0  0  0  0  0  0
   45.1630   37.1100   43.2120 O   0  0  0  0  0  0  0  0  0  0  0  0
   46.8600   32.2740   46.9200 C   0  0  0  0  0  0  0  0  0  0  0  0
   44.0076   35.5874   45.4869 H   0  0  0  0  0  0  0  0  0  0  0  0
   47.0002   34.0871   42.7208 H   0  0  0  0  0  0  0  0  0  0  0  0
   44.3420   35.5598   42.1241 H   0  0  0  0  0  0  0  0  0  0  0  0
   46.6500   32.6557   47.9301 H   0  0  0  0  0  0  0  0  0  0  0  0
   46.3727   31.2966   46.7887 H   0  0  0  0  0  0  0  0  0  0  0  0
   47.9464   32.1626   46.7887 H   0  0  0  0  0  0  0  0  0  0  0  0
  1  6  2  0
  2  1  1  0
  3  2  2  0
  3  4  1  0
  4  5  2  0
  5  6  1  0
  5  9  1  0
  7  8  2  0
  7  2  1  0
  1 10  1  0
  3 11  1  0
  7 12  1  0
  9 13  1  0
  9 14  1  0
  9 15  1  0
M  ISO  6  10  14  11  14  12   6  13   8  14   8  15   8
M  END
>  <minimizedAffinity>  (1) 
-3.16154265

>  <minimizedRMSD>  (1) 
0.0677407607

$$$$
