
     RDKit          3D

 14 14  0  0  0  0  0  0  0  0999 V2000
   44.8700   34.8710   45.2660 C   0  0  0  0  0  0  0  0  0  0  0  0
   45.4350   34.9500   43.9920 C   0  0  0  0  0  0  0  0  0  0  0  0
   46.5040   34.1120   43.6750 C   0  0  0  0  0  0  0  0  0  0  0  0
   46.9510   33.2540   44.6220 N   0  0  0  0  0  0  0  0  0  0  0  0
   46.3920   33.1940   45.8470 C   0  0  0  0  0  0  0  0  0  0  0  0
   45.3610   33.9890   46.1770 N   0  0  0  0  0  0  0  0  0  0  0  0
   46.8240   32.3100   46.8760 N   0  0  0  0  0  0  0  0  0  0  0  0
   44.8790   35.9060   43.0520 C   0  0  0  0  0  0  0  0  0  0  0  0
   45.1760   37.1160   43.2380 O   0  0  0  0  0  0  0  0  0  0  0  0
   44.0259   35.5236   45.5335 H   0  0  0  0  0  0  0  0  0  0  0  0
   46.9722   34.1474   42.6803 H   0  0  0  0  0  0  0  0  0  0  0  0
   46.3519   32.3154   47.7914 H   0  0  0  0  0  0  0  0  0  0  0  0
   47.6086   31.6650   46.7050 H   0  0  0  0  0  0  0  0  0  0  0  0
   44.2319   35.5903   42.2204 H   0  0  0  0  0  0  0  0  0  0  0  0
  1  6  2  0
  2  1  1  0
  3  2  2  0
  3  4  1  0
  4  5  2  0
  5  6  1  0
  5  7  1  0
  8  9  2  0
  8  2  1  0
  1 10  1  0
  3 11  1  0
  7 12  1  0
  7 13  1  0
  8 14  1  0
M  ISO  3  10  14  11  14  14   6
M  END
>  <minimizedAffinity>  (1) 
-3.08628058

>  <minimizedRMSD>  (1) 
0.0446442552

$$$$
