
     RDKit          3D

 21 21  0  0  0  0  0  0  0  0999 V2000
   45.0860   34.7140   45.1490 C   0  0  0  0  0  0  0  0  0  0  0  0
   45.8780   34.6430   43.9910 C   0  0  0  0  0  0  0  0  0  0  0  0
   46.8640   33.6590   43.9240 C   0  0  0  0  0  0  0  0  0  0  0  0
   47.0190   32.8140   44.9740 N   0  0  0  0  0  0  0  0  0  0  0  0
   46.2410   32.9100   46.0710 C   0  0  0  0  0  0  0  0  0  0  0  0
   45.2720   33.8580   46.1650 N   0  0  0  0  0  0  0  0  0  0  0  0
   45.6530   35.5800   42.9170 C   0  0  0  0  0  0  0  0  0  0  0  0
   45.1800   36.6960   43.2140 O   0  0  0  0  0  0  0  0  0  0  0  0
   46.3620   32.0140   47.2510 C   0  0  0  0  0  0  0  0  0  0  0  0
   47.6140   32.4050   48.0450 C   0  0  0  0  0  0  0  0  0  0  0  0
   45.1590   32.2010   48.1520 C   0  0  0  0  0  0  0  0  0  0  0  0
   44.3023   35.4823   45.2237 H   0  0  0  0  0  0  0  0  0  0  0  0
   47.5053   33.5695   43.0347 H   0  0  0  0  0  0  0  0  0  0  0  0
   45.8897   35.3201   41.8747 H   0  0  0  0  0  0  0  0  0  0  0  0
   46.4249   30.9696   46.9115 H   0  0  0  0  0  0  0  0  0  0  0  0
   47.4008   32.3384   49.1221 H   0  0  0  0  0  0  0  0  0  0  0  0
   48.4375   31.7212   47.7913 H   0  0  0  0  0  0  0  0  0  0  0  0
   47.9020   33.4359   47.7913 H   0  0  0  0  0  0  0  0  0  0  0  0
   45.4774   32.1515   49.2037 H   0  0  0  0  0  0  0  0  0  0  0  0
   44.7009   33.1811   47.9533 H   0  0  0  0  0  0  0  0  0  0  0  0
   44.4250   31.4062   47.9533 H   0  0  0  0  0  0  0  0  0  0  0  0
  1  6  2  0
  2  1  1  0
  3  2  2  0
  3  4  1  0
  4  5  2  0
  5  6  1  0
  5  9  1  0
  7  8  2  0
  7  2  1  0
  9 10  1  0
  9 11  1  0
  1 12  1  0
  3 13  1  0
  7 14  1  0
  9 15  1  0
 10 16  1  0
 10 17  1  0
 10 18  1  0
 11 19  1  0
 11 20  1  0
 11 21  1  0
M  ISO  8  12  14  13  14  14   6  15   8  16   8  17   8  18   8  19   8
M  ISO  2  20   8  21   8
M  END
>  <minimizedAffinity>  (1) 
-3.70398879

>  <minimizedRMSD>  (1) 
0.541867852

$$$$
