
     RDKit          3D

 42 44  0  0  1  0  0  0  0  0999 V2000
   48.4290   34.4930   41.3830 N   0  0  0  0  0  0  0  0  0  0  0  0
   49.6560   34.7700   42.0490 C   0  0  0  0  0  0  0  0  0  0  0  0
   50.4810   33.5840   42.4070 C   0  0  0  0  0  0  0  0  0  0  0  0
   49.5760   32.5900   42.8680 O   0  0  0  0  0  0  0  0  0  0  0  0
   49.0280   32.1280   41.6560 C   0  0  0  0  0  0  0  0  0  0  0  0
   48.2620   33.1700   40.8970 C   0  0  2  0  0  0  0  0  0  0  0  0
   48.5060   33.1630   39.4320 C   0  0  0  0  0  0  0  0  0  0  0  0
   49.1370   32.2070   38.6830 C   0  0  0  0  0  0  0  0  0  0  0  0
   49.3090   32.3290   37.3200 C   0  0  0  0  0  0  0  0  0  0  0  0
   48.8470   33.4340   36.6340 C   0  0  0  0  0  0  0  0  0  0  0  0
   48.2110   34.4010   37.3850 C   0  0  0  0  0  0  0  0  0  0  0  0
   48.0400   34.2760   38.7550 C   0  0  0  0  0  0  0  0  0  0  0  0
   47.3540   35.1050   42.0630 C   0  0  0  0  0  0  0  0  0  0  0  0
   46.0860   34.3040   42.2130 C   0  0  1  0  0  0  0  0  0  0  0  0
   44.8390   35.4910   44.0930 C   0  0  0  0  0  0  0  0  0  0  0  0
   45.6480   34.4050   43.6270 C   0  0  0  0  0  0  0  0  0  0  0  0
   46.0140   33.4430   44.5540 C   0  0  0  0  0  0  0  0  0  0  0  0
   45.5840   33.5950   45.8290 N   0  0  0  0  0  0  0  0  0  0  0  0
   44.8270   34.6150   46.2560 C   0  0  0  0  0  0  0  0  0  0  0  0
   44.4520   35.5750   45.3660 N   0  0  0  0  0  0  0  0  0  0  0  0
   45.0170   34.7290   41.2810 C   0  0  0  0  0  0  0  0  0  0  0  0
   50.2586   35.4144   41.3920 H   0  0  0  0  0  0  0  0  0  0  0  0
   49.3780   35.2398   43.0040 H   0  0  0  0  0  0  0  0  0  0  0  0
   51.0279   33.2206   41.5245 H   0  0  0  0  0  0  0  0  0  0  0  0
   51.2252   33.8339   43.1775 H   0  0  0  0  0  0  0  0  0  0  0  0
   49.8501   31.7703   41.0187 H   0  0  0  0  0  0  0  0  0  0  0  0
   48.3139   31.3316   41.9125 H   0  0  0  0  0  0  0  0  0  0  0  0
   47.2209   32.8646   41.0780 H   0  0  0  0  0  0  0  0  0  0  0  0
   49.5213   31.3078   39.1868 H   0  0  0  0  0  0  0  0  0  0  0  0
   49.8249   31.5293   36.7684 H   0  0  0  0  0  0  0  0  0  0  0  0
   48.9788   33.5381   35.5469 H   0  0  0  0  0  0  0  0  0  0  0  0
   47.8273   35.3000   36.8805 H   0  0  0  0  0  0  0  0  0  0  0  0
   47.5263   35.0734   39.3120 H   0  0  0  0  0  0  0  0  0  0  0  0
   47.7049   35.3608   43.0737 H   0  0  0  0  0  0  0  0  0  0  0  0
   47.0736   35.9630   41.4344 H   0  0  0  0  0  0  0  0  0  0  0  0
   46.2939   33.2567   41.9484 H   0  0  0  0  0  0  0  0  0  0  0  0
   44.5299   36.2736   43.3845 H   0  0  0  0  0  0  0  0  0  0  0  0
   46.6346   32.5825   44.2635 H   0  0  0  0  0  0  0  0  0  0  0  0
   44.5135   34.6758   47.3086 H   0  0  0  0  0  0  0  0  0  0  0  0
   44.1456   35.0754   41.8560 H   0  0  0  0  0  0  0  0  0  0  0  0
   45.3874   35.5483   40.6473 H   0  0  0  0  0  0  0  0  0  0  0  0
   44.7238   33.8791   40.6473 H   0  0  0  0  0  0  0  0  0  0  0  0
  1  2  1  0
  1 13  1  0
  2  3  1  0
  3  4  1  0
  5  4  1  0
  6  1  1  0
  6  5  1  0
  7  6  1  0
  8  7  2  0
  9  8  1  0
 10  9  2  0
 10 11  1  0
 11 12  2  0
 12  7  1  0
 13 14  1  0
 14 16  1  0
 15 20  2  0
 16 15  1  0
 16 17  2  0
 17 18  1  0
 18 19  2  0
 20 19  1  0
 21 14  1  0
  2 22  1  0
  2 23  1  0
  3 24  1  0
  3 25  1  0
  5 26  1  0
  5 27  1  0
  6 28  1  6
  8 29  1  0
  9 30  1  0
 10 31  1  0
 11 32  1  0
 12 33  1  0
 13 34  1  0
 13 35  1  0
 14 36  1  6
 15 37  1  0
 17 38  1  0
 19 39  1  0
 21 40  1  0
 21 41  1  0
 21 42  1  0
M  ISO  8  22  13  23  13  24  13  25  13  26  13  27  13  28  13  29  14
M  ISO  8  30  14  31  14  32  14  33  14  34   8  35   8  36   8  37  14
M  ISO  5  38  14  39  14  40   8  41   8  42   8
M  END
>  <minimizedAffinity>  (1) 
-5.25793123

>  <minimizedRMSD>  (1) 
0.854767978

$$$$
