
     RDKit          3D

 35 38  0  0  0  0  0  0  0  0999 V2000
   44.9450   34.8850   45.2770 C   0  0  0  0  0  0  0  0  0  0  0  0
   45.7640   34.6780   44.1810 C   0  0  0  0  0  0  0  0  0  0  0  0
   46.7010   33.6560   44.2360 C   0  0  0  0  0  0  0  0  0  0  0  0
   46.7710   32.8970   45.3770 N   0  0  0  0  0  0  0  0  0  0  0  0
   45.9730   33.1130   46.4210 C   0  0  0  0  0  0  0  0  0  0  0  0
   45.0570   34.1080   46.3750 N   0  0  0  0  0  0  0  0  0  0  0  0
   46.1740   32.2380   47.5250 N   0  0  0  0  0  0  0  0  0  0  0  0
   47.1810   31.5480   48.0060 N   0  0  0  0  0  0  0  0  0  0  0  0
   46.7720   30.8750   49.1130 C   0  0  0  0  0  0  0  0  0  0  0  0
   45.4380   31.1700   49.3200 C   0  0  0  0  0  0  0  0  0  0  0  0
   45.0900   32.0400   48.2910 C   0  0  0  0  0  0  0  0  0  0  0  0
   45.6370   35.5140   43.0130 C   0  0  0  0  0  0  0  0  0  0  0  0
   44.8550   36.4900   43.0960 O   0  0  0  0  0  0  0  0  0  0  0  0
   46.4770   35.0490   41.9040 C   0  0  0  0  0  0  0  0  0  0  0  0
   47.8230   35.3800   41.8670 C   0  0  0  0  0  0  0  0  0  0  0  0
   48.6790   34.9840   40.8630 C   0  0  0  0  0  0  0  0  0  0  0  0
   48.1930   34.2150   39.8260 C   0  0  0  0  0  0  0  0  0  0  0  0
   46.8580   33.8670   39.8330 C   0  0  0  0  0  0  0  0  0  0  0  0
   46.3220   33.0880   38.8010 C   0  0  0  0  0  0  0  0  0  0  0  0
   44.9770   32.7190   38.7770 C   0  0  0  0  0  0  0  0  0  0  0  0
   44.1860   33.1500   39.8090 C   0  0  0  0  0  0  0  0  0  0  0  0
   44.7140   33.9180   40.8270 C   0  0  0  0  0  0  0  0  0  0  0  0
   46.0280   34.2790   40.8520 C   0  0  0  0  0  0  0  0  0  0  0  0
   44.1958   35.6901   45.2532 H   0  0  0  0  0  0  0  0  0  0  0  0
   47.3710   33.4592   43.3861 H   0  0  0  0  0  0  0  0  0  0  0  0
   47.3927   30.2127   49.7344 H   0  0  0  0  0  0  0  0  0  0  0  0
   44.7894   30.7968   50.1262 H   0  0  0  0  0  0  0  0  0  0  0  0
   44.0979   32.4880   48.1329 H   0  0  0  0  0  0  0  0  0  0  0  0
   48.2299   35.9929   42.6848 H   0  0  0  0  0  0  0  0  0  0  0  0
   49.7387   35.2778   40.8879 H   0  0  0  0  0  0  0  0  0  0  0  0
   48.8553   33.8865   39.0115 H   0  0  0  0  0  0  0  0  0  0  0  0
   46.9809   32.7570   37.9847 H   0  0  0  0  0  0  0  0  0  0  0  0
   44.5674   32.1056   37.9609 H   0  0  0  0  0  0  0  0  0  0  0  0
   43.1195   32.8814   39.8265 H   0  0  0  0  0  0  0  0  0  0  0  0
   44.0544   34.2487   41.6428 H   0  0  0  0  0  0  0  0  0  0  0  0
  1  6  2  0
  2  3  2  0
  2  1  1  0
  3  4  1  0
  4  5  2  0
  5  7  1  0
  6  5  1  0
  7  8  1  0
  7 11  1  0
  8  9  2  0
  9 10  1  0
 11 10  2  0
 12 13  2  0
 12  2  1  0
 14 12  1  0
 15 14  2  0
 16 15  1  0
 17 18  1  0
 17 16  2  0
 18 23  2  0
 19 18  1  0
 20 19  2  0
 20 21  1  0
 21 22  2  0
 22 23  1  0
 23 14  1  0
  1 24  1  0
  3 25  1  0
  9 26  1  0
 10 27  1  0
 11 28  1  0
 15 29  1  0
 16 30  1  0
 17 31  1  0
 19 32  1  0
 20 33  1  0
 21 34  1  0
 22 35  1  0
M  ISO  8  24  14  25  14  26  14  27  14  28  14  29  14  30  14  31  14
M  ISO  4  32  14  33  14  34  14  35  14
M  END
>  <minimizedAffinity>  (1) 
-7.07794142

>  <minimizedRMSD>  (1) 
1.71257865

$$$$
