
     RDKit          3D

 34 36  0  0  0  0  0  0  0  0999 V2000
   44.7180   35.0330   45.3260 C   0  0  0  0  0  0  0  0  0  0  0  0
   45.4500   34.8730   44.1390 C   0  0  0  0  0  0  0  0  0  0  0  0
   46.4450   33.8950   44.0890 C   0  0  0  0  0  0  0  0  0  0  0  0
   46.6610   33.1360   45.2030 N   0  0  0  0  0  0  0  0  0  0  0  0
   45.9520   33.3060   46.3250 C   0  0  0  0  0  0  0  0  0  0  0  0
   44.9710   34.2620   46.3900 N   0  0  0  0  0  0  0  0  0  0  0  0
   46.2800   32.4500   47.4160 N   0  0  0  0  0  0  0  0  0  0  0  0
   47.3970   31.8140   47.7650 N   0  0  0  0  0  0  0  0  0  0  0  0
   47.1490   31.1290   48.9140 C   0  0  0  0  0  0  0  0  0  0  0  0
   45.8370   31.3550   49.2750 C   0  0  0  0  0  0  0  0  0  0  0  0
   45.3270   32.1990   48.2950 C   0  0  0  0  0  0  0  0  0  0  0  0
   45.1430   35.7290   43.0180 C   0  0  0  0  0  0  0  0  0  0  0  0
   45.3030   36.9600   43.2050 O   0  0  0  0  0  0  0  0  0  0  0  0
   44.6860   35.2120   41.7740 N   0  0  0  0  0  0  0  0  0  0  0  0
   45.3660   34.2940   40.9080 C   0  0  0  0  0  0  0  0  0  0  0  0
   44.3710   33.5160   40.0720 C   0  0  0  0  0  0  0  0  0  0  0  0
   43.1350   33.2060   40.8630 C   0  0  0  0  0  0  0  0  0  0  0  0
   42.4090   34.4700   41.2660 C   0  0  0  0  0  0  0  0  0  0  0  0
   43.3760   35.6450   41.2860 C   0  0  0  0  0  0  0  0  0  0  0  0
   43.9300   35.7984   45.3820 H   0  0  0  0  0  0  0  0  0  0  0  0
   47.0391   33.7401   43.1763 H   0  0  0  0  0  0  0  0  0  0  0  0
   47.8699   30.5033   49.4605 H   0  0  0  0  0  0  0  0  0  0  0  0
   45.3073   30.9532   50.1513 H   0  0  0  0  0  0  0  0  0  0  0  0
   44.3004   32.5923   48.2580 H   0  0  0  0  0  0  0  0  0  0  0  0
   46.0379   34.8551   40.2418 H   0  0  0  0  0  0  0  0  0  0  0  0
   45.9435   33.5874   41.5222 H   0  0  0  0  0  0  0  0  0  0  0  0
   44.8347   32.5739   39.7442 H   0  0  0  0  0  0  0  0  0  0  0  0
   44.0880   34.1275   39.2025 H   0  0  0  0  0  0  0  0  0  0  0  0
   42.4633   32.5869   40.2502 H   0  0  0  0  0  0  0  0  0  0  0  0
   43.4327   32.6704   41.7765 H   0  0  0  0  0  0  0  0  0  0  0  0
   41.6044   34.6733   40.5440 H   0  0  0  0  0  0  0  0  0  0  0  0
   41.9844   34.3361   42.2719 H   0  0  0  0  0  0  0  0  0  0  0  0
   43.4820   36.0460   40.2672 H   0  0  0  0  0  0  0  0  0  0  0  0
   42.9821   36.4232   41.9563 H   0  0  0  0  0  0  0  0  0  0  0  0
  1  6  2  0
  2  1  1  0
  3  2  2  0
  3  4  1  0
  4  5  2  0
  5  6  1  0
  5  7  1  0
  7  8  1  0
  7 11  1  0
  8  9  2  0
  9 10  1  0
 11 10  2  0
 12 13  2  0
 12  2  1  0
 14 12  1  0
 15 14  1  0
 16 17  1  0
 16 15  1  0
 17 18  1  0
 18 19  1  0
 19 14  1  0
  1 20  1  0
  3 21  1  0
  9 22  1  0
 10 23  1  0
 11 24  1  0
 15 25  1  0
 15 26  1  0
 16 27  1  0
 16 28  1  0
 17 29  1  0
 17 30  1  0
 18 31  1  0
 18 32  1  0
 19 33  1  0
 19 34  1  0
M  ISO  8  20  14  21  14  22  14  23  14  24  14  25  13  26  13  27  13
M  ISO  7  28  13  29  13  30  13  31  13  32  13  33  13  34  13
M  END
>  <minimizedAffinity>  (1) 
-6.00738239

>  <minimizedRMSD>  (1) 
0.515277088

$$$$
