
     RDKit          3D

 31 33  0  0  0  0  0  0  0  0999 V2000
   44.7350   35.0240   45.3060 C   0  0  0  0  0  0  0  0  0  0  0  0
   45.4580   34.8650   44.1360 C   0  0  0  0  0  0  0  0  0  0  0  0
   46.4390   33.9080   44.0970 C   0  0  0  0  0  0  0  0  0  0  0  0
   46.6490   33.1560   45.2240 N   0  0  0  0  0  0  0  0  0  0  0  0
   45.9350   33.3260   46.3530 C   0  0  0  0  0  0  0  0  0  0  0  0
   44.9650   34.2670   46.4040 N   0  0  0  0  0  0  0  0  0  0  0  0
   46.2990   32.4470   47.4170 N   0  0  0  0  0  0  0  0  0  0  0  0
   47.3700   31.7840   47.7760 N   0  0  0  0  0  0  0  0  0  0  0  0
   47.1250   31.0940   48.9070 C   0  0  0  0  0  0  0  0  0  0  0  0
   45.8110   31.3480   49.2710 C   0  0  0  0  0  0  0  0  0  0  0  0
   45.3110   32.2150   48.2990 C   0  0  0  0  0  0  0  0  0  0  0  0
   45.1060   35.7290   43.0530 C   0  0  0  0  0  0  0  0  0  0  0  0
   45.2590   36.9490   43.1450 O   0  0  0  0  0  0  0  0  0  0  0  0
   44.5680   35.2250   41.8340 N   0  0  0  0  0  0  0  0  0  0  0  0
   43.2750   35.5480   41.2530 C   0  0  0  0  0  0  0  0  0  0  0  0
   42.7140   34.1330   41.0580 C   0  0  0  0  0  0  0  0  0  0  0  0
   43.9460   33.2680   40.8190 C   0  0  0  0  0  0  0  0  0  0  0  0
   45.0840   34.2980   40.8400 C   0  0  0  0  0  0  0  0  0  0  0  0
   43.9475   35.7911   45.3444 H   0  0  0  0  0  0  0  0  0  0  0  0
   47.0393   33.7484   43.1892 H   0  0  0  0  0  0  0  0  0  0  0  0
   47.8361   30.4482   49.4430 H   0  0  0  0  0  0  0  0  0  0  0  0
   45.2746   30.9489   50.1445 H   0  0  0  0  0  0  0  0  0  0  0  0
   44.2941   32.6326   48.2611 H   0  0  0  0  0  0  0  0  0  0  0  0
   42.6550   36.1425   41.9401 H   0  0  0  0  0  0  0  0  0  0  0  0
   43.3155   36.1617   40.3410 H   0  0  0  0  0  0  0  0  0  0  0  0
   42.1734   33.8011   41.9567 H   0  0  0  0  0  0  0  0  0  0  0  0
   41.9944   34.0773   40.2279 H   0  0  0  0  0  0  0  0  0  0  0  0
   43.8903   32.7569   39.8466 H   0  0  0  0  0  0  0  0  0  0  0  0
   44.0681   32.4643   41.5601 H   0  0  0  0  0  0  0  0  0  0  0  0
   46.0362   33.8478   41.1573 H   0  0  0  0  0  0  0  0  0  0  0  0
   45.3188   34.7486   39.8644 H   0  0  0  0  0  0  0  0  0  0  0  0
  1  6  2  0
  2  1  1  0
  3  2  2  0
  3  4  1  0
  4  5  2  0
  5  6  1  0
  5  7  1  0
  7  8  1  0
  7 11  1  0
  8  9  2  0
  9 10  1  0
 11 10  2  0
 12 13  2  0
 12  2  1  0
 14 12  1  0
 15 14  1  0
 16 15  1  0
 17 18  1  0
 17 16  1  0
 18 14  1  0
  1 19  1  0
  3 20  1  0
  9 21  1  0
 10 22  1  0
 11 23  1  0
 15 24  1  0
 15 25  1  0
 16 26  1  0
 16 27  1  0
 17 28  1  0
 17 29  1  0
 18 30  1  0
 18 31  1  0
M  ISO  8  19  14  20  14  21  14  22  14  23  14  24  13  25  13  26  13
M  ISO  5  27  13  28  13  29  13  30  13  31  13
M  END
>  <minimizedAffinity>  (1) 
-5.75506592

>  <minimizedRMSD>  (1) 
0.517200291

$$$$
