
     RDKit          3D

 30 33  0  0  0  0  0  0  0  0999 V2000
   44.6380   34.9730   45.4240 C   0  0  0  0  0  0  0  0  0  0  0  0
   45.3040   34.8240   44.2150 C   0  0  0  0  0  0  0  0  0  0  0  0
   46.3090   33.8750   44.1350 C   0  0  0  0  0  0  0  0  0  0  0  0
   46.6080   33.1260   45.2400 N   0  0  0  0  0  0  0  0  0  0  0  0
   45.9440   33.2960   46.3940 C   0  0  0  0  0  0  0  0  0  0  0  0
   44.9430   34.2260   46.5080 N   0  0  0  0  0  0  0  0  0  0  0  0
   46.3460   32.4540   47.4780 N   0  0  0  0  0  0  0  0  0  0  0  0
   47.4860   31.8250   47.7620 N   0  0  0  0  0  0  0  0  0  0  0  0
   47.3230   31.1540   48.9310 C   0  0  0  0  0  0  0  0  0  0  0  0
   46.0360   31.3870   49.3700 C   0  0  0  0  0  0  0  0  0  0  0  0
   45.4440   32.2210   48.4190 C   0  0  0  0  0  0  0  0  0  0  0  0
   44.9240   35.6540   43.1040 C   0  0  0  0  0  0  0  0  0  0  0  0
   45.3040   36.8480   43.1290 O   0  0  0  0  0  0  0  0  0  0  0  0
   44.8570   33.4800   39.0480 N   0  0  0  0  0  0  0  0  0  0  0  0
   46.0970   33.5210   39.5800 C   0  0  0  0  0  0  0  0  0  0  0  0
   46.0300   34.1720   40.7590 N   0  0  0  0  0  0  0  0  0  0  0  0
   44.7700   34.5250   40.9530 C   0  0  0  0  0  0  0  0  0  0  0  0
   44.1380   35.1980   41.9670 C   0  0  0  0  0  0  0  0  0  0  0  0
   42.8030   35.4600   41.9620 N   0  0  0  0  0  0  0  0  0  0  0  0
   42.1040   35.0140   40.8790 C   0  0  0  0  0  0  0  0  0  0  0  0
   42.6770   34.3510   39.8600 N   0  0  0  0  0  0  0  0  0  0  0  0
   43.9970   34.1000   39.8820 C   0  0  0  0  0  0  0  0  0  0  0  0
   43.8368   35.7227   45.5020 H   0  0  0  0  0  0  0  0  0  0  0  0
   46.8600   33.7252   43.1948 H   0  0  0  0  0  0  0  0  0  0  0  0
   48.0800   30.5364   49.4365 H   0  0  0  0  0  0  0  0  0  0  0  0
   45.5696   30.9945   50.2856 H   0  0  0  0  0  0  0  0  0  0  0  0
   44.4165   32.6127   48.4466 H   0  0  0  0  0  0  0  0  0  0  0  0
   44.6073   33.0446   38.1485 H   0  0  0  0  0  0  0  0  0  0  0  0
   47.0060   33.0963   39.1291 H   0  0  0  0  0  0  0  0  0  0  0  0
   41.0216   35.2058   40.8377 H   0  0  0  0  0  0  0  0  0  0  0  0
  1  6  2  0
  2  1  1  0
  3  2  2  0
  3  4  1  0
  4  5  2  0
  5  6  1  0
  5  7  1  0
  7  8  1  0
  7 11  1  0
  8  9  2  0
  9 10  1  0
 11 10  2  0
 12 13  2  0
 12  2  1  0
 14 15  1  0
 14 22  1  0
 15 16  2  0
 16 17  1  0
 17 18  2  0
 18 12  1  0
 19 18  1  0
 20 19  2  0
 21 22  2  0
 21 20  1  0
 22 17  1  0
  1 23  1  0
  3 24  1  0
  9 25  1  0
 10 26  1  0
 11 27  1  0
 14 28  1  0
 15 29  1  0
 20 30  1  0
M  ISO  8  23  14  24  14  25  14  26  14  27  14  28   9  29  14  30  14
M  END
>  <minimizedAffinity>  (1) 
-6.15056086

>  <minimizedRMSD>  (1) 
1.49531782

$$$$
