
     RDKit          3D

 39 40  0  0  1  0  0  0  0  0999 V2000
   48.4900   34.4820   41.1600 N   0  0  0  0  0  0  0  0  0  0  0  0
   49.5570   34.7030   42.0770 C   0  0  0  0  0  0  0  0  0  0  0  0
   50.2640   33.4940   42.5610 C   0  0  0  0  0  0  0  0  0  0  0  0
   49.2710   32.5230   42.7820 O   0  0  0  0  0  0  0  0  0  0  0  0
   48.9540   32.0830   41.4990 C   0  0  0  0  0  0  0  0  0  0  0  0
   48.4270   33.1890   40.6030 C   0  0  2  0  0  0  0  0  0  0  0  0
   49.2050   33.2400   39.3520 N   0  0  0  0  0  0  0  0  0  0  0  0
   48.6060   33.6810   38.1180 C   0  0  0  0  0  0  0  0  0  0  0  0
   47.3600   34.0740   38.1480 N   0  0  0  0  0  0  0  0  0  0  0  0
   49.3840   33.6750   36.9170 N   0  0  0  0  0  0  0  0  0  0  0  0
   46.9580   34.3860   37.2370 H   0  0  0  0  0  0  0  0  0  0  0  0
   47.3080   35.1170   41.6110 C   0  0  0  0  0  0  0  0  0  0  0  0
   46.1200   34.2270   41.8730 C   0  0  1  0  0  0  0  0  0  0  0  0
   44.8760   35.6830   43.5470 C   0  0  0  0  0  0  0  0  0  0  0  0
   45.6300   34.5100   43.2290 C   0  0  0  0  0  0  0  0  0  0  0  0
   45.8830   33.6410   44.2860 C   0  0  0  0  0  0  0  0  0  0  0  0
   45.4120   33.9520   45.5190 N   0  0  0  0  0  0  0  0  0  0  0  0
   44.7080   35.0590   45.7870 C   0  0  0  0  0  0  0  0  0  0  0  0
   44.4390   35.9350   44.7830 N   0  0  0  0  0  0  0  0  0  0  0  0
   45.0430   34.3690   40.8650 C   0  0  0  0  0  0  0  0  0  0  0  0
   50.2969   35.3489   41.5817 H   0  0  0  0  0  0  0  0  0  0  0  0
   49.0917   35.1489   42.9685 H   0  0  0  0  0  0  0  0  0  0  0  0
   50.9802   33.1420   41.8039 H   0  0  0  0  0  0  0  0  0  0  0  0
   50.8334   33.7022   43.4788 H   0  0  0  0  0  0  0  0  0  0  0  0
   49.8605   31.6622   41.0394 H   0  0  0  0  0  0  0  0  0  0  0  0
   48.1557   31.3327   41.5977 H   0  0  0  0  0  0  0  0  0  0  0  0
   47.3691   32.9320   40.4455 H   0  0  0  0  0  0  0  0  0  0  0  0
   50.1948   32.9552   39.3602 H   0  0  0  0  0  0  0  0  0  0  0  0
   50.3634   33.3568   36.9394 H   0  0  0  0  0  0  0  0  0  0  0  0
   48.9646   33.9889   36.0301 H   0  0  0  0  0  0  0  0  0  0  0  0
   47.5471   35.6389   42.5493 H   0  0  0  0  0  0  0  0  0  0  0  0
   47.0000   35.7752   40.7853 H   0  0  0  0  0  0  0  0  0  0  0  0
   46.4444   33.1791   41.7909 H   0  0  0  0  0  0  0  0  0  0  0  0
   44.6485   36.4018   42.7460 H   0  0  0  0  0  0  0  0  0  0  0  0
   46.4561   32.7162   44.1239 H   0  0  0  0  0  0  0  0  0  0  0  0
   44.3512   35.2574   46.8085 H   0  0  0  0  0  0  0  0  0  0  0  0
   44.0772   34.4963   41.3758 H   0  0  0  0  0  0  0  0  0  0  0  0
   45.2436   35.2485   40.2355 H   0  0  0  0  0  0  0  0  0  0  0  0
   45.0088   33.4676   40.2355 H   0  0  0  0  0  0  0  0  0  0  0  0
  1 12  1  0
  1  2  1  0
  2  3  1  0
  3  4  1  0
  5  4  1  0
  6  1  1  0
  6  5  1  0
  7  6  1  0
  8  9  2  0
  8  7  1  0
 10  8  1  0
 11  9  1  0
 12 13  1  0
 13 15  1  0
 14 19  2  0
 15 14  1  0
 15 16  2  0
 16 17  1  0
 17 18  2  0
 19 18  1  0
 20 13  1  0
  2 21  1  0
  2 22  1  0
  3 23  1  0
  3 24  1  0
  5 25  1  0
  5 26  1  0
  6 27  1  6
  7 28  1  0
 10 29  1  0
 10 30  1  0
 12 31  1  0
 12 32  1  0
 13 33  1  1
 14 34  1  0
 16 35  1  0
 18 36  1  0
 20 37  1  0
 20 38  1  0
 20 39  1  0
M  ISO  8  21  13  22  13  23  13  24  13  25  13  26  13  27  13  31   8
M  ISO  8  32   8  33   8  34  14  35  14  36  14  37   8  38   8  39   8
M  END
>  <minimizedAffinity>  (1) 
-5.18046331

>  <minimizedRMSD>  (1) 
1.04557526

$$$$
