
     RDKit          3D

 32 34  0  0  0  0  0  0  0  0999 V2000
   44.8600   34.7620   45.2580 C   0  0  0  0  0  0  0  0  0  0  0  0
   45.5620   34.5340   44.0770 C   0  0  0  0  0  0  0  0  0  0  0  0
   46.5690   33.5700   44.0730 C   0  0  0  0  0  0  0  0  0  0  0  0
   46.8190   32.8960   45.2310 N   0  0  0  0  0  0  0  0  0  0  0  0
   46.1390   33.1240   46.3580 C   0  0  0  0  0  0  0  0  0  0  0  0
   45.1590   34.0600   46.3660 N   0  0  0  0  0  0  0  0  0  0  0  0
   46.5230   32.3370   47.4750 N   0  0  0  0  0  0  0  0  0  0  0  0
   47.6320   31.7320   47.8540 N   0  0  0  0  0  0  0  0  0  0  0  0
   47.4140   31.1080   49.0460 C   0  0  0  0  0  0  0  0  0  0  0  0
   46.0960   31.3510   49.4080 C   0  0  0  0  0  0  0  0  0  0  0  0
   45.5630   32.1330   48.3860 C   0  0  0  0  0  0  0  0  0  0  0  0
   45.2290   35.2930   42.9070 C   0  0  0  0  0  0  0  0  0  0  0  0
   45.3620   36.5260   42.9670 O   0  0  0  0  0  0  0  0  0  0  0  0
   44.7510   34.9380   41.6090 N   0  0  0  0  0  0  0  0  0  0  0  0
   43.4810   35.6270   41.4840 C   0  0  0  0  0  0  0  0  0  0  0  0
   42.9010   35.2200   40.1290 C   0  0  0  0  0  0  0  0  0  0  0  0
   42.7990   33.8390   40.0200 O   0  0  0  0  0  0  0  0  0  0  0  0
   44.0130   33.1940   40.1570 C   0  0  0  0  0  0  0  0  0  0  0  0
   45.1500   34.1420   40.4700 C   0  0  0  0  0  0  0  0  0  0  0  0
   44.0603   35.5168   45.2849 H   0  0  0  0  0  0  0  0  0  0  0  0
   47.1459   33.3591   43.1605 H   0  0  0  0  0  0  0  0  0  0  0  0
   48.1478   30.5198   49.6165 H   0  0  0  0  0  0  0  0  0  0  0  0
   45.5800   30.9992   50.3135 H   0  0  0  0  0  0  0  0  0  0  0  0
   44.5331   32.5162   48.3360 H   0  0  0  0  0  0  0  0  0  0  0  0
   42.8023   35.3240   42.2949 H   0  0  0  0  0  0  0  0  0  0  0  0
   43.6103   36.7173   41.5513 H   0  0  0  0  0  0  0  0  0  0  0  0
   41.9003   35.6633   40.0194 H   0  0  0  0  0  0  0  0  0  0  0  0
   43.5749   35.5827   39.3388 H   0  0  0  0  0  0  0  0  0  0  0  0
   43.9314   32.4616   40.9737 H   0  0  0  0  0  0  0  0  0  0  0  0
   44.2408   32.7104   39.1956 H   0  0  0  0  0  0  0  0  0  0  0  0
   46.0592   33.5715   40.7105 H   0  0  0  0  0  0  0  0  0  0  0  0
   45.3673   34.7854   39.6047 H   0  0  0  0  0  0  0  0  0  0  0  0
  1  6  2  0
  2  1  1  0
  3  2  2  0
  3  4  1  0
  4  5  2  0
  5  6  1  0
  5  7  1  0
  7  8  1  0
  7 11  1  0
  8  9  2  0
  9 10  1  0
 11 10  2  0
 12 13  2  0
 12  2  1  0
 14 12  1  0
 15 14  1  0
 16 15  1  0
 17 16  1  0
 17 18  1  0
 18 19  1  0
 19 14  1  0
  1 20  1  0
  3 21  1  0
  9 22  1  0
 10 23  1  0
 11 24  1  0
 15 25  1  0
 15 26  1  0
 16 27  1  0
 16 28  1  0
 18 29  1  0
 18 30  1  0
 19 31  1  0
 19 32  1  0
M  ISO  8  20  14  21  14  22  14  23  14  24  14  25  13  26  13  27  13
M  ISO  5  28  13  29  13  30  13  31  13  32  13
M  END
>  <minimizedAffinity>  (1) 
-5.66862965

>  <minimizedRMSD>  (1) 
0.605392873

$$$$
