
     RDKit          3D

 27 29  0  0  0  0  0  0  0  0999 V2000
   44.7110   35.0240   45.3300 C   0  0  0  0  0  0  0  0  0  0  0  0
   45.4230   34.8690   44.1500 C   0  0  0  0  0  0  0  0  0  0  0  0
   46.4090   33.9100   44.1120 C   0  0  0  0  0  0  0  0  0  0  0  0
   46.6430   33.1570   45.2320 N   0  0  0  0  0  0  0  0  0  0  0  0
   45.9370   33.3290   46.3620 C   0  0  0  0  0  0  0  0  0  0  0  0
   44.9690   34.2670   46.4040 N   0  0  0  0  0  0  0  0  0  0  0  0
   46.3090   32.4550   47.4320 N   0  0  0  0  0  0  0  0  0  0  0  0
   47.3920   31.8040   47.7830 N   0  0  0  0  0  0  0  0  0  0  0  0
   47.1810   31.1080   48.9130 C   0  0  0  0  0  0  0  0  0  0  0  0
   45.8540   31.3570   49.2820 C   0  0  0  0  0  0  0  0  0  0  0  0
   45.3220   32.2250   48.3110 C   0  0  0  0  0  0  0  0  0  0  0  0
   45.1200   35.6910   43.0200 C   0  0  0  0  0  0  0  0  0  0  0  0
   45.3550   36.9010   43.0850 O   0  0  0  0  0  0  0  0  0  0  0  0
   44.5430   35.1240   41.8040 C   0  0  0  0  0  0  0  0  0  0  0  0
   43.2690   35.5410   41.4740 C   0  0  0  0  0  0  0  0  0  0  0  0
   42.5930   35.0870   40.3470 C   0  0  0  0  0  0  0  0  0  0  0  0
   43.2860   34.1960   39.5880 N   0  0  0  0  0  0  0  0  0  0  0  0
   44.5220   33.7900   39.9070 C   0  0  0  0  0  0  0  0  0  0  0  0
   45.1660   34.2500   41.0190 N   0  0  0  0  0  0  0  0  0  0  0  0
   43.9180   35.7844   45.3848 H   0  0  0  0  0  0  0  0  0  0  0  0
   46.9994   33.7508   43.1976 H   0  0  0  0  0  0  0  0  0  0  0  0
   47.9053   30.4709   49.4416 H   0  0  0  0  0  0  0  0  0  0  0  0
   45.3293   30.9527   50.1602 H   0  0  0  0  0  0  0  0  0  0  0  0
   44.3011   32.6333   48.2790 H   0  0  0  0  0  0  0  0  0  0  0  0
   42.7662   36.2649   42.1322 H   0  0  0  0  0  0  0  0  0  0  0  0
   41.5774   35.4221   40.0894 H   0  0  0  0  0  0  0  0  0  0  0  0
   45.0321   33.0659   39.2547 H   0  0  0  0  0  0  0  0  0  0  0  0
  1  6  2  0
  2  1  1  0
  3  2  2  0
  3  4  1  0
  4  5  2  0
  5  6  1  0
  5  7  1  0
  7  8  1  0
  7 11  1  0
  8  9  2  0
  9 10  1  0
 11 10  2  0
 12 13  2  0
 12  2  1  0
 14 12  1  0
 15 14  2  0
 16 15  1  0
 17 18  1  0
 17 16  2  0
 18 19  2  0
 19 14  1  0
  1 20  1  0
  3 21  1  0
  9 22  1  0
 10 23  1  0
 11 24  1  0
 15 25  1  0
 16 26  1  0
 18 27  1  0
M  ISO  8  20  14  21  14  22  14  23  14  24  14  25  14  26  14  27  14
M  END
>  <minimizedAffinity>  (1) 
-5.71322823

>  <minimizedRMSD>  (1) 
0.951672137

$$$$
