
     RDKit          3D

 41 43  0  0  1  0  0  0  0  0999 V2000
   48.0640   34.7670   41.3940 N   0  0  0  0  0  0  0  0  0  0  0  0
   49.3050   35.1670   42.0070 C   0  0  0  0  0  0  0  0  0  0  0  0
   50.2150   34.0710   42.4120 C   0  0  0  0  0  0  0  0  0  0  0  0
   49.3980   33.0710   42.9660 O   0  0  0  0  0  0  0  0  0  0  0  0
   48.8280   32.4710   41.8460 C   0  0  0  0  0  0  0  0  0  0  0  0
   47.9960   33.4180   41.0190 C   0  0  2  0  0  0  0  0  0  0  0  0
   48.4180   33.3170   39.5730 C   0  0  0  0  0  0  0  0  0  0  0  0
   48.0360   34.2960   38.6490 C   0  0  0  0  0  0  0  0  0  0  0  0
   48.4080   34.2290   37.3190 C   0  0  0  0  0  0  0  0  0  0  0  0
   49.1740   33.1210   37.0150 C   0  0  0  0  0  0  0  0  0  0  0  0
   49.5750   32.1320   37.8870 C   0  0  0  0  0  0  0  0  0  0  0  0
   49.1710   32.2640   39.1860 N   0  0  0  0  0  0  0  0  0  0  0  0
   46.9810   35.3780   42.0710 C   0  0  0  0  0  0  0  0  0  0  0  0
   45.7470   34.5320   42.2660 C   0  0  1  0  0  0  0  0  0  0  0  0
   44.7410   35.4340   44.4250 C   0  0  0  0  0  0  0  0  0  0  0  0
   45.4840   34.4420   43.7090 C   0  0  0  0  0  0  0  0  0  0  0  0
   45.9530   33.3800   44.4690 C   0  0  0  0  0  0  0  0  0  0  0  0
   45.6840   33.3550   45.7950 N   0  0  0  0  0  0  0  0  0  0  0  0
   44.9860   34.2990   46.4360 C   0  0  0  0  0  0  0  0  0  0  0  0
   44.5050   35.3610   45.7340 N   0  0  0  0  0  0  0  0  0  0  0  0
   44.5700   35.0470   41.5270 C   0  0  0  0  0  0  0  0  0  0  0  0
   49.8441   35.8037   41.2900 H   0  0  0  0  0  0  0  0  0  0  0  0
   49.0227   35.6765   42.9401 H   0  0  0  0  0  0  0  0  0  0  0  0
   50.7559   33.6809   41.5372 H   0  0  0  0  0  0  0  0  0  0  0  0
   50.9683   34.4200   43.1336 H   0  0  0  0  0  0  0  0  0  0  0  0
   49.6358   32.0734   41.2141 H   0  0  0  0  0  0  0  0  0  0  0  0
   48.1560   31.6789   42.2080 H   0  0  0  0  0  0  0  0  0  0  0  0
   46.9558   33.1020   41.1866 H   0  0  0  0  0  0  0  0  0  0  0  0
   47.4225   35.1428   38.9904 H   0  0  0  0  0  0  0  0  0  0  0  0
   48.1212   34.9860   36.5742 H   0  0  0  0  0  0  0  0  0  0  0  0
   49.4975   33.0170   35.9688 H   0  0  0  0  0  0  0  0  0  0  0  0
   50.1880   31.2811   37.5550 H   0  0  0  0  0  0  0  0  0  0  0  0
   47.3378   35.6832   43.0657 H   0  0  0  0  0  0  0  0  0  0  0  0
   46.6650   36.2100   41.4245 H   0  0  0  0  0  0  0  0  0  0  0  0
   45.9304   33.5313   41.8476 H   0  0  0  0  0  0  0  0  0  0  0  0
   44.3465   36.2969   43.8684 H   0  0  0  0  0  0  0  0  0  0  0  0
   46.5340   32.5716   44.0012 H   0  0  0  0  0  0  0  0  0  0  0  0
   44.8030   34.2179   47.5176 H   0  0  0  0  0  0  0  0  0  0  0  0
   43.8051   35.3817   42.2432 H   0  0  0  0  0  0  0  0  0  0  0  0
   44.8757   35.8936   40.8947 H   0  0  0  0  0  0  0  0  0  0  0  0
   44.1557   34.2479   40.8947 H   0  0  0  0  0  0  0  0  0  0  0  0
  1  2  1  0
  1 13  1  0
  2  3  1  0
  3  4  1  0
  5  4  1  0
  6  1  1  0
  6  5  1  0
  7  6  1  0
  8  7  2  0
  9  8  1  0
 10  9  2  0
 10 11  1  0
 11 12  2  0
 12  7  1  0
 13 14  1  0
 14 16  1  0
 15 20  2  0
 16 15  1  0
 16 17  2  0
 17 18  1  0
 18 19  2  0
 20 19  1  0
 21 14  1  0
  2 22  1  0
  2 23  1  0
  3 24  1  0
  3 25  1  0
  5 26  1  0
  5 27  1  0
  6 28  1  6
  8 29  1  0
  9 30  1  0
 10 31  1  0
 11 32  1  0
 13 33  1  0
 13 34  1  0
 14 35  1  6
 15 36  1  0
 17 37  1  0
 19 38  1  0
 21 39  1  0
 21 40  1  0
 21 41  1  0
M  ISO  8  22  13  23  13  24  13  25  13  26  13  27  13  28  13  29  14
M  ISO  8  30  14  31  14  32  14  33   8  34   8  35   8  36  14  37  14
M  ISO  4  38  14  39   8  40   8  41   8
M  END
>  <minimizedAffinity>  (1) 
-5.14914465

>  <minimizedRMSD>  (1) 
1.10837531

$$$$
