
     RDKit          3D

 42 46  0  0  0  0  0  0  0  0999 V2000
   45.0840   35.7620   43.0880 C   0  0  0  0  0  0  0  0  0  0  0  0
   45.2960   36.9800   43.1740 O   0  0  0  0  0  0  0  0  0  0  0  0
   44.6970   35.0510   45.3550 C   0  0  0  0  0  0  0  0  0  0  0  0
   45.4150   34.8960   44.1820 C   0  0  0  0  0  0  0  0  0  0  0  0
   46.3950   33.9350   44.1170 C   0  0  0  0  0  0  0  0  0  0  0  0
   46.6120   33.1710   45.2340 N   0  0  0  0  0  0  0  0  0  0  0  0
   45.9130   33.3270   46.3700 C   0  0  0  0  0  0  0  0  0  0  0  0
   44.9460   34.2750   46.4340 N   0  0  0  0  0  0  0  0  0  0  0  0
   46.2740   32.4470   47.4270 N   0  0  0  0  0  0  0  0  0  0  0  0
   47.3660   31.7910   47.7700 N   0  0  0  0  0  0  0  0  0  0  0  0
   47.1320   31.0880   48.8960 C   0  0  0  0  0  0  0  0  0  0  0  0
   45.8300   31.3230   49.2650 C   0  0  0  0  0  0  0  0  0  0  0  0
   45.2900   32.2000   48.3100 C   0  0  0  0  0  0  0  0  0  0  0  0
   44.4870   35.2220   41.8460 C   0  0  0  0  0  0  0  0  0  0  0  0
   43.2560   35.5340   41.3740 C   0  0  0  0  0  0  0  0  0  0  0  0
   43.0940   34.8230   40.2100 C   0  0  0  0  0  0  0  0  0  0  0  0
   44.2210   34.1330   40.0490 N   0  0  0  0  0  0  0  0  0  0  0  0
   45.1090   34.3280   41.0080 N   0  0  0  0  0  0  0  0  0  0  0  0
   44.6140   33.2160   39.0050 C   0  0  0  0  0  0  0  0  0  0  0  0
   43.6340   32.5450   38.3070 C   0  0  0  0  0  0  0  0  0  0  0  0
   44.0290   31.6610   37.2970 C   0  0  0  0  0  0  0  0  0  0  0  0
   45.3740   31.4900   37.0350 C   0  0  0  0  0  0  0  0  0  0  0  0
   46.3370   32.1760   37.7540 C   0  0  0  0  0  0  0  0  0  0  0  0
   47.6740   31.9790   37.4630 C   0  0  0  0  0  0  0  0  0  0  0  0
   48.6490   32.6560   38.1710 C   0  0  0  0  0  0  0  0  0  0  0  0
   48.2990   33.5480   39.1860 C   0  0  0  0  0  0  0  0  0  0  0  0
   46.9440   33.7300   39.4600 C   0  0  0  0  0  0  0  0  0  0  0  0
   45.9790   33.0580   38.7570 C   0  0  0  0  0  0  0  0  0  0  0  0
   43.9107   35.8182   45.4105 H   0  0  0  0  0  0  0  0  0  0  0  0
   46.9846   33.7842   43.2007 H   0  0  0  0  0  0  0  0  0  0  0  0
   47.8517   30.4442   49.4228 H   0  0  0  0  0  0  0  0  0  0  0  0
   45.3104   30.9050   50.1398 H   0  0  0  0  0  0  0  0  0  0  0  0
   44.2671   32.6040   48.2885 H   0  0  0  0  0  0  0  0  0  0  0  0
   42.5296   36.2211   41.8325 H   0  0  0  0  0  0  0  0  0  0  0  0
   42.2154   34.8236   39.5482 H   0  0  0  0  0  0  0  0  0  0  0  0
   42.5697   32.7000   38.5375 H   0  0  0  0  0  0  0  0  0  0  0  0
   43.2755   31.1076   36.7173 H   0  0  0  0  0  0  0  0  0  0  0  0
   45.6855   30.7960   36.2405 H   0  0  0  0  0  0  0  0  0  0  0  0
   47.9632   31.2802   36.6642 H   0  0  0  0  0  0  0  0  0  0  0  0
   49.7100   32.4904   37.9325 H   0  0  0  0  0  0  0  0  0  0  0  0
   49.0693   34.0913   39.7529 H   0  0  0  0  0  0  0  0  0  0  0  0
   46.6439   34.4269   40.2564 H   0  0  0  0  0  0  0  0  0  0  0  0
  1  2  2  0
  1  4  1  0
  3  8  2  0
  4  3  1  0
  5  4  2  0
  5  6  1  0
  6  7  2  0
  7  8  1  0
  7  9  1  0
  9 10  1  0
  9 13  1  0
 10 11  2  0
 11 12  1  0
 13 12  2  0
 14  1  1  0
 15 14  1  0
 16 15  2  0
 17 16  1  0
 17 18  1  0
 18 14  2  0
 19 17  1  0
 20 19  2  0
 21 20  1  0
 22 21  2  0
 22 23  1  0
 23 28  2  0
 24 23  1  0
 24 25  2  0
 25 26  1  0
 26 27  2  0
 28 19  1  0
 28 27  1  0
  3 29  1  0
  5 30  1  0
 11 31  1  0
 12 32  1  0
 13 33  1  0
 15 34  1  0
 16 35  1  0
 20 36  1  0
 21 37  1  0
 22 38  1  0
 24 39  1  0
 25 40  1  0
 26 41  1  0
 27 42  1  0
M  ISO  8  29  14  30  14  31  14  32  14  33  14  34  14  35  14  36  14
M  ISO  6  37  14  38  14  39  14  40  14  41  14  42  14
M  END
>  <minimizedAffinity>  (1) 
-6.85448503

>  <minimizedRMSD>  (1) 
0.321091056

$$$$
