
     RDKit          3D

 31 34  0  0  0  0  0  0  0  0999 V2000
   44.6860   35.0950   45.2390 C   0  0  0  0  0  0  0  0  0  0  0  0
   45.3780   34.9240   44.0610 C   0  0  0  0  0  0  0  0  0  0  0  0
   46.3460   33.9670   44.0020 C   0  0  0  0  0  0  0  0  0  0  0  0
   46.5870   33.2160   45.1210 N   0  0  0  0  0  0  0  0  0  0  0  0
   45.9120   33.3880   46.2620 C   0  0  0  0  0  0  0  0  0  0  0  0
   44.9470   34.3380   46.3270 N   0  0  0  0  0  0  0  0  0  0  0  0
   46.2880   32.5220   47.3290 N   0  0  0  0  0  0  0  0  0  0  0  0
   47.3750   31.8670   47.6660 N   0  0  0  0  0  0  0  0  0  0  0  0
   47.1580   31.1860   48.8080 C   0  0  0  0  0  0  0  0  0  0  0  0
   45.8620   31.4350   49.2010 C   0  0  0  0  0  0  0  0  0  0  0  0
   45.3220   32.2940   48.2370 C   0  0  0  0  0  0  0  0  0  0  0  0
   45.0290   35.7780   42.9600 C   0  0  0  0  0  0  0  0  0  0  0  0
   45.2930   36.9800   43.0020 O   0  0  0  0  0  0  0  0  0  0  0  0
   44.3470   35.2230   41.7630 C   0  0  0  0  0  0  0  0  0  0  0  0
   43.0670   35.4910   41.4050 C   0  0  0  0  0  0  0  0  0  0  0  0
   42.8320   34.7850   40.2480 C   0  0  0  0  0  0  0  0  0  0  0  0
   43.9640   34.1520   39.9900 N   0  0  0  0  0  0  0  0  0  0  0  0
   44.9250   34.3720   40.8670 N   0  0  0  0  0  0  0  0  0  0  0  0
   44.1750   33.2850   38.8560 C   0  0  0  0  0  0  0  0  0  0  0  0
   43.1970   32.5870   38.2710 N   0  0  0  0  0  0  0  0  0  0  0  0
   43.6880   31.9160   37.3000 O   0  0  0  0  0  0  0  0  0  0  0  0
   44.9670   32.1460   37.2210 C   0  0  0  0  0  0  0  0  0  0  0  0
   45.3270   33.0220   38.2040 N   0  0  0  0  0  0  0  0  0  0  0  0
   43.9029   35.8654   45.2955 H   0  0  0  0  0  0  0  0  0  0  0  0
   46.9197   33.8019   43.0781 H   0  0  0  0  0  0  0  0  0  0  0  0
   47.8844   30.5470   49.3315 H   0  0  0  0  0  0  0  0  0  0  0  0
   45.3538   31.0388   50.0925 H   0  0  0  0  0  0  0  0  0  0  0  0
   44.3016   32.7047   48.2242 H   0  0  0  0  0  0  0  0  0  0  0  0
   42.3573   36.1435   41.9347 H   0  0  0  0  0  0  0  0  0  0  0  0
   41.9013   34.7537   39.6625 H   0  0  0  0  0  0  0  0  0  0  0  0
   45.6493   31.7045   36.4797 H   0  0  0  0  0  0  0  0  0  0  0  0
  1  6  2  0
  2  1  1  0
  3  2  2  0
  3  4  1  0
  4  5  2  0
  5  6  1  0
  5  7  1  0
  7  8  1  0
  7 11  1  0
  8  9  2  0
  9 10  1  0
 11 10  2  0
 12 13  2  0
 12  2  1  0
 14 12  1  0
 15 14  1  0
 16 15  2  0
 17 16  1  0
 17 18  1  0
 18 14  2  0
 19 17  1  0
 20 19  2  0
 21 20  1  0
 22 21  1  0
 22 23  2  0
 23 19  1  0
  1 24  1  0
  3 25  1  0
  9 26  1  0
 10 27  1  0
 11 28  1  0
 15 29  1  0
 16 30  1  0
 22 31  1  0
M  ISO  8  24  14  25  14  26  14  27  14  28  14  29  14  30  14  31  14
M  END
>  <minimizedAffinity>  (1) 
-6.29010487

>  <minimizedRMSD>  (1) 
0.370202154

$$$$
