
     RDKit          3D

 40 44  0  0  0  0  0  0  0  0999 V2000
   45.0390   35.7660   42.9790 C   0  0  0  0  0  0  0  0  0  0  0  0
   45.3020   36.9750   43.0290 O   0  0  0  0  0  0  0  0  0  0  0  0
   44.6770   35.0940   45.2730 C   0  0  0  0  0  0  0  0  0  0  0  0
   45.3780   34.9230   44.0840 C   0  0  0  0  0  0  0  0  0  0  0  0
   46.3610   33.9600   44.0140 C   0  0  0  0  0  0  0  0  0  0  0  0
   46.5910   33.2170   45.1410 N   0  0  0  0  0  0  0  0  0  0  0  0
   45.9070   33.3900   46.2880 C   0  0  0  0  0  0  0  0  0  0  0  0
   44.9500   34.3300   46.3500 N   0  0  0  0  0  0  0  0  0  0  0  0
   46.2990   32.5160   47.3440 N   0  0  0  0  0  0  0  0  0  0  0  0
   47.3710   31.8530   47.6830 N   0  0  0  0  0  0  0  0  0  0  0  0
   47.1640   31.1610   48.8270 C   0  0  0  0  0  0  0  0  0  0  0  0
   45.8680   31.4270   49.2060 C   0  0  0  0  0  0  0  0  0  0  0  0
   45.3330   32.2870   48.2560 C   0  0  0  0  0  0  0  0  0  0  0  0
   44.3830   35.2210   41.7800 C   0  0  0  0  0  0  0  0  0  0  0  0
   43.1070   35.5380   41.4050 C   0  0  0  0  0  0  0  0  0  0  0  0
   42.8780   34.8250   40.2450 C   0  0  0  0  0  0  0  0  0  0  0  0
   43.9910   34.1440   39.9980 N   0  0  0  0  0  0  0  0  0  0  0  0
   44.9350   34.3500   40.9020 N   0  0  0  0  0  0  0  0  0  0  0  0
   44.0420   33.2980   38.8290 C   0  0  0  0  0  0  0  0  0  0  0  0
   42.8740   32.7060   38.3450 C   0  0  0  0  0  0  0  0  0  0  0  0
   43.1390   31.9590   37.2530 N   0  0  0  0  0  0  0  0  0  0  0  0
   44.4790   32.0720   37.0330 C   0  0  0  0  0  0  0  0  0  0  0  0
   45.3320   31.5390   36.0700 C   0  0  0  0  0  0  0  0  0  0  0  0
   46.6770   31.8450   36.1140 C   0  0  0  0  0  0  0  0  0  0  0  0
   47.2140   32.6720   37.0940 C   0  0  0  0  0  0  0  0  0  0  0  0
   46.3680   33.2130   38.0670 C   0  0  0  0  0  0  0  0  0  0  0  0
   45.0360   32.8830   37.9860 C   0  0  0  0  0  0  0  0  0  0  0  0
   43.8911   35.8611   45.3355 H   0  0  0  0  0  0  0  0  0  0  0  0
   46.9369   33.7950   43.0914 H   0  0  0  0  0  0  0  0  0  0  0  0
   47.8860   30.5158   49.3490 H   0  0  0  0  0  0  0  0  0  0  0  0
   45.3529   31.0326   50.0943 H   0  0  0  0  0  0  0  0  0  0  0  0
   44.3145   32.7024   48.2490 H   0  0  0  0  0  0  0  0  0  0  0  0
   42.4105   36.2171   41.9186 H   0  0  0  0  0  0  0  0  0  0  0  0
   41.9564   34.8217   39.6445 H   0  0  0  0  0  0  0  0  0  0  0  0
   41.8766   32.8311   38.7916 H   0  0  0  0  0  0  0  0  0  0  0  0
   42.4645   31.4134   36.6978 H   0  0  0  0  0  0  0  0  0  0  0  0
   44.9377   30.8806   35.2820 H   0  0  0  0  0  0  0  0  0  0  0  0
   47.3451   31.4213   35.3497 H   0  0  0  0  0  0  0  0  0  0  0  0
   48.2905   32.8978   37.1038 H   0  0  0  0  0  0  0  0  0  0  0  0
   46.7505   33.8720   38.8603 H   0  0  0  0  0  0  0  0  0  0  0  0
  1  2  2  0
  1  4  1  0
  3  8  2  0
  4  3  1  0
  5  4  2  0
  5  6  1  0
  6  7  2  0
  7  8  1  0
  7  9  1  0
  9 10  1  0
  9 13  1  0
 10 11  2  0
 11 12  1  0
 13 12  2  0
 14  1  1  0
 15 14  1  0
 16 15  2  0
 17 16  1  0
 17 18  1  0
 18 14  2  0
 19 17  1  0
 20 19  2  0
 21 20  1  0
 22 21  1  0
 22 27  2  0
 23 24  2  0
 23 22  1  0
 24 25  1  0
 25 26  2  0
 27 26  1  0
 27 19  1  0
  3 28  1  0
  5 29  1  0
 11 30  1  0
 12 31  1  0
 13 32  1  0
 15 33  1  0
 16 34  1  0
 20 35  1  0
 21 36  1  0
 23 37  1  0
 24 38  1  0
 25 39  1  0
 26 40  1  0
M  ISO  8  28  14  29  14  30  14  31  14  32  14  33  14  34  14  35  14
M  ISO  5  36   9  37  14  38  14  39  14  40  14
M  END
>  <minimizedAffinity>  (1) 
-6.76359844

>  <minimizedRMSD>  (1) 
0.670744777

$$$$
