
     RDKit          3D

 33 36  0  0  0  0  0  0  0  0999 V2000
   44.6960   35.0570   45.3340 C   0  0  0  0  0  0  0  0  0  0  0  0
   45.4010   34.9010   44.1600 C   0  0  0  0  0  0  0  0  0  0  0  0
   46.3770   33.9470   44.0990 C   0  0  0  0  0  0  0  0  0  0  0  0
   46.6080   33.1840   45.2230 N   0  0  0  0  0  0  0  0  0  0  0  0
   45.9050   33.3530   46.3620 C   0  0  0  0  0  0  0  0  0  0  0  0
   44.9460   34.2930   46.4200 N   0  0  0  0  0  0  0  0  0  0  0  0
   46.2840   32.4750   47.4130 N   0  0  0  0  0  0  0  0  0  0  0  0
   47.3750   31.8210   47.7600 N   0  0  0  0  0  0  0  0  0  0  0  0
   47.1460   31.1190   48.8870 C   0  0  0  0  0  0  0  0  0  0  0  0
   45.8450   31.3480   49.2640 C   0  0  0  0  0  0  0  0  0  0  0  0
   45.3130   32.2190   48.3050 C   0  0  0  0  0  0  0  0  0  0  0  0
   45.0680   35.7550   43.0610 C   0  0  0  0  0  0  0  0  0  0  0  0
   45.2810   36.9700   43.1380 O   0  0  0  0  0  0  0  0  0  0  0  0
   44.4700   35.2040   41.8250 C   0  0  0  0  0  0  0  0  0  0  0  0
   43.1990   35.4760   41.3970 C   0  0  0  0  0  0  0  0  0  0  0  0
   43.0360   34.7780   40.2250 C   0  0  0  0  0  0  0  0  0  0  0  0
   44.1840   34.1440   40.0190 N   0  0  0  0  0  0  0  0  0  0  0  0
   45.0990   34.3680   40.9640 N   0  0  0  0  0  0  0  0  0  0  0  0
   44.4480   33.2890   38.8890 C   0  0  0  0  0  0  0  0  0  0  0  0
   44.7080   31.9190   39.0040 C   0  0  0  0  0  0  0  0  0  0  0  0
   44.9130   31.3990   37.7800 N   0  0  0  0  0  0  0  0  0  0  0  0
   44.7830   32.4240   36.9090 C   0  0  0  0  0  0  0  0  0  0  0  0
   44.5010   33.5670   37.5740 N   0  0  0  0  0  0  0  0  0  0  0  0
   43.9091   35.8237   45.3883 H   0  0  0  0  0  0  0  0  0  0  0  0
   46.9612   33.7925   43.1798 H   0  0  0  0  0  0  0  0  0  0  0  0
   47.8703   30.4780   49.4109 H   0  0  0  0  0  0  0  0  0  0  0  0
   45.3267   30.9320   50.1405 H   0  0  0  0  0  0  0  0  0  0  0  0
   44.2887   32.6196   48.2858 H   0  0  0  0  0  0  0  0  0  0  0  0
   42.4584   36.1222   41.8909 H   0  0  0  0  0  0  0  0  0  0  0  0
   42.1392   34.7502   39.5886 H   0  0  0  0  0  0  0  0  0  0  0  0
   44.7399   31.3550   39.9479 H   0  0  0  0  0  0  0  0  0  0  0  0
   44.8909   32.3406   35.8175 H   0  0  0  0  0  0  0  0  0  0  0  0
   44.3522   34.4923   37.1467 H   0  0  0  0  0  0  0  0  0  0  0  0
  1  6  2  0
  2  1  1  0
  3  2  2  0
  3  4  1  0
  4  5  2  0
  5  6  1  0
  5  7  1  0
  7  8  1  0
  7 11  1  0
  8  9  2  0
  9 10  1  0
 11 10  2  0
 12 13  2  0
 12  2  1  0
 14 12  1  0
 15 14  1  0
 16 15  2  0
 17 16  1  0
 17 18  1  0
 18 14  2  0
 19 20  2  0
 19 17  1  0
 21 20  1  0
 22 23  1  0
 22 21  2  0
 23 19  1  0
  1 24  1  0
  3 25  1  0
  9 26  1  0
 10 27  1  0
 11 28  1  0
 15 29  1  0
 16 30  1  0
 20 31  1  0
 22 32  1  0
 23 33  1  0
M  ISO  8  24  14  25  14  26  14  27  14  28  14  29  14  30  14  31  14
M  ISO  2  32  14  33   9
M  END
>  <minimizedAffinity>  (1) 
-6.18394804

>  <minimizedRMSD>  (1) 
0.21853134

$$$$
