
     RDKit          3D

 35 38  0  0  0  0  0  0  0  0999 V2000
   44.6820   35.0850   45.2420 C   0  0  0  0  0  0  0  0  0  0  0  0
   45.3720   34.9180   44.0620 C   0  0  0  0  0  0  0  0  0  0  0  0
   46.3590   33.9550   43.9910 C   0  0  0  0  0  0  0  0  0  0  0  0
   46.5980   33.2100   45.1190 N   0  0  0  0  0  0  0  0  0  0  0  0
   45.9210   33.3820   46.2640 C   0  0  0  0  0  0  0  0  0  0  0  0
   44.9550   34.3260   46.3270 N   0  0  0  0  0  0  0  0  0  0  0  0
   46.2980   32.5220   47.3360 N   0  0  0  0  0  0  0  0  0  0  0  0
   47.3890   31.8670   47.6710 N   0  0  0  0  0  0  0  0  0  0  0  0
   47.1790   31.1920   48.8180 C   0  0  0  0  0  0  0  0  0  0  0  0
   45.8720   31.4510   49.2100 C   0  0  0  0  0  0  0  0  0  0  0  0
   45.3400   32.3000   48.2470 C   0  0  0  0  0  0  0  0  0  0  0  0
   45.0310   35.7550   42.9570 C   0  0  0  0  0  0  0  0  0  0  0  0
   45.3090   36.9640   42.9940 O   0  0  0  0  0  0  0  0  0  0  0  0
   44.3480   35.2060   41.7580 C   0  0  0  0  0  0  0  0  0  0  0  0
   43.0850   35.5510   41.3790 C   0  0  0  0  0  0  0  0  0  0  0  0
   42.8390   34.8310   40.2420 C   0  0  0  0  0  0  0  0  0  0  0  0
   43.9400   34.1100   40.0050 N   0  0  0  0  0  0  0  0  0  0  0  0
   44.8890   34.3020   40.9000 N   0  0  0  0  0  0  0  0  0  0  0  0
   44.0770   33.2150   38.8890 C   0  0  0  0  0  0  0  0  0  0  0  0
   43.0290   32.4250   38.4590 C   0  0  0  0  0  0  0  0  0  0  0  0
   43.1930   31.5870   37.3990 C   0  0  0  0  0  0  0  0  0  0  0  0
   44.3780   31.4860   36.7160 C   0  0  0  0  0  0  0  0  0  0  0  0
   45.4220   32.2860   37.1600 C   0  0  0  0  0  0  0  0  0  0  0  0
   45.2330   33.1050   38.2100 N   0  0  0  0  0  0  0  0  0  0  0  0
   43.8941   35.8502   45.3029 H   0  0  0  0  0  0  0  0  0  0  0  0
   46.9317   33.7911   43.0662 H   0  0  0  0  0  0  0  0  0  0  0  0
   47.9056   30.5558   49.3446 H   0  0  0  0  0  0  0  0  0  0  0  0
   45.3608   31.0623   50.1031 H   0  0  0  0  0  0  0  0  0  0  0  0
   44.3208   32.7136   48.2346 H   0  0  0  0  0  0  0  0  0  0  0  0
   42.4077   36.2579   41.8806 H   0  0  0  0  0  0  0  0  0  0  0  0
   41.9175   34.8428   39.6414 H   0  0  0  0  0  0  0  0  0  0  0  0
   42.0586   32.4731   38.9748 H   0  0  0  0  0  0  0  0  0  0  0  0
   42.3428   30.9672   37.0780 H   0  0  0  0  0  0  0  0  0  0  0  0
   44.4952   30.8055   35.8597 H   0  0  0  0  0  0  0  0  0  0  0  0
   46.3989   32.2503   36.6556 H   0  0  0  0  0  0  0  0  0  0  0  0
  1  6  2  0
  2  1  1  0
  3  2  2  0
  3  4  1  0
  4  5  2  0
  5  6  1  0
  5  7  1  0
  7  8  1  0
  7 11  1  0
  8  9  2  0
  9 10  1  0
 11 10  2  0
 12 13  2  0
 12  2  1  0
 14 12  1  0
 15 14  1  0
 16 15  2  0
 17 16  1  0
 17 18  1  0
 18 14  2  0
 19 17  1  0
 20 19  2  0
 21 20  1  0
 22 23  1  0
 22 21  2  0
 23 24  2  0
 24 19  1  0
  1 25  1  0
  3 26  1  0
  9 27  1  0
 10 28  1  0
 11 29  1  0
 15 30  1  0
 16 31  1  0
 20 32  1  0
 21 33  1  0
 22 34  1  0
 23 35  1  0
M  ISO  8  25  14  26  14  27  14  28  14  29  14  30  14  31  14  32  14
M  ISO  3  33  14  34  14  35  14
M  END
>  <minimizedAffinity>  (1) 
-6.14244604

>  <minimizedRMSD>  (1) 
0.646607041

$$$$
