
     RDKit          3D

 33 36  0  0  0  0  0  0  0  0999 V2000
   44.6490   35.1110   45.2890 C   0  0  0  0  0  0  0  0  0  0  0  0
   45.3270   34.9420   44.0940 C   0  0  0  0  0  0  0  0  0  0  0  0
   46.3060   33.9760   44.0200 C   0  0  0  0  0  0  0  0  0  0  0  0
   46.5580   33.2290   45.1400 N   0  0  0  0  0  0  0  0  0  0  0  0
   45.8940   33.4060   46.2820 C   0  0  0  0  0  0  0  0  0  0  0  0
   44.9330   34.3500   46.3670 N   0  0  0  0  0  0  0  0  0  0  0  0
   46.2900   32.5360   47.3480 N   0  0  0  0  0  0  0  0  0  0  0  0
   47.3960   31.8920   47.6700 N   0  0  0  0  0  0  0  0  0  0  0  0
   47.1940   31.2040   48.8110 C   0  0  0  0  0  0  0  0  0  0  0  0
   45.8850   31.4440   49.2080 C   0  0  0  0  0  0  0  0  0  0  0  0
   45.3360   32.2940   48.2600 C   0  0  0  0  0  0  0  0  0  0  0  0
   44.9720   35.7850   42.9930 C   0  0  0  0  0  0  0  0  0  0  0  0
   45.2730   36.9890   43.0190 O   0  0  0  0  0  0  0  0  0  0  0  0
   44.2520   35.2480   41.8230 C   0  0  0  0  0  0  0  0  0  0  0  0
   42.9410   35.5080   41.5450 C   0  0  0  0  0  0  0  0  0  0  0  0
   42.6630   34.8290   40.3890 C   0  0  0  0  0  0  0  0  0  0  0  0
   43.7940   34.2110   40.0410 N   0  0  0  0  0  0  0  0  0  0  0  0
   44.7940   34.4330   40.8830 N   0  0  0  0  0  0  0  0  0  0  0  0
   43.9390   33.3740   38.8640 C   0  0  0  0  0  0  0  0  0  0  0  0
   43.7950   31.8660   39.0430 C   0  0  0  0  0  0  0  0  0  0  0  0
   42.7830   32.6570   38.2900 C   0  0  0  0  0  0  0  0  0  0  0  0
   43.8649   35.8791   45.3613 H   0  0  0  0  0  0  0  0  0  0  0  0
   46.8685   33.8095   43.0895 H   0  0  0  0  0  0  0  0  0  0  0  0
   47.9283   30.5709   49.3306 H   0  0  0  0  0  0  0  0  0  0  0  0
   45.3826   31.0394   50.0990 H   0  0  0  0  0  0  0  0  0  0  0  0
   44.3115   32.6945   48.2563 H   0  0  0  0  0  0  0  0  0  0  0  0
   42.2504   36.1339   42.1292 H   0  0  0  0  0  0  0  0  0  0  0  0
   41.7018   34.7988   39.8549 H   0  0  0  0  0  0  0  0  0  0  0  0
   44.6895   34.0633   38.4497 H   0  0  0  0  0  0  0  0  0  0  0  0
   44.4685   31.1784   38.5104 H   0  0  0  0  0  0  0  0  0  0  0  0
   43.7742   31.1748   39.8984 H   0  0  0  0  0  0  0  0  0  0  0  0
   41.7811   32.8080   38.7183 H   0  0  0  0  0  0  0  0  0  0  0  0
   42.3495   32.5850   37.2816 H   0  0  0  0  0  0  0  0  0  0  0  0
  1  6  2  0
  2  1  1  0
  3  2  2  0
  3  4  1  0
  4  5  2  0
  5  6  1  0
  5  7  1  0
  7  8  1  0
  7 11  1  0
  8  9  2  0
  9 10  1  0
 11 10  2  0
 12 13  2  0
 12  2  1  0
 14 12  1  0
 15 14  1  0
 16 15  2  0
 17 16  1  0
 17 18  1  0
 18 14  2  0
 19 20  1  0
 19 17  1  0
 21 19  1  0
 21 20  1  0
  1 22  1  0
  3 23  1  0
  9 24  1  0
 10 25  1  0
 11 26  1  0
 15 27  1  0
 16 28  1  0
 19 29  1  0
 20 30  1  0
 20 31  1  0
 21 32  1  0
 21 33  1  0
M  ISO  8  22  14  23  14  24  14  25  14  26  14  27  14  28  14  29  13
M  ISO  4  30  13  31  13  32  13  33  13
M  END
>  <minimizedAffinity>  (1) 
-5.66472292

>  <minimizedRMSD>  (1) 
0.384170562

$$$$
