
     RDKit          3D

 38 40  0  0  0  0  0  0  0  0999 V2000
   44.6940   35.0530   45.2350 C   0  0  0  0  0  0  0  0  0  0  0  0
   45.3990   34.8750   44.0520 C   0  0  0  0  0  0  0  0  0  0  0  0
   46.3820   33.9250   44.0080 C   0  0  0  0  0  0  0  0  0  0  0  0
   46.6280   33.1860   45.1320 N   0  0  0  0  0  0  0  0  0  0  0  0
   45.9380   33.3660   46.2770 C   0  0  0  0  0  0  0  0  0  0  0  0
   44.9640   34.3070   46.3240 N   0  0  0  0  0  0  0  0  0  0  0  0
   46.3170   32.5190   47.3470 N   0  0  0  0  0  0  0  0  0  0  0  0
   47.4130   31.8790   47.7040 N   0  0  0  0  0  0  0  0  0  0  0  0
   47.1940   31.2040   48.8500 C   0  0  0  0  0  0  0  0  0  0  0  0
   45.8940   31.4390   49.2220 C   0  0  0  0  0  0  0  0  0  0  0  0
   45.3520   32.2800   48.2510 C   0  0  0  0  0  0  0  0  0  0  0  0
   45.0560   35.7040   42.9380 C   0  0  0  0  0  0  0  0  0  0  0  0
   45.3490   36.9080   42.9530 O   0  0  0  0  0  0  0  0  0  0  0  0
   44.3570   35.1490   41.7660 C   0  0  0  0  0  0  0  0  0  0  0  0
   43.2070   35.6490   41.2470 C   0  0  0  0  0  0  0  0  0  0  0  0
   42.8880   34.8500   40.1700 C   0  0  0  0  0  0  0  0  0  0  0  0
   43.8460   33.9370   40.1060 N   0  0  0  0  0  0  0  0  0  0  0  0
   44.7630   34.0720   41.0520 N   0  0  0  0  0  0  0  0  0  0  0  0
   43.8250   32.9050   39.0600 C   0  0  0  0  0  0  0  0  0  0  0  0
   44.8160   33.1630   37.9750 C   0  0  0  0  0  0  0  0  0  0  0  0
   42.4350   32.8570   38.4180 C   0  0  0  0  0  0  0  0  0  0  0  0
   44.0470   31.5360   39.6540 C   0  0  0  0  0  0  0  0  0  0  0  0
   43.9024   35.8152   45.2838 H   0  0  0  0  0  0  0  0  0  0  0  0
   46.9622   33.7590   43.0883 H   0  0  0  0  0  0  0  0  0  0  0  0
   47.9228   30.5799   49.3879 H   0  0  0  0  0  0  0  0  0  0  0  0
   45.3811   31.0423   50.1106 H   0  0  0  0  0  0  0  0  0  0  0  0
   44.3254   32.6745   48.2290 H   0  0  0  0  0  0  0  0  0  0  0  0
   42.6419   36.5189   41.6130 H   0  0  0  0  0  0  0  0  0  0  0  0
   42.0192   34.9496   39.5028 H   0  0  0  0  0  0  0  0  0  0  0  0
   45.7894   33.4164   38.4202 H   0  0  0  0  0  0  0  0  0  0  0  0
   44.9209   32.2622   37.3524 H   0  0  0  0  0  0  0  0  0  0  0  0
   44.4683   34.0006   37.3524 H   0  0  0  0  0  0  0  0  0  0  0  0
   41.6679   32.8305   39.2059 H   0  0  0  0  0  0  0  0  0  0  0  0
   42.2885   33.7506   37.7935 H   0  0  0  0  0  0  0  0  0  0  0  0
   42.3505   31.9554   37.7935 H   0  0  0  0  0  0  0  0  0  0  0  0
   44.0356   31.6063   40.7517 H   0  0  0  0  0  0  0  0  0  0  0  0
   43.2471   30.8580   39.3217 H   0  0  0  0  0  0  0  0  0  0  0  0
   45.0202   31.1455   39.3217 H   0  0  0  0  0  0  0  0  0  0  0  0
  1  6  2  0
  2  1  1  0
  3  2  2  0
  3  4  1  0
  4  5  2  0
  5  6  1  0
  5  7  1  0
  7  8  1  0
  7 11  1  0
  8  9  2  0
  9 10  1  0
 11 10  2  0
 12 13  2  0
 12  2  1  0
 14 12  1  0
 15 14  1  0
 16 15  2  0
 17 16  1  0
 17 18  1  0
 18 14  2  0
 19 22  1  0
 19 17  1  0
 20 19  1  0
 21 19  1  0
  1 23  1  0
  3 24  1  0
  9 25  1  0
 10 26  1  0
 11 27  1  0
 15 28  1  0
 16 29  1  0
 20 30  1  0
 20 31  1  0
 20 32  1  0
 21 33  1  0
 21 34  1  0
 21 35  1  0
 22 36  1  0
 22 37  1  0
 22 38  1  0
M  ISO  8  23  14  24  14  25  14  26  14  27  14  28  14  29  14  30   8
M  ISO  8  31   8  32   8  33   8  34   8  35   8  36   8  37   8  38   8
M  END
>  <minimizedAffinity>  (1) 
-5.71345663

>  <minimizedRMSD>  (1) 
0.713606775

$$$$
