
     RDKit          3D

 40 42  0  0  1  0  0  0  0  0999 V2000
   48.0750   34.7890   41.4190 N   0  0  0  0  0  0  0  0  0  0  0  0
   49.3320   35.1190   42.0240 C   0  0  0  0  0  0  0  0  0  0  0  0
   50.2130   33.9870   42.3710 C   0  0  0  0  0  0  0  0  0  0  0  0
   49.3740   32.9730   42.8730 O   0  0  0  0  0  0  0  0  0  0  0  0
   48.7720   32.4510   41.7380 C   0  0  0  0  0  0  0  0  0  0  0  0
   47.9420   33.4640   40.9720 C   0  0  2  0  0  0  0  0  0  0  0  0
   48.3510   33.3900   39.5310 C   0  0  0  0  0  0  0  0  0  0  0  0
   49.0190   32.2820   39.0070 C   0  0  0  0  0  0  0  0  0  0  0  0
   49.3940   32.2160   37.6810 C   0  0  0  0  0  0  0  0  0  0  0  0
   49.1120   33.2480   36.8630 N   0  0  0  0  0  0  0  0  0  0  0  0
   48.4700   34.3160   37.3630 C   0  0  0  0  0  0  0  0  0  0  0  0
   48.0980   34.3970   38.6450 N   0  0  0  0  0  0  0  0  0  0  0  0
   47.0180   35.3980   42.1490 C   0  0  0  0  0  0  0  0  0  0  0  0
   45.7680   34.5750   42.3300 C   0  0  1  0  0  0  0  0  0  0  0  0
   44.7410   35.3870   44.5130 C   0  0  0  0  0  0  0  0  0  0  0  0
   45.5190   34.4390   43.7750 C   0  0  0  0  0  0  0  0  0  0  0  0
   46.0340   33.3790   44.5040 C   0  0  0  0  0  0  0  0  0  0  0  0
   45.7740   33.3120   45.8420 N   0  0  0  0  0  0  0  0  0  0  0  0
   45.0430   34.2170   46.4960 C   0  0  0  0  0  0  0  0  0  0  0  0
   44.5210   35.2640   45.8230 N   0  0  0  0  0  0  0  0  0  0  0  0
   44.5920   35.1360   41.6240 C   0  0  0  0  0  0  0  0  0  0  0  0
   49.8801   35.7667   41.3239 H   0  0  0  0  0  0  0  0  0  0  0  0
   49.0778   35.5946   42.9827 H   0  0  0  0  0  0  0  0  0  0  0  0
   50.7469   33.6319   41.4772 H   0  0  0  0  0  0  0  0  0  0  0  0
   50.9707   34.2823   43.1117 H   0  0  0  0  0  0  0  0  0  0  0  0
   49.5590   32.0699   41.0706 H   0  0  0  0  0  0  0  0  0  0  0  0
   48.0869   31.6576   42.0714 H   0  0  0  0  0  0  0  0  0  0  0  0
   46.8854   33.2026   41.1311 H   0  0  0  0  0  0  0  0  0  0  0  0
   49.2533   31.4367   39.6708 H   0  0  0  0  0  0  0  0  0  0  0  0
   49.9182   31.3291   37.2956 H   0  0  0  0  0  0  0  0  0  0  0  0
   48.2411   35.1571   36.6920 H   0  0  0  0  0  0  0  0  0  0  0  0
   47.4022   35.6476   43.1490 H   0  0  0  0  0  0  0  0  0  0  0  0
   46.7113   36.2675   41.5491 H   0  0  0  0  0  0  0  0  0  0  0  0
   45.9265   33.5870   41.8731 H   0  0  0  0  0  0  0  0  0  0  0  0
   44.3091   36.2476   43.9811 H   0  0  0  0  0  0  0  0  0  0  0  0
   46.6419   32.6050   44.0127 H   0  0  0  0  0  0  0  0  0  0  0  0
   44.8671   34.1103   47.5766 H   0  0  0  0  0  0  0  0  0  0  0  0
   43.8551   35.4875   42.3612 H   0  0  0  0  0  0  0  0  0  0  0  0
   44.9107   35.9791   40.9934 H   0  0  0  0  0  0  0  0  0  0  0  0
   44.1373   34.3578   40.9934 H   0  0  0  0  0  0  0  0  0  0  0  0
  1  2  1  0
  1 13  1  0
  2  3  1  0
  3  4  1  0
  5  4  1  0
  6  1  1  0
  6  5  1  0
  7  6  1  0
  8  7  2  0
  9  8  1  0
 10 11  1  0
 10  9  2  0
 11 12  2  0
 12  7  1  0
 13 14  1  0
 14 16  1  0
 15 20  2  0
 16 17  2  0
 16 15  1  0
 17 18  1  0
 18 19  2  0
 20 19  1  0
 21 14  1  0
  2 22  1  0
  2 23  1  0
  3 24  1  0
  3 25  1  0
  5 26  1  0
  5 27  1  0
  6 28  1  6
  8 29  1  0
  9 30  1  0
 11 31  1  0
 13 32  1  0
 13 33  1  0
 14 34  1  6
 15 35  1  0
 17 36  1  0
 19 37  1  0
 21 38  1  0
 21 39  1  0
 21 40  1  0
M  ISO  8  22  13  23  13  24  13  25  13  26  13  27  13  28  13  29  14
M  ISO  8  30  14  31  14  32   8  33   8  34   8  35  14  36  14  37  14
M  ISO  3  38   8  39   8  40   8
M  END
>  <minimizedAffinity>  (1) 
-5.08558226

>  <minimizedRMSD>  (1) 
1.12574983

$$$$
