
     RDKit          3D

 46 50  0  0  1  0  0  0  0  0999 V2000
   43.7840   35.2440   41.8810 C   0  0  0  0  0  0  0  0  0  0  0  0
   42.4260   35.4400   41.9930 C   0  0  0  0  0  0  0  0  0  0  0  0
   41.8490   34.8350   40.9040 C   0  0  0  0  0  0  0  0  0  0  0  0
   42.8780   34.3210   40.2150 N   0  0  0  0  0  0  0  0  0  0  0  0
   44.0610   34.5290   40.7440 N   0  0  0  0  0  0  0  0  0  0  0  0
   43.7560   34.0160   37.9790 N   0  0  0  0  0  0  0  0  0  0  0  0
   44.9560   33.2230   38.1440 C   0  0  0  0  0  0  0  0  0  0  0  0
   44.5800   31.9310   38.8040 C   0  0  0  0  0  0  0  0  0  0  0  0
   43.1290   32.1060   39.1940 C   0  0  0  0  0  0  0  0  0  0  0  0
   42.8140   33.5670   38.9570 C   0  0  1  0  0  0  0  0  0  0  0  0
   41.4120   33.6270   38.4610 C   0  0  0  0  0  0  0  0  0  0  0  0
   40.6500   32.4890   38.4930 C   0  0  0  0  0  0  0  0  0  0  0  0
   39.3240   32.4590   38.0470 C   0  0  0  0  0  0  0  0  0  0  0  0
   38.8180   33.6160   37.5760 N   0  0  0  0  0  0  0  0  0  0  0  0
   39.5660   34.7570   37.5390 C   0  0  0  0  0  0  0  0  0  0  0  0
   40.8390   34.7620   37.9720 N   0  0  0  0  0  0  0  0  0  0  0  0
   44.7660   35.7360   42.8460 C   0  0  0  0  0  0  0  0  0  0  0  0
   45.2460   36.8650   42.7290 O   0  0  0  0  0  0  0  0  0  0  0  0
   44.6130   35.1670   45.2000 C   0  0  0  0  0  0  0  0  0  0  0  0
   45.1820   34.8990   43.9450 C   0  0  0  0  0  0  0  0  0  0  0  0
   46.0730   33.8880   43.8410 C   0  0  0  0  0  0  0  0  0  0  0  0
   46.3870   33.1650   44.9540 N   0  0  0  0  0  0  0  0  0  0  0  0
   45.8420   33.4200   46.1600 C   0  0  0  0  0  0  0  0  0  0  0  0
   44.9500   34.4280   46.2810 N   0  0  0  0  0  0  0  0  0  0  0  0
   46.2740   32.5730   47.2150 N   0  0  0  0  0  0  0  0  0  0  0  0
   47.3510   31.8710   47.4750 N   0  0  0  0  0  0  0  0  0  0  0  0
   47.2200   31.2270   48.6600 C   0  0  0  0  0  0  0  0  0  0  0  0
   45.9810   31.5650   49.1410 C   0  0  0  0  0  0  0  0  0  0  0  0
   45.3880   32.4240   48.2100 C   0  0  0  0  0  0  0  0  0  0  0  0
   41.9043   35.9772   42.7988 H   0  0  0  0  0  0  0  0  0  0  0  0
   40.7794   34.7834   40.6524 H   0  0  0  0  0  0  0  0  0  0  0  0
   43.9690   35.0130   38.1259 H   0  0  0  0  0  0  0  0  0  0  0  0
   45.4063   33.0211   37.1609 H   0  0  0  0  0  0  0  0  0  0  0  0
   45.6864   33.7655   38.7622 H   0  0  0  0  0  0  0  0  0  0  0  0
   44.6947   31.0902   38.1040 H   0  0  0  0  0  0  0  0  0  0  0  0
   45.2191   31.7052   39.6703 H   0  0  0  0  0  0  0  0  0  0  0  0
   42.4848   31.4688   38.5703 H   0  0  0  0  0  0  0  0  0  0  0  0
   42.9526   31.8175   40.2407 H   0  0  0  0  0  0  0  0  0  0  0  0
   41.0976   31.5635   38.8842 H   0  0  0  0  0  0  0  0  0  0  0  0
   38.7246   31.5372   38.0792 H   0  0  0  0  0  0  0  0  0  0  0  0
   39.1215   35.6849   37.1498 H   0  0  0  0  0  0  0  0  0  0  0  0
   43.8861   35.9859   45.3050 H   0  0  0  0  0  0  0  0  0  0  0  0
   46.5382   33.6517   42.8726 H   0  0  0  0  0  0  0  0  0  0  0  0
   47.9580   30.5668   49.1391 H   0  0  0  0  0  0  0  0  0  0  0  0
   45.5349   31.2229   50.0865 H   0  0  0  0  0  0  0  0  0  0  0  0
   44.3921   32.8858   48.2803 H   0  0  0  0  0  0  0  0  0  0  0  0
  1  2  1  0
  1 17  1  0
  3  2  2  0
  4  5  1  0
  4  3  1  0
  5  1  2  0
  6  7  1  0
  6 10  1  0
  7  8  1  0
  8  9  1  0
 10 11  1  0
 10  9  1  0
 10  4  1  1
 11 12  2  0
 13 12  1  0
 14 13  2  0
 15 14  1  0
 15 16  2  0
 16 11  1  0
 17 20  1  0
 18 17  2  0
 19 24  2  0
 20 19  1  0
 21 20  2  0
 21 22  1  0
 22 23  2  0
 23 24  1  0
 23 25  1  0
 25 26  1  0
 25 29  1  0
 26 27  2  0
 27 28  1  0
 29 28  2  0
  2 30  1  0
  3 31  1  0
  6 32  1  0
  7 33  1  0
  7 34  1  0
  8 35  1  0
  8 36  1  0
  9 37  1  0
  9 38  1  0
 12 39  1  0
 13 40  1  0
 15 41  1  0
 19 42  1  0
 21 43  1  0
 27 44  1  0
 28 45  1  0
 29 46  1  0
M  ISO  8  30  14  31  14  32   5  33  13  34  13  35  13  36  13  37  13
M  ISO  8  38  13  39  14  40  14  41  14  42  14  43  14  44  14  45  14
M  ISO  1  46  14
M  END
>  <minimizedAffinity>  (1) 
-6.93876219

>  <minimizedRMSD>  (1) 
1.33352947

$$$$
