
     RDKit          3D

 46 49  0  0  1  0  0  0  0  0999 V2000
   45.9990   30.9250   47.3800 C   0  0  2  0  0  0  0  0  0  0  0  0
   44.7520   34.7870   46.0450 C   0  0  0  0  0  0  0  0  0  0  0  0
   44.5720   35.4220   44.8200 C   0  0  0  0  0  0  0  0  0  0  0  0
   45.1420   34.8330   43.6800 C   0  0  0  0  0  0  0  0  0  0  0  0
   45.8370   33.6850   43.8240 N   0  0  0  0  0  0  0  0  0  0  0  0
   46.0060   33.0740   45.0360 C   0  0  0  0  0  0  0  0  0  0  0  0
   45.4580   33.6400   46.1210 N   0  0  0  0  0  0  0  0  0  0  0  0
   46.7310   31.8810   45.2110 N   0  0  0  0  0  0  0  0  0  0  0  0
   47.5960   31.5680   44.2070 C   0  0  0  0  0  0  0  0  0  0  0  0
   48.2030   30.3610   44.6090 C   0  0  0  0  0  0  0  0  0  0  0  0
   47.6870   30.0010   45.8230 N   0  0  0  0  0  0  0  0  0  0  0  0
   46.7940   30.9440   46.1640 C   0  0  0  0  0  0  0  0  0  0  0  0
   46.8310   31.6990   48.4490 C   0  0  0  0  0  0  0  0  0  0  0  0
   45.7990   29.5400   47.9010 C   0  0  0  0  0  0  0  0  0  0  0  0
   44.8980   28.7610   47.1280 N   0  0  0  0  0  0  0  0  0  0  0  0
   43.9940   29.2410   46.2730 N   0  0  0  0  0  0  0  0  0  0  0  0
   43.3270   28.1940   45.7320 C   0  0  0  0  0  0  0  0  0  0  0  0
   43.8240   27.0080   46.2610 C   0  0  0  0  0  0  0  0  0  0  0  0
   44.8240   27.3980   47.1460 C   0  0  0  0  0  0  0  0  0  0  0  0
   45.5830   26.4560   47.8970 N   0  0  0  0  0  0  0  0  0  0  0  0
   46.7840   25.9410   47.5810 C   0  0  0  0  0  0  0  0  0  0  0  0
   47.3660   25.0340   48.4410 C   0  0  0  0  0  0  0  0  0  0  0  0
   48.6950   24.4760   48.0730 C   0  0  0  0  0  0  0  0  0  0  0  0
   46.7890   24.6170   49.6180 C   0  0  0  0  0  0  0  0  0  0  0  0
   47.3520   23.7860   50.3760 O   0  0  0  0  0  0  0  0  0  0  0  0
   45.5750   25.1730   49.8820 N   0  0  0  0  0  0  0  0  0  0  0  0
   44.9900   26.0580   49.0590 C   0  0  0  0  0  0  0  0  0  0  0  0
   43.8510   26.5060   49.4200 O   0  0  0  0  0  0  0  0  0  0  0  0
   45.0107   31.3618   47.1741 H   0  0  0  0  0  0  0  0  0  0  0  0
   44.3163   35.2226   46.9563 H   0  0  0  0  0  0  0  0  0  0  0  0
   43.9996   36.3585   44.7468 H   0  0  0  0  0  0  0  0  0  0  0  0
   45.0245   35.2976   42.6899 H   0  0  0  0  0  0  0  0  0  0  0  0
   47.7810   32.1344   43.2824 H   0  0  0  0  0  0  0  0  0  0  0  0
   48.9630   29.8032   44.0422 H   0  0  0  0  0  0  0  0  0  0  0  0
   46.5063   31.3969   49.4556 H   0  0  0  0  0  0  0  0  0  0  0  0
   47.8984   31.4653   48.3225 H   0  0  0  0  0  0  0  0  0  0  0  0
   46.6749   32.7805   48.3225 H   0  0  0  0  0  0  0  0  0  0  0  0
   46.7739   29.0306   47.9149 H   0  0  0  0  0  0  0  0  0  0  0  0
   45.3595   29.6359   48.9048 H   0  0  0  0  0  0  0  0  0  0  0  0
   42.5184   28.2699   44.9901 H   0  0  0  0  0  0  0  0  0  0  0  0
   43.4973   25.9834   46.0298 H   0  0  0  0  0  0  0  0  0  0  0  0
   47.2935   26.2381   46.6525 H   0  0  0  0  0  0  0  0  0  0  0  0
   49.2591   24.2391   48.9872 H   0  0  0  0  0  0  0  0  0  0  0  0
   48.5566   23.5600   47.4799 H   0  0  0  0  0  0  0  0  0  0  0  0
   49.2520   25.2162   47.4799 H   0  0  0  0  0  0  0  0  0  0  0  0
   45.0856   24.9042   50.7475 H   0  0  0  0  0  0  0  0  0  0  0  0
  1 14  1  0
  1 13  1  0
  2  7  2  0
  3  2  1  0
  4  5  1  0
  4  3  2  0
  5  6  2  0
  6  8  1  0
  6  7  1  0
  8 12  1  0
  9 10  2  0
  9  8  1  0
 10 11  1  0
 11 12  2  0
 12  1  1  0
 15 19  1  0
 15 14  1  0
 16 15  1  0
 17 18  1  0
 17 16  2  0
 18 19  2  0
 19 20  1  0
 20 27  1  0
 21 20  1  0
 21 22  2  0
 22 24  1  0
 23 22  1  0
 24 26  1  0
 24 25  2  0
 27 28  2  0
 27 26  1  0
  1 29  1  6
  2 30  1  0
  3 31  1  0
  4 32  1  0
  9 33  1  0
 10 34  1  0
 13 35  1  0
 13 36  1  0
 13 37  1  0
 14 38  1  0
 14 39  1  0
 17 40  1  0
 18 41  1  0
 21 42  1  0
 23 43  1  0
 23 44  1  0
 23 45  1  0
 26 46  1  0
M  ISO  8  29   8  30  14  31  14  32  14  33  14  34  14  35   8  36   8
M  ISO  8  37   8  38   8  39   8  40  14  41  14  42  14  43   8  44   8
M  ISO  2  45   8  46   9
M  END
>  <minimizedAffinity>  (1) 
-5.42309713

>  <minimizedRMSD>  (1) 
1.02328169

$$$$
