
     RDKit          3D

 45 49  0  0  1  0  0  0  0  0999 V2000
   43.8210   35.3240   41.9580 C   0  0  0  0  0  0  0  0  0  0  0  0
   42.4860   35.6090   42.0600 C   0  0  0  0  0  0  0  0  0  0  0  0
   41.8810   35.0060   40.9710 C   0  0  0  0  0  0  0  0  0  0  0  0
   42.8910   34.4160   40.3130 N   0  0  0  0  0  0  0  0  0  0  0  0
   44.0740   34.5690   40.8510 N   0  0  0  0  0  0  0  0  0  0  0  0
   43.7750   34.0000   38.1120 N   0  0  0  0  0  0  0  0  0  0  0  0
   44.9390   33.1470   38.2990 C   0  0  0  0  0  0  0  0  0  0  0  0
   44.4730   31.9070   38.9820 C   0  0  0  0  0  0  0  0  0  0  0  0
   43.0230   32.1660   39.3470 C   0  0  0  0  0  0  0  0  0  0  0  0
   42.7900   33.6270   39.0640 C   0  0  1  0  0  0  0  0  0  0  0  0
   41.4440   33.8660   38.4610 C   0  0  0  0  0  0  0  0  0  0  0  0
   40.4600   32.8950   38.5300 C   0  0  0  0  0  0  0  0  0  0  0  0
   39.3760   33.3860   37.9100 N   0  0  0  0  0  0  0  0  0  0  0  0
   39.6320   34.6380   37.4480 C   0  0  0  0  0  0  0  0  0  0  0  0
   40.9030   34.8830   37.8080 N   0  0  0  0  0  0  0  0  0  0  0  0
   44.8320   35.7890   42.9310 C   0  0  0  0  0  0  0  0  0  0  0  0
   45.3310   36.9040   42.8120 O   0  0  0  0  0  0  0  0  0  0  0  0
   44.6260   35.1550   45.2560 C   0  0  0  0  0  0  0  0  0  0  0  0
   45.2330   34.9360   44.0190 C   0  0  0  0  0  0  0  0  0  0  0  0
   46.1600   33.9340   43.9140 C   0  0  0  0  0  0  0  0  0  0  0  0
   46.4490   33.1960   45.0200 N   0  0  0  0  0  0  0  0  0  0  0  0
   45.8680   33.4070   46.2020 C   0  0  0  0  0  0  0  0  0  0  0  0
   44.9420   34.3990   46.3300 N   0  0  0  0  0  0  0  0  0  0  0  0
   46.2730   32.5590   47.2540 N   0  0  0  0  0  0  0  0  0  0  0  0
   47.3620   31.8880   47.5370 N   0  0  0  0  0  0  0  0  0  0  0  0
   47.2060   31.2100   48.7170 C   0  0  0  0  0  0  0  0  0  0  0  0
   45.9240   31.5020   49.1660 C   0  0  0  0  0  0  0  0  0  0  0  0
   45.3640   32.3600   48.2130 C   0  0  0  0  0  0  0  0  0  0  0  0
   41.9938   36.1980   42.8479 H   0  0  0  0  0  0  0  0  0  0  0  0
   40.8137   35.0095   40.7050 H   0  0  0  0  0  0  0  0  0  0  0  0
   44.0394   34.9855   38.2526 H   0  0  0  0  0  0  0  0  0  0  0  0
   45.3826   32.8961   37.3242 H   0  0  0  0  0  0  0  0  0  0  0  0
   45.7051   33.6588   38.9000 H   0  0  0  0  0  0  0  0  0  0  0  0
   44.5508   31.0431   38.3056 H   0  0  0  0  0  0  0  0  0  0  0  0
   45.0820   31.6757   39.8684 H   0  0  0  0  0  0  0  0  0  0  0  0
   42.3552   31.5444   38.7325 H   0  0  0  0  0  0  0  0  0  0  0  0
   42.8166   31.9166   40.3983 H   0  0  0  0  0  0  0  0  0  0  0  0
   40.5498   31.9065   39.0041 H   0  0  0  0  0  0  0  0  0  0  0  0
   38.9492   35.3040   36.9001 H   0  0  0  0  0  0  0  0  0  0  0  0
   41.3996   35.7611   37.5999 H   0  0  0  0  0  0  0  0  0  0  0  0
   43.8786   35.9556   45.3583 H   0  0  0  0  0  0  0  0  0  0  0  0
   46.6605   33.7299   42.9560 H   0  0  0  0  0  0  0  0  0  0  0  0
   47.9471   30.5639   49.2102 H   0  0  0  0  0  0  0  0  0  0  0  0
   45.4457   31.1331   50.0853 H   0  0  0  0  0  0  0  0  0  0  0  0
   44.3538   32.7940   48.2472 H   0  0  0  0  0  0  0  0  0  0  0  0
  1  2  1  0
  1 16  1  0
  3  2  2  0
  4  5  1  0
  4  3  1  0
  5  1  2  0
  6  7  1  0
  6 10  1  0
  7  8  1  0
  8  9  1  0
 10 11  1  0
 10  9  1  0
 10  4  1  1
 11 12  2  0
 13 12  1  0
 14 15  1  0
 14 13  2  0
 15 11  1  0
 16 19  1  0
 17 16  2  0
 18 23  2  0
 19 18  1  0
 20 19  2  0
 20 21  1  0
 21 22  2  0
 22 23  1  0
 22 24  1  0
 24 25  1  0
 24 28  1  0
 25 26  2  0
 26 27  1  0
 28 27  2  0
  2 29  1  0
  3 30  1  0
  6 31  1  0
  7 32  1  0
  7 33  1  0
  8 34  1  0
  8 35  1  0
  9 36  1  0
  9 37  1  0
 12 38  1  0
 14 39  1  0
 15 40  1  0
 18 41  1  0
 20 42  1  0
 26 43  1  0
 27 44  1  0
 28 45  1  0
M  ISO  8  29  14  30  14  31   5  32  13  33  13  34  13  35  13  36  13
M  ISO  8  37  13  38  14  39  14  40   9  41  14  42  14  43  14  44  14
M  ISO  1  45  14
M  END
>  <minimizedAffinity>  (1) 
-6.84249735

>  <minimizedRMSD>  (1) 
1.26168549

$$$$
