
     RDKit          3D

 43 47  0  0  1  0  0  0  0  0999 V2000
   43.7550   35.3050   41.9850 C   0  0  0  0  0  0  0  0  0  0  0  0
   42.4070   35.4840   42.1660 C   0  0  0  0  0  0  0  0  0  0  0  0
   41.7940   34.9080   41.0750 C   0  0  0  0  0  0  0  0  0  0  0  0
   42.7860   34.4320   40.3270 N   0  0  0  0  0  0  0  0  0  0  0  0
   43.9970   34.6390   40.8240 N   0  0  0  0  0  0  0  0  0  0  0  0
   43.7250   34.0480   38.1360 N   0  0  0  0  0  0  0  0  0  0  0  0
   44.8060   33.0900   38.3340 C   0  0  0  0  0  0  0  0  0  0  0  0
   44.2040   31.8670   38.9330 C   0  0  0  0  0  0  0  0  0  0  0  0
   42.7680   32.2220   39.2500 C   0  0  0  0  0  0  0  0  0  0  0  0
   42.6840   33.7220   39.0450 C   0  0  1  0  0  0  0  0  0  0  0  0
   41.3720   34.0720   38.4140 C   0  0  0  0  0  0  0  0  0  0  0  0
   41.0820   35.2110   37.7740 N   0  0  0  0  0  0  0  0  0  0  0  0
   39.8660   35.2280   37.3260 O   0  0  0  0  0  0  0  0  0  0  0  0
   39.3400   34.0680   37.6810 C   0  0  0  0  0  0  0  0  0  0  0  0
   40.2430   33.3040   38.3680 N   0  0  0  0  0  0  0  0  0  0  0  0
   44.7740   35.7800   42.9330 C   0  0  0  0  0  0  0  0  0  0  0  0
   45.2710   36.8930   42.7990 O   0  0  0  0  0  0  0  0  0  0  0  0
   44.6040   35.1540   45.2620 C   0  0  0  0  0  0  0  0  0  0  0  0
   45.1930   34.9330   44.0280 C   0  0  0  0  0  0  0  0  0  0  0  0
   46.1220   33.9440   43.9130 C   0  0  0  0  0  0  0  0  0  0  0  0
   46.4310   33.2150   45.0210 N   0  0  0  0  0  0  0  0  0  0  0  0
   45.8680   33.4240   46.2090 C   0  0  0  0  0  0  0  0  0  0  0  0
   44.9320   34.4150   46.3390 N   0  0  0  0  0  0  0  0  0  0  0  0
   46.2910   32.5860   47.2580 N   0  0  0  0  0  0  0  0  0  0  0  0
   47.3850   31.9120   47.5370 N   0  0  0  0  0  0  0  0  0  0  0  0
   47.2450   31.2500   48.7110 C   0  0  0  0  0  0  0  0  0  0  0  0
   45.9880   31.5360   49.1770 C   0  0  0  0  0  0  0  0  0  0  0  0
   45.3970   32.3920   48.2310 C   0  0  0  0  0  0  0  0  0  0  0  0
   41.9148   35.9863   43.0118 H   0  0  0  0  0  0  0  0  0  0  0  0
   40.7153   34.8533   40.8668 H   0  0  0  0  0  0  0  0  0  0  0  0
   44.0648   35.0027   38.3203 H   0  0  0  0  0  0  0  0  0  0  0  0
   45.2750   32.8459   37.3694 H   0  0  0  0  0  0  0  0  0  0  0  0
   45.5822   33.5067   38.9926 H   0  0  0  0  0  0  0  0  0  0  0  0
   44.2425   31.0323   38.2176 H   0  0  0  0  0  0  0  0  0  0  0  0
   44.7490   31.5493   39.8341 H   0  0  0  0  0  0  0  0  0  0  0  0
   42.0804   31.6990   38.5691 H   0  0  0  0  0  0  0  0  0  0  0  0
   42.4834   31.9264   40.2706 H   0  0  0  0  0  0  0  0  0  0  0  0
   38.3096   33.7575   37.4533 H   0  0  0  0  0  0  0  0  0  0  0  0
   43.8521   35.9503   45.3645 H   0  0  0  0  0  0  0  0  0  0  0  0
   46.6107   33.7390   42.9491 H   0  0  0  0  0  0  0  0  0  0  0  0
   47.9947   30.6076   49.1961 H   0  0  0  0  0  0  0  0  0  0  0  0
   45.5315   31.1682   50.1078 H   0  0  0  0  0  0  0  0  0  0  0  0
   44.3859   32.8221   48.2827 H   0  0  0  0  0  0  0  0  0  0  0  0
  1  2  1  0
  1 16  1  0
  3  2  2  0
  4  5  1  0
  4  3  1  0
  5  1  2  0
  6  7  1  0
  6 10  1  0
  7  8  1  0
  8  9  1  0
 10 11  1  0
 10  9  1  0
 10  4  1  1
 12 11  2  0
 13 14  1  0
 13 12  1  0
 14 15  2  0
 15 11  1  0
 16 19  1  0
 17 16  2  0
 18 23  2  0
 19 18  1  0
 20 19  2  0
 20 21  1  0
 21 22  2  0
 22 23  1  0
 22 24  1  0
 24 25  1  0
 24 28  1  0
 25 26  2  0
 26 27  1  0
 28 27  2  0
  2 29  1  0
  3 30  1  0
  6 31  1  0
  7 32  1  0
  7 33  1  0
  8 34  1  0
  8 35  1  0
  9 36  1  0
  9 37  1  0
 14 38  1  0
 18 39  1  0
 20 40  1  0
 26 41  1  0
 27 42  1  0
 28 43  1  0
M  ISO  8  29  14  30  14  31   5  32  13  33  13  34  13  35  13  36  13
M  ISO  7  37  13  38  14  39  14  40  14  41  14  42  14  43  14
M  END
>  <minimizedAffinity>  (1) 
-6.75430822

>  <minimizedRMSD>  (1) 
1.26420057

$$$$
