
     RDKit          3D

 45 49  0  0  1  0  0  0  0  0999 V2000
   43.7730   35.2880   41.9450 C   0  0  0  0  0  0  0  0  0  0  0  0
   42.4310   35.4380   42.1200 C   0  0  0  0  0  0  0  0  0  0  0  0
   41.8240   34.8660   41.0210 C   0  0  0  0  0  0  0  0  0  0  0  0
   42.8420   34.4180   40.2760 N   0  0  0  0  0  0  0  0  0  0  0  0
   44.0290   34.6430   40.7770 N   0  0  0  0  0  0  0  0  0  0  0  0
   43.7940   34.0800   38.0790 N   0  0  0  0  0  0  0  0  0  0  0  0
   44.8680   33.1350   38.2670 C   0  0  0  0  0  0  0  0  0  0  0  0
   44.2970   31.8920   38.8520 C   0  0  0  0  0  0  0  0  0  0  0  0
   42.8500   32.2350   39.1670 C   0  0  0  0  0  0  0  0  0  0  0  0
   42.7370   33.7170   38.9790 C   0  0  1  0  0  0  0  0  0  0  0  0
   41.4310   34.0110   38.4270 N   0  0  0  0  0  0  0  0  0  0  0  0
   40.6820   35.0260   37.9550 C   0  0  0  0  0  0  0  0  0  0  0  0
   39.4460   34.5450   37.5730 C   0  0  0  0  0  0  0  0  0  0  0  0
   39.4480   33.2040   37.8230 N   0  0  0  0  0  0  0  0  0  0  0  0
   40.6630   32.8860   38.3440 C   0  0  0  0  0  0  0  0  0  0  0  0
   44.7890   35.7670   42.9010 C   0  0  0  0  0  0  0  0  0  0  0  0
   45.2810   36.8820   42.7600 O   0  0  0  0  0  0  0  0  0  0  0  0
   44.6080   35.1580   45.2330 C   0  0  0  0  0  0  0  0  0  0  0  0
   45.2000   34.9280   43.9980 C   0  0  0  0  0  0  0  0  0  0  0  0
   46.1260   33.9380   43.8910 C   0  0  0  0  0  0  0  0  0  0  0  0
   46.4310   33.2110   45.0070 N   0  0  0  0  0  0  0  0  0  0  0  0
   45.8590   33.4330   46.1940 C   0  0  0  0  0  0  0  0  0  0  0  0
   44.9320   34.4210   46.3170 N   0  0  0  0  0  0  0  0  0  0  0  0
   46.2850   32.5940   47.2490 N   0  0  0  0  0  0  0  0  0  0  0  0
   47.3880   31.9260   47.5250 N   0  0  0  0  0  0  0  0  0  0  0  0
   47.2470   31.2670   48.7030 C   0  0  0  0  0  0  0  0  0  0  0  0
   45.9870   31.5530   49.1630 C   0  0  0  0  0  0  0  0  0  0  0  0
   45.3890   32.3980   48.2260 C   0  0  0  0  0  0  0  0  0  0  0  0
   41.9289   35.9209   42.9713 H   0  0  0  0  0  0  0  0  0  0  0  0
   40.7476   34.7943   40.8058 H   0  0  0  0  0  0  0  0  0  0  0  0
   44.1233   35.0330   38.2896 H   0  0  0  0  0  0  0  0  0  0  0  0
   45.3385   32.9088   37.2988 H   0  0  0  0  0  0  0  0  0  0  0  0
   45.6306   33.5555   38.9390 H   0  0  0  0  0  0  0  0  0  0  0  0
   44.3498   31.0646   38.1291 H   0  0  0  0  0  0  0  0  0  0  0  0
   44.8483   31.5645   39.7458 H   0  0  0  0  0  0  0  0  0  0  0  0
   42.1721   31.7080   38.4795 H   0  0  0  0  0  0  0  0  0  0  0  0
   42.5728   31.9319   40.1874 H   0  0  0  0  0  0  0  0  0  0  0  0
   41.0051   36.0751   37.8849 H   0  0  0  0  0  0  0  0  0  0  0  0
   38.6177   35.1310   37.1482 H   0  0  0  0  0  0  0  0  0  0  0  0
   40.9781   31.8778   38.6511 H   0  0  0  0  0  0  0  0  0  0  0  0
   43.8590   35.9578   45.3302 H   0  0  0  0  0  0  0  0  0  0  0  0
   46.6175   33.7276   42.9297 H   0  0  0  0  0  0  0  0  0  0  0  0
   47.9967   30.6284   49.1930 H   0  0  0  0  0  0  0  0  0  0  0  0
   45.5328   31.1857   50.0951 H   0  0  0  0  0  0  0  0  0  0  0  0
   44.3754   32.8220   48.2796 H   0  0  0  0  0  0  0  0  0  0  0  0
  1  2  1  0
  1 16  1  0
  3  2  2  0
  4  5  1  0
  4  3  1  0
  5  1  2  0
  6  7  1  0
  6 10  1  0
  7  8  1  0
  8  9  1  0
 10 11  1  6
 10  9  1  0
 10  4  1  0
 12 11  1  0
 13 14  1  0
 13 12  2  0
 14 15  2  0
 15 11  1  0
 16 19  1  0
 17 16  2  0
 18 23  2  0
 19 18  1  0
 20 19  2  0
 20 21  1  0
 21 22  2  0
 22 23  1  0
 22 24  1  0
 24 25  1  0
 24 28  1  0
 25 26  2  0
 26 27  1  0
 28 27  2  0
  2 29  1  0
  3 30  1  0
  6 31  1  0
  7 32  1  0
  7 33  1  0
  8 34  1  0
  8 35  1  0
  9 36  1  0
  9 37  1  0
 12 38  1  0
 13 39  1  0
 15 40  1  0
 18 41  1  0
 20 42  1  0
 26 43  1  0
 27 44  1  0
 28 45  1  0
M  ISO  8  29  14  30  14  31   5  32  13  33  13  34  13  35  13  36  13
M  ISO  8  37  13  38  14  39  14  40  14  41  14  42  14  43  14  44  14
M  ISO  1  45  14
M  END
>  <minimizedAffinity>  (1) 
-6.79263544

>  <minimizedRMSD>  (1) 
1.17678118

$$$$
