
     RDKit          3D

 47 50  0  0  1  0  0  0  0  0999 V2000
   43.4640   35.4640   41.9330 C   0  0  0  0  0  0  0  0  0  0  0  0
   42.1700   35.2630   42.3380 C   0  0  0  0  0  0  0  0  0  0  0  0
   41.4710   34.8950   41.2160 C   0  0  0  0  0  0  0  0  0  0  0  0
   42.3540   34.8960   40.2250 N   0  0  0  0  0  0  0  0  0  0  0  0
   43.5810   35.2300   40.5870 N   0  0  0  0  0  0  0  0  0  0  0  0
   43.3010   34.6690   38.0160 N   0  0  0  0  0  0  0  0  0  0  0  0
   43.9270   33.3500   37.9830 C   0  0  0  0  0  0  0  0  0  0  0  0
   42.8630   32.3400   38.2710 C   0  0  0  0  0  0  0  0  0  0  0  0
   41.6550   33.1420   38.6560 C   0  0  0  0  0  0  0  0  0  0  0  0
   42.1280   34.5760   38.8180 C   0  0  1  0  0  0  0  0  0  0  0  0
   41.0470   35.4410   38.2010 C   0  0  0  0  0  0  0  0  0  0  0  0
   39.8590   34.6490   37.7190 C   0  0  0  0  0  0  0  0  0  0  0  0
   41.5640   36.4390   37.2110 C   0  0  0  0  0  0  0  0  0  0  0  0
   44.5560   35.8740   42.8260 C   0  0  0  0  0  0  0  0  0  0  0  0
   45.1030   36.9710   42.6620 O   0  0  0  0  0  0  0  0  0  0  0  0
   44.5480   35.3150   45.1710 C   0  0  0  0  0  0  0  0  0  0  0  0
   44.9870   35.0060   43.8820 C   0  0  0  0  0  0  0  0  0  0  0  0
   45.7820   33.9210   43.7240 C   0  0  0  0  0  0  0  0  0  0  0  0
   46.1210   33.1750   44.8160 N   0  0  0  0  0  0  0  0  0  0  0  0
   45.6970   33.4780   46.0430 C   0  0  0  0  0  0  0  0  0  0  0  0
   44.8930   34.5680   46.2370 N   0  0  0  0  0  0  0  0  0  0  0  0
   46.1360   32.6070   47.0730 N   0  0  0  0  0  0  0  0  0  0  0  0
   47.1760   31.8310   47.2570 N   0  0  0  0  0  0  0  0  0  0  0  0
   47.0850   31.2040   48.4570 C   0  0  0  0  0  0  0  0  0  0  0  0
   45.9150   31.6270   49.0340 C   0  0  0  0  0  0  0  0  0  0  0  0
   45.3190   32.5280   48.1310 C   0  0  0  0  0  0  0  0  0  0  0  0
   41.7720   35.3743   43.3574 H   0  0  0  0  0  0  0  0  0  0  0  0
   40.4006   34.6499   41.1513 H   0  0  0  0  0  0  0  0  0  0  0  0
   43.0498   34.9613   37.0608 H   0  0  0  0  0  0  0  0  0  0  0  0
   44.3612   33.1651   36.9894 H   0  0  0  0  0  0  0  0  0  0  0  0
   44.7340   33.2855   38.7277 H   0  0  0  0  0  0  0  0  0  0  0  0
   42.6547   31.7333   37.3774 H   0  0  0  0  0  0  0  0  0  0  0  0
   43.1633   31.6409   39.0654 H   0  0  0  0  0  0  0  0  0  0  0  0
   40.8900   33.0802   37.8680 H   0  0  0  0  0  0  0  0  0  0  0  0
   41.2034   32.7631   39.5847 H   0  0  0  0  0  0  0  0  0  0  0  0
   40.6593   36.0583   39.0248 H   0  0  0  0  0  0  0  0  0  0  0  0
   39.2939   34.2723   38.5843 H   0  0  0  0  0  0  0  0  0  0  0  0
   39.2097   35.2956   37.1104 H   0  0  0  0  0  0  0  0  0  0  0  0
   40.2061   33.8010   37.1104 H   0  0  0  0  0  0  0  0  0  0  0  0
   42.0059   37.2920   37.7469 H   0  0  0  0  0  0  0  0  0  0  0  0
   42.3304   35.9659   36.5795 H   0  0  0  0  0  0  0  0  0  0  0  0
   40.7354   36.7921   36.5795 H   0  0  0  0  0  0  0  0  0  0  0  0
   43.9024   36.1931   45.3198 H   0  0  0  0  0  0  0  0  0  0  0  0
   46.1510   33.6435   42.7256 H   0  0  0  0  0  0  0  0  0  0  0  0
   47.8090   30.4944   48.8840 H   0  0  0  0  0  0  0  0  0  0  0  0
   45.5186   31.3213   50.0135 H   0  0  0  0  0  0  0  0  0  0  0  0
   44.3676   33.0628   48.2680 H   0  0  0  0  0  0  0  0  0  0  0  0
  1  2  1  0
  1 14  1  0
  3  2  2  0
  4  5  1  0
  4  3  1  0
  5  1  2  0
  6 10  1  0
  7  6  1  0
  7  8  1  0
  8  9  1  0
  9 10  1  0
 10 11  1  6
 10  4  1  0
 12 11  1  0
 13 11  1  0
 14 17  1  0
 15 14  2  0
 16 21  2  0
 17 16  1  0
 18 17  2  0
 18 19  1  0
 19 20  2  0
 20 21  1  0
 20 22  1  0
 22 23  1  0
 22 26  1  0
 23 24  2  0
 24 25  1  0
 26 25  2  0
  2 27  1  0
  3 28  1  0
  6 29  1  0
  7 30  1  0
  7 31  1  0
  8 32  1  0
  8 33  1  0
  9 34  1  0
  9 35  1  0
 11 36  1  0
 12 37  1  0
 12 38  1  0
 12 39  1  0
 13 40  1  0
 13 41  1  0
 13 42  1  0
 16 43  1  0
 18 44  1  0
 24 45  1  0
 25 46  1  0
 26 47  1  0
M  ISO  8  27  14  28  14  29   5  30  13  31  13  32  13  33  13  34  13
M  ISO  8  35  13  36   8  37   8  38   8  39   8  40   8  41   8  42   8
M  ISO  5  43  14  44  14  45  14  46  14  47  14
M  END
>  <minimizedAffinity>  (1) 
-6.87808084

>  <minimizedRMSD>  (1) 
1.75112772

$$$$
