
     RDKit          3D

 39 42  0  0  1  0  0  0  0  0999 V2000
   44.4230   35.1880   41.7480 C   0  0  0  0  0  0  0  0  0  0  0  0
   43.1990   35.5940   41.2620 C   0  0  0  0  0  0  0  0  0  0  0  0
   42.9560   34.8220   40.1400 C   0  0  0  0  0  0  0  0  0  0  0  0
   44.0160   34.0290   40.0330 N   0  0  0  0  0  0  0  0  0  0  0  0
   44.9320   34.2010   40.9690 N   0  0  0  0  0  0  0  0  0  0  0  0
   45.0470   33.5000   37.9080 N   0  0  0  0  0  0  0  0  0  0  0  0
   46.4320   33.2140   38.2040 C   0  0  0  0  0  0  0  0  0  0  0  0
   46.4720   32.0780   39.1810 C   0  0  0  0  0  0  0  0  0  0  0  0
   45.0330   31.8530   39.5780 C   0  0  0  0  0  0  0  0  0  0  0  0
   44.2650   33.0110   39.0080 C   0  0  1  0  0  0  0  0  0  0  0  0
   42.6520   32.4660   38.3910 S   0  0  0  0  0  0  0  0  0  0  0  0
   45.0670   35.7550   42.9440 C   0  0  0  0  0  0  0  0  0  0  0  0
   45.3080   36.9570   42.9980 O   0  0  0  0  0  0  0  0  0  0  0  0
   44.6970   35.0780   45.2380 C   0  0  0  0  0  0  0  0  0  0  0  0
   45.4140   34.9010   44.0500 C   0  0  0  0  0  0  0  0  0  0  0  0
   46.3790   33.9520   44.0060 C   0  0  0  0  0  0  0  0  0  0  0  0
   46.6080   33.2070   45.1310 N   0  0  0  0  0  0  0  0  0  0  0  0
   45.9280   33.3720   46.2630 C   0  0  0  0  0  0  0  0  0  0  0  0
   44.9480   34.3250   46.3330 N   0  0  0  0  0  0  0  0  0  0  0  0
   46.2940   32.5150   47.3320 N   0  0  0  0  0  0  0  0  0  0  0  0
   47.3800   31.8710   47.6890 N   0  0  0  0  0  0  0  0  0  0  0  0
   47.1610   31.1790   48.8360 C   0  0  0  0  0  0  0  0  0  0  0  0
   45.8520   31.4240   49.1930 C   0  0  0  0  0  0  0  0  0  0  0  0
   45.3220   32.2790   48.2180 C   0  0  0  0  0  0  0  0  0  0  0  0
   42.5469   36.3743   41.6815 H   0  0  0  0  0  0  0  0  0  0  0  0
   42.0765   34.8573   39.4803 H   0  0  0  0  0  0  0  0  0  0  0  0
   44.9115   34.5157   37.8033 H   0  0  0  0  0  0  0  0  0  0  0  0
   46.9603   32.9316   37.2814 H   0  0  0  0  0  0  0  0  0  0  0  0
   46.9228   34.1016   38.6298 H   0  0  0  0  0  0  0  0  0  0  0  0
   46.8882   31.1761   38.7084 H   0  0  0  0  0  0  0  0  0  0  0  0
   47.1098   32.3018   40.0488 H   0  0  0  0  0  0  0  0  0  0  0  0
   44.6638   30.9053   39.1591 H   0  0  0  0  0  0  0  0  0  0  0  0
   44.9196   31.7906   40.6704 H   0  0  0  0  0  0  0  0  0  0  0  0
   41.8283   32.1877   39.4498 H   0  0  0  0  0  0  0  0  0  0  0  0
   43.9115   35.8468   45.2826 H   0  0  0  0  0  0  0  0  0  0  0  0
   46.9638   33.7842   43.0896 H   0  0  0  0  0  0  0  0  0  0  0  0
   47.8841   30.5482   49.3738 H   0  0  0  0  0  0  0  0  0  0  0  0
   45.3258   31.0254   50.0729 H   0  0  0  0  0  0  0  0  0  0  0  0
   44.2983   32.6805   48.1875 H   0  0  0  0  0  0  0  0  0  0  0  0
  1 12  1  0
  2  1  1  0
  3  2  2  0
  4  3  1  0
  4  5  1  0
  5  1  2  0
  6  7  1  0
  6 10  1  0
  7  8  1  0
  8  9  1  0
 10 11  1  6
 10  9  1  0
 10  4  1  0
 12 13  2  0
 12 15  1  0
 14 19  2  0
 15 14  1  0
 16 15  2  0
 16 17  1  0
 17 18  2  0
 18 19  1  0
 18 20  1  0
 20 21  1  0
 20 24  1  0
 21 22  2  0
 22 23  1  0
 24 23  2  0
  2 25  1  0
  3 26  1  0
  6 27  1  0
  7 28  1  0
  7 29  1  0
  8 30  1  0
  8 31  1  0
  9 32  1  0
  9 33  1  0
 11 34  1  0
 14 35  1  0
 16 36  1  0
 22 37  1  0
 23 38  1  0
 24 39  1  0
M  ISO  8  25  14  26  14  27   5  28  13  29  13  30  13  31  13  32  13
M  ISO  7  33  13  34  11  35  14  36  14  37  14  38  14  39  14
M  END
>  <minimizedAffinity>  (1) 
-6.22926569

>  <minimizedRMSD>  (1) 
0.491809219

$$$$
