
     RDKit          3D

 44 47  0  0  1  0  0  0  0  0999 V2000
   43.4200   35.4000   41.8480 C   0  0  0  0  0  0  0  0  0  0  0  0
   42.1120   35.2850   42.2440 C   0  0  0  0  0  0  0  0  0  0  0  0
   41.4180   34.8490   41.1380 C   0  0  0  0  0  0  0  0  0  0  0  0
   42.3400   34.7330   40.1660 N   0  0  0  0  0  0  0  0  0  0  0  0
   43.5580   35.0520   40.5400 N   0  0  0  0  0  0  0  0  0  0  0  0
   43.2920   34.4910   37.9600 N   0  0  0  0  0  0  0  0  0  0  0  0
   44.0470   33.2630   37.9980 C   0  0  0  0  0  0  0  0  0  0  0  0
   43.1080   32.1480   38.3570 C   0  0  0  0  0  0  0  0  0  0  0  0
   41.8070   32.8340   38.7250 C   0  0  0  0  0  0  0  0  0  0  0  0
   42.1240   34.3020   38.7830 C   0  0  1  0  0  0  0  0  0  0  0  0
   41.0380   35.1740   38.1770 C   0  0  0  0  0  0  0  0  0  0  0  0
   41.7560   36.2970   37.4410 C   0  0  0  0  0  0  0  0  0  0  0  0
   44.5080   35.8430   42.7420 C   0  0  0  0  0  0  0  0  0  0  0  0
   45.0350   36.9440   42.5660 O   0  0  0  0  0  0  0  0  0  0  0  0
   44.5240   35.3240   45.1040 C   0  0  0  0  0  0  0  0  0  0  0  0
   44.9540   34.9920   43.8160 C   0  0  0  0  0  0  0  0  0  0  0  0
   45.7540   33.9100   43.6470 C   0  0  0  0  0  0  0  0  0  0  0  0
   46.1040   33.1880   44.7500 N   0  0  0  0  0  0  0  0  0  0  0  0
   45.7000   33.4960   45.9820 C   0  0  0  0  0  0  0  0  0  0  0  0
   44.8900   34.5850   46.1770 N   0  0  0  0  0  0  0  0  0  0  0  0
   46.1480   32.6490   47.0190 N   0  0  0  0  0  0  0  0  0  0  0  0
   47.2000   31.8730   47.1950 N   0  0  0  0  0  0  0  0  0  0  0  0
   47.1310   31.2640   48.4150 C   0  0  0  0  0  0  0  0  0  0  0  0
   45.9600   31.7040   49.0110 C   0  0  0  0  0  0  0  0  0  0  0  0
   45.3620   32.5870   48.0860 C   0  0  0  0  0  0  0  0  0  0  0  0
   41.7012   35.4978   43.2420 H   0  0  0  0  0  0  0  0  0  0  0  0
   40.3405   34.6403   41.0650 H   0  0  0  0  0  0  0  0  0  0  0  0
   43.8612   35.2662   38.3287 H   0  0  0  0  0  0  0  0  0  0  0  0
   44.4948   33.0702   37.0120 H   0  0  0  0  0  0  0  0  0  0  0  0
   44.8542   33.3353   38.7418 H   0  0  0  0  0  0  0  0  0  0  0  0
   42.9611   31.4750   37.4994 H   0  0  0  0  0  0  0  0  0  0  0  0
   43.4962   31.5296   39.1797 H   0  0  0  0  0  0  0  0  0  0  0  0
   41.0401   32.6370   37.9614 H   0  0  0  0  0  0  0  0  0  0  0  0
   41.4105   32.4659   39.6828 H   0  0  0  0  0  0  0  0  0  0  0  0
   40.4261   34.5883   37.4752 H   0  0  0  0  0  0  0  0  0  0  0  0
   40.3631   35.5691   38.9506 H   0  0  0  0  0  0  0  0  0  0  0  0
   42.1989   36.9898   38.1716 H   0  0  0  0  0  0  0  0  0  0  0  0
   42.5506   35.8725   36.8098 H   0  0  0  0  0  0  0  0  0  0  0  0
   41.0372   36.8401   36.8098 H   0  0  0  0  0  0  0  0  0  0  0  0
   43.8766   36.2016   45.2479 H   0  0  0  0  0  0  0  0  0  0  0  0
   46.1111   33.6224   42.6471 H   0  0  0  0  0  0  0  0  0  0  0  0
   47.8621   30.5614   48.8414 H   0  0  0  0  0  0  0  0  0  0  0  0
   45.5750   31.4227   50.0023 H   0  0  0  0  0  0  0  0  0  0  0  0
   44.4139   33.1271   48.2251 H   0  0  0  0  0  0  0  0  0  0  0  0
  1  2  1  0
  1 13  1  0
  3  2  2  0
  4  5  1  0
  4  3  1  0
  5  1  2  0
  6  7  1  0
  6 10  1  0
  7  8  1  0
  8  9  1  0
  9 10  1  0
 10 11  1  6
 10  4  1  0
 12 11  1  0
 13 16  1  0
 14 13  2  0
 15 20  2  0
 16 15  1  0
 17 16  2  0
 17 18  1  0
 18 19  2  0
 19 20  1  0
 19 21  1  0
 21 22  1  0
 21 25  1  0
 22 23  2  0
 23 24  1  0
 25 24  2  0
  2 26  1  0
  3 27  1  0
  6 28  1  0
  7 29  1  0
  7 30  1  0
  8 31  1  0
  8 32  1  0
  9 33  1  0
  9 34  1  0
 11 35  1  0
 11 36  1  0
 12 37  1  0
 12 38  1  0
 12 39  1  0
 15 40  1  0
 17 41  1  0
 23 42  1  0
 24 43  1  0
 25 44  1  0
M  ISO  8  26  14  27  14  28   5  29  13  30  13  31  13  32  13  33  13
M  ISO  8  34  13  35   8  36   8  37   8  38   8  39   8  40  14  41  14
M  ISO  3  42  14  43  14  44  14
M  END
>  <minimizedAffinity>  (1) 
-6.33984947

>  <minimizedRMSD>  (1) 
1.4828794

$$$$
