
     RDKit          3D

 50 53  0  0  1  0  0  0  0  0999 V2000
   44.5280   34.7710   41.9410 C   0  0  0  0  0  0  0  0  0  0  0  0
   43.7830   35.9140   41.7340 C   0  0  0  0  0  0  0  0  0  0  0  0
   42.6330   35.5040   41.1100 C   0  0  0  0  0  0  0  0  0  0  0  0
   42.7410   34.1890   40.9810 N   0  0  0  0  0  0  0  0  0  0  0  0
   43.8640   33.6800   41.4640 N   0  0  0  0  0  0  0  0  0  0  0  0
   41.6350   32.0350   41.1250 N   0  0  0  0  0  0  0  0  0  0  0  0
   40.5520   32.2050   42.0580 C   0  0  0  0  0  0  0  0  0  0  0  0
   39.6640   33.2860   41.5380 C   0  0  0  0  0  0  0  0  0  0  0  0
   40.3920   33.8650   40.3630 C   0  0  0  0  0  0  0  0  0  0  0  0
   41.7860   33.2610   40.3810 C   0  0  1  0  0  0  0  0  0  0  0  0
   42.1760   32.8250   38.9900 C   0  0  0  0  0  0  0  0  0  0  0  0
   42.3920   31.3310   38.9700 C   0  0  0  0  0  0  0  0  0  0  0  0
   40.9080   33.0550   38.1490 C   0  0  0  0  0  0  0  0  0  0  0  0
   43.2480   33.6280   38.3500 C   0  0  0  0  0  0  0  0  0  0  0  0
   45.8480   34.7630   42.5880 C   0  0  0  0  0  0  0  0  0  0  0  0
   46.7970   35.3530   42.0610 O   0  0  0  0  0  0  0  0  0  0  0  0
   45.2120   34.4520   44.8940 C   0  0  0  0  0  0  0  0  0  0  0  0
   46.0340   34.0720   43.8310 C   0  0  0  0  0  0  0  0  0  0  0  0
   46.9490   33.0840   44.0380 C   0  0  0  0  0  0  0  0  0  0  0  0
   47.0330   32.5000   45.2660 N   0  0  0  0  0  0  0  0  0  0  0  0
   46.2360   32.8710   46.2890 C   0  0  0  0  0  0  0  0  0  0  0  0
   45.3120   33.8580   46.1080 N   0  0  0  0  0  0  0  0  0  0  0  0
   46.4370   32.1770   47.5000 N   0  0  0  0  0  0  0  0  0  0  0  0
   47.4470   31.5570   48.0620 N   0  0  0  0  0  0  0  0  0  0  0  0
   47.0740   31.0510   49.2760 C   0  0  0  0  0  0  0  0  0  0  0  0
   45.7570   31.3880   49.4490 C   0  0  0  0  0  0  0  0  0  0  0  0
   45.3680   32.1100   48.2990 C   0  0  0  0  0  0  0  0  0  0  0  0
   44.0557   36.9427   42.0124 H   0  0  0  0  0  0  0  0  0  0  0  0
   41.7938   36.1359   40.7837 H   0  0  0  0  0  0  0  0  0  0  0  0
   42.5053   31.8274   41.6352 H   0  0  0  0  0  0  0  0  0  0  0  0
   39.9852   31.2665   42.1477 H   0  0  0  0  0  0  0  0  0  0  0  0
   40.9407   32.4731   43.0515 H   0  0  0  0  0  0  0  0  0  0  0  0
   38.6948   32.8709   41.2243 H   0  0  0  0  0  0  0  0  0  0  0  0
   39.4518   34.0463   42.3041 H   0  0  0  0  0  0  0  0  0  0  0  0
   40.4506   34.9597   40.4537 H   0  0  0  0  0  0  0  0  0  0  0  0
   39.8717   33.6384   39.4207 H   0  0  0  0  0  0  0  0  0  0  0  0
   42.4464   30.9545   40.0021 H   0  0  0  0  0  0  0  0  0  0  0  0
   41.5546   30.8464   38.4466 H   0  0  0  0  0  0  0  0  0  0  0  0
   43.3324   31.1035   38.4466 H   0  0  0  0  0  0  0  0  0  0  0  0
   40.0482   33.2110   38.8171 H   0  0  0  0  0  0  0  0  0  0  0  0
   41.0450   33.9429   37.5144 H   0  0  0  0  0  0  0  0  0  0  0  0
   40.7244   32.1755   37.5144 H   0  0  0  0  0  0  0  0  0  0  0  0
   43.8706   34.0944   39.1277 H   0  0  0  0  0  0  0  0  0  0  0  0
   43.8723   32.9735   37.7240 H   0  0  0  0  0  0  0  0  0  0  0  0
   42.7954   34.4112   37.7240 H   0  0  0  0  0  0  0  0  0  0  0  0
   44.4689   35.2489   44.7430 H   0  0  0  0  0  0  0  0  0  0  0  0
   47.6128   32.7613   43.2224 H   0  0  0  0  0  0  0  0  0  0  0  0
   47.7063   30.4850   49.9759 H   0  0  0  0  0  0  0  0  0  0  0  0
   45.1252   31.1436   50.3156 H   0  0  0  0  0  0  0  0  0  0  0  0
   44.3738   32.5362   48.0991 H   0  0  0  0  0  0  0  0  0  0  0  0
  1 15  1  0
  2  1  1  0
  3  2  2  0
  4  3  1  0
  4  5  1  0
  5  1  2  0
  6  7  1  0
  8  7  1  0
  9 10  1  0
  9  8  1  0
 10 11  1  6
 10  4  1  0
 10  6  1  0
 12 11  1  0
 13 11  1  0
 14 11  1  0
 15 18  1  0
 16 15  2  0
 17 22  2  0
 18 19  2  0
 18 17  1  0
 19 20  1  0
 20 21  2  0
 21 23  1  0
 22 21  1  0
 23 24  1  0
 23 27  1  0
 24 25  2  0
 25 26  1  0
 27 26  2  0
  2 28  1  0
  3 29  1  0
  6 30  1  0
  7 31  1  0
  7 32  1  0
  8 33  1  0
  8 34  1  0
  9 35  1  0
  9 36  1  0
 12 37  1  0
 12 38  1  0
 12 39  1  0
 13 40  1  0
 13 41  1  0
 13 42  1  0
 14 43  1  0
 14 44  1  0
 14 45  1  0
 17 46  1  0
 19 47  1  0
 25 48  1  0
 26 49  1  0
 27 50  1  0
M  ISO  8  28  14  29  14  30   5  31  13  32  13  33  13  34  13  35  13
M  ISO  8  36  13  37   8  38   8  39   8  40   8  41   8  42   8  43   8
M  ISO  7  44   8  45   8  46  14  47  14  48  14  49  14  50  14
M  END
>  <minimizedAffinity>  (1) 
-6.36740398

>  <minimizedRMSD>  (1) 
2.56042695

$$$$
