
     RDKit          3D

 25 25  0  0  0  0  0  0  0  0999 V2000
   46.1760   34.4750   43.3540 C   0  0  0  0  0  0  0  0  0  0  0  0
   45.6920   34.1550   44.6220 C   0  0  0  0  0  0  0  0  0  0  0  0
   44.8470   35.0190   45.3190 C   0  0  0  0  0  0  0  0  0  0  0  0
   44.5080   36.1830   44.7270 N   0  0  0  0  0  0  0  0  0  0  0  0
   44.9520   36.5160   43.5200 C   0  0  0  0  0  0  0  0  0  0  0  0
   45.7470   35.6810   42.8860 N   0  0  0  0  0  0  0  0  0  0  0  0
   46.0800   32.8500   45.1780 C   0  0  0  0  0  0  0  0  0  0  0  0
   45.5440   32.6740   46.4650 F   0  0  0  0  0  0  0  0  0  0  0  0
   47.3700   32.6060   45.3070 F   0  0  0  0  0  0  0  0  0  0  0  0
   45.4810   31.7700   44.5140 F   0  0  0  0  0  0  0  0  0  0  0  0
   47.1210   33.7010   42.5100 C   0  0  0  0  0  0  0  0  0  0  0  0
   47.2780   34.5080   41.1810 C   0  0  0  0  0  0  0  0  0  0  0  0
   48.5630   33.7570   42.9890 C   0  0  0  0  0  0  0  0  0  0  0  0
   46.6580   32.3870   42.0080 C   0  0  0  0  0  0  0  0  0  0  0  0
   44.4693   34.7596   46.3190 H   0  0  0  0  0  0  0  0  0  0  0  0
   44.6606   37.4715   43.0595 H   0  0  0  0  0  0  0  0  0  0  0  0
   47.4833   35.5631   41.4148 H   0  0  0  0  0  0  0  0  0  0  0  0
   48.1122   34.0930   40.5964 H   0  0  0  0  0  0  0  0  0  0  0  0
   46.3490   34.4360   40.5964 H   0  0  0  0  0  0  0  0  0  0  0  0
   48.5843   33.7578   44.0888 H   0  0  0  0  0  0  0  0  0  0  0  0
   49.1088   32.8794   42.6124 H   0  0  0  0  0  0  0  0  0  0  0  0
   49.0391   34.6743   42.6124 H   0  0  0  0  0  0  0  0  0  0  0  0
   46.4265   31.7301   42.8594 H   0  0  0  0  0  0  0  0  0  0  0  0
   45.7547   32.5259   41.3959 H   0  0  0  0  0  0  0  0  0  0  0  0
   47.4489   31.9290   41.3959 H   0  0  0  0  0  0  0  0  0  0  0  0
  1  2  2  0
  2  7  1  0
  2  3  1  0
  4  3  2  0
  5  4  1  0
  6  1  1  0
  6  5  2  0
  7  9  1  0
  7  8  1  0
 10  7  1  0
 11 13  1  0
 11  1  1  0
 12 11  1  0
 14 11  1  0
  3 15  1  0
  5 16  1  0
 12 17  1  0
 12 18  1  0
 12 19  1  0
 13 20  1  0
 13 21  1  0
 13 22  1  0
 14 23  1  0
 14 24  1  0
 14 25  1  0
M  ISO  8  15  14  16  14  17   8  18   8  19   8  20   8  21   8  22   8
M  ISO  3  23   8  24   8  25   8
M  END
>  <minimizedAffinity>  (1) 
-4.12343311

>  <minimizedRMSD>  (1) 
4.53344679

$$$$
