
     RDKit          3D

 15 15  0  0  0  0  0  0  0  0999 V2000
   45.9620   34.6450   43.8670 C   0  0  0  0  0  0  0  0  0  0  0  0
   46.9940   34.0260   43.1860 C   0  0  0  0  0  0  0  0  0  0  0  0
   47.5610   32.8810   43.7670 C   0  0  0  0  0  0  0  0  0  0  0  0
   47.0460   32.4790   44.9480 N   0  0  0  0  0  0  0  0  0  0  0  0
   46.0520   33.0960   45.5780 C   0  0  0  0  0  0  0  0  0  0  0  0
   45.4990   34.1900   45.0420 N   0  0  0  0  0  0  0  0  0  0  0  0
   47.4180   34.6080   41.8900 C   0  0  0  0  0  0  0  0  0  0  0  0
   48.3530   33.7950   41.2850 F   0  0  0  0  0  0  0  0  0  0  0  0
   47.9340   35.8640   41.9890 F   0  0  0  0  0  0  0  0  0  0  0  0
   46.3490   34.6440   40.9910 F   0  0  0  0  0  0  0  0  0  0  0  0
   45.2530   35.8190   43.4360 C   0  0  0  0  0  0  0  0  0  0  0  0
   45.0890   37.0160   43.1760 O   0  0  0  0  0  0  0  0  0  0  0  0
   48.3857   32.3373   43.2829 H   0  0  0  0  0  0  0  0  0  0  0  0
   45.6842   32.7077   46.5392 H   0  0  0  0  0  0  0  0  0  0  0  0
   44.2648   35.4025   43.1909 H   0  0  0  0  0  0  0  0  0  0  0  0
  1  6  2  0
  2  3  2  0
  2  1  1  0
  3  4  1  0
  4  5  2  0
  6  5  1  0
  7  9  1  0
  7  2  1  0
  8  7  1  0
 10  7  1  0
 11  1  1  0
 12 11  2  0
  3 13  1  0
  5 14  1  0
 11 15  1  0
M  ISO  3  13  14  14  14  15   6
M  END
>  <minimizedAffinity>  (1) 
-3.61908174

>  <minimizedRMSD>  (1) 
1.88433337

$$$$
