
     RDKit          3D

 38 41  0  0  1  0  0  0  0  0999 V2000
   47.2310   32.4440   44.6270 N   0  0  0  0  0  0  0  0  0  0  0  0
   47.1440   32.3550   46.0710 C   0  0  0  0  0  0  0  0  0  0  0  0
   45.8330   31.6360   46.2120 C   0  0  0  0  0  0  0  0  0  0  0  0
   45.8540   30.6560   45.1030 C   0  0  0  0  0  0  0  0  0  0  0  0
   47.0660   31.0240   44.2600 C   0  0  2  0  0  0  0  0  0  0  0  0
   48.2190   30.2420   44.6450 N   0  0  0  0  0  0  0  0  0  0  0  0
   48.5540   29.5600   45.7600 C   0  0  0  0  0  0  0  0  0  0  0  0
   49.7680   28.9880   45.6070 N   0  0  0  0  0  0  0  0  0  0  0  0
   50.2280   29.3080   44.3630 C   0  0  0  0  0  0  0  0  0  0  0  0
   51.4200   28.9470   43.7680 C   0  0  0  0  0  0  0  0  0  0  0  0
   51.6160   29.4050   42.5300 N   0  0  0  0  0  0  0  0  0  0  0  0
   50.6590   30.1750   41.9460 C   0  0  0  0  0  0  0  0  0  0  0  0
   49.4900   30.5420   42.4980 N   0  0  0  0  0  0  0  0  0  0  0  0
   49.2460   30.0970   43.7670 C   0  0  0  0  0  0  0  0  0  0  0  0
   52.3580   28.1400   44.4590 N   0  0  0  0  0  0  0  0  0  0  0  0
   47.4040   33.4850   43.6690 C   0  0  0  0  0  0  0  0  0  0  0  0
   46.3870   34.3340   43.2060 C   0  0  0  0  0  0  0  0  0  0  0  0
   46.7060   35.3080   42.2660 C   0  0  0  0  0  0  0  0  0  0  0  0
   47.9790   35.3850   41.8470 N   0  0  0  0  0  0  0  0  0  0  0  0
   48.9420   34.5600   42.3020 C   0  0  0  0  0  0  0  0  0  0  0  0
   48.6550   33.6060   43.2180 N   0  0  0  0  0  0  0  0  0  0  0  0
   45.0310   34.1120   43.7770 C   0  0  0  0  0  0  0  0  0  0  0  0
   44.1240   35.0040   43.1840 F   0  0  0  0  0  0  0  0  0  0  0  0
   44.9670   34.3680   45.1090 F   0  0  0  0  0  0  0  0  0  0  0  0
   44.5260   32.8980   43.4800 F   0  0  0  0  0  0  0  0  0  0  0  0
   47.9759   31.7731   46.4946 H   0  0  0  0  0  0  0  0  0  0  0  0
   47.2017   33.3189   46.5979 H   0  0  0  0  0  0  0  0  0  0  0  0
   45.7666   31.1271   47.1849 H   0  0  0  0  0  0  0  0  0  0  0  0
   44.9669   32.3128   46.1687 H   0  0  0  0  0  0  0  0  0  0  0  0
   45.9545   29.6333   45.4953 H   0  0  0  0  0  0  0  0  0  0  0  0
   44.9243   30.6834   44.5158 H   0  0  0  0  0  0  0  0  0  0  0  0
   46.9520   30.8431   43.1810 H   0  0  0  0  0  0  0  0  0  0  0  0
   47.9295   29.4813   46.6621 H   0  0  0  0  0  0  0  0  0  0  0  0
   50.8610   30.5311   40.9250 H   0  0  0  0  0  0  0  0  0  0  0  0
   53.2443   27.8769   44.0049 H   0  0  0  0  0  0  0  0  0  0  0  0
   52.1534   27.8166   45.4153 H   0  0  0  0  0  0  0  0  0  0  0  0
   45.9389   35.9941   41.8778 H   0  0  0  0  0  0  0  0  0  0  0  0
   49.9705   34.6627   41.9257 H   0  0  0  0  0  0  0  0  0  0  0  0
  1  2  1  0
  2  3  1  0
  4  3  1  0
  5  1  1  0
  5  6  1  0
  5  4  1  0
  6  7  1  0
  8  7  2  0
  9  8  1  0
 10  9  2  0
 10 15  1  0
 11 10  1  0
 12 13  1  0
 12 11  2  0
 13 14  2  0
 14  9  1  0
 14  6  1  0
 16  1  1  0
 17 16  2  0
 17 22  1  0
 18 17  1  0
 19 18  2  0
 19 20  1  0
 20 21  2  0
 21 16  1  0
 22 24  1  0
 23 22  1  0
 25 22  1  0
  2 26  1  0
  2 27  1  0
  3 28  1  0
  3 29  1  0
  4 30  1  0
  4 31  1  0
  5 32  1  6
  7 33  1  0
 12 34  1  0
 15 35  1  0
 15 36  1  0
 18 37  1  0
 20 38  1  0
M  ISO  8  26  13  27  13  28  13  29  13  30  13  31  13  32  13  33  14
M  ISO  3  34  14  37  14  38  14
M  END
>  <minimizedAffinity>  (1) 
-4.27601957

>  <minimizedRMSD>  (1) 
0.418464273

$$$$
