
     RDKit          3D

 39 42  0  0  1  0  0  0  0  0999 V2000
   47.2380   32.6020   44.6900 N   0  0  0  0  0  0  0  0  0  0  0  0
   47.1060   32.6020   46.1570 C   0  0  0  0  0  0  0  0  0  0  0  0
   45.8320   31.8350   46.3190 C   0  0  0  0  0  0  0  0  0  0  0  0
   45.9020   30.7910   45.2540 C   0  0  0  0  0  0  0  0  0  0  0  0
   47.1490   31.1820   44.4860 C   0  0  1  0  0  0  0  0  0  0  0  0
   47.3350   30.6270   43.1820 C   0  0  0  0  0  0  0  0  0  0  0  0
   46.5700   30.3200   42.0740 C   0  0  0  0  0  0  0  0  0  0  0  0
   47.2420   29.7920   41.0390 N   0  0  0  0  0  0  0  0  0  0  0  0
   48.5080   29.7290   41.4340 C   0  0  0  0  0  0  0  0  0  0  0  0
   49.6210   29.2680   40.7580 C   0  0  0  0  0  0  0  0  0  0  0  0
   50.8660   29.2880   41.3470 C   0  0  0  0  0  0  0  0  0  0  0  0
   50.9850   29.7770   42.6300 C   0  0  0  0  0  0  0  0  0  0  0  0
   49.8720   30.2360   43.3010 C   0  0  0  0  0  0  0  0  0  0  0  0
   48.6020   30.2210   42.7100 C   0  0  0  0  0  0  0  0  0  0  0  0
   47.3940   33.5910   43.6980 C   0  0  0  0  0  0  0  0  0  0  0  0
   46.3560   34.3590   43.1520 C   0  0  0  0  0  0  0  0  0  0  0  0
   46.6570   35.2970   42.1780 C   0  0  0  0  0  0  0  0  0  0  0  0
   47.9560   35.4140   41.8080 N   0  0  0  0  0  0  0  0  0  0  0  0
   48.9350   34.6720   42.3400 C   0  0  0  0  0  0  0  0  0  0  0  0
   48.6600   33.7450   43.2990 N   0  0  0  0  0  0  0  0  0  0  0  0
   44.9890   34.0890   43.6810 C   0  0  0  0  0  0  0  0  0  0  0  0
   44.0590   34.8800   42.9890 F   0  0  0  0  0  0  0  0  0  0  0  0
   44.8430   34.4120   44.9920 F   0  0  0  0  0  0  0  0  0  0  0  0
   44.5670   32.8270   43.4370 F   0  0  0  0  0  0  0  0  0  0  0  0
   47.9515   32.0907   46.6403 H   0  0  0  0  0  0  0  0  0  0  0  0
   47.0992   33.6019   46.6155 H   0  0  0  0  0  0  0  0  0  0  0  0
   45.7773   31.3736   47.3161 H   0  0  0  0  0  0  0  0  0  0  0  0
   44.9397   32.4720   46.2299 H   0  0  0  0  0  0  0  0  0  0  0  0
   46.0032   29.7860   45.6897 H   0  0  0  0  0  0  0  0  0  0  0  0
   44.9993   30.7456   44.6270 H   0  0  0  0  0  0  0  0  0  0  0  0
   48.0567   30.6901   44.8656 H   0  0  0  0  0  0  0  0  0  0  0  0
   45.4847   30.4961   42.0419 H   0  0  0  0  0  0  0  0  0  0  0  0
   46.8568   29.4978   40.1302 H   0  0  0  0  0  0  0  0  0  0  0  0
   49.5115   28.8794   39.7348 H   0  0  0  0  0  0  0  0  0  0  0  0
   51.7489   28.9205   40.8034 H   0  0  0  0  0  0  0  0  0  0  0  0
   51.9699   29.8010   43.1193 H   0  0  0  0  0  0  0  0  0  0  0  0
   49.9836   30.6232   44.3245 H   0  0  0  0  0  0  0  0  0  0  0  0
   45.8739   35.9215   41.7233 H   0  0  0  0  0  0  0  0  0  0  0  0
   49.9714   34.8124   41.9993 H   0  0  0  0  0  0  0  0  0  0  0  0
  1  2  1  0
  2  3  1  0
  4  3  1  0
  5  1  1  0
  5  4  1  0
  6  5  1  0
  7  6  2  0
  8  9  1  0
  8  7  1  0
  9 14  2  0
 10 11  2  0
 10  9  1  0
 11 12  1  0
 12 13  2  0
 14  6  1  0
 14 13  1  0
 15  1  1  0
 16 21  1  0
 16 15  2  0
 17 16  1  0
 18 17  2  0
 18 19  1  0
 19 20  2  0
 20 15  1  0
 21 23  1  0
 22 21  1  0
 24 21  1  0
  2 25  1  0
  2 26  1  0
  3 27  1  0
  3 28  1  0
  4 29  1  0
  4 30  1  0
  5 31  1  1
  7 32  1  0
  8 33  1  0
 10 34  1  0
 11 35  1  0
 12 36  1  0
 13 37  1  0
 17 38  1  0
 19 39  1  0
M  ISO  8  25  13  26  13  27  13  28  13  29  13  30  13  31  13  32  14
M  ISO  7  33   9  34  14  35  14  36  14  37  14  38  14  39  14
M  END
>  <minimizedAffinity>  (1) 
-4.03062201

>  <minimizedRMSD>  (1) 
1.77048099

$$$$
