
     RDKit          3D

 35 37  0  0  1  0  0  0  0  0999 V2000
   47.1970   32.6650   44.7750 N   0  0  0  0  0  0  0  0  0  0  0  0
   47.1040   32.6960   46.2320 C   0  0  0  0  0  0  0  0  0  0  0  0
   45.7610   32.0700   46.4320 C   0  0  0  0  0  0  0  0  0  0  0  0
   45.7330   30.9900   45.4050 C   0  0  0  0  0  0  0  0  0  0  0  0
   46.9400   31.2500   44.5670 C   0  0  2  0  0  0  0  0  0  0  0  0
   48.0800   30.3740   44.7120 C   0  0  0  0  0  0  0  0  0  0  0  0
   48.9500   30.2470   43.6520 C   0  0  0  0  0  0  0  0  0  0  0  0
   50.0730   29.4560   43.6940 C   0  0  0  0  0  0  0  0  0  0  0  0
   50.4090   28.7190   44.8360 C   0  0  0  0  0  0  0  0  0  0  0  0
   49.5600   28.8200   45.9210 C   0  0  0  0  0  0  0  0  0  0  0  0
   48.4530   29.6320   45.8070 C   0  0  0  0  0  0  0  0  0  0  0  0
   47.4250   33.6050   43.7440 C   0  0  0  0  0  0  0  0  0  0  0  0
   46.4590   34.4810   43.2270 C   0  0  0  0  0  0  0  0  0  0  0  0
   46.8250   35.3420   42.2010 C   0  0  0  0  0  0  0  0  0  0  0  0
   48.1070   35.2800   41.7600 N   0  0  0  0  0  0  0  0  0  0  0  0
   49.0120   34.4420   42.2640 C   0  0  0  0  0  0  0  0  0  0  0  0
   48.6660   33.6050   43.2580 N   0  0  0  0  0  0  0  0  0  0  0  0
   45.1050   34.4150   43.8380 C   0  0  0  0  0  0  0  0  0  0  0  0
   44.2600   35.3280   43.1930 F   0  0  0  0  0  0  0  0  0  0  0  0
   45.0810   34.7700   45.1520 F   0  0  0  0  0  0  0  0  0  0  0  0
   44.4970   33.2230   43.6490 F   0  0  0  0  0  0  0  0  0  0  0  0
   47.9025   32.1036   46.7027 H   0  0  0  0  0  0  0  0  0  0  0  0
   47.2150   33.6956   46.6775 H   0  0  0  0  0  0  0  0  0  0  0  0
   45.6670   31.6531   47.4456 H   0  0  0  0  0  0  0  0  0  0  0  0
   44.9317   32.7853   46.3289 H   0  0  0  0  0  0  0  0  0  0  0  0
   45.7933   29.9992   45.8791 H   0  0  0  0  0  0  0  0  0  0  0  0
   44.8035   30.9920   44.8168 H   0  0  0  0  0  0  0  0  0  0  0  0
   46.7352   30.9977   43.5161 H   0  0  0  0  0  0  0  0  0  0  0  0
   48.7360   30.8049   42.7284 H   0  0  0  0  0  0  0  0  0  0  0  0
   50.7237   29.4005   42.8089 H   0  0  0  0  0  0  0  0  0  0  0  0
   51.3091   28.0875   44.8678 H   0  0  0  0  0  0  0  0  0  0  0  0
   49.7623   28.2673   46.8503 H   0  0  0  0  0  0  0  0  0  0  0  0
   47.7967   29.6931   46.6876 H   0  0  0  0  0  0  0  0  0  0  0  0
   46.1036   36.0472   41.7625 H   0  0  0  0  0  0  0  0  0  0  0  0
   50.0384   34.4349   41.8685 H   0  0  0  0  0  0  0  0  0  0  0  0
  1  2  1  0
  2  3  1  0
  4  3  1  0
  5  6  1  0
  5  1  1  0
  5  4  1  0
  6 11  2  0
  7  8  2  0
  7  6  1  0
  8  9  1  0
  9 10  2  0
 11 10  1  0
 12  1  1  0
 13 12  2  0
 13 18  1  0
 14 13  1  0
 15 14  2  0
 15 16  1  0
 16 17  2  0
 17 12  1  0
 18 20  1  0
 19 18  1  0
 21 18  1  0
  2 22  1  0
  2 23  1  0
  3 24  1  0
  3 25  1  0
  4 26  1  0
  4 27  1  0
  5 28  1  6
  7 29  1  0
  8 30  1  0
  9 31  1  0
 10 32  1  0
 11 33  1  0
 14 34  1  0
 16 35  1  0
M  ISO  8  22  13  23  13  24  13  25  13  26  13  27  13  28  13  29  14
M  ISO  6  30  14  31  14  32  14  33  14  34  14  35  14
M  END
>  <minimizedAffinity>  (1) 
-4.16619587

>  <minimizedRMSD>  (1) 
0.906049073

$$$$
