
     RDKit          3D

 33 35  0  0  1  0  0  0  0  0999 V2000
   47.2370   32.4420   44.6650 N   0  0  0  0  0  0  0  0  0  0  0  0
   47.1540   32.4110   46.1170 C   0  0  0  0  0  0  0  0  0  0  0  0
   45.8340   31.7100   46.2890 C   0  0  0  0  0  0  0  0  0  0  0  0
   45.8360   30.6960   45.2170 C   0  0  0  0  0  0  0  0  0  0  0  0
   47.0590   31.0430   44.3650 C   0  0  2  0  0  0  0  0  0  0  0  0
   47.4160   33.4650   43.6910 C   0  0  0  0  0  0  0  0  0  0  0  0
   46.4060   34.3220   43.2210 C   0  0  0  0  0  0  0  0  0  0  0  0
   46.7240   35.2750   42.2600 C   0  0  0  0  0  0  0  0  0  0  0  0
   48.0040   35.3220   41.8290 N   0  0  0  0  0  0  0  0  0  0  0  0
   48.9510   34.5010   42.2860 C   0  0  0  0  0  0  0  0  0  0  0  0
   48.6540   33.5780   43.2120 N   0  0  0  0  0  0  0  0  0  0  0  0
   45.0530   34.1290   43.8120 C   0  0  0  0  0  0  0  0  0  0  0  0
   44.1520   35.0190   43.2030 F   0  0  0  0  0  0  0  0  0  0  0  0
   45.0020   34.4210   45.1390 F   0  0  0  0  0  0  0  0  0  0  0  0
   44.5200   32.9140   43.5430 F   0  0  0  0  0  0  0  0  0  0  0  0
   48.1850   30.1650   44.6310 C   0  0  0  0  0  0  0  0  0  0  0  0
   48.3780   29.2480   45.6180 C   0  0  0  0  0  0  0  0  0  0  0  0
   49.4760   28.4470   45.8060 C   0  0  0  0  0  0  0  0  0  0  0  0
   50.4780   28.5940   44.8970 N   0  0  0  0  0  0  0  0  0  0  0  0
   50.3320   29.5010   43.8900 C   0  0  0  0  0  0  0  0  0  0  0  0
   49.2310   30.2600   43.7550 N   0  0  0  0  0  0  0  0  0  0  0  0
   47.9813   31.8379   46.5609 H   0  0  0  0  0  0  0  0  0  0  0  0
   47.2234   33.3940   46.6059 H   0  0  0  0  0  0  0  0  0  0  0  0
   45.7680   31.2347   47.2788 H   0  0  0  0  0  0  0  0  0  0  0  0
   44.9756   32.3950   46.2271 H   0  0  0  0  0  0  0  0  0  0  0  0
   45.9300   29.6844   45.6386 H   0  0  0  0  0  0  0  0  0  0  0  0
   44.9037   30.7021   44.6332 H   0  0  0  0  0  0  0  0  0  0  0  0
   46.9453   30.8842   43.2825 H   0  0  0  0  0  0  0  0  0  0  0  0
   45.9629   35.9643   41.8656 H   0  0  0  0  0  0  0  0  0  0  0  0
   49.9786   34.5815   41.9019 H   0  0  0  0  0  0  0  0  0  0  0  0
   47.5619   29.1365   46.3470 H   0  0  0  0  0  0  0  0  0  0  0  0
   49.5422   27.7313   46.6387 H   0  0  0  0  0  0  0  0  0  0  0  0
   51.1466   29.6162   43.1598 H   0  0  0  0  0  0  0  0  0  0  0  0
  1  2  1  0
  2  3  1  0
  4  3  1  0
  5 16  1  0
  5  1  1  0
  5  4  1  0
  6  1  1  0
  7  6  2  0
  7 12  1  0
  8  7  1  0
  9  8  2  0
  9 10  1  0
 10 11  2  0
 11  6  1  0
 12 14  1  0
 13 12  1  0
 15 12  1  0
 16 17  2  0
 17 18  1  0
 19 18  2  0
 20 19  1  0
 21 20  2  0
 21 16  1  0
  2 22  1  0
  2 23  1  0
  3 24  1  0
  3 25  1  0
  4 26  1  0
  4 27  1  0
  5 28  1  6
  8 29  1  0
 10 30  1  0
 17 31  1  0
 18 32  1  0
 20 33  1  0
M  ISO  8  22  13  23  13  24  13  25  13  26  13  27  13  28  13  29  14
M  ISO  4  30  14  31  14  32  14  33  14
M  END
>  <minimizedAffinity>  (1) 
-3.97347522

>  <minimizedRMSD>  (1) 
0.527582109

$$$$
