
     RDKit          3D

 32 34  0  0  1  0  0  0  0  0999 V2000
   47.2410   32.4250   44.6170 N   0  0  0  0  0  0  0  0  0  0  0  0
   47.1490   32.3320   46.0660 C   0  0  0  0  0  0  0  0  0  0  0  0
   45.8420   31.6230   46.2030 C   0  0  0  0  0  0  0  0  0  0  0  0
   45.8720   30.6310   45.0940 C   0  0  0  0  0  0  0  0  0  0  0  0
   47.0810   31.0270   44.2550 C   0  0  2  0  0  0  0  0  0  0  0  0
   47.4130   33.4660   43.6640 C   0  0  0  0  0  0  0  0  0  0  0  0
   46.4020   34.3190   43.2200 C   0  0  0  0  0  0  0  0  0  0  0  0
   46.7200   35.2930   42.2700 C   0  0  0  0  0  0  0  0  0  0  0  0
   47.9920   35.3550   41.8330 N   0  0  0  0  0  0  0  0  0  0  0  0
   48.9450   34.5300   42.2710 C   0  0  0  0  0  0  0  0  0  0  0  0
   48.6520   33.5910   43.1840 N   0  0  0  0  0  0  0  0  0  0  0  0
   45.0520   34.1230   43.8090 C   0  0  0  0  0  0  0  0  0  0  0  0
   44.1490   35.0320   43.2300 F   0  0  0  0  0  0  0  0  0  0  0  0
   44.9980   34.3770   45.1450 F   0  0  0  0  0  0  0  0  0  0  0  0
   44.5170   32.9160   43.5190 F   0  0  0  0  0  0  0  0  0  0  0  0
   48.2570   30.1940   44.4980 C   0  0  0  0  0  0  0  0  0  0  0  0
   49.3770   30.1100   43.7020 C   0  0  0  0  0  0  0  0  0  0  0  0
   50.2730   29.2410   44.2190 N   0  0  0  0  0  0  0  0  0  0  0  0
   49.7540   28.7420   45.3570 C   0  0  0  0  0  0  0  0  0  0  0  0
   48.5540   29.3350   45.4880 N   0  0  0  0  0  0  0  0  0  0  0  0
   47.9772   31.7452   46.4900 H   0  0  0  0  0  0  0  0  0  0  0  0
   47.2093   33.2947   46.5948 H   0  0  0  0  0  0  0  0  0  0  0  0
   45.7666   31.1208   47.1788 H   0  0  0  0  0  0  0  0  0  0  0  0
   44.9773   32.3009   46.1506 H   0  0  0  0  0  0  0  0  0  0  0  0
   45.9907   29.6111   45.4887 H   0  0  0  0  0  0  0  0  0  0  0  0
   44.9405   30.6318   44.5089 H   0  0  0  0  0  0  0  0  0  0  0  0
   46.9450   30.8788   43.1735 H   0  0  0  0  0  0  0  0  0  0  0  0
   45.9554   35.9871   41.8911 H   0  0  0  0  0  0  0  0  0  0  0  0
   49.9707   34.6196   41.8838 H   0  0  0  0  0  0  0  0  0  0  0  0
   49.5229   30.6750   42.7695 H   0  0  0  0  0  0  0  0  0  0  0  0
   50.2132   28.0069   46.0343 H   0  0  0  0  0  0  0  0  0  0  0  0
   47.9190   29.1475   46.2770 H   0  0  0  0  0  0  0  0  0  0  0  0
  1  2  1  0
  2  3  1  0
  4  3  1  0
  5 16  1  0
  5  1  1  0
  5  4  1  0
  6  1  1  0
  7  6  2  0
  7 12  1  0
  8  7  1  0
  9  8  2  0
  9 10  1  0
 10 11  2  0
 11  6  1  0
 12 14  1  0
 13 12  1  0
 15 12  1  0
 16 20  1  0
 17 18  1  0
 17 16  2  0
 18 19  2  0
 19 20  1  0
  2 21  1  0
  2 22  1  0
  3 23  1  0
  3 24  1  0
  4 25  1  0
  4 26  1  0
  5 27  1  6
  8 28  1  0
 10 29  1  0
 17 30  1  0
 19 31  1  0
 20 32  1  0
M  ISO  8  21  13  22  13  23  13  24  13  25  13  26  13  27  13  28  14
M  ISO  4  29  14  30  14  31  14  32   9
M  END
>  <minimizedAffinity>  (1) 
-3.88322806

>  <minimizedRMSD>  (1) 
0.510198116

$$$$
