
     RDKit          3D

 39 41  0  0  1  0  0  0  0  0999 V2000
   48.0900   34.6950   41.2970 N   0  0  0  0  0  0  0  0  0  0  0  0
   49.3320   34.9950   41.9340 C   0  0  0  0  0  0  0  0  0  0  0  0
   50.1870   33.8450   42.2890 C   0  0  0  0  0  0  0  0  0  0  0  0
   49.3110   32.8550   42.8080 O   0  0  0  0  0  0  0  0  0  0  0  0
   48.7250   32.3290   41.6580 C   0  0  0  0  0  0  0  0  0  0  0  0
   47.9540   33.3550   40.8620 C   0  0  2  0  0  0  0  0  0  0  0  0
   48.4270   33.3180   39.4310 C   0  0  0  0  0  0  0  0  0  0  0  0
   48.0800   34.3000   38.5310 C   0  0  0  0  0  0  0  0  0  0  0  0
   48.6990   33.9160   37.3450 C   0  0  0  0  0  0  0  0  0  0  0  0
   49.3720   32.7430   37.5860 C   0  0  0  0  0  0  0  0  0  0  0  0
   49.1820   32.4200   38.8510 O   0  0  0  0  0  0  0  0  0  0  0  0
   47.0210   35.3150   41.9870 C   0  0  0  0  0  0  0  0  0  0  0  0
   45.7700   34.5000   42.1920 C   0  0  1  0  0  0  0  0  0  0  0  0
   44.7620   35.4450   44.3280 C   0  0  0  0  0  0  0  0  0  0  0  0
   45.4980   34.4360   43.6340 C   0  0  0  0  0  0  0  0  0  0  0  0
   45.9580   33.3720   44.4100 C   0  0  0  0  0  0  0  0  0  0  0  0
   45.6750   33.3780   45.7430 N   0  0  0  0  0  0  0  0  0  0  0  0
   44.9870   34.3350   46.3570 C   0  0  0  0  0  0  0  0  0  0  0  0
   44.5210   35.3850   45.6400 N   0  0  0  0  0  0  0  0  0  0  0  0
   44.6000   35.0180   41.4450 C   0  0  0  0  0  0  0  0  0  0  0  0
   49.9074   35.6419   41.2555 H   0  0  0  0  0  0  0  0  0  0  0  0
   49.0613   35.4622   42.8924 H   0  0  0  0  0  0  0  0  0  0  0  0
   50.7079   33.4657   41.3975 H   0  0  0  0  0  0  0  0  0  0  0  0
   50.9585   34.1258   43.0211 H   0  0  0  0  0  0  0  0  0  0  0  0
   49.5188   31.9148   41.0190 H   0  0  0  0  0  0  0  0  0  0  0  0
   48.0091   31.5579   41.9787 H   0  0  0  0  0  0  0  0  0  0  0  0
   46.8980   33.0764   40.9937 H   0  0  0  0  0  0  0  0  0  0  0  0
   47.4549   35.1875   38.7089 H   0  0  0  0  0  0  0  0  0  0  0  0
   48.6569   34.4549   36.3870 H   0  0  0  0  0  0  0  0  0  0  0  0
   49.9642   32.1740   36.8542 H   0  0  0  0  0  0  0  0  0  0  0  0
   47.3928   35.6064   42.9804 H   0  0  0  0  0  0  0  0  0  0  0  0
   46.7129   36.1506   41.3414 H   0  0  0  0  0  0  0  0  0  0  0  0
   45.9422   33.4924   41.7856 H   0  0  0  0  0  0  0  0  0  0  0  0
   44.3789   36.3050   43.7592 H   0  0  0  0  0  0  0  0  0  0  0  0
   46.5335   32.5506   43.9583 H   0  0  0  0  0  0  0  0  0  0  0  0
   44.7976   34.2747   47.4389 H   0  0  0  0  0  0  0  0  0  0  0  0
   43.8323   35.3579   42.1558 H   0  0  0  0  0  0  0  0  0  0  0  0
   44.9131   35.8616   40.8123 H   0  0  0  0  0  0  0  0  0  0  0  0
   44.1859   34.2191   40.8123 H   0  0  0  0  0  0  0  0  0  0  0  0
  1  2  1  0
  1 12  1  0
  2  3  1  0
  3  4  1  0
  5  4  1  0
  6  1  1  0
  6  5  1  0
  7  6  1  0
  8  7  2  0
  9 10  2  0
  9  8  1  0
 10 11  1  0
 11  7  1  0
 12 13  1  0
 13 15  1  0
 14 19  2  0
 15 14  1  0
 15 16  2  0
 16 17  1  0
 17 18  2  0
 19 18  1  0
 20 13  1  0
  2 21  1  0
  2 22  1  0
  3 23  1  0
  3 24  1  0
  5 25  1  0
  5 26  1  0
  6 27  1  6
  8 28  1  0
  9 29  1  0
 10 30  1  0
 12 31  1  0
 12 32  1  0
 13 33  1  6
 14 34  1  0
 16 35  1  0
 18 36  1  0
 20 37  1  0
 20 38  1  0
 20 39  1  0
M  ISO  8  21  13  22  13  23  13  24  13  25  13  26  13  27  13  28  14
M  ISO  8  29  14  30  14  31   8  32   8  33   8  34  14  35  14  36  14
M  ISO  3  37   8  38   8  39   8
M  END
>  <minimizedAffinity>  (1) 
-4.87164783

>  <minimizedRMSD>  (1) 
1.00799501

$$$$
