
     RDKit          3D

 32 34  0  0  1  0  0  0  0  0999 V2000
   47.2420   32.4470   44.6760 N   0  0  0  0  0  0  0  0  0  0  0  0
   47.1580   32.3970   46.1170 C   0  0  0  0  0  0  0  0  0  0  0  0
   45.8350   31.6960   46.2870 C   0  0  0  0  0  0  0  0  0  0  0  0
   45.8510   30.6840   45.2090 C   0  0  0  0  0  0  0  0  0  0  0  0
   47.0540   31.0410   44.3480 C   0  0  2  0  0  0  0  0  0  0  0  0
   47.4240   33.4640   43.6920 C   0  0  0  0  0  0  0  0  0  0  0  0
   46.4100   34.3200   43.2280 C   0  0  0  0  0  0  0  0  0  0  0  0
   46.7400   35.2660   42.2560 C   0  0  0  0  0  0  0  0  0  0  0  0
   48.0050   35.3080   41.8200 N   0  0  0  0  0  0  0  0  0  0  0  0
   48.9560   34.4810   42.2790 C   0  0  0  0  0  0  0  0  0  0  0  0
   48.6650   33.5600   43.2140 N   0  0  0  0  0  0  0  0  0  0  0  0
   45.0580   34.1390   43.8230 C   0  0  0  0  0  0  0  0  0  0  0  0
   44.1620   35.0200   43.2020 F   0  0  0  0  0  0  0  0  0  0  0  0
   45.0180   34.4300   45.1520 F   0  0  0  0  0  0  0  0  0  0  0  0
   44.5190   32.9270   43.5670 F   0  0  0  0  0  0  0  0  0  0  0  0
   48.2180   30.1950   44.5560 C   0  0  0  0  0  0  0  0  0  0  0  0
   48.4560   29.2320   45.4850 C   0  0  0  0  0  0  0  0  0  0  0  0
   49.7220   28.7450   45.2250 C   0  0  0  0  0  0  0  0  0  0  0  0
   50.1830   29.4580   44.1320 C   0  0  0  0  0  0  0  0  0  0  0  0
   49.2820   30.3020   43.7590 O   0  0  0  0  0  0  0  0  0  0  0  0
   47.9847   31.8167   46.5527 H   0  0  0  0  0  0  0  0  0  0  0  0
   47.2277   33.3749   46.6159 H   0  0  0  0  0  0  0  0  0  0  0  0
   45.7651   31.2188   47.2756 H   0  0  0  0  0  0  0  0  0  0  0  0
   44.9736   32.3776   46.2276 H   0  0  0  0  0  0  0  0  0  0  0  0
   45.9631   29.6737   45.6294 H   0  0  0  0  0  0  0  0  0  0  0  0
   44.9155   30.6834   44.6303 H   0  0  0  0  0  0  0  0  0  0  0  0
   46.8938   30.8693   43.2734 H   0  0  0  0  0  0  0  0  0  0  0  0
   45.9819   35.9575   41.8595 H   0  0  0  0  0  0  0  0  0  0  0  0
   49.9812   34.5569   41.8876 H   0  0  0  0  0  0  0  0  0  0  0  0
   47.7755   28.9053   46.2851 H   0  0  0  0  0  0  0  0  0  0  0  0
   50.2541   27.9537   45.7734 H   0  0  0  0  0  0  0  0  0  0  0  0
   51.1655   29.3254   43.6554 H   0  0  0  0  0  0  0  0  0  0  0  0
  1  2  1  0
  2  3  1  0
  4  3  1  0
  5 16  1  0
  5  1  1  0
  5  4  1  0
  6  1  1  0
  7  6  2  0
  7 12  1  0
  8  7  1  0
  9  8  2  0
  9 10  1  0
 10 11  2  0
 11  6  1  0
 12 14  1  0
 13 12  1  0
 15 12  1  0
 16 17  2  0
 18 17  1  0
 19 18  2  0
 20 19  1  0
 20 16  1  0
  2 21  1  0
  2 22  1  0
  3 23  1  0
  3 24  1  0
  4 25  1  0
  4 26  1  0
  5 27  1  6
  8 28  1  0
 10 29  1  0
 17 30  1  0
 18 31  1  0
 19 32  1  0
M  ISO  8  21  13  22  13  23  13  24  13  25  13  26  13  27  13  28  14
M  ISO  4  29  14  30  14  31  14  32  14
M  END
>  <minimizedAffinity>  (1) 
-3.94621992

>  <minimizedRMSD>  (1) 
0.493066728

$$$$
