
     RDKit          3D

 38 40  0  0  1  0  0  0  0  0999 V2000
   47.2320   32.6240   44.7880 N   0  0  0  0  0  0  0  0  0  0  0  0
   47.1170   32.6900   46.2230 C   0  0  0  0  0  0  0  0  0  0  0  0
   45.7730   32.0530   46.4280 C   0  0  0  0  0  0  0  0  0  0  0  0
   45.7640   30.9590   45.4200 C   0  0  0  0  0  0  0  0  0  0  0  0
   47.0190   31.2250   44.5920 C   0  0  2  0  0  0  0  0  0  0  0  0
   47.4540   33.5660   43.7380 C   0  0  0  0  0  0  0  0  0  0  0  0
   46.4980   34.4640   43.2310 C   0  0  0  0  0  0  0  0  0  0  0  0
   46.8590   35.3180   42.1970 C   0  0  0  0  0  0  0  0  0  0  0  0
   48.1200   35.2390   41.7290 N   0  0  0  0  0  0  0  0  0  0  0  0
   49.0140   34.3830   42.2200 C   0  0  0  0  0  0  0  0  0  0  0  0
   48.6790   33.5530   43.2180 N   0  0  0  0  0  0  0  0  0  0  0  0
   45.1560   34.4210   43.8750 C   0  0  0  0  0  0  0  0  0  0  0  0
   44.3100   35.3460   43.2430 F   0  0  0  0  0  0  0  0  0  0  0  0
   45.1820   34.8090   45.1890 F   0  0  0  0  0  0  0  0  0  0  0  0
   44.5190   33.2420   43.7100 F   0  0  0  0  0  0  0  0  0  0  0  0
   48.0440   30.2960   44.8330 N   0  0  0  0  0  0  0  0  0  0  0  0
   48.9690   29.9520   43.8090 C   0  0  0  0  0  0  0  0  0  0  0  0
   50.1640   29.2860   44.5210 C   0  0  0  0  0  0  0  0  0  0  0  0
   49.6720   28.5370   45.5880 O   0  0  0  0  0  0  0  0  0  0  0  0
   48.4670   27.9580   45.1400 C   0  0  0  0  0  0  0  0  0  0  0  0
   47.3840   29.0030   45.1540 C   0  0  0  0  0  0  0  0  0  0  0  0
   47.9154   32.1191   46.7196 H   0  0  0  0  0  0  0  0  0  0  0  0
   47.2088   33.7034   46.6408 H   0  0  0  0  0  0  0  0  0  0  0  0
   45.6770   31.6518   47.4477 H   0  0  0  0  0  0  0  0  0  0  0  0
   44.9367   32.7578   46.3103 H   0  0  0  0  0  0  0  0  0  0  0  0
   45.8166   29.9746   45.9080 H   0  0  0  0  0  0  0  0  0  0  0  0
   44.8465   30.9436   44.8134 H   0  0  0  0  0  0  0  0  0  0  0  0
   46.9464   31.0426   43.5097 H   0  0  0  0  0  0  0  0  0  0  0  0
   46.1396   36.0348   41.7743 H   0  0  0  0  0  0  0  0  0  0  0  0
   50.0323   34.3568   41.8047 H   0  0  0  0  0  0  0  0  0  0  0  0
   49.2982   30.8542   43.2726 H   0  0  0  0  0  0  0  0  0  0  0  0
   48.5160   29.2782   43.0669 H   0  0  0  0  0  0  0  0  0  0  0  0
   50.6967   28.6282   43.8185 H   0  0  0  0  0  0  0  0  0  0  0  0
   50.8646   30.0519   44.8852 H   0  0  0  0  0  0  0  0  0  0  0  0
   48.1870   27.1283   45.8058 H   0  0  0  0  0  0  0  0  0  0  0  0
   48.5980   27.5734   44.1178 H   0  0  0  0  0  0  0  0  0  0  0  0
   46.9151   29.0516   46.1479 H   0  0  0  0  0  0  0  0  0  0  0  0
   46.5933   28.7675   44.4265 H   0  0  0  0  0  0  0  0  0  0  0  0
  1  2  1  0
  2  3  1  0
  4  3  1  0
  5  1  1  0
  5 16  1  0
  5  4  1  0
  6  1  1  0
  7  6  2  0
  7 12  1  0
  8  7  1  0
  9  8  2  0
  9 10  1  0
 10 11  2  0
 11  6  1  0
 12 14  1  0
 13 12  1  0
 15 12  1  0
 16 21  1  0
 17 18  1  0
 17 16  1  0
 18 19  1  0
 20 21  1  0
 20 19  1  0
  2 22  1  0
  2 23  1  0
  3 24  1  0
  3 25  1  0
  4 26  1  0
  4 27  1  0
  5 28  1  6
  8 29  1  0
 10 30  1  0
 17 31  1  0
 17 32  1  0
 18 33  1  0
 18 34  1  0
 20 35  1  0
 20 36  1  0
 21 37  1  0
 21 38  1  0
M  ISO  8  22  13  23  13  24  13  25  13  26  13  27  13  28  13  29  14
M  ISO  8  30  14  31  13  32  13  33  13  34  13  35  13  36  13  37  13
M  ISO  1  38  13
M  END
>  <minimizedAffinity>  (1) 
-3.86886311

>  <minimizedRMSD>  (1) 
0.948623478

$$$$
