
     RDKit          3D

 39 41  0  0  1  0  0  0  0  0999 V2000
   47.2510   32.7430   44.7860 N   0  0  0  0  0  0  0  0  0  0  0  0
   46.9090   32.8150   46.2080 C   0  0  0  0  0  0  0  0  0  0  0  0
   45.7560   31.8830   46.2480 C   0  0  0  0  0  0  0  0  0  0  0  0
   46.1290   30.8040   45.3130 C   0  0  0  0  0  0  0  0  0  0  0  0
   47.4090   31.2840   44.6320 C   0  0  1  0  0  0  0  0  0  0  0  0
   47.4070   33.6850   43.7440 C   0  0  0  0  0  0  0  0  0  0  0  0
   46.3810   34.4350   43.1640 C   0  0  0  0  0  0  0  0  0  0  0  0
   46.6860   35.3120   42.1290 C   0  0  0  0  0  0  0  0  0  0  0  0
   47.9760   35.3900   41.7370 N   0  0  0  0  0  0  0  0  0  0  0  0
   48.9510   34.6660   42.3010 C   0  0  0  0  0  0  0  0  0  0  0  0
   48.6590   33.8190   43.3010 N   0  0  0  0  0  0  0  0  0  0  0  0
   45.0200   34.2310   43.7290 C   0  0  0  0  0  0  0  0  0  0  0  0
   44.0920   34.9970   43.0040 F   0  0  0  0  0  0  0  0  0  0  0  0
   44.8990   34.6530   45.0190 F   0  0  0  0  0  0  0  0  0  0  0  0
   44.5630   32.9680   43.5970 F   0  0  0  0  0  0  0  0  0  0  0  0
   47.6210   30.8030   43.3580 N   0  0  0  0  0  0  0  0  0  0  0  0
   46.5500   31.0410   42.4470 C   0  0  0  0  0  0  0  0  0  0  0  0
   46.6280   30.0290   41.3000 C   0  0  0  0  0  0  0  0  0  0  0  0
   47.7780   30.4530   40.5220 N   0  0  0  0  0  0  0  0  0  0  0  0
   48.9260   30.3060   41.3460 C   0  0  0  0  0  0  0  0  0  0  0  0
   48.8620   30.9580   42.7050 C   0  0  0  0  0  0  0  0  0  0  0  0
   47.7363   32.4672   46.8441 H   0  0  0  0  0  0  0  0  0  0  0  0
   46.6968   33.8279   46.5809 H   0  0  0  0  0  0  0  0  0  0  0  0
   45.6105   31.4860   47.2635 H   0  0  0  0  0  0  0  0  0  0  0  0
   44.8100   32.3715   45.9713 H   0  0  0  0  0  0  0  0  0  0  0  0
   46.3116   29.8669   45.8594 H   0  0  0  0  0  0  0  0  0  0  0  0
   45.3302   30.5982   44.5853 H   0  0  0  0  0  0  0  0  0  0  0  0
   48.3411   30.9006   45.0727 H   0  0  0  0  0  0  0  0  0  0  0  0
   45.9057   35.9196   41.6475 H   0  0  0  0  0  0  0  0  0  0  0  0
   49.9875   34.7648   41.9463 H   0  0  0  0  0  0  0  0  0  0  0  0
   45.5896   30.9290   42.9714 H   0  0  0  0  0  0  0  0  0  0  0  0
   46.6282   32.0617   42.0443 H   0  0  0  0  0  0  0  0  0  0  0  0
   46.7751   29.0106   41.6888 H   0  0  0  0  0  0  0  0  0  0  0  0
   45.7049   30.0006   40.7024 H   0  0  0  0  0  0  0  0  0  0  0  0
   47.8704   29.8651   39.6813 H   0  0  0  0  0  0  0  0  0  0  0  0
   49.0934   29.2295   41.4984 H   0  0  0  0  0  0  0  0  0  0  0  0
   49.7380   30.8211   40.8118 H   0  0  0  0  0  0  0  0  0  0  0  0
   49.6441   30.5143   43.3387 H   0  0  0  0  0  0  0  0  0  0  0  0
   49.0061   32.0371   42.5474 H   0  0  0  0  0  0  0  0  0  0  0  0
  1  2  1  0
  2  3  1  0
  4  3  1  0
  5  1  1  0
  5  4  1  0
  6  1  1  0
  7 12  1  0
  7  6  2  0
  8  7  1  0
  9  8  2  0
  9 10  1  0
 10 11  2  0
 11  6  1  0
 12 14  1  0
 13 12  1  0
 15 12  1  0
 16  5  1  0
 17 16  1  0
 18 17  1  0
 19 18  1  0
 19 20  1  0
 20 21  1  0
 21 16  1  0
  2 22  1  0
  2 23  1  0
  3 24  1  0
  3 25  1  0
  4 26  1  0
  4 27  1  0
  5 28  1  1
  8 29  1  0
 10 30  1  0
 17 31  1  0
 17 32  1  0
 18 33  1  0
 18 34  1  0
 19 35  1  0
 20 36  1  0
 20 37  1  0
 21 38  1  0
 21 39  1  0
M  ISO  8  22  13  23  13  24  13  25  13  26  13  27  13  28  13  29  14
M  ISO  8  30  14  31  13  32  13  33  13  34  13  35   5  36  13  37  13
M  ISO  2  38  13  39  13
M  END
>  <minimizedAffinity>  (1) 
-3.89103723

>  <minimizedRMSD>  (1) 
0.938619494

$$$$
