
     RDKit          3D

 33 35  0  0  1  0  0  0  0  0999 V2000
   47.2140   32.7480   44.8210 N   0  0  0  0  0  0  0  0  0  0  0  0
   46.9860   32.8720   46.2700 C   0  0  0  0  0  0  0  0  0  0  0  0
   45.7510   32.0370   46.4160 C   0  0  0  0  0  0  0  0  0  0  0  0
   45.9800   30.9160   45.4830 C   0  0  0  0  0  0  0  0  0  0  0  0
   47.2280   31.3160   44.7350 C   0  0  1  0  0  0  0  0  0  0  0  0
   47.3680   33.6610   43.7530 C   0  0  0  0  0  0  0  0  0  0  0  0
   46.3230   34.3440   43.1160 C   0  0  0  0  0  0  0  0  0  0  0  0
   46.6240   35.1990   42.0600 C   0  0  0  0  0  0  0  0  0  0  0  0
   47.9260   35.3200   41.7080 N   0  0  0  0  0  0  0  0  0  0  0  0
   48.9090   34.6630   42.3250 C   0  0  0  0  0  0  0  0  0  0  0  0
   48.6270   33.8330   43.3480 N   0  0  0  0  0  0  0  0  0  0  0  0
   44.9560   34.0950   43.6460 C   0  0  0  0  0  0  0  0  0  0  0  0
   44.0260   34.8140   42.8780 F   0  0  0  0  0  0  0  0  0  0  0  0
   44.7710   34.5340   44.9260 F   0  0  0  0  0  0  0  0  0  0  0  0
   44.5610   32.8110   43.5020 F   0  0  0  0  0  0  0  0  0  0  0  0
   47.4050   30.6640   43.4660 C   0  0  0  0  0  0  0  0  0  0  0  0
   46.5580   30.2980   42.4530 C   0  0  0  0  0  0  0  0  0  0  0  0
   46.9340   29.6510   41.2980 C   0  0  0  0  0  0  0  0  0  0  0  0
   48.2350   29.3250   41.0910 N   0  0  0  0  0  0  0  0  0  0  0  0
   49.0840   29.6790   42.0830 C   0  0  0  0  0  0  0  0  0  0  0  0
   48.7000   30.3020   43.1850 N   0  0  0  0  0  0  0  0  0  0  0  0
   47.8256   32.4628   46.8511 H   0  0  0  0  0  0  0  0  0  0  0  0
   46.8905   33.9051   46.6355 H   0  0  0  0  0  0  0  0  0  0  0  0
   45.6422   31.6732   47.4484 H   0  0  0  0  0  0  0  0  0  0  0  0
   44.8286   32.5948   46.1970 H   0  0  0  0  0  0  0  0  0  0  0  0
   46.1371   29.9758   46.0319 H   0  0  0  0  0  0  0  0  0  0  0  0
   45.1240   30.7378   44.8156 H   0  0  0  0  0  0  0  0  0  0  0  0
   48.1701   30.9470   45.1667 H   0  0  0  0  0  0  0  0  0  0  0  0
   45.8352   35.7548   41.5319 H   0  0  0  0  0  0  0  0  0  0  0  0
   49.9506   34.7989   41.9984 H   0  0  0  0  0  0  0  0  0  0  0  0
   45.4918   30.5408   42.5726 H   0  0  0  0  0  0  0  0  0  0  0  0
   46.1778   29.3974   40.5404 H   0  0  0  0  0  0  0  0  0  0  0  0
   50.1505   29.4358   41.9671 H   0  0  0  0  0  0  0  0  0  0  0  0
  1  2  1  0
  2  3  1  0
  4  3  1  0
  5  1  1  0
  5  4  1  0
  6  1  1  0
  7 12  1  0
  7  6  2  0
  8  7  1  0
  9  8  2  0
  9 10  1  0
 10 11  2  0
 11  6  1  0
 12 14  1  0
 13 12  1  0
 15 12  1  0
 16  5  1  0
 17 16  2  0
 18 17  1  0
 19 18  2  0
 19 20  1  0
 20 21  2  0
 21 16  1  0
  2 22  1  0
  2 23  1  0
  3 24  1  0
  3 25  1  0
  4 26  1  0
  4 27  1  0
  5 28  1  1
  8 29  1  0
 10 30  1  0
 17 31  1  0
 18 32  1  0
 20 33  1  0
M  ISO  8  22  13  23  13  24  13  25  13  26  13  27  13  28  13  29  14
M  ISO  4  30  14  31  14  32  14  33  14
M  END
>  <minimizedAffinity>  (1) 
-3.72147989

>  <minimizedRMSD>  (1) 
1.10721123

$$$$
