
     RDKit          3D

 39 41  0  0  1  0  0  0  0  0999 V2000
   48.0590   34.7920   41.3400 N   0  0  0  0  0  0  0  0  0  0  0  0
   49.3040   35.1010   41.9760 C   0  0  0  0  0  0  0  0  0  0  0  0
   50.1760   33.9460   42.3000 C   0  0  0  0  0  0  0  0  0  0  0  0
   49.3280   32.9370   42.7760 O   0  0  0  0  0  0  0  0  0  0  0  0
   48.7400   32.4410   41.6050 C   0  0  0  0  0  0  0  0  0  0  0  0
   47.9310   33.4710   40.8660 C   0  0  2  0  0  0  0  0  0  0  0  0
   48.3490   33.4430   39.4730 N   0  0  0  0  0  0  0  0  0  0  0  0
   48.1590   34.4200   38.5890 N   0  0  0  0  0  0  0  0  0  0  0  0
   48.6670   34.0760   37.3810 C   0  0  0  0  0  0  0  0  0  0  0  0
   49.1910   32.8260   37.5520 C   0  0  0  0  0  0  0  0  0  0  0  0
   48.9900   32.4350   38.8600 C   0  0  0  0  0  0  0  0  0  0  0  0
   46.9880   35.3820   42.0610 C   0  0  0  0  0  0  0  0  0  0  0  0
   45.7610   34.5300   42.2650 C   0  0  1  0  0  0  0  0  0  0  0  0
   44.7990   35.2840   44.4920 C   0  0  0  0  0  0  0  0  0  0  0  0
   45.5580   34.3540   43.7130 C   0  0  0  0  0  0  0  0  0  0  0  0
   46.0970   33.2800   44.3960 C   0  0  0  0  0  0  0  0  0  0  0  0
   45.8780   33.1770   45.7300 N   0  0  0  0  0  0  0  0  0  0  0  0
   45.1670   34.0550   46.4350 C   0  0  0  0  0  0  0  0  0  0  0  0
   44.6160   35.1330   45.8020 N   0  0  0  0  0  0  0  0  0  0  0  0
   44.5500   35.0660   41.6000 C   0  0  0  0  0  0  0  0  0  0  0  0
   49.8662   35.7692   41.3071 H   0  0  0  0  0  0  0  0  0  0  0  0
   49.0375   35.5504   42.9440 H   0  0  0  0  0  0  0  0  0  0  0  0
   50.7068   33.6044   41.3991 H   0  0  0  0  0  0  0  0  0  0  0  0
   50.9369   34.2155   43.0472 H   0  0  0  0  0  0  0  0  0  0  0  0
   49.5376   32.0795   40.9393 H   0  0  0  0  0  0  0  0  0  0  0  0
   48.0518   31.6355   41.9007 H   0  0  0  0  0  0  0  0  0  0  0  0
   46.8749   33.2022   41.0157 H   0  0  0  0  0  0  0  0  0  0  0  0
   48.6592   34.6756   36.4588 H   0  0  0  0  0  0  0  0  0  0  0  0
   49.6909   32.2293   36.7748 H   0  0  0  0  0  0  0  0  0  0  0  0
   49.2961   31.4807   39.3134 H   0  0  0  0  0  0  0  0  0  0  0  0
   47.3687   35.6620   43.0543 H   0  0  0  0  0  0  0  0  0  0  0  0
   46.6538   36.2283   41.4429 H   0  0  0  0  0  0  0  0  0  0  0  0
   45.9314   33.5558   41.7833 H   0  0  0  0  0  0  0  0  0  0  0  0
   44.3509   36.1545   43.9906 H   0  0  0  0  0  0  0  0  0  0  0  0
   46.6931   32.5222   43.8665 H   0  0  0  0  0  0  0  0  0  0  0  0
   45.0247   33.9136   47.5166 H   0  0  0  0  0  0  0  0  0  0  0  0
   43.8248   35.3870   42.3623 H   0  0  0  0  0  0  0  0  0  0  0  0
   44.8267   35.9257   40.9721 H   0  0  0  0  0  0  0  0  0  0  0  0
   44.0996   34.2831   40.9721 H   0  0  0  0  0  0  0  0  0  0  0  0
  1  2  1  0
  1 12  1  0
  2  3  1  0
  3  4  1  0
  5  4  1  0
  6  1  1  0
  6  5  1  0
  7  6  1  0
  8  7  1  0
  9 10  1  0
  9  8  2  0
 10 11  2  0
 11  7  1  0
 12 13  1  0
 13 15  1  0
 14 19  2  0
 15 16  2  0
 15 14  1  0
 16 17  1  0
 17 18  2  0
 19 18  1  0
 20 13  1  0
  2 21  1  0
  2 22  1  0
  3 23  1  0
  3 24  1  0
  5 25  1  0
  5 26  1  0
  6 27  1  6
  9 28  1  0
 10 29  1  0
 11 30  1  0
 12 31  1  0
 12 32  1  0
 13 33  1  6
 14 34  1  0
 16 35  1  0
 18 36  1  0
 20 37  1  0
 20 38  1  0
 20 39  1  0
M  ISO  8  21  13  22  13  23  13  24  13  25  13  26  13  27  13  28  14
M  ISO  8  29  14  30  14  31   8  32   8  33   8  34  14  35  14  36  14
M  ISO  3  37   8  38   8  39   8
M  END
>  <minimizedAffinity>  (1) 
-4.84423876

>  <minimizedRMSD>  (1) 
1.04254222

$$$$
