
     RDKit          3D

 38 40  0  0  1  0  0  0  0  0999 V2000
   47.2370   32.5540   44.6820 N   0  0  0  0  0  0  0  0  0  0  0  0
   47.1350   32.4920   46.1420 C   0  0  0  0  0  0  0  0  0  0  0  0
   45.8370   31.7730   46.2980 C   0  0  0  0  0  0  0  0  0  0  0  0
   45.8710   30.7520   45.1780 C   0  0  0  0  0  0  0  0  0  0  0  0
   47.0800   31.1350   44.4170 C   0  0  1  0  0  0  0  0  0  0  0  0
   47.4070   33.5610   43.7120 C   0  0  0  0  0  0  0  0  0  0  0  0
   46.3810   34.3570   43.1820 C   0  0  0  0  0  0  0  0  0  0  0  0
   46.7040   35.2990   42.2140 C   0  0  0  0  0  0  0  0  0  0  0  0
   47.9950   35.3960   41.8360 N   0  0  0  0  0  0  0  0  0  0  0  0
   48.9560   34.6310   42.3520 C   0  0  0  0  0  0  0  0  0  0  0  0
   48.6620   33.7160   43.2890 N   0  0  0  0  0  0  0  0  0  0  0  0
   45.0190   34.1160   43.7280 C   0  0  0  0  0  0  0  0  0  0  0  0
   44.1070   34.9690   43.0820 F   0  0  0  0  0  0  0  0  0  0  0  0
   44.8960   34.4000   45.0530 F   0  0  0  0  0  0  0  0  0  0  0  0
   44.5420   32.8840   43.4530 F   0  0  0  0  0  0  0  0  0  0  0  0
   47.3260   30.6890   43.0550 C   0  0  0  0  0  0  0  0  0  0  0  0
   46.1200   30.7730   42.1570 C   0  0  0  0  0  0  0  0  0  0  0  0
   46.4560   31.6870   40.9930 C   0  0  0  0  0  0  0  0  0  0  0  0
   47.9450   31.4620   40.8500 C   0  0  0  0  0  0  0  0  0  0  0  0
   48.4250   31.2360   42.2730 C   0  0  0  0  0  0  0  0  0  0  0  0
   47.9681   31.9249   46.5828 H   0  0  0  0  0  0  0  0  0  0  0  0
   47.1790   33.4694   46.6448 H   0  0  0  0  0  0  0  0  0  0  0  0
   45.7743   31.2802   47.2794 H   0  0  0  0  0  0  0  0  0  0  0  0
   44.9645   32.4410   46.2470 H   0  0  0  0  0  0  0  0  0  0  0  0
   45.9614   29.7307   45.5764 H   0  0  0  0  0  0  0  0  0  0  0  0
   44.9566   30.7478   44.5666 H   0  0  0  0  0  0  0  0  0  0  0  0
   47.9051   30.5063   44.7830 H   0  0  0  0  0  0  0  0  0  0  0  0
   45.9321   35.9449   41.7701 H   0  0  0  0  0  0  0  0  0  0  0  0
   49.9943   34.7497   42.0088 H   0  0  0  0  0  0  0  0  0  0  0  0
   47.6239   29.6659   43.3279 H   0  0  0  0  0  0  0  0  0  0  0  0
   45.8651   29.7709   41.7816 H   0  0  0  0  0  0  0  0  0  0  0  0
   45.2589   31.1700   42.7146 H   0  0  0  0  0  0  0  0  0  0  0  0
   45.9159   31.3913   40.0815 H   0  0  0  0  0  0  0  0  0  0  0  0
   46.1756   32.7384   41.1540 H   0  0  0  0  0  0  0  0  0  0  0  0
   48.1482   30.5800   40.2249 H   0  0  0  0  0  0  0  0  0  0  0  0
   48.4542   32.3063   40.3623 H   0  0  0  0  0  0  0  0  0  0  0  0
   49.2667   30.5278   42.2716 H   0  0  0  0  0  0  0  0  0  0  0  0
   48.7594   32.1879   42.7113 H   0  0  0  0  0  0  0  0  0  0  0  0
  1  2  1  0
  2  3  1  0
  4  3  1  0
  5  1  1  0
  5  4  1  0
  6  1  1  0
  7  6  2  0
  7 12  1  0
  8  7  1  0
  9  8  2  0
  9 10  1  0
 10 11  2  0
 11  6  1  0
 12 14  1  0
 13 12  1  0
 15 12  1  0
 16  5  1  0
 17 16  1  0
 18 17  1  0
 19 18  1  0
 19 20  1  0
 20 16  1  0
  2 21  1  0
  2 22  1  0
  3 23  1  0
  3 24  1  0
  4 25  1  0
  4 26  1  0
  5 27  1  1
  8 28  1  0
 10 29  1  0
 16 30  1  0
 17 31  1  0
 17 32  1  0
 18 33  1  0
 18 34  1  0
 19 35  1  0
 19 36  1  0
 20 37  1  0
 20 38  1  0
M  ISO  8  21  13  22  13  23  13  24  13  25  13  26  13  27  13  28  14
M  ISO  8  29  14  30  13  31  13  32  13  33  13  34  13  35  13  36  13
M  ISO  2  37  13  38  13
M  END
>  <minimizedAffinity>  (1) 
-3.84187722

>  <minimizedRMSD>  (1) 
0.382325262

$$$$
