
     RDKit          3D

 30 32  0  0  1  0  0  0  0  0999 V2000
   47.2240   32.4120   44.6470 N   0  0  0  0  0  0  0  0  0  0  0  0
   47.1770   32.3190   46.0930 C   0  0  0  0  0  0  0  0  0  0  0  0
   45.8480   31.6530   46.2700 C   0  0  0  0  0  0  0  0  0  0  0  0
   45.8040   30.6710   45.1660 C   0  0  0  0  0  0  0  0  0  0  0  0
   46.9810   31.0080   44.2680 C   0  0  2  0  0  0  0  0  0  0  0  0
   47.4170   33.4420   43.6770 C   0  0  0  0  0  0  0  0  0  0  0  0
   46.4100   34.3090   43.2280 C   0  0  0  0  0  0  0  0  0  0  0  0
   46.7400   35.2680   42.2720 C   0  0  0  0  0  0  0  0  0  0  0  0
   48.0130   35.3040   41.8340 N   0  0  0  0  0  0  0  0  0  0  0  0
   48.9580   34.4640   42.2780 C   0  0  0  0  0  0  0  0  0  0  0  0
   48.6650   33.5210   43.2100 N   0  0  0  0  0  0  0  0  0  0  0  0
   45.0610   34.1270   43.8230 C   0  0  0  0  0  0  0  0  0  0  0  0
   44.1730   35.0490   43.2450 F   0  0  0  0  0  0  0  0  0  0  0  0
   45.0170   34.3850   45.1600 F   0  0  0  0  0  0  0  0  0  0  0  0
   44.5070   32.9280   43.5390 F   0  0  0  0  0  0  0  0  0  0  0  0
   48.1750   30.1990   44.5020 C   0  0  0  0  0  0  0  0  0  0  0  0
   48.4010   29.3020   45.4620 N   0  0  0  0  0  0  0  0  0  0  0  0
   49.6020   28.7970   45.3160 O   0  0  0  0  0  0  0  0  0  0  0  0
   50.1810   29.3480   44.2730 C   0  0  0  0  0  0  0  0  0  0  0  0
   49.2810   30.2340   43.7550 N   0  0  0  0  0  0  0  0  0  0  0  0
   47.9978   31.7030   46.4889 H   0  0  0  0  0  0  0  0  0  0  0  0
   47.2881   33.2771   46.6218 H   0  0  0  0  0  0  0  0  0  0  0  0
   45.7873   31.1499   47.2463 H   0  0  0  0  0  0  0  0  0  0  0  0
   45.0072   32.3619   46.2465 H   0  0  0  0  0  0  0  0  0  0  0  0
   45.9019   29.6481   45.5586 H   0  0  0  0  0  0  0  0  0  0  0  0
   44.8505   30.7175   44.6195 H   0  0  0  0  0  0  0  0  0  0  0  0
   46.7633   30.8220   43.2059 H   0  0  0  0  0  0  0  0  0  0  0  0
   45.9864   35.9715   41.8883 H   0  0  0  0  0  0  0  0  0  0  0  0
   49.9820   34.5392   41.8832 H   0  0  0  0  0  0  0  0  0  0  0  0
   51.1913   29.1370   43.8925 H   0  0  0  0  0  0  0  0  0  0  0  0
  1  2  1  0
  2  3  1  0
  4  3  1  0
  5 16  1  0
  5  1  1  0
  5  4  1  0
  6  1  1  0
  7  6  2  0
  7 12  1  0
  8  7  1  0
  9  8  2  0
  9 10  1  0
 10 11  2  0
 11  6  1  0
 12 14  1  0
 13 12  1  0
 15 12  1  0
 16 17  2  0
 18 17  1  0
 19 18  1  0
 20 19  2  0
 20 16  1  0
  2 21  1  0
  2 22  1  0
  3 23  1  0
  3 24  1  0
  4 25  1  0
  4 26  1  0
  5 27  1  6
  8 28  1  0
 10 29  1  0
 19 30  1  0
M  ISO  8  21  13  22  13  23  13  24  13  25  13  26  13  27  13  28  14
M  ISO  2  29  14  30  14
M  END
>  <minimizedAffinity>  (1) 
-3.84558511

>  <minimizedRMSD>  (1) 
0.36633423

$$$$
