
     RDKit          3D

 28 29  0  0  1  0  0  0  0  0999 V2000
   47.2420   32.4180   44.6500 N   0  0  0  0  0  0  0  0  0  0  0  0
   47.1470   32.3260   46.0880 C   0  0  0  0  0  0  0  0  0  0  0  0
   45.8220   31.6270   46.2290 C   0  0  0  0  0  0  0  0  0  0  0  0
   45.8580   30.6360   45.1280 C   0  0  0  0  0  0  0  0  0  0  0  0
   47.0610   31.0100   44.2800 C   0  0  2  0  0  0  0  0  0  0  0  0
   47.4290   33.4470   43.6800 C   0  0  0  0  0  0  0  0  0  0  0  0
   46.4240   34.3120   43.2300 C   0  0  0  0  0  0  0  0  0  0  0  0
   46.7500   35.2650   42.2650 C   0  0  0  0  0  0  0  0  0  0  0  0
   48.0190   35.2990   41.8210 N   0  0  0  0  0  0  0  0  0  0  0  0
   48.9630   34.4650   42.2650 C   0  0  0  0  0  0  0  0  0  0  0  0
   48.6750   33.5240   43.2060 N   0  0  0  0  0  0  0  0  0  0  0  0
   45.0770   34.1510   43.8370 C   0  0  0  0  0  0  0  0  0  0  0  0
   44.1830   35.0600   43.2540 F   0  0  0  0  0  0  0  0  0  0  0  0
   45.0530   34.4310   45.1750 F   0  0  0  0  0  0  0  0  0  0  0  0
   44.5200   32.9490   43.5760 F   0  0  0  0  0  0  0  0  0  0  0  0
   48.2420   30.2010   44.4760 C   0  0  0  0  0  0  0  0  0  0  0  0
   48.4710   29.2930   45.2930 O   0  0  0  0  0  0  0  0  0  0  0  0
   49.3040   30.4670   43.6210 O   0  0  0  0  0  0  0  0  0  0  0  0
   47.9683   31.7297   46.5123 H   0  0  0  0  0  0  0  0  0  0  0  0
   47.2166   33.2888   46.6153 H   0  0  0  0  0  0  0  0  0  0  0  0
   45.7375   31.1306   47.2070 H   0  0  0  0  0  0  0  0  0  0  0  0
   44.9606   32.3090   46.1746 H   0  0  0  0  0  0  0  0  0  0  0  0
   45.9735   29.6189   45.5307 H   0  0  0  0  0  0  0  0  0  0  0  0
   44.9277   30.6462   44.5411 H   0  0  0  0  0  0  0  0  0  0  0  0
   46.8925   30.8358   43.2070 H   0  0  0  0  0  0  0  0  0  0  0  0
   45.9943   35.9654   41.8800 H   0  0  0  0  0  0  0  0  0  0  0  0
   49.9853   34.5392   41.8657 H   0  0  0  0  0  0  0  0  0  0  0  0
   50.1444   29.9498   43.6998 H   0  0  0  0  0  0  0  0  0  0  0  0
  1  2  1  0
  2  3  1  0
  4  3  1  0
  5 16  1  0
  5  1  1  0
  5  4  1  0
  6  1  1  0
  7  6  2  0
  7 12  1  0
  8  7  1  0
  9 10  1  0
  9  8  2  0
 10 11  2  0
 11  6  1  0
 12 14  1  0
 13 12  1  0
 15 12  1  0
 16 17  2  0
 18 16  1  0
  2 19  1  0
  2 20  1  0
  3 21  1  0
  3 22  1  0
  4 23  1  0
  4 24  1  0
  5 25  1  6
  8 26  1  0
 10 27  1  0
 18 28  1  0
M  ISO  8  19  13  20  13  21  13  22  13  23  13  24  13  25  13  26  14
M  ISO  2  27  14  28   3
M  END
>  <minimizedAffinity>  (1) 
-3.70697999

>  <minimizedRMSD>  (1) 
0.526102304

$$$$
