
     RDKit          3D

 38 40  0  0  1  0  0  0  0  0999 V2000
   46.9800   35.3950   42.0440 C   0  0  0  0  0  0  0  0  0  0  0  0
   48.0510   34.8150   41.3160 N   0  0  0  0  0  0  0  0  0  0  0  0
   49.2960   35.1070   41.9790 C   0  0  0  0  0  0  0  0  0  0  0  0
   50.1680   33.9540   42.2790 C   0  0  0  0  0  0  0  0  0  0  0  0
   49.3050   32.9290   42.7350 O   0  0  0  0  0  0  0  0  0  0  0  0
   48.7240   32.4560   41.5510 C   0  0  0  0  0  0  0  0  0  0  0  0
   47.9290   33.5030   40.8240 C   0  0  2  0  0  0  0  0  0  0  0  0
   48.3530   33.4840   39.4280 N   0  0  0  0  0  0  0  0  0  0  0  0
   49.0020   32.4890   38.8230 C   0  0  0  0  0  0  0  0  0  0  0  0
   49.2320   32.8160   37.5260 N   0  0  0  0  0  0  0  0  0  0  0  0
   48.7080   34.0400   37.3470 C   0  0  0  0  0  0  0  0  0  0  0  0
   48.1770   34.4290   38.5190 N   0  0  0  0  0  0  0  0  0  0  0  0
   45.7570   34.5370   42.2460 C   0  0  1  0  0  0  0  0  0  0  0  0
   44.7760   35.3610   44.4410 C   0  0  0  0  0  0  0  0  0  0  0  0
   45.5270   34.3970   43.6950 C   0  0  0  0  0  0  0  0  0  0  0  0
   46.0320   33.3260   44.4100 C   0  0  0  0  0  0  0  0  0  0  0  0
   45.7940   33.2520   45.7400 N   0  0  0  0  0  0  0  0  0  0  0  0
   45.0850   34.1700   46.4170 C   0  0  0  0  0  0  0  0  0  0  0  0
   44.5700   35.2400   45.7520 N   0  0  0  0  0  0  0  0  0  0  0  0
   44.5560   35.0550   41.5510 C   0  0  0  0  0  0  0  0  0  0  0  0
   46.6657   36.3029   41.5083 H   0  0  0  0  0  0  0  0  0  0  0  0
   47.3789   35.5728   43.0536 H   0  0  0  0  0  0  0  0  0  0  0  0
   49.8631   35.7969   41.3367 H   0  0  0  0  0  0  0  0  0  0  0  0
   49.0145   35.5220   42.9580 H   0  0  0  0  0  0  0  0  0  0  0  0
   50.7018   33.6310   41.3731 H   0  0  0  0  0  0  0  0  0  0  0  0
   50.9306   34.2066   43.0304 H   0  0  0  0  0  0  0  0  0  0  0  0
   49.5249   32.1004   40.8860 H   0  0  0  0  0  0  0  0  0  0  0  0
   48.0285   31.6497   41.8269 H   0  0  0  0  0  0  0  0  0  0  0  0
   46.8700   33.2427   40.9677 H   0  0  0  0  0  0  0  0  0  0  0  0
   49.3050   31.5463   39.3021 H   0  0  0  0  0  0  0  0  0  0  0  0
   48.7126   34.6186   36.4115 H   0  0  0  0  0  0  0  0  0  0  0  0
   45.9430   33.5525   41.7920 H   0  0  0  0  0  0  0  0  0  0  0  0
   44.3551   36.2303   43.9146 H   0  0  0  0  0  0  0  0  0  0  0  0
   46.6190   32.5452   43.9044 H   0  0  0  0  0  0  0  0  0  0  0  0
   44.9220   34.0581   47.4991 H   0  0  0  0  0  0  0  0  0  0  0  0
   43.8118   35.3760   42.2948 H   0  0  0  0  0  0  0  0  0  0  0  0
   44.8378   35.9116   40.9210 H   0  0  0  0  0  0  0  0  0  0  0  0
   44.1264   34.2622   40.9210 H   0  0  0  0  0  0  0  0  0  0  0  0
  1 13  1  0
  2  3  1  0
  2  1  1  0
  3  4  1  0
  4  5  1  0
  6  5  1  0
  7  2  1  0
  7  6  1  0
  8  7  1  0
  9  8  1  0
 10  9  2  0
 11 10  1  0
 11 12  2  0
 12  8  1  0
 13 15  1  0
 14 19  2  0
 15 16  2  0
 15 14  1  0
 16 17  1  0
 17 18  2  0
 19 18  1  0
 20 13  1  0
  1 21  1  0
  1 22  1  0
  3 23  1  0
  3 24  1  0
  4 25  1  0
  4 26  1  0
  6 27  1  0
  6 28  1  0
  7 29  1  6
  9 30  1  0
 11 31  1  0
 13 32  1  6
 14 33  1  0
 16 34  1  0
 18 35  1  0
 20 36  1  0
 20 37  1  0
 20 38  1  0
M  ISO  8  21   8  22   8  23  13  24  13  25  13  26  13  27  13  28  13
M  ISO  8  29  13  30  14  31  14  32   8  33  14  34  14  35  14  36   8
M  ISO  2  37   8  38   8
M  END
>  <minimizedAffinity>  (1) 
-4.84145069

>  <minimizedRMSD>  (1) 
1.03133237

$$$$
