
     RDKit          3D

 46 50  0  0  1  0  0  0  0  0999 V2000
   47.2570   32.4840   44.5340 N   0  0  0  0  0  0  0  0  0  0  0  0
   47.2150   32.3290   45.9590 C   0  0  0  0  0  0  0  0  0  0  0  0
   45.9640   31.5650   46.1380 C   0  0  0  0  0  0  0  0  0  0  0  0
   45.9260   30.6490   44.9650 C   0  0  0  0  0  0  0  0  0  0  0  0
   47.0850   31.0820   44.1010 C   0  0  2  0  0  0  0  0  0  0  0  0
   47.4020   33.5700   43.6010 C   0  0  0  0  0  0  0  0  0  0  0  0
   46.3370   34.4040   43.2190 C   0  0  0  0  0  0  0  0  0  0  0  0
   46.6120   35.4190   42.2990 C   0  0  0  0  0  0  0  0  0  0  0  0
   47.8590   35.5320   41.8440 N   0  0  0  0  0  0  0  0  0  0  0  0
   48.8500   34.7240   42.2260 C   0  0  0  0  0  0  0  0  0  0  0  0
   48.6170   33.7390   43.1090 N   0  0  0  0  0  0  0  0  0  0  0  0
   45.0010   34.1230   43.8370 C   0  0  0  0  0  0  0  0  0  0  0  0
   44.0700   35.0150   43.2850 F   0  0  0  0  0  0  0  0  0  0  0  0
   45.0020   34.3600   45.1620 F   0  0  0  0  0  0  0  0  0  0  0  0
   44.5150   32.9260   43.4910 F   0  0  0  0  0  0  0  0  0  0  0  0
   48.2760   30.2660   44.2590 C   0  0  0  0  0  0  0  0  0  0  0  0
   48.6800   29.3510   45.1630 C   0  0  0  0  0  0  0  0  0  0  0  0
   49.8690   28.7440   45.0520 C   0  0  0  0  0  0  0  0  0  0  0  0
   50.6630   29.1150   43.9470 C   0  0  0  0  0  0  0  0  0  0  0  0
   49.5930   30.3850   43.0870 S   0  0  0  0  0  0  0  0  0  0  0  0
   51.9310   28.6680   43.5630 N   0  0  0  0  0  0  0  0  0  0  0  0
   52.5410   27.6740   44.1850 C   0  0  0  0  0  0  0  0  0  0  0  0
   53.7420   27.5030   43.5590 N   0  0  0  0  0  0  0  0  0  0  0  0
   53.8350   28.4040   42.5590 C   0  0  0  0  0  0  0  0  0  0  0  0
   54.7980   28.6880   41.6180 C   0  0  0  0  0  0  0  0  0  0  0  0
   55.8390   28.0160   41.6190 O   0  0  0  0  0  0  0  0  0  0  0  0
   54.5970   29.6700   40.7320 N   0  0  0  0  0  0  0  0  0  0  0  0
   53.4490   30.4080   40.7350 C   0  0  0  0  0  0  0  0  0  0  0  0
   53.2250   31.4570   39.7960 N   0  0  0  0  0  0  0  0  0  0  0  0
   52.5000   30.1390   41.6510 N   0  0  0  0  0  0  0  0  0  0  0  0
   52.6700   29.1570   42.5570 C   0  0  0  0  0  0  0  0  0  0  0  0
   48.0853   31.7660   46.3273 H   0  0  0  0  0  0  0  0  0  0  0  0
   47.2425   33.2787   46.5134 H   0  0  0  0  0  0  0  0  0  0  0  0
   45.9862   30.9945   47.0782 H   0  0  0  0  0  0  0  0  0  0  0  0
   45.0778   32.2141   46.1952 H   0  0  0  0  0  0  0  0  0  0  0  0
   46.0503   29.6040   45.2851 H   0  0  0  0  0  0  0  0  0  0  0  0
   44.9667   30.6996   44.4292 H   0  0  0  0  0  0  0  0  0  0  0  0
   46.8986   30.9711   43.0226 H   0  0  0  0  0  0  0  0  0  0  0  0
   45.8217   36.1050   41.9602 H   0  0  0  0  0  0  0  0  0  0  0  0
   49.8611   34.8651   41.8164 H   0  0  0  0  0  0  0  0  0  0  0  0
   48.0214   29.0983   46.0070 H   0  0  0  0  0  0  0  0  0  0  0  0
   50.2080   27.9960   45.7838 H   0  0  0  0  0  0  0  0  0  0  0  0
   52.1564   27.0977   45.0394 H   0  0  0  0  0  0  0  0  0  0  0  0
   55.3247   29.8736   40.0321 H   0  0  0  0  0  0  0  0  0  0  0  0
   52.3474   31.9954   39.8250 H   0  0  0  0  0  0  0  0  0  0  0  0
   53.9407   31.6765   39.0886 H   0  0  0  0  0  0  0  0  0  0  0  0
  1  2  1  0
  2  3  1  0
  4  3  1  0
  5 16  1  0
  5  1  1  0
  5  4  1  0
  6  1  1  0
  7  6  2  0
  7 12  1  0
  8  7  1  0
  9 10  1  0
  9  8  2  0
 10 11  2  0
 11  6  1  0
 12 14  1  0
 13 12  1  0
 15 12  1  0
 16 17  2  0
 18 17  1  0
 19 18  2  0
 20 19  1  0
 20 16  1  0
 21 19  1  0
 21 22  1  0
 23 22  2  0
 24 23  1  0
 25 26  2  0
 25 24  1  0
 27 28  1  0
 27 25  1  0
 28 30  2  0
 29 28  1  0
 30 31  1  0
 31 24  2  0
 31 21  1  0
  2 32  1  0
  2 33  1  0
  3 34  1  0
  3 35  1  0
  4 36  1  0
  4 37  1  0
  5 38  1  6
  8 39  1  0
 10 40  1  0
 17 41  1  0
 18 42  1  0
 22 43  1  0
 27 44  1  0
 29 45  1  0
 29 46  1  0
M  ISO  8  32  13  33  13  34  13  35  13  36  13  37  13  38  13  39  14
M  ISO  5  40  14  41  14  42  14  43  14  44   9
M  END
>  <minimizedAffinity>  (1) 
-4.71929884

>  <minimizedRMSD>  (1) 
0.601689935

$$$$
