
     RDKit          3D

 32 34  0  0  1  0  0  0  0  0999 V2000
   47.2300   32.4730   44.6760 N   0  0  0  0  0  0  0  0  0  0  0  0
   47.1380   32.4180   46.1190 C   0  0  0  0  0  0  0  0  0  0  0  0
   45.8290   31.7050   46.2810 C   0  0  0  0  0  0  0  0  0  0  0  0
   45.8580   30.6930   45.1960 C   0  0  0  0  0  0  0  0  0  0  0  0
   47.0620   31.0580   44.3380 C   0  0  2  0  0  0  0  0  0  0  0  0
   47.4100   33.4910   43.6920 C   0  0  0  0  0  0  0  0  0  0  0  0
   46.3900   34.3390   43.2260 C   0  0  0  0  0  0  0  0  0  0  0  0
   46.7170   35.2870   42.2560 C   0  0  0  0  0  0  0  0  0  0  0  0
   47.9840   35.3310   41.8290 N   0  0  0  0  0  0  0  0  0  0  0  0
   48.9400   34.5150   42.2850 C   0  0  0  0  0  0  0  0  0  0  0  0
   48.6540   33.5900   43.2200 N   0  0  0  0  0  0  0  0  0  0  0  0
   45.0400   34.1450   43.8220 C   0  0  0  0  0  0  0  0  0  0  0  0
   44.1400   35.0300   43.2090 F   0  0  0  0  0  0  0  0  0  0  0  0
   44.9930   34.4340   45.1470 F   0  0  0  0  0  0  0  0  0  0  0  0
   44.5120   32.9280   43.5520 F   0  0  0  0  0  0  0  0  0  0  0  0
   48.2310   30.2390   44.6210 C   0  0  0  0  0  0  0  0  0  0  0  0
   48.6350   29.4900   45.6740 C   0  0  0  0  0  0  0  0  0  0  0  0
   49.8090   28.8290   45.6280 C   0  0  0  0  0  0  0  0  0  0  0  0
   50.5850   28.9590   44.4320 C   0  0  0  0  0  0  0  0  0  0  0  0
   49.5110   30.0910   43.3970 S   0  0  0  0  0  0  0  0  0  0  0  0
   47.9691   31.8463   46.5576 H   0  0  0  0  0  0  0  0  0  0  0  0
   47.1931   33.3958   46.6199 H   0  0  0  0  0  0  0  0  0  0  0  0
   45.7614   31.2236   47.2678 H   0  0  0  0  0  0  0  0  0  0  0  0
   44.9608   32.3777   46.2205 H   0  0  0  0  0  0  0  0  0  0  0  0
   45.9753   29.6826   45.6146 H   0  0  0  0  0  0  0  0  0  0  0  0
   44.9251   30.6898   44.6132 H   0  0  0  0  0  0  0  0  0  0  0  0
   46.9232   30.8798   43.2614 H   0  0  0  0  0  0  0  0  0  0  0  0
   45.9582   35.9754   41.8556 H   0  0  0  0  0  0  0  0  0  0  0  0
   49.9648   34.6000   41.8943 H   0  0  0  0  0  0  0  0  0  0  0  0
   48.0024   29.4205   46.5712 H   0  0  0  0  0  0  0  0  0  0  0  0
   50.1558   28.2161   46.4731 H   0  0  0  0  0  0  0  0  0  0  0  0
   51.5587   28.5106   44.1853 H   0  0  0  0  0  0  0  0  0  0  0  0
  1  2  1  0
  2  3  1  0
  4  3  1  0
  5 16  1  0
  5  1  1  0
  5  4  1  0
  6  1  1  0
  7  6  2  0
  7 12  1  0
  8  7  1  0
  9  8  2  0
  9 10  1  0
 10 11  2  0
 11  6  1  0
 12 14  1  0
 13 12  1  0
 15 12  1  0
 16 17  2  0
 18 17  1  0
 19 18  2  0
 20 19  1  0
 20 16  1  0
  2 21  1  0
  2 22  1  0
  3 23  1  0
  3 24  1  0
  4 25  1  0
  4 26  1  0
  5 27  1  6
  8 28  1  0
 10 29  1  0
 17 30  1  0
 18 31  1  0
 19 32  1  0
M  ISO  8  21  13  22  13  23  13  24  13  25  13  26  13  27  13  28  14
M  ISO  4  29  14  30  14  31  14  32  14
M  END
>  <minimizedAffinity>  (1) 
-3.95686555

>  <minimizedRMSD>  (1) 
0.653802156

$$$$
