
     RDKit          3D

 37 39  0  0  1  0  0  0  0  0999 V2000
   48.0680   34.7980   41.3270 N   0  0  0  0  0  0  0  0  0  0  0  0
   49.3020   35.1100   41.9750 C   0  0  0  0  0  0  0  0  0  0  0  0
   50.1670   33.9590   42.3290 C   0  0  0  0  0  0  0  0  0  0  0  0
   49.3120   32.9470   42.7850 O   0  0  0  0  0  0  0  0  0  0  0  0
   48.7490   32.4490   41.6050 C   0  0  0  0  0  0  0  0  0  0  0  0
   47.9480   33.4760   40.8470 C   0  0  2  0  0  0  0  0  0  0  0  0
   48.3830   33.4670   39.4040 C   0  0  0  0  0  0  0  0  0  0  0  0
   48.2170   34.4560   38.4860 N   0  0  0  0  0  0  0  0  0  0  0  0
   48.7190   34.0930   37.3460 O   0  0  0  0  0  0  0  0  0  0  0  0
   49.2270   32.8830   37.4480 C   0  0  0  0  0  0  0  0  0  0  0  0
   49.0230   32.4890   38.7170 N   0  0  0  0  0  0  0  0  0  0  0  0
   46.9840   35.3900   42.0240 C   0  0  0  0  0  0  0  0  0  0  0  0
   45.7640   34.5290   42.2250 C   0  0  1  0  0  0  0  0  0  0  0  0
   44.7520   35.4500   44.3680 C   0  0  0  0  0  0  0  0  0  0  0  0
   45.4960   34.4450   43.6720 C   0  0  0  0  0  0  0  0  0  0  0  0
   45.9550   33.3890   44.4370 C   0  0  0  0  0  0  0  0  0  0  0  0
   45.6870   33.3580   45.7640 N   0  0  0  0  0  0  0  0  0  0  0  0
   44.9890   34.3120   46.3900 C   0  0  0  0  0  0  0  0  0  0  0  0
   44.5190   35.3690   45.6790 N   0  0  0  0  0  0  0  0  0  0  0  0
   44.5760   34.9970   41.4740 C   0  0  0  0  0  0  0  0  0  0  0  0
   49.8758   35.7669   41.3048 H   0  0  0  0  0  0  0  0  0  0  0  0
   49.0217   35.5721   42.9331 H   0  0  0  0  0  0  0  0  0  0  0  0
   50.7247   33.6162   41.4450 H   0  0  0  0  0  0  0  0  0  0  0  0
   50.9035   34.2353   43.0979 H   0  0  0  0  0  0  0  0  0  0  0  0
   49.5608   32.0902   40.9552 H   0  0  0  0  0  0  0  0  0  0  0  0
   48.0580   31.6417   41.8891 H   0  0  0  0  0  0  0  0  0  0  0  0
   46.8952   33.1863   40.9800 H   0  0  0  0  0  0  0  0  0  0  0  0
   49.7213   32.3074   36.6515 H   0  0  0  0  0  0  0  0  0  0  0  0
   47.3491   35.6896   43.0175 H   0  0  0  0  0  0  0  0  0  0  0  0
   46.6504   36.2242   41.3894 H   0  0  0  0  0  0  0  0  0  0  0  0
   45.9734   33.5302   41.8145 H   0  0  0  0  0  0  0  0  0  0  0  0
   44.3619   36.3121   43.8071 H   0  0  0  0  0  0  0  0  0  0  0  0
   46.5345   32.5787   43.9705 H   0  0  0  0  0  0  0  0  0  0  0  0
   44.7975   34.2409   47.4709 H   0  0  0  0  0  0  0  0  0  0  0  0
   43.7928   35.3056   42.1820 H   0  0  0  0  0  0  0  0  0  0  0  0
   44.8557   35.8521   40.8411 H   0  0  0  0  0  0  0  0  0  0  0  0
   44.1973   34.1808   40.8411 H   0  0  0  0  0  0  0  0  0  0  0  0
  1  2  1  0
  1 12  1  0
  2  3  1  0
  3  4  1  0
  5  4  1  0
  6  1  1  0
  6  5  1  0
  7  6  1  0
  8  7  2  0
  9 10  1  0
  9  8  1  0
 10 11  2  0
 11  7  1  0
 12 13  1  0
 13 15  1  0
 14 19  2  0
 15 14  1  0
 15 16  2  0
 16 17  1  0
 17 18  2  0
 19 18  1  0
 20 13  1  0
  2 21  1  0
  2 22  1  0
  3 23  1  0
  3 24  1  0
  5 25  1  0
  5 26  1  0
  6 27  1  6
 10 28  1  0
 12 29  1  0
 12 30  1  0
 13 31  1  6
 14 32  1  0
 16 33  1  0
 18 34  1  0
 20 35  1  0
 20 36  1  0
 20 37  1  0
M  ISO  8  21  13  22  13  23  13  24  13  25  13  26  13  27  13  28  14
M  ISO  8  29   8  30   8  31   8  32  14  33  14  34  14  35   8  36   8
M  ISO  1  37   8
M  END
>  <minimizedAffinity>  (1) 
-4.82209826

>  <minimizedRMSD>  (1) 
1.0166347

$$$$
