
     RDKit          3D

 20 21  0  0  0  0  0  0  0  0999 V2000
   45.5840   33.9790   45.3300 C   0  0  0  0  0  0  0  0  0  0  0  0
   44.7130   35.0400   45.6310 C   0  0  0  0  0  0  0  0  0  0  0  0
   44.5460   36.0310   44.6370 C   0  0  0  0  0  0  0  0  0  0  0  0
   45.2260   35.9030   43.4690 N   0  0  0  0  0  0  0  0  0  0  0  0
   46.0540   34.8650   43.2240 C   0  0  0  0  0  0  0  0  0  0  0  0
   46.2340   33.9070   44.1490 N   0  0  0  0  0  0  0  0  0  0  0  0
   46.7850   34.7280   41.9670 C   0  0  0  0  0  0  0  0  0  0  0  0
   48.0010   35.3870   41.8380 C   0  0  0  0  0  0  0  0  0  0  0  0
   48.6960   35.2560   40.6410 C   0  0  0  0  0  0  0  0  0  0  0  0
   48.2210   34.4990   39.5860 C   0  0  0  0  0  0  0  0  0  0  0  0
   47.0150   33.8550   39.7340 C   0  0  0  0  0  0  0  0  0  0  0  0
   46.3120   33.9710   40.9110 C   0  0  0  0  0  0  0  0  0  0  0  0
   45.7402   33.1863   46.0764 H   0  0  0  0  0  0  0  0  0  0  0  0
   44.1860   35.0966   46.5949 H   0  0  0  0  0  0  0  0  0  0  0  0
   43.8785   36.8887   44.8065 H   0  0  0  0  0  0  0  0  0  0  0  0
   48.4033   35.9962   42.6608 H   0  0  0  0  0  0  0  0  0  0  0  0
   49.6599   35.7740   40.5291 H   0  0  0  0  0  0  0  0  0  0  0  0
   48.7940   34.4139   38.6509 H   0  0  0  0  0  0  0  0  0  0  0  0
   46.6121   33.2467   38.9108 H   0  0  0  0  0  0  0  0  0  0  0  0
   45.3496   33.4485   41.0145 H   0  0  0  0  0  0  0  0  0  0  0  0
  1  2  2  0
  3  2  1  0
  4  3  2  0
  5  4  1  0
  5  6  2  0
  6  1  1  0
  7  5  1  0
  8  7  2  0
  9  8  1  0
 10 11  1  0
 10  9  2  0
 11 12  2  0
 12  7  1  0
  1 13  1  0
  2 14  1  0
  3 15  1  0
  8 16  1  0
  9 17  1  0
 10 18  1  0
 11 19  1  0
 12 20  1  0
M  ISO  8  13  14  14  14  15  14  16  14  17  14  18  14  19  14  20  14
M  END
>  <minimizedAffinity>  (1) 
-4.83233547

>  <minimizedRMSD>  (1) 
5.89808226

$$$$
