
     RDKit          3D

 45 48  0  0  1  0  0  0  0  0999 V2000
   47.2870   32.3910   44.5660 N   0  0  0  0  0  0  0  0  0  0  0  0
   47.1820   32.2720   45.9920 C   0  0  0  0  0  0  0  0  0  0  0  0
   45.9380   31.4810   46.1290 C   0  0  0  0  0  0  0  0  0  0  0  0
   45.9860   30.5360   44.9800 C   0  0  0  0  0  0  0  0  0  0  0  0
   47.1640   30.9760   44.1500 C   0  0  2  0  0  0  0  0  0  0  0  0
   47.4550   33.4610   43.6220 C   0  0  0  0  0  0  0  0  0  0  0  0
   46.4010   34.2980   43.2070 C   0  0  0  0  0  0  0  0  0  0  0  0
   46.7000   35.2980   42.2790 C   0  0  0  0  0  0  0  0  0  0  0  0
   47.9560   35.3950   41.8460 N   0  0  0  0  0  0  0  0  0  0  0  0
   48.9330   34.5890   42.2550 C   0  0  0  0  0  0  0  0  0  0  0  0
   48.6810   33.6150   43.1500 N   0  0  0  0  0  0  0  0  0  0  0  0
   45.0530   34.0340   43.8050 C   0  0  0  0  0  0  0  0  0  0  0  0
   44.1340   34.9140   43.2160 F   0  0  0  0  0  0  0  0  0  0  0  0
   45.0270   34.2910   45.1210 F   0  0  0  0  0  0  0  0  0  0  0  0
   44.5680   32.8300   43.4780 F   0  0  0  0  0  0  0  0  0  0  0  0
   48.3700   30.1920   44.4040 C   0  0  0  0  0  0  0  0  0  0  0  0
   48.7860   29.3690   45.3860 C   0  0  0  0  0  0  0  0  0  0  0  0
   49.9950   28.7810   45.3560 C   0  0  0  0  0  0  0  0  0  0  0  0
   50.8020   29.0900   44.2180 C   0  0  0  0  0  0  0  0  0  0  0  0
   49.7090   30.2490   43.2410 S   0  0  0  0  0  0  0  0  0  0  0  0
   52.0850   28.6360   43.9170 N   0  0  0  0  0  0  0  0  0  0  0  0
   52.3070   27.5020   43.2270 C   0  0  0  0  0  0  0  0  0  0  0  0
   53.6440   27.2180   43.0280 C   0  0  0  0  0  0  0  0  0  0  0  0
   54.0180   25.9900   42.2770 C   0  0  0  0  0  0  0  0  0  0  0  0
   54.6700   28.0230   43.4960 C   0  0  0  0  0  0  0  0  0  0  0  0
   55.8920   27.7280   43.2930 O   0  0  0  0  0  0  0  0  0  0  0  0
   54.3750   29.1470   44.1820 N   0  0  0  0  0  0  0  0  0  0  0  0
   53.0780   29.4200   44.3730 C   0  0  0  0  0  0  0  0  0  0  0  0
   52.8730   30.4930   45.0270 O   0  0  0  0  0  0  0  0  0  0  0  0
   48.0461   31.7394   46.4159 H   0  0  0  0  0  0  0  0  0  0  0  0
   47.1630   33.2351   46.5232 H   0  0  0  0  0  0  0  0  0  0  0  0
   45.9244   30.9354   47.0841 H   0  0  0  0  0  0  0  0  0  0  0  0
   45.0342   32.1079   46.1250 H   0  0  0  0  0  0  0  0  0  0  0  0
   46.1291   29.5048   45.3353 H   0  0  0  0  0  0  0  0  0  0  0  0
   45.0505   30.5472   44.4014 H   0  0  0  0  0  0  0  0  0  0  0  0
   47.0274   30.8389   43.0672 H   0  0  0  0  0  0  0  0  0  0  0  0
   45.9214   35.9852   41.9164 H   0  0  0  0  0  0  0  0  0  0  0  0
   49.9513   34.7192   41.8600 H   0  0  0  0  0  0  0  0  0  0  0  0
   48.1174   29.1723   46.2370 H   0  0  0  0  0  0  0  0  0  0  0  0
   50.3397   28.1072   46.1542 H   0  0  0  0  0  0  0  0  0  0  0  0
   51.4960   26.8587   42.8547 H   0  0  0  0  0  0  0  0  0  0  0  0
   54.2628   25.1863   42.9870 H   0  0  0  0  0  0  0  0  0  0  0  0
   53.1747   25.6761   41.6443 H   0  0  0  0  0  0  0  0  0  0  0  0
   54.8931   26.1994   41.6443 H   0  0  0  0  0  0  0  0  0  0  0  0
   55.1142   29.7671   44.5425 H   0  0  0  0  0  0  0  0  0  0  0  0
  1  2  1  0
  2  3  1  0
  4  3  1  0
  5 16  1  0
  5  1  1  0
  5  4  1  0
  6  1  1  0
  7  6  2  0
  7 12  1  0
  8  7  1  0
  9 10  1  0
  9  8  2  0
 10 11  2  0
 11  6  1  0
 12 14  1  0
 13 12  1  0
 15 12  1  0
 16 17  2  0
 18 17  1  0
 19 18  2  0
 20 19  1  0
 20 16  1  0
 21 19  1  0
 21 28  1  0
 22 21  1  0
 23 22  2  0
 23 25  1  0
 24 23  1  0
 25 27  1  0
 26 25  2  0
 27 28  1  0
 28 29  2  0
  2 30  1  0
  2 31  1  0
  3 32  1  0
  3 33  1  0
  4 34  1  0
  4 35  1  0
  5 36  1  6
  8 37  1  0
 10 38  1  0
 17 39  1  0
 18 40  1  0
 22 41  1  0
 24 42  1  0
 24 43  1  0
 24 44  1  0
 27 45  1  0
M  ISO  8  30  13  31  13  32  13  33  13  34  13  35  13  36  13  37  14
M  ISO  8  38  14  39  14  40  14  41  14  42   8  43   8  44   8  45   9
M  END
>  <minimizedAffinity>  (1) 
-4.21984529

>  <minimizedRMSD>  (1) 
0.738548696

$$$$
