
     RDKit          3D

 42 45  0  0  1  0  0  0  0  0999 V2000
   47.2420   32.4550   44.5860 N   0  0  0  0  0  0  0  0  0  0  0  0
   47.1350   32.3380   46.0100 C   0  0  0  0  0  0  0  0  0  0  0  0
   45.8870   31.5640   46.1540 C   0  0  0  0  0  0  0  0  0  0  0  0
   45.9160   30.6130   45.0070 C   0  0  0  0  0  0  0  0  0  0  0  0
   47.1040   31.0390   44.1840 C   0  0  2  0  0  0  0  0  0  0  0  0
   47.4190   33.5150   43.6310 C   0  0  0  0  0  0  0  0  0  0  0  0
   46.3740   34.3590   43.2130 C   0  0  0  0  0  0  0  0  0  0  0  0
   46.6770   35.3470   42.2750 C   0  0  0  0  0  0  0  0  0  0  0  0
   47.9390   35.4240   41.8380 N   0  0  0  0  0  0  0  0  0  0  0  0
   48.9060   34.6150   42.2500 C   0  0  0  0  0  0  0  0  0  0  0  0
   48.6450   33.6500   43.1550 N   0  0  0  0  0  0  0  0  0  0  0  0
   45.0260   34.1120   43.8190 C   0  0  0  0  0  0  0  0  0  0  0  0
   44.1150   35.0010   43.2270 F   0  0  0  0  0  0  0  0  0  0  0  0
   45.0100   34.3850   45.1370 F   0  0  0  0  0  0  0  0  0  0  0  0
   44.5250   32.9130   43.4980 F   0  0  0  0  0  0  0  0  0  0  0  0
   48.2970   30.2420   44.4230 C   0  0  0  0  0  0  0  0  0  0  0  0
   48.6910   29.3860   45.3850 C   0  0  0  0  0  0  0  0  0  0  0  0
   49.8850   28.7810   45.3410 C   0  0  0  0  0  0  0  0  0  0  0  0
   50.7020   29.0920   44.2320 C   0  0  0  0  0  0  0  0  0  0  0  0
   49.6430   30.2980   43.2780 S   0  0  0  0  0  0  0  0  0  0  0  0
   51.9900   28.6280   43.9010 N   0  0  0  0  0  0  0  0  0  0  0  0
   52.0290   27.5050   43.2090 C   0  0  0  0  0  0  0  0  0  0  0  0
   53.2760   26.9850   42.8440 C   0  0  0  0  0  0  0  0  0  0  0  0
   54.4050   27.6970   43.2430 C   0  0  0  0  0  0  0  0  0  0  0  0
   55.5820   27.2990   42.9560 O   0  0  0  0  0  0  0  0  0  0  0  0
   54.2860   28.8440   43.9530 N   0  0  0  0  0  0  0  0  0  0  0  0
   53.0630   29.3410   44.3020 C   0  0  0  0  0  0  0  0  0  0  0  0
   52.9990   30.4090   44.9620 O   0  0  0  0  0  0  0  0  0  0  0  0
   47.9937   31.7965   46.4334 H   0  0  0  0  0  0  0  0  0  0  0  0
   47.1251   33.3031   46.5377 H   0  0  0  0  0  0  0  0  0  0  0  0
   45.8719   31.0216   47.1109 H   0  0  0  0  0  0  0  0  0  0  0  0
   44.9911   32.2023   46.1512 H   0  0  0  0  0  0  0  0  0  0  0  0
   46.0418   29.5799   45.3632 H   0  0  0  0  0  0  0  0  0  0  0  0
   44.9811   30.6324   44.4277 H   0  0  0  0  0  0  0  0  0  0  0  0
   46.9662   30.8990   43.1017 H   0  0  0  0  0  0  0  0  0  0  0  0
   45.9046   36.0387   41.9076 H   0  0  0  0  0  0  0  0  0  0  0  0
   49.9248   34.7317   41.8519 H   0  0  0  0  0  0  0  0  0  0  0  0
   48.0154   29.1785   46.2279 H   0  0  0  0  0  0  0  0  0  0  0  0
   50.2109   28.0812   46.1246 H   0  0  0  0  0  0  0  0  0  0  0  0
   51.1004   26.9882   42.9249 H   0  0  0  0  0  0  0  0  0  0  0  0
   53.3611   26.0529   42.2661 H   0  0  0  0  0  0  0  0  0  0  0  0
   55.1360   29.3523   44.2358 H   0  0  0  0  0  0  0  0  0  0  0  0
  1  2  1  0
  2  3  1  0
  4  3  1  0
  5 16  1  0
  5  1  1  0
  5  4  1  0
  6  1  1  0
  7  6  2  0
  7 12  1  0
  8  7  1  0
  9 10  1  0
  9  8  2  0
 10 11  2  0
 11  6  1  0
 12 14  1  0
 13 12  1  0
 15 12  1  0
 16 17  2  0
 18 17  1  0
 19 18  2  0
 20 19  1  0
 20 16  1  0
 21 19  1  0
 21 27  1  0
 22 21  1  0
 23 22  2  0
 23 24  1  0
 24 26  1  0
 25 24  2  0
 26 27  1  0
 27 28  2  0
  2 29  1  0
  2 30  1  0
  3 31  1  0
  3 32  1  0
  4 33  1  0
  4 34  1  0
  5 35  1  6
  8 36  1  0
 10 37  1  0
 17 38  1  0
 18 39  1  0
 22 40  1  0
 23 41  1  0
 26 42  1  0
M  ISO  8  29  13  30  13  31  13  32  13  33  13  34  13  35  13  36  14
M  ISO  6  37  14  38  14  39  14  40  14  41  14  42   9
M  END
>  <minimizedAffinity>  (1) 
-4.21495152

>  <minimizedRMSD>  (1) 
0.621839941

$$$$
