
     RDKit          3D

 43 47  0  0  1  0  0  0  0  0999 V2000
   47.2450   32.4600   44.5790 N   0  0  0  0  0  0  0  0  0  0  0  0
   47.1460   32.3390   46.0020 C   0  0  0  0  0  0  0  0  0  0  0  0
   45.8890   31.5650   46.1470 C   0  0  0  0  0  0  0  0  0  0  0  0
   45.9250   30.6170   45.0000 C   0  0  0  0  0  0  0  0  0  0  0  0
   47.1050   31.0480   44.1680 C   0  0  2  0  0  0  0  0  0  0  0  0
   47.4200   33.5220   43.6260 C   0  0  0  0  0  0  0  0  0  0  0  0
   46.3680   34.3600   43.2100 C   0  0  0  0  0  0  0  0  0  0  0  0
   46.6750   35.3520   42.2710 C   0  0  0  0  0  0  0  0  0  0  0  0
   47.9240   35.4430   41.8320 N   0  0  0  0  0  0  0  0  0  0  0  0
   48.9030   34.6290   42.2480 C   0  0  0  0  0  0  0  0  0  0  0  0
   48.6460   33.6630   43.1500 N   0  0  0  0  0  0  0  0  0  0  0  0
   45.0270   34.1140   43.8140 C   0  0  0  0  0  0  0  0  0  0  0  0
   44.1110   35.0070   43.2330 F   0  0  0  0  0  0  0  0  0  0  0  0
   45.0080   34.3860   45.1410 F   0  0  0  0  0  0  0  0  0  0  0  0
   44.5220   32.9150   43.4990 F   0  0  0  0  0  0  0  0  0  0  0  0
   48.3000   30.2490   44.4000 C   0  0  0  0  0  0  0  0  0  0  0  0
   48.7150   29.4110   45.3760 C   0  0  0  0  0  0  0  0  0  0  0  0
   49.9070   28.8010   45.3290 C   0  0  0  0  0  0  0  0  0  0  0  0
   50.7000   29.0880   44.1990 C   0  0  0  0  0  0  0  0  0  0  0  0
   49.6220   30.2800   43.2250 S   0  0  0  0  0  0  0  0  0  0  0  0
   52.0110   28.6340   43.8030 N   0  0  0  0  0  0  0  0  0  0  0  0
   52.6400   27.6840   44.4880 C   0  0  0  0  0  0  0  0  0  0  0  0
   53.8260   27.5230   43.8330 N   0  0  0  0  0  0  0  0  0  0  0  0
   53.8810   28.3670   42.7860 C   0  0  0  0  0  0  0  0  0  0  0  0
   54.8110   28.6460   41.7910 C   0  0  0  0  0  0  0  0  0  0  0  0
   54.5920   29.5820   40.8310 N   0  0  0  0  0  0  0  0  0  0  0  0
   53.4250   30.2610   40.8540 C   0  0  0  0  0  0  0  0  0  0  0  0
   52.4930   30.0190   41.8070 N   0  0  0  0  0  0  0  0  0  0  0  0
   52.7020   29.0880   42.7680 C   0  0  0  0  0  0  0  0  0  0  0  0
   48.0046   31.7926   46.4194 H   0  0  0  0  0  0  0  0  0  0  0  0
   47.1437   33.3015   46.5346 H   0  0  0  0  0  0  0  0  0  0  0  0
   45.8703   31.0227   47.1038 H   0  0  0  0  0  0  0  0  0  0  0  0
   44.9927   32.2027   46.1454 H   0  0  0  0  0  0  0  0  0  0  0  0
   46.0607   29.5852   45.3565 H   0  0  0  0  0  0  0  0  0  0  0  0
   44.9881   30.6330   44.4239 H   0  0  0  0  0  0  0  0  0  0  0  0
   46.9603   30.9156   43.0856 H   0  0  0  0  0  0  0  0  0  0  0  0
   45.8987   36.0402   41.9055 H   0  0  0  0  0  0  0  0  0  0  0  0
   49.9216   34.7503   41.8509 H   0  0  0  0  0  0  0  0  0  0  0  0
   48.0539   29.2241   46.2351 H   0  0  0  0  0  0  0  0  0  0  0  0
   50.2459   28.1188   46.1226 H   0  0  0  0  0  0  0  0  0  0  0  0
   52.2846   27.1488   45.3809 H   0  0  0  0  0  0  0  0  0  0  0  0
   55.7591   28.0883   41.7806 H   0  0  0  0  0  0  0  0  0  0  0  0
   53.2278   31.0234   40.0860 H   0  0  0  0  0  0  0  0  0  0  0  0
  1  2  1  0
  2  3  1  0
  4  3  1  0
  5 16  1  0
  5  1  1  0
  5  4  1  0
  6  1  1  0
  7  6  2  0
  7 12  1  0
  8  7  1  0
  9 10  1  0
  9  8  2  0
 10 11  2  0
 11  6  1  0
 12 14  1  0
 13 12  1  0
 15 12  1  0
 16 17  2  0
 18 17  1  0
 19 18  2  0
 20 19  1  0
 20 16  1  0
 21 19  1  0
 21 22  1  0
 23 22  2  0
 24 23  1  0
 25 24  2  0
 26 27  2  0
 26 25  1  0
 27 28  1  0
 28 29  2  0
 29 24  1  0
 29 21  1  0
  2 30  1  0
  2 31  1  0
  3 32  1  0
  3 33  1  0
  4 34  1  0
  4 35  1  0
  5 36  1  6
  8 37  1  0
 10 38  1  0
 17 39  1  0
 18 40  1  0
 22 41  1  0
 25 42  1  0
 27 43  1  0
M  ISO  8  30  13  31  13  32  13  33  13  34  13  35  13  36  13  37  14
M  ISO  6  38  14  39  14  40  14  41  14  42  14  43  14
M  END
>  <minimizedAffinity>  (1) 
-4.4010582

>  <minimizedRMSD>  (1) 
0.40309912

$$$$
