
     RDKit          3D

 42 45  0  0  1  0  0  0  0  0999 V2000
   47.2220   32.4670   44.6140 N   0  0  0  0  0  0  0  0  0  0  0  0
   47.0930   32.3750   46.0400 C   0  0  0  0  0  0  0  0  0  0  0  0
   45.8420   31.5960   46.1720 C   0  0  0  0  0  0  0  0  0  0  0  0
   45.8990   30.6270   45.0420 C   0  0  0  0  0  0  0  0  0  0  0  0
   47.0980   31.0450   44.2330 C   0  0  2  0  0  0  0  0  0  0  0  0
   47.4090   33.5150   43.6470 C   0  0  0  0  0  0  0  0  0  0  0  0
   46.3700   34.3560   43.2080 C   0  0  0  0  0  0  0  0  0  0  0  0
   46.6820   35.3300   42.2570 C   0  0  0  0  0  0  0  0  0  0  0  0
   47.9500   35.3930   41.8300 N   0  0  0  0  0  0  0  0  0  0  0  0
   48.9120   34.5870   42.2600 C   0  0  0  0  0  0  0  0  0  0  0  0
   48.6410   33.6390   43.1770 N   0  0  0  0  0  0  0  0  0  0  0  0
   45.0200   34.1250   43.8060 C   0  0  0  0  0  0  0  0  0  0  0  0
   44.1100   35.0110   43.2050 F   0  0  0  0  0  0  0  0  0  0  0  0
   44.9830   34.4090   45.1170 F   0  0  0  0  0  0  0  0  0  0  0  0
   44.5130   32.9250   43.4980 F   0  0  0  0  0  0  0  0  0  0  0  0
   48.2860   30.2600   44.5050 C   0  0  0  0  0  0  0  0  0  0  0  0
   48.6680   29.4210   45.5050 C   0  0  0  0  0  0  0  0  0  0  0  0
   49.8730   28.8340   45.4790 C   0  0  0  0  0  0  0  0  0  0  0  0
   50.7070   29.1260   44.3840 C   0  0  0  0  0  0  0  0  0  0  0  0
   49.6580   30.2980   43.3860 S   0  0  0  0  0  0  0  0  0  0  0  0
   52.0340   28.7180   43.9850 C   0  0  0  0  0  0  0  0  0  0  0  0
   52.1830   27.4870   43.4000 C   0  0  0  0  0  0  0  0  0  0  0  0
   53.4990   27.1670   43.0430 C   0  0  0  0  0  0  0  0  0  0  0  0
   54.5460   28.0520   43.2790 C   0  0  0  0  0  0  0  0  0  0  0  0
   54.3110   29.2940   43.8820 C   0  0  0  0  0  0  0  0  0  0  0  0
   53.0090   29.6490   44.2530 C   0  0  0  0  0  0  0  0  0  0  0  0
   47.9463   31.8442   46.4875 H   0  0  0  0  0  0  0  0  0  0  0  0
   47.0723   33.3480   46.5527 H   0  0  0  0  0  0  0  0  0  0  0  0
   45.8095   31.0694   47.1372 H   0  0  0  0  0  0  0  0  0  0  0  0
   44.9436   32.2299   46.1408 H   0  0  0  0  0  0  0  0  0  0  0  0
   46.0245   29.6009   45.4181 H   0  0  0  0  0  0  0  0  0  0  0  0
   44.9749   30.6320   44.4454 H   0  0  0  0  0  0  0  0  0  0  0  0
   46.9801   30.8871   43.1508 H   0  0  0  0  0  0  0  0  0  0  0  0
   45.9155   36.0193   41.8732 H   0  0  0  0  0  0  0  0  0  0  0  0
   49.9336   34.6934   41.8664 H   0  0  0  0  0  0  0  0  0  0  0  0
   47.9825   29.2224   46.3421 H   0  0  0  0  0  0  0  0  0  0  0  0
   50.1961   28.1528   46.2800 H   0  0  0  0  0  0  0  0  0  0  0  0
   51.3373   26.8057   43.2251 H   0  0  0  0  0  0  0  0  0  0  0  0
   53.7086   26.1977   42.5671 H   0  0  0  0  0  0  0  0  0  0  0  0
   55.5698   27.7732   42.9888 H   0  0  0  0  0  0  0  0  0  0  0  0
   55.1457   29.9872   44.0632 H   0  0  0  0  0  0  0  0  0  0  0  0
   52.7801   30.6136   44.7297 H   0  0  0  0  0  0  0  0  0  0  0  0
  1  2  1  0
  2  3  1  0
  4  3  1  0
  5 16  1  0
  5  1  1  0
  5  4  1  0
  6  1  1  0
  7  6  2  0
  7 12  1  0
  8  7  1  0
  9  8  2  0
  9 10  1  0
 10 11  2  0
 11  6  1  0
 12 14  1  0
 13 12  1  0
 15 12  1  0
 16 17  2  0
 18 17  1  0
 19 18  2  0
 20 19  1  0
 20 16  1  0
 21 26  1  0
 21 19  1  0
 22 21  2  0
 23 24  2  0
 23 22  1  0
 24 25  1  0
 25 26  2  0
  2 27  1  0
  2 28  1  0
  3 29  1  0
  3 30  1  0
  4 31  1  0
  4 32  1  0
  5 33  1  6
  8 34  1  0
 10 35  1  0
 17 36  1  0
 18 37  1  0
 22 38  1  0
 23 39  1  0
 24 40  1  0
 25 41  1  0
 26 42  1  0
M  ISO  8  27  13  28  13  29  13  30  13  31  13  32  13  33  13  34  14
M  ISO  8  35  14  36  14  37  14  38  14  39  14  40  14  41  14  42  14
M  END
>  <minimizedAffinity>  (1) 
-4.1651597

>  <minimizedRMSD>  (1) 
0.245009229

$$$$
