
     RDKit          3D

 45 47  0  0  1  0  0  0  0  0999 V2000
   47.1720   35.2260   41.9560 C   0  0  0  0  0  0  0  0  0  0  0  0
   48.2500   34.5700   41.3070 N   0  0  0  0  0  0  0  0  0  0  0  0
   49.4710   34.8240   42.0150 C   0  0  0  0  0  0  0  0  0  0  0  0
   50.2630   33.6320   42.3950 C   0  0  0  0  0  0  0  0  0  0  0  0
   49.3370   32.6770   42.8450 O   0  0  0  0  0  0  0  0  0  0  0  0
   48.7870   32.1880   41.6530 C   0  0  0  0  0  0  0  0  0  0  0  0
   48.0950   33.2520   40.8470 C   0  0  2  0  0  0  0  0  0  0  0  0
   48.6550   33.1890   39.4270 C   0  0  0  0  0  0  0  0  0  0  0  0
   48.1760   34.4120   38.7020 C   0  0  0  0  0  0  0  0  0  0  0  0
   47.8210   33.9470   37.2860 C   0  0  0  0  0  0  0  0  0  0  0  0
   48.3900   32.5460   37.2100 C   0  0  0  0  0  0  0  0  0  0  0  0
   48.1170   32.0490   38.6260 C   0  0  0  0  0  0  0  0  0  0  0  0
   45.9060   34.4270   42.1400 C   0  0  1  0  0  0  0  0  0  0  0  0
   44.7780   35.5280   44.1380 C   0  0  0  0  0  0  0  0  0  0  0  0
   45.5470   34.4680   43.5640 C   0  0  0  0  0  0  0  0  0  0  0  0
   45.9510   33.4580   44.4390 C   0  0  0  0  0  0  0  0  0  0  0  0
   45.5920   33.5540   45.7490 N   0  0  0  0  0  0  0  0  0  0  0  0
   44.8750   34.5520   46.2550 C   0  0  0  0  0  0  0  0  0  0  0  0
   44.4620   35.5540   45.4350 N   0  0  0  0  0  0  0  0  0  0  0  0
   44.7900   34.8960   41.2860 C   0  0  0  0  0  0  0  0  0  0  0  0
   46.9200   36.1185   41.3645 H   0  0  0  0  0  0  0  0  0  0  0  0
   47.5319   35.4366   42.9739 H   0  0  0  0  0  0  0  0  0  0  0  0
   50.1037   35.4587   41.3771 H   0  0  0  0  0  0  0  0  0  0  0  0
   49.1708   35.2942   42.9631 H   0  0  0  0  0  0  0  0  0  0  0  0
   50.8158   33.2476   41.5251 H   0  0  0  0  0  0  0  0  0  0  0  0
   51.0030   33.8721   43.1727 H   0  0  0  0  0  0  0  0  0  0  0  0
   49.5957   31.7572   41.0444 H   0  0  0  0  0  0  0  0  0  0  0  0
   48.0316   31.4353   41.9229 H   0  0  0  0  0  0  0  0  0  0  0  0
   47.0194   33.0345   40.9226 H   0  0  0  0  0  0  0  0  0  0  0  0
   49.7467   33.0918   39.5210 H   0  0  0  0  0  0  0  0  0  0  0  0
   47.2895   34.8303   39.2011 H   0  0  0  0  0  0  0  0  0  0  0  0
   48.9430   35.2004   38.6884 H   0  0  0  0  0  0  0  0  0  0  0  0
   46.7308   33.9352   37.1396 H   0  0  0  0  0  0  0  0  0  0  0  0
   48.2239   34.6115   36.5075 H   0  0  0  0  0  0  0  0  0  0  0  0
   47.8660   31.9365   36.4590 H   0  0  0  0  0  0  0  0  0  0  0  0
   49.4464   32.4995   36.9069 H   0  0  0  0  0  0  0  0  0  0  0  0
   47.0416   31.9006   38.8034 H   0  0  0  0  0  0  0  0  0  0  0  0
   48.5656   31.0728   38.8621 H   0  0  0  0  0  0  0  0  0  0  0  0
   46.0935   33.3916   41.8192 H   0  0  0  0  0  0  0  0  0  0  0  0
   44.4357   36.3485   43.4902 H   0  0  0  0  0  0  0  0  0  0  0  0
   46.5451   32.6051   44.0789 H   0  0  0  0  0  0  0  0  0  0  0  0
   44.6189   34.5669   47.3247 H   0  0  0  0  0  0  0  0  0  0  0  0
   43.9626   35.2437   41.9221 H   0  0  0  0  0  0  0  0  0  0  0  0
   45.1373   35.7243   40.6509 H   0  0  0  0  0  0  0  0  0  0  0  0
   44.4414   34.0683   40.6509 H   0  0  0  0  0  0  0  0  0  0  0  0
  1 13  1  0
  2  1  1  0
  2  3  1  0
  3  4  1  0
  4  5  1  0
  6  5  1  0
  7  2  1  0
  7  6  1  0
  8  7  1  0
  9  8  1  0
 10  9  1  0
 11 10  1  0
 11 12  1  0
 12  8  1  0
 13 15  1  0
 14 19  2  0
 15 14  1  0
 15 16  2  0
 16 17  1  0
 17 18  2  0
 19 18  1  0
 20 13  1  0
  1 21  1  0
  1 22  1  0
  3 23  1  0
  3 24  1  0
  4 25  1  0
  4 26  1  0
  6 27  1  0
  6 28  1  0
  7 29  1  6
  8 30  1  0
  9 31  1  0
  9 32  1  0
 10 33  1  0
 10 34  1  0
 11 35  1  0
 11 36  1  0
 12 37  1  0
 12 38  1  0
 13 39  1  6
 14 40  1  0
 16 41  1  0
 18 42  1  0
 20 43  1  0
 20 44  1  0
 20 45  1  0
M  ISO  8  21   8  22   8  23  13  24  13  25  13  26  13  27  13  28  13
M  ISO  8  29  13  30  13  31  13  32  13  33  13  34  13  35  13  36  13
M  ISO  8  37  13  38  13  39   8  40  14  41  14  42  14  43   8  44   8
M  ISO  1  45   8
M  END
>  <minimizedAffinity>  (1) 
-4.74726534

>  <minimizedRMSD>  (1) 
0.827290297

$$$$
