
     RDKit          3D

 47 50  0  0  1  0  0  0  0  0999 V2000
   47.2280   32.4620   44.6230 N   0  0  0  0  0  0  0  0  0  0  0  0
   47.1120   32.3610   46.0470 C   0  0  0  0  0  0  0  0  0  0  0  0
   45.8540   31.6000   46.1910 C   0  0  0  0  0  0  0  0  0  0  0  0
   45.8880   30.6300   45.0600 C   0  0  0  0  0  0  0  0  0  0  0  0
   47.0850   31.0460   44.2390 C   0  0  2  0  0  0  0  0  0  0  0  0
   47.4170   33.5060   43.6550 C   0  0  0  0  0  0  0  0  0  0  0  0
   46.3810   34.3590   43.2130 C   0  0  0  0  0  0  0  0  0  0  0  0
   46.6830   35.3310   42.2640 C   0  0  0  0  0  0  0  0  0  0  0  0
   47.9470   35.3930   41.8300 N   0  0  0  0  0  0  0  0  0  0  0  0
   48.9100   34.5780   42.2630 C   0  0  0  0  0  0  0  0  0  0  0  0
   48.6450   33.6290   43.1800 N   0  0  0  0  0  0  0  0  0  0  0  0
   45.0280   34.1320   43.8160 C   0  0  0  0  0  0  0  0  0  0  0  0
   44.1170   35.0100   43.2130 F   0  0  0  0  0  0  0  0  0  0  0  0
   45.0040   34.4100   45.1300 F   0  0  0  0  0  0  0  0  0  0  0  0
   44.5130   32.9270   43.5170 F   0  0  0  0  0  0  0  0  0  0  0  0
   48.2780   30.2480   44.4940 C   0  0  0  0  0  0  0  0  0  0  0  0
   48.6800   29.4360   45.4880 C   0  0  0  0  0  0  0  0  0  0  0  0
   49.8610   28.8010   45.4800 C   0  0  0  0  0  0  0  0  0  0  0  0
   50.6580   29.0510   44.3410 C   0  0  0  0  0  0  0  0  0  0  0  0
   49.6130   30.2170   43.3420 S   0  0  0  0  0  0  0  0  0  0  0  0
   51.9190   28.4630   44.0920 N   0  0  0  0  0  0  0  0  0  0  0  0
   52.9400   28.6900   45.0910 C   0  0  0  0  0  0  0  0  0  0  0  0
   54.0430   29.5110   44.4520 C   0  0  0  0  0  0  0  0  0  0  0  0
   54.7010   28.5510   43.4480 C   0  0  0  0  0  0  0  0  0  0  0  0
   53.6590   28.2550   42.4130 C   0  0  0  0  0  0  0  0  0  0  0  0
   52.3810   27.6810   42.9980 C   0  0  0  0  0  0  0  0  0  0  0  0
   47.9628   31.8153   46.4810 H   0  0  0  0  0  0  0  0  0  0  0  0
   47.1090   33.3314   46.5650 H   0  0  0  0  0  0  0  0  0  0  0  0
   45.8236   31.0739   47.1566 H   0  0  0  0  0  0  0  0  0  0  0  0
   44.9637   32.2456   46.1685 H   0  0  0  0  0  0  0  0  0  0  0  0
   46.0108   29.6025   45.4329 H   0  0  0  0  0  0  0  0  0  0  0  0
   44.9568   30.6382   44.4746 H   0  0  0  0  0  0  0  0  0  0  0  0
   46.9496   30.8940   43.1580 H   0  0  0  0  0  0  0  0  0  0  0  0
   45.9137   36.0204   41.8860 H   0  0  0  0  0  0  0  0  0  0  0  0
   49.9308   34.6825   41.8668 H   0  0  0  0  0  0  0  0  0  0  0  0
   48.0093   29.2859   46.3468 H   0  0  0  0  0  0  0  0  0  0  0  0
   50.1837   28.1377   46.2961 H   0  0  0  0  0  0  0  0  0  0  0  0
   52.5129   29.2375   45.9441 H   0  0  0  0  0  0  0  0  0  0  0  0
   53.3382   27.7319   45.4565 H   0  0  0  0  0  0  0  0  0  0  0  0
   53.6261   30.3884   43.9358 H   0  0  0  0  0  0  0  0  0  0  0  0
   54.7586   29.8997   45.1915 H   0  0  0  0  0  0  0  0  0  0  0  0
   55.5770   29.0266   42.9828 H   0  0  0  0  0  0  0  0  0  0  0  0
   55.0510   27.6318   43.9406 H   0  0  0  0  0  0  0  0  0  0  0  0
   54.0730   27.5290   41.6978 H   0  0  0  0  0  0  0  0  0  0  0  0
   53.3981   29.2082   41.9299 H   0  0  0  0  0  0  0  0  0  0  0  0
   51.6059   27.6626   42.2176 H   0  0  0  0  0  0  0  0  0  0  0  0
   52.5905   26.6640   43.3611 H   0  0  0  0  0  0  0  0  0  0  0  0
  1  2  1  0
  2  3  1  0
  4  3  1  0
  5 16  1  0
  5  1  1  0
  5  4  1  0
  6  1  1  0
  7  6  2  0
  7 12  1  0
  8  7  1  0
  9 10  1  0
  9  8  2  0
 10 11  2  0
 11  6  1  0
 12 14  1  0
 13 12  1  0
 15 12  1  0
 16 17  2  0
 18 17  1  0
 19 18  2  0
 20 19  1  0
 20 16  1  0
 21 19  1  0
 21 22  1  0
 23 22  1  0
 24 23  1  0
 25 26  1  0
 25 24  1  0
 26 21  1  0
  2 27  1  0
  2 28  1  0
  3 29  1  0
  3 30  1  0
  4 31  1  0
  4 32  1  0
  5 33  1  6
  8 34  1  0
 10 35  1  0
 17 36  1  0
 18 37  1  0
 22 38  1  0
 22 39  1  0
 23 40  1  0
 23 41  1  0
 24 42  1  0
 24 43  1  0
 25 44  1  0
 25 45  1  0
 26 46  1  0
 26 47  1  0
M  ISO  8  27  13  28  13  29  13  30  13  31  13  32  13  33  13  34  14
M  ISO  8  35  14  36  14  37  14  38  13  39  13  40  13  41  13  42  13
M  ISO  5  43  13  44  13  45  13  46  13  47  13
M  END
>  <minimizedAffinity>  (1) 
-4.12024212

>  <minimizedRMSD>  (1) 
0.155217513

$$$$
