
     RDKit          3D

 39 42  0  0  1  0  0  0  0  0999 V2000
   47.2190   32.4700   44.6240 N   0  0  0  0  0  0  0  0  0  0  0  0
   47.0920   32.3860   46.0490 C   0  0  0  0  0  0  0  0  0  0  0  0
   45.8360   31.6110   46.1840 C   0  0  0  0  0  0  0  0  0  0  0  0
   45.8920   30.6340   45.0650 C   0  0  0  0  0  0  0  0  0  0  0  0
   47.0870   31.0480   44.2480 C   0  0  2  0  0  0  0  0  0  0  0  0
   47.4110   33.5130   43.6520 C   0  0  0  0  0  0  0  0  0  0  0  0
   46.3750   34.3550   43.2050 C   0  0  0  0  0  0  0  0  0  0  0  0
   46.6940   35.3250   42.2540 C   0  0  0  0  0  0  0  0  0  0  0  0
   47.9560   35.3910   41.8300 N   0  0  0  0  0  0  0  0  0  0  0  0
   48.9160   34.5820   42.2690 C   0  0  0  0  0  0  0  0  0  0  0  0
   48.6430   33.6350   43.1880 N   0  0  0  0  0  0  0  0  0  0  0  0
   45.0190   34.1260   43.8000 C   0  0  0  0  0  0  0  0  0  0  0  0
   44.1120   35.0070   43.1870 F   0  0  0  0  0  0  0  0  0  0  0  0
   44.9850   34.4170   45.1100 F   0  0  0  0  0  0  0  0  0  0  0  0
   44.5120   32.9240   43.5030 F   0  0  0  0  0  0  0  0  0  0  0  0
   48.2750   30.2600   44.5200 C   0  0  0  0  0  0  0  0  0  0  0  0
   48.6750   29.4440   45.5120 C   0  0  0  0  0  0  0  0  0  0  0  0
   49.8690   28.8300   45.5160 C   0  0  0  0  0  0  0  0  0  0  0  0
   50.6930   29.1110   44.3780 C   0  0  0  0  0  0  0  0  0  0  0  0
   49.6320   30.2680   43.3810 S   0  0  0  0  0  0  0  0  0  0  0  0
   52.0210   28.6990   43.9520 C   0  0  0  0  0  0  0  0  0  0  0  0
   53.1830   29.6140   44.3930 C   0  0  0  0  0  0  0  0  0  0  0  0
   52.8140   29.4490   42.9630 C   0  0  0  0  0  0  0  0  0  0  0  0
   47.9435   31.8541   46.4984 H   0  0  0  0  0  0  0  0  0  0  0  0
   47.0763   33.3611   46.5579 H   0  0  0  0  0  0  0  0  0  0  0  0
   45.7990   31.0928   47.1536 H   0  0  0  0  0  0  0  0  0  0  0  0
   44.9401   32.2480   46.1444 H   0  0  0  0  0  0  0  0  0  0  0  0
   46.0219   29.6118   45.4500 H   0  0  0  0  0  0  0  0  0  0  0  0
   44.9658   30.6309   44.4715 H   0  0  0  0  0  0  0  0  0  0  0  0
   46.9615   30.8888   43.1668 H   0  0  0  0  0  0  0  0  0  0  0  0
   45.9284   36.0133   41.8665 H   0  0  0  0  0  0  0  0  0  0  0  0
   49.9394   34.6866   41.8794 H   0  0  0  0  0  0  0  0  0  0  0  0
   47.9931   29.2721   46.3579 H   0  0  0  0  0  0  0  0  0  0  0  0
   50.1897   28.1630   46.3298 H   0  0  0  0  0  0  0  0  0  0  0  0
   51.7320   27.6400   44.0229 H   0  0  0  0  0  0  0  0  0  0  0  0
   52.9771   30.5608   44.9137 H   0  0  0  0  0  0  0  0  0  0  0  0
   54.0989   29.4931   44.9900 H   0  0  0  0  0  0  0  0  0  0  0  0
   53.4917   28.9061   42.2877 H   0  0  0  0  0  0  0  0  0  0  0  0
   52.5567   30.1530   42.1579 H   0  0  0  0  0  0  0  0  0  0  0  0
  1  2  1  0
  2  3  1  0
  4  3  1  0
  5 16  1  0
  5  1  1  0
  5  4  1  0
  6  1  1  0
  7  6  2  0
  7 12  1  0
  8  7  1  0
  9  8  2  0
  9 10  1  0
 10 11  2  0
 11  6  1  0
 12 14  1  0
 13 12  1  0
 15 12  1  0
 16 17  2  0
 17 18  1  0
 19 18  2  0
 20 19  1  0
 20 16  1  0
 21 19  1  0
 21 22  1  0
 23 21  1  0
 23 22  1  0
  2 24  1  0
  2 25  1  0
  3 26  1  0
  3 27  1  0
  4 28  1  0
  4 29  1  0
  5 30  1  6
  8 31  1  0
 10 32  1  0
 17 33  1  0
 18 34  1  0
 21 35  1  0
 22 36  1  0
 22 37  1  0
 23 38  1  0
 23 39  1  0
M  ISO  8  24  13  25  13  26  13  27  13  28  13  29  13  30  13  31  14
M  ISO  8  32  14  33  14  34  14  35  13  36  13  37  13  38  13  39  13
M  END
>  <minimizedAffinity>  (1) 
-4.06585169

>  <minimizedRMSD>  (1) 
0.602388024

$$$$
