
     RDKit          3D

 41 44  0  0  1  0  0  0  0  0999 V2000
   47.2260   32.4640   44.6100 N   0  0  0  0  0  0  0  0  0  0  0  0
   47.1010   32.3700   46.0350 C   0  0  0  0  0  0  0  0  0  0  0  0
   45.8500   31.5850   46.1680 C   0  0  0  0  0  0  0  0  0  0  0  0
   45.9040   30.6210   45.0370 C   0  0  0  0  0  0  0  0  0  0  0  0
   47.0980   31.0450   44.2220 C   0  0  2  0  0  0  0  0  0  0  0  0
   47.4130   33.5130   43.6460 C   0  0  0  0  0  0  0  0  0  0  0  0
   46.3670   34.3560   43.2130 C   0  0  0  0  0  0  0  0  0  0  0  0
   46.6840   35.3330   42.2640 C   0  0  0  0  0  0  0  0  0  0  0  0
   47.9400   35.4100   41.8300 N   0  0  0  0  0  0  0  0  0  0  0  0
   48.9080   34.5950   42.2600 C   0  0  0  0  0  0  0  0  0  0  0  0
   48.6410   33.6430   43.1720 N   0  0  0  0  0  0  0  0  0  0  0  0
   45.0190   34.1220   43.8110 C   0  0  0  0  0  0  0  0  0  0  0  0
   44.1130   35.0070   43.2030 F   0  0  0  0  0  0  0  0  0  0  0  0
   44.9860   34.4010   45.1240 F   0  0  0  0  0  0  0  0  0  0  0  0
   44.5160   32.9210   43.5020 F   0  0  0  0  0  0  0  0  0  0  0  0
   48.2930   30.2570   44.4880 C   0  0  0  0  0  0  0  0  0  0  0  0
   48.6890   29.4320   45.4810 C   0  0  0  0  0  0  0  0  0  0  0  0
   49.8880   28.8310   45.4750 C   0  0  0  0  0  0  0  0  0  0  0  0
   50.7110   29.1200   44.3540 C   0  0  0  0  0  0  0  0  0  0  0  0
   49.6500   30.2850   43.3560 S   0  0  0  0  0  0  0  0  0  0  0  0
   52.0470   28.6570   44.0180 C   0  0  0  0  0  0  0  0  0  0  0  0
   52.2810   27.3480   43.7330 C   0  0  0  0  0  0  0  0  0  0  0  0
   53.5660   27.0100   43.4300 C   0  0  0  0  0  0  0  0  0  0  0  0
   54.5330   27.9960   43.4320 C   0  0  0  0  0  0  0  0  0  0  0  0
   54.2920   29.3240   43.7230 C   0  0  0  0  0  0  0  0  0  0  0  0
   52.9870   29.5930   44.0170 N   0  0  0  0  0  0  0  0  0  0  0  0
   47.9569   31.8414   46.4799 H   0  0  0  0  0  0  0  0  0  0  0  0
   47.0787   33.3420   46.5495 H   0  0  0  0  0  0  0  0  0  0  0  0
   45.8222   31.0551   47.1316 H   0  0  0  0  0  0  0  0  0  0  0  0
   44.9503   32.2172   46.1409 H   0  0  0  0  0  0  0  0  0  0  0  0
   46.0348   29.5943   45.4096 H   0  0  0  0  0  0  0  0  0  0  0  0
   44.9767   30.6249   44.4454 H   0  0  0  0  0  0  0  0  0  0  0  0
   46.9719   30.8933   43.1398 H   0  0  0  0  0  0  0  0  0  0  0  0
   45.9140   36.0213   41.8853 H   0  0  0  0  0  0  0  0  0  0  0  0
   49.9292   34.7034   41.8657 H   0  0  0  0  0  0  0  0  0  0  0  0
   48.0055   29.2467   46.3227 H   0  0  0  0  0  0  0  0  0  0  0  0
   50.2122   28.1595   46.2837 H   0  0  0  0  0  0  0  0  0  0  0  0
   51.4743   26.6003   43.7464 H   0  0  0  0  0  0  0  0  0  0  0  0
   53.8285   25.9696   43.1880 H   0  0  0  0  0  0  0  0  0  0  0  0
   55.5644   27.7037   43.1852 H   0  0  0  0  0  0  0  0  0  0  0  0
   55.0784   30.0931   43.7183 H   0  0  0  0  0  0  0  0  0  0  0  0
  1  2  1  0
  2  3  1  0
  4  3  1  0
  5 16  1  0
  5  1  1  0
  5  4  1  0
  6  1  1  0
  7  6  2  0
  7 12  1  0
  8  7  1  0
  9 10  1  0
  9  8  2  0
 10 11  2  0
 11  6  1  0
 12 14  1  0
 13 12  1  0
 15 12  1  0
 16 17  2  0
 18 17  1  0
 19 18  2  0
 20 19  1  0
 20 16  1  0
 21 19  1  0
 22 21  2  0
 23 24  2  0
 23 22  1  0
 24 25  1  0
 25 26  2  0
 26 21  1  0
  2 27  1  0
  2 28  1  0
  3 29  1  0
  3 30  1  0
  4 31  1  0
  4 32  1  0
  5 33  1  6
  8 34  1  0
 10 35  1  0
 17 36  1  0
 18 37  1  0
 22 38  1  0
 23 39  1  0
 24 40  1  0
 25 41  1  0
M  ISO  8  27  13  28  13  29  13  30  13  31  13  32  13  33  13  34  14
M  ISO  7  35  14  36  14  37  14  38  14  39  14  40  14  41  14
M  END
>  <minimizedAffinity>  (1) 
-4.10291338

>  <minimizedRMSD>  (1) 
0.356067002

$$$$
