
     RDKit          3D

 43 46  0  0  1  0  0  0  0  0999 V2000
   47.2310   32.4680   44.6120 N   0  0  0  0  0  0  0  0  0  0  0  0
   47.1220   32.3660   46.0340 C   0  0  0  0  0  0  0  0  0  0  0  0
   45.8640   31.6000   46.1810 C   0  0  0  0  0  0  0  0  0  0  0  0
   45.8950   30.6360   45.0470 C   0  0  0  0  0  0  0  0  0  0  0  0
   47.0920   31.0540   44.2240 C   0  0  2  0  0  0  0  0  0  0  0  0
   47.4150   33.5190   43.6450 C   0  0  0  0  0  0  0  0  0  0  0  0
   46.3730   34.3640   43.2040 C   0  0  0  0  0  0  0  0  0  0  0  0
   46.6880   35.3370   42.2610 C   0  0  0  0  0  0  0  0  0  0  0  0
   47.9430   35.4140   41.8300 N   0  0  0  0  0  0  0  0  0  0  0  0
   48.9160   34.6000   42.2640 C   0  0  0  0  0  0  0  0  0  0  0  0
   48.6540   33.6460   43.1770 N   0  0  0  0  0  0  0  0  0  0  0  0
   45.0300   34.1260   43.8020 C   0  0  0  0  0  0  0  0  0  0  0  0
   44.1080   35.0160   43.2130 F   0  0  0  0  0  0  0  0  0  0  0  0
   44.9990   34.4080   45.1190 F   0  0  0  0  0  0  0  0  0  0  0  0
   44.5150   32.9300   43.5140 F   0  0  0  0  0  0  0  0  0  0  0  0
   48.2740   30.2550   44.4670 C   0  0  0  0  0  0  0  0  0  0  0  0
   48.6710   29.4190   45.4660 C   0  0  0  0  0  0  0  0  0  0  0  0
   49.8560   28.7970   45.4130 C   0  0  0  0  0  0  0  0  0  0  0  0
   50.6560   29.0590   44.2790 C   0  0  0  0  0  0  0  0  0  0  0  0
   49.6010   30.2510   43.2950 S   0  0  0  0  0  0  0  0  0  0  0  0
   51.8980   28.5850   43.8680 N   0  0  0  0  0  0  0  0  0  0  0  0
   52.6190   29.5660   43.1150 C   0  0  0  0  0  0  0  0  0  0  0  0
   54.0330   29.2310   42.7950 C   0  0  0  0  0  0  0  0  0  0  0  0
   54.5980   28.1600   43.4040 O   0  0  0  0  0  0  0  0  0  0  0  0
   53.9390   27.5890   44.4600 C   0  0  0  0  0  0  0  0  0  0  0  0
   52.4670   27.2940   44.1300 C   0  0  0  0  0  0  0  0  0  0  0  0
   47.9759   31.8221   46.4642 H   0  0  0  0  0  0  0  0  0  0  0  0
   47.1193   33.3355   46.5536 H   0  0  0  0  0  0  0  0  0  0  0  0
   45.8394   31.0697   47.1444 H   0  0  0  0  0  0  0  0  0  0  0  0
   44.9721   32.2436   46.1654 H   0  0  0  0  0  0  0  0  0  0  0  0
   46.0173   29.6068   45.4154 H   0  0  0  0  0  0  0  0  0  0  0  0
   44.9626   30.6482   44.4634 H   0  0  0  0  0  0  0  0  0  0  0  0
   46.9598   30.9082   43.1417 H   0  0  0  0  0  0  0  0  0  0  0  0
   45.9181   36.0251   41.8817 H   0  0  0  0  0  0  0  0  0  0  0  0
   49.9371   34.7127   41.8707 H   0  0  0  0  0  0  0  0  0  0  0  0
   48.0091   29.2522   46.3286 H   0  0  0  0  0  0  0  0  0  0  0  0
   50.1889   28.1174   46.2113 H   0  0  0  0  0  0  0  0  0  0  0  0
   52.1558   30.5102   42.7925 H   0  0  0  0  0  0  0  0  0  0  0  0
   54.6070   29.8389   42.0802 H   0  0  0  0  0  0  0  0  0  0  0  0
   54.4398   26.6455   44.7227 H   0  0  0  0  0  0  0  0  0  0  0  0
   53.9627   28.2998   45.2992 H   0  0  0  0  0  0  0  0  0  0  0  0
   51.9653   26.8125   44.9823 H   0  0  0  0  0  0  0  0  0  0  0  0
   52.3563   26.6050   43.2797 H   0  0  0  0  0  0  0  0  0  0  0  0
  1  2  1  0
  2  3  1  0
  4  3  1  0
  5 16  1  0
  5  1  1  0
  5  4  1  0
  6  1  1  0
  7  6  2  0
  7 12  1  0
  8  7  1  0
  9  8  2  0
  9 10  1  0
 10 11  2  0
 11  6  1  0
 12 14  1  0
 13 12  1  0
 15 12  1  0
 16 17  2  0
 18 17  1  0
 19 18  2  0
 20 19  1  0
 20 16  1  0
 21 26  1  0
 21 19  1  0
 22 21  1  0
 23 22  2  0
 23 24  1  0
 24 25  1  0
 26 25  1  0
  2 27  1  0
  2 28  1  0
  3 29  1  0
  3 30  1  0
  4 31  1  0
  4 32  1  0
  5 33  1  6
  8 34  1  0
 10 35  1  0
 17 36  1  0
 18 37  1  0
 22 38  1  0
 23 39  1  0
 25 40  1  0
 25 41  1  0
 26 42  1  0
 26 43  1  0
M  ISO  8  27  13  28  13  29  13  30  13  31  13  32  13  33  13  34  14
M  ISO  8  35  14  36  14  37  14  38  13  39  13  40  13  41  13  42  13
M  ISO  1  43  13
M  END
>  <minimizedAffinity>  (1) 
-4.11552954

>  <minimizedRMSD>  (1) 
0.237192214

$$$$
