
     RDKit          3D

 44 46  0  0  1  0  0  0  0  0999 V2000
   47.2120   32.4990   44.6830 N   0  0  0  0  0  0  0  0  0  0  0  0
   47.0960   32.4450   46.1100 C   0  0  0  0  0  0  0  0  0  0  0  0
   45.8360   31.6930   46.2770 C   0  0  0  0  0  0  0  0  0  0  0  0
   45.8580   30.6970   45.1700 C   0  0  0  0  0  0  0  0  0  0  0  0
   47.0590   31.0690   44.3390 C   0  0  2  0  0  0  0  0  0  0  0  0
   47.4080   33.5170   43.6870 C   0  0  0  0  0  0  0  0  0  0  0  0
   46.3820   34.3560   43.2280 C   0  0  0  0  0  0  0  0  0  0  0  0
   46.7000   35.3050   42.2560 C   0  0  0  0  0  0  0  0  0  0  0  0
   47.9630   35.3560   41.8210 N   0  0  0  0  0  0  0  0  0  0  0  0
   48.9240   34.5390   42.2800 C   0  0  0  0  0  0  0  0  0  0  0  0
   48.6410   33.6190   43.2160 N   0  0  0  0  0  0  0  0  0  0  0  0
   45.0230   34.1530   43.8260 C   0  0  0  0  0  0  0  0  0  0  0  0
   44.1170   35.0210   43.1950 F   0  0  0  0  0  0  0  0  0  0  0  0
   44.9960   34.4630   45.1330 F   0  0  0  0  0  0  0  0  0  0  0  0
   44.5090   32.9410   43.5430 F   0  0  0  0  0  0  0  0  0  0  0  0
   48.2360   30.2700   44.6120 C   0  0  0  0  0  0  0  0  0  0  0  0
   48.6370   29.4990   45.6520 C   0  0  0  0  0  0  0  0  0  0  0  0
   49.8150   28.8610   45.6250 C   0  0  0  0  0  0  0  0  0  0  0  0
   50.6050   29.0350   44.4680 C   0  0  0  0  0  0  0  0  0  0  0  0
   49.5430   30.1750   43.4270 S   0  0  0  0  0  0  0  0  0  0  0  0
   51.9120   28.4940   44.1220 C   0  0  0  0  0  0  0  0  0  0  0  0
   51.8290   27.8330   42.7720 C   0  0  0  0  0  0  0  0  0  0  0  0
   52.3520   27.5430   45.2090 C   0  0  0  0  0  0  0  0  0  0  0  0
   52.8990   29.6330   44.0560 C   0  0  0  0  0  0  0  0  0  0  0  0
   47.9450   31.9112   46.5619 H   0  0  0  0  0  0  0  0  0  0  0  0
   47.0964   33.4314   46.5968 H   0  0  0  0  0  0  0  0  0  0  0  0
   45.8083   31.1896   47.2547 H   0  0  0  0  0  0  0  0  0  0  0  0
   44.9489   32.3426   46.2429 H   0  0  0  0  0  0  0  0  0  0  0  0
   45.9638   29.6773   45.5687 H   0  0  0  0  0  0  0  0  0  0  0  0
   44.9278   30.7091   44.5829 H   0  0  0  0  0  0  0  0  0  0  0  0
   46.9272   30.8824   43.2630 H   0  0  0  0  0  0  0  0  0  0  0  0
   45.9355   35.9897   41.8601 H   0  0  0  0  0  0  0  0  0  0  0  0
   49.9481   34.6236   41.8875 H   0  0  0  0  0  0  0  0  0  0  0  0
   47.9852   29.3954   46.5320 H   0  0  0  0  0  0  0  0  0  0  0  0
   50.1501   28.2325   46.4633 H   0  0  0  0  0  0  0  0  0  0  0  0
   51.6929   26.7492   42.9021 H   0  0  0  0  0  0  0  0  0  0  0  0
   50.9756   28.2453   42.2137 H   0  0  0  0  0  0  0  0  0  0  0  0
   52.7579   28.0215   42.2137 H   0  0  0  0  0  0  0  0  0  0  0  0
   52.1453   27.9897   46.1927 H   0  0  0  0  0  0  0  0  0  0  0  0
   51.8005   26.5961   45.1131 H   0  0  0  0  0  0  0  0  0  0  0  0
   53.4307   27.3504   45.1131 H   0  0  0  0  0  0  0  0  0  0  0  0
   53.1686   29.9441   45.0761 H   0  0  0  0  0  0  0  0  0  0  0  0
   53.8028   29.3045   43.5219 H   0  0  0  0  0  0  0  0  0  0  0  0
   52.4453   30.4809   43.5219 H   0  0  0  0  0  0  0  0  0  0  0  0
  1  2  1  0
  2  3  1  0
  4  3  1  0
  5 16  1  0
  5  1  1  0
  5  4  1  0
  6  1  1  0
  7  6  2  0
  7 12  1  0
  8  7  1  0
  9  8  2  0
  9 10  1  0
 10 11  2  0
 11  6  1  0
 12 14  1  0
 13 12  1  0
 15 12  1  0
 16 17  2  0
 18 17  1  0
 19 18  2  0
 20 19  1  0
 20 16  1  0
 21 19  1  0
 21 23  1  0
 22 21  1  0
 24 21  1  0
  2 25  1  0
  2 26  1  0
  3 27  1  0
  3 28  1  0
  4 29  1  0
  4 30  1  0
  5 31  1  6
  8 32  1  0
 10 33  1  0
 17 34  1  0
 18 35  1  0
 22 36  1  0
 22 37  1  0
 22 38  1  0
 23 39  1  0
 23 40  1  0
 23 41  1  0
 24 42  1  0
 24 43  1  0
 24 44  1  0
M  ISO  8  25  13  26  13  27  13  28  13  29  13  30  13  31  13  32  14
M  ISO  8  33  14  34  14  35  14  36   8  37   8  38   8  39   8  40   8
M  ISO  4  41   8  42   8  43   8  44   8
M  END
>  <minimizedAffinity>  (1) 
-4.06183958

>  <minimizedRMSD>  (1) 
0.186363667

$$$$
