
     RDKit          3D

 44 47  0  0  1  0  0  0  0  0999 V2000
   47.2280   32.4650   44.6190 N   0  0  0  0  0  0  0  0  0  0  0  0
   47.1140   32.3640   46.0490 C   0  0  0  0  0  0  0  0  0  0  0  0
   45.8550   31.6010   46.1860 C   0  0  0  0  0  0  0  0  0  0  0  0
   45.8940   30.6330   45.0630 C   0  0  0  0  0  0  0  0  0  0  0  0
   47.0840   31.0480   44.2360 C   0  0  2  0  0  0  0  0  0  0  0  0
   47.4160   33.5090   43.6490 C   0  0  0  0  0  0  0  0  0  0  0  0
   46.3820   34.3540   43.2110 C   0  0  0  0  0  0  0  0  0  0  0  0
   46.6960   35.3260   42.2640 C   0  0  0  0  0  0  0  0  0  0  0  0
   47.9490   35.3950   41.8330 N   0  0  0  0  0  0  0  0  0  0  0  0
   48.9160   34.5790   42.2660 C   0  0  0  0  0  0  0  0  0  0  0  0
   48.6460   33.6310   43.1800 N   0  0  0  0  0  0  0  0  0  0  0  0
   45.0270   34.1290   43.8110 C   0  0  0  0  0  0  0  0  0  0  0  0
   44.1190   35.0170   43.2180 F   0  0  0  0  0  0  0  0  0  0  0  0
   45.0000   34.4130   45.1290 F   0  0  0  0  0  0  0  0  0  0  0  0
   44.5170   32.9250   43.5100 F   0  0  0  0  0  0  0  0  0  0  0  0
   48.2690   30.2440   44.5080 C   0  0  0  0  0  0  0  0  0  0  0  0
   48.6660   29.4190   45.4990 C   0  0  0  0  0  0  0  0  0  0  0  0
   49.8590   28.8130   45.4470 C   0  0  0  0  0  0  0  0  0  0  0  0
   50.6710   29.0710   44.3270 C   0  0  0  0  0  0  0  0  0  0  0  0
   49.6110   30.2530   43.3370 S   0  0  0  0  0  0  0  0  0  0  0  0
   51.9070   28.7060   43.8180 N   0  0  0  0  0  0  0  0  0  0  0  0
   53.1220   29.5020   43.8930 C   0  0  0  0  0  0  0  0  0  0  0  0
   54.1330   28.7970   43.0250 C   0  0  0  0  0  0  0  0  0  0  0  0
   53.6760   27.3700   42.9460 C   0  0  0  0  0  0  0  0  0  0  0  0
   52.1960   27.4640   43.1010 C   0  0  0  0  0  0  0  0  0  0  0  0
   47.9648   31.8185   46.4833 H   0  0  0  0  0  0  0  0  0  0  0  0
   47.1128   33.3326   46.5704 H   0  0  0  0  0  0  0  0  0  0  0  0
   45.8195   31.0767   47.1523 H   0  0  0  0  0  0  0  0  0  0  0  0
   44.9649   32.2466   46.1559 H   0  0  0  0  0  0  0  0  0  0  0  0
   46.0230   29.6077   45.4399 H   0  0  0  0  0  0  0  0  0  0  0  0
   44.9617   30.6374   44.4793 H   0  0  0  0  0  0  0  0  0  0  0  0
   46.9522   30.9024   43.1537 H   0  0  0  0  0  0  0  0  0  0  0  0
   45.9279   36.0160   41.8847 H   0  0  0  0  0  0  0  0  0  0  0  0
   49.9377   34.6841   41.8722 H   0  0  0  0  0  0  0  0  0  0  0  0
   48.0028   29.2423   46.3586 H   0  0  0  0  0  0  0  0  0  0  0  0
   50.1919   28.1387   46.2498 H   0  0  0  0  0  0  0  0  0  0  0  0
   52.9370   30.5187   43.5161 H   0  0  0  0  0  0  0  0  0  0  0  0
   53.4776   29.5989   44.9294 H   0  0  0  0  0  0  0  0  0  0  0  0
   54.1579   29.2478   42.0219 H   0  0  0  0  0  0  0  0  0  0  0  0
   55.1489   28.8755   43.4396 H   0  0  0  0  0  0  0  0  0  0  0  0
   53.9414   26.9263   41.9751 H   0  0  0  0  0  0  0  0  0  0  0  0
   54.1446   26.7294   43.7076 H   0  0  0  0  0  0  0  0  0  0  0  0
   51.7151   27.4808   42.1118 H   0  0  0  0  0  0  0  0  0  0  0  0
   51.8087   26.5970   43.6563 H   0  0  0  0  0  0  0  0  0  0  0  0
  1  2  1  0
  2  3  1  0
  4  3  1  0
  5 16  1  0
  5  1  1  0
  5  4  1  0
  6  1  1  0
  7  6  2  0
  7 12  1  0
  8  7  1  0
  9  8  2  0
  9 10  1  0
 10 11  2  0
 11  6  1  0
 12 14  1  0
 13 12  1  0
 15 12  1  0
 16 17  2  0
 18 17  1  0
 19 18  2  0
 20 19  1  0
 20 16  1  0
 21 22  1  0
 21 19  1  0
 23 22  1  0
 24 23  1  0
 24 25  1  0
 25 21  1  0
  2 26  1  0
  2 27  1  0
  3 28  1  0
  3 29  1  0
  4 30  1  0
  4 31  1  0
  5 32  1  6
  8 33  1  0
 10 34  1  0
 17 35  1  0
 18 36  1  0
 22 37  1  0
 22 38  1  0
 23 39  1  0
 23 40  1  0
 24 41  1  0
 24 42  1  0
 25 43  1  0
 25 44  1  0
M  ISO  8  26  13  27  13  28  13  29  13  30  13  31  13  32  13  33  14
M  ISO  8  34  14  35  14  36  14  37  13  38  13  39  13  40  13  41  13
M  ISO  3  42  13  43  13  44  13
M  END
>  <minimizedAffinity>  (1) 
-4.05102539

>  <minimizedRMSD>  (1) 
0.190578535

$$$$
