
     RDKit          3D

 39 42  0  0  1  0  0  0  0  0999 V2000
   47.2230   32.4640   44.6310 N   0  0  0  0  0  0  0  0  0  0  0  0
   47.1060   32.3780   46.0570 C   0  0  0  0  0  0  0  0  0  0  0  0
   45.8410   31.6190   46.2030 C   0  0  0  0  0  0  0  0  0  0  0  0
   45.8810   30.6440   45.0780 C   0  0  0  0  0  0  0  0  0  0  0  0
   47.0730   31.0430   44.2530 C   0  0  2  0  0  0  0  0  0  0  0  0
   47.4170   33.5060   43.6570 C   0  0  0  0  0  0  0  0  0  0  0  0
   46.3870   34.3510   43.2140 C   0  0  0  0  0  0  0  0  0  0  0  0
   46.7100   35.3160   42.2580 C   0  0  0  0  0  0  0  0  0  0  0  0
   47.9710   35.3730   41.8300 N   0  0  0  0  0  0  0  0  0  0  0  0
   48.9260   34.5610   42.2660 C   0  0  0  0  0  0  0  0  0  0  0  0
   48.6490   33.6190   43.1870 N   0  0  0  0  0  0  0  0  0  0  0  0
   45.0320   34.1320   43.8150 C   0  0  0  0  0  0  0  0  0  0  0  0
   44.1300   35.0250   43.2160 F   0  0  0  0  0  0  0  0  0  0  0  0
   45.0050   34.4280   45.1240 F   0  0  0  0  0  0  0  0  0  0  0  0
   44.5160   32.9350   43.5170 F   0  0  0  0  0  0  0  0  0  0  0  0
   48.2620   30.2410   44.5190 C   0  0  0  0  0  0  0  0  0  0  0  0
   48.6670   29.4390   45.5220 C   0  0  0  0  0  0  0  0  0  0  0  0
   49.8550   28.8110   45.4980 C   0  0  0  0  0  0  0  0  0  0  0  0
   50.6420   29.0450   44.3660 C   0  0  0  0  0  0  0  0  0  0  0  0
   49.5920   30.2020   43.3550 S   0  0  0  0  0  0  0  0  0  0  0  0
   51.9270   28.5700   43.9880 C   0  0  0  0  0  0  0  0  0  0  0  0
   52.3330   27.4520   43.2790 C   0  0  0  0  0  0  0  0  0  0  0  0
   53.6660   27.2860   43.0860 C   0  0  0  0  0  0  0  0  0  0  0  0
   54.6260   28.3420   43.6620 C   0  0  0  0  0  0  0  0  0  0  0  0
   53.3690   29.5130   44.4630 S   0  0  0  0  0  0  0  0  0  0  0  0
   47.9544   31.8341   46.4980 H   0  0  0  0  0  0  0  0  0  0  0  0
   47.1064   33.3525   46.5672 H   0  0  0  0  0  0  0  0  0  0  0  0
   45.8055   31.0988   47.1716 H   0  0  0  0  0  0  0  0  0  0  0  0
   44.9512   32.2651   46.1751 H   0  0  0  0  0  0  0  0  0  0  0  0
   46.0015   29.6194   45.4596 H   0  0  0  0  0  0  0  0  0  0  0  0
   44.9514   30.6561   44.4901 H   0  0  0  0  0  0  0  0  0  0  0  0
   46.9375   30.8830   43.1732 H   0  0  0  0  0  0  0  0  0  0  0  0
   45.9476   36.0076   41.8702 H   0  0  0  0  0  0  0  0  0  0  0  0
   49.9488   34.6582   41.8729 H   0  0  0  0  0  0  0  0  0  0  0  0
   48.0048   29.2933   46.3881 H   0  0  0  0  0  0  0  0  0  0  0  0
   50.1870   28.1551   46.3163 H   0  0  0  0  0  0  0  0  0  0  0  0
   51.6039   26.7272   42.8877 H   0  0  0  0  0  0  0  0  0  0  0  0
   54.0510   26.4176   42.5313 H   0  0  0  0  0  0  0  0  0  0  0  0
   55.7237   28.4003   43.6208 H   0  0  0  0  0  0  0  0  0  0  0  0
  1  2  1  0
  2  3  1  0
  4  3  1  0
  5 16  1  0
  5  1  1  0
  5  4  1  0
  6  1  1  0
  7  6  2  0
  7 12  1  0
  8  7  1  0
  9  8  2  0
  9 10  1  0
 10 11  2  0
 11  6  1  0
 12 14  1  0
 13 12  1  0
 15 12  1  0
 16 17  2  0
 18 17  1  0
 19 18  2  0
 20 19  1  0
 20 16  1  0
 21 19  1  0
 21 25  1  0
 22 21  2  0
 23 22  1  0
 23 24  2  0
 24 25  1  0
  2 26  1  0
  2 27  1  0
  3 28  1  0
  3 29  1  0
  4 30  1  0
  4 31  1  0
  5 32  1  6
  8 33  1  0
 10 34  1  0
 17 35  1  0
 18 36  1  0
 22 37  1  0
 23 38  1  0
 24 39  1  0
M  ISO  8  26  13  27  13  28  13  29  13  30  13  31  13  32  13  33  14
M  ISO  6  34  14  35  14  36  14  37  14  38  14  39  14
M  END
>  <minimizedAffinity>  (1) 
-4.04204035

>  <minimizedRMSD>  (1) 
0.129404292

$$$$
