
     RDKit          3D

 38 41  0  0  1  0  0  0  0  0999 V2000
   47.2320   32.4610   44.6070 N   0  0  0  0  0  0  0  0  0  0  0  0
   47.1210   32.3620   46.0320 C   0  0  0  0  0  0  0  0  0  0  0  0
   45.8600   31.5890   46.1730 C   0  0  0  0  0  0  0  0  0  0  0  0
   45.9040   30.6260   45.0390 C   0  0  0  0  0  0  0  0  0  0  0  0
   47.0910   31.0440   44.2130 C   0  0  2  0  0  0  0  0  0  0  0  0
   47.4150   33.5120   43.6430 C   0  0  0  0  0  0  0  0  0  0  0  0
   46.3750   34.3610   43.2130 C   0  0  0  0  0  0  0  0  0  0  0  0
   46.6870   35.3390   42.2690 C   0  0  0  0  0  0  0  0  0  0  0  0
   47.9410   35.4140   41.8320 N   0  0  0  0  0  0  0  0  0  0  0  0
   48.9090   34.5960   42.2560 C   0  0  0  0  0  0  0  0  0  0  0  0
   48.6420   33.6400   43.1670 N   0  0  0  0  0  0  0  0  0  0  0  0
   45.0260   34.1230   43.8180 C   0  0  0  0  0  0  0  0  0  0  0  0
   44.1100   35.0070   43.2100 F   0  0  0  0  0  0  0  0  0  0  0  0
   45.0020   34.4030   45.1310 F   0  0  0  0  0  0  0  0  0  0  0  0
   44.5180   32.9220   43.5020 F   0  0  0  0  0  0  0  0  0  0  0  0
   48.2810   30.2480   44.4680 C   0  0  0  0  0  0  0  0  0  0  0  0
   48.6810   29.4140   45.4520 C   0  0  0  0  0  0  0  0  0  0  0  0
   49.8810   28.8070   45.4220 C   0  0  0  0  0  0  0  0  0  0  0  0
   50.6880   29.0940   44.3080 C   0  0  0  0  0  0  0  0  0  0  0  0
   49.6280   30.2740   43.3220 S   0  0  0  0  0  0  0  0  0  0  0  0
   52.0080   28.6640   43.9040 C   0  0  0  0  0  0  0  0  0  0  0  0
   52.3040   27.2700   44.0210 C   0  0  0  0  0  0  0  0  0  0  0  0
   54.0620   27.2530   43.3950 S   0  0  0  0  0  0  0  0  0  0  0  0
   54.0150   29.1250   43.1110 C   0  0  0  0  0  0  0  0  0  0  0  0
   52.9730   29.4370   43.4350 N   0  0  0  0  0  0  0  0  0  0  0  0
   47.9752   31.8215   46.4658 H   0  0  0  0  0  0  0  0  0  0  0  0
   47.1155   33.3314   46.5518 H   0  0  0  0  0  0  0  0  0  0  0  0
   45.8313   31.0587   47.1363 H   0  0  0  0  0  0  0  0  0  0  0  0
   44.9651   32.2284   46.1531 H   0  0  0  0  0  0  0  0  0  0  0  0
   46.0346   29.5987   45.4100 H   0  0  0  0  0  0  0  0  0  0  0  0
   44.9721   30.6358   44.4546 H   0  0  0  0  0  0  0  0  0  0  0  0
   46.9543   30.8977   43.1314 H   0  0  0  0  0  0  0  0  0  0  0  0
   45.9166   36.0299   41.8958 H   0  0  0  0  0  0  0  0  0  0  0  0
   49.9292   34.7038   41.8591 H   0  0  0  0  0  0  0  0  0  0  0  0
   48.0073   29.2260   46.3010 H   0  0  0  0  0  0  0  0  0  0  0  0
   50.2107   28.1270   46.2213 H   0  0  0  0  0  0  0  0  0  0  0  0
   51.6740   26.4422   44.3786 H   0  0  0  0  0  0  0  0  0  0  0  0
   54.8182   29.7665   42.7195 H   0  0  0  0  0  0  0  0  0  0  0  0
  1  2  1  0
  2  3  1  0
  4  3  1  0
  5 16  1  0
  5  1  1  0
  5  4  1  0
  6  1  1  0
  7  6  2  0
  7 12  1  0
  8  7  1  0
  9 10  1  0
  9  8  2  0
 10 11  2  0
 11  6  1  0
 12 14  1  0
 13 12  1  0
 15 12  1  0
 16 17  2  0
 18 17  1  0
 19 18  2  0
 20 19  1  0
 20 16  1  0
 21 22  2  0
 21 19  1  0
 23 22  1  0
 24 23  1  0
 24 25  2  0
 25 21  1  0
  2 26  1  0
  2 27  1  0
  3 28  1  0
  3 29  1  0
  4 30  1  0
  4 31  1  0
  5 32  1  6
  8 33  1  0
 10 34  1  0
 17 35  1  0
 18 36  1  0
 22 37  1  0
 24 38  1  0
M  ISO  8  26  13  27  13  28  13  29  13  30  13  31  13  32  13  33  14
M  ISO  5  34  14  35  14  36  14  37  14  38  14
M  END
>  <minimizedAffinity>  (1) 
-4.04438066

>  <minimizedRMSD>  (1) 
0.216557577

$$$$
