
     RDKit          3D

 33 35  0  0  1  0  0  0  0  0999 V2000
   47.2190   32.4870   44.6900 N   0  0  0  0  0  0  0  0  0  0  0  0
   47.1120   32.4270   46.1170 C   0  0  0  0  0  0  0  0  0  0  0  0
   45.8470   31.6890   46.2920 C   0  0  0  0  0  0  0  0  0  0  0  0
   45.8550   30.6940   45.1830 C   0  0  0  0  0  0  0  0  0  0  0  0
   47.0540   31.0590   44.3440 C   0  0  2  0  0  0  0  0  0  0  0  0
   47.4170   33.5060   43.6940 C   0  0  0  0  0  0  0  0  0  0  0  0
   46.3940   34.3450   43.2350 C   0  0  0  0  0  0  0  0  0  0  0  0
   46.7110   35.2930   42.2600 C   0  0  0  0  0  0  0  0  0  0  0  0
   47.9740   35.3380   41.8280 N   0  0  0  0  0  0  0  0  0  0  0  0
   48.9310   34.5280   42.2820 C   0  0  0  0  0  0  0  0  0  0  0  0
   48.6490   33.6070   43.2210 N   0  0  0  0  0  0  0  0  0  0  0  0
   45.0360   34.1440   43.8370 C   0  0  0  0  0  0  0  0  0  0  0  0
   44.1400   35.0260   43.2110 F   0  0  0  0  0  0  0  0  0  0  0  0
   45.0140   34.4680   45.1460 F   0  0  0  0  0  0  0  0  0  0  0  0
   44.5160   32.9420   43.5600 F   0  0  0  0  0  0  0  0  0  0  0  0
   48.2280   30.2480   44.6070 C   0  0  0  0  0  0  0  0  0  0  0  0
   48.6440   29.5030   45.6590 C   0  0  0  0  0  0  0  0  0  0  0  0
   49.8130   28.8490   45.6190 C   0  0  0  0  0  0  0  0  0  0  0  0
   50.5740   28.9810   44.4380 C   0  0  0  0  0  0  0  0  0  0  0  0
   49.4990   30.1050   43.3900 S   0  0  0  0  0  0  0  0  0  0  0  0
   52.1550   28.3070   43.9480 S   0  0  0  0  0  0  0  0  0  0  0  0
   47.9586   31.8820   46.5599 H   0  0  0  0  0  0  0  0  0  0  0  0
   47.1257   33.4116   46.6073 H   0  0  0  0  0  0  0  0  0  0  0  0
   45.8201   31.1851   47.2694 H   0  0  0  0  0  0  0  0  0  0  0  0
   44.9656   32.3465   46.2651 H   0  0  0  0  0  0  0  0  0  0  0  0
   45.9563   29.6730   45.5796 H   0  0  0  0  0  0  0  0  0  0  0  0
   44.9212   30.7135   44.6020 H   0  0  0  0  0  0  0  0  0  0  0  0
   46.9147   30.8765   43.2682 H   0  0  0  0  0  0  0  0  0  0  0  0
   45.9479   35.9781   41.8620 H   0  0  0  0  0  0  0  0  0  0  0  0
   49.9543   34.6132   41.8874 H   0  0  0  0  0  0  0  0  0  0  0  0
   48.0139   29.4339   46.5580 H   0  0  0  0  0  0  0  0  0  0  0  0
   50.1622   28.2392   46.4653 H   0  0  0  0  0  0  0  0  0  0  0  0
   52.8848   27.9959   45.0649 H   0  0  0  0  0  0  0  0  0  0  0  0
  1  2  1  0
  2  3  1  0
  4  3  1  0
  5 16  1  0
  5  1  1  0
  5  4  1  0
  6  1  1  0
  7  6  2  0
  7 12  1  0
  8  7  1  0
  9  8  2  0
  9 10  1  0
 10 11  2  0
 11  6  1  0
 12 14  1  0
 13 12  1  0
 15 12  1  0
 16 17  2  0
 18 17  1  0
 19 18  2  0
 20 19  1  0
 20 16  1  0
 21 19  1  0
  2 22  1  0
  2 23  1  0
  3 24  1  0
  3 25  1  0
  4 26  1  0
  4 27  1  0
  5 28  1  6
  8 29  1  0
 10 30  1  0
 17 31  1  0
 18 32  1  0
 21 33  1  0
M  ISO  8  22  13  23  13  24  13  25  13  26  13  27  13  28  13  29  14
M  ISO  4  30  14  31  14  32  14  33  11
M  END
>  <minimizedAffinity>  (1) 
-4.03571892

>  <minimizedRMSD>  (1) 
0.0143153686

$$$$
