
     RDKit          3D

 29 31  0  0  0  0  0  0  0  0999 V2000
   46.0510   34.7530   43.4750 C   0  0  0  0  0  0  0  0  0  0  0  0
   46.3920   33.7340   44.3520 C   0  0  0  0  0  0  0  0  0  0  0  0
   45.8280   33.6070   45.6020 C   0  0  0  0  0  0  0  0  0  0  0  0
   44.9170   34.5600   45.8860 N   0  0  0  0  0  0  0  0  0  0  0  0
   44.5630   35.5580   45.0640 C   0  0  0  0  0  0  0  0  0  0  0  0
   45.1350   35.6480   43.8610 N   0  0  0  0  0  0  0  0  0  0  0  0
   45.9900   32.6020   46.6130 C   0  0  0  0  0  0  0  0  0  0  0  0
   45.3580   32.8310   47.8460 C   0  0  0  0  0  0  0  0  0  0  0  0
   45.4060   31.9920   48.9330 C   0  0  0  0  0  0  0  0  0  0  0  0
   46.1250   30.8280   48.8330 C   0  0  0  0  0  0  0  0  0  0  0  0
   46.7790   30.5260   47.6580 C   0  0  0  0  0  0  0  0  0  0  0  0
   47.5330   29.3770   47.5580 C   0  0  0  0  0  0  0  0  0  0  0  0
   48.2380   29.0530   46.4080 C   0  0  0  0  0  0  0  0  0  0  0  0
   48.1360   29.9700   45.3570 C   0  0  0  0  0  0  0  0  0  0  0  0
   47.3750   31.1030   45.4980 C   0  0  0  0  0  0  0  0  0  0  0  0
   46.6760   31.4210   46.6270 C   0  0  0  0  0  0  0  0  0  0  0  0
   46.7170   34.8020   42.1580 C   0  0  0  0  0  0  0  0  0  0  0  0
   47.1444   32.9964   44.0359 H   0  0  0  0  0  0  0  0  0  0  0  0
   43.8091   36.2951   45.3774 H   0  0  0  0  0  0  0  0  0  0  0  0
   44.7764   33.7588   47.9502 H   0  0  0  0  0  0  0  0  0  0  0  0
   44.8790   32.2483   49.8639 H   0  0  0  0  0  0  0  0  0  0  0  0
   46.1794   30.1379   49.6879 H   0  0  0  0  0  0  0  0  0  0  0  0
   47.5774   28.6937   48.4189 H   0  0  0  0  0  0  0  0  0  0  0  0
   48.8382   28.1346   46.3280 H   0  0  0  0  0  0  0  0  0  0  0  0
   48.6683   29.7821   44.4129 H   0  0  0  0  0  0  0  0  0  0  0  0
   47.3249   31.7991   44.6478 H   0  0  0  0  0  0  0  0  0  0  0  0
   47.8049   34.8820   42.3000 H   0  0  0  0  0  0  0  0  0  0  0  0
   46.4870   33.8845   41.5965 H   0  0  0  0  0  0  0  0  0  0  0  0
   46.3552   35.6760   41.5965 H   0  0  0  0  0  0  0  0  0  0  0  0
  1  6  2  0
  1  2  1  0
  2  3  2  0
  3  4  1  0
  3  7  1  0
  5  4  2  0
  6  5  1  0
  7 16  1  0
  7  8  2  0
  8  9  1  0
 10  9  2  0
 11 10  1  0
 12 11  2  0
 13 12  1  0
 14 15  1  0
 14 13  2  0
 15 16  2  0
 16 11  1  0
 17  1  1  0
  2 18  1  0
  5 19  1  0
  8 20  1  0
  9 21  1  0
 10 22  1  0
 12 23  1  0
 13 24  1  0
 14 25  1  0
 15 26  1  0
 17 27  1  0
 17 28  1  0
 17 29  1  0
M  ISO  8  18  14  19  14  20  14  21  14  22  14  23  14  24  14  25  14
M  ISO  4  26  14  27   8  28   8  29   8
M  END
>  <minimizedAffinity>  (1) 
-5.55633068

>  <minimizedRMSD>  (1) 
0.838539481

$$$$
