
     RDKit          3D

 37 40  0  0  1  0  0  0  0  0999 V2000
   47.2310   32.4630   44.6010 N   0  0  0  0  0  0  0  0  0  0  0  0
   47.1210   32.3640   46.0260 C   0  0  0  0  0  0  0  0  0  0  0  0
   45.8620   31.5870   46.1670 C   0  0  0  0  0  0  0  0  0  0  0  0
   45.9020   30.6260   45.0330 C   0  0  0  0  0  0  0  0  0  0  0  0
   47.0930   31.0450   44.2110 C   0  0  2  0  0  0  0  0  0  0  0  0
   47.4140   33.5150   43.6400 C   0  0  0  0  0  0  0  0  0  0  0  0
   46.3720   34.3610   43.2100 C   0  0  0  0  0  0  0  0  0  0  0  0
   46.6840   35.3410   42.2670 C   0  0  0  0  0  0  0  0  0  0  0  0
   47.9390   35.4160   41.8340 N   0  0  0  0  0  0  0  0  0  0  0  0
   48.9070   34.6030   42.2560 C   0  0  0  0  0  0  0  0  0  0  0  0
   48.6420   33.6460   43.1660 N   0  0  0  0  0  0  0  0  0  0  0  0
   45.0220   34.1230   43.8140 C   0  0  0  0  0  0  0  0  0  0  0  0
   44.1150   35.0130   43.2160 F   0  0  0  0  0  0  0  0  0  0  0  0
   44.9960   34.4010   45.1280 F   0  0  0  0  0  0  0  0  0  0  0  0
   44.5160   32.9250   43.5020 F   0  0  0  0  0  0  0  0  0  0  0  0
   48.2860   30.2500   44.4610 C   0  0  0  0  0  0  0  0  0  0  0  0
   48.6860   29.4180   45.4510 C   0  0  0  0  0  0  0  0  0  0  0  0
   49.8820   28.8120   45.4210 C   0  0  0  0  0  0  0  0  0  0  0  0
   50.6910   29.0960   44.3020 C   0  0  0  0  0  0  0  0  0  0  0  0
   49.6240   30.2790   43.3080 S   0  0  0  0  0  0  0  0  0  0  0  0
   52.0240   28.6240   43.9470 C   0  0  0  0  0  0  0  0  0  0  0  0
   52.9170   29.2710   43.1750 N   0  0  0  0  0  0  0  0  0  0  0  0
   53.9910   28.5420   43.0830 O   0  0  0  0  0  0  0  0  0  0  0  0
   53.8540   27.4140   43.7710 C   0  0  0  0  0  0  0  0  0  0  0  0
   52.6210   27.4780   44.3040 N   0  0  0  0  0  0  0  0  0  0  0  0
   47.9770   31.8262   46.4597 H   0  0  0  0  0  0  0  0  0  0  0  0
   47.1130   33.3334   46.5459 H   0  0  0  0  0  0  0  0  0  0  0  0
   45.8369   31.0549   47.1294 H   0  0  0  0  0  0  0  0  0  0  0  0
   44.9666   32.2257   46.1487 H   0  0  0  0  0  0  0  0  0  0  0  0
   46.0289   29.5974   45.4018 H   0  0  0  0  0  0  0  0  0  0  0  0
   44.9706   30.6373   44.4479 H   0  0  0  0  0  0  0  0  0  0  0  0
   46.9578   30.8956   43.1296 H   0  0  0  0  0  0  0  0  0  0  0  0
   45.9140   36.0316   41.8926 H   0  0  0  0  0  0  0  0  0  0  0  0
   49.9270   34.7140   41.8594 H   0  0  0  0  0  0  0  0  0  0  0  0
   48.0131   29.2343   46.3016 H   0  0  0  0  0  0  0  0  0  0  0  0
   50.2120   28.1338   46.2217 H   0  0  0  0  0  0  0  0  0  0  0  0
   54.5895   26.6035   43.8809 H   0  0  0  0  0  0  0  0  0  0  0  0
  1  2  1  0
  2  3  1  0
  4  3  1  0
  5 16  1  0
  5  1  1  0
  5  4  1  0
  6  1  1  0
  7  6  2  0
  7 12  1  0
  8  7  1  0
  9 10  1  0
  9  8  2  0
 10 11  2  0
 11  6  1  0
 12 14  1  0
 13 12  1  0
 15 12  1  0
 16 17  2  0
 18 17  1  0
 19 18  2  0
 20 19  1  0
 20 16  1  0
 21 19  1  0
 21 25  1  0
 22 21  2  0
 23 22  1  0
 23 24  1  0
 24 25  2  0
  2 26  1  0
  2 27  1  0
  3 28  1  0
  3 29  1  0
  4 30  1  0
  4 31  1  0
  5 32  1  6
  8 33  1  0
 10 34  1  0
 17 35  1  0
 18 36  1  0
 24 37  1  0
M  ISO  8  26  13  27  13  28  13  29  13  30  13  31  13  32  13  33  14
M  ISO  4  34  14  35  14  36  14  37  14
M  END
>  <minimizedAffinity>  (1) 
-4.01554298

>  <minimizedRMSD>  (1) 
0.214583606

$$$$
