
     RDKit          3D

 27 29  0  0  0  0  0  0  0  0999 V2000
   46.1090   34.8790   43.2850 C   0  0  0  0  0  0  0  0  0  0  0  0
   46.2500   33.9530   44.3080 C   0  0  0  0  0  0  0  0  0  0  0  0
   45.5250   34.0370   45.4880 C   0  0  0  0  0  0  0  0  0  0  0  0
   44.6970   35.0880   45.5230 N   0  0  0  0  0  0  0  0  0  0  0  0
   44.5330   35.9980   44.5630 C   0  0  0  0  0  0  0  0  0  0  0  0
   45.2450   35.8930   43.4330 N   0  0  0  0  0  0  0  0  0  0  0  0
   45.8110   32.9740   46.4400 C   0  0  0  0  0  0  0  0  0  0  0  0
   45.3350   32.9830   47.7070 N   0  0  0  0  0  0  0  0  0  0  0  0
   45.5760   32.0250   48.6070 C   0  0  0  0  0  0  0  0  0  0  0  0
   46.3300   30.9530   48.3140 N   0  0  0  0  0  0  0  0  0  0  0  0
   46.8440   30.8510   47.0960 C   0  0  0  0  0  0  0  0  0  0  0  0
   47.6160   29.7640   46.7780 C   0  0  0  0  0  0  0  0  0  0  0  0
   48.1710   29.6100   45.5380 C   0  0  0  0  0  0  0  0  0  0  0  0
   47.9160   30.6020   44.6180 C   0  0  0  0  0  0  0  0  0  0  0  0
   47.1380   31.6870   44.9530 C   0  0  0  0  0  0  0  0  0  0  0  0
   46.5730   31.8570   46.1960 C   0  0  0  0  0  0  0  0  0  0  0  0
   46.9280   34.6940   42.0730 C   0  0  0  0  0  0  0  0  0  0  0  0
   46.9610   33.1236   44.1794 H   0  0  0  0  0  0  0  0  0  0  0  0
   43.8211   36.8258   44.6970 H   0  0  0  0  0  0  0  0  0  0  0  0
   45.1452   32.1170   49.6149 H   0  0  0  0  0  0  0  0  0  0  0  0
   47.7942   28.9934   47.5424 H   0  0  0  0  0  0  0  0  0  0  0  0
   48.7908   28.7364   45.2877 H   0  0  0  0  0  0  0  0  0  0  0  0
   48.3382   30.5268   43.6051 H   0  0  0  0  0  0  0  0  0  0  0  0
   46.9589   32.4571   44.1883 H   0  0  0  0  0  0  0  0  0  0  0  0
   47.9632   34.4602   42.3622 H   0  0  0  0  0  0  0  0  0  0  0  0
   46.5180   33.8658   41.4763 H   0  0  0  0  0  0  0  0  0  0  0  0
   46.9138   35.6180   41.4763 H   0  0  0  0  0  0  0  0  0  0  0  0
  1  6  2  0
  1  2  1  0
  2  3  2  0
  3  4  1  0
  3  7  1  0
  5  4  2  0
  6  5  1  0
  7  8  2  0
  8  9  1  0
 10  9  2  0
 11 10  1  0
 12 11  2  0
 13 12  1  0
 14 15  1  0
 14 13  2  0
 15 16  2  0
 16  7  1  0
 16 11  1  0
 17  1  1  0
  2 18  1  0
  5 19  1  0
  9 20  1  0
 12 21  1  0
 13 22  1  0
 14 23  1  0
 15 24  1  0
 17 25  1  0
 17 26  1  0
 17 27  1  0
M  ISO  8  18  14  19  14  20  14  21  14  22  14  23  14  24  14  25   8
M  ISO  2  26   8  27   8
M  END
>  <minimizedAffinity>  (1) 
-5.32034445

>  <minimizedRMSD>  (1) 
0.584784508

$$$$
