
     RDKit          3D

 20 20  0  0  0  0  0  0  0  0999 V2000
   46.3670   34.9010   42.9090 C   0  0  0  0  0  0  0  0  0  0  0  0
   46.4370   33.9250   43.9040 C   0  0  0  0  0  0  0  0  0  0  0  0
   45.5950   34.0440   45.0110 C   0  0  0  0  0  0  0  0  0  0  0  0
   44.7450   35.0930   45.0790 N   0  0  0  0  0  0  0  0  0  0  0  0
   44.6940   36.0330   44.0960 C   0  0  0  0  0  0  0  0  0  0  0  0
   45.4940   35.9400   43.0230 N   0  0  0  0  0  0  0  0  0  0  0  0
   45.6050   33.0910   46.0680 N   0  0  0  0  0  0  0  0  0  0  0  0
   45.1040   33.4240   47.3500 C   0  0  0  0  0  0  0  0  0  0  0  0
   44.2310   34.3440   47.4850 N   0  0  0  0  0  0  0  0  0  0  0  0
   45.5290   32.7730   48.5230 N   0  0  0  0  0  0  0  0  0  0  0  0
   43.7840   34.6880   48.3400 H   0  0  0  0  0  0  0  0  0  0  0  0
   47.2600   34.7820   41.7310 C   0  0  0  0  0  0  0  0  0  0  0  0
   47.1387   33.0823   43.8180 H   0  0  0  0  0  0  0  0  0  0  0  0
   43.9916   36.8752   44.1819 H   0  0  0  0  0  0  0  0  0  0  0  0
   45.9813   32.1473   45.8984 H   0  0  0  0  0  0  0  0  0  0  0  0
   45.1375   33.0478   49.4352 H   0  0  0  0  0  0  0  0  0  0  0  0
   46.2316   32.0217   48.4693 H   0  0  0  0  0  0  0  0  0  0  0  0
   48.2974   34.6438   42.0698 H   0  0  0  0  0  0  0  0  0  0  0  0
   46.9539   33.9167   41.1247 H   0  0  0  0  0  0  0  0  0  0  0  0
   47.1911   35.6973   41.1247 H   0  0  0  0  0  0  0  0  0  0  0  0
  1  6  2  0
  1  2  1  0
  2  3  2  0
  3  4  1  0
  3  7  1  0
  5  4  2  0
  6  5  1  0
  7  8  1  0
  8  9  2  0
  8 10  1  0
  9 11  1  0
 12  1  1  0
  2 13  1  0
  5 14  1  0
  7 15  1  0
 10 16  1  0
 10 17  1  0
 12 18  1  0
 12 19  1  0
 12 20  1  0
M  ISO  5  13  14  14  14  18   8  19   8  20   8
M  END
>  <minimizedAffinity>  (1) 
-5.04056311

>  <minimizedRMSD>  (1) 
0.587844014

$$$$
