
     RDKit          3D

 26 28  0  0  0  0  0  0  0  0999 V2000
   46.0160   34.9530   43.2570 C   0  0  0  0  0  0  0  0  0  0  0  0
   46.2670   33.9250   44.1900 C   0  0  0  0  0  0  0  0  0  0  0  0
   45.5830   33.9780   45.4180 C   0  0  0  0  0  0  0  0  0  0  0  0
   44.7210   35.0050   45.6460 N   0  0  0  0  0  0  0  0  0  0  0  0
   44.5100   35.9780   44.7130 C   0  0  0  0  0  0  0  0  0  0  0  0
   45.1520   35.9530   43.5270 N   0  0  0  0  0  0  0  0  0  0  0  0
   45.7960   32.9640   46.4030 N   0  0  0  0  0  0  0  0  0  0  0  0
   45.3550   32.8240   47.6660 C   0  0  0  0  0  0  0  0  0  0  0  0
   45.8650   31.6620   48.1600 N   0  0  0  0  0  0  0  0  0  0  0  0
   46.6230   31.0770   47.2080 C   0  0  0  0  0  0  0  0  0  0  0  0
   47.3710   29.9090   47.1370 C   0  0  0  0  0  0  0  0  0  0  0  0
   48.0520   29.5500   46.0330 N   0  0  0  0  0  0  0  0  0  0  0  0
   47.9940   30.3670   44.9680 C   0  0  0  0  0  0  0  0  0  0  0  0
   47.2840   31.5180   44.9710 N   0  0  0  0  0  0  0  0  0  0  0  0
   46.5860   31.8990   46.0810 C   0  0  0  0  0  0  0  0  0  0  0  0
   47.4300   29.0470   48.2660 N   0  0  0  0  0  0  0  0  0  0  0  0
   46.7270   34.9180   41.9560 C   0  0  0  0  0  0  0  0  0  0  0  0
   46.9722   33.1113   43.9653 H   0  0  0  0  0  0  0  0  0  0  0  0
   43.8061   36.7947   44.9312 H   0  0  0  0  0  0  0  0  0  0  0  0
   44.6989   33.5239   48.2042 H   0  0  0  0  0  0  0  0  0  0  0  0
   48.5457   30.0888   44.0579 H   0  0  0  0  0  0  0  0  0  0  0  0
   47.9822   28.1786   48.2226 H   0  0  0  0  0  0  0  0  0  0  0  0
   46.9205   29.2909   49.1273 H   0  0  0  0  0  0  0  0  0  0  0  0
   47.8115   34.8646   42.1322 H   0  0  0  0  0  0  0  0  0  0  0  0
   46.4043   34.0347   41.3854 H   0  0  0  0  0  0  0  0  0  0  0  0
   46.4926   35.8288   41.3854 H   0  0  0  0  0  0  0  0  0  0  0  0
  1  6  2  0
  1  2  1  0
  2  3  2  0
  3  4  1  0
  3  7  1  0
  5  4  2  0
  6  5  1  0
  7  8  1  0
  8  9  2  0
 10  9  1  0
 11 10  2  0
 11 16  1  0
 12 11  1  0
 13 14  1  0
 13 12  2  0
 14 15  2  0
 15  7  1  0
 15 10  1  0
 17  1  1  0
  2 18  1  0
  5 19  1  0
  8 20  1  0
 13 21  1  0
 16 22  1  0
 16 23  1  0
 17 24  1  0
 17 25  1  0
 17 26  1  0
M  ISO  7  18  14  19  14  20  14  21  14  24   8  25   8  26   8
M  END
>  <minimizedAffinity>  (1) 
-5.1579814

>  <minimizedRMSD>  (1) 
0.410950035

$$$$
