
     RDKit          3D

 23 24  0  0  0  0  0  0  0  0999 V2000
   46.1100   34.4720   43.6620 C   0  0  0  0  0  0  0  0  0  0  0  0
   46.3840   33.5830   44.7010 C   0  0  0  0  0  0  0  0  0  0  0  0
   45.6900   33.7280   45.9000 C   0  0  0  0  0  0  0  0  0  0  0  0
   44.7790   34.7290   45.9990 N   0  0  0  0  0  0  0  0  0  0  0  0
   44.5380   35.5710   44.9760 C   0  0  0  0  0  0  0  0  0  0  0  0
   45.1960   35.4550   43.8010 N   0  0  0  0  0  0  0  0  0  0  0  0
   45.9320   32.8360   47.0130 C   0  0  0  0  0  0  0  0  0  0  0  0
   45.0020   32.4240   47.9370 C   0  0  0  0  0  0  0  0  0  0  0  0
   45.2590   31.5760   48.9820 C   0  0  0  0  0  0  0  0  0  0  0  0
   46.5690   31.1060   49.1040 C   0  0  0  0  0  0  0  0  0  0  0  0
   47.5790   31.4670   48.2170 C   0  0  0  0  0  0  0  0  0  0  0  0
   47.2020   32.3250   47.2030 C   0  0  0  0  0  0  0  0  0  0  0  0
   46.8550   34.3060   42.3940 C   0  0  0  0  0  0  0  0  0  0  0  0
   47.1312   32.7854   44.5765 H   0  0  0  0  0  0  0  0  0  0  0  0
   43.7909   36.3689   45.0990 H   0  0  0  0  0  0  0  0  0  0  0  0
   43.9750   32.8032   47.8297 H   0  0  0  0  0  0  0  0  0  0  0  0
   44.4718   31.2795   49.6908 H   0  0  0  0  0  0  0  0  0  0  0  0
   46.8115   30.4246   49.9328 H   0  0  0  0  0  0  0  0  0  0  0  0
   48.6089   31.0937   48.3171 H   0  0  0  0  0  0  0  0  0  0  0  0
   47.9787   32.6276   46.4852 H   0  0  0  0  0  0  0  0  0  0  0  0
   47.9068   34.0716   42.6147 H   0  0  0  0  0  0  0  0  0  0  0  0
   46.4106   33.4848   41.8124 H   0  0  0  0  0  0  0  0  0  0  0  0
   46.8013   35.2381   41.8124 H   0  0  0  0  0  0  0  0  0  0  0  0
  1  6  2  0
  1  2  1  0
  2  3  2  0
  3  4  1  0
  3  7  1  0
  5  4  2  0
  6  5  1  0
  7 12  1  0
  7  8  2  0
  8  9  1  0
  9 10  2  0
 11 10  1  0
 12 11  2  0
 13  1  1  0
  2 14  1  0
  5 15  1  0
  8 16  1  0
  9 17  1  0
 10 18  1  0
 11 19  1  0
 12 20  1  0
 13 21  1  0
 13 22  1  0
 13 23  1  0
M  ISO  8  14  14  15  14  16  14  17  14  18  14  19  14  20  14  21   8
M  ISO  2  22   8  23   8
M  END
>  <minimizedAffinity>  (1) 
-4.98847914

>  <minimizedRMSD>  (1) 
0.782711864

$$$$
