
     RDKit          3D

 20 21  0  0  0  0  0  0  0  0999 V2000
   46.0700   34.9090   43.1620 C   0  0  0  0  0  0  0  0  0  0  0  0
   46.2290   34.0120   44.2350 C   0  0  0  0  0  0  0  0  0  0  0  0
   45.4830   34.2430   45.3910 C   0  0  0  0  0  0  0  0  0  0  0  0
   44.6520   35.3110   45.4230 N   0  0  0  0  0  0  0  0  0  0  0  0
   44.5250   36.1490   44.3770 C   0  0  0  0  0  0  0  0  0  0  0  0
   45.2210   35.9700   43.2410 N   0  0  0  0  0  0  0  0  0  0  0  0
   45.6190   33.3360   46.5260 C   0  0  0  0  0  0  0  0  0  0  0  0
   46.5800   32.3490   46.6200 C   0  0  0  0  0  0  0  0  0  0  0  0
   46.4570   31.6740   47.7790 N   0  0  0  0  0  0  0  0  0  0  0  0
   45.4200   32.2270   48.4250 C   0  0  0  0  0  0  0  0  0  0  0  0
   44.9280   33.2230   47.6600 N   0  0  0  0  0  0  0  0  0  0  0  0
   46.8620   34.6660   41.9280 C   0  0  0  0  0  0  0  0  0  0  0  0
   46.9183   33.1576   44.1644 H   0  0  0  0  0  0  0  0  0  0  0  0
   43.8343   37.0016   44.4539 H   0  0  0  0  0  0  0  0  0  0  0  0
   47.3415   32.1424   45.8536 H   0  0  0  0  0  0  0  0  0  0  0  0
   45.0366   31.9209   49.4095 H   0  0  0  0  0  0  0  0  0  0  0  0
   44.1264   33.8163   47.9175 H   0  0  0  0  0  0  0  0  0  0  0  0
   47.8806   34.3535   42.2016 H   0  0  0  0  0  0  0  0  0  0  0  0
   46.3824   33.8737   41.3345 H   0  0  0  0  0  0  0  0  0  0  0  0
   46.9092   35.5910   41.3345 H   0  0  0  0  0  0  0  0  0  0  0  0
  1  6  2  0
  1  2  1  0
  2  3  2  0
  3  4  1  0
  3  7  1  0
  5  4  2  0
  6  5  1  0
  7  8  2  0
  7 11  1  0
  8  9  1  0
  9 10  2  0
 11 10  1  0
 12  1  1  0
  2 13  1  0
  5 14  1  0
  8 15  1  0
 10 16  1  0
 11 17  1  0
 12 18  1  0
 12 19  1  0
 12 20  1  0
M  ISO  8  13  14  14  14  15  14  16  14  17   9  18   8  19   8  20   8
M  END
>  <minimizedAffinity>  (1) 
-4.85464334

>  <minimizedRMSD>  (1) 
0.372443855

$$$$
