
     RDKit          3D

 20 21  0  0  0  0  0  0  0  0999 V2000
   46.1050   34.8640   43.2030 C   0  0  0  0  0  0  0  0  0  0  0  0
   46.3540   33.9530   44.2380 C   0  0  0  0  0  0  0  0  0  0  0  0
   45.6330   34.0970   45.4270 C   0  0  0  0  0  0  0  0  0  0  0  0
   44.7340   35.1000   45.5290 N   0  0  0  0  0  0  0  0  0  0  0  0
   44.5140   35.9700   44.5060 C   0  0  0  0  0  0  0  0  0  0  0  0
   45.1940   35.8600   43.3420 N   0  0  0  0  0  0  0  0  0  0  0  0
   45.8450   33.1800   46.5420 C   0  0  0  0  0  0  0  0  0  0  0  0
   46.9180   32.3240   46.6620 C   0  0  0  0  0  0  0  0  0  0  0  0
   46.7110   31.6530   47.8590 C   0  0  0  0  0  0  0  0  0  0  0  0
   45.5200   32.1410   48.4030 C   0  0  0  0  0  0  0  0  0  0  0  0
   45.0550   33.0440   47.5750 O   0  0  0  0  0  0  0  0  0  0  0  0
   46.8640   34.7220   41.9370 C   0  0  0  0  0  0  0  0  0  0  0  0
   47.0947   33.1485   44.1186 H   0  0  0  0  0  0  0  0  0  0  0  0
   43.7729   36.7738   44.6274 H   0  0  0  0  0  0  0  0  0  0  0  0
   47.7566   32.1995   45.9612 H   0  0  0  0  0  0  0  0  0  0  0  0
   47.3620   30.8821   48.2971 H   0  0  0  0  0  0  0  0  0  0  0  0
   45.0585   31.8257   49.3504 H   0  0  0  0  0  0  0  0  0  0  0  0
   47.9220   34.5241   42.1640 H   0  0  0  0  0  0  0  0  0  0  0  0
   46.4514   33.8855   41.3539 H   0  0  0  0  0  0  0  0  0  0  0  0
   46.7817   35.6511   41.3539 H   0  0  0  0  0  0  0  0  0  0  0  0
  1  6  2  0
  1  2  1  0
  2  3  2  0
  3  4  1  0
  3  7  1  0
  5  4  2  0
  6  5  1  0
  7  8  2  0
  7 11  1  0
  8  9  1  0
  9 10  2  0
 11 10  1  0
 12  1  1  0
  2 13  1  0
  5 14  1  0
  8 15  1  0
  9 16  1  0
 10 17  1  0
 12 18  1  0
 12 19  1  0
 12 20  1  0
M  ISO  8  13  14  14  14  15  14  16  14  17  14  18   8  19   8  20   8
M  END
>  <minimizedAffinity>  (1) 
-4.52673531

>  <minimizedRMSD>  (1) 
0.603486955

$$$$
