
     RDKit          3D

 33 34  0  0  1  0  0  0  0  0999 V2000
   47.3580   35.2510   41.9410 C   0  0  0  0  0  0  0  0  0  0  0  0
   48.5080   34.7070   41.3070 N   0  0  0  0  0  0  0  0  0  0  0  0
   49.6580   34.8930   42.1310 C   0  0  0  0  0  0  0  0  0  0  0  0
   50.4550   33.6810   42.4220 C   0  0  0  0  0  0  0  0  0  0  0  0
   49.5250   32.6570   42.6750 O   0  0  0  0  0  0  0  0  0  0  0  0
   49.0850   32.3100   41.3930 C   0  0  0  0  0  0  0  0  0  0  0  0
   48.4270   33.4560   40.6670 C   0  0  2  0  0  0  0  0  0  0  0  0
   49.1040   33.5660   39.4360 O   0  0  0  0  0  0  0  0  0  0  0  0
   46.1800   34.3230   42.1120 C   0  0  1  0  0  0  0  0  0  0  0  0
   44.8760   35.5180   43.9470 C   0  0  0  0  0  0  0  0  0  0  0  0
   45.7050   34.4430   43.4960 C   0  0  0  0  0  0  0  0  0  0  0  0
   46.0490   33.5000   44.4630 C   0  0  0  0  0  0  0  0  0  0  0  0
   45.5900   33.6580   45.7280 N   0  0  0  0  0  0  0  0  0  0  0  0
   44.8170   34.6740   46.1210 C   0  0  0  0  0  0  0  0  0  0  0  0
   44.4540   35.6210   45.2110 N   0  0  0  0  0  0  0  0  0  0  0  0
   45.0930   34.5950   41.1440 C   0  0  0  0  0  0  0  0  0  0  0  0
   47.0219   36.1107   41.3427 H   0  0  0  0  0  0  0  0  0  0  0  0
   47.6806   35.5026   42.9621 H   0  0  0  0  0  0  0  0  0  0  0  0
   50.3176   35.6160   41.6287 H   0  0  0  0  0  0  0  0  0  0  0  0
   49.2720   35.2325   43.1035 H   0  0  0  0  0  0  0  0  0  0  0  0
   51.0843   33.4209   41.5581 H   0  0  0  0  0  0  0  0  0  0  0  0
   51.1263   33.8365   43.2795 H   0  0  0  0  0  0  0  0  0  0  0  0
   49.9509   31.9727   40.8043 H   0  0  0  0  0  0  0  0  0  0  0  0
   48.3321   31.5161   41.5066 H   0  0  0  0  0  0  0  0  0  0  0  0
   47.3531   33.2281   40.5980 H   0  0  0  0  0  0  0  0  0  0  0  0
   50.0673   33.7225   39.6020 H   0  0  0  0  0  0  0  0  0  0  0  0
   46.5045   33.2923   41.9063 H   0  0  0  0  0  0  0  0  0  0  0  0
   44.5738   36.2907   43.2247 H   0  0  0  0  0  0  0  0  0  0  0  0
   46.6838   32.6401   44.2030 H   0  0  0  0  0  0  0  0  0  0  0  0
   44.4781   34.7452   47.1651 H   0  0  0  0  0  0  0  0  0  0  0  0
   44.1661   34.8269   41.6891 H   0  0  0  0  0  0  0  0  0  0  0  0
   45.3707   35.4513   40.5119 H   0  0  0  0  0  0  0  0  0  0  0  0
   44.9347   33.7088   40.5119 H   0  0  0  0  0  0  0  0  0  0  0  0
  1  9  1  0
  2  1  1  0
  2  3  1  0
  3  4  1  0
  4  5  1  0
  6  5  1  0
  7  2  1  0
  7  6  1  0
  8  7  1  0
  9 11  1  0
 10 15  2  0
 11 10  1  0
 11 12  2  0
 12 13  1  0
 13 14  2  0
 15 14  1  0
 16  9  1  0
  1 17  1  0
  1 18  1  0
  3 19  1  0
  3 20  1  0
  4 21  1  0
  4 22  1  0
  6 23  1  0
  6 24  1  0
  7 25  1  6
  8 26  1  0
  9 27  1  1
 10 28  1  0
 12 29  1  0
 14 30  1  0
 16 31  1  0
 16 32  1  0
 16 33  1  0
M  ISO  8  17   8  18   8  19  13  20  13  21  13  22  13  23  13  24  13
M  ISO  8  25  13  26   3  27   8  28  14  29  14  30  14  31   8  32   8
M  ISO  1  33   8
M  END
>  <minimizedAffinity>  (1) 
-4.49514437

>  <minimizedRMSD>  (1) 
0.331419557

$$$$
