
     RDKit          3D

 18 19  0  0  0  0  0  0  0  0999 V2000
   46.1040   34.8740   43.1980 C   0  0  0  0  0  0  0  0  0  0  0  0
   46.3750   33.9530   44.2160 C   0  0  0  0  0  0  0  0  0  0  0  0
   45.6590   34.0760   45.4220 C   0  0  0  0  0  0  0  0  0  0  0  0
   44.7500   35.0760   45.5280 N   0  0  0  0  0  0  0  0  0  0  0  0
   44.5190   35.9450   44.5190 C   0  0  0  0  0  0  0  0  0  0  0  0
   45.1940   35.8500   43.3460 N   0  0  0  0  0  0  0  0  0  0  0  0
   45.8960   33.1470   46.5220 C   0  0  0  0  0  0  0  0  0  0  0  0
   46.9740   32.3690   46.5840 N   0  0  0  0  0  0  0  0  0  0  0  0
   46.9440   31.6400   47.6590 O   0  0  0  0  0  0  0  0  0  0  0  0
   45.8410   31.9290   48.3230 C   0  0  0  0  0  0  0  0  0  0  0  0
   45.1600   32.8790   47.6260 N   0  0  0  0  0  0  0  0  0  0  0  0
   46.8610   34.7380   41.9310 C   0  0  0  0  0  0  0  0  0  0  0  0
   47.1233   33.1585   44.0785 H   0  0  0  0  0  0  0  0  0  0  0  0
   43.7721   36.7417   44.6509 H   0  0  0  0  0  0  0  0  0  0  0  0
   45.5260   31.4793   49.2762 H   0  0  0  0  0  0  0  0  0  0  0  0
   47.9208   34.5476   42.1557 H   0  0  0  0  0  0  0  0  0  0  0  0
   46.4532   33.8987   41.3485 H   0  0  0  0  0  0  0  0  0  0  0  0
   46.7708   35.6667   41.3485 H   0  0  0  0  0  0  0  0  0  0  0  0
  1  6  2  0
  1  2  1  0
  2  3  2  0
  3  4  1  0
  3  7  1  0
  5  4  2  0
  6  5  1  0
  7  8  2  0
  7 11  1  0
  8  9  1  0
  9 10  1  0
 11 10  2  0
 12  1  1  0
  2 13  1  0
  5 14  1  0
 10 15  1  0
 12 16  1  0
 12 17  1  0
 12 18  1  0
M  ISO  6  13  14  14  14  15  14  16   8  17   8  18   8
M  END
>  <minimizedAffinity>  (1) 
-4.33465385

>  <minimizedRMSD>  (1) 
0.67398423

$$$$
