
     RDKit          3D

 16 16  0  0  0  0  0  0  0  0999 V2000
   46.1830   34.8850   43.1800 C   0  0  0  0  0  0  0  0  0  0  0  0
   46.4300   33.9080   44.1610 C   0  0  0  0  0  0  0  0  0  0  0  0
   45.7050   33.9800   45.3500 C   0  0  0  0  0  0  0  0  0  0  0  0
   44.8010   34.9850   45.5040 N   0  0  0  0  0  0  0  0  0  0  0  0
   44.5950   35.9030   44.5370 C   0  0  0  0  0  0  0  0  0  0  0  0
   45.2830   35.8630   43.3660 N   0  0  0  0  0  0  0  0  0  0  0  0
   46.9580   34.7990   41.9200 C   0  0  0  0  0  0  0  0  0  0  0  0
   45.9040   32.9850   46.4420 C   0  0  0  0  0  0  0  0  0  0  0  0
   47.1714   33.1124   43.9956 H   0  0  0  0  0  0  0  0  0  0  0  0
   43.8548   36.7002   44.6999 H   0  0  0  0  0  0  0  0  0  0  0  0
   48.0263   34.6805   42.1540 H   0  0  0  0  0  0  0  0  0  0  0  0
   46.6125   33.9337   41.3353 H   0  0  0  0  0  0  0  0  0  0  0  0
   46.8106   35.7190   41.3353 H   0  0  0  0  0  0  0  0  0  0  0  0
   45.8040   33.4852   47.4166 H   0  0  0  0  0  0  0  0  0  0  0  0
   45.1467   32.1916   46.3576 H   0  0  0  0  0  0  0  0  0  0  0  0
   46.9082   32.5439   46.3576 H   0  0  0  0  0  0  0  0  0  0  0  0
  1  6  2  0
  1  2  1  0
  2  3  2  0
  3  4  1  0
  3  8  1  0
  5  4  2  0
  6  5  1  0
  7  1  1  0
  2  9  1  0
  5 10  1  0
  7 11  1  0
  7 12  1  0
  7 13  1  0
  8 14  1  0
  8 15  1  0
  8 16  1  0
M  ISO  8   9  14  10  14  11   8  12   8  13   8  14   8  15   8  16   8
M  END
>  <minimizedAffinity>  (1) 
-3.38846087

>  <minimizedRMSD>  (1) 
0.133891806

$$$$
