
     RDKit          3D

 20 21  0  0  0  0  0  0  0  0999 V2000
   46.1740   34.8360   43.3070 C   0  0  0  0  0  0  0  0  0  0  0  0
   46.4240   33.7240   44.1120 C   0  0  0  0  0  0  0  0  0  0  0  0
   45.7380   33.6270   45.3370 C   0  0  0  0  0  0  0  0  0  0  0  0
   44.8720   34.6110   45.6810 N   0  0  0  0  0  0  0  0  0  0  0  0
   44.6550   35.6830   44.8680 C   0  0  0  0  0  0  0  0  0  0  0  0
   45.3030   35.8030   43.6770 N   0  0  0  0  0  0  0  0  0  0  0  0
   46.8960   34.9350   42.0180 C   0  0  0  0  0  0  0  0  0  0  0  0
   45.9550   32.4780   46.2360 C   0  0  0  0  0  0  0  0  0  0  0  0
   46.9850   32.7230   47.3360 C   0  0  0  0  0  0  0  0  0  0  0  0
   45.5010   32.6060   47.6420 C   0  0  0  0  0  0  0  0  0  0  0  0
   47.1360   32.9464   43.7985 H   0  0  0  0  0  0  0  0  0  0  0  0
   43.9451   36.4635   45.1791 H   0  0  0  0  0  0  0  0  0  0  0  0
   47.9692   35.0822   42.2092 H   0  0  0  0  0  0  0  0  0  0  0  0
   46.7496   34.0084   41.4436 H   0  0  0  0  0  0  0  0  0  0  0  0
   46.5056   35.7880   41.4436 H   0  0  0  0  0  0  0  0  0  0  0  0
   45.7917   31.7212   45.4546 H   0  0  0  0  0  0  0  0  0  0  0  0
   47.6779   31.9229   47.6354 H   0  0  0  0  0  0  0  0  0  0  0  0
   47.7725   33.4670   47.5265 H   0  0  0  0  0  0  0  0  0  0  0  0
   44.9353   33.4959   47.9552 H   0  0  0  0  0  0  0  0  0  0  0  0
   44.9000   31.9805   48.3184 H   0  0  0  0  0  0  0  0  0  0  0  0
  1  6  2  0
  1  2  1  0
  2  3  2  0
  3  4  1  0
  3  8  1  0
  5  4  2  0
  6  5  1  0
  7  1  1  0
  8  9  1  0
  8 10  1  0
  9 10  1  0
  2 11  1  0
  5 12  1  0
  7 13  1  0
  7 14  1  0
  7 15  1  0
  8 16  1  0
  9 17  1  0
  9 18  1  0
 10 19  1  0
 10 20  1  0
M  ISO  8  11  14  12  14  13   8  14   8  15   8  16  13  17  13  18  13
M  ISO  2  19  13  20  13
M  END
>  <minimizedAffinity>  (1) 
-3.77781057

>  <minimizedRMSD>  (1) 
0.521048546

$$$$
