
     RDKit          3D

 34 37  0  0  0  0  0  0  0  0999 V2000
   46.0920   34.8890   43.2260 C   0  0  0  0  0  0  0  0  0  0  0  0
   46.2900   33.9680   44.2540 C   0  0  0  0  0  0  0  0  0  0  0  0
   45.5800   34.0990   45.4400 C   0  0  0  0  0  0  0  0  0  0  0  0
   44.7130   35.1350   45.5390 N   0  0  0  0  0  0  0  0  0  0  0  0
   44.5250   36.0220   44.5430 C   0  0  0  0  0  0  0  0  0  0  0  0
   45.2060   35.9140   43.3790 N   0  0  0  0  0  0  0  0  0  0  0  0
   45.8560   33.1340   46.4120 N   0  0  0  0  0  0  0  0  0  0  0  0
   45.1910   32.8760   47.5680 C   0  0  0  0  0  0  0  0  0  0  0  0
   45.8660   31.8230   48.1820 C   0  0  0  0  0  0  0  0  0  0  0  0
   46.9030   31.4880   47.3820 N   0  0  0  0  0  0  0  0  0  0  0  0
   46.9070   32.2810   46.3000 C   0  0  0  0  0  0  0  0  0  0  0  0
   46.8520   34.7600   41.9770 C   0  0  0  0  0  0  0  0  0  0  0  0
   48.2910   34.4560   42.1700 C   0  0  0  0  0  0  0  0  0  0  0  0
   49.1610   35.4270   42.6810 C   0  0  0  0  0  0  0  0  0  0  0  0
   50.3890   34.8880   42.7870 N   0  0  0  0  0  0  0  0  0  0  0  0
   50.4050   33.6100   42.3780 C   0  0  0  0  0  0  0  0  0  0  0  0
   51.3240   32.5860   42.2510 C   0  0  0  0  0  0  0  0  0  0  0  0
   50.9500   31.3430   41.7570 C   0  0  0  0  0  0  0  0  0  0  0  0
   49.6440   31.1070   41.3810 C   0  0  0  0  0  0  0  0  0  0  0  0
   48.7510   32.1260   41.5140 C   0  0  0  0  0  0  0  0  0  0  0  0
   49.1040   33.3620   42.0010 C   0  0  0  0  0  0  0  0  0  0  0  0
   47.0050   33.1419   44.1261 H   0  0  0  0  0  0  0  0  0  0  0  0
   43.8081   36.8453   44.6778 H   0  0  0  0  0  0  0  0  0  0  0  0
   44.2973   33.3951   47.9445 H   0  0  0  0  0  0  0  0  0  0  0  0
   45.6036   31.3514   49.1405 H   0  0  0  0  0  0  0  0  0  0  0  0
   47.6304   32.2466   45.4721 H   0  0  0  0  0  0  0  0  0  0  0  0
   46.7706   35.7075   41.4241 H   0  0  0  0  0  0  0  0  0  0  0  0
   46.4196   33.9092   41.4301 H   0  0  0  0  0  0  0  0  0  0  0  0
   48.8864   36.4575   42.9505 H   0  0  0  0  0  0  0  0  0  0  0  0
   51.2146   35.3936   43.1385 H   0  0  0  0  0  0  0  0  0  0  0  0
   52.3696   32.7582   42.5462 H   0  0  0  0  0  0  0  0  0  0  0  0
   51.6990   30.5427   41.6651 H   0  0  0  0  0  0  0  0  0  0  0  0
   49.3343   30.1279   40.9867 H   0  0  0  0  0  0  0  0  0  0  0  0
   47.7052   31.9533   41.2200 H   0  0  0  0  0  0  0  0  0  0  0  0
  1  6  1  0
  1  2  2  0
  2  3  1  0
  3  4  2  0
  3  7  1  0
  5  4  1  0
  6  5  2  0
  7  8  1  0
  8  9  2  0
 10  9  1  0
 11  7  1  0
 11 10  2  0
 12 13  1  0
 12  1  1  0
 13 14  2  0
 14 15  1  0
 16 15  1  0
 17 16  2  0
 18 17  1  0
 19 20  1  0
 19 18  2  0
 20 21  2  0
 21 13  1  0
 21 16  1  0
  2 22  1  0
  5 23  1  0
  8 24  1  0
  9 25  1  0
 11 26  1  0
 12 27  1  0
 12 28  1  0
 14 29  1  0
 15 30  1  0
 17 31  1  0
 18 32  1  0
 19 33  1  0
 20 34  1  0
M  ISO  8  22  14  23  14  24  14  25  14  26  14  27   8  28   8  29  14
M  ISO  5  30   9  31  14  32  14  33  14  34  14
M  END
>  <minimizedAffinity>  (1) 
-6.55681038

>  <minimizedRMSD>  (1) 
1.72342968

$$$$
