
     RDKit          3D

 31 33  0  0  0  0  0  0  0  0999 V2000
   45.7330   34.8070   43.2870 C   0  0  0  0  0  0  0  0  0  0  0  0
   46.0400   33.8480   44.2550 C   0  0  0  0  0  0  0  0  0  0  0  0
   45.4960   34.0310   45.5260 C   0  0  0  0  0  0  0  0  0  0  0  0
   44.7020   35.1200   45.7630 N   0  0  0  0  0  0  0  0  0  0  0  0
   44.4360   36.0130   44.8010 C   0  0  0  0  0  0  0  0  0  0  0  0
   44.9450   35.8720   43.5560 N   0  0  0  0  0  0  0  0  0  0  0  0
   45.8320   33.0450   46.4690 N   0  0  0  0  0  0  0  0  0  0  0  0
   45.2780   32.7770   47.6780 C   0  0  0  0  0  0  0  0  0  0  0  0
   45.9750   31.7070   48.2110 C   0  0  0  0  0  0  0  0  0  0  0  0
   46.9150   31.3670   47.3220 N   0  0  0  0  0  0  0  0  0  0  0  0
   46.8560   32.1700   46.2370 C   0  0  0  0  0  0  0  0  0  0  0  0
   46.2810   34.6650   41.9260 C   0  0  0  0  0  0  0  0  0  0  0  0
   47.6440   34.2060   41.9270 N   0  0  0  0  0  0  0  0  0  0  0  0
   48.6510   34.9990   42.3570 C   0  0  0  0  0  0  0  0  0  0  0  0
   49.9710   34.5920   42.3720 C   0  0  0  0  0  0  0  0  0  0  0  0
   50.2970   33.3150   41.9290 C   0  0  0  0  0  0  0  0  0  0  0  0
   51.6480   32.8370   41.9210 N   0  0  0  0  0  0  0  0  0  0  0  0
   49.2890   32.5280   41.5010 N   0  0  0  0  0  0  0  0  0  0  0  0
   48.0020   32.9790   41.5070 C   0  0  0  0  0  0  0  0  0  0  0  0
   47.1100   32.1800   41.0890 O   0  0  0  0  0  0  0  0  0  0  0  0
   46.6830   32.9857   44.0248 H   0  0  0  0  0  0  0  0  0  0  0  0
   43.7925   36.8759   45.0274 H   0  0  0  0  0  0  0  0  0  0  0  0
   44.4359   33.3086   48.1452 H   0  0  0  0  0  0  0  0  0  0  0  0
   45.7907   31.2263   49.1831 H   0  0  0  0  0  0  0  0  0  0  0  0
   47.5014   32.1280   45.3472 H   0  0  0  0  0  0  0  0  0  0  0  0
   46.2384   35.6431   41.4246 H   0  0  0  0  0  0  0  0  0  0  0  0
   45.6753   33.9136   41.3982 H   0  0  0  0  0  0  0  0  0  0  0  0
   48.4087   36.0122   42.7102 H   0  0  0  0  0  0  0  0  0  0  0  0
   50.7573   35.2722   42.7313 H   0  0  0  0  0  0  0  0  0  0  0  0
   51.8556   31.8853   41.5863 H   0  0  0  0  0  0  0  0  0  0  0  0
   52.4114   33.4452   42.2500 H   0  0  0  0  0  0  0  0  0  0  0  0
  1  6  1  0
  1  2  2  0
  2  3  1  0
  3  4  2  0
  3  7  1  0
  5  4  1  0
  6  5  2  0
  7  8  1  0
  8  9  2  0
 10  9  1  0
 11  7  1  0
 11 10  2  0
 12 13  1  0
 12  1  1  0
 13 14  1  0
 14 15  2  0
 16 15  1  0
 17 16  1  0
 18 19  1  0
 18 16  2  0
 19 13  1  0
 20 19  2  0
  2 21  1  0
  5 22  1  0
  8 23  1  0
  9 24  1  0
 11 25  1  0
 12 26  1  0
 12 27  1  0
 14 28  1  0
 15 29  1  0
 17 30  1  0
 17 31  1  0
M  ISO  8  21  14  22  14  23  14  24  14  25  14  26   8  27   8  28  14
M  ISO  1  29  14
M  END
>  <minimizedAffinity>  (1) 
-6.0560894

>  <minimizedRMSD>  (1) 
1.88963878

$$$$
