
     RDKit          3D

 29 31  0  0  0  0  0  0  0  0999 V2000
   45.9700   34.7860   43.1530 C   0  0  0  0  0  0  0  0  0  0  0  0
   46.2140   33.8740   44.1840 C   0  0  0  0  0  0  0  0  0  0  0  0
   45.5730   34.0930   45.4000 C   0  0  0  0  0  0  0  0  0  0  0  0
   44.7480   35.1760   45.5180 N   0  0  0  0  0  0  0  0  0  0  0  0
   44.5380   36.0270   44.5070 C   0  0  0  0  0  0  0  0  0  0  0  0
   45.1460   35.8450   43.3080 N   0  0  0  0  0  0  0  0  0  0  0  0
   45.8450   33.1560   46.4100 N   0  0  0  0  0  0  0  0  0  0  0  0
   45.2020   32.9460   47.5910 C   0  0  0  0  0  0  0  0  0  0  0  0
   45.8840   31.8980   48.2090 C   0  0  0  0  0  0  0  0  0  0  0  0
   46.8950   31.5190   47.3970 N   0  0  0  0  0  0  0  0  0  0  0  0
   46.8870   32.2770   46.2930 C   0  0  0  0  0  0  0  0  0  0  0  0
   46.6260   34.5960   41.8480 C   0  0  0  0  0  0  0  0  0  0  0  0
   48.0390   34.1800   41.9930 C   0  0  0  0  0  0  0  0  0  0  0  0
   49.0630   34.9900   42.4760 C   0  0  0  0  0  0  0  0  0  0  0  0
   50.3510   34.4840   42.5640 C   0  0  0  0  0  0  0  0  0  0  0  0
   50.6820   33.1910   42.1910 C   0  0  0  0  0  0  0  0  0  0  0  0
   49.6270   32.4300   41.7200 C   0  0  0  0  0  0  0  0  0  0  0  0
   48.3760   32.9240   41.6340 N   0  0  0  0  0  0  0  0  0  0  0  0
   46.8870   33.0159   44.0398 H   0  0  0  0  0  0  0  0  0  0  0  0
   43.8641   36.8846   44.6498 H   0  0  0  0  0  0  0  0  0  0  0  0
   44.3271   33.4893   47.9774 H   0  0  0  0  0  0  0  0  0  0  0  0
   45.6411   31.4570   49.1870 H   0  0  0  0  0  0  0  0  0  0  0  0
   47.5883   32.2061   45.4485 H   0  0  0  0  0  0  0  0  0  0  0  0
   46.5903   35.5440   41.2912 H   0  0  0  0  0  0  0  0  0  0  0  0
   46.0905   33.7989   41.3114 H   0  0  0  0  0  0  0  0  0  0  0  0
   48.8519   36.0242   42.7857 H   0  0  0  0  0  0  0  0  0  0  0  0
   51.1469   35.1393   42.9476 H   0  0  0  0  0  0  0  0  0  0  0  0
   51.7072   32.7990   42.2640 H   0  0  0  0  0  0  0  0  0  0  0  0
   49.8145   31.3923   41.4068 H   0  0  0  0  0  0  0  0  0  0  0  0
  1  6  1  0
  1  2  2  0
  2  3  1  0
  3  4  2  0
  3  7  1  0
  5  4  1  0
  6  5  2  0
  7  8  1  0
  8  9  2  0
 10  9  1  0
 11  7  1  0
 11 10  2  0
 12 13  1  0
 12  1  1  0
 13 14  2  0
 14 15  1  0
 16 15  2  0
 17 16  1  0
 18 17  2  0
 18 13  1  0
  2 19  1  0
  5 20  1  0
  8 21  1  0
  9 22  1  0
 11 23  1  0
 12 24  1  0
 12 25  1  0
 14 26  1  0
 15 27  1  0
 16 28  1  0
 17 29  1  0
M  ISO  8  19  14  20  14  21  14  22  14  23  14  24   8  25   8  26  14
M  ISO  3  27  14  28  14  29  14
M  END
>  <minimizedAffinity>  (1) 
-5.87837601

>  <minimizedRMSD>  (1) 
1.51441348

$$$$
