
     RDKit          3D

 36 38  0  0  0  0  0  0  0  0999 V2000
   45.8920   34.4150   43.4000 C   0  0  0  0  0  0  0  0  0  0  0  0
   46.0680   33.5850   44.5030 C   0  0  0  0  0  0  0  0  0  0  0  0
   45.4760   33.8930   45.7100 C   0  0  0  0  0  0  0  0  0  0  0  0
   44.7280   35.0110   45.7890 N   0  0  0  0  0  0  0  0  0  0  0  0
   44.5600   35.8140   44.7100 C   0  0  0  0  0  0  0  0  0  0  0  0
   45.1280   35.5370   43.5160 N   0  0  0  0  0  0  0  0  0  0  0  0
   45.7290   32.9810   46.7490 N   0  0  0  0  0  0  0  0  0  0  0  0
   45.0890   32.8640   47.9510 C   0  0  0  0  0  0  0  0  0  0  0  0
   45.7230   31.8070   48.6140 C   0  0  0  0  0  0  0  0  0  0  0  0
   46.6990   31.3370   47.8090 N   0  0  0  0  0  0  0  0  0  0  0  0
   46.7180   32.0380   46.6710 C   0  0  0  0  0  0  0  0  0  0  0  0
   46.4870   34.1250   42.1010 C   0  0  0  0  0  0  0  0  0  0  0  0
   47.8850   33.6250   42.0750 C   0  0  0  0  0  0  0  0  0  0  0  0
   48.8030   34.1650   43.1140 C   0  0  0  0  0  0  0  0  0  0  0  0
   49.8660   35.0150   42.4170 C   0  0  0  0  0  0  0  0  0  0  0  0
   49.2100   36.0130   41.4860 C   0  0  0  0  0  0  0  0  0  0  0  0
   48.5040   35.3320   40.3450 C   0  0  0  0  0  0  0  0  0  0  0  0
   48.4110   33.8610   40.6620 C   0  0  0  0  0  0  0  0  0  0  0  0
   46.6831   32.6776   44.4117 H   0  0  0  0  0  0  0  0  0  0  0  0
   43.9424   36.7188   44.8096 H   0  0  0  0  0  0  0  0  0  0  0  0
   44.2508   33.4733   48.3201 H   0  0  0  0  0  0  0  0  0  0  0  0
   45.4704   31.4264   49.6147 H   0  0  0  0  0  0  0  0  0  0  0  0
   47.4042   31.8848   45.8250 H   0  0  0  0  0  0  0  0  0  0  0  0
   45.8579   33.3651   41.6144 H   0  0  0  0  0  0  0  0  0  0  0  0
   46.5324   35.1000   41.5937 H   0  0  0  0  0  0  0  0  0  0  0  0
   47.8597   32.5571   42.3376 H   0  0  0  0  0  0  0  0  0  0  0  0
   48.2373   34.7853   43.8247 H   0  0  0  0  0  0  0  0  0  0  0  0
   49.2777   33.3411   43.6670 H   0  0  0  0  0  0  0  0  0  0  0  0
   50.4527   35.5557   43.1742 H   0  0  0  0  0  0  0  0  0  0  0  0
   50.5244   34.3568   41.8312 H   0  0  0  0  0  0  0  0  0  0  0  0
   48.4779   36.6038   42.0560 H   0  0  0  0  0  0  0  0  0  0  0  0
   49.9966   36.6571   41.0659 H   0  0  0  0  0  0  0  0  0  0  0  0
   49.0726   35.4776   39.4147 H   0  0  0  0  0  0  0  0  0  0  0  0
   47.4983   35.7571   40.2114 H   0  0  0  0  0  0  0  0  0  0  0  0
   47.7299   33.3828   39.9427 H   0  0  0  0  0  0  0  0  0  0  0  0
   49.4202   33.4288   40.5930 H   0  0  0  0  0  0  0  0  0  0  0  0
  1  6  1  0
  1  2  2  0
  2  3  1  0
  3  4  2  0
  3  7  1  0
  5  4  1  0
  6  5  2  0
  7  8  1  0
  8  9  2  0
 10  9  1  0
 11  7  1  0
 11 10  2  0
 12  1  1  0
 13 12  1  0
 13 14  1  0
 15 14  1  0
 16 15  1  0
 17 18  1  0
 17 16  1  0
 18 13  1  0
  2 19  1  0
  5 20  1  0
  8 21  1  0
  9 22  1  0
 11 23  1  0
 12 24  1  0
 12 25  1  0
 13 26  1  0
 14 27  1  0
 14 28  1  0
 15 29  1  0
 15 30  1  0
 16 31  1  0
 16 32  1  0
 17 33  1  0
 17 34  1  0
 18 35  1  0
 18 36  1  0
M  ISO  8  19  14  20  14  21  14  22  14  23  14  24   8  25   8  26  13
M  ISO  8  27  13  28  13  29  13  30  13  31  13  32  13  33  13  34  13
M  ISO  2  35  13  36  13
M  END
>  <minimizedAffinity>  (1) 
-6.21506262

>  <minimizedRMSD>  (1) 
1.62255824

$$$$
