
     RDKit          3D

 33 35  0  0  0  0  0  0  0  0999 V2000
   45.6250   34.9710   43.3480 C   0  0  0  0  0  0  0  0  0  0  0  0
   45.9710   33.9370   44.2260 C   0  0  0  0  0  0  0  0  0  0  0  0
   45.4950   34.0020   45.5430 C   0  0  0  0  0  0  0  0  0  0  0  0
   44.7200   35.0600   45.9100 N   0  0  0  0  0  0  0  0  0  0  0  0
   44.4160   36.0250   45.0360 C   0  0  0  0  0  0  0  0  0  0  0  0
   44.8490   36.0110   43.7540 N   0  0  0  0  0  0  0  0  0  0  0  0
   45.8770   32.9370   46.3840 N   0  0  0  0  0  0  0  0  0  0  0  0
   45.3690   32.5820   47.5850 C   0  0  0  0  0  0  0  0  0  0  0  0
   46.0890   31.4790   47.9900 C   0  0  0  0  0  0  0  0  0  0  0  0
   46.9990   31.2070   47.0310 N   0  0  0  0  0  0  0  0  0  0  0  0
   46.8890   32.0920   46.0300 C   0  0  0  0  0  0  0  0  0  0  0  0
   46.1340   34.8920   41.9700 C   0  0  0  0  0  0  0  0  0  0  0  0
   42.7470   34.0750   39.5650 C   0  0  0  0  0  0  0  0  0  0  0  0
   43.7960   33.2040   39.5000 C   0  0  0  0  0  0  0  0  0  0  0  0
   44.9460   33.4100   40.2650 C   0  0  0  0  0  0  0  0  0  0  0  0
   44.9800   34.5210   41.0840 C   0  0  0  0  0  0  0  0  0  0  0  0
   43.9160   35.4050   41.1500 C   0  0  0  0  0  0  0  0  0  0  0  0
   42.7880   35.1840   40.3860 C   0  0  0  0  0  0  0  0  0  0  0  0
   41.2920   33.8200   38.6020 S   0  0  0  0  0  0  0  0  0  0  0  0
   40.0730   34.0190   39.4300 O   0  0  0  0  0  0  0  0  0  0  0  0
   41.2880   32.4330   37.9870 O   0  0  0  0  0  0  0  0  0  0  0  0
   46.5985   33.0975   43.8920 H   0  0  0  0  0  0  0  0  0  0  0  0
   43.7889   36.8638   45.3724 H   0  0  0  0  0  0  0  0  0  0  0  0
   44.5483   33.0732   48.1283 H   0  0  0  0  0  0  0  0  0  0  0  0
   45.9475   30.9203   48.9269 H   0  0  0  0  0  0  0  0  0  0  0  0
   47.4916   32.1296   45.1105 H   0  0  0  0  0  0  0  0  0  0  0  0
   46.5442   35.8659   41.6646 H   0  0  0  0  0  0  0  0  0  0  0  0
   46.9365   34.1433   41.8954 H   0  0  0  0  0  0  0  0  0  0  0  0
   43.7347   32.3287   38.8366 H   0  0  0  0  0  0  0  0  0  0  0  0
   45.7947   32.7119   40.2168 H   0  0  0  0  0  0  0  0  0  0  0  0
   43.9698   36.2827   41.8109 H   0  0  0  0  0  0  0  0  0  0  0  0
   41.9367   35.8793   40.4305 H   0  0  0  0  0  0  0  0  0  0  0  0
   41.2881   34.7428   37.5894 H   0  0  0  0  0  0  0  0  0  0  0  0
  1  6  1  0
  1  2  2  0
  2  3  1  0
  3  4  2  0
  3  7  1  0
  5  4  1  0
  6  5  2  0
  7  8  1  0
  8  9  2  0
 10  9  1  0
 11  7  1  0
 11 10  2  0
 12  1  1  0
 13 18  2  0
 14 13  1  0
 14 15  2  0
 15 16  1  0
 16 17  2  0
 16 12  1  0
 18 17  1  0
 19 20  2  0
 19 13  1  0
 21 19  2  0
  2 22  1  0
  5 23  1  0
  8 24  1  0
  9 25  1  0
 11 26  1  0
 12 27  1  0
 12 28  1  0
 14 29  1  0
 15 30  1  0
 17 31  1  0
 18 32  1  0
 19 33  1  0
M  ISO  8  22  14  23  14  24  14  25  14  26  14  27   8  28   8  29  14
M  ISO  4  30  14  31  14  32  14  33  11
M  END
>  <minimizedAffinity>  (1) 
-5.76989031

>  <minimizedRMSD>  (1) 
1.79784143

$$$$
