
     RDKit          3D

 31 34  0  0  0  0  0  0  0  0999 V2000
   45.9410   34.6820   43.3020 C   0  0  0  0  0  0  0  0  0  0  0  0
   46.2080   33.7680   44.3430 C   0  0  0  0  0  0  0  0  0  0  0  0
   45.5660   33.9850   45.5710 C   0  0  0  0  0  0  0  0  0  0  0  0
   44.7260   35.0540   45.6960 N   0  0  0  0  0  0  0  0  0  0  0  0
   44.4990   35.9010   44.6780 C   0  0  0  0  0  0  0  0  0  0  0  0
   45.0960   35.7340   43.4730 N   0  0  0  0  0  0  0  0  0  0  0  0
   45.8690   33.0450   46.5750 N   0  0  0  0  0  0  0  0  0  0  0  0
   45.2260   32.8070   47.7360 C   0  0  0  0  0  0  0  0  0  0  0  0
   45.9200   31.7840   48.3700 C   0  0  0  0  0  0  0  0  0  0  0  0
   46.9490   31.4480   47.5700 N   0  0  0  0  0  0  0  0  0  0  0  0
   46.9410   32.2070   46.4600 C   0  0  0  0  0  0  0  0  0  0  0  0
   46.6030   34.4770   42.0060 C   0  0  0  0  0  0  0  0  0  0  0  0
   48.0220   34.2980   42.0990 N   0  0  0  0  0  0  0  0  0  0  0  0
   48.8790   35.2880   42.3880 C   0  0  0  0  0  0  0  0  0  0  0  0
   50.1560   34.8320   42.4080 N   0  0  0  0  0  0  0  0  0  0  0  0
   50.1150   33.5360   42.1290 C   0  0  0  0  0  0  0  0  0  0  0  0
   51.0270   32.5040   41.9930 C   0  0  0  0  0  0  0  0  0  0  0  0
   50.6590   31.2270   41.6870 N   0  0  0  0  0  0  0  0  0  0  0  0
   49.3440   30.9550   41.5080 C   0  0  0  0  0  0  0  0  0  0  0  0
   48.4280   31.9340   41.6320 N   0  0  0  0  0  0  0  0  0  0  0  0
   48.7960   33.2070   41.9370 C   0  0  0  0  0  0  0  0  0  0  0  0
   46.8923   32.9191   44.1974 H   0  0  0  0  0  0  0  0  0  0  0  0
   43.8136   36.7485   44.8260 H   0  0  0  0  0  0  0  0  0  0  0  0
   44.3280   33.3219   48.1082 H   0  0  0  0  0  0  0  0  0  0  0  0
   45.6747   31.3333   49.3430 H   0  0  0  0  0  0  0  0  0  0  0  0
   47.6559   32.1618   45.6252 H   0  0  0  0  0  0  0  0  0  0  0  0
   46.4057   35.3553   41.3738 H   0  0  0  0  0  0  0  0  0  0  0  0
   46.1919   33.5492   41.5815 H   0  0  0  0  0  0  0  0  0  0  0  0
   48.5856   36.3301   42.5827 H   0  0  0  0  0  0  0  0  0  0  0  0
   52.0951   32.7233   42.1380 H   0  0  0  0  0  0  0  0  0  0  0  0
   49.0239   29.9321   41.2608 H   0  0  0  0  0  0  0  0  0  0  0  0
  1  6  1  0
  1  2  2  0
  2  3  1  0
  3  4  2  0
  3  7  1  0
  5  4  1  0
  6  5  2  0
  7  8  1  0
  8  9  2  0
 10  9  1  0
 11  7  1  0
 11 10  2  0
 12 13  1  0
 12  1  1  0
 13 14  1  0
 14 15  2  0
 16 15  1  0
 17 16  2  0
 18 17  1  0
 19 20  1  0
 19 18  2  0
 20 21  2  0
 21 13  1  0
 21 16  1  0
  2 22  1  0
  5 23  1  0
  8 24  1  0
  9 25  1  0
 11 26  1  0
 12 27  1  0
 12 28  1  0
 14 29  1  0
 17 30  1  0
 19 31  1  0
M  ISO  8  22  14  23  14  24  14  25  14  26  14  27   8  28   8  29  14
M  ISO  2  30  14  31  14
M  END
>  <minimizedAffinity>  (1) 
-5.78509092

>  <minimizedRMSD>  (1) 
1.61886597

$$$$
