
     RDKit          3D

 41 42  0  0  1  0  0  0  0  0999 V2000
   46.9710   35.4060   42.0560 C   0  0  0  0  0  0  0  0  0  0  0  0
   48.0630   34.8200   41.3640 N   0  0  0  0  0  0  0  0  0  0  0  0
   49.2910   35.1550   42.0070 C   0  0  0  0  0  0  0  0  0  0  0  0
   50.1790   34.0160   42.3370 C   0  0  0  0  0  0  0  0  0  0  0  0
   49.3350   33.0030   42.8380 O   0  0  0  0  0  0  0  0  0  0  0  0
   48.7680   32.4810   41.6660 C   0  0  0  0  0  0  0  0  0  0  0  0
   47.9450   33.4880   40.8980 C   0  0  2  0  0  0  0  0  0  0  0  0
   48.4320   33.4540   39.4450 C   0  0  0  0  0  0  0  0  0  0  0  0
   47.2290   33.4720   38.5040 C   0  0  0  0  0  0  0  0  0  0  0  0
   49.1730   32.1680   39.1530 C   0  0  0  0  0  0  0  0  0  0  0  0
   45.7520   34.5390   42.2500 C   0  0  1  0  0  0  0  0  0  0  0  0
   44.7430   35.4460   44.4070 C   0  0  0  0  0  0  0  0  0  0  0  0
   45.4840   34.4520   43.6930 C   0  0  0  0  0  0  0  0  0  0  0  0
   45.9540   33.3800   44.4520 C   0  0  0  0  0  0  0  0  0  0  0  0
   45.6870   33.3460   45.7820 N   0  0  0  0  0  0  0  0  0  0  0  0
   44.9890   34.2950   46.4170 C   0  0  0  0  0  0  0  0  0  0  0  0
   44.5060   35.3670   45.7160 N   0  0  0  0  0  0  0  0  0  0  0  0
   44.5640   35.0260   41.5110 C   0  0  0  0  0  0  0  0  0  0  0  0
   46.6597   36.2987   41.4937 H   0  0  0  0  0  0  0  0  0  0  0  0
   47.3459   35.6111   43.0696 H   0  0  0  0  0  0  0  0  0  0  0  0
   49.8457   35.8335   41.3422 H   0  0  0  0  0  0  0  0  0  0  0  0
   49.0100   35.6032   42.9714 H   0  0  0  0  0  0  0  0  0  0  0  0
   50.7041   33.6662   41.4360 H   0  0  0  0  0  0  0  0  0  0  0  0
   50.9480   34.3014   43.0700 H   0  0  0  0  0  0  0  0  0  0  0  0
   49.5797   32.1246   41.0147 H   0  0  0  0  0  0  0  0  0  0  0  0
   48.0897   31.6690   41.9670 H   0  0  0  0  0  0  0  0  0  0  0  0
   46.8887   33.2069   41.0212 H   0  0  0  0  0  0  0  0  0  0  0  0
   49.0883   34.3243   39.2970 H   0  0  0  0  0  0  0  0  0  0  0  0
   46.3014   33.4859   39.0950 H   0  0  0  0  0  0  0  0  0  0  0  0
   47.2731   34.3696   37.8697 H   0  0  0  0  0  0  0  0  0  0  0  0
   47.2462   32.5735   37.8697 H   0  0  0  0  0  0  0  0  0  0  0  0
   49.4526   31.6828   40.0998 H   0  0  0  0  0  0  0  0  0  0  0  0
   48.5244   31.4946   38.5734 H   0  0  0  0  0  0  0  0  0  0  0  0
   50.0808   32.3914   38.5734 H   0  0  0  0  0  0  0  0  0  0  0  0
   45.9597   33.5428   41.8323 H   0  0  0  0  0  0  0  0  0  0  0  0
   44.3525   36.3118   43.8522 H   0  0  0  0  0  0  0  0  0  0  0  0
   46.5331   32.5733   43.9788 H   0  0  0  0  0  0  0  0  0  0  0  0
   44.8041   34.2139   47.4983 H   0  0  0  0  0  0  0  0  0  0  0  0
   43.7913   35.3428   42.2269 H   0  0  0  0  0  0  0  0  0  0  0  0
   44.8500   35.8795   40.8787 H   0  0  0  0  0  0  0  0  0  0  0  0
   44.1686   34.2174   40.8787 H   0  0  0  0  0  0  0  0  0  0  0  0
  1 11  1  0
  2  3  1  0
  2  1  1  0
  3  4  1  0
  4  5  1  0
  6  5  1  0
  7  2  1  0
  7  6  1  0
  8  7  1  0
  9  8  1  0
 10  8  1  0
 11 13  1  0
 12 17  2  0
 13 12  1  0
 13 14  2  0
 14 15  1  0
 15 16  2  0
 17 16  1  0
 18 11  1  0
  1 19  1  0
  1 20  1  0
  3 21  1  0
  3 22  1  0
  4 23  1  0
  4 24  1  0
  6 25  1  0
  6 26  1  0
  7 27  1  6
  8 28  1  0
  9 29  1  0
  9 30  1  0
  9 31  1  0
 10 32  1  0
 10 33  1  0
 10 34  1  0
 11 35  1  6
 12 36  1  0
 14 37  1  0
 16 38  1  0
 18 39  1  0
 18 40  1  0
 18 41  1  0
M  ISO  8  19   8  20   8  21  13  22  13  23  13  24  13  25  13  26  13
M  ISO  8  27  13  28   8  29   8  30   8  31   8  32   8  33   8  34   8
M  ISO  7  35   8  36  14  37  14  38  14  39   8  40   8  41   8
M  END
>  <minimizedAffinity>  (1) 
-4.32640219

>  <minimizedRMSD>  (1) 
0.954296589

$$$$
