
     RDKit          3D

 27 29  0  0  0  0  0  0  0  0999 V2000
   46.0300   34.8930   43.2670 C   0  0  0  0  0  0  0  0  0  0  0  0
   46.2980   33.9350   44.2690 C   0  0  0  0  0  0  0  0  0  0  0  0
   45.5990   34.0790   45.4570 C   0  0  0  0  0  0  0  0  0  0  0  0
   44.7180   35.1090   45.5870 N   0  0  0  0  0  0  0  0  0  0  0  0
   44.4910   36.0000   44.6090 C   0  0  0  0  0  0  0  0  0  0  0  0
   45.1460   35.9040   43.4320 N   0  0  0  0  0  0  0  0  0  0  0  0
   45.8730   33.1180   46.4530 N   0  0  0  0  0  0  0  0  0  0  0  0
   45.2100   32.8570   47.6120 C   0  0  0  0  0  0  0  0  0  0  0  0
   45.8900   31.8190   48.2250 C   0  0  0  0  0  0  0  0  0  0  0  0
   46.9260   31.4950   47.4230 N   0  0  0  0  0  0  0  0  0  0  0  0
   46.9370   32.2710   46.3400 C   0  0  0  0  0  0  0  0  0  0  0  0
   46.7480   34.7790   41.9930 C   0  0  0  0  0  0  0  0  0  0  0  0
   45.8610   34.2200   40.9150 C   0  0  0  0  0  0  0  0  0  0  0  0
   46.3280   33.2350   40.0530 C   0  0  0  0  0  0  0  0  0  0  0  0
   45.3030   32.9570   39.2190 N   0  0  0  0  0  0  0  0  0  0  0  0
   44.2460   33.7120   39.5220 C   0  0  0  0  0  0  0  0  0  0  0  0
   44.5980   34.4840   40.5650 N   0  0  0  0  0  0  0  0  0  0  0  0
   47.0209   33.1202   44.1153 H   0  0  0  0  0  0  0  0  0  0  0  0
   43.7672   36.8131   44.7672 H   0  0  0  0  0  0  0  0  0  0  0  0
   44.3118   33.3692   47.9874 H   0  0  0  0  0  0  0  0  0  0  0  0
   45.6342   31.3470   49.1851 H   0  0  0  0  0  0  0  0  0  0  0  0
   47.6632   32.2358   45.5145 H   0  0  0  0  0  0  0  0  0  0  0  0
   47.0977   35.7764   41.6881 H   0  0  0  0  0  0  0  0  0  0  0  0
   47.5980   34.0950   42.1331 H   0  0  0  0  0  0  0  0  0  0  0  0
   47.3276   32.7759   40.0506 H   0  0  0  0  0  0  0  0  0  0  0  0
   43.2702   33.7045   39.0143 H   0  0  0  0  0  0  0  0  0  0  0  0
   43.9872   35.1742   41.0247 H   0  0  0  0  0  0  0  0  0  0  0  0
  1  6  1  0
  1  2  2  0
  2  3  1  0
  3  4  2  0
  3  7  1  0
  5  4  1  0
  6  5  2  0
  7  8  1  0
  8  9  2  0
 10  9  1  0
 11  7  1  0
 11 10  2  0
 12  1  1  0
 13 12  1  0
 14 13  2  0
 15 16  2  0
 15 14  1  0
 16 17  1  0
 17 13  1  0
  2 18  1  0
  5 19  1  0
  8 20  1  0
  9 21  1  0
 11 22  1  0
 12 23  1  0
 12 24  1  0
 14 25  1  0
 16 26  1  0
 17 27  1  0
M  ISO  8  18  14  19  14  20  14  21  14  22  14  23   8  24   8  25  14
M  ISO  2  26  14  27   9
M  END
>  <minimizedAffinity>  (1) 
-5.14575148

>  <minimizedRMSD>  (1) 
0.414315879

$$$$
