
     RDKit          3D

 26 28  0  0  0  0  0  0  0  0999 V2000
   45.9010   34.9920   43.3440 C   0  0  0  0  0  0  0  0  0  0  0  0
   46.2040   33.9610   44.2560 C   0  0  0  0  0  0  0  0  0  0  0  0
   45.5750   34.0200   45.5080 C   0  0  0  0  0  0  0  0  0  0  0  0
   44.7260   35.0450   45.7680 N   0  0  0  0  0  0  0  0  0  0  0  0
   44.4650   36.0130   44.8630 C   0  0  0  0  0  0  0  0  0  0  0  0
   45.0470   36.0000   43.6420 N   0  0  0  0  0  0  0  0  0  0  0  0
   45.9090   32.9760   46.3800 N   0  0  0  0  0  0  0  0  0  0  0  0
   45.2850   32.6150   47.5450 C   0  0  0  0  0  0  0  0  0  0  0  0
   46.0020   31.5170   48.0340 C   0  0  0  0  0  0  0  0  0  0  0  0
   47.0030   31.2690   47.1620 N   0  0  0  0  0  0  0  0  0  0  0  0
   46.9630   32.1470   46.1470 C   0  0  0  0  0  0  0  0  0  0  0  0
   46.5590   34.9330   42.0320 C   0  0  0  0  0  0  0  0  0  0  0  0
   45.5830   34.2830   41.0800 C   0  0  0  0  0  0  0  0  0  0  0  0
   44.1920   34.7510   41.0280 C   0  0  0  0  0  0  0  0  0  0  0  0
   43.4870   33.6740   39.7660 S   0  0  0  0  0  0  0  0  0  0  0  0
   45.0990   32.7740   39.4900 C   0  0  0  0  0  0  0  0  0  0  0  0
   46.0920   33.3090   40.3440 N   0  0  0  0  0  0  0  0  0  0  0  0
   46.9002   33.1493   43.9982 H   0  0  0  0  0  0  0  0  0  0  0  0
   43.7688   36.8240   45.1227 H   0  0  0  0  0  0  0  0  0  0  0  0
   44.4037   33.0895   48.0012 H   0  0  0  0  0  0  0  0  0  0  0  0
   45.7895   30.9591   48.9579 H   0  0  0  0  0  0  0  0  0  0  0  0
   47.6513   32.1884   45.2900 H   0  0  0  0  0  0  0  0  0  0  0  0
   46.8054   35.9479   41.6865 H   0  0  0  0  0  0  0  0  0  0  0  0
   47.4961   34.3596   42.0872 H   0  0  0  0  0  0  0  0  0  0  0  0
   43.7069   35.5501   41.6078 H   0  0  0  0  0  0  0  0  0  0  0  0
   45.2531   31.9537   38.7735 H   0  0  0  0  0  0  0  0  0  0  0  0
  1  6  1  0
  1  2  2  0
  2  3  1  0
  3  4  2  0
  3  7  1  0
  5  4  1  0
  6  5  2  0
  7  8  1  0
  8  9  2  0
 10  9  1  0
 11  7  1  0
 11 10  2  0
 12  1  1  0
 13 12  1  0
 14 13  2  0
 15 14  1  0
 16 15  1  0
 16 17  2  0
 17 13  1  0
  2 18  1  0
  5 19  1  0
  8 20  1  0
  9 21  1  0
 11 22  1  0
 12 23  1  0
 12 24  1  0
 14 25  1  0
 16 26  1  0
M  ISO  8  18  14  19  14  20  14  21  14  22  14  23   8  24   8  25  14
M  ISO  1  26  14
M  END
>  <minimizedAffinity>  (1) 
-4.97539854

>  <minimizedRMSD>  (1) 
0.569118917

$$$$
