
     RDKit          3D

 27 29  0  0  0  0  0  0  0  0999 V2000
   45.8870   34.9570   43.3490 C   0  0  0  0  0  0  0  0  0  0  0  0
   46.1760   33.9530   44.2870 C   0  0  0  0  0  0  0  0  0  0  0  0
   45.5640   34.0250   45.5380 C   0  0  0  0  0  0  0  0  0  0  0  0
   44.7130   35.0660   45.7930 N   0  0  0  0  0  0  0  0  0  0  0  0
   44.4570   36.0140   44.8710 C   0  0  0  0  0  0  0  0  0  0  0  0
   45.0370   35.9740   43.6410 N   0  0  0  0  0  0  0  0  0  0  0  0
   45.8930   32.9930   46.4340 N   0  0  0  0  0  0  0  0  0  0  0  0
   45.2790   32.6330   47.5820 C   0  0  0  0  0  0  0  0  0  0  0  0
   46.0050   31.5510   48.0850 C   0  0  0  0  0  0  0  0  0  0  0  0
   47.0160   31.3090   47.2270 N   0  0  0  0  0  0  0  0  0  0  0  0
   46.9690   32.1790   46.2060 C   0  0  0  0  0  0  0  0  0  0  0  0
   46.5290   34.8900   42.0260 C   0  0  0  0  0  0  0  0  0  0  0  0
   45.5880   34.2920   41.0300 C   0  0  0  0  0  0  0  0  0  0  0  0
   44.2380   34.5850   40.8820 C   0  0  0  0  0  0  0  0  0  0  0  0
   43.7600   33.8020   39.8440 C   0  0  0  0  0  0  0  0  0  0  0  0
   44.8470   33.0610   39.4030 C   0  0  0  0  0  0  0  0  0  0  0  0
   45.8890   33.3840   40.1270 O   0  0  0  0  0  0  0  0  0  0  0  0
   46.8661   33.1323   44.0418 H   0  0  0  0  0  0  0  0  0  0  0  0
   43.7671   36.8347   45.1168 H   0  0  0  0  0  0  0  0  0  0  0  0
   44.3881   33.0976   48.0298 H   0  0  0  0  0  0  0  0  0  0  0  0
   45.7910   30.9978   49.0114 H   0  0  0  0  0  0  0  0  0  0  0  0
   47.6608   32.2281   45.3522 H   0  0  0  0  0  0  0  0  0  0  0  0
   46.8044   35.9048   41.7031 H   0  0  0  0  0  0  0  0  0  0  0  0
   47.4298   34.2622   42.0934 H   0  0  0  0  0  0  0  0  0  0  0  0
   43.6571   35.3044   41.4778 H   0  0  0  0  0  0  0  0  0  0  0  0
   42.7329   33.7736   39.4513 H   0  0  0  0  0  0  0  0  0  0  0  0
   44.8353   32.3267   38.5840 H   0  0  0  0  0  0  0  0  0  0  0  0
  1  6  1  0
  1  2  2  0
  2  3  1  0
  3  4  2  0
  3  7  1  0
  5  4  1  0
  6  5  2  0
  7  8  1  0
  8  9  2  0
 10  9  1  0
 11  7  1  0
 11 10  2  0
 12  1  1  0
 13 12  1  0
 14 13  2  0
 15 14  1  0
 16 15  2  0
 16 17  1  0
 17 13  1  0
  2 18  1  0
  5 19  1  0
  8 20  1  0
  9 21  1  0
 11 22  1  0
 12 23  1  0
 12 24  1  0
 14 25  1  0
 15 26  1  0
 16 27  1  0
M  ISO  8  18  14  19  14  20  14  21  14  22  14  23   8  24   8  25  14
M  ISO  2  26  14  27  14
M  END
>  <minimizedAffinity>  (1) 
-5.07809544

>  <minimizedRMSD>  (1) 
0.602063656

$$$$
