
     RDKit          3D

 21 22  0  0  0  0  0  0  0  0999 V2000
   46.1070   34.7530   43.4000 C   0  0  0  0  0  0  0  0  0  0  0  0
   46.3540   33.8170   44.4310 C   0  0  0  0  0  0  0  0  0  0  0  0
   45.6260   33.9640   45.6050 C   0  0  0  0  0  0  0  0  0  0  0  0
   44.7260   34.9850   45.7040 N   0  0  0  0  0  0  0  0  0  0  0  0
   44.5200   35.8550   44.6990 C   0  0  0  0  0  0  0  0  0  0  0  0
   45.2040   35.7560   43.5350 N   0  0  0  0  0  0  0  0  0  0  0  0
   45.8930   33.0210   46.6120 N   0  0  0  0  0  0  0  0  0  0  0  0
   45.2350   32.7570   47.7590 C   0  0  0  0  0  0  0  0  0  0  0  0
   45.9320   31.7230   48.3850 C   0  0  0  0  0  0  0  0  0  0  0  0
   46.9790   31.4060   47.5950 N   0  0  0  0  0  0  0  0  0  0  0  0
   46.9730   32.1850   46.5080 C   0  0  0  0  0  0  0  0  0  0  0  0
   46.8740   34.6080   42.1500 C   0  0  0  0  0  0  0  0  0  0  0  0
   46.1040   34.4560   41.0160 O   0  0  0  0  0  0  0  0  0  0  0  0
   47.0898   33.0085   44.3088 H   0  0  0  0  0  0  0  0  0  0  0  0
   43.7825   36.6613   44.8252 H   0  0  0  0  0  0  0  0  0  0  0  0
   44.3279   33.2579   48.1282 H   0  0  0  0  0  0  0  0  0  0  0  0
   45.6752   31.2528   49.3457 H   0  0  0  0  0  0  0  0  0  0  0  0
   47.7005   32.1592   45.6833 H   0  0  0  0  0  0  0  0  0  0  0  0
   47.4964   35.5061   42.0237 H   0  0  0  0  0  0  0  0  0  0  0  0
   47.4627   33.6844   42.2520 H   0  0  0  0  0  0  0  0  0  0  0  0
   45.1668   34.2710   41.2758 H   0  0  0  0  0  0  0  0  0  0  0  0
  1  6  2  0
  1  2  1  0
  2  3  2  0
  3  4  1  0
  3  7  1  0
  5  4  2  0
  6  5  1  0
  7  8  1  0
  8  9  2  0
 10  9  1  0
 11  7  1  0
 11 10  2  0
 12  1  1  0
 13 12  1  0
  2 14  1  0
  5 15  1  0
  8 16  1  0
  9 17  1  0
 11 18  1  0
 12 19  1  0
 12 20  1  0
 13 21  1  0
M  ISO  8  14  14  15  14  16  14  17  14  18  14  19   8  20   8  21   3
M  END
>  <minimizedAffinity>  (1) 
-4.21829462

>  <minimizedRMSD>  (1) 
0.241362929

$$$$
