
     RDKit          3D

 46 50  0  0  0  0  0  0  0  0999 V2000
   48.0450   33.9480   42.0940 N   0  0  0  0  0  0  0  0  0  0  0  0
   47.9380   35.2940   41.8990 C   0  0  0  0  0  0  0  0  0  0  0  0
   49.2170   36.0740   41.9610 C   0  0  0  0  0  0  0  0  0  0  0  0
   50.2450   35.4680   42.7990 N   0  0  0  0  0  0  0  0  0  0  0  0
   50.4230   34.0530   42.6040 C   0  0  0  0  0  0  0  0  0  0  0  0
   49.2040   33.2510   42.2550 C   0  0  0  0  0  0  0  0  0  0  0  0
   49.5510   31.9120   42.1690 N   0  0  0  0  0  0  0  0  0  0  0  0
   49.0510   30.8410   42.8390 C   0  0  0  0  0  0  0  0  0  0  0  0
   49.6580   29.6740   42.5830 N   0  0  0  0  0  0  0  0  0  0  0  0
   50.6230   29.9540   41.6890 C   0  0  0  0  0  0  0  0  0  0  0  0
   51.5280   29.1170   41.1090 C   0  0  0  0  0  0  0  0  0  0  0  0
   51.5280   27.8880   41.3860 O   0  0  0  0  0  0  0  0  0  0  0  0
   52.4190   29.6130   40.2400 N   0  0  0  0  0  0  0  0  0  0  0  0
   52.3510   30.9270   40.0010 C   0  0  0  0  0  0  0  0  0  0  0  0
   53.3110   31.4580   39.0660 N   0  0  0  0  0  0  0  0  0  0  0  0
   51.4590   31.7300   40.5800 N   0  0  0  0  0  0  0  0  0  0  0  0
   50.5460   31.3050   41.4510 C   0  0  0  0  0  0  0  0  0  0  0  0
   46.8350   33.2340   42.3500 C   0  0  0  0  0  0  0  0  0  0  0  0
   46.1940   33.6630   43.6370 C   0  0  0  0  0  0  0  0  0  0  0  0
   46.4740   32.8770   44.7930 C   0  0  0  0  0  0  0  0  0  0  0  0
   45.8760   33.2520   45.9800 C   0  0  0  0  0  0  0  0  0  0  0  0
   45.0540   34.3520   45.9700 N   0  0  0  0  0  0  0  0  0  0  0  0
   44.8200   35.0620   44.8570 C   0  0  0  0  0  0  0  0  0  0  0  0
   45.3820   34.7290   43.6850 N   0  0  0  0  0  0  0  0  0  0  0  0
   46.1860   32.4620   47.1000 N   0  0  0  0  0  0  0  0  0  0  0  0
   45.5680   32.4340   48.3040 C   0  0  0  0  0  0  0  0  0  0  0  0
   46.2810   31.4870   49.0640 C   0  0  0  0  0  0  0  0  0  0  0  0
   47.2740   31.0010   48.2850 N   0  0  0  0  0  0  0  0  0  0  0  0
   47.2220   31.5860   47.0930 C   0  0  0  0  0  0  0  0  0  0  0  0
   47.2636   35.6927   42.6711 H   0  0  0  0  0  0  0  0  0  0  0  0
   47.5683   35.4147   40.8700 H   0  0  0  0  0  0  0  0  0  0  0  0
   49.6146   36.1668   40.9396 H   0  0  0  0  0  0  0  0  0  0  0  0
   48.9731   37.0469   42.4126 H   0  0  0  0  0  0  0  0  0  0  0  0
   50.7999   36.0097   43.4769 H   0  0  0  0  0  0  0  0  0  0  0  0
   51.4107   33.5798   42.7065 H   0  0  0  0  0  0  0  0  0  0  0  0
   48.2085   30.9257   43.5411 H   0  0  0  0  0  0  0  0  0  0  0  0
   53.1194   29.0139   39.7803 H   0  0  0  0  0  0  0  0  0  0  0  0
   53.3090   32.4631   38.8408 H   0  0  0  0  0  0  0  0  0  0  0  0
   53.9990   30.8324   38.6231 H   0  0  0  0  0  0  0  0  0  0  0  0
   46.1321   33.4177   41.5241 H   0  0  0  0  0  0  0  0  0  0  0  0
   47.0806   32.1649   42.4312 H   0  0  0  0  0  0  0  0  0  0  0  0
   47.1416   32.0043   44.7414 H   0  0  0  0  0  0  0  0  0  0  0  0
   44.1534   35.9357   44.9057 H   0  0  0  0  0  0  0  0  0  0  0  0
   44.6957   33.0245   48.6208 H   0  0  0  0  0  0  0  0  0  0  0  0
   46.0688   31.1953   50.1032 H   0  0  0  0  0  0  0  0  0  0  0  0
   47.9001   31.3937   46.2485 H   0  0  0  0  0  0  0  0  0  0  0  0
  1  6  1  0
  1 18  1  0
  2  3  1  0
  2  1  1  0
  3  4  1  0
  5  4  1  0
  6  5  2  0
  7  6  1  0
  7  8  1  0
  9  8  2  0
 10  9  1  0
 11 12  2  0
 11 10  1  0
 13 11  1  0
 14 13  1  0
 14 16  2  0
 15 14  1  0
 16 17  1  0
 17 10  2  0
 17  7  1  0
 18 19  1  0
 19 24  1  0
 19 20  2  0
 20 21  1  0
 21 25  1  0
 22 21  2  0
 23 22  1  0
 24 23  2  0
 25 26  1  0
 26 27  2  0
 28 27  1  0
 29 25  1  0
 29 28  2  0
  2 30  1  0
  2 31  1  0
  3 32  1  0
  3 33  1  0
  4 34  1  0
  5 35  1  0
  8 36  1  0
 13 37  1  0
 15 38  1  0
 15 39  1  0
 18 40  1  0
 18 41  1  0
 20 42  1  0
 23 43  1  0
 26 44  1  0
 27 45  1  0
 29 46  1  0
M  ISO  8  30  13  31  13  32  13  33  13  35  13  36  14  37   9  40   8
M  ISO  6  41   8  42  14  43  14  44  14  45  14  46  14
M  END
>  <minimizedAffinity>  (1) 
-6.68803883

>  <minimizedRMSD>  (1) 
1.01723826

$$$$
