
     RDKit          3D

 48 52  0  0  0  0  0  0  0  0999 V2000
   47.8200   34.1570   41.8930 N   0  0  0  0  0  0  0  0  0  0  0  0
   48.0390   35.4970   41.7710 C   0  0  0  0  0  0  0  0  0  0  0  0
   49.4570   35.9540   41.9440 C   0  0  0  0  0  0  0  0  0  0  0  0
   50.2460   35.1060   42.8220 N   0  0  0  0  0  0  0  0  0  0  0  0
   50.1010   33.7100   42.5660 C   0  0  0  0  0  0  0  0  0  0  0  0
   48.7700   33.1890   42.0970 C   0  0  0  0  0  0  0  0  0  0  0  0
   48.6230   31.7670   41.9720 C   0  0  0  0  0  0  0  0  0  0  0  0
   47.3940   31.2600   41.5170 C   0  0  0  0  0  0  0  0  0  0  0  0
   47.0840   29.9310   41.3830 C   0  0  0  0  0  0  0  0  0  0  0  0
   48.0210   28.9770   41.7090 C   0  0  0  0  0  0  0  0  0  0  0  0
   49.2500   29.3970   42.1670 C   0  0  0  0  0  0  0  0  0  0  0  0
   50.1730   28.4460   42.5430 C   0  0  0  0  0  0  0  0  0  0  0  0
   51.4020   28.7980   43.0630 C   0  0  0  0  0  0  0  0  0  0  0  0
   51.6480   30.1720   43.1830 C   0  0  0  0  0  0  0  0  0  0  0  0
   50.7000   31.0870   42.7940 C   0  0  0  0  0  0  0  0  0  0  0  0
   49.4800   30.7420   42.2720 C   0  0  0  0  0  0  0  0  0  0  0  0
   46.4520   33.7450   42.0220 C   0  0  0  0  0  0  0  0  0  0  0  0
   45.8610   34.1720   43.3250 C   0  0  0  0  0  0  0  0  0  0  0  0
   46.1440   33.3750   44.4720 C   0  0  0  0  0  0  0  0  0  0  0  0
   45.5950   33.7660   45.6760 C   0  0  0  0  0  0  0  0  0  0  0  0
   44.8110   34.8980   45.6990 N   0  0  0  0  0  0  0  0  0  0  0  0
   44.5720   35.6180   44.5940 C   0  0  0  0  0  0  0  0  0  0  0  0
   45.0870   35.2730   43.4000 N   0  0  0  0  0  0  0  0  0  0  0  0
   45.9060   32.9540   46.7800 N   0  0  0  0  0  0  0  0  0  0  0  0
   45.3050   32.9180   47.9920 C   0  0  0  0  0  0  0  0  0  0  0  0
   46.0050   31.9400   48.7260 C   0  0  0  0  0  0  0  0  0  0  0  0
   46.9700   31.4490   47.9340 N   0  0  0  0  0  0  0  0  0  0  0  0
   46.9290   32.0510   46.7430 C   0  0  0  0  0  0  0  0  0  0  0  0
   47.7084   35.8012   40.7669 H   0  0  0  0  0  0  0  0  0  0  0  0
   47.4766   35.9636   42.5932 H   0  0  0  0  0  0  0  0  0  0  0  0
   49.9383   35.9716   40.9551 H   0  0  0  0  0  0  0  0  0  0  0  0
   49.4171   36.9487   42.4119 H   0  0  0  0  0  0  0  0  0  0  0  0
   50.8557   35.4798   43.5633 H   0  0  0  0  0  0  0  0  0  0  0  0
   50.9496   33.0250   42.7094 H   0  0  0  0  0  0  0  0  0  0  0  0
   46.6165   31.9894   41.2460 H   0  0  0  0  0  0  0  0  0  0  0  0
   46.0917   29.6289   41.0169 H   0  0  0  0  0  0  0  0  0  0  0  0
   47.7938   27.9056   41.6063 H   0  0  0  0  0  0  0  0  0  0  0  0
   49.9246   27.3808   42.4260 H   0  0  0  0  0  0  0  0  0  0  0  0
   52.1443   28.0446   43.3653 H   0  0  0  0  0  0  0  0  0  0  0  0
   52.6077   30.5209   43.5919 H   0  0  0  0  0  0  0  0  0  0  0  0
   50.9327   32.1561   42.9077 H   0  0  0  0  0  0  0  0  0  0  0  0
   45.8678   34.1911   41.2036 H   0  0  0  0  0  0  0  0  0  0  0  0
   46.4220   32.6463   41.9785 H   0  0  0  0  0  0  0  0  0  0  0  0
   46.7782   32.4791   44.4000 H   0  0  0  0  0  0  0  0  0  0  0  0
   43.9383   36.5143   44.6653 H   0  0  0  0  0  0  0  0  0  0  0  0
   44.4517   33.5234   48.3318 H   0  0  0  0  0  0  0  0  0  0  0  0
   45.7975   31.6341   49.7620 H   0  0  0  0  0  0  0  0  0  0  0  0
   47.5958   31.8556   45.8902 H   0  0  0  0  0  0  0  0  0  0  0  0
  1 17  1  0
  1  6  1  0
  2  1  1  0
  2  3  1  0
  3  4  1  0
  5  4  1  0
  6  5  2  0
  7  6  1  0
  7 16  1  0
  8  7  2  0
  9  8  1  0
  9 10  2  0
 10 11  1  0
 11 16  2  0
 11 12  1  0
 12 13  2  0
 13 14  1  0
 15 14  2  0
 16 15  1  0
 17 18  1  0
 18 23  1  0
 18 19  2  0
 19 20  1  0
 20 21  2  0
 20 24  1  0
 22 21  1  0
 23 22  2  0
 24 25  1  0
 25 26  2  0
 27 26  1  0
 28 24  1  0
 28 27  2  0
  2 29  1  0
  2 30  1  0
  3 31  1  0
  3 32  1  0
  4 33  1  0
  5 34  1  0
  8 35  1  0
  9 36  1  0
 10 37  1  0
 12 38  1  0
 13 39  1  0
 14 40  1  0
 15 41  1  0
 17 42  1  0
 17 43  1  0
 19 44  1  0
 22 45  1  0
 25 46  1  0
 26 47  1  0
 28 48  1  0
M  ISO  8  29  13  30  13  31  13  32  13  34  13  35  14  36  14  37  14
M  ISO  8  38  14  39  14  40  14  41  14  42   8  43   8  44  14  45  14
M  ISO  3  46  14  47  14  48  14
M  END
>  <minimizedAffinity>  (1) 
-6.39350891

>  <minimizedRMSD>  (1) 
0.174696818

$$$$
