
     RDKit          3D

 46 50  0  0  0  0  0  0  0  0999 V2000
   47.7580   34.2110   41.9090 N   0  0  0  0  0  0  0  0  0  0  0  0
   48.0610   35.5200   41.6610 C   0  0  0  0  0  0  0  0  0  0  0  0
   49.4910   35.9160   41.8800 C   0  0  0  0  0  0  0  0  0  0  0  0
   50.1940   35.1110   42.8570 N   0  0  0  0  0  0  0  0  0  0  0  0
   49.9880   33.6930   42.7170 C   0  0  0  0  0  0  0  0  0  0  0  0
   48.6430   33.2230   42.2450 C   0  0  0  0  0  0  0  0  0  0  0  0
   48.6010   31.8090   42.1870 C   0  0  0  0  0  0  0  0  0  0  0  0
   47.6800   30.8570   41.8150 C   0  0  0  0  0  0  0  0  0  0  0  0
   48.1100   29.5880   41.7780 N   0  0  0  0  0  0  0  0  0  0  0  0
   49.4030   29.6440   42.1420 C   0  0  0  0  0  0  0  0  0  0  0  0
   50.2730   28.5790   42.2260 C   0  0  0  0  0  0  0  0  0  0  0  0
   51.5780   28.8220   42.5830 C   0  0  0  0  0  0  0  0  0  0  0  0
   51.9650   30.1180   42.8410 C   0  0  0  0  0  0  0  0  0  0  0  0
   51.0370   31.1230   42.7360 C   0  0  0  0  0  0  0  0  0  0  0  0
   49.7060   30.9700   42.3880 C   0  0  0  0  0  0  0  0  0  0  0  0
   46.3710   33.8820   42.0090 C   0  0  0  0  0  0  0  0  0  0  0  0
   45.7990   34.2580   43.3170 C   0  0  0  0  0  0  0  0  0  0  0  0
   46.0690   33.4390   44.4470 C   0  0  0  0  0  0  0  0  0  0  0  0
   45.5290   33.8230   45.6720 C   0  0  0  0  0  0  0  0  0  0  0  0
   44.7710   34.9630   45.7260 N   0  0  0  0  0  0  0  0  0  0  0  0
   44.5370   35.7130   44.6410 C   0  0  0  0  0  0  0  0  0  0  0  0
   45.0430   35.3700   43.4410 N   0  0  0  0  0  0  0  0  0  0  0  0
   45.8280   32.9830   46.7590 N   0  0  0  0  0  0  0  0  0  0  0  0
   45.2620   32.9300   47.9780 C   0  0  0  0  0  0  0  0  0  0  0  0
   45.9360   31.9230   48.6810 C   0  0  0  0  0  0  0  0  0  0  0  0
   46.8650   31.4200   47.8650 N   0  0  0  0  0  0  0  0  0  0  0  0
   46.8290   32.0430   46.6820 C   0  0  0  0  0  0  0  0  0  0  0  0
   47.4352   36.1409   42.3188 H   0  0  0  0  0  0  0  0  0  0  0  0
   47.8724   35.6702   40.5878 H   0  0  0  0  0  0  0  0  0  0  0  0
   50.0216   35.8323   40.9201 H   0  0  0  0  0  0  0  0  0  0  0  0
   49.4745   36.9428   42.2742 H   0  0  0  0  0  0  0  0  0  0  0  0
   50.7913   35.5186   43.5905 H   0  0  0  0  0  0  0  0  0  0  0  0
   50.7905   32.9771   42.9485 H   0  0  0  0  0  0  0  0  0  0  0  0
   46.6435   31.1237   41.5609 H   0  0  0  0  0  0  0  0  0  0  0  0
   47.5667   28.7502   41.5251 H   0  0  0  0  0  0  0  0  0  0  0  0
   49.9305   27.5558   42.0119 H   0  0  0  0  0  0  0  0  0  0  0  0
   52.3002   27.9959   42.6612 H   0  0  0  0  0  0  0  0  0  0  0  0
   53.0028   30.3442   43.1270 H   0  0  0  0  0  0  0  0  0  0  0  0
   51.3828   32.1455   42.9481 H   0  0  0  0  0  0  0  0  0  0  0  0
   45.8232   34.4140   41.2172 H   0  0  0  0  0  0  0  0  0  0  0  0
   46.2751   32.7916   41.9006 H   0  0  0  0  0  0  0  0  0  0  0  0
   46.6843   32.5316   44.3569 H   0  0  0  0  0  0  0  0  0  0  0  0
   43.9232   36.6214   44.7314 H   0  0  0  0  0  0  0  0  0  0  0  0
   44.4349   33.5531   48.3489 H   0  0  0  0  0  0  0  0  0  0  0  0
   45.7364   31.6053   49.7150 H   0  0  0  0  0  0  0  0  0  0  0  0
   47.4753   31.8423   45.8148 H   0  0  0  0  0  0  0  0  0  0  0  0
  1 16  1  0
  1  6  1  0
  2  3  1  0
  2  1  1  0
  3  4  1  0
  5  4  1  0
  6  5  2  0
  7  6  1  0
  7 15  1  0
  8  7  2  0
  9  8  1  0
  9 10  1  0
 10 11  2  0
 10 15  1  0
 11 12  1  0
 12 13  2  0
 14 13  1  0
 15 14  2  0
 16 17  1  0
 17 22  1  0
 17 18  2  0
 18 19  1  0
 19 20  2  0
 19 23  1  0
 21 20  1  0
 22 21  2  0
 23 24  1  0
 24 25  2  0
 26 25  1  0
 27 23  1  0
 27 26  2  0
  2 28  1  0
  2 29  1  0
  3 30  1  0
  3 31  1  0
  4 32  1  0
  5 33  1  0
  8 34  1  0
  9 35  1  0
 11 36  1  0
 12 37  1  0
 13 38  1  0
 14 39  1  0
 16 40  1  0
 16 41  1  0
 18 42  1  0
 21 43  1  0
 24 44  1  0
 25 45  1  0
 27 46  1  0
M  ISO  8  28  13  29  13  30  13  31  13  33  13  34  14  35   9  36  14
M  ISO  8  37  14  38  14  39  14  40   8  41   8  42  14  43  14  44  14
M  ISO  2  45  14  46  14
M  END
>  <minimizedAffinity>  (1) 
-6.37781429

>  <minimizedRMSD>  (1) 
0.337586582

$$$$
