
     RDKit          3D

 43 47  0  0  0  0  0  0  0  0999 V2000
   47.7930   34.1920   41.8910 N   0  0  0  0  0  0  0  0  0  0  0  0
   48.0520   35.5110   41.6800 C   0  0  0  0  0  0  0  0  0  0  0  0
   49.4650   35.9640   41.8990 C   0  0  0  0  0  0  0  0  0  0  0  0
   50.2140   35.1350   42.8360 N   0  0  0  0  0  0  0  0  0  0  0  0
   50.0500   33.7160   42.6560 C   0  0  0  0  0  0  0  0  0  0  0  0
   48.7140   33.2320   42.1780 C   0  0  0  0  0  0  0  0  0  0  0  0
   48.7290   31.8480   42.1360 N   0  0  0  0  0  0  0  0  0  0  0  0
   47.7010   31.0320   41.8560 C   0  0  0  0  0  0  0  0  0  0  0  0
   48.0170   29.7070   41.9650 N   0  0  0  0  0  0  0  0  0  0  0  0
   49.3340   29.6510   42.3360 C   0  0  0  0  0  0  0  0  0  0  0  0
   50.1150   28.5490   42.5770 C   0  0  0  0  0  0  0  0  0  0  0  0
   51.3870   28.7960   42.9370 N   0  0  0  0  0  0  0  0  0  0  0  0
   51.8320   30.0600   43.0460 C   0  0  0  0  0  0  0  0  0  0  0  0
   50.9990   31.0740   42.7920 N   0  0  0  0  0  0  0  0  0  0  0  0
   49.7120   30.9660   42.4250 C   0  0  0  0  0  0  0  0  0  0  0  0
   46.4240   33.8150   42.0110 C   0  0  0  0  0  0  0  0  0  0  0  0
   45.8360   34.2380   43.3240 C   0  0  0  0  0  0  0  0  0  0  0  0
   46.1220   33.4230   44.4600 C   0  0  0  0  0  0  0  0  0  0  0  0
   45.5720   33.7990   45.6690 C   0  0  0  0  0  0  0  0  0  0  0  0
   44.7920   34.9250   45.7040 N   0  0  0  0  0  0  0  0  0  0  0  0
   44.5480   35.6620   44.6130 C   0  0  0  0  0  0  0  0  0  0  0  0
   45.0640   35.3310   43.4170 N   0  0  0  0  0  0  0  0  0  0  0  0
   45.8870   32.9670   46.7620 N   0  0  0  0  0  0  0  0  0  0  0  0
   45.2960   32.9180   47.9790 C   0  0  0  0  0  0  0  0  0  0  0  0
   45.9930   31.9180   48.6890 C   0  0  0  0  0  0  0  0  0  0  0  0
   46.9400   31.4320   47.8810 N   0  0  0  0  0  0  0  0  0  0  0  0
   46.8990   32.0530   46.6990 C   0  0  0  0  0  0  0  0  0  0  0  0
   47.7864   35.7401   40.6374 H   0  0  0  0  0  0  0  0  0  0  0  0
   47.4568   36.0465   42.4343 H   0  0  0  0  0  0  0  0  0  0  0  0
   49.9869   35.9500   40.9308 H   0  0  0  0  0  0  0  0  0  0  0  0
   49.4124   36.9718   42.3367 H   0  0  0  0  0  0  0  0  0  0  0  0
   50.8149   35.5344   43.5710 H   0  0  0  0  0  0  0  0  0  0  0  0
   50.8723   33.0148   42.8611 H   0  0  0  0  0  0  0  0  0  0  0  0
   46.7031   31.3938   41.5674 H   0  0  0  0  0  0  0  0  0  0  0  0
   49.7243   27.5252   42.4815 H   0  0  0  0  0  0  0  0  0  0  0  0
   52.8728   30.2580   43.3417 H   0  0  0  0  0  0  0  0  0  0  0  0
   45.8533   34.2875   41.1980 H   0  0  0  0  0  0  0  0  0  0  0  0
   46.3681   32.7180   41.9523 H   0  0  0  0  0  0  0  0  0  0  0  0
   46.7569   32.5287   44.3754 H   0  0  0  0  0  0  0  0  0  0  0  0
   43.9127   36.5560   44.6973 H   0  0  0  0  0  0  0  0  0  0  0  0
   44.4531   33.5272   48.3373 H   0  0  0  0  0  0  0  0  0  0  0  0
   45.7930   31.5962   49.7217 H   0  0  0  0  0  0  0  0  0  0  0  0
   47.5565   31.8636   45.8377 H   0  0  0  0  0  0  0  0  0  0  0  0
  1 16  1  0
  1  6  1  0
  2  1  1  0
  2  3  1  0
  3  4  1  0
  5  4  1  0
  6  5  2  0
  7  6  1  0
  7 15  1  0
  8  9  2  0
  8  7  1  0
  9 10  1  0
 10 15  2  0
 10 11  1  0
 11 12  2  0
 12 13  1  0
 14 13  2  0
 15 14  1  0
 16 17  1  0
 17 22  1  0
 17 18  2  0
 18 19  1  0
 19 20  2  0
 19 23  1  0
 21 20  1  0
 22 21  2  0
 23 24  1  0
 24 25  2  0
 26 25  1  0
 27 23  1  0
 27 26  2  0
  2 28  1  0
  2 29  1  0
  3 30  1  0
  3 31  1  0
  4 32  1  0
  5 33  1  0
  8 34  1  0
 11 35  1  0
 13 36  1  0
 16 37  1  0
 16 38  1  0
 18 39  1  0
 21 40  1  0
 24 41  1  0
 25 42  1  0
 27 43  1  0
M  ISO  8  28  13  29  13  30  13  31  13  33  13  34  14  35  14  36  14
M  ISO  7  37   8  38   8  39  14  40  14  41  14  42  14  43  14
M  END
>  <minimizedAffinity>  (1) 
-6.30028629

>  <minimizedRMSD>  (1) 
0.280452251

$$$$
