
     RDKit          3D

 33 34  0  0  1  0  0  0  0  0999 V2000
   45.1550   34.6050   41.1440 C   0  0  0  0  0  0  0  0  0  0  0  0
   43.8110   34.1640   41.0140 N   0  0  0  0  0  0  0  0  0  0  0  0
   42.9910   35.2400   40.5500 C   0  0  0  0  0  0  0  0  0  0  0  0
   42.1630   34.9570   39.3530 C   0  0  0  0  0  0  0  0  0  0  0  0
   42.9780   34.2100   38.4840 O   0  0  0  0  0  0  0  0  0  0  0  0
   42.9720   32.9450   39.0430 C   0  0  0  0  0  0  0  0  0  0  0  0
   43.5450   32.9060   40.4370 C   0  0  2  0  0  0  0  0  0  0  0  0
   42.3010   32.0830   41.5020 S   0  0  0  0  0  0  0  0  0  0  0  0
   45.6870   34.7380   42.5490 C   0  0  1  0  0  0  0  0  0  0  0  0
   48.0040   35.5100   41.8380 C   0  0  0  0  0  0  0  0  0  0  0  0
   47.1480   34.5740   42.5000 C   0  0  0  0  0  0  0  0  0  0  0  0
   47.7770   33.4900   43.0960 C   0  0  0  0  0  0  0  0  0  0  0  0
   49.1290   33.3840   43.0160 N   0  0  0  0  0  0  0  0  0  0  0  0
   49.9050   34.2820   42.3860 C   0  0  0  0  0  0  0  0  0  0  0  0
   49.3280   35.3690   41.7840 N   0  0  0  0  0  0  0  0  0  0  0  0
   45.3020   36.0110   43.2020 C   0  0  0  0  0  0  0  0  0  0  0  0
   45.2310   35.5914   40.6632 H   0  0  0  0  0  0  0  0  0  0  0  0
   45.7656   33.8195   40.6748 H   0  0  0  0  0  0  0  0  0  0  0  0
   42.3132   35.5238   41.3686 H   0  0  0  0  0  0  0  0  0  0  0  0
   43.6884   36.0348   40.2469 H   0  0  0  0  0  0  0  0  0  0  0  0
   41.2716   34.3769   39.6337 H   0  0  0  0  0  0  0  0  0  0  0  0
   41.8126   35.8850   38.8776 H   0  0  0  0  0  0  0  0  0  0  0  0
   41.9331   32.5857   39.0824 H   0  0  0  0  0  0  0  0  0  0  0  0
   43.6077   32.3069   38.4116 H   0  0  0  0  0  0  0  0  0  0  0  0
   44.5109   32.3848   40.3638 H   0  0  0  0  0  0  0  0  0  0  0  0
   42.6170   32.2921   42.8186 H   0  0  0  0  0  0  0  0  0  0  0  0
   45.2341   33.9532   43.1727 H   0  0  0  0  0  0  0  0  0  0  0  0
   47.5487   36.3854   41.3517 H   0  0  0  0  0  0  0  0  0  0  0  0
   47.1886   32.7267   43.6262 H   0  0  0  0  0  0  0  0  0  0  0  0
   50.9960   34.1453   42.3538 H   0  0  0  0  0  0  0  0  0  0  0  0
   45.3390   35.8885   44.2945 H   0  0  0  0  0  0  0  0  0  0  0  0
   46.0002   36.8048   42.8981 H   0  0  0  0  0  0  0  0  0  0  0  0
   44.2809   36.2848   42.8981 H   0  0  0  0  0  0  0  0  0  0  0  0
  1  9  1  0
  2  1  1  0
  3  2  1  0
  4  3  1  0
  5  6  1  0
  5  4  1  0
  6  7  1  0
  7  2  1  0
  7  8  1  0
  9 16  1  0
 10 11  2  0
 11  9  1  0
 11 12  1  0
 13 12  2  0
 14 13  1  0
 15 10  1  0
 15 14  2  0
  1 17  1  0
  1 18  1  0
  3 19  1  0
  3 20  1  0
  4 21  1  0
  4 22  1  0
  6 23  1  0
  6 24  1  0
  7 25  1  6
  8 26  1  0
  9 27  1  1
 10 28  1  0
 12 29  1  0
 14 30  1  0
 16 31  1  0
 16 32  1  0
 16 33  1  0
M  ISO  8  17   8  18   8  19  13  20  13  21  13  22  13  23  13  24  13
M  ISO  8  25  13  26  11  27   8  28  14  29  14  30  14  31   8  32   8
M  ISO  1  33   8
M  END
>  <minimizedAffinity>  (1) 
-3.98774004

>  <minimizedRMSD>  (1) 
5.52290297

$$$$
