
     RDKit          3D

 41 44  0  0  0  0  0  0  0  0999 V2000
   46.4630   33.6510   42.1330 C   0  0  0  0  0  0  0  0  0  0  0  0
   45.8820   34.0590   43.4370 C   0  0  0  0  0  0  0  0  0  0  0  0
   46.1770   33.2680   44.5820 C   0  0  0  0  0  0  0  0  0  0  0  0
   45.6350   33.6740   45.7960 C   0  0  0  0  0  0  0  0  0  0  0  0
   44.8620   34.7910   45.8240 N   0  0  0  0  0  0  0  0  0  0  0  0
   44.6020   35.5150   44.7290 C   0  0  0  0  0  0  0  0  0  0  0  0
   45.1050   35.1620   43.5350 N   0  0  0  0  0  0  0  0  0  0  0  0
   45.9630   32.8630   46.8980 N   0  0  0  0  0  0  0  0  0  0  0  0
   45.4020   32.8060   48.1180 C   0  0  0  0  0  0  0  0  0  0  0  0
   46.0910   31.8430   48.8430 C   0  0  0  0  0  0  0  0  0  0  0  0
   47.0570   31.3480   48.0250 N   0  0  0  0  0  0  0  0  0  0  0  0
   46.9920   31.9560   46.8430 C   0  0  0  0  0  0  0  0  0  0  0  0
   47.8120   34.0880   41.9720 N   0  0  0  0  0  0  0  0  0  0  0  0
   47.9860   35.4200   41.7440 C   0  0  0  0  0  0  0  0  0  0  0  0
   49.3770   35.9590   41.9120 C   0  0  0  0  0  0  0  0  0  0  0  0
   50.2030   35.1770   42.8270 N   0  0  0  0  0  0  0  0  0  0  0  0
   50.1110   33.7550   42.6610 C   0  0  0  0  0  0  0  0  0  0  0  0
   48.7990   33.1860   42.2410 C   0  0  0  0  0  0  0  0  0  0  0  0
   48.8110   31.7430   42.1910 C   0  0  0  0  0  0  0  0  0  0  0  0
   48.8020   30.9310   43.2930 C   0  0  0  0  0  0  0  0  0  0  0  0
   48.8340   29.5640   43.2780 C   0  0  0  0  0  0  0  0  0  0  0  0
   48.8800   28.8810   42.0810 C   0  0  0  0  0  0  0  0  0  0  0  0
   48.8890   29.6890   40.9670 C   0  0  0  0  0  0  0  0  0  0  0  0
   48.8550   31.0170   41.0820 N   0  0  0  0  0  0  0  0  0  0  0  0
   46.4377   32.5535   42.0641 H   0  0  0  0  0  0  0  0  0  0  0  0
   45.8636   34.1215   41.3396 H   0  0  0  0  0  0  0  0  0  0  0  0
   46.8090   32.3706   44.5096 H   0  0  0  0  0  0  0  0  0  0  0  0
   43.9682   36.4106   44.8080 H   0  0  0  0  0  0  0  0  0  0  0  0
   44.5549   33.4098   48.4755 H   0  0  0  0  0  0  0  0  0  0  0  0
   45.8929   31.5387   49.8813 H   0  0  0  0  0  0  0  0  0  0  0  0
   47.6448   31.7661   45.9782 H   0  0  0  0  0  0  0  0  0  0  0  0
   47.3315   35.9651   42.4400 H   0  0  0  0  0  0  0  0  0  0  0  0
   47.7481   35.5635   40.6797 H   0  0  0  0  0  0  0  0  0  0  0  0
   49.8661   35.9710   40.9268 H   0  0  0  0  0  0  0  0  0  0  0  0
   49.2815   36.9654   42.3456 H   0  0  0  0  0  0  0  0  0  0  0  0
   50.8066   35.6134   43.5384 H   0  0  0  0  0  0  0  0  0  0  0  0
   50.9809   33.1054   42.8380 H   0  0  0  0  0  0  0  0  0  0  0  0
   48.7659   31.4212   44.2771 H   0  0  0  0  0  0  0  0  0  0  0  0
   48.8230   29.0062   44.2260 H   0  0  0  0  0  0  0  0  0  0  0  0
   48.9072   27.7829   42.0216 H   0  0  0  0  0  0  0  0  0  0  0  0
   48.9248   29.2325   39.9668 H   0  0  0  0  0  0  0  0  0  0  0  0
  1  2  1  0
  2  7  1  0
  2  3  2  0
  3  4  1  0
  4  5  2  0
  4  8  1  0
  6  5  1  0
  7  6  2  0
  8  9  1  0
  9 10  2  0
 11 10  1  0
 12  8  1  0
 12 11  2  0
 13  1  1  0
 13 18  1  0
 14 15  1  0
 14 13  1  0
 15 16  1  0
 17 16  1  0
 18 17  2  0
 19 18  1  0
 19 20  2  0
 21 20  1  0
 22 21  2  0
 23 24  2  0
 23 22  1  0
 24 19  1  0
  1 25  1  0
  1 26  1  0
  3 27  1  0
  6 28  1  0
  9 29  1  0
 10 30  1  0
 12 31  1  0
 14 32  1  0
 14 33  1  0
 15 34  1  0
 15 35  1  0
 16 36  1  0
 17 37  1  0
 20 38  1  0
 21 39  1  0
 22 40  1  0
 23 41  1  0
M  ISO  8  25   8  26   8  27  14  28  14  29  14  30  14  31  14  32  13
M  ISO  8  33  13  34  13  35  13  37  13  38  14  39  14  40  14  41  14
M  END
>  <minimizedAffinity>  (1) 
-6.08543873

>  <minimizedRMSD>  (1) 
0.577142835

$$$$
