
     RDKit          3D

 42 45  0  0  0  0  0  0  0  0999 V2000
   47.8280   34.0760   41.9700 N   0  0  0  0  0  0  0  0  0  0  0  0
   47.9930   35.4130   41.7580 C   0  0  0  0  0  0  0  0  0  0  0  0
   49.3810   35.9560   41.9220 C   0  0  0  0  0  0  0  0  0  0  0  0
   50.2200   35.1680   42.8200 N   0  0  0  0  0  0  0  0  0  0  0  0
   50.1340   33.7480   42.6560 C   0  0  0  0  0  0  0  0  0  0  0  0
   48.8190   33.1740   42.2180 C   0  0  0  0  0  0  0  0  0  0  0  0
   48.9400   31.7350   42.1700 C   0  0  0  0  0  0  0  0  0  0  0  0
   48.8200   30.9150   43.2570 C   0  0  0  0  0  0  0  0  0  0  0  0
   49.0140   29.5600   43.2570 C   0  0  0  0  0  0  0  0  0  0  0  0
   49.3610   28.9050   42.0960 C   0  0  0  0  0  0  0  0  0  0  0  0
   49.5010   29.6680   40.9570 C   0  0  0  0  0  0  0  0  0  0  0  0
   49.2880   31.0270   41.0460 C   0  0  0  0  0  0  0  0  0  0  0  0
   46.4900   33.5990   42.1420 C   0  0  0  0  0  0  0  0  0  0  0  0
   45.9010   34.0510   43.4450 C   0  0  0  0  0  0  0  0  0  0  0  0
   46.1960   33.2600   44.5960 C   0  0  0  0  0  0  0  0  0  0  0  0
   45.6500   33.6570   45.8010 C   0  0  0  0  0  0  0  0  0  0  0  0
   44.8640   34.7770   45.8190 N   0  0  0  0  0  0  0  0  0  0  0  0
   44.6130   35.4900   44.7140 C   0  0  0  0  0  0  0  0  0  0  0  0
   45.1200   35.1460   43.5210 N   0  0  0  0  0  0  0  0  0  0  0  0
   45.9740   32.8480   46.9090 N   0  0  0  0  0  0  0  0  0  0  0  0
   45.3920   32.8080   48.1280 C   0  0  0  0  0  0  0  0  0  0  0  0
   46.0950   31.8340   48.8530 C   0  0  0  0  0  0  0  0  0  0  0  0
   47.0460   31.3450   48.0540 N   0  0  0  0  0  0  0  0  0  0  0  0
   47.0000   31.9450   46.8590 C   0  0  0  0  0  0  0  0  0  0  0  0
   47.3412   35.9454   42.4663 H   0  0  0  0  0  0  0  0  0  0  0  0
   47.7454   35.5696   40.6977 H   0  0  0  0  0  0  0  0  0  0  0  0
   49.8618   35.9832   40.9330 H   0  0  0  0  0  0  0  0  0  0  0  0
   49.2829   36.9557   42.3703 H   0  0  0  0  0  0  0  0  0  0  0  0
   50.8325   35.6040   43.5240 H   0  0  0  0  0  0  0  0  0  0  0  0
   51.0027   33.1001   42.8448 H   0  0  0  0  0  0  0  0  0  0  0  0
   48.5441   31.3839   44.2130 H   0  0  0  0  0  0  0  0  0  0  0  0
   48.8920   28.9905   44.1902 H   0  0  0  0  0  0  0  0  0  0  0  0
   49.5200   27.8167   42.0787 H   0  0  0  0  0  0  0  0  0  0  0  0
   49.7764   29.2032   39.9988 H   0  0  0  0  0  0  0  0  0  0  0  0
   49.4097   31.6056   40.1184 H   0  0  0  0  0  0  0  0  0  0  0  0
   45.8676   33.9797   41.3188 H   0  0  0  0  0  0  0  0  0  0  0  0
   46.5163   32.4993   42.1417 H   0  0  0  0  0  0  0  0  0  0  0  0
   46.8347   32.3671   44.5259 H   0  0  0  0  0  0  0  0  0  0  0  0
   43.9736   36.3821   44.7866 H   0  0  0  0  0  0  0  0  0  0  0  0
   44.5433   33.4134   48.4790 H   0  0  0  0  0  0  0  0  0  0  0  0
   45.8982   31.5287   49.8913 H   0  0  0  0  0  0  0  0  0  0  0  0
   47.6604   31.7496   46.0013 H   0  0  0  0  0  0  0  0  0  0  0  0
  1 13  1  0
  1  6  1  0
  2  3  1  0
  2  1  1  0
  3  4  1  0
  5  4  1  0
  6  5  2  0
  7  6  1  0
  7  8  2  0
  8  9  1  0
 10  9  2  0
 11 12  2  0
 11 10  1  0
 12  7  1  0
 13 14  1  0
 14 19  1  0
 14 15  2  0
 15 16  1  0
 16 17  2  0
 16 20  1  0
 18 17  1  0
 19 18  2  0
 20 21  1  0
 21 22  2  0
 23 22  1  0
 24 20  1  0
 24 23  2  0
  2 25  1  0
  2 26  1  0
  3 27  1  0
  3 28  1  0
  4 29  1  0
  5 30  1  0
  8 31  1  0
  9 32  1  0
 10 33  1  0
 11 34  1  0
 12 35  1  0
 13 36  1  0
 13 37  1  0
 15 38  1  0
 18 39  1  0
 21 40  1  0
 22 41  1  0
 24 42  1  0
M  ISO  8  25  13  26  13  27  13  28  13  30  13  31  14  32  14  33  14
M  ISO  8  34  14  35  14  36   8  37   8  38  14  39  14  40  14  41  14
M  ISO  1  42  14
M  END
>  <minimizedAffinity>  (1) 
-6.120996

>  <minimizedRMSD>  (1) 
0.376118511

$$$$
