
     RDKit          3D

 44 46  0  0  0  0  0  0  0  0999 V2000
   46.5190   33.6170   42.1350 C   0  0  0  0  0  0  0  0  0  0  0  0
   45.9140   34.0650   43.4270 C   0  0  0  0  0  0  0  0  0  0  0  0
   46.1880   33.2940   44.5870 C   0  0  0  0  0  0  0  0  0  0  0  0
   45.6350   33.6870   45.7890 C   0  0  0  0  0  0  0  0  0  0  0  0
   44.8500   34.8060   45.7950 N   0  0  0  0  0  0  0  0  0  0  0  0
   44.6120   35.5140   44.6810 C   0  0  0  0  0  0  0  0  0  0  0  0
   45.1350   35.1570   43.4940 N   0  0  0  0  0  0  0  0  0  0  0  0
   45.9440   32.8890   46.9040 N   0  0  0  0  0  0  0  0  0  0  0  0
   45.3380   32.8520   48.1090 C   0  0  0  0  0  0  0  0  0  0  0  0
   46.0340   31.8950   48.8640 C   0  0  0  0  0  0  0  0  0  0  0  0
   47.0200   31.4050   48.0810 N   0  0  0  0  0  0  0  0  0  0  0  0
   46.9730   32.0010   46.8890 C   0  0  0  0  0  0  0  0  0  0  0  0
   47.8490   34.0700   41.9800 N   0  0  0  0  0  0  0  0  0  0  0  0
   48.0170   35.4150   41.7760 C   0  0  0  0  0  0  0  0  0  0  0  0
   49.4030   35.9420   41.9400 C   0  0  0  0  0  0  0  0  0  0  0  0
   50.2370   35.1560   42.8210 N   0  0  0  0  0  0  0  0  0  0  0  0
   50.1590   33.7390   42.6350 C   0  0  0  0  0  0  0  0  0  0  0  0
   48.8350   33.1540   42.2250 C   0  0  0  0  0  0  0  0  0  0  0  0
   48.8930   31.7480   42.1080 C   0  0  0  0  0  0  0  0  0  0  0  0
   50.2740   31.2070   42.5410 C   0  0  0  0  0  0  0  0  0  0  0  0
   47.9370   30.7640   42.4680 C   0  0  0  0  0  0  0  0  0  0  0  0
   48.9980   31.5520   40.5460 C   0  0  0  0  0  0  0  0  0  0  0  0
   46.5140   32.5174   42.1045 H   0  0  0  0  0  0  0  0  0  0  0  0
   45.9204   34.0443   41.3170 H   0  0  0  0  0  0  0  0  0  0  0  0
   46.8281   32.4013   44.5291 H   0  0  0  0  0  0  0  0  0  0  0  0
   43.9738   36.4081   44.7393 H   0  0  0  0  0  0  0  0  0  0  0  0
   44.4740   33.4503   48.4338 H   0  0  0  0  0  0  0  0  0  0  0  0
   45.8169   31.5989   49.9009 H   0  0  0  0  0  0  0  0  0  0  0  0
   47.6483   31.8079   46.0424 H   0  0  0  0  0  0  0  0  0  0  0  0
   47.3704   35.9454   42.4906 H   0  0  0  0  0  0  0  0  0  0  0  0
   47.7626   35.5846   40.7193 H   0  0  0  0  0  0  0  0  0  0  0  0
   49.8800   35.9715   40.9492 H   0  0  0  0  0  0  0  0  0  0  0  0
   49.3097   36.9374   42.3989 H   0  0  0  0  0  0  0  0  0  0  0  0
   50.8449   35.5856   43.5329 H   0  0  0  0  0  0  0  0  0  0  0  0
   51.0397   33.0977   42.7871 H   0  0  0  0  0  0  0  0  0  0  0  0
   50.3311   31.1846   43.6393 H   0  0  0  0  0  0  0  0  0  0  0  0
   50.4094   30.1893   42.1460 H   0  0  0  0  0  0  0  0  0  0  0  0
   51.0646   31.8619   42.1460 H   0  0  0  0  0  0  0  0  0  0  0  0
   47.8733   30.6984   43.5642 H   0  0  0  0  0  0  0  0  0  0  0  0
   46.9540   31.0411   42.0595 H   0  0  0  0  0  0  0  0  0  0  0  0
   48.2423   29.7894   42.0595 H   0  0  0  0  0  0  0  0  0  0  0  0
   49.5073   30.6014   40.3292 H   0  0  0  0  0  0  0  0  0  0  0  0
   47.9883   31.5349   40.1099 H   0  0  0  0  0  0  0  0  0  0  0  0
   49.5717   32.3831   40.1099 H   0  0  0  0  0  0  0  0  0  0  0  0
  1  2  1  0
  2  7  1  0
  2  3  2  0
  3  4  1  0
  4  5  2  0
  4  8  1  0
  6  5  1  0
  7  6  2  0
  8  9  1  0
  9 10  2  0
 11 10  1  0
 12  8  1  0
 12 11  2  0
 13  1  1  0
 13 18  1  0
 14 15  1  0
 14 13  1  0
 15 16  1  0
 17 16  1  0
 18 17  2  0
 19 18  1  0
 19 21  1  0
 19 20  1  0
 22 19  1  0
  1 23  1  0
  1 24  1  0
  3 25  1  0
  6 26  1  0
  9 27  1  0
 10 28  1  0
 12 29  1  0
 14 30  1  0
 14 31  1  0
 15 32  1  0
 15 33  1  0
 16 34  1  0
 17 35  1  0
 20 36  1  0
 20 37  1  0
 20 38  1  0
 21 39  1  0
 21 40  1  0
 21 41  1  0
 22 42  1  0
 22 43  1  0
 22 44  1  0
M  ISO  8  23   8  24   8  25  14  26  14  27  14  28  14  29  14  30  13
M  ISO  8  31  13  32  13  33  13  35  13  36   8  37   8  38   8  39   8
M  ISO  5  40   8  41   8  42   8  43   8  44   8
M  END
>  <minimizedAffinity>  (1) 
-6.07255316

>  <minimizedRMSD>  (1) 
0.849387884

$$$$
