
     RDKit          3D

 40 43  0  0  0  0  0  0  0  0999 V2000
   46.4580   33.6630   42.1320 C   0  0  0  0  0  0  0  0  0  0  0  0
   45.8820   34.0750   43.4400 C   0  0  0  0  0  0  0  0  0  0  0  0
   46.1870   33.2780   44.5790 C   0  0  0  0  0  0  0  0  0  0  0  0
   45.6370   33.6830   45.7970 C   0  0  0  0  0  0  0  0  0  0  0  0
   44.8530   34.8020   45.8260 N   0  0  0  0  0  0  0  0  0  0  0  0
   44.5960   35.5190   44.7220 C   0  0  0  0  0  0  0  0  0  0  0  0
   45.1010   35.1700   43.5280 N   0  0  0  0  0  0  0  0  0  0  0  0
   45.9550   32.8720   46.9020 N   0  0  0  0  0  0  0  0  0  0  0  0
   45.3780   32.8140   48.1140 C   0  0  0  0  0  0  0  0  0  0  0  0
   46.0700   31.8450   48.8370 C   0  0  0  0  0  0  0  0  0  0  0  0
   47.0250   31.3630   48.0390 N   0  0  0  0  0  0  0  0  0  0  0  0
   46.9890   31.9670   46.8450 C   0  0  0  0  0  0  0  0  0  0  0  0
   47.8060   34.1020   41.9640 N   0  0  0  0  0  0  0  0  0  0  0  0
   47.9870   35.4360   41.7510 C   0  0  0  0  0  0  0  0  0  0  0  0
   49.3810   35.9610   41.9220 C   0  0  0  0  0  0  0  0  0  0  0  0
   50.2060   35.1690   42.8290 N   0  0  0  0  0  0  0  0  0  0  0  0
   50.1060   33.7460   42.6510 C   0  0  0  0  0  0  0  0  0  0  0  0
   48.7900   33.1890   42.2200 C   0  0  0  0  0  0  0  0  0  0  0  0
   48.8010   31.7650   42.1450 C   0  0  0  0  0  0  0  0  0  0  0  0
   48.8040   30.9450   43.2450 C   0  0  0  0  0  0  0  0  0  0  0  0
   48.8330   29.5680   43.2210 C   0  0  0  0  0  0  0  0  0  0  0  0
   48.8620   28.9310   42.0130 N   0  0  0  0  0  0  0  0  0  0  0  0
   48.8610   29.7230   40.8990 C   0  0  0  0  0  0  0  0  0  0  0  0
   48.8310   31.0460   41.0380 N   0  0  0  0  0  0  0  0  0  0  0  0
   46.4341   32.5652   42.0664 H   0  0  0  0  0  0  0  0  0  0  0  0
   45.8541   34.1296   41.3398 H   0  0  0  0  0  0  0  0  0  0  0  0
   46.8256   32.3855   44.5035 H   0  0  0  0  0  0  0  0  0  0  0  0
   43.9579   36.4119   44.7964 H   0  0  0  0  0  0  0  0  0  0  0  0
   44.5261   33.4141   48.4663 H   0  0  0  0  0  0  0  0  0  0  0  0
   45.8671   31.5349   49.8727 H   0  0  0  0  0  0  0  0  0  0  0  0
   47.6536   31.7774   45.9892 H   0  0  0  0  0  0  0  0  0  0  0  0
   47.3380   35.9773   42.4552 H   0  0  0  0  0  0  0  0  0  0  0  0
   47.7458   35.5952   40.6896 H   0  0  0  0  0  0  0  0  0  0  0  0
   49.8682   35.9768   40.9359 H   0  0  0  0  0  0  0  0  0  0  0  0
   49.2916   36.9634   42.3661 H   0  0  0  0  0  0  0  0  0  0  0  0
   50.8135   35.5970   43.5422 H   0  0  0  0  0  0  0  0  0  0  0  0
   50.9708   33.0893   42.8266 H   0  0  0  0  0  0  0  0  0  0  0  0
   48.7813   31.4295   44.2323 H   0  0  0  0  0  0  0  0  0  0  0  0
   48.8328   28.9917   44.1579 H   0  0  0  0  0  0  0  0  0  0  0  0
   48.8848   29.2707   39.8966 H   0  0  0  0  0  0  0  0  0  0  0  0
  1  2  1  0
  2  7  1  0
  2  3  2  0
  3  4  1  0
  4  5  2  0
  4  8  1  0
  6  5  1  0
  7  6  2  0
  8  9  1  0
  9 10  2  0
 11 10  1  0
 12  8  1  0
 12 11  2  0
 13  1  1  0
 13 18  1  0
 14 15  1  0
 14 13  1  0
 15 16  1  0
 17 16  1  0
 18 17  2  0
 19 18  1  0
 19 20  2  0
 21 20  1  0
 22 21  2  0
 23 24  2  0
 23 22  1  0
 24 19  1  0
  1 25  1  0
  1 26  1  0
  3 27  1  0
  6 28  1  0
  9 29  1  0
 10 30  1  0
 12 31  1  0
 14 32  1  0
 14 33  1  0
 15 34  1  0
 15 35  1  0
 16 36  1  0
 17 37  1  0
 20 38  1  0
 21 39  1  0
 23 40  1  0
M  ISO  8  25   8  26   8  27  14  28  14  29  14  30  14  31  14  32  13
M  ISO  7  33  13  34  13  35  13  37  13  38  14  39  14  40  14
M  END
>  <minimizedAffinity>  (1) 
-6.05774212

>  <minimizedRMSD>  (1) 
0.665703475

$$$$
