
     RDKit          3D

 46 49  0  0  0  0  0  0  0  0999 V2000
   46.4850   33.5800   42.1480 C   0  0  0  0  0  0  0  0  0  0  0  0
   45.9090   34.0040   43.4490 C   0  0  0  0  0  0  0  0  0  0  0  0
   46.1930   33.2280   44.6000 C   0  0  0  0  0  0  0  0  0  0  0  0
   45.6500   33.6360   45.8110 C   0  0  0  0  0  0  0  0  0  0  0  0
   44.8740   34.7600   45.8310 N   0  0  0  0  0  0  0  0  0  0  0  0
   44.6240   35.4740   44.7230 C   0  0  0  0  0  0  0  0  0  0  0  0
   45.1300   35.1150   43.5240 N   0  0  0  0  0  0  0  0  0  0  0  0
   45.9650   32.8390   46.9230 N   0  0  0  0  0  0  0  0  0  0  0  0
   45.4070   32.8090   48.1420 C   0  0  0  0  0  0  0  0  0  0  0  0
   46.0820   31.8470   48.8840 C   0  0  0  0  0  0  0  0  0  0  0  0
   47.0360   31.3260   48.0690 N   0  0  0  0  0  0  0  0  0  0  0  0
   46.9810   31.9140   46.8780 C   0  0  0  0  0  0  0  0  0  0  0  0
   47.8280   34.0700   41.9780 N   0  0  0  0  0  0  0  0  0  0  0  0
   47.9920   35.4060   41.7650 C   0  0  0  0  0  0  0  0  0  0  0  0
   49.3930   35.9330   41.9240 C   0  0  0  0  0  0  0  0  0  0  0  0
   50.2170   35.1760   42.8280 N   0  0  0  0  0  0  0  0  0  0  0  0
   50.1460   33.7470   42.6530 C   0  0  0  0  0  0  0  0  0  0  0  0
   48.8290   33.1670   42.2280 C   0  0  0  0  0  0  0  0  0  0  0  0
   48.7840   31.7780   42.1400 N   0  0  0  0  0  0  0  0  0  0  0  0
   48.5830   30.7610   43.1560 C   0  0  0  0  0  0  0  0  0  0  0  0
   49.6670   29.7150   42.9620 C   0  0  0  0  0  0  0  0  0  0  0  0
   49.2780   28.9270   41.8040 N   0  0  0  0  0  0  0  0  0  0  0  0
   48.5660   29.7170   40.8260 C   0  0  0  0  0  0  0  0  0  0  0  0
   48.9620   31.1760   40.8310 C   0  0  0  0  0  0  0  0  0  0  0  0
   46.4979   32.4809   42.1045 H   0  0  0  0  0  0  0  0  0  0  0  0
   45.8620   33.9978   41.3435 H   0  0  0  0  0  0  0  0  0  0  0  0
   46.8245   32.3296   44.5361 H   0  0  0  0  0  0  0  0  0  0  0  0
   43.9926   36.3720   44.7931 H   0  0  0  0  0  0  0  0  0  0  0  0
   44.5694   33.4311   48.4905 H   0  0  0  0  0  0  0  0  0  0  0  0
   45.8827   31.5628   49.9278 H   0  0  0  0  0  0  0  0  0  0  0  0
   47.6291   31.6998   46.0154 H   0  0  0  0  0  0  0  0  0  0  0  0
   47.3480   35.9419   42.4778 H   0  0  0  0  0  0  0  0  0  0  0  0
   47.7310   35.5720   40.7094 H   0  0  0  0  0  0  0  0  0  0  0  0
   49.8753   35.9299   40.9354 H   0  0  0  0  0  0  0  0  0  0  0  0
   49.3007   36.9408   42.3550 H   0  0  0  0  0  0  0  0  0  0  0  0
   50.8105   35.6197   43.5434 H   0  0  0  0  0  0  0  0  0  0  0  0
   51.0236   33.1063   42.8244 H   0  0  0  0  0  0  0  0  0  0  0  0
   48.6646   31.2075   44.1580 H   0  0  0  0  0  0  0  0  0  0  0  0
   47.5836   30.3102   43.0662 H   0  0  0  0  0  0  0  0  0  0  0  0
   50.6369   30.2018   42.7820 H   0  0  0  0  0  0  0  0  0  0  0  0
   49.7739   29.0826   43.8557 H   0  0  0  0  0  0  0  0  0  0  0  0
   50.1257   28.5398   41.3653 H   0  0  0  0  0  0  0  0  0  0  0  0
   47.4889   29.6471   41.0382 H   0  0  0  0  0  0  0  0  0  0  0  0
   48.8208   29.3142   39.8346 H   0  0  0  0  0  0  0  0  0  0  0  0
   50.0201   31.2588   40.5418 H   0  0  0  0  0  0  0  0  0  0  0  0
   48.3148   31.7086   40.1186 H   0  0  0  0  0  0  0  0  0  0  0  0
  1  2  1  0
  2  7  1  0
  2  3  2  0
  3  4  1  0
  4  5  2  0
  4  8  1  0
  6  5  1  0
  7  6  2  0
  8  9  1  0
  9 10  2  0
 11 10  1  0
 12  8  1  0
 12 11  2  0
 13  1  1  0
 13 18  1  0
 14 15  1  0
 14 13  1  0
 15 16  1  0
 17 16  1  0
 18 17  2  0
 19 18  1  0
 19 20  1  0
 21 20  1  0
 22 21  1  0
 23 24  1  0
 23 22  1  0
 24 19  1  0
  1 25  1  0
  1 26  1  0
  3 27  1  0
  6 28  1  0
  9 29  1  0
 10 30  1  0
 12 31  1  0
 14 32  1  0
 14 33  1  0
 15 34  1  0
 15 35  1  0
 16 36  1  0
 17 37  1  0
 20 38  1  0
 20 39  1  0
 21 40  1  0
 21 41  1  0
 22 42  1  0
 23 43  1  0
 23 44  1  0
 24 45  1  0
 24 46  1  0
M  ISO  8  25   8  26   8  27  14  28  14  29  14  30  14  31  14  32  13
M  ISO  8  33  13  34  13  35  13  37  13  38  13  39  13  40  13  41  13
M  ISO  5  42   5  43  13  44  13  45  13  46  13
M  END
>  <minimizedAffinity>  (1) 
-5.99856329

>  <minimizedRMSD>  (1) 
0.393594295

$$$$
