
     RDKit          3D

 39 42  0  0  0  0  0  0  0  0999 V2000
   46.4480   33.6630   42.1460 C   0  0  0  0  0  0  0  0  0  0  0  0
   45.8700   34.0970   43.4550 C   0  0  0  0  0  0  0  0  0  0  0  0
   46.1690   33.2920   44.5930 C   0  0  0  0  0  0  0  0  0  0  0  0
   45.6290   33.6820   45.8090 C   0  0  0  0  0  0  0  0  0  0  0  0
   44.8490   34.8040   45.8400 N   0  0  0  0  0  0  0  0  0  0  0  0
   44.5930   35.5330   44.7430 C   0  0  0  0  0  0  0  0  0  0  0  0
   45.0960   35.1910   43.5450 N   0  0  0  0  0  0  0  0  0  0  0  0
   45.9470   32.8730   46.9090 N   0  0  0  0  0  0  0  0  0  0  0  0
   45.3670   32.8200   48.1250 C   0  0  0  0  0  0  0  0  0  0  0  0
   46.0790   31.8530   48.8560 C   0  0  0  0  0  0  0  0  0  0  0  0
   47.0520   31.3730   48.0420 N   0  0  0  0  0  0  0  0  0  0  0  0
   46.9780   31.9840   46.8670 C   0  0  0  0  0  0  0  0  0  0  0  0
   47.7960   34.0940   41.9790 N   0  0  0  0  0  0  0  0  0  0  0  0
   47.9860   35.4210   41.7290 C   0  0  0  0  0  0  0  0  0  0  0  0
   49.3900   35.9320   41.8940 C   0  0  0  0  0  0  0  0  0  0  0  0
   50.1930   35.1760   42.8330 N   0  0  0  0  0  0  0  0  0  0  0  0
   50.0890   33.7540   42.7110 C   0  0  0  0  0  0  0  0  0  0  0  0
   48.7620   33.1810   42.2750 C   0  0  0  0  0  0  0  0  0  0  0  0
   48.8350   31.7600   42.2720 C   0  0  0  0  0  0  0  0  0  0  0  0
   48.7160   30.7930   43.2350 C   0  0  0  0  0  0  0  0  0  0  0  0
   48.9280   29.5450   42.8070 N   0  0  0  0  0  0  0  0  0  0  0  0
   49.2040   29.6510   41.4910 C   0  0  0  0  0  0  0  0  0  0  0  0
   49.1430   30.9530   41.2080 N   0  0  0  0  0  0  0  0  0  0  0  0
   46.4190   32.5646   42.0936 H   0  0  0  0  0  0  0  0  0  0  0  0
   45.8476   34.1201   41.3456 H   0  0  0  0  0  0  0  0  0  0  0  0
   46.8030   32.3970   44.5096 H   0  0  0  0  0  0  0  0  0  0  0  0
   43.9590   36.4280   44.8261 H   0  0  0  0  0  0  0  0  0  0  0  0
   44.5095   33.4137   48.4746 H   0  0  0  0  0  0  0  0  0  0  0  0
   45.8837   31.5437   49.8934 H   0  0  0  0  0  0  0  0  0  0  0  0
   47.6372   31.8034   46.0052 H   0  0  0  0  0  0  0  0  0  0  0  0
   47.3395   35.9879   42.4151 H   0  0  0  0  0  0  0  0  0  0  0  0
   47.7456   35.5578   40.6643 H   0  0  0  0  0  0  0  0  0  0  0  0
   49.8859   35.8998   40.9126 H   0  0  0  0  0  0  0  0  0  0  0  0
   49.3086   36.9516   42.2986 H   0  0  0  0  0  0  0  0  0  0  0  0
   50.7943   35.6284   43.5364 H   0  0  0  0  0  0  0  0  0  0  0  0
   50.9469   33.1005   42.9276 H   0  0  0  0  0  0  0  0  0  0  0  0
   48.4652   31.0260   44.2804 H   0  0  0  0  0  0  0  0  0  0  0  0
   49.4326   28.8314   40.7938 H   0  0  0  0  0  0  0  0  0  0  0  0
   49.3142   31.3235   40.2623 H   0  0  0  0  0  0  0  0  0  0  0  0
  1  2  1  0
  2  7  1  0
  2  3  2  0
  3  4  1  0
  4  5  2  0
  4  8  1  0
  6  5  1  0
  7  6  2  0
  8  9  1  0
  9 10  2  0
 11 10  1  0
 12  8  1  0
 12 11  2  0
 13  1  1  0
 13 18  1  0
 14 15  1  0
 14 13  1  0
 15 16  1  0
 17 16  1  0
 18 17  2  0
 19 18  1  0
 19 20  2  0
 21 20  1  0
 22 21  2  0
 23 22  1  0
 23 19  1  0
  1 24  1  0
  1 25  1  0
  3 26  1  0
  6 27  1  0
  9 28  1  0
 10 29  1  0
 12 30  1  0
 14 31  1  0
 14 32  1  0
 15 33  1  0
 15 34  1  0
 16 35  1  0
 17 36  1  0
 20 37  1  0
 22 38  1  0
 23 39  1  0
M  ISO  8  24   8  25   8  26  14  27  14  28  14  29  14  30  14  31  13
M  ISO  7  32  13  33  13  34  13  36  13  37  14  38  14  39   9
M  END
>  <minimizedAffinity>  (1) 
-5.97600698

>  <minimizedRMSD>  (1) 
0.357395738

$$$$
