
     RDKit          3D

 39 41  0  0  0  0  0  0  0  0999 V2000
   47.7940   34.1340   41.9490 N   0  0  0  0  0  0  0  0  0  0  0  0
   48.0030   35.4720   41.8100 C   0  0  0  0  0  0  0  0  0  0  0  0
   49.4230   35.9370   41.9860 C   0  0  0  0  0  0  0  0  0  0  0  0
   50.2260   35.1040   42.8440 N   0  0  0  0  0  0  0  0  0  0  0  0
   50.0990   33.6890   42.5890 C   0  0  0  0  0  0  0  0  0  0  0  0
   48.7590   33.1800   42.1450 C   0  0  0  0  0  0  0  0  0  0  0  0
   48.6670   31.8000   41.9890 N   0  0  0  0  0  0  0  0  0  0  0  0
   48.6710   31.0840   40.7600 C   0  0  0  0  0  0  0  0  0  0  0  0
   49.1570   31.7250   39.7400 N   0  0  0  0  0  0  0  0  0  0  0  0
   48.1640   29.7450   40.6930 N   0  0  0  0  0  0  0  0  0  0  0  0
   49.2090   31.2930   38.7870 H   0  0  0  0  0  0  0  0  0  0  0  0
   46.4360   33.6800   42.1060 C   0  0  0  0  0  0  0  0  0  0  0  0
   45.8650   34.0900   43.4140 C   0  0  0  0  0  0  0  0  0  0  0  0
   46.1720   33.2980   44.5540 C   0  0  0  0  0  0  0  0  0  0  0  0
   45.6430   33.6800   45.7710 C   0  0  0  0  0  0  0  0  0  0  0  0
   44.8500   34.8010   45.8160 N   0  0  0  0  0  0  0  0  0  0  0  0
   44.5810   35.5270   44.7220 C   0  0  0  0  0  0  0  0  0  0  0  0
   45.0790   35.1870   43.5090 N   0  0  0  0  0  0  0  0  0  0  0  0
   45.9650   32.8760   46.8710 N   0  0  0  0  0  0  0  0  0  0  0  0
   45.4180   32.8170   48.0900 C   0  0  0  0  0  0  0  0  0  0  0  0
   46.1150   31.8550   48.8150 C   0  0  0  0  0  0  0  0  0  0  0  0
   47.0720   31.3610   47.9890 N   0  0  0  0  0  0  0  0  0  0  0  0
   46.9960   31.9680   46.8070 C   0  0  0  0  0  0  0  0  0  0  0  0
   47.6764   35.7610   40.8001 H   0  0  0  0  0  0  0  0  0  0  0  0
   47.4312   35.9484   42.6200 H   0  0  0  0  0  0  0  0  0  0  0  0
   49.8990   35.9678   40.9948 H   0  0  0  0  0  0  0  0  0  0  0  0
   49.3698   36.9230   42.4707 H   0  0  0  0  0  0  0  0  0  0  0  0
   50.8394   35.4861   43.5780 H   0  0  0  0  0  0  0  0  0  0  0  0
   50.9537   33.0083   42.7156 H   0  0  0  0  0  0  0  0  0  0  0  0
   48.5881   31.2409   42.8504 H   0  0  0  0  0  0  0  0  0  0  0  0
   48.1716   29.2356   39.7978 H   0  0  0  0  0  0  0  0  0  0  0  0
   47.7920   29.2922   41.5400 H   0  0  0  0  0  0  0  0  0  0  0  0
   45.8221   34.1079   41.2997 H   0  0  0  0  0  0  0  0  0  0  0  0
   46.4358   32.5809   42.0624 H   0  0  0  0  0  0  0  0  0  0  0  0
   46.8119   32.4073   44.4691 H   0  0  0  0  0  0  0  0  0  0  0  0
   43.9421   36.4180   44.8110 H   0  0  0  0  0  0  0  0  0  0  0  0
   44.5719   33.4188   48.4532 H   0  0  0  0  0  0  0  0  0  0  0  0
   45.9267   31.5534   49.8560 H   0  0  0  0  0  0  0  0  0  0  0  0
   47.6410   31.7779   45.9365 H   0  0  0  0  0  0  0  0  0  0  0  0
  1 12  1  0
  1  6  1  0
  2  1  1  0
  2  3  1  0
  3  4  1  0
  5  4  1  0
  6  5  2  0
  7  6  1  0
  8  7  1  0
  9  8  2  0
 10  8  1  0
 11  9  1  0
 12 13  1  0
 13 18  1  0
 13 14  2  0
 14 15  1  0
 15 16  2  0
 15 19  1  0
 17 16  1  0
 18 17  2  0
 19 20  1  0
 20 21  2  0
 22 21  1  0
 23 19  1  0
 23 22  2  0
  2 24  1  0
  2 25  1  0
  3 26  1  0
  3 27  1  0
  4 28  1  0
  5 29  1  0
  7 30  1  0
 10 31  1  0
 10 32  1  0
 12 33  1  0
 12 34  1  0
 14 35  1  0
 17 36  1  0
 20 37  1  0
 21 38  1  0
 23 39  1  0
M  ISO  8  24  13  25  13  26  13  27  13  29  13  33   8  34   8  35  14
M  ISO  4  36  14  37  14  38  14  39  14
M  END
>  <minimizedAffinity>  (1) 
-5.91323376

>  <minimizedRMSD>  (1) 
0.621422708

$$$$
