
     RDKit          3D

 37 40  0  0  0  0  0  0  0  0999 V2000
   46.4800   33.6040   42.1550 C   0  0  0  0  0  0  0  0  0  0  0  0
   45.8980   34.0240   43.4560 C   0  0  0  0  0  0  0  0  0  0  0  0
   46.1920   33.2420   44.6050 C   0  0  0  0  0  0  0  0  0  0  0  0
   45.6480   33.6500   45.8160 C   0  0  0  0  0  0  0  0  0  0  0  0
   44.8670   34.7690   45.8380 N   0  0  0  0  0  0  0  0  0  0  0  0
   44.6110   35.4830   44.7320 C   0  0  0  0  0  0  0  0  0  0  0  0
   45.1200   35.1220   43.5330 N   0  0  0  0  0  0  0  0  0  0  0  0
   45.9710   32.8450   46.9250 N   0  0  0  0  0  0  0  0  0  0  0  0
   45.4100   32.7990   48.1410 C   0  0  0  0  0  0  0  0  0  0  0  0
   46.0860   31.8330   48.8730 C   0  0  0  0  0  0  0  0  0  0  0  0
   47.0450   31.3230   48.0600 N   0  0  0  0  0  0  0  0  0  0  0  0
   46.9920   31.9250   46.8680 C   0  0  0  0  0  0  0  0  0  0  0  0
   47.8210   34.0720   41.9810 N   0  0  0  0  0  0  0  0  0  0  0  0
   47.9870   35.4070   41.7600 C   0  0  0  0  0  0  0  0  0  0  0  0
   49.3900   35.9250   41.9110 C   0  0  0  0  0  0  0  0  0  0  0  0
   50.2130   35.1720   42.8290 N   0  0  0  0  0  0  0  0  0  0  0  0
   50.1300   33.7450   42.6670 C   0  0  0  0  0  0  0  0  0  0  0  0
   48.8090   33.1650   42.2440 C   0  0  0  0  0  0  0  0  0  0  0  0
   48.8110   31.7210   42.1800 C   0  0  0  0  0  0  0  0  0  0  0  0
   48.8570   30.8750   41.1440 N   0  0  0  0  0  0  0  0  0  0  0  0
   48.8340   29.6560   41.5790 O   0  0  0  0  0  0  0  0  0  0  0  0
   48.7750   29.6160   42.8670 C   0  0  0  0  0  0  0  0  0  0  0  0
   48.7610   30.8980   43.2350 N   0  0  0  0  0  0  0  0  0  0  0  0
   46.4802   32.5051   42.1064 H   0  0  0  0  0  0  0  0  0  0  0  0
   45.8652   34.0426   41.3552 H   0  0  0  0  0  0  0  0  0  0  0  0
   46.8271   32.3464   44.5380 H   0  0  0  0  0  0  0  0  0  0  0  0
   43.9756   36.3782   44.8018 H   0  0  0  0  0  0  0  0  0  0  0  0
   44.5688   33.4136   48.4940 H   0  0  0  0  0  0  0  0  0  0  0  0
   45.8832   31.5375   49.9130 H   0  0  0  0  0  0  0  0  0  0  0  0
   47.6423   31.7229   46.0041 H   0  0  0  0  0  0  0  0  0  0  0  0
   47.3484   35.9492   42.4729 H   0  0  0  0  0  0  0  0  0  0  0  0
   47.7195   35.5711   40.7057 H   0  0  0  0  0  0  0  0  0  0  0  0
   49.8717   35.9045   40.9223 H   0  0  0  0  0  0  0  0  0  0  0  0
   49.3049   36.9392   42.3282 H   0  0  0  0  0  0  0  0  0  0  0  0
   50.8092   35.6193   43.5399 H   0  0  0  0  0  0  0  0  0  0  0  0
   51.0031   33.1003   42.8464 H   0  0  0  0  0  0  0  0  0  0  0  0
   48.7434   28.7272   43.5143 H   0  0  0  0  0  0  0  0  0  0  0  0
  1  2  1  0
  2  7  1  0
  2  3  2  0
  3  4  1  0
  4  5  2  0
  4  8  1  0
  6  5  1  0
  7  6  2  0
  8  9  1  0
  9 10  2  0
 11 10  1  0
 12  8  1  0
 12 11  2  0
 13  1  1  0
 13 18  1  0
 14 15  1  0
 14 13  1  0
 15 16  1  0
 17 16  1  0
 18 17  2  0
 19 18  1  0
 19 23  1  0
 20 21  1  0
 20 19  2  0
 21 22  1  0
 22 23  2  0
  1 24  1  0
  1 25  1  0
  3 26  1  0
  6 27  1  0
  9 28  1  0
 10 29  1  0
 12 30  1  0
 14 31  1  0
 14 32  1  0
 15 33  1  0
 15 34  1  0
 16 35  1  0
 17 36  1  0
 22 37  1  0
M  ISO  8  24   8  25   8  26  14  27  14  28  14  29  14  30  14  31  13
M  ISO  5  32  13  33  13  34  13  36  13  37  14
M  END
>  <minimizedAffinity>  (1) 
-5.95813084

>  <minimizedRMSD>  (1) 
0.590041816

$$$$
