
     RDKit          3D

 38 40  0  0  0  0  0  0  0  0999 V2000
   46.3870   33.8110   41.9820 C   0  0  0  0  0  0  0  0  0  0  0  0
   45.8120   34.2300   43.2880 C   0  0  0  0  0  0  0  0  0  0  0  0
   46.0890   33.4280   44.4310 C   0  0  0  0  0  0  0  0  0  0  0  0
   45.5530   33.8210   45.6450 C   0  0  0  0  0  0  0  0  0  0  0  0
   44.7880   34.9560   45.6840 N   0  0  0  0  0  0  0  0  0  0  0  0
   44.5470   35.6880   44.5880 C   0  0  0  0  0  0  0  0  0  0  0  0
   45.0470   35.3440   43.3880 N   0  0  0  0  0  0  0  0  0  0  0  0
   45.8530   32.9960   46.7440 N   0  0  0  0  0  0  0  0  0  0  0  0
   45.2740   32.9370   47.9570 C   0  0  0  0  0  0  0  0  0  0  0  0
   45.9460   31.9500   48.6760 C   0  0  0  0  0  0  0  0  0  0  0  0
   46.9050   31.4520   47.8700 N   0  0  0  0  0  0  0  0  0  0  0  0
   46.8700   32.0710   46.6870 C   0  0  0  0  0  0  0  0  0  0  0  0
   47.7750   34.1770   41.8760 N   0  0  0  0  0  0  0  0  0  0  0  0
   48.0780   35.5000   41.7440 C   0  0  0  0  0  0  0  0  0  0  0  0
   49.5190   35.8710   41.9640 C   0  0  0  0  0  0  0  0  0  0  0  0
   50.2360   34.9890   42.8460 N   0  0  0  0  0  0  0  0  0  0  0  0
   50.0260   33.5840   42.5900 C   0  0  0  0  0  0  0  0  0  0  0  0
   48.6690   33.1640   42.1020 C   0  0  0  0  0  0  0  0  0  0  0  0
   48.4570   31.7400   41.9120 C   0  0  0  0  0  0  0  0  0  0  0  0
   48.6640   30.9970   43.2320 C   0  0  0  0  0  0  0  0  0  0  0  0
   46.2967   32.7190   41.8854 H   0  0  0  0  0  0  0  0  0  0  0  0
   45.8328   34.3217   41.1807 H   0  0  0  0  0  0  0  0  0  0  0  0
   46.7101   32.5236   44.3518 H   0  0  0  0  0  0  0  0  0  0  0  0
   43.9255   36.5917   44.6718 H   0  0  0  0  0  0  0  0  0  0  0  0
   44.4325   33.5496   48.3127 H   0  0  0  0  0  0  0  0  0  0  0  0
   45.7335   31.6360   49.7086 H   0  0  0  0  0  0  0  0  0  0  0  0
   47.5301   31.8777   45.8286 H   0  0  0  0  0  0  0  0  0  0  0  0
   47.8028   35.8083   40.7246 H   0  0  0  0  0  0  0  0  0  0  0  0
   47.5148   36.0140   42.5368 H   0  0  0  0  0  0  0  0  0  0  0  0
   50.0270   35.8681   40.9883 H   0  0  0  0  0  0  0  0  0  0  0  0
   49.5165   36.8598   42.4459 H   0  0  0  0  0  0  0  0  0  0  0  0
   50.8493   35.3322   43.5989 H   0  0  0  0  0  0  0  0  0  0  0  0
   50.8292   32.8489   42.7464 H   0  0  0  0  0  0  0  0  0  0  0  0
   47.4304   31.5694   41.5557 H   0  0  0  0  0  0  0  0  0  0  0  0
   49.1779   31.3646   41.1708 H   0  0  0  0  0  0  0  0  0  0  0  0
   48.4733   31.6814   44.0718 H   0  0  0  0  0  0  0  0  0  0  0  0
   47.9686   30.1465   43.2870 H   0  0  0  0  0  0  0  0  0  0  0  0
   49.6990   30.6286   43.2870 H   0  0  0  0  0  0  0  0  0  0  0  0
  1  2  1  0
  2  7  1  0
  2  3  2  0
  3  4  1  0
  4  5  2  0
  4  8  1  0
  6  5  1  0
  7  6  2  0
  8  9  1  0
  9 10  2  0
 11 10  1  0
 12  8  1  0
 12 11  2  0
 13  1  1  0
 13 18  1  0
 14 13  1  0
 14 15  1  0
 15 16  1  0
 17 16  1  0
 18 17  2  0
 19 18  1  0
 19 20  1  0
  1 21  1  0
  1 22  1  0
  3 23  1  0
  6 24  1  0
  9 25  1  0
 10 26  1  0
 12 27  1  0
 14 28  1  0
 14 29  1  0
 15 30  1  0
 15 31  1  0
 16 32  1  0
 17 33  1  0
 19 34  1  0
 19 35  1  0
 20 36  1  0
 20 37  1  0
 20 38  1  0
M  ISO  8  21   8  22   8  23  14  24  14  25  14  26  14  27  14  28  13
M  ISO  8  29  13  30  13  31  13  33  13  34   8  35   8  36   8  37   8
M  ISO  1  38   8
M  END
>  <minimizedAffinity>  (1) 
-5.79673815

>  <minimizedRMSD>  (1) 
0.025536593

$$$$
