
     RDKit          3D

 35 37  0  0  0  0  0  0  0  0999 V2000
   46.4390   33.6510   42.1360 C   0  0  0  0  0  0  0  0  0  0  0  0
   45.8690   34.0680   43.4440 C   0  0  0  0  0  0  0  0  0  0  0  0
   46.1690   33.2760   44.5880 C   0  0  0  0  0  0  0  0  0  0  0  0
   45.6340   33.6800   45.8070 C   0  0  0  0  0  0  0  0  0  0  0  0
   44.8590   34.7980   45.8410 N   0  0  0  0  0  0  0  0  0  0  0  0
   44.5940   35.5220   44.7450 C   0  0  0  0  0  0  0  0  0  0  0  0
   45.0900   35.1720   43.5420 N   0  0  0  0  0  0  0  0  0  0  0  0
   45.9600   32.8640   46.9060 N   0  0  0  0  0  0  0  0  0  0  0  0
   45.3850   32.8120   48.1250 C   0  0  0  0  0  0  0  0  0  0  0  0
   46.0940   31.8350   48.8460 C   0  0  0  0  0  0  0  0  0  0  0  0
   47.0570   31.3500   48.0320 N   0  0  0  0  0  0  0  0  0  0  0  0
   46.9910   31.9620   46.8500 C   0  0  0  0  0  0  0  0  0  0  0  0
   47.7930   34.1010   41.9770 N   0  0  0  0  0  0  0  0  0  0  0  0
   47.9950   35.4250   41.7320 C   0  0  0  0  0  0  0  0  0  0  0  0
   49.3930   35.9410   41.9070 C   0  0  0  0  0  0  0  0  0  0  0  0
   50.1950   35.1570   42.8330 N   0  0  0  0  0  0  0  0  0  0  0  0
   50.0900   33.7260   42.6970 C   0  0  0  0  0  0  0  0  0  0  0  0
   48.7660   33.1910   42.2680 C   0  0  0  0  0  0  0  0  0  0  0  0
   48.7930   31.7660   42.2550 C   0  0  0  0  0  0  0  0  0  0  0  0
   48.8180   31.0710   41.2160 O   0  0  0  0  0  0  0  0  0  0  0  0
   48.7980   30.8360   43.2620 O   0  0  0  0  0  0  0  0  0  0  0  0
   46.4189   32.5530   42.0726 H   0  0  0  0  0  0  0  0  0  0  0  0
   45.8321   34.1041   41.3383 H   0  0  0  0  0  0  0  0  0  0  0  0
   46.8001   32.3783   44.5111 H   0  0  0  0  0  0  0  0  0  0  0  0
   43.9607   36.4175   44.8288 H   0  0  0  0  0  0  0  0  0  0  0  0
   44.5348   33.4116   48.4822 H   0  0  0  0  0  0  0  0  0  0  0  0
   45.9001   31.5228   49.8828 H   0  0  0  0  0  0  0  0  0  0  0  0
   47.6455   31.7769   45.9855 H   0  0  0  0  0  0  0  0  0  0  0  0
   47.3435   35.9924   42.4129 H   0  0  0  0  0  0  0  0  0  0  0  0
   47.7719   35.5566   40.6629 H   0  0  0  0  0  0  0  0  0  0  0  0
   49.8905   35.9351   40.9260 H   0  0  0  0  0  0  0  0  0  0  0  0
   49.3110   36.9529   42.3305 H   0  0  0  0  0  0  0  0  0  0  0  0
   50.7999   35.5967   43.5413 H   0  0  0  0  0  0  0  0  0  0  0  0
   50.9434   33.0621   42.8994 H   0  0  0  0  0  0  0  0  0  0  0  0
   48.8189   29.8705   43.0440 H   0  0  0  0  0  0  0  0  0  0  0  0
  1  2  1  0
  2  7  1  0
  2  3  2  0
  3  4  1  0
  4  5  2  0
  4  8  1  0
  6  5  1  0
  7  6  2  0
  8  9  1  0
  9 10  2  0
 11 10  1  0
 12  8  1  0
 12 11  2  0
 13  1  1  0
 13 18  1  0
 14 15  1  0
 14 13  1  0
 15 16  1  0
 17 16  1  0
 18 17  2  0
 19 18  1  0
 19 21  1  0
 20 19  2  0
  1 22  1  0
  1 23  1  0
  3 24  1  0
  6 25  1  0
  9 26  1  0
 10 27  1  0
 12 28  1  0
 14 29  1  0
 14 30  1  0
 15 31  1  0
 15 32  1  0
 16 33  1  0
 17 34  1  0
 21 35  1  0
M  ISO  8  22   8  23   8  24  14  25  14  26  14  27  14  28  14  29  13
M  ISO  5  30  13  31  13  32  13  34  13  35   3
M  END
>  <minimizedAffinity>  (1) 
-5.85581255

>  <minimizedRMSD>  (1) 
0.387017637

$$$$
