
     RDKit          3D

 42 45  0  0  0  0  0  0  0  0999 V2000
   47.8740   34.1400   41.8620 N   0  0  0  0  0  0  0  0  0  0  0  0
   48.1750   35.4540   41.9430 C   0  0  0  0  0  0  0  0  0  0  0  0
   49.6270   35.7710   42.2170 C   0  0  0  0  0  0  0  0  0  0  0  0
   50.3520   34.6930   42.8610 N   0  0  0  0  0  0  0  0  0  0  0  0
   50.0970   33.3990   42.3280 C   0  0  0  0  0  0  0  0  0  0  0  0
   48.7500   33.0860   41.8100 C   0  0  0  0  0  0  0  0  0  0  0  0
   48.5810   31.7690   41.3770 N   0  0  0  0  0  0  0  0  0  0  0  0
   48.6370   31.2820   40.1270 N   0  0  0  0  0  0  0  0  0  0  0  0
   48.3530   29.9710   40.1330 C   0  0  0  0  0  0  0  0  0  0  0  0
   48.1040   29.5710   41.4490 C   0  0  0  0  0  0  0  0  0  0  0  0
   48.2710   30.7360   42.1800 C   0  0  0  0  0  0  0  0  0  0  0  0
   48.4620   30.7900   43.6460 C   0  0  0  0  0  0  0  0  0  0  0  0
   46.4690   33.8050   41.9010 C   0  0  0  0  0  0  0  0  0  0  0  0
   45.8600   34.2350   43.1830 C   0  0  0  0  0  0  0  0  0  0  0  0
   46.1210   33.4580   44.3440 C   0  0  0  0  0  0  0  0  0  0  0  0
   45.5670   33.8660   45.5490 C   0  0  0  0  0  0  0  0  0  0  0  0
   44.7850   35.0080   45.5500 N   0  0  0  0  0  0  0  0  0  0  0  0
   44.5570   35.7150   44.4350 C   0  0  0  0  0  0  0  0  0  0  0  0
   45.0860   35.3430   43.2500 N   0  0  0  0  0  0  0  0  0  0  0  0
   45.8510   33.0940   46.6650 N   0  0  0  0  0  0  0  0  0  0  0  0
   45.2420   33.0240   47.8590 C   0  0  0  0  0  0  0  0  0  0  0  0
   45.9210   32.0890   48.6250 C   0  0  0  0  0  0  0  0  0  0  0  0
   46.9380   31.6130   47.8580 N   0  0  0  0  0  0  0  0  0  0  0  0
   46.8920   32.2310   46.6630 C   0  0  0  0  0  0  0  0  0  0  0  0
   47.8993   35.9248   40.9878 H   0  0  0  0  0  0  0  0  0  0  0  0
   47.6125   35.8411   42.8054 H   0  0  0  0  0  0  0  0  0  0  0  0
   50.1192   35.9958   41.2593 H   0  0  0  0  0  0  0  0  0  0  0  0
   49.6422   36.6250   42.9102 H   0  0  0  0  0  0  0  0  0  0  0  0
   51.0017   34.8520   43.6442 H   0  0  0  0  0  0  0  0  0  0  0  0
   50.8935   32.6408   42.3020 H   0  0  0  0  0  0  0  0  0  0  0  0
   48.3213   29.3183   39.2481 H   0  0  0  0  0  0  0  0  0  0  0  0
   47.8385   28.5690   41.8170 H   0  0  0  0  0  0  0  0  0  0  0  0
   47.5204   30.5238   44.1485 H   0  0  0  0  0  0  0  0  0  0  0  0
   49.2482   30.0789   43.9398 H   0  0  0  0  0  0  0  0  0  0  0  0
   48.7595   31.8075   43.9398 H   0  0  0  0  0  0  0  0  0  0  0  0
   45.9547   34.3102   41.0702 H   0  0  0  0  0  0  0  0  0  0  0  0
   46.3643   32.7138   41.8096 H   0  0  0  0  0  0  0  0  0  0  0  0
   46.7469   32.5552   44.2887 H   0  0  0  0  0  0  0  0  0  0  0  0
   43.9271   36.6153   44.4861 H   0  0  0  0  0  0  0  0  0  0  0  0
   44.3620   33.6044   48.1734 H   0  0  0  0  0  0  0  0  0  0  0  0
   45.6826   31.7894   49.6562 H   0  0  0  0  0  0  0  0  0  0  0  0
   47.5849   32.0623   45.8255 H   0  0  0  0  0  0  0  0  0  0  0  0
  1 13  1  0
  1  2  1  0
  2  3  1  0
  3  4  1  0
  5  4  1  0
  6  1  1  0
  6  5  2  0
  7  6  1  0
  7 11  1  0
  8  9  2  0
  8  7  1  0
  9 10  1  0
 10 11  2  0
 11 12  1  0
 13 14  1  0
 14 19  1  0
 14 15  2  0
 15 16  1  0
 16 17  2  0
 16 20  1  0
 18 17  1  0
 19 18  2  0
 20 21  1  0
 21 22  2  0
 23 22  1  0
 24 20  1  0
 24 23  2  0
  2 25  1  0
  2 26  1  0
  3 27  1  0
  3 28  1  0
  4 29  1  0
  5 30  1  0
  9 31  1  0
 10 32  1  0
 12 33  1  0
 12 34  1  0
 12 35  1  0
 13 36  1  0
 13 37  1  0
 15 38  1  0
 18 39  1  0
 21 40  1  0
 22 41  1  0
 24 42  1  0
M  ISO  8  25  13  26  13  27  13  28  13  30  13  31  14  32  14  33   8
M  ISO  8  34   8  35   8  36   8  37   8  38  14  39  14  40  14  41  14
M  ISO  1  42  14
M  END
>  <minimizedAffinity>  (1) 
-5.91497517

>  <minimizedRMSD>  (1) 
0.686593711

$$$$
