
     RDKit          3D

 54 58  0  0  0  0  0  0  0  0999 V2000
   47.9420   34.1610   41.8370 N   0  0  0  0  0  0  0  0  0  0  0  0
   48.2230   35.4790   41.9070 C   0  0  0  0  0  0  0  0  0  0  0  0
   49.6500   35.8190   42.2580 C   0  0  0  0  0  0  0  0  0  0  0  0
   50.3970   34.7330   42.8670 N   0  0  0  0  0  0  0  0  0  0  0  0
   50.1600   33.4350   42.3380 C   0  0  0  0  0  0  0  0  0  0  0  0
   48.8250   33.0970   41.8250 C   0  0  0  0  0  0  0  0  0  0  0  0
   48.6850   31.7840   41.3830 N   0  0  0  0  0  0  0  0  0  0  0  0
   48.4460   31.3840   40.1110 N   0  0  0  0  0  0  0  0  0  0  0  0
   48.2660   30.0600   40.0750 C   0  0  0  0  0  0  0  0  0  0  0  0
   48.4020   29.5900   41.3850 C   0  0  0  0  0  0  0  0  0  0  0  0
   48.6730   30.6990   42.1430 C   0  0  0  0  0  0  0  0  0  0  0  0
   49.1610   30.2250   43.3940 N   0  0  0  0  0  0  0  0  0  0  0  0
   48.4280   29.9980   44.6370 C   0  0  0  0  0  0  0  0  0  0  0  0
   48.3570   28.4780   44.8740 C   0  0  0  0  0  0  0  0  0  0  0  0
   49.7260   27.9760   45.2090 C   0  0  0  0  0  0  0  0  0  0  0  0
   50.6920   29.1220   45.0230 C   0  0  0  0  0  0  0  0  0  0  0  0
   50.5160   29.6940   43.6290 C   0  0  0  0  0  0  0  0  0  0  0  0
   46.5430   33.8220   41.8300 C   0  0  0  0  0  0  0  0  0  0  0  0
   45.8900   34.2780   43.0920 C   0  0  0  0  0  0  0  0  0  0  0  0
   46.1240   33.5430   44.2710 C   0  0  0  0  0  0  0  0  0  0  0  0
   45.5200   33.9830   45.4420 C   0  0  0  0  0  0  0  0  0  0  0  0
   44.7290   35.1030   45.3890 N   0  0  0  0  0  0  0  0  0  0  0  0
   44.5290   35.7740   44.2530 C   0  0  0  0  0  0  0  0  0  0  0  0
   45.1010   35.3750   43.1040 N   0  0  0  0  0  0  0  0  0  0  0  0
   45.7870   33.2360   46.5920 N   0  0  0  0  0  0  0  0  0  0  0  0
   45.1360   33.1930   47.7660 C   0  0  0  0  0  0  0  0  0  0  0  0
   45.8150   32.2660   48.5730 C   0  0  0  0  0  0  0  0  0  0  0  0
   46.8470   31.7930   47.8490 N   0  0  0  0  0  0  0  0  0  0  0  0
   46.8380   32.3770   46.6460 C   0  0  0  0  0  0  0  0  0  0  0  0
   47.9988   35.9262   40.9273 H   0  0  0  0  0  0  0  0  0  0  0  0
   47.6065   35.8770   42.7264 H   0  0  0  0  0  0  0  0  0  0  0  0
   50.1688   36.1172   41.3350 H   0  0  0  0  0  0  0  0  0  0  0  0
   49.6041   36.6242   43.0060 H   0  0  0  0  0  0  0  0  0  0  0  0
   51.0606   34.8939   43.6381 H   0  0  0  0  0  0  0  0  0  0  0  0
   50.9689   32.6900   42.3129 H   0  0  0  0  0  0  0  0  0  0  0  0
   48.0512   29.4539   39.1825 H   0  0  0  0  0  0  0  0  0  0  0  0
   48.3108   28.5505   41.7332 H   0  0  0  0  0  0  0  0  0  0  0  0
   48.9522   30.4826   45.4738 H   0  0  0  0  0  0  0  0  0  0  0  0
   47.4156   30.4226   44.5678 H   0  0  0  0  0  0  0  0  0  0  0  0
   47.6715   28.2658   45.7077 H   0  0  0  0  0  0  0  0  0  0  0  0
   47.9871   27.9761   43.9678 H   0  0  0  0  0  0  0  0  0  0  0  0
   49.7530   27.6285   46.2523 H   0  0  0  0  0  0  0  0  0  0  0  0
   49.9979   27.1325   44.5573 H   0  0  0  0  0  0  0  0  0  0  0  0
   50.4870   29.9024   45.7706 H   0  0  0  0  0  0  0  0  0  0  0  0
   51.7240   28.7630   45.1502 H   0  0  0  0  0  0  0  0  0  0  0  0
   50.7133   28.8983   42.8956 H   0  0  0  0  0  0  0  0  0  0  0  0
   51.2216   30.5313   43.5241 H   0  0  0  0  0  0  0  0  0  0  0  0
   46.0561   34.3106   40.9731 H   0  0  0  0  0  0  0  0  0  0  0  0
   46.4414   32.7296   41.7507 H   0  0  0  0  0  0  0  0  0  0  0  0
   46.7648   32.6489   44.2644 H   0  0  0  0  0  0  0  0  0  0  0  0
   43.8865   36.6669   44.2570 H   0  0  0  0  0  0  0  0  0  0  0  0
   44.2427   33.7725   48.0422 H   0  0  0  0  0  0  0  0  0  0  0  0
   45.5532   31.9801   49.6024 H   0  0  0  0  0  0  0  0  0  0  0  0
   47.5599   32.1929   45.8367 H   0  0  0  0  0  0  0  0  0  0  0  0
  1  2  1  0
  2  3  1  0
  3  4  1  0
  5  4  1  0
  6  1  1  0
  6  5  2  0
  7  6  1  0
  7 11  1  0
  8  7  1  0
  9  8  2  0
  9 10  1  0
 10 11  2  0
 11 12  1  0
 12 17  1  0
 12 13  1  0
 13 14  1  0
 14 15  1  0
 16 15  1  0
 17 16  1  0
 18  1  1  0
 18 19  1  0
 19 24  1  0
 19 20  2  0
 20 21  1  0
 21 25  1  0
 22 21  2  0
 23 22  1  0
 24 23  2  0
 25 29  1  0
 25 26  1  0
 26 27  2  0
 28 27  1  0
 29 28  2  0
  2 30  1  0
  2 31  1  0
  3 32  1  0
  3 33  1  0
  4 34  1  0
  5 35  1  0
  9 36  1  0
 10 37  1  0
 13 38  1  0
 13 39  1  0
 14 40  1  0
 14 41  1  0
 15 42  1  0
 15 43  1  0
 16 44  1  0
 16 45  1  0
 17 46  1  0
 17 47  1  0
 18 48  1  0
 18 49  1  0
 20 50  1  0
 23 51  1  0
 26 52  1  0
 27 53  1  0
 29 54  1  0
M  ISO  8  30  13  31  13  32  13  33  13  35  13  36  14  37  14  38  13
M  ISO  8  39  13  40  13  41  13  42  13  43  13  44  13  45  13  46  13
M  ISO  8  47  13  48   8  49   8  50  14  51  14  52  14  53  14  54  14
M  END
>  <minimizedAffinity>  (1) 
-5.96885204

>  <minimizedRMSD>  (1) 
1.02233601

$$$$
