
     RDKit          3D

 53 58  0  0  0  0  0  0  0  0999 V2000
   47.9350   34.1600   41.8170 N   0  0  0  0  0  0  0  0  0  0  0  0
   48.2660   35.4610   41.9550 C   0  0  0  0  0  0  0  0  0  0  0  0
   49.7040   35.7350   42.3130 C   0  0  0  0  0  0  0  0  0  0  0  0
   50.4090   34.5990   42.8840 N   0  0  0  0  0  0  0  0  0  0  0  0
   50.1280   33.3380   42.2940 C   0  0  0  0  0  0  0  0  0  0  0  0
   48.7840   33.0720   41.7560 C   0  0  0  0  0  0  0  0  0  0  0  0
   48.5830   31.7780   41.2700 N   0  0  0  0  0  0  0  0  0  0  0  0
   48.1990   31.4470   40.0120 N   0  0  0  0  0  0  0  0  0  0  0  0
   48.0600   30.1320   39.9200 C   0  0  0  0  0  0  0  0  0  0  0  0
   48.3660   29.5780   41.1510 C   0  0  0  0  0  0  0  0  0  0  0  0
   48.6950   30.6520   41.9630 C   0  0  0  0  0  0  0  0  0  0  0  0
   49.2810   30.0160   43.1170 C   0  0  0  0  0  0  0  0  0  0  0  0
   48.3250   29.8070   44.0240 N   0  0  0  0  0  0  0  0  0  0  0  0
   48.4890   29.3670   45.2800 C   0  0  0  0  0  0  0  0  0  0  0  0
   49.7720   29.1040   45.6730 N   0  0  0  0  0  0  0  0  0  0  0  0
   50.7750   29.2920   44.7980 C   0  0  0  0  0  0  0  0  0  0  0  0
   52.1040   29.0330   45.0480 C   0  0  0  0  0  0  0  0  0  0  0  0
   53.1180   29.1980   44.1270 C   0  0  0  0  0  0  0  0  0  0  0  0
   52.8120   29.6570   42.8390 C   0  0  0  0  0  0  0  0  0  0  0  0
   51.4990   29.9330   42.5360 C   0  0  0  0  0  0  0  0  0  0  0  0
   50.5540   29.7450   43.5150 C   0  0  0  0  0  0  0  0  0  0  0  0
   46.5240   33.8730   41.8000 C   0  0  0  0  0  0  0  0  0  0  0  0
   45.8830   34.3090   43.0730 C   0  0  0  0  0  0  0  0  0  0  0  0
   46.0940   33.5410   44.2290 C   0  0  0  0  0  0  0  0  0  0  0  0
   45.5040   33.9630   45.4080 C   0  0  0  0  0  0  0  0  0  0  0  0
   44.7460   35.0970   45.3980 N   0  0  0  0  0  0  0  0  0  0  0  0
   44.5620   35.8070   44.2820 C   0  0  0  0  0  0  0  0  0  0  0  0
   45.1210   35.4260   43.1220 N   0  0  0  0  0  0  0  0  0  0  0  0
   45.7670   33.1720   46.5500 N   0  0  0  0  0  0  0  0  0  0  0  0
   45.1800   33.1770   47.7610 C   0  0  0  0  0  0  0  0  0  0  0  0
   45.8220   32.2220   48.5280 C   0  0  0  0  0  0  0  0  0  0  0  0
   46.7700   31.6710   47.7630 N   0  0  0  0  0  0  0  0  0  0  0  0
   46.7570   32.2320   46.5530 C   0  0  0  0  0  0  0  0  0  0  0  0
   48.0527   35.9669   41.0018 H   0  0  0  0  0  0  0  0  0  0  0  0
   47.6701   35.8339   42.8011 H   0  0  0  0  0  0  0  0  0  0  0  0
   50.2329   36.0439   41.3993 H   0  0  0  0  0  0  0  0  0  0  0  0
   49.6908   36.5167   43.0868 H   0  0  0  0  0  0  0  0  0  0  0  0
   51.0704   34.7021   43.6668 H   0  0  0  0  0  0  0  0  0  0  0  0
   50.9093   32.5656   42.2395 H   0  0  0  0  0  0  0  0  0  0  0  0
   47.7543   29.5770   39.0208 H   0  0  0  0  0  0  0  0  0  0  0  0
   48.3512   28.5130   41.4260 H   0  0  0  0  0  0  0  0  0  0  0  0
   47.6354   29.2250   45.9592 H   0  0  0  0  0  0  0  0  0  0  0  0
   52.3758   28.6699   46.0501 H   0  0  0  0  0  0  0  0  0  0  0  0
   54.1586   28.9709   44.4018 H   0  0  0  0  0  0  0  0  0  0  0  0
   53.6036   29.7935   42.0875 H   0  0  0  0  0  0  0  0  0  0  0  0
   51.2135   30.2944   41.5370 H   0  0  0  0  0  0  0  0  0  0  0  0
   46.0569   34.4067   40.9591 H   0  0  0  0  0  0  0  0  0  0  0  0
   46.3849   32.7877   41.6873 H   0  0  0  0  0  0  0  0  0  0  0  0
   46.7103   32.6303   44.1988 H   0  0  0  0  0  0  0  0  0  0  0  0
   43.9440   36.7165   44.3134 H   0  0  0  0  0  0  0  0  0  0  0  0
   44.3465   33.8197   48.0806 H   0  0  0  0  0  0  0  0  0  0  0  0
   45.5950   31.9638   49.5729 H   0  0  0  0  0  0  0  0  0  0  0  0
   47.4215   31.9831   45.7125 H   0  0  0  0  0  0  0  0  0  0  0  0
  1  2  1  0
  2  3  1  0
  3  4  1  0
  5  4  1  0
  6  1  1  0
  6  5  2  0
  7  6  1  0
  7 11  1  0
  8  7  1  0
  9  8  2  0
  9 10  1  0
 10 11  2  0
 11 12  1  0
 12 21  1  0
 12 13  2  0
 13 14  1  0
 14 15  2  0
 16 17  2  0
 16 15  1  0
 18 17  1  0
 19 18  2  0
 20 19  1  0
 20 21  2  0
 21 16  1  0
 22  1  1  0
 22 23  1  0
 23 28  1  0
 23 24  2  0
 24 25  1  0
 25 29  1  0
 26 25  2  0
 27 26  1  0
 28 27  2  0
 29 33  1  0
 29 30  1  0
 30 31  2  0
 32 31  1  0
 33 32  2  0
  2 34  1  0
  2 35  1  0
  3 36  1  0
  3 37  1  0
  4 38  1  0
  5 39  1  0
  9 40  1  0
 10 41  1  0
 14 42  1  0
 17 43  1  0
 18 44  1  0
 19 45  1  0
 20 46  1  0
 22 47  1  0
 22 48  1  0
 24 49  1  0
 27 50  1  0
 30 51  1  0
 31 52  1  0
 33 53  1  0
M  ISO  8  34  13  35  13  36  13  37  13  39  13  40  14  41  14  42  14
M  ISO  8  43  14  44  14  45  14  46  14  47   8  48   8  49  14  50  14
M  ISO  3  51  14  52  14  53  14
M  END
>  <minimizedAffinity>  (1) 
-6.32832861

>  <minimizedRMSD>  (1) 
1.40637147

$$$$
