
     RDKit          3D

 40 43  0  0  0  0  0  0  0  0999 V2000
   47.7960   34.1440   41.7860 N   0  0  0  0  0  0  0  0  0  0  0  0
   48.1960   35.4150   42.0130 C   0  0  0  0  0  0  0  0  0  0  0  0
   49.6710   35.5800   42.3150 C   0  0  0  0  0  0  0  0  0  0  0  0
   50.3080   34.3920   42.8300 N   0  0  0  0  0  0  0  0  0  0  0  0
   49.9580   33.1880   42.1550 C   0  0  0  0  0  0  0  0  0  0  0  0
   48.5850   33.0490   41.6100 C   0  0  0  0  0  0  0  0  0  0  0  0
   48.3230   31.8000   41.0330 N   0  0  0  0  0  0  0  0  0  0  0  0
   48.3070   31.4650   39.7300 N   0  0  0  0  0  0  0  0  0  0  0  0
   47.9370   30.1830   39.5900 C   0  0  0  0  0  0  0  0  0  0  0  0
   47.7010   29.6410   40.8590 C   0  0  0  0  0  0  0  0  0  0  0  0
   47.9690   30.6950   41.7250 C   0  0  0  0  0  0  0  0  0  0  0  0
   48.3290   30.7380   43.4870 S   0  0  0  0  0  0  0  0  0  0  0  0
   46.3680   33.9140   41.7970 C   0  0  0  0  0  0  0  0  0  0  0  0
   45.7740   34.3460   43.0920 C   0  0  0  0  0  0  0  0  0  0  0  0
   46.0160   33.5520   44.2430 C   0  0  0  0  0  0  0  0  0  0  0  0
   45.4770   33.9670   45.4530 C   0  0  0  0  0  0  0  0  0  0  0  0
   44.7310   35.1300   45.4660 N   0  0  0  0  0  0  0  0  0  0  0  0
   44.5210   35.8550   44.3570 C   0  0  0  0  0  0  0  0  0  0  0  0
   45.0360   35.4750   43.1700 N   0  0  0  0  0  0  0  0  0  0  0  0
   45.7390   33.1750   46.5620 N   0  0  0  0  0  0  0  0  0  0  0  0
   45.1560   33.1280   47.7710 C   0  0  0  0  0  0  0  0  0  0  0  0
   45.7960   32.1470   48.5150 C   0  0  0  0  0  0  0  0  0  0  0  0
   46.7600   31.6230   47.7240 N   0  0  0  0  0  0  0  0  0  0  0  0
   46.7240   32.2490   46.5320 C   0  0  0  0  0  0  0  0  0  0  0  0
   47.9626   36.0107   41.1182 H   0  0  0  0  0  0  0  0  0  0  0  0
   47.6597   35.7488   42.9135 H   0  0  0  0  0  0  0  0  0  0  0  0
   50.1827   35.8699   41.3854 H   0  0  0  0  0  0  0  0  0  0  0  0
   49.7479   36.3450   43.1017 H   0  0  0  0  0  0  0  0  0  0  0  0
   50.9643   34.4132   43.6235 H   0  0  0  0  0  0  0  0  0  0  0  0
   50.6916   32.3764   42.0398 H   0  0  0  0  0  0  0  0  0  0  0  0
   47.8357   29.6462   38.6353 H   0  0  0  0  0  0  0  0  0  0  0  0
   47.3789   28.6200   41.1118 H   0  0  0  0  0  0  0  0  0  0  0  0
   47.1642   30.5989   44.1946 H   0  0  0  0  0  0  0  0  0  0  0  0
   45.9043   34.4848   40.9790 H   0  0  0  0  0  0  0  0  0  0  0  0
   46.1827   32.8378   41.6651 H   0  0  0  0  0  0  0  0  0  0  0  0
   46.6151   32.6317   44.1780 H   0  0  0  0  0  0  0  0  0  0  0  0
   43.9193   36.7739   44.4168 H   0  0  0  0  0  0  0  0  0  0  0  0
   44.3194   33.7559   48.1112 H   0  0  0  0  0  0  0  0  0  0  0  0
   45.5640   31.8522   49.5491 H   0  0  0  0  0  0  0  0  0  0  0  0
   47.3849   32.0418   45.6775 H   0  0  0  0  0  0  0  0  0  0  0  0
  1 13  1  0
  1  2  1  0
  2  3  1  0
  3  4  1  0
  5  4  1  0
  6  1  1  0
  6  5  2  0
  7  6  1  0
  7 11  1  0
  8  7  1  0
  9  8  2  0
  9 10  1  0
 10 11  2  0
 11 12  1  0
 13 14  1  0
 14 19  1  0
 14 15  2  0
 15 16  1  0
 16 17  2  0
 16 20  1  0
 18 17  1  0
 19 18  2  0
 20 21  1  0
 21 22  2  0
 23 22  1  0
 24 20  1  0
 24 23  2  0
  2 25  1  0
  2 26  1  0
  3 27  1  0
  3 28  1  0
  4 29  1  0
  5 30  1  0
  9 31  1  0
 10 32  1  0
 12 33  1  0
 13 34  1  0
 13 35  1  0
 15 36  1  0
 18 37  1  0
 21 38  1  0
 22 39  1  0
 24 40  1  0
M  ISO  8  25  13  26  13  27  13  28  13  30  13  31  14  32  14  33  11
M  ISO  7  34   8  35   8  36  14  37  14  38  14  39  14  40  14
M  END
>  <minimizedAffinity>  (1) 
-5.72956324

>  <minimizedRMSD>  (1) 
1.00990248

$$$$
