
     RDKit          3D

 46 50  0  0  0  0  0  0  0  0999 V2000
   48.0120   34.1910   41.7540 N   0  0  0  0  0  0  0  0  0  0  0  0
   48.3290   35.4680   42.0650 C   0  0  0  0  0  0  0  0  0  0  0  0
   49.7730   35.6990   42.4560 C   0  0  0  0  0  0  0  0  0  0  0  0
   50.4800   34.5050   42.8630 N   0  0  0  0  0  0  0  0  0  0  0  0
   50.2130   33.3390   42.1030 C   0  0  0  0  0  0  0  0  0  0  0  0
   48.8760   33.1400   41.5270 C   0  0  0  0  0  0  0  0  0  0  0  0
   48.6950   31.9230   40.8600 N   0  0  0  0  0  0  0  0  0  0  0  0
   48.8350   31.6930   39.5360 N   0  0  0  0  0  0  0  0  0  0  0  0
   48.4990   30.4290   39.2620 C   0  0  0  0  0  0  0  0  0  0  0  0
   48.1270   29.8070   40.4600 C   0  0  0  0  0  0  0  0  0  0  0  0
   48.2830   30.7950   41.4290 C   0  0  0  0  0  0  0  0  0  0  0  0
   48.3030   30.3210   42.8290 C   0  0  0  0  0  0  0  0  0  0  0  0
   49.1990   30.1330   43.7600 C   0  0  0  0  0  0  0  0  0  0  0  0
   48.8870   29.5580   44.9540 C   0  0  0  0  0  0  0  0  0  0  0  0
   47.6030   29.1600   45.2030 C   0  0  0  0  0  0  0  0  0  0  0  0
   46.7240   29.6390   43.5930 S   0  0  0  0  0  0  0  0  0  0  0  0
   46.6040   33.8860   41.6980 C   0  0  0  0  0  0  0  0  0  0  0  0
   45.9300   34.3200   42.9470 C   0  0  0  0  0  0  0  0  0  0  0  0
   46.1710   33.5820   44.1320 C   0  0  0  0  0  0  0  0  0  0  0  0
   45.5420   33.9920   45.2980 C   0  0  0  0  0  0  0  0  0  0  0  0
   44.7170   35.0940   45.2370 N   0  0  0  0  0  0  0  0  0  0  0  0
   44.5110   35.7680   44.0980 C   0  0  0  0  0  0  0  0  0  0  0  0
   45.1090   35.3920   42.9540 N   0  0  0  0  0  0  0  0  0  0  0  0
   45.8040   33.2520   46.4450 N   0  0  0  0  0  0  0  0  0  0  0  0
   45.2070   33.2370   47.6500 C   0  0  0  0  0  0  0  0  0  0  0  0
   45.8740   32.3050   48.4450 C   0  0  0  0  0  0  0  0  0  0  0  0
   46.8570   31.7820   47.6930 N   0  0  0  0  0  0  0  0  0  0  0  0
   46.8160   32.3560   46.4730 C   0  0  0  0  0  0  0  0  0  0  0  0
   48.1096   36.0957   41.1887 H   0  0  0  0  0  0  0  0  0  0  0  0
   47.7293   35.7232   42.9511 H   0  0  0  0  0  0  0  0  0  0  0  0
   50.2983   36.1322   41.5921 H   0  0  0  0  0  0  0  0  0  0  0  0
   49.7587   36.3683   43.3289 H   0  0  0  0  0  0  0  0  0  0  0  0
   51.1370   34.5022   43.6562 H   0  0  0  0  0  0  0  0  0  0  0  0
   51.0013   32.5881   41.9454 H   0  0  0  0  0  0  0  0  0  0  0  0
   48.5123   29.9587   38.2677 H   0  0  0  0  0  0  0  0  0  0  0  0
   47.7877   28.7705   40.6036 H   0  0  0  0  0  0  0  0  0  0  0  0
   50.2363   30.4484   43.5742 H   0  0  0  0  0  0  0  0  0  0  0  0
   49.6664   29.4140   45.7168 H   0  0  0  0  0  0  0  0  0  0  0  0
   47.1876   28.6850   46.1040 H   0  0  0  0  0  0  0  0  0  0  0  0
   46.1535   34.4101   40.8422 H   0  0  0  0  0  0  0  0  0  0  0  0
   46.4788   32.7991   41.5844 H   0  0  0  0  0  0  0  0  0  0  0  0
   46.8387   32.7078   44.1274 H   0  0  0  0  0  0  0  0  0  0  0  0
   43.8429   36.6418   44.0986 H   0  0  0  0  0  0  0  0  0  0  0  0
   44.3461   33.8504   47.9544 H   0  0  0  0  0  0  0  0  0  0  0  0
   45.6399   32.0473   49.4885 H   0  0  0  0  0  0  0  0  0  0  0  0
   47.4951   32.1317   45.6373 H   0  0  0  0  0  0  0  0  0  0  0  0
  1  2  1  0
  2  3  1  0
  3  4  1  0
  5  4  1  0
  6  1  1  0
  6  5  2  0
  7 11  1  0
  7  6  1  0
  8  7  1  0
  9  8  2  0
  9 10  1  0
 10 11  2  0
 11 12  1  0
 12 16  1  0
 12 13  2  0
 13 14  1  0
 14 15  2  0
 16 15  1  0
 17  1  1  0
 17 18  1  0
 18 23  1  0
 18 19  2  0
 19 20  1  0
 20 24  1  0
 21 20  2  0
 22 21  1  0
 23 22  2  0
 24 28  1  0
 24 25  1  0
 25 26  2  0
 27 26  1  0
 28 27  2  0
  2 29  1  0
  2 30  1  0
  3 31  1  0
  3 32  1  0
  4 33  1  0
  5 34  1  0
  9 35  1  0
 10 36  1  0
 13 37  1  0
 14 38  1  0
 15 39  1  0
 17 40  1  0
 17 41  1  0
 19 42  1  0
 22 43  1  0
 25 44  1  0
 26 45  1  0
 28 46  1  0
M  ISO  8  29  13  30  13  31  13  32  13  34  13  35  14  36  14  37  14
M  ISO  8  38  14  39  14  40   8  41   8  42  14  43  14  44  14  45  14
M  ISO  1  46  14
M  END
>  <minimizedAffinity>  (1) 
-5.69584227

>  <minimizedRMSD>  (1) 
1.61576355

$$$$
