
     RDKit          3D

 51 54  0  0  0  0  0  0  0  0999 V2000
   48.0220   34.1270   41.8080 N   0  0  0  0  0  0  0  0  0  0  0  0
   48.2730   35.4310   42.0550 C   0  0  0  0  0  0  0  0  0  0  0  0
   49.7070   35.7590   42.4010 C   0  0  0  0  0  0  0  0  0  0  0  0
   50.4840   34.6160   42.8450 N   0  0  0  0  0  0  0  0  0  0  0  0
   50.2730   33.4090   42.1320 C   0  0  0  0  0  0  0  0  0  0  0  0
   48.9230   33.1120   41.6180 C   0  0  0  0  0  0  0  0  0  0  0  0
   48.8010   31.8610   41.0080 N   0  0  0  0  0  0  0  0  0  0  0  0
   48.6180   31.6180   39.6790 N   0  0  0  0  0  0  0  0  0  0  0  0
   48.4290   30.3210   39.4910 C   0  0  0  0  0  0  0  0  0  0  0  0
   48.4970   29.6910   40.7350 C   0  0  0  0  0  0  0  0  0  0  0  0
   48.7450   30.6940   41.6480 C   0  0  0  0  0  0  0  0  0  0  0  0
   49.2160   30.0990   42.9360 C   0  0  0  0  0  0  0  0  0  0  0  0
   50.6240   29.9940   43.2030 C   0  0  0  0  0  0  0  0  0  0  0  0
   48.3310   30.3830   44.0950 C   0  0  0  0  0  0  0  0  0  0  0  0
   48.8690   28.5020   42.8130 C   0  0  0  0  0  0  0  0  0  0  0  0
   46.6340   33.7530   41.8020 C   0  0  0  0  0  0  0  0  0  0  0  0
   45.9560   34.2140   43.0400 C   0  0  0  0  0  0  0  0  0  0  0  0
   46.1420   33.4730   44.2240 C   0  0  0  0  0  0  0  0  0  0  0  0
   45.5180   33.9070   45.3740 C   0  0  0  0  0  0  0  0  0  0  0  0
   44.7450   35.0390   45.3090 N   0  0  0  0  0  0  0  0  0  0  0  0
   44.5840   35.7230   44.1720 C   0  0  0  0  0  0  0  0  0  0  0  0
   45.1820   35.3220   43.0370 N   0  0  0  0  0  0  0  0  0  0  0  0
   45.7460   33.1550   46.5290 N   0  0  0  0  0  0  0  0  0  0  0  0
   45.2000   33.2360   47.7650 C   0  0  0  0  0  0  0  0  0  0  0  0
   45.8160   32.2790   48.5680 C   0  0  0  0  0  0  0  0  0  0  0  0
   46.7070   31.6600   47.7880 N   0  0  0  0  0  0  0  0  0  0  0  0
   46.6730   32.1720   46.5630 C   0  0  0  0  0  0  0  0  0  0  0  0
   48.0002   36.0054   41.1574 H   0  0  0  0  0  0  0  0  0  0  0  0
   47.6788   35.6919   42.9432 H   0  0  0  0  0  0  0  0  0  0  0  0
   50.1908   36.1799   41.5072 H   0  0  0  0  0  0  0  0  0  0  0  0
   49.6772   36.4689   43.2408 H   0  0  0  0  0  0  0  0  0  0  0  0
   51.1479   34.6781   43.6300 H   0  0  0  0  0  0  0  0  0  0  0  0
   51.1022   32.7058   41.9650 H   0  0  0  0  0  0  0  0  0  0  0  0
   48.2499   29.8269   38.5247 H   0  0  0  0  0  0  0  0  0  0  0  0
   48.3776   28.6176   40.9434 H   0  0  0  0  0  0  0  0  0  0  0  0
   50.7911   29.9815   44.2902 H   0  0  0  0  0  0  0  0  0  0  0  0
   51.0126   29.0644   42.7616 H   0  0  0  0  0  0  0  0  0  0  0  0
   51.1462   30.8557   42.7616 H   0  0  0  0  0  0  0  0  0  0  0  0
   48.8830   30.2059   45.0299 H   0  0  0  0  0  0  0  0  0  0  0  0
   48.0018   31.4319   44.0566 H   0  0  0  0  0  0  0  0  0  0  0  0
   47.4530   29.7215   44.0566 H   0  0  0  0  0  0  0  0  0  0  0  0
   48.7748   28.0686   43.8196 H   0  0  0  0  0  0  0  0  0  0  0  0
   47.9220   28.3734   42.2684 H   0  0  0  0  0  0  0  0  0  0  0  0
   49.6773   27.9920   42.2684 H   0  0  0  0  0  0  0  0  0  0  0  0
   46.1418   34.2093   40.9305 H   0  0  0  0  0  0  0  0  0  0  0  0
   46.5656   32.6563   41.7512 H   0  0  0  0  0  0  0  0  0  0  0  0
   46.7700   32.5699   44.2305 H   0  0  0  0  0  0  0  0  0  0  0  0
   43.9545   36.6250   44.1651 H   0  0  0  0  0  0  0  0  0  0  0  0
   44.4100   33.9338   48.0795 H   0  0  0  0  0  0  0  0  0  0  0  0
   45.6106   32.0743   49.6291 H   0  0  0  0  0  0  0  0  0  0  0  0
   47.2963   31.8493   45.7160 H   0  0  0  0  0  0  0  0  0  0  0  0
  1  2  1  0
  2  3  1  0
  3  4  1  0
  5  4  1  0
  6  1  1  0
  6  5  2  0
  7  6  1  0
  7 11  1  0
  8  7  1  0
  9  8  2  0
  9 10  1  0
 10 11  2  0
 11 12  1  0
 12 13  1  0
 12 14  1  0
 15 12  1  0
 16  1  1  0
 16 17  1  0
 17 18  2  0
 18 19  1  0
 19 23  1  0
 20 19  2  0
 21 20  1  0
 22 17  1  0
 22 21  2  0
 23 27  1  0
 23 24  1  0
 24 25  2  0
 26 25  1  0
 27 26  2  0
  2 28  1  0
  2 29  1  0
  3 30  1  0
  3 31  1  0
  4 32  1  0
  5 33  1  0
  9 34  1  0
 10 35  1  0
 13 36  1  0
 13 37  1  0
 13 38  1  0
 14 39  1  0
 14 40  1  0
 14 41  1  0
 15 42  1  0
 15 43  1  0
 15 44  1  0
 16 45  1  0
 16 46  1  0
 18 47  1  0
 21 48  1  0
 24 49  1  0
 25 50  1  0
 27 51  1  0
M  ISO  8  28  13  29  13  30  13  31  13  33  13  34  14  35  14  36   8
M  ISO  8  37   8  38   8  39   8  40   8  41   8  42   8  43   8  44   8
M  ISO  7  45   8  46   8  47  14  48  14  49  14  50  14  51  14
M  END
>  <minimizedAffinity>  (1) 
-5.6572032

>  <minimizedRMSD>  (1) 
1.16718531

$$$$
