
     RDKit          3D

 31 34  0  0  0  0  0  0  0  0999 V2000
   44.4460   35.9830   44.9020 C   0  0  0  0  0  0  0  0  0  0  0  0
   45.0010   35.9720   43.6210 C   0  0  0  0  0  0  0  0  0  0  0  0
   45.8470   34.9300   43.2670 C   0  0  0  0  0  0  0  0  0  0  0  0
   46.0920   33.9640   44.1960 N   0  0  0  0  0  0  0  0  0  0  0  0
   45.5380   34.0000   45.4370 C   0  0  0  0  0  0  0  0  0  0  0  0
   44.7170   35.0080   45.7870 N   0  0  0  0  0  0  0  0  0  0  0  0
   45.8800   32.9190   46.3210 N   0  0  0  0  0  0  0  0  0  0  0  0
   45.5660   32.7390   47.6210 C   0  0  0  0  0  0  0  0  0  0  0  0
   46.1060   31.5780   48.0310 N   0  0  0  0  0  0  0  0  0  0  0  0
   46.7710   31.0030   46.9980 C   0  0  0  0  0  0  0  0  0  0  0  0
   47.4950   29.8120   46.8930 C   0  0  0  0  0  0  0  0  0  0  0  0
   48.0300   29.5530   45.6960 N   0  0  0  0  0  0  0  0  0  0  0  0
   47.8710   30.4000   44.6660 C   0  0  0  0  0  0  0  0  0  0  0  0
   47.1750   31.5660   44.7310 N   0  0  0  0  0  0  0  0  0  0  0  0
   46.6150   31.8620   45.9360 C   0  0  0  0  0  0  0  0  0  0  0  0
   46.5010   34.7490   42.0190 N   0  0  0  0  0  0  0  0  0  0  0  0
   47.7820   35.1680   41.9930 C   0  0  0  0  0  0  0  0  0  0  0  0
   48.4960   35.0320   40.8240 C   0  0  0  0  0  0  0  0  0  0  0  0
   47.8590   34.4700   39.7300 C   0  0  0  0  0  0  0  0  0  0  0  0
   48.5540   34.3710   38.6940 O   0  0  0  0  0  0  0  0  0  0  0  0
   46.5870   34.0810   39.8400 N   0  0  0  0  0  0  0  0  0  0  0  0
   45.8580   34.2000   40.9730 C   0  0  0  0  0  0  0  0  0  0  0  0
   44.6710   33.8270   41.0450 O   0  0  0  0  0  0  0  0  0  0  0  0
   43.7747   36.8045   45.1925 H   0  0  0  0  0  0  0  0  0  0  0  0
   44.7719   36.7749   42.9049 H   0  0  0  0  0  0  0  0  0  0  0  0
   44.9696   33.4254   48.2400 H   0  0  0  0  0  0  0  0  0  0  0  0
   47.6173   29.1279   47.7457 H   0  0  0  0  0  0  0  0  0  0  0  0
   48.3351   30.1323   43.7053 H   0  0  0  0  0  0  0  0  0  0  0  0
   48.2469   35.6092   42.8870 H   0  0  0  0  0  0  0  0  0  0  0  0
   49.5438   35.3607   40.7604 H   0  0  0  0  0  0  0  0  0  0  0  0
   46.1339   33.6658   39.0135 H   0  0  0  0  0  0  0  0  0  0  0  0
  1  6  2  0
  2  1  1  0
  3  2  2  0
  3  4  1  0
  4  5  2  0
  5  6  1  0
  5  7  1  0
  7  8  1  0
  8  9  2  0
 10  9  1  0
 11 10  2  0
 12 11  1  0
 13 14  1  0
 13 12  2  0
 14 15  2  0
 15  7  1  0
 15 10  1  0
 16  3  1  0
 17 16  1  0
 18 17  2  0
 19 21  1  0
 19 18  1  0
 20 19  2  0
 21 22  1  0
 22 23  2  0
 22 16  1  0
  1 24  1  0
  2 25  1  0
  8 26  1  0
 11 27  1  0
 13 28  1  0
 17 29  1  0
 18 30  1  0
 21 31  1  0
M  ISO  8  24  14  25  14  26  14  27  14  28  14  29  14  30  14  31   9
M  END
>  <minimizedAffinity>  (1) 
-6.89747095

>  <minimizedRMSD>  (1) 
1.05583119

$$$$
