
     RDKit          3D

 34 37  0  0  0  0  0  0  0  0999 V2000
   44.4330   36.0340   44.8540 C   0  0  0  0  0  0  0  0  0  0  0  0
   45.0750   35.9280   43.6020 C   0  0  0  0  0  0  0  0  0  0  0  0
   45.9190   34.8500   43.3790 C   0  0  0  0  0  0  0  0  0  0  0  0
   46.0890   33.9460   44.3760 N   0  0  0  0  0  0  0  0  0  0  0  0
   45.4590   34.0750   45.5670 C   0  0  0  0  0  0  0  0  0  0  0  0
   44.6390   35.1070   45.8090 N   0  0  0  0  0  0  0  0  0  0  0  0
   45.7390   33.0380   46.5240 N   0  0  0  0  0  0  0  0  0  0  0  0
   45.3730   32.9700   47.8330 C   0  0  0  0  0  0  0  0  0  0  0  0
   45.8590   31.8130   48.3370 N   0  0  0  0  0  0  0  0  0  0  0  0
   46.5270   31.1390   47.3810 C   0  0  0  0  0  0  0  0  0  0  0  0
   47.2010   29.9140   47.3900 C   0  0  0  0  0  0  0  0  0  0  0  0
   47.7630   29.5460   46.2230 N   0  0  0  0  0  0  0  0  0  0  0  0
   47.6700   30.3210   45.1300 C   0  0  0  0  0  0  0  0  0  0  0  0
   47.0190   31.5180   45.0960 N   0  0  0  0  0  0  0  0  0  0  0  0
   46.4430   31.9200   46.2450 C   0  0  0  0  0  0  0  0  0  0  0  0
   47.9080   34.2260   39.6380 C   0  0  0  0  0  0  0  0  0  0  0  0
   48.4990   34.9960   40.6300 C   0  0  0  0  0  0  0  0  0  0  0  0
   47.8560   35.1960   41.8350 C   0  0  0  0  0  0  0  0  0  0  0  0
   46.6220   34.6580   42.1200 C   0  0  0  0  0  0  0  0  0  0  0  0
   46.0610   33.8980   41.1180 C   0  0  0  0  0  0  0  0  0  0  0  0
   46.6720   33.6770   39.9060 C   0  0  0  0  0  0  0  0  0  0  0  0
   48.6920   33.9500   38.0990 S   0  0  0  0  0  0  0  0  0  0  0  0
   47.9980   34.6940   36.9880 O   0  0  0  0  0  0  0  0  0  0  0  0
   48.6130   32.4720   37.7950 O   0  0  0  0  0  0  0  0  0  0  0  0
   43.7589   36.8805   45.0516 H   0  0  0  0  0  0  0  0  0  0  0  0
   44.9098   36.6837   42.8199 H   0  0  0  0  0  0  0  0  0  0  0  0
   44.7870   33.7214   48.3825 H   0  0  0  0  0  0  0  0  0  0  0  0
   47.2679   29.2902   48.2935 H   0  0  0  0  0  0  0  0  0  0  0  0
   48.1489   29.9678   44.2049 H   0  0  0  0  0  0  0  0  0  0  0  0
   49.4857   35.4496   40.4549 H   0  0  0  0  0  0  0  0  0  0  0  0
   48.3513   35.8118   42.6002 H   0  0  0  0  0  0  0  0  0  0  0  0
   45.0746   33.4449   41.2960 H   0  0  0  0  0  0  0  0  0  0  0  0
   46.1718   33.0587   39.1460 H   0  0  0  0  0  0  0  0  0  0  0  0
   49.9870   34.3899   38.1782 H   0  0  0  0  0  0  0  0  0  0  0  0
  1  6  2  0
  2  1  1  0
  3  2  2  0
  3  4  1  0
  4  5  2  0
  5  6  1  0
  5  7  1  0
  7  8  1  0
  8  9  2  0
 10 11  2  0
 10  9  1  0
 12 11  1  0
 13 12  2  0
 14 13  1  0
 14 15  2  0
 15  7  1  0
 15 10  1  0
 16 21  2  0
 16 17  1  0
 17 18  2  0
 18 19  1  0
 19  3  1  0
 20 19  2  0
 21 20  1  0
 22 16  1  0
 23 22  2  0
 24 22  2  0
  1 25  1  0
  2 26  1  0
  8 27  1  0
 11 28  1  0
 13 29  1  0
 17 30  1  0
 18 31  1  0
 20 32  1  0
 21 33  1  0
 22 34  1  0
M  ISO  8  25  14  26  14  27  14  28  14  29  14  30  14  31  14  32  14
M  ISO  2  33  14  34  11
M  END
>  <minimizedAffinity>  (1) 
-6.86905718

>  <minimizedRMSD>  (1) 
0.931674123

$$$$
