
     RDKit          3D

 37 40  0  0  0  0  0  0  0  0999 V2000
   44.8190   35.8290   44.0260 C   0  0  0  0  0  0  0  0  0  0  0  0
   45.7290   35.5640   42.9990 C   0  0  0  0  0  0  0  0  0  0  0  0
   46.5970   34.4900   43.1770 C   0  0  0  0  0  0  0  0  0  0  0  0
   46.5260   33.7570   44.3240 N   0  0  0  0  0  0  0  0  0  0  0  0
   45.6270   34.0520   45.2910 C   0  0  0  0  0  0  0  0  0  0  0  0
   44.7700   35.0850   45.1540 N   0  0  0  0  0  0  0  0  0  0  0  0
   45.6540   33.2030   46.4520 N   0  0  0  0  0  0  0  0  0  0  0  0
   45.0100   33.3450   47.6300 C   0  0  0  0  0  0  0  0  0  0  0  0
   45.3400   32.2980   48.4200 N   0  0  0  0  0  0  0  0  0  0  0  0
   46.1860   31.4930   47.7560 C   0  0  0  0  0  0  0  0  0  0  0  0
   46.8190   30.2970   48.1120 C   0  0  0  0  0  0  0  0  0  0  0  0
   47.6150   29.7460   47.1910 N   0  0  0  0  0  0  0  0  0  0  0  0
   47.7940   30.3190   45.9840 C   0  0  0  0  0  0  0  0  0  0  0  0
   47.1890   31.4870   45.6120 N   0  0  0  0  0  0  0  0  0  0  0  0
   46.3800   32.0640   46.5210 C   0  0  0  0  0  0  0  0  0  0  0  0
   47.6070   34.1310   42.1270 C   0  0  0  0  0  0  0  0  0  0  0  0
   48.8040   35.0260   42.1760 C   0  0  0  0  0  0  0  0  0  0  0  0
   50.0820   34.3620   42.5680 C   0  0  0  0  0  0  0  0  0  0  0  0
   50.3950   33.1420   41.7470 C   0  0  0  0  0  0  0  0  0  0  0  0
   49.1280   32.5020   41.1870 C   0  0  0  0  0  0  0  0  0  0  0  0
   48.0460   32.6960   42.2270 C   0  0  0  0  0  0  0  0  0  0  0  0
   44.1196   36.6705   43.9130 H   0  0  0  0  0  0  0  0  0  0  0  0
   45.7583   36.1788   42.0873 H   0  0  0  0  0  0  0  0  0  0  0  0
   44.3339   34.1695   47.9005 H   0  0  0  0  0  0  0  0  0  0  0  0
   46.6691   29.8344   49.0987 H   0  0  0  0  0  0  0  0  0  0  0  0
   48.4597   29.8222   45.2629 H   0  0  0  0  0  0  0  0  0  0  0  0
   47.1001   34.2717   41.1609 H   0  0  0  0  0  0  0  0  0  0  0  0
   48.9416   35.4644   41.1765 H   0  0  0  0  0  0  0  0  0  0  0  0
   48.5954   35.7699   42.9590 H   0  0  0  0  0  0  0  0  0  0  0  0
   50.9024   35.0846   42.4463 H   0  0  0  0  0  0  0  0  0  0  0  0
   49.9710   34.0325   43.6116 H   0  0  0  0  0  0  0  0  0  0  0  0
   51.0480   33.4323   40.9107 H   0  0  0  0  0  0  0  0  0  0  0  0
   50.8929   32.4078   42.3975 H   0  0  0  0  0  0  0  0  0  0  0  0
   48.8405   32.9918   40.2450 H   0  0  0  0  0  0  0  0  0  0  0  0
   49.2851   31.4343   40.9742 H   0  0  0  0  0  0  0  0  0  0  0  0
   48.4437   32.4898   43.2316 H   0  0  0  0  0  0  0  0  0  0  0  0
   47.2032   32.0102   42.0556 H   0  0  0  0  0  0  0  0  0  0  0  0
  1  6  2  0
  2  3  2  0
  2  1  1  0
  3  4  1  0
  4  5  2  0
  5  7  1  0
  6  5  1  0
  7 15  1  0
  7  8  1  0
  8  9  2  0
 10 11  2  0
 10  9  1  0
 12 11  1  0
 13 12  2  0
 14 13  1  0
 14 15  2  0
 15 10  1  0
 16 17  1  0
 16 21  1  0
 16  3  1  0
 17 18  1  0
 19 18  1  0
 20 19  1  0
 20 21  1  0
  1 22  1  0
  2 23  1  0
  8 24  1  0
 11 25  1  0
 13 26  1  0
 16 27  1  0
 17 28  1  0
 17 29  1  0
 18 30  1  0
 18 31  1  0
 19 32  1  0
 19 33  1  0
 20 34  1  0
 20 35  1  0
 21 36  1  0
 21 37  1  0
M  ISO  8  22  14  23  14  24  14  25  14  26  14  27  13  28  13  29  13
M  ISO  8  30  13  31  13  32  13  33  13  34  13  35  13  36  13  37  13
M  END
>  <minimizedAffinity>  (1) 
-6.35750484

>  <minimizedRMSD>  (1) 
0.586175978

$$$$
