
     RDKit          3D

 28 31  0  0  0  0  0  0  0  0999 V2000
   44.4820   36.1550   44.5720 C   0  0  0  0  0  0  0  0  0  0  0  0
   45.1700   36.0530   43.3480 C   0  0  0  0  0  0  0  0  0  0  0  0
   46.0270   34.9590   43.1570 C   0  0  0  0  0  0  0  0  0  0  0  0
   46.1550   34.0530   44.1580 N   0  0  0  0  0  0  0  0  0  0  0  0
   45.4690   34.1910   45.3270 C   0  0  0  0  0  0  0  0  0  0  0  0
   44.6390   35.2280   45.5420 N   0  0  0  0  0  0  0  0  0  0  0  0
   45.6990   33.1570   46.3000 N   0  0  0  0  0  0  0  0  0  0  0  0
   45.2430   33.0580   47.5650 C   0  0  0  0  0  0  0  0  0  0  0  0
   45.7180   31.9150   48.1010 N   0  0  0  0  0  0  0  0  0  0  0  0
   46.4760   31.2780   47.1910 C   0  0  0  0  0  0  0  0  0  0  0  0
   47.1860   30.0770   47.2350 C   0  0  0  0  0  0  0  0  0  0  0  0
   47.8490   29.7330   46.1250 N   0  0  0  0  0  0  0  0  0  0  0  0
   47.8230   30.5090   45.0350 C   0  0  0  0  0  0  0  0  0  0  0  0
   47.1440   31.6870   44.9460 N   0  0  0  0  0  0  0  0  0  0  0  0
   46.4590   32.0620   46.0670 C   0  0  0  0  0  0  0  0  0  0  0  0
   46.7670   34.7680   41.9530 N   0  0  0  0  0  0  0  0  0  0  0  0
   46.5270   34.1700   40.8160 N   0  0  0  0  0  0  0  0  0  0  0  0
   47.5760   34.2750   39.9800 C   0  0  0  0  0  0  0  0  0  0  0  0
   48.5380   35.0060   40.6830 C   0  0  0  0  0  0  0  0  0  0  0  0
   48.0140   35.3130   41.9320 C   0  0  0  0  0  0  0  0  0  0  0  0
   43.8044   37.0048   44.7416 H   0  0  0  0  0  0  0  0  0  0  0  0
   45.0390   36.8113   42.5620 H   0  0  0  0  0  0  0  0  0  0  0  0
   44.5938   33.7859   48.0736 H   0  0  0  0  0  0  0  0  0  0  0  0
   47.1997   29.4459   48.1359 H   0  0  0  0  0  0  0  0  0  0  0  0
   48.3872   30.1736   44.1523 H   0  0  0  0  0  0  0  0  0  0  0  0
   47.6590   33.8714   38.9601 H   0  0  0  0  0  0  0  0  0  0  0  0
   49.5344   35.2883   40.3123 H   0  0  0  0  0  0  0  0  0  0  0  0
   48.5049   35.8792   42.7372 H   0  0  0  0  0  0  0  0  0  0  0  0
  1  6  2  0
  2  1  1  0
  3  2  2  0
  3  4  1  0
  4  5  2  0
  5  6  1  0
  5  7  1  0
  7  8  1  0
  8  9  2  0
 10 11  2  0
 10  9  1  0
 12 11  1  0
 13 12  2  0
 14 13  1  0
 14 15  2  0
 15  7  1  0
 15 10  1  0
 16  3  1  0
 17 16  1  0
 18 19  1  0
 18 17  2  0
 19 20  2  0
 20 16  1  0
  1 21  1  0
  2 22  1  0
  8 23  1  0
 11 24  1  0
 13 25  1  0
 18 26  1  0
 19 27  1  0
 20 28  1  0
M  ISO  8  21  14  22  14  23  14  24  14  25  14  26  14  27  14  28  14
M  END
>  <minimizedAffinity>  (1) 
-6.19667959

>  <minimizedRMSD>  (1) 
0.495319009

$$$$
