
     RDKit          3D

 34 37  0  0  0  0  0  0  0  0999 V2000
   44.6810   35.7700   44.5100 C   0  0  0  0  0  0  0  0  0  0  0  0
   45.5840   35.5910   43.4330 C   0  0  0  0  0  0  0  0  0  0  0  0
   46.4700   34.5290   43.5150 C   0  0  0  0  0  0  0  0  0  0  0  0
   46.4290   33.7280   44.6070 N   0  0  0  0  0  0  0  0  0  0  0  0
   45.5590   33.9280   45.6100 C   0  0  0  0  0  0  0  0  0  0  0  0
   44.6770   34.9410   45.5840 N   0  0  0  0  0  0  0  0  0  0  0  0
   45.6460   32.9790   46.7070 N   0  0  0  0  0  0  0  0  0  0  0  0
   44.9970   33.0080   47.9020 C   0  0  0  0  0  0  0  0  0  0  0  0
   45.3920   31.9190   48.6030 N   0  0  0  0  0  0  0  0  0  0  0  0
   46.2700   31.2060   47.8840 C   0  0  0  0  0  0  0  0  0  0  0  0
   46.9640   30.0220   48.1400 C   0  0  0  0  0  0  0  0  0  0  0  0
   47.7840   29.5860   47.1650 N   0  0  0  0  0  0  0  0  0  0  0  0
   47.9130   30.2610   46.0210 C   0  0  0  0  0  0  0  0  0  0  0  0
   47.2520   31.4200   45.7340 N   0  0  0  0  0  0  0  0  0  0  0  0
   46.4230   31.8860   46.6870 C   0  0  0  0  0  0  0  0  0  0  0  0
   47.4170   34.2330   42.5220 N   0  0  0  0  0  0  0  0  0  0  0  0
   47.6220   34.9370   41.2760 C   0  0  0  0  0  0  0  0  0  0  0  0
   48.9670   35.6530   41.4290 C   0  0  0  0  0  0  0  0  0  0  0  0
   49.8920   34.8410   42.0680 O   0  0  0  0  0  0  0  0  0  0  0  0
   49.6050   33.4890   41.8930 C   0  0  0  0  0  0  0  0  0  0  0  0
   48.3420   33.1330   42.6450 C   0  0  0  0  0  0  0  0  0  0  0  0
   43.9640   36.6034   44.4744 H   0  0  0  0  0  0  0  0  0  0  0  0
   45.5817   36.2683   42.5662 H   0  0  0  0  0  0  0  0  0  0  0  0
   44.2830   33.7747   48.2371 H   0  0  0  0  0  0  0  0  0  0  0  0
   46.8472   29.4748   49.0871 H   0  0  0  0  0  0  0  0  0  0  0  0
   48.5966   29.8569   45.2598 H   0  0  0  0  0  0  0  0  0  0  0  0
   46.8151   35.6657   41.1086 H   0  0  0  0  0  0  0  0  0  0  0  0
   47.6188   34.2528   40.4147 H   0  0  0  0  0  0  0  0  0  0  0  0
   49.3489   35.9181   40.4321 H   0  0  0  0  0  0  0  0  0  0  0  0
   48.8156   36.5575   42.0365 H   0  0  0  0  0  0  0  0  0  0  0  0
   49.4635   33.2811   40.8221 H   0  0  0  0  0  0  0  0  0  0  0  0
   50.4404   32.8869   42.2797 H   0  0  0  0  0  0  0  0  0  0  0  0
   48.5766   32.9610   43.7058 H   0  0  0  0  0  0  0  0  0  0  0  0
   47.8986   32.2163   42.2290 H   0  0  0  0  0  0  0  0  0  0  0  0
  1  6  2  0
  2  3  2  0
  2  1  1  0
  3  4  1  0
  4  5  2  0
  5  7  1  0
  6  5  1  0
  7  8  1  0
  8  9  2  0
 10 11  2  0
 10  9  1  0
 12 11  1  0
 13 12  2  0
 14 13  1  0
 14 15  2  0
 15  7  1  0
 15 10  1  0
 16 21  1  0
 16  3  1  0
 17 18  1  0
 17 16  1  0
 18 19  1  0
 20 19  1  0
 20 21  1  0
  1 22  1  0
  2 23  1  0
  8 24  1  0
 11 25  1  0
 13 26  1  0
 17 27  1  0
 17 28  1  0
 18 29  1  0
 18 30  1  0
 20 31  1  0
 20 32  1  0
 21 33  1  0
 21 34  1  0
M  ISO  8  22  14  23  14  24  14  25  14  26  14  27  13  28  13  29  13
M  ISO  5  30  13  31  13  32  13  33  13  34  13
M  END
>  <minimizedAffinity>  (1) 
-6.06296921

>  <minimizedRMSD>  (1) 
0.607117295

$$$$
