
     RDKit          3D

 28 31  0  0  0  0  0  0  0  0999 V2000
   44.4660   36.0890   44.5440 C   0  0  0  0  0  0  0  0  0  0  0  0
   45.2080   36.0070   43.3440 C   0  0  0  0  0  0  0  0  0  0  0  0
   46.1140   34.9390   43.1930 C   0  0  0  0  0  0  0  0  0  0  0  0
   46.2340   34.0360   44.2010 N   0  0  0  0  0  0  0  0  0  0  0  0
   45.4950   34.1580   45.3410 C   0  0  0  0  0  0  0  0  0  0  0  0
   44.6150   35.1740   45.5200 N   0  0  0  0  0  0  0  0  0  0  0  0
   45.7120   33.1390   46.3370 N   0  0  0  0  0  0  0  0  0  0  0  0
   45.3070   33.0880   47.6240 C   0  0  0  0  0  0  0  0  0  0  0  0
   45.7510   31.9390   48.1550 N   0  0  0  0  0  0  0  0  0  0  0  0
   46.4360   31.2470   47.2310 C   0  0  0  0  0  0  0  0  0  0  0  0
   47.0870   30.0120   47.2840 C   0  0  0  0  0  0  0  0  0  0  0  0
   47.6880   29.6090   46.1440 N   0  0  0  0  0  0  0  0  0  0  0  0
   47.6450   30.3680   45.0470 C   0  0  0  0  0  0  0  0  0  0  0  0
   47.0210   31.5750   44.9620 N   0  0  0  0  0  0  0  0  0  0  0  0
   46.4040   32.0150   46.0890 C   0  0  0  0  0  0  0  0  0  0  0  0
   46.9070   34.7930   41.9880 C   0  0  0  0  0  0  0  0  0  0  0  0
   48.1590   35.3480   41.8090 C   0  0  0  0  0  0  0  0  0  0  0  0
   48.5300   34.9520   40.5270 C   0  0  0  0  0  0  0  0  0  0  0  0
   47.5090   34.1940   40.0050 C   0  0  0  0  0  0  0  0  0  0  0  0
   46.5600   34.1200   40.9010 O   0  0  0  0  0  0  0  0  0  0  0  0
   43.7537   36.9156   44.6830 H   0  0  0  0  0  0  0  0  0  0  0  0
   45.0814   36.7570   42.5493 H   0  0  0  0  0  0  0  0  0  0  0  0
   44.7160   33.8549   48.1460 H   0  0  0  0  0  0  0  0  0  0  0  0
   47.1087   29.4038   48.2003 H   0  0  0  0  0  0  0  0  0  0  0  0
   48.1506   29.9908   44.1458 H   0  0  0  0  0  0  0  0  0  0  0  0
   48.7325   35.9630   42.5181 H   0  0  0  0  0  0  0  0  0  0  0  0
   49.4741   35.2017   40.0208 H   0  0  0  0  0  0  0  0  0  0  0  0
   47.4933   33.7306   39.0075 H   0  0  0  0  0  0  0  0  0  0  0  0
  1  6  2  0
  2  1  1  0
  3  2  2  0
  3  4  1  0
  4  5  2  0
  5  6  1  0
  5  7  1  0
  7  8  1  0
  8  9  2  0
 10 11  2  0
 10  9  1  0
 12 11  1  0
 13 12  2  0
 14 13  1  0
 14 15  2  0
 15  7  1  0
 15 10  1  0
 16  3  1  0
 17 16  2  0
 18 17  1  0
 19 18  2  0
 19 20  1  0
 20 16  1  0
  1 21  1  0
  2 22  1  0
  8 23  1  0
 11 24  1  0
 13 25  1  0
 17 26  1  0
 18 27  1  0
 19 28  1  0
M  ISO  8  21  14  22  14  23  14  24  14  25  14  26  14  27  14  28  14
M  END
>  <minimizedAffinity>  (1) 
-6.30843496

>  <minimizedRMSD>  (1) 
0.643847644

$$$$
