
     RDKit          3D

 30 32  0  0  0  0  0  0  0  0999 V2000
   44.6790   36.0090   44.2350 C   0  0  0  0  0  0  0  0  0  0  0  0
   45.4950   35.7760   43.1150 C   0  0  0  0  0  0  0  0  0  0  0  0
   46.3580   34.6670   43.1370 C   0  0  0  0  0  0  0  0  0  0  0  0
   46.3570   33.8770   44.2400 N   0  0  0  0  0  0  0  0  0  0  0  0
   45.5510   34.1410   45.2960 C   0  0  0  0  0  0  0  0  0  0  0  0
   44.7090   35.2000   45.3090 N   0  0  0  0  0  0  0  0  0  0  0  0
   45.6500   33.2220   46.4030 N   0  0  0  0  0  0  0  0  0  0  0  0
   45.1030   33.2930   47.6350 C   0  0  0  0  0  0  0  0  0  0  0  0
   45.4770   32.2030   48.3220 N   0  0  0  0  0  0  0  0  0  0  0  0
   46.2610   31.4240   47.5560 C   0  0  0  0  0  0  0  0  0  0  0  0
   46.9040   30.1990   47.7870 C   0  0  0  0  0  0  0  0  0  0  0  0
   47.6250   29.7010   46.7640 N   0  0  0  0  0  0  0  0  0  0  0  0
   47.7120   30.3510   45.5980 C   0  0  0  0  0  0  0  0  0  0  0  0
   47.1020   31.5350   45.3460 N   0  0  0  0  0  0  0  0  0  0  0  0
   46.3670   32.0720   46.3480 C   0  0  0  0  0  0  0  0  0  0  0  0
   47.2380   34.3710   41.9940 C   0  0  0  0  0  0  0  0  0  0  0  0
   48.2810   35.4450   41.7980 C   0  0  0  0  0  0  0  0  0  0  0  0
   46.3870   34.1810   40.7670 C   0  0  0  0  0  0  0  0  0  0  0  0
   43.9993   36.8739   44.2333 H   0  0  0  0  0  0  0  0  0  0  0  0
   45.4592   36.4451   42.2426 H   0  0  0  0  0  0  0  0  0  0  0  0
   44.4617   34.1040   48.0106 H   0  0  0  0  0  0  0  0  0  0  0  0
   46.8239   29.6740   48.7503 H   0  0  0  0  0  0  0  0  0  0  0  0
   48.3140   29.8980   44.7965 H   0  0  0  0  0  0  0  0  0  0  0  0
   47.7950   33.4436   42.1931 H   0  0  0  0  0  0  0  0  0  0  0  0
   48.6281   35.8024   42.7787 H   0  0  0  0  0  0  0  0  0  0  0  0
   49.1317   35.0318   41.2362 H   0  0  0  0  0  0  0  0  0  0  0  0
   47.8431   36.2832   41.2362 H   0  0  0  0  0  0  0  0  0  0  0  0
   45.3546   33.9505   41.0689 H   0  0  0  0  0  0  0  0  0  0  0  0
   46.3965   35.1034   40.1677 H   0  0  0  0  0  0  0  0  0  0  0  0
   46.7879   33.3503   40.1677 H   0  0  0  0  0  0  0  0  0  0  0  0
  1  6  2  0
  2  3  2  0
  2  1  1  0
  3  4  1  0
  4  5  2  0
  5  6  1  0
  5  7  1  0
  7  8  1  0
  8  9  2  0
 10 11  2  0
 10  9  1  0
 12 11  1  0
 13 12  2  0
 14 13  1  0
 14 15  2  0
 15  7  1  0
 15 10  1  0
 16  3  1  0
 17 16  1  0
 18 16  1  0
  1 19  1  0
  2 20  1  0
  8 21  1  0
 11 22  1  0
 13 23  1  0
 16 24  1  0
 17 25  1  0
 17 26  1  0
 17 27  1  0
 18 28  1  0
 18 29  1  0
 18 30  1  0
M  ISO  8  19  14  20  14  21  14  22  14  23  14  24   8  25   8  26   8
M  ISO  4  27   8  28   8  29   8  30   8
M  END
>  <minimizedAffinity>  (1) 
-5.70752764

>  <minimizedRMSD>  (1) 
0.38759622

$$$$
