
     RDKit          3D

 27 30  0  0  0  0  0  0  0  0999 V2000
   44.5180   36.0600   44.5100 C   0  0  0  0  0  0  0  0  0  0  0  0
   45.2490   35.9240   43.3280 C   0  0  0  0  0  0  0  0  0  0  0  0
   46.1140   34.8430   43.2250 C   0  0  0  0  0  0  0  0  0  0  0  0
   46.2150   33.9710   44.2580 N   0  0  0  0  0  0  0  0  0  0  0  0
   45.4890   34.1330   45.3900 C   0  0  0  0  0  0  0  0  0  0  0  0
   44.6360   35.1770   45.5270 N   0  0  0  0  0  0  0  0  0  0  0  0
   45.6830   33.1440   46.4140 N   0  0  0  0  0  0  0  0  0  0  0  0
   45.2100   33.1030   47.6810 C   0  0  0  0  0  0  0  0  0  0  0  0
   45.6570   31.9810   48.2660 N   0  0  0  0  0  0  0  0  0  0  0  0
   46.4140   31.2900   47.3950 C   0  0  0  0  0  0  0  0  0  0  0  0
   47.1040   30.0800   47.4930 C   0  0  0  0  0  0  0  0  0  0  0  0
   47.7740   29.6810   46.3970 N   0  0  0  0  0  0  0  0  0  0  0  0
   47.7720   30.4120   45.2820 C   0  0  0  0  0  0  0  0  0  0  0  0
   47.1130   31.5940   45.1460 N   0  0  0  0  0  0  0  0  0  0  0  0
   46.4230   32.0320   46.2330 C   0  0  0  0  0  0  0  0  0  0  0  0
   46.8460   34.7200   42.0230 N   0  0  0  0  0  0  0  0  0  0  0  0
   48.0660   35.3050   41.9520 C   0  0  0  0  0  0  0  0  0  0  0  0
   48.5730   35.0560   40.7200 N   0  0  0  0  0  0  0  0  0  0  0  0
   47.6560   34.3250   40.0630 C   0  0  0  0  0  0  0  0  0  0  0  0
   46.5840   34.1130   40.8610 N   0  0  0  0  0  0  0  0  0  0  0  0
   43.8269   36.9092   44.6166 H   0  0  0  0  0  0  0  0  0  0  0  0
   45.1431   36.6483   42.5069 H   0  0  0  0  0  0  0  0  0  0  0  0
   44.5674   33.8614   48.1521 H   0  0  0  0  0  0  0  0  0  0  0  0
   47.0999   29.4844   48.4178 H   0  0  0  0  0  0  0  0  0  0  0  0
   48.3389   30.0355   44.4178 H   0  0  0  0  0  0  0  0  0  0  0  0
   48.5572   35.8793   42.7513 H   0  0  0  0  0  0  0  0  0  0  0  0
   47.7612   33.9551   39.0324 H   0  0  0  0  0  0  0  0  0  0  0  0
  1  6  2  0
  2  1  1  0
  3  2  2  0
  3  4  1  0
  4  5  2  0
  5  6  1  0
  5  7  1  0
  7  8  1  0
  8  9  2  0
 10 11  2  0
 10  9  1  0
 12 11  1  0
 13 12  2  0
 14 13  1  0
 14 15  2  0
 15  7  1  0
 15 10  1  0
 16  3  1  0
 17 16  1  0
 18 17  2  0
 19 18  1  0
 19 20  2  0
 20 16  1  0
  1 21  1  0
  2 22  1  0
  8 23  1  0
 11 24  1  0
 13 25  1  0
 17 26  1  0
 19 27  1  0
M  ISO  7  21  14  22  14  23  14  24  14  25  14  26  14  27  14
M  END
>  <minimizedAffinity>  (1) 
-6.04547739

>  <minimizedRMSD>  (1) 
0.568117738

$$$$
