
     RDKit          3D

 35 36  0  0  1  0  0  0  0  0999 V2000
   47.2120   34.9250   41.5200 C   0  0  0  0  0  0  0  0  0  0  0  0
   48.3180   34.1710   41.0490 N   0  0  0  0  0  0  0  0  0  0  0  0
   49.4800   34.4710   41.8370 C   0  0  0  0  0  0  0  0  0  0  0  0
   50.1940   33.3140   42.4130 C   0  0  0  0  0  0  0  0  0  0  0  0
   49.1920   32.4310   42.8710 O   0  0  0  0  0  0  0  0  0  0  0  0
   48.7280   31.8310   41.7000 C   0  0  0  0  0  0  0  0  0  0  0  0
   48.1560   32.8200   40.7120 C   0  0  2  0  0  0  0  0  0  0  0  0
   48.9380   32.5960   39.4130 C   0  0  0  0  0  0  0  0  0  0  0  0
   45.9470   34.1530   41.8030 C   0  0  1  0  0  0  0  0  0  0  0  0
   44.7990   35.6610   43.5070 C   0  0  0  0  0  0  0  0  0  0  0  0
   45.5200   34.4720   43.1700 C   0  0  0  0  0  0  0  0  0  0  0  0
   45.8070   33.6140   44.2340 C   0  0  0  0  0  0  0  0  0  0  0  0
   45.3910   33.9650   45.4820 N   0  0  0  0  0  0  0  0  0  0  0  0
   44.7190   35.0850   45.7610 C   0  0  0  0  0  0  0  0  0  0  0  0
   44.4160   35.9560   44.7490 N   0  0  0  0  0  0  0  0  0  0  0  0
   44.8730   34.4370   40.8240 C   0  0  0  0  0  0  0  0  0  0  0  0
   46.9774   35.6855   40.7607 H   0  0  0  0  0  0  0  0  0  0  0  0
   47.5287   35.3340   42.4908 H   0  0  0  0  0  0  0  0  0  0  0  0
   50.1880   35.0172   41.1964 H   0  0  0  0  0  0  0  0  0  0  0  0
   49.1107   35.0473   42.6981 H   0  0  0  0  0  0  0  0  0  0  0  0
   50.8131   32.8257   41.6460 H   0  0  0  0  0  0  0  0  0  0  0  0
   50.8672   33.6191   43.2277 H   0  0  0  0  0  0  0  0  0  0  0  0
   49.5663   31.3035   41.2214 H   0  0  0  0  0  0  0  0  0  0  0  0
   47.9163   31.1448   41.9833 H   0  0  0  0  0  0  0  0  0  0  0  0
   47.0713   32.6442   40.6613 H   0  0  0  0  0  0  0  0  0  0  0  0
   49.9701   32.3004   39.6527 H   0  0  0  0  0  0  0  0  0  0  0  0
   48.4553   31.8000   38.8270 H   0  0  0  0  0  0  0  0  0  0  0  0
   48.9499   33.5269   38.8270 H   0  0  0  0  0  0  0  0  0  0  0  0
   46.1548   33.0772   41.7061 H   0  0  0  0  0  0  0  0  0  0  0  0
   44.5484   36.3665   42.7011 H   0  0  0  0  0  0  0  0  0  0  0  0
   46.3567   32.6759   44.0675 H   0  0  0  0  0  0  0  0  0  0  0  0
   44.4119   35.3056   46.7940 H   0  0  0  0  0  0  0  0  0  0  0  0
   43.9442   34.6826   41.3597 H   0  0  0  0  0  0  0  0  0  0  0  0
   45.1681   35.2880   40.1925 H   0  0  0  0  0  0  0  0  0  0  0  0
   44.7089   33.5514   40.1925 H   0  0  0  0  0  0  0  0  0  0  0  0
  1  9  1  0
  2  1  1  0
  2  3  1  0
  3  4  1  0
  4  5  1  0
  6  5  1  0
  7  2  1  0
  7  6  1  0
  8  7  1  0
  9 11  1  0
 10 15  2  0
 11 10  1  0
 11 12  2  0
 12 13  1  0
 13 14  2  0
 15 14  1  0
 16  9  1  0
  1 17  1  0
  1 18  1  0
  3 19  1  0
  3 20  1  0
  4 21  1  0
  4 22  1  0
  6 23  1  0
  6 24  1  0
  7 25  1  6
  8 26  1  0
  8 27  1  0
  8 28  1  0
  9 29  1  1
 10 30  1  0
 12 31  1  0
 14 32  1  0
 16 33  1  0
 16 34  1  0
 16 35  1  0
M  ISO  8  17   8  18   8  19  13  20  13  21  13  22  13  23  13  24  13
M  ISO  8  25  13  26   8  27   8  28   8  29   8  30  14  31  14  32  14
M  ISO  3  33   8  34   8  35   8
M  END
>  <minimizedAffinity>  (1) 
-4.02103043

>  <minimizedRMSD>  (1) 
0.649109781

$$$$
