
     RDKit          3D

 24 26  0  0  0  0  0  0  0  0999 V2000
   44.5190   36.1140   44.4510 C   0  0  0  0  0  0  0  0  0  0  0  0
   45.2780   35.9960   43.2780 C   0  0  0  0  0  0  0  0  0  0  0  0
   46.1630   34.9310   43.1560 C   0  0  0  0  0  0  0  0  0  0  0  0
   46.2500   34.0520   44.1860 N   0  0  0  0  0  0  0  0  0  0  0  0
   45.5130   34.1840   45.3020 C   0  0  0  0  0  0  0  0  0  0  0  0
   44.6480   35.2070   45.4460 N   0  0  0  0  0  0  0  0  0  0  0  0
   45.6930   33.1820   46.3340 N   0  0  0  0  0  0  0  0  0  0  0  0
   45.2130   33.1240   47.5920 C   0  0  0  0  0  0  0  0  0  0  0  0
   45.6600   31.9920   48.1610 N   0  0  0  0  0  0  0  0  0  0  0  0
   46.4310   31.3140   47.2760 C   0  0  0  0  0  0  0  0  0  0  0  0
   47.1160   30.1090   47.3740 C   0  0  0  0  0  0  0  0  0  0  0  0
   47.8000   29.7180   46.2770 N   0  0  0  0  0  0  0  0  0  0  0  0
   47.8010   30.4680   45.1730 C   0  0  0  0  0  0  0  0  0  0  0  0
   47.1410   31.6520   45.0470 N   0  0  0  0  0  0  0  0  0  0  0  0
   46.4460   32.0700   46.1310 C   0  0  0  0  0  0  0  0  0  0  0  0
   47.0260   34.6950   41.9590 C   0  0  0  0  0  0  0  0  0  0  0  0
   46.2940   34.6160   40.8000 F   0  0  0  0  0  0  0  0  0  0  0  0
   47.9520   35.7400   41.8370 F   0  0  0  0  0  0  0  0  0  0  0  0
   47.7810   33.5370   42.0790 F   0  0  0  0  0  0  0  0  0  0  0  0
   43.8134   36.9504   44.5629 H   0  0  0  0  0  0  0  0  0  0  0  0
   45.1749   36.7334   42.4683 H   0  0  0  0  0  0  0  0  0  0  0  0
   44.5665   33.8744   48.0705 H   0  0  0  0  0  0  0  0  0  0  0  0
   47.1020   29.5067   48.2944 H   0  0  0  0  0  0  0  0  0  0  0  0
   48.3736   30.1051   44.3067 H   0  0  0  0  0  0  0  0  0  0  0  0
  1  6  2  0
  2  1  1  0
  3  2  2  0
  3  4  1  0
  4  5  2  0
  5  6  1  0
  5  7  1  0
  7  8  1  0
  8  9  2  0
 10 11  2  0
 10  9  1  0
 12 11  1  0
 13 12  2  0
 14 13  1  0
 14 15  2  0
 15  7  1  0
 15 10  1  0
 16 19  1  0
 16  3  1  0
 17 16  1  0
 18 16  1  0
  1 20  1  0
  2 21  1  0
  8 22  1  0
 11 23  1  0
 13 24  1  0
M  ISO  5  20  14  21  14  22  14  23  14  24  14
M  END
>  <minimizedAffinity>  (1) 
-5.79585981

>  <minimizedRMSD>  (1) 
0.319521248

$$$$
