
     RDKit          3D

 23 25  0  0  0  0  0  0  0  0999 V2000
   44.5450   36.0350   44.5180 C   0  0  0  0  0  0  0  0  0  0  0  0
   45.2940   35.9020   43.3430 C   0  0  0  0  0  0  0  0  0  0  0  0
   46.1590   34.8200   43.2500 C   0  0  0  0  0  0  0  0  0  0  0  0
   46.2490   33.9410   44.2820 N   0  0  0  0  0  0  0  0  0  0  0  0
   45.5020   34.1080   45.4070 C   0  0  0  0  0  0  0  0  0  0  0  0
   44.6510   35.1450   45.5340 N   0  0  0  0  0  0  0  0  0  0  0  0
   45.6820   33.1160   46.4320 N   0  0  0  0  0  0  0  0  0  0  0  0
   45.1870   33.0760   47.6840 C   0  0  0  0  0  0  0  0  0  0  0  0
   45.6320   31.9440   48.2760 N   0  0  0  0  0  0  0  0  0  0  0  0
   46.4080   31.2580   47.4120 C   0  0  0  0  0  0  0  0  0  0  0  0
   47.0930   30.0540   47.5270 C   0  0  0  0  0  0  0  0  0  0  0  0
   47.7850   29.6500   46.4550 N   0  0  0  0  0  0  0  0  0  0  0  0
   47.8010   30.3870   45.3290 C   0  0  0  0  0  0  0  0  0  0  0  0
   47.1410   31.5720   45.1810 N   0  0  0  0  0  0  0  0  0  0  0  0
   46.4310   32.0030   46.2610 C   0  0  0  0  0  0  0  0  0  0  0  0
   46.9700   34.6230   42.0510 C   0  0  0  0  0  0  0  0  0  0  0  0
   47.9420   35.3920   41.8360 O   0  0  0  0  0  0  0  0  0  0  0  0
   43.8527   36.8838   44.6191 H   0  0  0  0  0  0  0  0  0  0  0  0
   45.2006   36.6288   42.5226 H   0  0  0  0  0  0  0  0  0  0  0  0
   44.5345   33.8322   48.1449 H   0  0  0  0  0  0  0  0  0  0  0  0
   47.0676   29.4621   48.4538 H   0  0  0  0  0  0  0  0  0  0  0  0
   48.3825   30.0105   44.4746 H   0  0  0  0  0  0  0  0  0  0  0  0
   46.7338   33.8128   41.3454 H   0  0  0  0  0  0  0  0  0  0  0  0
  1  6  2  0
  2  1  1  0
  3  2  2  0
  3  4  1  0
  4  5  2  0
  5  6  1  0
  5  7  1  0
  7  8  1  0
  8  9  2  0
 10 11  2  0
 10  9  1  0
 12 11  1  0
 13 12  2  0
 14 13  1  0
 14 15  2  0
 15  7  1  0
 15 10  1  0
 16  3  1  0
 17 16  2  0
  1 18  1  0
  2 19  1  0
  8 20  1  0
 11 21  1  0
 13 22  1  0
 16 23  1  0
M  ISO  6  18  14  19  14  20  14  21  14  22  14  23   6
M  END
>  <minimizedAffinity>  (1) 
-5.13290882

>  <minimizedRMSD>  (1) 
0.134692147

$$$$
