
     RDKit          3D

 31 34  0  0  1  0  0  0  0  0999 V2000
   45.1530   35.7200   43.4710 C   0  0  0  0  0  0  0  0  0  0  0  0
   45.9320   35.2360   42.4270 C   0  0  0  0  0  0  0  0  0  0  0  0
   46.6650   34.0840   42.6470 C   0  0  0  0  0  0  0  0  0  0  0  0
   46.6020   33.4680   43.8580 N   0  0  0  0  0  0  0  0  0  0  0  0
   45.8270   33.9770   44.8440 C   0  0  0  0  0  0  0  0  0  0  0  0
   45.0970   35.1050   44.6640 N   0  0  0  0  0  0  0  0  0  0  0  0
   45.8050   33.2510   46.0790 N   0  0  0  0  0  0  0  0  0  0  0  0
   45.1940   33.5510   47.2560 C   0  0  0  0  0  0  0  0  0  0  0  0
   45.4510   32.5440   48.1290 N   0  0  0  0  0  0  0  0  0  0  0  0
   46.2080   31.6160   47.5380 C   0  0  0  0  0  0  0  0  0  0  0  0
   46.7350   30.4110   47.9860 C   0  0  0  0  0  0  0  0  0  0  0  0
   47.4600   29.7190   47.1080 N   0  0  0  0  0  0  0  0  0  0  0  0
   47.6740   30.1610   45.8460 C   0  0  0  0  0  0  0  0  0  0  0  0
   47.1740   31.3320   45.3770 N   0  0  0  0  0  0  0  0  0  0  0  0
   46.4370   32.0570   46.2360 C   0  0  0  0  0  0  0  0  0  0  0  0
   47.5240   33.4600   41.6000 C   0  0  1  0  0  0  0  0  0  0  0  0
   47.8030   34.2580   40.3450 C   0  0  0  0  0  0  0  0  0  0  0  0
   48.8770   33.9780   41.4000 C   0  0  1  0  0  0  0  0  0  0  0  0
   49.3530   35.2120   42.0800 C   0  0  0  0  0  0  0  0  0  0  0  0
   49.2520   36.4510   41.7760 O   0  0  0  0  0  0  0  0  0  0  0  0
   50.0570   35.1810   43.2780 O   0  0  0  0  0  0  0  0  0  0  0  0
   44.5636   36.6357   43.3156 H   0  0  0  0  0  0  0  0  0  0  0  0
   45.9646   35.7527   41.4565 H   0  0  0  0  0  0  0  0  0  0  0  0
   44.5968   34.4510   47.4640 H   0  0  0  0  0  0  0  0  0  0  0  0
   46.5630   30.0480   49.0100 H   0  0  0  0  0  0  0  0  0  0  0  0
   48.2815   29.5419   45.1695 H   0  0  0  0  0  0  0  0  0  0  0  0
   47.1136   32.4598   41.8031 H   0  0  0  0  0  0  0  0  0  0  0  0
   47.3902   35.2706   40.2255 H   0  0  0  0  0  0  0  0  0  0  0  0
   47.6942   34.0965   39.2624 H   0  0  0  0  0  0  0  0  0  0  0  0
   49.8572   33.4840   41.4713 H   0  0  0  0  0  0  0  0  0  0  0  0
   50.3562   36.0259   43.6983 H   0  0  0  0  0  0  0  0  0  0  0  0
  1  6  2  0
  2  3  2  0
  2  1  1  0
  3  4  1  0
  4  5  2  0
  5  7  1  0
  6  5  1  0
  7 15  1  0
  7  8  1  0
  8  9  2  0
 10 11  2  0
 10  9  1  0
 12 11  1  0
 13 12  2  0
 14 13  1  0
 14 15  2  0
 15 10  1  0
 16  3  1  0
 17 18  1  0
 17 16  1  0
 18 16  1  0
 18 19  1  0
 19 21  1  0
 20 19  2  0
  1 22  1  0
  2 23  1  0
  8 24  1  0
 11 25  1  0
 13 26  1  0
 16 27  1  6
 17 28  1  0
 17 29  1  0
 18 30  1  6
 21 31  1  0
M  ISO  8  22  14  23  14  24  14  25  14  26  14  27  13  28  13  29  13
M  ISO  2  30  13  31   3
M  END
>  <minimizedAffinity>  (1) 
-6.42730379

>  <minimizedRMSD>  (1) 
1.21122301

$$$$
