
     RDKit          3D

 30 33  0  0  1  0  0  0  0  0999 V2000
   44.6460   36.0610   44.2630 C   0  0  0  0  0  0  0  0  0  0  0  0
   45.4500   35.8780   43.1370 C   0  0  0  0  0  0  0  0  0  0  0  0
   46.3040   34.7990   43.1380 C   0  0  0  0  0  0  0  0  0  0  0  0
   46.3530   33.9480   44.2050 N   0  0  0  0  0  0  0  0  0  0  0  0
   45.5460   34.1710   45.2790 C   0  0  0  0  0  0  0  0  0  0  0  0
   44.6900   35.2260   45.3160 N   0  0  0  0  0  0  0  0  0  0  0  0
   45.6320   33.2300   46.3650 N   0  0  0  0  0  0  0  0  0  0  0  0
   45.0730   33.2430   47.5930 C   0  0  0  0  0  0  0  0  0  0  0  0
   45.4560   32.1180   48.2430 N   0  0  0  0  0  0  0  0  0  0  0  0
   46.2460   31.3860   47.4580 C   0  0  0  0  0  0  0  0  0  0  0  0
   46.9000   30.1620   47.6330 C   0  0  0  0  0  0  0  0  0  0  0  0
   47.6280   29.7130   46.6080 N   0  0  0  0  0  0  0  0  0  0  0  0
   47.7300   30.4080   45.4510 C   0  0  0  0  0  0  0  0  0  0  0  0
   47.1130   31.5920   45.2460 N   0  0  0  0  0  0  0  0  0  0  0  0
   46.3620   32.0850   46.2630 C   0  0  0  0  0  0  0  0  0  0  0  0
   47.1950   34.5010   41.9750 C   0  0  1  0  0  0  0  0  0  0  0  0
   48.3660   35.4400   41.7130 C   0  0  0  0  0  0  0  0  0  0  0  0
   48.5460   34.0070   42.2160 C   0  0  2  0  0  0  0  0  0  0  0  0
   49.1240   33.0450   41.2960 N   0  0  0  0  0  0  0  0  0  0  0  0
   43.9541   36.9157   44.2899 H   0  0  0  0  0  0  0  0  0  0  0  0
   45.4029   36.5690   42.2824 H   0  0  0  0  0  0  0  0  0  0  0  0
   44.4196   34.0306   47.9963 H   0  0  0  0  0  0  0  0  0  0  0  0
   46.8182   29.5953   48.5722 H   0  0  0  0  0  0  0  0  0  0  0  0
   48.3439   29.9892   44.6400 H   0  0  0  0  0  0  0  0  0  0  0  0
   46.3466   34.1328   41.3796 H   0  0  0  0  0  0  0  0  0  0  0  0
   48.6457   35.7093   40.6838 H   0  0  0  0  0  0  0  0  0  0  0  0
   48.6700   36.4432   42.0464 H   0  0  0  0  0  0  0  0  0  0  0  0
   49.0402   33.5379   43.0795 H   0  0  0  0  0  0  0  0  0  0  0  0
   49.5778   32.2897   41.8293 H   0  0  0  0  0  0  0  0  0  0  0  0
   48.3813   32.6481   40.7028 H   0  0  0  0  0  0  0  0  0  0  0  0
  1  6  2  0
  2  3  2  0
  2  1  1  0
  3  4  1  0
  4  5  2  0
  5  6  1  0
  5  7  1  0
  7  8  1  0
  8  9  2  0
 10 11  2  0
 10  9  1  0
 12 11  1  0
 13 12  2  0
 14 13  1  0
 14 15  2  0
 15  7  1  0
 15 10  1  0
 16 18  1  0
 16  3  1  0
 17 16  1  0
 17 18  1  0
 19 18  1  0
  1 20  1  0
  2 21  1  0
  8 22  1  0
 11 23  1  0
 13 24  1  0
 16 25  1  6
 17 26  1  0
 17 27  1  0
 18 28  1  1
 19 29  1  0
 19 30  1  0
M  ISO  8  20  14  21  14  22  14  23  14  24  14  25  13  26  13  27  13
M  ISO  3  28  13  29   5  30   5
M  END
>  <minimizedAffinity>  (1) 
-5.84366083

>  <minimizedRMSD>  (1) 
0.0331364721

$$$$
