
     RDKit          3D

 29 32  0  0  1  0  0  0  0  0999 V2000
   44.6240   36.0760   44.2510 C   0  0  0  0  0  0  0  0  0  0  0  0
   45.4190   35.9260   43.1070 C   0  0  0  0  0  0  0  0  0  0  0  0
   46.2860   34.8570   43.0790 C   0  0  0  0  0  0  0  0  0  0  0  0
   46.3440   34.0020   44.1310 N   0  0  0  0  0  0  0  0  0  0  0  0
   45.5520   34.1880   45.2190 C   0  0  0  0  0  0  0  0  0  0  0  0
   44.6920   35.2200   45.2860 N   0  0  0  0  0  0  0  0  0  0  0  0
   45.6800   33.2210   46.2750 N   0  0  0  0  0  0  0  0  0  0  0  0
   45.1400   33.2060   47.5180 C   0  0  0  0  0  0  0  0  0  0  0  0
   45.5580   32.0830   48.1440 N   0  0  0  0  0  0  0  0  0  0  0  0
   46.3580   31.3730   47.3200 C   0  0  0  0  0  0  0  0  0  0  0  0
   47.0300   30.1740   47.4680 C   0  0  0  0  0  0  0  0  0  0  0  0
   47.7480   29.7450   46.4340 N   0  0  0  0  0  0  0  0  0  0  0  0
   47.8140   30.4520   45.2930 C   0  0  0  0  0  0  0  0  0  0  0  0
   47.1680   31.6300   45.1150 N   0  0  0  0  0  0  0  0  0  0  0  0
   46.4290   32.0920   46.1530 C   0  0  0  0  0  0  0  0  0  0  0  0
   47.1530   34.6010   41.8860 C   0  0  1  0  0  0  0  0  0  0  0  0
   48.3910   35.4790   41.7090 C   0  0  0  0  0  0  0  0  0  0  0  0
   48.4610   33.9950   42.0860 C   0  0  2  0  0  0  0  0  0  0  0  0
   48.9290   33.2030   41.0150 O   0  0  0  0  0  0  0  0  0  0  0  0
   43.9218   36.9210   44.3042 H   0  0  0  0  0  0  0  0  0  0  0  0
   45.3531   36.6327   42.2666 H   0  0  0  0  0  0  0  0  0  0  0  0
   44.4771   33.9738   47.9434 H   0  0  0  0  0  0  0  0  0  0  0  0
   46.9731   29.5979   48.4034 H   0  0  0  0  0  0  0  0  0  0  0  0
   48.4205   30.0562   44.4651 H   0  0  0  0  0  0  0  0  0  0  0  0
   46.2861   34.3483   41.2578 H   0  0  0  0  0  0  0  0  0  0  0  0
   48.6983   35.8163   40.7081 H   0  0  0  0  0  0  0  0  0  0  0  0
   48.7625   36.4255   42.1287 H   0  0  0  0  0  0  0  0  0  0  0  0
   48.9001   33.4050   42.9040 H   0  0  0  0  0  0  0  0  0  0  0  0
   49.3986   32.4083   41.3728 H   0  0  0  0  0  0  0  0  0  0  0  0
  1  6  2  0
  2  1  1  0
  3  2  2  0
  3  4  1  0
  4  5  2  0
  5  6  1  0
  5  7  1  0
  7  8  1  0
  8  9  2  0
 10 11  2  0
 10  9  1  0
 12 11  1  0
 13 12  2  0
 14 13  1  0
 14 15  2  0
 15  7  1  0
 15 10  1  0
 16 18  1  0
 16  3  1  0
 17 16  1  0
 17 18  1  0
 19 18  1  0
  1 20  1  0
  2 21  1  0
  8 22  1  0
 11 23  1  0
 13 24  1  0
 16 25  1  6
 17 26  1  0
 17 27  1  0
 18 28  1  1
 19 29  1  0
M  ISO  8  20  14  21  14  22  14  23  14  24  14  25  13  26  13  27  13
M  ISO  2  28  13  29   3
M  END
>  <minimizedAffinity>  (1) 
-5.83838272

>  <minimizedRMSD>  (1) 
0.142956585

$$$$
