
     RDKit          3D

 43 46  0  0  1  0  0  0  0  0999 V2000
   45.8960   30.6640   47.5500 C   0  0  2  0  0  0  0  0  0  0  0  0
   44.8540   34.5570   46.1420 C   0  0  0  0  0  0  0  0  0  0  0  0
   44.7770   35.1880   44.8990 C   0  0  0  0  0  0  0  0  0  0  0  0
   45.4000   34.5870   43.8040 C   0  0  0  0  0  0  0  0  0  0  0  0
   46.0510   33.4170   43.9930 N   0  0  0  0  0  0  0  0  0  0  0  0
   46.1210   32.8070   45.2150 C   0  0  0  0  0  0  0  0  0  0  0  0
   45.5200   33.3890   46.2630 N   0  0  0  0  0  0  0  0  0  0  0  0
   46.7980   31.5930   45.4330 N   0  0  0  0  0  0  0  0  0  0  0  0
   47.7170   31.2470   44.4880 C   0  0  0  0  0  0  0  0  0  0  0  0
   48.2580   30.0230   44.9280 C   0  0  0  0  0  0  0  0  0  0  0  0
   47.6520   29.6820   46.1050 N   0  0  0  0  0  0  0  0  0  0  0  0
   46.7710   30.6540   46.3870 C   0  0  0  0  0  0  0  0  0  0  0  0
   46.6800   31.4070   48.6720 C   0  0  0  0  0  0  0  0  0  0  0  0
   45.6310   29.2800   48.0500 C   0  0  0  0  0  0  0  0  0  0  0  0
   44.7730   28.5240   47.2090 N   0  0  0  0  0  0  0  0  0  0  0  0
   43.9630   29.0260   46.2750 N   0  0  0  0  0  0  0  0  0  0  0  0
   43.3100   27.9940   45.6840 C   0  0  0  0  0  0  0  0  0  0  0  0
   43.7150   26.8080   46.2570 C   0  0  0  0  0  0  0  0  0  0  0  0
   44.6520   27.1620   47.2320 C   0  0  0  0  0  0  0  0  0  0  0  0
   45.3390   26.2410   48.0810 N   0  0  0  0  0  0  0  0  0  0  0  0
   46.5990   25.8010   47.8940 C   0  0  0  0  0  0  0  0  0  0  0  0
   47.1710   24.9110   48.7740 C   0  0  0  0  0  0  0  0  0  0  0  0
   46.4200   24.4690   49.8690 C   0  0  0  0  0  0  0  0  0  0  0  0
   46.9610   23.6600   50.6540 O   0  0  0  0  0  0  0  0  0  0  0  0
   45.1650   24.9150   50.0440 N   0  0  0  0  0  0  0  0  0  0  0  0
   44.6220   25.7980   49.1560 C   0  0  0  0  0  0  0  0  0  0  0  0
   43.4280   26.1540   49.4170 O   0  0  0  0  0  0  0  0  0  0  0  0
   44.9376   31.1347   47.2857 H   0  0  0  0  0  0  0  0  0  0  0  0
   44.3729   35.0107   47.0211 H   0  0  0  0  0  0  0  0  0  0  0  0
   44.2365   36.1392   44.7849 H   0  0  0  0  0  0  0  0  0  0  0  0
   45.3622   35.0549   42.8092 H   0  0  0  0  0  0  0  0  0  0  0  0
   47.9800   31.8042   43.5768 H   0  0  0  0  0  0  0  0  0  0  0  0
   49.0358   29.4407   44.4122 H   0  0  0  0  0  0  0  0  0  0  0  0
   46.3223   31.0680   49.6554 H   0  0  0  0  0  0  0  0  0  0  0  0
   47.7535   31.1870   48.5765 H   0  0  0  0  0  0  0  0  0  0  0  0
   46.5179   32.4908   48.5765 H   0  0  0  0  0  0  0  0  0  0  0  0
   46.5917   28.7505   48.1320 H   0  0  0  0  0  0  0  0  0  0  0  0
   45.1230   29.3806   49.0205 H   0  0  0  0  0  0  0  0  0  0  0  0
   42.5722   28.0892   44.8737 H   0  0  0  0  0  0  0  0  0  0  0  0
   43.3725   25.7946   46.0007 H   0  0  0  0  0  0  0  0  0  0  0  0
   47.1766   26.1572   47.0283 H   0  0  0  0  0  0  0  0  0  0  0  0
   48.1998   24.5535   48.6195 H   0  0  0  0  0  0  0  0  0  0  0  0
   44.6116   24.5901   50.8496 H   0  0  0  0  0  0  0  0  0  0  0  0
  1 14  1  0
  1 13  1  0
  2  7  2  0
  3  2  1  0
  4  5  1  0
  4  3  2  0
  5  6  2  0
  6  8  1  0
  6  7  1  0
  8 12  1  0
  9 10  2  0
  9  8  1  0
 10 11  1  0
 11 12  2  0
 12  1  1  0
 15 19  1  0
 15 14  1  0
 16 15  1  0
 17 18  1  0
 17 16  2  0
 18 19  2  0
 19 20  1  0
 20 26  1  0
 21 20  1  0
 21 22  2  0
 22 23  1  0
 23 25  1  0
 23 24  2  0
 26 27  2  0
 26 25  1  0
  1 28  1  6
  2 29  1  0
  3 30  1  0
  4 31  1  0
  9 32  1  0
 10 33  1  0
 13 34  1  0
 13 35  1  0
 13 36  1  0
 14 37  1  0
 14 38  1  0
 17 39  1  0
 18 40  1  0
 21 41  1  0
 22 42  1  0
 25 43  1  0
M  ISO  8  28   8  29  14  30  14  31  14  32  14  33  14  34   8  35   8
M  ISO  8  36   8  37   8  38   8  39  14  40  14  41  14  42  14  43   9
M  END
>  <minimizedAffinity>  (1) 
-5.38179302

>  <minimizedRMSD>  (1) 
1.42611444

$$$$
