
     RDKit          3D

 46 50  0  0  1  0  0  0  0  0999 V2000
   44.5980   35.7930   44.5060 C   0  0  0  0  0  0  0  0  0  0  0  0
   44.1940   35.3680   43.2520 C   0  0  0  0  0  0  0  0  0  0  0  0
   44.4320   34.0560   42.9070 C   0  0  0  0  0  0  0  0  0  0  0  0
   45.0460   33.2120   43.7760 N   0  0  0  0  0  0  0  0  0  0  0  0
   45.4260   33.6860   45.0040 C   0  0  0  0  0  0  0  0  0  0  0  0
   45.2090   34.9670   45.3800 N   0  0  0  0  0  0  0  0  0  0  0  0
   46.0740   32.7510   45.8830 N   0  0  0  0  0  0  0  0  0  0  0  0
   46.6560   32.9240   47.0940 C   0  0  0  0  0  0  0  0  0  0  0  0
   47.1230   31.7290   47.5020 N   0  0  0  0  0  0  0  0  0  0  0  0
   46.8650   30.7780   46.5920 C   0  0  0  0  0  0  0  0  0  0  0  0
   47.1340   29.4190   46.5380 C   0  0  0  0  0  0  0  0  0  0  0  0
   46.7190   28.7690   45.4490 N   0  0  0  0  0  0  0  0  0  0  0  0
   46.0660   29.4150   44.4480 C   0  0  0  0  0  0  0  0  0  0  0  0
   45.8000   30.7340   44.4880 N   0  0  0  0  0  0  0  0  0  0  0  0
   46.1970   31.4320   45.5650 C   0  0  0  0  0  0  0  0  0  0  0  0
   44.0480   33.4960   41.5830 C   0  0  1  0  0  0  0  0  0  0  0  0
   43.8600   34.4030   40.4150 C   0  0  0  0  0  0  0  0  0  0  0  0
   45.0570   33.4790   40.5060 C   0  0  1  0  0  0  0  0  0  0  0  0
   46.3340   34.1990   40.4960 C   0  0  0  0  0  0  0  0  0  0  0  0
   47.4170   33.3580   41.1400 C   0  0  0  0  0  0  0  0  0  0  0  0
   48.7390   33.7030   40.6970 N   0  0  0  0  0  0  0  0  0  0  0  0
   49.7350   33.6000   41.7350 C   0  0  0  0  0  0  0  0  0  0  0  0
   49.5620   34.7940   42.6540 C   0  0  0  0  0  0  0  0  0  0  0  0
   49.1190   35.8540   41.6690 C   0  0  0  0  0  0  0  0  0  0  0  0
   48.6870   35.1460   40.4130 C   0  0  0  0  0  0  0  0  0  0  0  0
   44.4150   36.8373   44.7990 H   0  0  0  0  0  0  0  0  0  0  0  0
   43.6981   36.0570   42.5525 H   0  0  0  0  0  0  0  0  0  0  0  0
   46.7333   33.8724   47.6459 H   0  0  0  0  0  0  0  0  0  0  0  0
   47.6632   28.9023   47.3523 H   0  0  0  0  0  0  0  0  0  0  0  0
   45.7417   28.8372   43.5699 H   0  0  0  0  0  0  0  0  0  0  0  0
   43.4138   32.7392   42.0678 H   0  0  0  0  0  0  0  0  0  0  0  0
   43.9894   35.4891   40.5315 H   0  0  0  0  0  0  0  0  0  0  0  0
   43.0606   34.5816   39.6808 H   0  0  0  0  0  0  0  0  0  0  0  0
   45.5211   32.6222   39.9956 H   0  0  0  0  0  0  0  0  0  0  0  0
   46.6171   34.4212   39.4565 H   0  0  0  0  0  0  0  0  0  0  0  0
   46.2219   35.1342   41.0643 H   0  0  0  0  0  0  0  0  0  0  0  0
   47.3660   33.4970   42.2300 H   0  0  0  0  0  0  0  0  0  0  0  0
   47.2365   32.3129   40.8482 H   0  0  0  0  0  0  0  0  0  0  0  0
   49.5928   32.6673   42.3005 H   0  0  0  0  0  0  0  0  0  0  0  0
   50.7460   33.5884   41.3016 H   0  0  0  0  0  0  0  0  0  0  0  0
   48.7940   34.6071   43.4191 H   0  0  0  0  0  0  0  0  0  0  0  0
   50.4615   35.0573   43.2298 H   0  0  0  0  0  0  0  0  0  0  0  0
   48.2780   36.4274   42.0861 H   0  0  0  0  0  0  0  0  0  0  0  0
   49.9391   36.5560   41.4577 H   0  0  0  0  0  0  0  0  0  0  0  0
   49.3683   35.3936   39.5857 H   0  0  0  0  0  0  0  0  0  0  0  0
   47.6731   35.4529   40.1166 H   0  0  0  0  0  0  0  0  0  0  0  0
  1  6  2  0
  2  1  1  0
  3  2  2  0
  3  4  1  0
  4  5  2  0
  5  6  1  0
  5  7  1  0
  7  8  1  0
  8  9  2  0
 10  9  1  0
 11 10  2  0
 12 11  1  0
 13 14  1  0
 13 12  2  0
 14 15  2  0
 15  7  1  0
 15 10  1  0
 16  3  1  0
 17 18  1  0
 17 16  1  0
 18 16  1  0
 19 18  1  0
 19 20  1  0
 21 20  1  0
 21 22  1  0
 22 23  1  0
 24 23  1  0
 25 21  1  0
 25 24  1  0
  1 26  1  0
  2 27  1  0
  8 28  1  0
 11 29  1  0
 13 30  1  0
 16 31  1  1
 17 32  1  0
 17 33  1  0
 18 34  1  6
 19 35  1  0
 19 36  1  0
 20 37  1  0
 20 38  1  0
 22 39  1  0
 22 40  1  0
 23 41  1  0
 23 42  1  0
 24 43  1  0
 24 44  1  0
 25 45  1  0
 25 46  1  0
M  ISO  8  26  14  27  14  28  14  29  14  30  14  31  13  32  13  33  13
M  ISO  8  34  13  35   8  36   8  37   8  38   8  39  13  40  13  41  13
M  ISO  5  42  13  43  13  44  13  45  13  46  13
M  END
>  <minimizedAffinity>  (1) 
-5.63761425

>  <minimizedRMSD>  (1) 
2.35730958

$$$$
