
     RDKit          3D

 43 47  0  0  1  0  0  0  0  0999 V2000
   45.5380   33.6140   42.2020 C   0  0  1  0  0  0  0  0  0  0  0  0
   45.4460   34.5700   41.0830 C   0  0  0  0  0  0  0  0  0  0  0  0
   46.8000   34.0920   41.5670 C   0  0  1  0  0  0  0  0  0  0  0  0
   44.4980   35.5830   45.2440 C   0  0  0  0  0  0  0  0  0  0  0  0
   44.7010   35.2600   43.9010 C   0  0  0  0  0  0  0  0  0  0  0  0
   45.2740   34.0280   43.6010 C   0  0  0  0  0  0  0  0  0  0  0  0
   45.6150   33.1890   44.5920 N   0  0  0  0  0  0  0  0  0  0  0  0
   45.4030   33.5370   45.9010 C   0  0  0  0  0  0  0  0  0  0  0  0
   44.8430   34.7360   46.2380 N   0  0  0  0  0  0  0  0  0  0  0  0
   45.8130   32.5810   46.8750 N   0  0  0  0  0  0  0  0  0  0  0  0
   45.8210   32.6830   48.2350 C   0  0  0  0  0  0  0  0  0  0  0  0
   46.2930   31.5350   48.7490 N   0  0  0  0  0  0  0  0  0  0  0  0
   46.5940   30.6790   47.7350 C   0  0  0  0  0  0  0  0  0  0  0  0
   47.1010   29.3960   47.7290 C   0  0  0  0  0  0  0  0  0  0  0  0
   47.2800   28.8360   46.5140 N   0  0  0  0  0  0  0  0  0  0  0  0
   46.9730   29.5110   45.3860 C   0  0  0  0  0  0  0  0  0  0  0  0
   46.4770   30.7640   45.3860 N   0  0  0  0  0  0  0  0  0  0  0  0
   46.2840   31.3570   46.5630 C   0  0  0  0  0  0  0  0  0  0  0  0
   47.6920   35.1400   42.0540 C   0  0  0  0  0  0  0  0  0  0  0  0
   49.1060   34.5710   42.1990 C   0  0  0  0  0  0  0  0  0  0  0  0
   49.0560   33.1750   42.1410 O   0  0  0  0  0  0  0  0  0  0  0  0
   49.9310   32.5290   41.2590 C   0  0  0  0  0  0  0  0  0  0  0  0
   49.5000   32.0950   40.0250 C   0  0  0  0  0  0  0  0  0  0  0  0
   50.3330   31.4480   39.1150 C   0  0  0  0  0  0  0  0  0  0  0  0
   51.6110   31.2500   39.4820 N   0  0  0  0  0  0  0  0  0  0  0  0
   52.0520   31.6660   40.6830 C   0  0  0  0  0  0  0  0  0  0  0  0
   51.2380   32.2950   41.5650 N   0  0  0  0  0  0  0  0  0  0  0  0
   45.0648   32.6390   42.3903 H   0  0  0  0  0  0  0  0  0  0  0  0
   45.1293   35.6068   41.2694 H   0  0  0  0  0  0  0  0  0  0  0  0
   44.9268   34.5865   40.1134 H   0  0  0  0  0  0  0  0  0  0  0  0
   47.6833   33.5341   41.2227 H   0  0  0  0  0  0  0  0  0  0  0  0
   44.0453   36.5525   45.4993 H   0  0  0  0  0  0  0  0  0  0  0  0
   44.4158   35.9602   43.1020 H   0  0  0  0  0  0  0  0  0  0  0  0
   45.4952   33.5593   48.8146 H   0  0  0  0  0  0  0  0  0  0  0  0
   47.3448   28.8613   48.6589 H   0  0  0  0  0  0  0  0  0  0  0  0
   47.1358   29.0134   44.4186 H   0  0  0  0  0  0  0  0  0  0  0  0
   47.7032   35.9753   41.3384 H   0  0  0  0  0  0  0  0  0  0  0  0
   47.3377   35.5024   43.0303 H   0  0  0  0  0  0  0  0  0  0  0  0
   49.7387   34.9493   41.3826 H   0  0  0  0  0  0  0  0  0  0  0  0
   49.5287   34.8824   43.1656 H   0  0  0  0  0  0  0  0  0  0  0  0
   48.4502   32.2671   39.7452 H   0  0  0  0  0  0  0  0  0  0  0  0
   49.9602   31.1127   38.1359 H   0  0  0  0  0  0  0  0  0  0  0  0
   53.1029   31.4906   40.9567 H   0  0  0  0  0  0  0  0  0  0  0  0
  1  6  1  0
  2  3  1  0
  2  1  1  0
  3 19  1  0
  3  1  1  0
  4  9  2  0
  5  4  1  0
  6  5  2  0
  6  7  1  0
  7  8  2  0
  8  9  1  0
  8 10  1  0
 10 11  1  0
 11 12  2  0
 13 12  1  0
 14 13  2  0
 15 14  1  0
 16 15  2  0
 17 16  1  0
 17 18  2  0
 18 10  1  0
 18 13  1  0
 19 20  1  0
 21 20  1  0
 22 27  1  0
 22 21  1  0
 23 22  2  0
 24 25  2  0
 24 23  1  0
 25 26  1  0
 26 27  2  0
  1 28  1  6
  2 29  1  0
  2 30  1  0
  3 31  1  6
  4 32  1  0
  5 33  1  0
 11 34  1  0
 14 35  1  0
 16 36  1  0
 19 37  1  0
 19 38  1  0
 20 39  1  0
 20 40  1  0
 23 41  1  0
 24 42  1  0
 26 43  1  0
M  ISO  8  28  13  29  13  30  13  31  13  32  14  33  14  34  14  35  14
M  ISO  8  36  14  37   8  38   8  39   8  40   8  41  14  42  14  43  14
M  END
>  <minimizedAffinity>  (1) 
-5.61074877

>  <minimizedRMSD>  (1) 
1.53315151

$$$$
