
     RDKit          3D

 38 41  0  0  1  0  0  0  0  0999 V2000
   44.5730   35.5470   45.1330 C   0  0  0  0  0  0  0  0  0  0  0  0
   44.4410   35.2600   43.7740 C   0  0  0  0  0  0  0  0  0  0  0  0
   44.8660   34.0160   43.3230 C   0  0  0  0  0  0  0  0  0  0  0  0
   45.3900   33.1270   44.1930 N   0  0  0  0  0  0  0  0  0  0  0  0
   45.5030   33.4440   45.5150 C   0  0  0  0  0  0  0  0  0  0  0  0
   45.0970   34.6580   46.0040 N   0  0  0  0  0  0  0  0  0  0  0  0
   46.0800   32.4490   46.3620 N   0  0  0  0  0  0  0  0  0  0  0  0
   46.4120   32.5070   47.6870 C   0  0  0  0  0  0  0  0  0  0  0  0
   46.9160   31.3190   48.0230 N   0  0  0  0  0  0  0  0  0  0  0  0
   46.9280   30.4740   46.9670 C   0  0  0  0  0  0  0  0  0  0  0  0
   47.3500   29.1670   46.8330 C   0  0  0  0  0  0  0  0  0  0  0  0
   47.2070   28.6420   45.5920 N   0  0  0  0  0  0  0  0  0  0  0  0
   46.6840   29.3750   44.5780 C   0  0  0  0  0  0  0  0  0  0  0  0
   46.2770   30.6420   44.7160 N   0  0  0  0  0  0  0  0  0  0  0  0
   46.3940   31.2170   45.9260 C   0  0  0  0  0  0  0  0  0  0  0  0
   44.7770   33.6320   41.9010 C   0  0  1  0  0  0  0  0  0  0  0  0
   44.6230   34.6360   40.8330 C   0  0  0  0  0  0  0  0  0  0  0  0
   45.9470   33.9310   41.0260 C   0  0  1  0  0  0  0  0  0  0  0  0
   47.0760   34.7990   41.3390 C   0  0  0  0  0  0  0  0  0  0  0  0
   48.2180   34.5150   40.3570 C   0  0  0  0  0  0  0  0  0  0  0  0
   47.7150   33.8570   39.2350 O   0  0  0  0  0  0  0  0  0  0  0  0
   48.1850   34.2300   37.9830 C   0  0  0  0  0  0  0  0  0  0  0  0
   47.7070   33.7570   36.8970 O   0  0  0  0  0  0  0  0  0  0  0  0
   49.1990   35.1340   37.7750 O   0  0  0  0  0  0  0  0  0  0  0  0
   44.2402   36.5268   45.5061 H   0  0  0  0  0  0  0  0  0  0  0  0
   44.0127   35.9974   43.0792 H   0  0  0  0  0  0  0  0  0  0  0  0
   46.2866   33.3735   48.3529 H   0  0  0  0  0  0  0  0  0  0  0  0
   47.7714   28.5936   47.6718 H   0  0  0  0  0  0  0  0  0  0  0  0
   46.5893   28.9026   43.5891 H   0  0  0  0  0  0  0  0  0  0  0  0
   44.1972   32.7377   42.1733 H   0  0  0  0  0  0  0  0  0  0  0  0
   44.5243   35.7012   41.0892 H   0  0  0  0  0  0  0  0  0  0  0  0
   43.9309   34.7752   39.9894 H   0  0  0  0  0  0  0  0  0  0  0  0
   46.6394   33.2579   40.4992 H   0  0  0  0  0  0  0  0  0  0  0  0
   46.7671   35.8509   41.2496 H   0  0  0  0  0  0  0  0  0  0  0  0
   47.4163   34.6061   42.3671 H   0  0  0  0  0  0  0  0  0  0  0  0
   48.6805   35.4641   40.0485 H   0  0  0  0  0  0  0  0  0  0  0  0
   48.9721   33.8808   40.8459 H   0  0  0  0  0  0  0  0  0  0  0  0
   49.4845   35.3541   36.8530 H   0  0  0  0  0  0  0  0  0  0  0  0
  1  6  2  0
  2  1  1  0
  3  2  2  0
  3  4  1  0
  4  5  2  0
  5  6  1  0
  5  7  1  0
  7  8  1  0
  8  9  2  0
 10  9  1  0
 11 10  2  0
 12 11  1  0
 13 14  1  0
 13 12  2  0
 14 15  2  0
 15  7  1  0
 15 10  1  0
 16  3  1  0
 17 18  1  0
 17 16  1  0
 18 19  1  0
 18 16  1  0
 20 19  1  0
 21 20  1  0
 22 21  1  0
 23 22  2  0
 24 22  1  0
  1 25  1  0
  2 26  1  0
  8 27  1  0
 11 28  1  0
 13 29  1  0
 16 30  1  1
 17 31  1  0
 17 32  1  0
 18 33  1  6
 19 34  1  0
 19 35  1  0
 20 36  1  0
 20 37  1  0
 24 38  1  0
M  ISO  8  25  14  26  14  27  14  28  14  29  14  30  13  31  13  32  13
M  ISO  6  33  13  34   8  35   8  36   8  37   8  38   3
M  END
>  <minimizedAffinity>  (1) 
-5.31511068

>  <minimizedRMSD>  (1) 
1.40733171

$$$$
