
     RDKit          3D

 14 14  0  0  0  0  0  0  0  0999 V2000
   47.3580   35.0900   41.6410 C   0  0  0  0  0  0  0  0  0  0  0  0
   46.7540   34.1540   40.7780 C   0  0  0  0  0  0  0  0  0  0  0  0
   45.4390   33.7650   41.0110 C   0  0  0  0  0  0  0  0  0  0  0  0
   44.7790   34.3250   42.0940 N   0  0  0  0  0  0  0  0  0  0  0  0
   45.4040   35.2130   42.8840 C   0  0  0  0  0  0  0  0  0  0  0  0
   46.6710   35.6010   42.6760 N   0  0  0  0  0  0  0  0  0  0  0  0
   48.7750   35.4360   41.2960 C   0  0  0  0  0  0  0  0  0  0  0  0
   49.6560   34.4210   41.5840 F   0  0  0  0  0  0  0  0  0  0  0  0
   48.8480   35.8500   39.9770 F   0  0  0  0  0  0  0  0  0  0  0  0
   49.2020   36.5340   42.0540 F   0  0  0  0  0  0  0  0  0  0  0  0
   47.6560   33.4540   39.3810 S   0  0  0  0  0  0  0  0  0  0  0  0
   44.9385   33.0361   40.3566 H   0  0  0  0  0  0  0  0  0  0  0  0
   44.8546   35.6395   43.7362 H   0  0  0  0  0  0  0  0  0  0  0  0
   48.6744   32.6637   39.8448 H   0  0  0  0  0  0  0  0  0  0  0  0
  1  6  2  0
  2  3  2  0
  2  1  1  0
  3  4  1  0
  4  5  2  0
  6  5  1  0
  7  8  1  0
  7  1  1  0
  7 10  1  0
  9  7  1  0
 11  2  1  0
  3 12  1  0
  5 13  1  0
 11 14  1  0
M  ISO  3  12  14  13  14  14  11
M  END
>  <minimizedAffinity>  (1) 
-3.72918272

>  <minimizedRMSD>  (1) 
4.87441492

$$$$
