
     RDKit          3D

 18 19  0  0  0  0  0  0  0  0999 V2000
   47.2310   34.4150   41.2490 C   0  0  0  0  0  0  0  0  0  0  0  0
   45.8700   34.6140   41.5630 C   0  0  0  0  0  0  0  0  0  0  0  0
   44.9020   34.0710   40.7000 C   0  0  0  0  0  0  0  0  0  0  0  0
   45.3220   33.3770   39.5990 N   0  0  0  0  0  0  0  0  0  0  0  0
   46.6410   33.2170   39.3470 C   0  0  0  0  0  0  0  0  0  0  0  0
   47.5810   33.7250   40.1540 N   0  0  0  0  0  0  0  0  0  0  0  0
   48.1980   35.0090   42.1900 C   0  0  0  0  0  0  0  0  0  0  0  0
   49.6200   34.7370   42.2040 C   0  0  0  0  0  0  0  0  0  0  0  0
   49.1610   36.0710   41.5790 C   0  0  0  0  0  0  0  0  0  0  0  0
   45.3670   35.5340   43.0230 S   0  0  0  0  0  0  0  0  0  0  0  0
   43.8294   34.2016   40.9060 H   0  0  0  0  0  0  0  0  0  0  0  0
   46.9503   32.6538   38.4542 H   0  0  0  0  0  0  0  0  0  0  0  0
   47.4526   34.9374   42.9958 H   0  0  0  0  0  0  0  0  0  0  0  0
   50.1643   34.7448   43.1599 H   0  0  0  0  0  0  0  0  0  0  0  0
   50.2390   33.9013   41.8457 H   0  0  0  0  0  0  0  0  0  0  0  0
   49.2076   36.2270   40.4911 H   0  0  0  0  0  0  0  0  0  0  0  0
   49.3728   37.1405   41.7251 H   0  0  0  0  0  0  0  0  0  0  0  0
   45.7425   34.8472   44.1474 H   0  0  0  0  0  0  0  0  0  0  0  0
  1  2  2  0
  1  7  1  0
  2 10  1  0
  3  2  1  0
  4  3  2  0
  5  4  1  0
  5  6  2  0
  6  1  1  0
  7  8  1  0
  9  7  1  0
  9  8  1  0
  3 11  1  0
  5 12  1  0
  7 13  1  0
  8 14  1  0
  8 15  1  0
  9 16  1  0
  9 17  1  0
 10 18  1  0
M  ISO  8  11  14  12  14  13  13  14  13  15  13  16  13  17  13  18  11
M  END
>  <minimizedAffinity>  (1) 
-3.46235418

>  <minimizedRMSD>  (1) 
4.96267462

$$$$
