
     RDKit          3D

 12 12  0  0  0  0  0  0  0  0999 V2000
   47.1140   33.8010   43.2580 C   0  0  0  0  0  0  0  0  0  0  0  0
   46.1720   33.7520   42.2050 C   0  0  0  0  0  0  0  0  0  0  0  0
   46.5440   34.2650   40.9690 C   0  0  0  0  0  0  0  0  0  0  0  0
   47.7920   34.7950   40.8080 N   0  0  0  0  0  0  0  0  0  0  0  0
   48.6510   34.8170   41.8480 C   0  0  0  0  0  0  0  0  0  0  0  0
   48.3340   34.3360   43.0480 N   0  0  0  0  0  0  0  0  0  0  0  0
   44.5420   33.0440   42.4630 S   0  0  0  0  0  0  0  0  0  0  0  0
   46.7000   33.1640   44.8540 S   0  0  0  0  0  0  0  0  0  0  0  0
   45.8381   34.2444   40.1257 H   0  0  0  0  0  0  0  0  0  0  0  0
   49.6516   35.2489   41.6986 H   0  0  0  0  0  0  0  0  0  0  0  0
   44.2977   32.9379   43.8069 H   0  0  0  0  0  0  0  0  0  0  0  0
   47.2286   33.9773   45.8215 H   0  0  0  0  0  0  0  0  0  0  0  0
  1  8  1  0
  2  7  1  0
  2  1  2  0
  3  2  1  0
  4  3  2  0
  4  5  1  0
  5  6  2  0
  6  1  1  0
  3  9  1  0
  5 10  1  0
  7 11  1  0
  8 12  1  0
M  ISO  4   9  14  10  14  11  11  12  11
M  END
>  <minimizedAffinity>  (1) 
-2.28739834

>  <minimizedRMSD>  (1) 
4.00423002

$$$$
