
     RDKit          3D

 12 12  0  0  0  0  0  0  0  0999 V2000
   44.7040   35.2360   44.2530 C   0  0  0  0  0  0  0  0  0  0  0  0
   45.0300   34.2600   43.2720 C   0  0  0  0  0  0  0  0  0  0  0  0
   45.5800   33.0510   43.6800 C   0  0  0  0  0  0  0  0  0  0  0  0
   45.7840   32.8560   45.0180 N   0  0  0  0  0  0  0  0  0  0  0  0
   45.4610   33.8090   45.9250 C   0  0  0  0  0  0  0  0  0  0  0  0
   44.9340   34.9720   45.5610 N   0  0  0  0  0  0  0  0  0  0  0  0
   44.7220   34.6110   41.5270 S   0  0  0  0  0  0  0  0  0  0  0  0
   44.1540   36.4450   43.8480 O   0  0  0  0  0  0  0  0  0  0  0  0
   45.8436   32.2734   42.9480 H   0  0  0  0  0  0  0  0  0  0  0  0
   45.6403   33.6139   46.9926 H   0  0  0  0  0  0  0  0  0  0  0  0
   43.8212   35.6376   41.4198 H   0  0  0  0  0  0  0  0  0  0  0  0
   43.9937   36.6185   42.8866 H   0  0  0  0  0  0  0  0  0  0  0  0
  1  6  2  0
  2  3  2  0
  2  1  1  0
  3  4  1  0
  4  5  2  0
  6  5  1  0
  7  2  1  0
  8  1  1  0
  3  9  1  0
  5 10  1  0
  7 11  1  0
  8 12  1  0
M  ISO  4   9  14  10  14  11  11  12   3
M  END
>  <minimizedAffinity>  (1) 
-2.94124937

>  <minimizedRMSD>  (1) 
0.729067445

$$$$
