
     RDKit          3D

 33 34  0  0  0  0  0  0  0  0999 V2000
   46.6630   34.9240   41.7700 C   0  0  0  0  0  0  0  0  0  0  0  0
   45.5910   34.2820   41.0960 C   0  0  0  0  0  0  0  0  0  0  0  0
   44.3020   34.4480   41.5680 C   0  0  0  0  0  0  0  0  0  0  0  0
   44.1150   35.2330   42.6790 N   0  0  0  0  0  0  0  0  0  0  0  0
   45.1680   35.8210   43.2870 C   0  0  0  0  0  0  0  0  0  0  0  0
   46.4120   35.6760   42.8490 N   0  0  0  0  0  0  0  0  0  0  0  0
   48.0120   34.6770   41.1480 C   0  0  0  0  0  0  0  0  0  0  0  0
   47.9950   34.3780   39.6990 C   0  0  0  0  0  0  0  0  0  0  0  0
   48.5200   33.4430   41.8800 C   0  0  0  0  0  0  0  0  0  0  0  0
   48.9720   35.8000   41.5070 C   0  0  0  0  0  0  0  0  0  0  0  0
   45.9000   33.2440   39.6980 S   0  0  0  0  0  0  0  0  0  0  0  0
   44.3400   32.5980   39.1200 C   0  0  0  0  0  0  0  0  0  0  0  0
   44.1960   31.2710   39.5430 C   0  0  0  0  0  0  0  0  0  0  0  0
   43.0570   30.5230   39.2170 C   0  0  0  0  0  0  0  0  0  0  0  0
   42.0730   31.1230   38.4670 C   0  0  0  0  0  0  0  0  0  0  0  0
   42.2200   32.4170   38.0590 C   0  0  0  0  0  0  0  0  0  0  0  0
   43.3350   33.1540   38.3760 C   0  0  0  0  0  0  0  0  0  0  0  0
   43.4501   33.9647   41.0674 H   0  0  0  0  0  0  0  0  0  0  0  0
   44.9879   36.4421   44.1768 H   0  0  0  0  0  0  0  0  0  0  0  0
   47.9331   33.2899   39.5498 H   0  0  0  0  0  0  0  0  0  0  0  0
   47.1229   34.8619   39.2350 H   0  0  0  0  0  0  0  0  0  0  0  0
   48.9163   34.7599   39.2350 H   0  0  0  0  0  0  0  0  0  0  0  0
   48.4525   33.6069   42.9656 H   0  0  0  0  0  0  0  0  0  0  0  0
   47.9068   32.5732   41.6017 H   0  0  0  0  0  0  0  0  0  0  0  0
   49.5678   33.2570   41.6017 H   0  0  0  0  0  0  0  0  0  0  0  0
   49.0444   35.8847   42.6013 H   0  0  0  0  0  0  0  0  0  0  0  0
   49.9658   35.5803   41.0897 H   0  0  0  0  0  0  0  0  0  0  0  0
   48.6004   36.7475   41.0897 H   0  0  0  0  0  0  0  0  0  0  0  0
   44.9926   30.8067   40.1429 H   0  0  0  0  0  0  0  0  0  0  0  0
   42.9525   29.4808   39.5530 H   0  0  0  0  0  0  0  0  0  0  0  0
   41.1676   30.5602   38.1960 H   0  0  0  0  0  0  0  0  0  0  0  0
   41.4237   32.8826   37.4598 H   0  0  0  0  0  0  0  0  0  0  0  0
   43.4204   34.1949   38.0306 H   0  0  0  0  0  0  0  0  0  0  0  0
  1  6  2  0
  2  3  2  0
  2  1  1  0
  3  4  1  0
  4  5  2  0
  6  5  1  0
  7 10  1  0
  7  1  1  0
  7  9  1  0
  8  7  1  0
 11  2  1  0
 12 13  2  0
 12 11  1  0
 14 13  1  0
 15 14  2  0
 16 17  2  0
 16 15  1  0
 17 12  1  0
  3 18  1  0
  5 19  1  0
  8 20  1  0
  8 21  1  0
  8 22  1  0
  9 23  1  0
  9 24  1  0
  9 25  1  0
 10 26  1  0
 10 27  1  0
 10 28  1  0
 13 29  1  0
 14 30  1  0
 15 31  1  0
 16 32  1  0
 17 33  1  0
M  ISO  8  18  14  19  14  20   8  21   8  22   8  23   8  24   8  25   8
M  ISO  8  26   8  27   8  28   8  29  14  30  14  31  14  32  14  33  14
M  END
>  <minimizedAffinity>  (1) 
-4.10374689

>  <minimizedRMSD>  (1) 
2.84045625

$$$$
