
     RDKit          3D

 30 31  0  0  0  0  0  0  0  0999 V2000
   46.6030   34.8500   41.6670 C   0  0  0  0  0  0  0  0  0  0  0  0
   45.5500   34.2220   40.9520 C   0  0  0  0  0  0  0  0  0  0  0  0
   44.2480   34.3820   41.3910 C   0  0  0  0  0  0  0  0  0  0  0  0
   44.0190   35.1460   42.5110 N   0  0  0  0  0  0  0  0  0  0  0  0
   45.0660   35.7190   43.1530 C   0  0  0  0  0  0  0  0  0  0  0  0
   46.3260   35.5910   42.7620 N   0  0  0  0  0  0  0  0  0  0  0  0
   47.9730   34.6030   41.1020 C   0  0  0  0  0  0  0  0  0  0  0  0
   48.0080   34.3410   39.6350 C   0  0  0  0  0  0  0  0  0  0  0  0
   48.4310   33.3430   41.8060 C   0  0  0  0  0  0  0  0  0  0  0  0
   48.9310   35.7130   41.5030 C   0  0  0  0  0  0  0  0  0  0  0  0
   45.9000   33.1970   39.5560 S   0  0  0  0  0  0  0  0  0  0  0  0
   44.3650   32.6420   38.8290 C   0  0  0  0  0  0  0  0  0  0  0  0
   44.0250   31.3410   39.2170 C   0  0  0  0  0  0  0  0  0  0  0  0
   42.8460   31.0190   38.6060 N   0  0  0  0  0  0  0  0  0  0  0  0
   42.4740   32.1000   37.8590 C   0  0  0  0  0  0  0  0  0  0  0  0
   43.3920   33.0560   38.0050 N   0  0  0  0  0  0  0  0  0  0  0  0
   43.4128   33.9076   40.8549 H   0  0  0  0  0  0  0  0  0  0  0  0
   44.8587   36.3238   44.0481 H   0  0  0  0  0  0  0  0  0  0  0  0
   48.1518   33.2649   39.4581 H   0  0  0  0  0  0  0  0  0  0  0  0
   47.0588   34.6635   39.1822 H   0  0  0  0  0  0  0  0  0  0  0  0
   48.8393   34.9013   39.1822 H   0  0  0  0  0  0  0  0  0  0  0  0
   48.3772   33.4911   42.8947 H   0  0  0  0  0  0  0  0  0  0  0  0
   47.7802   32.5045   41.5174 H   0  0  0  0  0  0  0  0  0  0  0  0
   49.4684   33.1182   41.5174 H   0  0  0  0  0  0  0  0  0  0  0  0
   48.9833   35.7736   42.6001 H   0  0  0  0  0  0  0  0  0  0  0  0
   49.9314   35.4975   41.0996 H   0  0  0  0  0  0  0  0  0  0  0  0
   48.5715   36.6711   41.0996 H   0  0  0  0  0  0  0  0  0  0  0  0
   44.6033   30.6937   39.8927 H   0  0  0  0  0  0  0  0  0  0  0  0
   41.5676   32.1704   37.2397 H   0  0  0  0  0  0  0  0  0  0  0  0
   43.3584   33.9795   37.5502 H   0  0  0  0  0  0  0  0  0  0  0  0
  1  6  2  0
  2  3  2  0
  2  1  1  0
  3  4  1  0
  4  5  2  0
  6  5  1  0
  7 10  1  0
  7  1  1  0
  7  9  1  0
  8  7  1  0
 11  2  1  0
 12 13  2  0
 12 11  1  0
 14 13  1  0
 15 16  1  0
 15 14  2  0
 16 12  1  0
  3 17  1  0
  5 18  1  0
  8 19  1  0
  8 20  1  0
  8 21  1  0
  9 22  1  0
  9 23  1  0
  9 24  1  0
 10 25  1  0
 10 26  1  0
 10 27  1  0
 13 28  1  0
 15 29  1  0
 16 30  1  0
M  ISO  8  17  14  18  14  19   8  20   8  21   8  22   8  23   8  24   8
M  ISO  6  25   8  26   8  27   8  28  14  29  14  30   9
M  END
>  <minimizedAffinity>  (1) 
-4.0951972

>  <minimizedRMSD>  (1) 
2.62995052

$$$$
