
     RDKit          3D

 35 36  0  0  1  0  0  0  0  0999 V2000
   46.6220   33.8650   43.8310 C   0  0  0  0  0  0  0  0  0  0  0  0
   45.5290   34.7450   43.9650 C   0  0  0  0  0  0  0  0  0  0  0  0
   44.8810   34.7810   45.1960 C   0  0  0  0  0  0  0  0  0  0  0  0
   45.3130   33.9860   46.2150 N   0  0  0  0  0  0  0  0  0  0  0  0
   46.3640   33.1680   46.0250 C   0  0  0  0  0  0  0  0  0  0  0  0
   47.0080   33.1040   44.8630 N   0  0  0  0  0  0  0  0  0  0  0  0
   47.2290   33.8440   42.4670 C   0  0  0  0  0  0  0  0  0  0  0  0
   46.4480   33.1350   41.4280 C   0  0  0  0  0  0  0  0  0  0  0  0
   48.5340   33.0440   42.6180 C   0  0  0  0  0  0  0  0  0  0  0  0
   47.6500   35.2430   42.0420 C   0  0  0  0  0  0  0  0  0  0  0  0
   44.9510   35.7400   42.6320 S   0  0  0  0  0  0  0  0  0  0  0  0
   42.2460   35.6630   42.5250 N   0  0  0  0  0  0  0  0  0  0  0  0
   41.2200   35.1100   41.6490 C   0  0  0  0  0  0  0  0  0  0  0  0
   41.8330   35.1610   40.2480 C   0  0  0  0  0  0  0  0  0  0  0  0
   43.3270   35.1850   40.4790 C   0  0  0  0  0  0  0  0  0  0  0  0
   43.4290   35.0260   41.9900 C   0  0  1  0  0  0  0  0  0  0  0  0
   44.0211   35.4504   45.3463 H   0  0  0  0  0  0  0  0  0  0  0  0
   46.7014   32.5321   46.8568 H   0  0  0  0  0  0  0  0  0  0  0  0
   45.7157   32.4702   41.9095 H   0  0  0  0  0  0  0  0  0  0  0  0
   45.9203   33.8690   40.8013 H   0  0  0  0  0  0  0  0  0  0  0  0
   47.1277   32.5390   40.8013 H   0  0  0  0  0  0  0  0  0  0  0  0
   48.7583   32.9065   43.6861 H   0  0  0  0  0  0  0  0  0  0  0  0
   48.4191   32.0610   42.1380 H   0  0  0  0  0  0  0  0  0  0  0  0
   49.3579   33.5924   42.1380 H   0  0  0  0  0  0  0  0  0  0  0  0
   47.8349   35.8575   42.9354 H   0  0  0  0  0  0  0  0  0  0  0  0
   48.5698   35.1826   41.4417 H   0  0  0  0  0  0  0  0  0  0  0  0
   46.8497   35.7003   41.4417 H   0  0  0  0  0  0  0  0  0  0  0  0
   42.2991   36.6886   42.4466 H   0  0  0  0  0  0  0  0  0  0  0  0
   40.9864   34.0731   41.9322 H   0  0  0  0  0  0  0  0  0  0  0  0
   40.2758   35.6711   41.7097 H   0  0  0  0  0  0  0  0  0  0  0  0
   41.5088   36.0677   39.7163 H   0  0  0  0  0  0  0  0  0  0  0  0
   41.5230   34.3066   39.6285 H   0  0  0  0  0  0  0  0  0  0  0  0
   43.8234   34.3535   39.9573 H   0  0  0  0  0  0  0  0  0  0  0  0
   43.8150   36.0950   40.0997 H   0  0  0  0  0  0  0  0  0  0  0  0
   43.4731   33.9682   42.2884 H   0  0  0  0  0  0  0  0  0  0  0  0
  1  2  2  0
  1  6  1  0
  2  3  1  0
  3  4  2  0
  5  4  1  0
  6  5  2  0
  7  9  1  0
  7  1  1  0
  8  7  1  0
 10  7  1  0
 11  2  1  0
 13 12  1  0
 14 15  1  0
 14 13  1  0
 15 16  1  0
 16 12  1  0
 16 11  1  0
  3 17  1  0
  5 18  1  0
  8 19  1  0
  8 20  1  0
  8 21  1  0
  9 22  1  0
  9 23  1  0
  9 24  1  0
 10 25  1  0
 10 26  1  0
 10 27  1  0
 12 28  1  0
 13 29  1  0
 13 30  1  0
 14 31  1  0
 14 32  1  0
 15 33  1  0
 15 34  1  0
 16 35  1  6
M  ISO  8  17  14  18  14  19   8  20   8  21   8  22   8  23   8  24   8
M  ISO  8  25   8  26   8  27   8  28   5  29  13  30  13  31  13  32  13
M  ISO  3  33  13  34  13  35  13
M  END
>  <minimizedAffinity>  (1) 
-4.80346203

>  <minimizedRMSD>  (1) 
4.06419563

$$$$
