
     RDKit          3D

 49 52  0  0  1  0  0  0  0  0999 V2000
   45.7230   34.4780   42.3220 C   0  0  2  0  0  0  0  0  0  0  0  0
   44.7180   35.3830   44.5100 C   0  0  0  0  0  0  0  0  0  0  0  0
   45.4740   34.4010   43.7870 C   0  0  0  0  0  0  0  0  0  0  0  0
   45.9750   33.3440   44.5650 C   0  0  0  0  0  0  0  0  0  0  0  0
   45.7010   33.3560   45.8960 N   0  0  0  0  0  0  0  0  0  0  0  0
   44.9940   34.2880   46.5270 C   0  0  0  0  0  0  0  0  0  0  0  0
   44.4840   35.3380   45.8100 N   0  0  0  0  0  0  0  0  0  0  0  0
   46.9780   35.3050   42.1600 C   0  0  0  0  0  0  0  0  0  0  0  0
   48.0100   34.6800   41.4000 N   0  0  0  0  0  0  0  0  0  0  0  0
   49.2880   34.9950   41.9730 C   0  0  0  0  0  0  0  0  0  0  0  0
   50.1820   33.8660   42.2990 C   0  0  0  0  0  0  0  0  0  0  0  0
   49.3500   32.8620   42.8140 O   0  0  0  0  0  0  0  0  0  0  0  0
   48.7130   32.3480   41.7010 C   0  0  0  0  0  0  0  0  0  0  0  0
   47.8890   33.3730   40.9430 C   0  0  2  0  0  0  0  0  0  0  0  0
   48.4760   33.4030   39.5160 C   0  0  0  0  0  0  0  0  0  0  0  0
   44.5650   35.0130   41.6370 C   0  0  0  0  0  0  0  0  0  0  0  0
   43.9320   34.4110   40.4900 C   0  0  0  0  0  0  0  0  0  0  0  0
   44.3380   33.5900   39.5230 N   0  0  0  0  0  0  0  0  0  0  0  0
   43.5510   33.1760   38.5450 C   0  0  0  0  0  0  0  0  0  0  0  0
   42.2650   33.5450   38.4360 N   0  0  0  0  0  0  0  0  0  0  0  0
   41.7480   34.3800   39.3690 C   0  0  0  0  0  0  0  0  0  0  0  0
   40.4330   34.7230   39.1980 C   0  0  0  0  0  0  0  0  0  0  0  0
   39.8740   35.5690   40.1150 C   0  0  0  0  0  0  0  0  0  0  0  0
   40.6290   36.0460   41.1640 C   0  0  0  0  0  0  0  0  0  0  0  0
   41.9430   35.6480   41.2560 C   0  0  0  0  0  0  0  0  0  0  0  0
   42.5870   34.7970   40.3740 C   0  0  0  0  0  0  0  0  0  0  0  0
   45.8792   33.4916   41.8609 H   0  0  0  0  0  0  0  0  0  0  0  0
   44.3051   36.2309   43.9439 H   0  0  0  0  0  0  0  0  0  0  0  0
   46.5680   32.5354   44.1129 H   0  0  0  0  0  0  0  0  0  0  0  0
   44.8206   34.2171   47.6109 H   0  0  0  0  0  0  0  0  0  0  0  0
   46.7059   36.2460   41.6594 H   0  0  0  0  0  0  0  0  0  0  0  0
   47.3842   35.4542   43.1713 H   0  0  0  0  0  0  0  0  0  0  0  0
   49.8195   35.6416   41.2593 H   0  0  0  0  0  0  0  0  0  0  0  0
   49.0554   35.4594   42.9426 H   0  0  0  0  0  0  0  0  0  0  0  0
   50.6974   33.5109   41.3944 H   0  0  0  0  0  0  0  0  0  0  0  0
   50.9604   34.1584   43.0192 H   0  0  0  0  0  0  0  0  0  0  0  0
   49.4761   31.9432   41.0199 H   0  0  0  0  0  0  0  0  0  0  0  0
   48.0164   31.5747   42.0572 H   0  0  0  0  0  0  0  0  0  0  0  0
   46.8346   33.0760   41.0437 H   0  0  0  0  0  0  0  0  0  0  0  0
   49.5731   33.4591   39.5719 H   0  0  0  0  0  0  0  0  0  0  0  0
   48.1825   32.4887   38.9795 H   0  0  0  0  0  0  0  0  0  0  0  0
   48.0908   34.2826   38.9795 H   0  0  0  0  0  0  0  0  0  0  0  0
   43.7783   35.0843   42.4025 H   0  0  0  0  0  0  0  0  0  0  0  0
   45.0046   35.9087   41.1738 H   0  0  0  0  0  0  0  0  0  0  0  0
   43.9689   32.4983   37.7860 H   0  0  0  0  0  0  0  0  0  0  0  0
   39.8475   34.3317   38.3529 H   0  0  0  0  0  0  0  0  0  0  0  0
   38.8204   35.8691   40.0151 H   0  0  0  0  0  0  0  0  0  0  0  0
   40.1926   36.7276   41.9090 H   0  0  0  0  0  0  0  0  0  0  0  0
   42.5304   36.0383   42.1002 H   0  0  0  0  0  0  0  0  0  0  0  0
  1  3  1  0
  2  7  2  0
  3  2  1  0
  3  4  2  0
  4  5  1  0
  5  6  2  0
  7  6  1  0
  8  1  1  0
  9 10  1  0
  9  8  1  0
 10 11  1  0
 11 12  1  0
 13 12  1  0
 14  9  1  0
 14 13  1  0
 15 14  1  0
 16  1  1  0
 17 16  1  0
 18 17  2  0
 19 18  1  0
 20 19  2  0
 20 21  1  0
 21 26  2  0
 22 21  1  0
 22 23  2  0
 23 24  1  0
 24 25  2  0
 26 17  1  0
 26 25  1  0
  1 27  1  6
  2 28  1  0
  4 29  1  0
  6 30  1  0
  8 31  1  0
  8 32  1  0
 10 33  1  0
 10 34  1  0
 11 35  1  0
 11 36  1  0
 13 37  1  0
 13 38  1  0
 14 39  1  6
 15 40  1  0
 15 41  1  0
 15 42  1  0
 16 43  1  0
 16 44  1  0
 19 45  1  0
 22 46  1  0
 23 47  1  0
 24 48  1  0
 25 49  1  0
M  ISO  8  27   8  28  14  29  14  30  14  31   8  32   8  33  13  34  13
M  ISO  8  35  13  36  13  37  13  38  13  39  13  40   8  41   8  42   8
M  ISO  7  43   8  44   8  45  14  46  14  47  14  48  14  49  14
M  END
>  <minimizedAffinity>  (1) 
-6.28446198

>  <minimizedRMSD>  (1) 
1.90290713

$$$$
