
     RDKit          3D

 48 51  0  0  1  0  0  0  0  0999 V2000
   45.6440   34.8650   42.6490 C   0  0  2  0  0  0  0  0  0  0  0  0
   44.7180   35.1620   45.0150 C   0  0  0  0  0  0  0  0  0  0  0  0
   45.5240   34.4500   44.0640 C   0  0  0  0  0  0  0  0  0  0  0  0
   46.2070   33.3280   44.5740 C   0  0  0  0  0  0  0  0  0  0  0  0
   46.0520   33.0210   45.8800 N   0  0  0  0  0  0  0  0  0  0  0  0
   45.2920   33.7090   46.7340 C   0  0  0  0  0  0  0  0  0  0  0  0
   44.6030   34.8160   46.2890 N   0  0  0  0  0  0  0  0  0  0  0  0
   46.9180   35.6410   42.5230 C   0  0  0  0  0  0  0  0  0  0  0  0
   47.8780   35.1390   41.6150 N   0  0  0  0  0  0  0  0  0  0  0  0
   49.1900   35.2160   42.1840 C   0  0  0  0  0  0  0  0  0  0  0  0
   49.9940   33.9820   42.2120 C   0  0  0  0  0  0  0  0  0  0  0  0
   49.0920   32.9540   42.5460 O   0  0  0  0  0  0  0  0  0  0  0  0
   48.3890   32.7430   41.3710 C   0  0  0  0  0  0  0  0  0  0  0  0
   47.6400   33.9630   40.8950 C   0  0  2  0  0  0  0  0  0  0  0  0
   48.1840   34.2670   39.4780 C   0  0  0  0  0  0  0  0  0  0  0  0
   44.4420   35.5570   42.1930 C   0  0  0  0  0  0  0  0  0  0  0  0
   43.6960   35.0050   41.0930 N   0  0  0  0  0  0  0  0  0  0  0  0
   44.1740   34.1080   40.1750 C   0  0  0  0  0  0  0  0  0  0  0  0
   43.2640   33.7470   39.2530 N   0  0  0  0  0  0  0  0  0  0  0  0
   42.1330   34.4220   39.5590 C   0  0  0  0  0  0  0  0  0  0  0  0
   40.8940   34.4310   38.9610 C   0  0  0  0  0  0  0  0  0  0  0  0
   39.9410   35.2000   39.4860 N   0  0  0  0  0  0  0  0  0  0  0  0
   40.2160   35.9390   40.5800 C   0  0  0  0  0  0  0  0  0  0  0  0
   41.4280   35.9060   41.1340 N   0  0  0  0  0  0  0  0  0  0  0  0
   42.4470   35.1660   40.6770 C   0  0  0  0  0  0  0  0  0  0  0  0
   40.6240   33.6430   37.8070 N   0  0  0  0  0  0  0  0  0  0  0  0
   45.7087   34.0019   41.9701 H   0  0  0  0  0  0  0  0  0  0  0  0
   44.1639   36.0458   44.6660 H   0  0  0  0  0  0  0  0  0  0  0  0
   46.8508   32.7170   43.9242 H   0  0  0  0  0  0  0  0  0  0  0  0
   45.2161   33.3947   47.7854 H   0  0  0  0  0  0  0  0  0  0  0  0
   46.6574   36.6607   42.2031 H   0  0  0  0  0  0  0  0  0  0  0  0
   47.3945   35.5787   43.5125 H   0  0  0  0  0  0  0  0  0  0  0  0
   49.7550   35.9641   41.6086 H   0  0  0  0  0  0  0  0  0  0  0  0
   49.0217   35.4642   43.2423 H   0  0  0  0  0  0  0  0  0  0  0  0
   50.4439   33.7936   41.2260 H   0  0  0  0  0  0  0  0  0  0  0  0
   50.8214   34.0499   42.9336 H   0  0  0  0  0  0  0  0  0  0  0  0
   49.1006   32.4429   40.5877 H   0  0  0  0  0  0  0  0  0  0  0  0
   47.6420   31.9617   41.5747 H   0  0  0  0  0  0  0  0  0  0  0  0
   46.5702   33.7233   40.9847 H   0  0  0  0  0  0  0  0  0  0  0  0
   49.1416   34.8021   39.5599 H   0  0  0  0  0  0  0  0  0  0  0  0
   48.3366   33.3234   38.9336 H   0  0  0  0  0  0  0  0  0  0  0  0
   47.4604   34.8915   38.9336 H   0  0  0  0  0  0  0  0  0  0  0  0
   43.7567   35.6133   43.0516 H   0  0  0  0  0  0  0  0  0  0  0  0
   44.8194   36.5138   41.8031 H   0  0  0  0  0  0  0  0  0  0  0  0
   45.2032   33.7202   40.1904 H   0  0  0  0  0  0  0  0  0  0  0  0
   39.4331   36.5748   41.0192 H   0  0  0  0  0  0  0  0  0  0  0  0
   41.3633   33.0497   37.4040 H   0  0  0  0  0  0  0  0  0  0  0  0
   39.6893   33.6660   37.3749 H   0  0  0  0  0  0  0  0  0  0  0  0
  1  3  1  0
  2  7  2  0
  3  4  2  0
  3  2  1  0
  4  5  1  0
  5  6  2  0
  7  6  1  0
  8  1  1  0
  9 10  1  0
  9  8  1  0
 10 11  1  0
 11 12  1  0
 13 12  1  0
 14 13  1  0
 14  9  1  0
 15 14  1  0
 16  1  1  0
 17 16  1  0
 18 17  1  0
 19 20  1  0
 19 18  2  0
 20 25  2  0
 21 22  2  0
 21 20  1  0
 22 23  1  0
 23 24  2  0
 25 17  1  0
 25 24  1  0
 26 21  1  0
  1 27  1  6
  2 28  1  0
  4 29  1  0
  6 30  1  0
  8 31  1  0
  8 32  1  0
 10 33  1  0
 10 34  1  0
 11 35  1  0
 11 36  1  0
 13 37  1  0
 13 38  1  0
 14 39  1  6
 15 40  1  0
 15 41  1  0
 15 42  1  0
 16 43  1  0
 16 44  1  0
 18 45  1  0
 23 46  1  0
 26 47  1  0
 26 48  1  0
M  ISO  8  27   8  28  14  29  14  30  14  31   8  32   8  33  13  34  13
M  ISO  8  35  13  36  13  37  13  38  13  39  13  40   8  41   8  42   8
M  ISO  4  43   8  44   8  45  14  46  14
M  END
>  <minimizedAffinity>  (1) 
-6.07184601

>  <minimizedRMSD>  (1) 
2.781497

$$$$
