
     RDKit          3D

 28 29  0  0  0  0  0  0  0  0999 V2000
   46.6910   34.8920   41.7070 C   0  0  0  0  0  0  0  0  0  0  0  0
   45.6450   34.2210   41.0050 C   0  0  0  0  0  0  0  0  0  0  0  0
   44.3480   34.3590   41.4650 C   0  0  0  0  0  0  0  0  0  0  0  0
   44.1100   35.1320   42.5760 N   0  0  0  0  0  0  0  0  0  0  0  0
   45.1390   35.7450   43.2030 C   0  0  0  0  0  0  0  0  0  0  0  0
   46.3950   35.6260   42.7770 N   0  0  0  0  0  0  0  0  0  0  0  0
   48.0560   34.6860   41.1170 C   0  0  0  0  0  0  0  0  0  0  0  0
   48.0690   34.4320   39.6490 C   0  0  0  0  0  0  0  0  0  0  0  0
   48.5780   33.4400   41.8100 C   0  0  0  0  0  0  0  0  0  0  0  0
   48.9800   35.8230   41.5260 C   0  0  0  0  0  0  0  0  0  0  0  0
   45.9910   33.2140   39.5940 S   0  0  0  0  0  0  0  0  0  0  0  0
   44.5440   32.5760   38.7910 C   0  0  0  0  0  0  0  0  0  0  0  0
   44.5540   31.2210   38.6480 N   0  0  0  0  0  0  0  0  0  0  0  0
   43.4790   30.8060   38.0580 O   0  0  0  0  0  0  0  0  0  0  0  0
   42.7340   31.8420   37.7940 C   0  0  0  0  0  0  0  0  0  0  0  0
   43.3720   32.9260   38.2360 N   0  0  0  0  0  0  0  0  0  0  0  0
   43.5173   33.8563   40.9480 H   0  0  0  0  0  0  0  0  0  0  0  0
   44.9326   36.3602   44.0912 H   0  0  0  0  0  0  0  0  0  0  0  0
   48.1244   33.3490   39.4648 H   0  0  0  0  0  0  0  0  0  0  0  0
   47.1491   34.8338   39.1992 H   0  0  0  0  0  0  0  0  0  0  0  0
   48.9431   34.9257   39.1992 H   0  0  0  0  0  0  0  0  0  0  0  0
   48.5212   33.5757   42.9001 H   0  0  0  0  0  0  0  0  0  0  0  0
   47.9671   32.5738   41.5160 H   0  0  0  0  0  0  0  0  0  0  0  0
   49.6239   33.2678   41.5160 H   0  0  0  0  0  0  0  0  0  0  0  0
   49.0269   35.8807   42.6235 H   0  0  0  0  0  0  0  0  0  0  0  0
   49.9877   35.6388   41.1251 H   0  0  0  0  0  0  0  0  0  0  0  0
   48.5937   36.7717   41.1251 H   0  0  0  0  0  0  0  0  0  0  0  0
   41.7536   31.8252   37.2954 H   0  0  0  0  0  0  0  0  0  0  0  0
  1  6  2  0
  2  3  2  0
  2  1  1  0
  3  4  1  0
  4  5  2  0
  6  5  1  0
  7 10  1  0
  7  1  1  0
  7  9  1  0
  8  7  1  0
 11  2  1  0
 12 11  1  0
 13 12  2  0
 14 13  1  0
 15 14  1  0
 15 16  2  0
 16 12  1  0
  3 17  1  0
  5 18  1  0
  8 19  1  0
  8 20  1  0
  8 21  1  0
  9 22  1  0
  9 23  1  0
  9 24  1  0
 10 25  1  0
 10 26  1  0
 10 27  1  0
 15 28  1  0
M  ISO  8  17  14  18  14  19   8  20   8  21   8  22   8  23   8  24   8
M  ISO  4  25   8  26   8  27   8  28  14
M  END
>  <minimizedAffinity>  (1) 
-3.99303722

>  <minimizedRMSD>  (1) 
2.47497797

$$$$
