
     RDKit          3D

 30 31  0  0  0  0  0  0  0  0999 V2000
   46.6650   34.8990   41.7190 C   0  0  0  0  0  0  0  0  0  0  0  0
   45.6230   34.2220   41.0370 C   0  0  0  0  0  0  0  0  0  0  0  0
   44.3250   34.3590   41.5030 C   0  0  0  0  0  0  0  0  0  0  0  0
   44.0950   35.1430   42.6090 N   0  0  0  0  0  0  0  0  0  0  0  0
   45.1390   35.7660   43.2200 C   0  0  0  0  0  0  0  0  0  0  0  0
   46.3940   35.6510   42.7910 N   0  0  0  0  0  0  0  0  0  0  0  0
   48.0260   34.6710   41.1250 C   0  0  0  0  0  0  0  0  0  0  0  0
   48.0480   34.4090   39.6660 C   0  0  0  0  0  0  0  0  0  0  0  0
   48.5540   33.4430   41.8380 C   0  0  0  0  0  0  0  0  0  0  0  0
   48.9670   35.8050   41.5170 C   0  0  0  0  0  0  0  0  0  0  0  0
   45.9580   33.1970   39.6390 S   0  0  0  0  0  0  0  0  0  0  0  0
   44.5140   32.5050   38.8960 C   0  0  0  0  0  0  0  0  0  0  0  0
   43.3780   32.9630   38.2320 C   0  0  0  0  0  0  0  0  0  0  0  0
   42.5920   31.8880   37.8860 C   0  0  0  0  0  0  0  0  0  0  0  0
   43.2600   30.8270   38.3390 N   0  0  0  0  0  0  0  0  0  0  0  0
   44.4010   31.1580   38.9410 N   0  0  0  0  0  0  0  0  0  0  0  0
   43.4924   33.8489   40.9964 H   0  0  0  0  0  0  0  0  0  0  0  0
   44.9380   36.3895   44.1036 H   0  0  0  0  0  0  0  0  0  0  0  0
   48.1388   33.3271   39.4891 H   0  0  0  0  0  0  0  0  0  0  0  0
   47.1157   34.7776   39.2132 H   0  0  0  0  0  0  0  0  0  0  0  0
   48.9057   34.9279   39.2132 H   0  0  0  0  0  0  0  0  0  0  0  0
   48.4890   33.5942   42.9256 H   0  0  0  0  0  0  0  0  0  0  0  0
   47.9531   32.5668   41.5530 H   0  0  0  0  0  0  0  0  0  0  0  0
   49.6033   33.2764   41.5530 H   0  0  0  0  0  0  0  0  0  0  0  0
   49.0230   35.8725   42.6135 H   0  0  0  0  0  0  0  0  0  0  0  0
   49.9696   35.6067   41.1101 H   0  0  0  0  0  0  0  0  0  0  0  0
   48.5872   36.7538   41.1101 H   0  0  0  0  0  0  0  0  0  0  0  0
   43.1463   34.0169   38.0183 H   0  0  0  0  0  0  0  0  0  0  0  0
   41.6288   31.9011   37.3549 H   0  0  0  0  0  0  0  0  0  0  0  0
   42.9297   29.8570   38.2348 H   0  0  0  0  0  0  0  0  0  0  0  0
  1  6  2  0
  2  3  2  0
  2  1  1  0
  3  4  1  0
  4  5  2  0
  6  5  1  0
  7 10  1  0
  7  1  1  0
  7  9  1  0
  8  7  1  0
 11  2  1  0
 12 16  2  0
 12 11  1  0
 13 12  1  0
 14 13  2  0
 14 15  1  0
 15 16  1  0
  3 17  1  0
  5 18  1  0
  8 19  1  0
  8 20  1  0
  8 21  1  0
  9 22  1  0
  9 23  1  0
  9 24  1  0
 10 25  1  0
 10 26  1  0
 10 27  1  0
 13 28  1  0
 14 29  1  0
 15 30  1  0
M  ISO  8  17  14  18  14  19   8  20   8  21   8  22   8  23   8  24   8
M  ISO  6  25   8  26   8  27   8  28  14  29  14  30   9
M  END
>  <minimizedAffinity>  (1) 
-3.97168589

>  <minimizedRMSD>  (1) 
2.42643929

$$$$
