
     RDKit          3D

 30 31  0  0  0  0  0  0  0  0999 V2000
   46.7400   34.8490   41.6530 C   0  0  0  0  0  0  0  0  0  0  0  0
   45.7370   34.1450   40.9450 C   0  0  0  0  0  0  0  0  0  0  0  0
   44.4320   34.2190   41.4180 C   0  0  0  0  0  0  0  0  0  0  0  0
   44.1610   34.9610   42.5400 N   0  0  0  0  0  0  0  0  0  0  0  0
   45.1540   35.6080   43.1730 C   0  0  0  0  0  0  0  0  0  0  0  0
   46.4190   35.5610   42.7490 N   0  0  0  0  0  0  0  0  0  0  0  0
   48.1110   34.7160   41.0560 C   0  0  0  0  0  0  0  0  0  0  0  0
   48.1540   34.4930   39.5960 C   0  0  0  0  0  0  0  0  0  0  0  0
   48.6810   33.4680   41.7200 C   0  0  0  0  0  0  0  0  0  0  0  0
   49.0050   35.8520   41.5330 C   0  0  0  0  0  0  0  0  0  0  0  0
   46.0960   33.2050   39.5070 S   0  0  0  0  0  0  0  0  0  0  0  0
   45.0510   31.9890   39.0050 C   0  0  0  0  0  0  0  0  0  0  0  0
   45.1180   30.6890   39.4120 C   0  0  0  0  0  0  0  0  0  0  0  0
   44.3060   29.6560   39.0580 C   0  0  0  0  0  0  0  0  0  0  0  0
   43.2660   30.1040   38.1200 C   0  0  0  0  0  0  0  0  0  0  0  0
   43.5500   31.9280   37.8450 S   0  0  0  0  0  0  0  0  0  0  0  0
   43.6226   33.6868   40.8968 H   0  0  0  0  0  0  0  0  0  0  0  0
   44.9165   36.1966   44.0714 H   0  0  0  0  0  0  0  0  0  0  0  0
   48.3587   33.4314   39.3931 H   0  0  0  0  0  0  0  0  0  0  0  0
   47.1858   34.7707   39.1540 H   0  0  0  0  0  0  0  0  0  0  0  0
   48.9496   35.1108   39.1540 H   0  0  0  0  0  0  0  0  0  0  0  0
   48.6304   33.5787   42.8132 H   0  0  0  0  0  0  0  0  0  0  0  0
   48.0950   32.5892   41.4130 H   0  0  0  0  0  0  0  0  0  0  0  0
   49.7289   33.3354   41.4130 H   0  0  0  0  0  0  0  0  0  0  0  0
   49.0194   35.8702   42.6328 H   0  0  0  0  0  0  0  0  0  0  0  0
   50.0266   35.6979   41.1555 H   0  0  0  0  0  0  0  0  0  0  0  0
   48.6150   36.8088   41.1555 H   0  0  0  0  0  0  0  0  0  0  0  0
   45.9293   30.4452   40.1137 H   0  0  0  0  0  0  0  0  0  0  0  0
   44.4132   28.6244   39.4244 H   0  0  0  0  0  0  0  0  0  0  0  0
   42.4759   29.4856   37.6690 H   0  0  0  0  0  0  0  0  0  0  0  0
  1  6  2  0
  2  3  2  0
  2  1  1  0
  3  4  1  0
  4  5  2  0
  6  5  1  0
  7 10  1  0
  7  1  1  0
  7  9  1  0
  8  7  1  0
 11  2  1  0
 12 13  2  0
 12 11  1  0
 14 13  1  0
 15 14  2  0
 16 15  1  0
 16 12  1  0
  3 17  1  0
  5 18  1  0
  8 19  1  0
  8 20  1  0
  8 21  1  0
  9 22  1  0
  9 23  1  0
  9 24  1  0
 10 25  1  0
 10 26  1  0
 10 27  1  0
 13 28  1  0
 14 29  1  0
 15 30  1  0
M  ISO  8  17  14  18  14  19   8  20   8  21   8  22   8  23   8  24   8
M  ISO  6  25   8  26   8  27   8  28  14  29  14  30  14
M  END
>  <minimizedAffinity>  (1) 
-3.80121756

>  <minimizedRMSD>  (1) 
1.82995808

$$$$
