
     RDKit          3D

 32 33  0  0  0  0  0  0  0  0999 V2000
   46.7080   34.8460   41.6650 C   0  0  0  0  0  0  0  0  0  0  0  0
   45.6930   34.1680   40.9380 C   0  0  0  0  0  0  0  0  0  0  0  0
   44.3850   34.2600   41.3950 C   0  0  0  0  0  0  0  0  0  0  0  0
   44.1250   34.9960   42.5280 N   0  0  0  0  0  0  0  0  0  0  0  0
   45.1380   35.6140   43.1730 C   0  0  0  0  0  0  0  0  0  0  0  0
   46.4000   35.5520   42.7680 N   0  0  0  0  0  0  0  0  0  0  0  0
   48.0830   34.6890   41.0750 C   0  0  0  0  0  0  0  0  0  0  0  0
   48.1280   34.4740   39.6120 C   0  0  0  0  0  0  0  0  0  0  0  0
   48.6280   33.4440   41.7520 C   0  0  0  0  0  0  0  0  0  0  0  0
   48.9860   35.8320   41.5210 C   0  0  0  0  0  0  0  0  0  0  0  0
   46.0730   33.2080   39.5110 S   0  0  0  0  0  0  0  0  0  0  0  0
   44.9250   31.8890   39.2110 C   0  0  0  0  0  0  0  0  0  0  0  0
   45.2200   30.7910   40.0250 C   0  0  0  0  0  0  0  0  0  0  0  0
   44.4750   29.6160   40.0040 C   0  0  0  0  0  0  0  0  0  0  0  0
   43.3860   29.5120   39.1390 C   0  0  0  0  0  0  0  0  0  0  0  0
   43.1350   30.6050   38.3630 C   0  0  0  0  0  0  0  0  0  0  0  0
   43.8640   31.7230   38.4020 N   0  0  0  0  0  0  0  0  0  0  0  0
   43.5693   33.7523   40.8594 H   0  0  0  0  0  0  0  0  0  0  0  0
   44.9058   36.1963   44.0769 H   0  0  0  0  0  0  0  0  0  0  0  0
   48.3493   33.4169   39.4034 H   0  0  0  0  0  0  0  0  0  0  0  0
   47.1550   34.7386   39.1724 H   0  0  0  0  0  0  0  0  0  0  0  0
   48.9132   35.1066   39.1724 H   0  0  0  0  0  0  0  0  0  0  0  0
   48.5742   33.5670   42.8438 H   0  0  0  0  0  0  0  0  0  0  0  0
   48.0296   32.5714   41.4513 H   0  0  0  0  0  0  0  0  0  0  0  0
   49.6751   33.2917   41.4513 H   0  0  0  0  0  0  0  0  0  0  0  0
   49.0151   35.8689   42.6200 H   0  0  0  0  0  0  0  0  0  0  0  0
   50.0022   35.6695   41.1325 H   0  0  0  0  0  0  0  0  0  0  0  0
   48.5927   36.7830   41.1325 H   0  0  0  0  0  0  0  0  0  0  0  0
   46.0772   30.8590   40.7109 H   0  0  0  0  0  0  0  0  0  0  0  0
   44.7424   28.7771   40.6634 H   0  0  0  0  0  0  0  0  0  0  0  0
   42.7674   28.6040   39.0859 H   0  0  0  0  0  0  0  0  0  0  0  0
   42.2848   30.5633   37.6663 H   0  0  0  0  0  0  0  0  0  0  0  0
  1  6  2  0
  2  3  2  0
  2  1  1  0
  3  4  1  0
  4  5  2  0
  6  5  1  0
  7 10  1  0
  7  1  1  0
  7  9  1  0
  8  7  1  0
 11  2  1  0
 12 11  1  0
 12 13  2  0
 14 13  1  0
 15 14  2  0
 16 17  2  0
 16 15  1  0
 17 12  1  0
  3 18  1  0
  5 19  1  0
  8 20  1  0
  8 21  1  0
  8 22  1  0
  9 23  1  0
  9 24  1  0
  9 25  1  0
 10 26  1  0
 10 27  1  0
 10 28  1  0
 13 29  1  0
 14 30  1  0
 15 31  1  0
 16 32  1  0
M  ISO  8  18  14  19  14  20   8  21   8  22   8  23   8  24   8  25   8
M  ISO  7  26   8  27   8  28   8  29  14  30  14  31  14  32  14
M  END
>  <minimizedAffinity>  (1) 
-3.77684093

>  <minimizedRMSD>  (1) 
1.97767293

$$$$
