
     RDKit          3D

 36 37  0  0  0  0  0  0  0  0999 V2000
   44.9800   34.2250   40.9310 C   0  0  0  0  0  0  0  0  0  0  0  0
   44.2240   33.4870   39.9940 C   0  0  0  0  0  0  0  0  0  0  0  0
   42.9030   33.8470   39.7800 C   0  0  0  0  0  0  0  0  0  0  0  0
   42.3580   34.8840   40.4590 N   0  0  0  0  0  0  0  0  0  0  0  0
   43.1090   35.5680   41.3490 C   0  0  0  0  0  0  0  0  0  0  0  0
   44.3760   35.2550   41.5820 N   0  0  0  0  0  0  0  0  0  0  0  0
   46.3930   33.7720   41.0990 C   0  0  0  0  0  0  0  0  0  0  0  0
   47.0380   33.2660   39.8860 C   0  0  0  0  0  0  0  0  0  0  0  0
   46.2910   32.6460   42.1250 C   0  0  0  0  0  0  0  0  0  0  0  0
   47.1850   34.8650   41.8300 C   0  0  0  0  0  0  0  0  0  0  0  0
   48.6100   34.9460   41.3900 C   0  0  0  0  0  0  0  0  0  0  0  0
   49.2730   36.2850   41.6430 C   0  0  0  0  0  0  0  0  0  0  0  0
   49.7060   35.1040   42.4160 C   0  0  0  0  0  0  0  0  0  0  0  0
   44.9160   32.1470   39.1210 S   0  0  0  0  0  0  0  0  0  0  0  0
   44.4580   32.2010   37.3630 C   0  0  0  0  0  0  0  0  0  0  0  0
   45.4260   33.0870   36.6050 C   0  0  0  0  0  0  0  0  0  0  0  0
   42.2940   33.2874   39.0548 H   0  0  0  0  0  0  0  0  0  0  0  0
   42.6567   36.4084   41.8959 H   0  0  0  0  0  0  0  0  0  0  0  0
   47.8756   32.6089   40.1629 H   0  0  0  0  0  0  0  0  0  0  0  0
   46.3072   32.6978   39.2918 H   0  0  0  0  0  0  0  0  0  0  0  0
   47.4159   34.1111   39.2918 H   0  0  0  0  0  0  0  0  0  0  0  0
   46.3294   33.0697   43.1394 H   0  0  0  0  0  0  0  0  0  0  0  0
   45.3406   32.1096   41.9874 H   0  0  0  0  0  0  0  0  0  0  0  0
   47.1295   31.9475   41.9874 H   0  0  0  0  0  0  0  0  0  0  0  0
   46.7031   35.8350   41.6379 H   0  0  0  0  0  0  0  0  0  0  0  0
   47.1849   34.6114   42.9004 H   0  0  0  0  0  0  0  0  0  0  0  0
   48.4553   34.2562   40.5472 H   0  0  0  0  0  0  0  0  0  0  0  0
   49.9407   36.7184   40.8839 H   0  0  0  0  0  0  0  0  0  0  0  0
   48.9120   37.2910   41.9032 H   0  0  0  0  0  0  0  0  0  0  0  0
   49.4670   35.0335   43.4874 H   0  0  0  0  0  0  0  0  0  0  0  0
   50.6727   34.6106   42.5952 H   0  0  0  0  0  0  0  0  0  0  0  0
   44.4915   31.1837   36.9459 H   0  0  0  0  0  0  0  0  0  0  0  0
   43.4412   32.6093   37.2659 H   0  0  0  0  0  0  0  0  0  0  0  0
   46.0429   33.6516   37.3196 H   0  0  0  0  0  0  0  0  0  0  0  0
   46.0753   32.4637   35.9726 H   0  0  0  0  0  0  0  0  0  0  0  0
   44.8625   33.7888   35.9726 H   0  0  0  0  0  0  0  0  0  0  0  0
  1  7  1  0
  1  6  1  0
  2  1  2  0
  3  2  1  0
  3  4  2  0
  4  5  1  0
  5  6  2  0
  7 10  1  0
  7  9  1  0
  8  7  1  0
 11 12  1  0
 11 10  1  0
 11 13  1  0
 12 13  1  0
 14  2  1  0
 15 14  1  0
 16 15  1  0
  3 17  1  0
  5 18  1  0
  8 19  1  0
  8 20  1  0
  8 21  1  0
  9 22  1  0
  9 23  1  0
  9 24  1  0
 10 25  1  0
 10 26  1  0
 11 27  1  0
 12 28  1  0
 12 29  1  0
 13 30  1  0
 13 31  1  0
 15 32  1  0
 15 33  1  0
 16 34  1  0
 16 35  1  0
 16 36  1  0
M  ISO  8  17  14  18  14  19   8  20   8  21   8  22   8  23   8  24   8
M  ISO  8  25   8  26   8  27  13  28  13  29  13  30  13  31  13  32   8
M  ISO  4  33   8  34   8  35   8  36   8
M  END
>  <minimizedAffinity>  (1) 
-3.96881652

>  <minimizedRMSD>  (1) 
2.20141768

$$$$
