
     RDKit          3D

 46 49  0  0  1  0  0  0  0  0999 V2000
   45.6090   34.7360   42.5570 C   0  0  2  0  0  0  0  0  0  0  0  0
   44.7080   35.2040   44.8930 C   0  0  0  0  0  0  0  0  0  0  0  0
   45.4760   34.4160   43.9770 C   0  0  0  0  0  0  0  0  0  0  0  0
   46.1130   33.3020   44.5430 C   0  0  0  0  0  0  0  0  0  0  0  0
   45.9600   33.0590   45.8780 N   0  0  0  0  0  0  0  0  0  0  0  0
   45.2240   33.8350   46.6930 C   0  0  0  0  0  0  0  0  0  0  0  0
   44.5760   34.9440   46.1900 N   0  0  0  0  0  0  0  0  0  0  0  0
   46.8500   35.6000   42.4210 C   0  0  0  0  0  0  0  0  0  0  0  0
   47.8480   35.1030   41.5350 N   0  0  0  0  0  0  0  0  0  0  0  0
   49.1460   35.2000   42.1580 C   0  0  0  0  0  0  0  0  0  0  0  0
   49.9540   33.9750   42.2090 C   0  0  0  0  0  0  0  0  0  0  0  0
   49.0570   32.9310   42.4900 O   0  0  0  0  0  0  0  0  0  0  0  0
   48.4010   32.7340   41.2800 C   0  0  0  0  0  0  0  0  0  0  0  0
   47.6630   33.9530   40.7960 C   0  0  2  0  0  0  0  0  0  0  0  0
   48.2380   34.2800   39.3980 C   0  0  0  0  0  0  0  0  0  0  0  0
   44.4070   35.3830   42.0340 C   0  0  0  0  0  0  0  0  0  0  0  0
   43.7240   34.7710   40.9410 N   0  0  0  0  0  0  0  0  0  0  0  0
   44.0980   33.8670   40.0150 C   0  0  0  0  0  0  0  0  0  0  0  0
   43.1090   33.5670   39.1530 N   0  0  0  0  0  0  0  0  0  0  0  0
   42.0350   34.2820   39.4950 C   0  0  0  0  0  0  0  0  0  0  0  0
   40.7300   34.4590   39.0620 C   0  0  0  0  0  0  0  0  0  0  0  0
   39.8520   35.2930   39.6500 N   0  0  0  0  0  0  0  0  0  0  0  0
   40.2610   35.9990   40.7210 C   0  0  0  0  0  0  0  0  0  0  0  0
   41.5280   35.8470   41.1680 N   0  0  0  0  0  0  0  0  0  0  0  0
   42.4240   35.0170   40.5930 C   0  0  0  0  0  0  0  0  0  0  0  0
   45.7194   33.8231   41.9534 H   0  0  0  0  0  0  0  0  0  0  0  0
   44.1896   36.0887   44.4947 H   0  0  0  0  0  0  0  0  0  0  0  0
   46.7267   32.6340   43.9208 H   0  0  0  0  0  0  0  0  0  0  0  0
   45.1386   33.5854   47.7609 H   0  0  0  0  0  0  0  0  0  0  0  0
   46.5360   36.5895   42.0573 H   0  0  0  0  0  0  0  0  0  0  0  0
   47.3143   35.6214   43.4180 H   0  0  0  0  0  0  0  0  0  0  0  0
   49.7236   35.9558   41.6056 H   0  0  0  0  0  0  0  0  0  0  0  0
   48.9404   35.4506   43.2091 H   0  0  0  0  0  0  0  0  0  0  0  0
   50.4494   33.8034   41.2420 H   0  0  0  0  0  0  0  0  0  0  0  0
   50.7433   34.0444   42.9720 H   0  0  0  0  0  0  0  0  0  0  0  0
   49.1459   32.4529   40.5210 H   0  0  0  0  0  0  0  0  0  0  0  0
   47.6531   31.9435   41.4405 H   0  0  0  0  0  0  0  0  0  0  0  0
   46.5935   33.7006   40.8460 H   0  0  0  0  0  0  0  0  0  0  0  0
   49.1892   34.8209   39.5101 H   0  0  0  0  0  0  0  0  0  0  0  0
   48.4109   33.3451   38.8448 H   0  0  0  0  0  0  0  0  0  0  0  0
   47.5229   34.9065   38.8448 H   0  0  0  0  0  0  0  0  0  0  0  0
   43.6899   35.4557   42.8650 H   0  0  0  0  0  0  0  0  0  0  0  0
   44.7718   36.3360   41.6233 H   0  0  0  0  0  0  0  0  0  0  0  0
   45.1030   33.4222   39.9684 H   0  0  0  0  0  0  0  0  0  0  0  0
   40.3923   33.8844   38.1869 H   0  0  0  0  0  0  0  0  0  0  0  0
   39.5721   36.6917   41.2267 H   0  0  0  0  0  0  0  0  0  0  0  0
  1  3  1  0
  2  7  2  0
  3  4  2  0
  3  2  1  0
  4  5  1  0
  5  6  2  0
  7  6  1  0
  8  1  1  0
  9 10  1  0
  9  8  1  0
 10 11  1  0
 11 12  1  0
 13 12  1  0
 14 13  1  0
 14  9  1  0
 15 14  1  0
 16  1  1  0
 17 16  1  0
 18 17  1  0
 19 20  1  0
 19 18  2  0
 20 25  2  0
 21 20  1  0
 21 22  2  0
 22 23  1  0
 23 24  2  0
 25 17  1  0
 25 24  1  0
  1 26  1  6
  2 27  1  0
  4 28  1  0
  6 29  1  0
  8 30  1  0
  8 31  1  0
 10 32  1  0
 10 33  1  0
 11 34  1  0
 11 35  1  0
 13 36  1  0
 13 37  1  0
 14 38  1  6
 15 39  1  0
 15 40  1  0
 15 41  1  0
 16 42  1  0
 16 43  1  0
 18 44  1  0
 21 45  1  0
 23 46  1  0
M  ISO  8  26   8  27  14  28  14  29  14  30   8  31   8  32  13  33  13
M  ISO  8  34  13  35  13  36  13  37  13  38  13  39   8  40   8  41   8
M  ISO  5  42   8  43   8  44  14  45  14  46  14
M  END
>  <minimizedAffinity>  (1) 
-5.76111555

>  <minimizedRMSD>  (1) 
2.33963943

$$$$
