
     RDKit          3D

 36 36  0  0  0  0  0  0  0  0999 V2000
   46.6790   33.5660   40.5820 C   0  0  0  0  0  0  0  0  0  0  0  0
   45.8070   34.4250   41.4520 C   0  0  0  0  0  0  0  0  0  0  0  0
   44.4410   34.3830   41.1390 C   0  0  0  0  0  0  0  0  0  0  0  0
   43.5610   35.1510   41.8920 C   0  0  0  0  0  0  0  0  0  0  0  0
   44.0390   35.9180   42.9070 N   0  0  0  0  0  0  0  0  0  0  0  0
   45.3700   35.9300   43.1790 C   0  0  0  0  0  0  0  0  0  0  0  0
   46.2310   35.2080   42.4780 N   0  0  0  0  0  0  0  0  0  0  0  0
   43.8260   33.3890   39.8410 S   0  0  0  0  0  0  0  0  0  0  0  0
   42.0650   33.7150   39.5360 C   0  0  0  0  0  0  0  0  0  0  0  0
   41.5980   32.9640   38.3210 C   0  0  0  0  0  0  0  0  0  0  0  0
   46.1420   33.2690   39.2540 C   0  0  0  0  0  0  0  0  0  0  0  0
   46.8300   32.2770   41.3750 C   0  0  0  0  0  0  0  0  0  0  0  0
   48.0990   34.1500   40.5490 C   0  0  0  0  0  0  0  0  0  0  0  0
   48.7720   33.9600   41.7980 N   0  0  0  0  0  0  0  0  0  0  0  0
   50.0600   33.3330   41.6630 C   0  0  0  0  0  0  0  0  0  0  0  0
   50.4210   32.6020   40.6420 N   0  0  0  0  0  0  0  0  0  0  0  0
   51.0950   33.4470   42.6550 N   0  0  0  0  0  0  0  0  0  0  0  0
   49.7910   32.4200   39.8360 H   0  0  0  0  0  0  0  0  0  0  0  0
   42.4842   35.1382   41.6679 H   0  0  0  0  0  0  0  0  0  0  0  0
   45.7424   36.5560   44.0033 H   0  0  0  0  0  0  0  0  0  0  0  0
   41.4796   33.3919   40.4095 H   0  0  0  0  0  0  0  0  0  0  0  0
   41.9250   34.7927   39.3660 H   0  0  0  0  0  0  0  0  0  0  0  0
   41.0413   32.0687   38.6349 H   0  0  0  0  0  0  0  0  0  0  0  0
   40.9427   33.6111   37.7194 H   0  0  0  0  0  0  0  0  0  0  0  0
   42.4682   32.6625   37.7194 H   0  0  0  0  0  0  0  0  0  0  0  0
   45.1836   32.7389   39.3562 H   0  0  0  0  0  0  0  0  0  0  0  0
   45.9846   34.2083   38.7036 H   0  0  0  0  0  0  0  0  0  0  0  0
   46.8540   32.6364   38.7036 H   0  0  0  0  0  0  0  0  0  0  0  0
   46.8035   32.5033   42.4511 H   0  0  0  0  0  0  0  0  0  0  0  0
   46.0058   31.5932   41.1237 H   0  0  0  0  0  0  0  0  0  0  0  0
   47.7899   31.8022   41.1237 H   0  0  0  0  0  0  0  0  0  0  0  0
   48.6726   33.6510   39.7540 H   0  0  0  0  0  0  0  0  0  0  0  0
   48.0241   35.2306   40.3575 H   0  0  0  0  0  0  0  0  0  0  0  0
   48.3734   34.2442   42.7043 H   0  0  0  0  0  0  0  0  0  0  0  0
   52.0007   32.9783   42.5105 H   0  0  0  0  0  0  0  0  0  0  0  0
   50.9305   33.9974   43.5100 H   0  0  0  0  0  0  0  0  0  0  0  0
  1 12  1  0
  1  2  1  0
  2  7  2  0
  3  2  1  0
  3  4  2  0
  4  5  1  0
  5  6  2  0
  7  6  1  0
  8  3  1  0
  9  8  1  0
 10  9  1  0
 11  1  1  0
 13  1  1  0
 13 14  1  0
 15 14  1  0
 15 17  1  0
 16 15  2  0
 18 16  1  0
  4 19  1  0
  6 20  1  0
  9 21  1  0
  9 22  1  0
 10 23  1  0
 10 24  1  0
 10 25  1  0
 11 26  1  0
 11 27  1  0
 11 28  1  0
 12 29  1  0
 12 30  1  0
 12 31  1  0
 13 32  1  0
 13 33  1  0
 14 34  1  0
 17 35  1  0
 17 36  1  0
M  ISO  8  19  14  20  14  21   8  22   8  23   8  24   8  25   8  26   8
M  ISO  7  27   8  28   8  29   8  30   8  31   8  32   8  33   8
M  END
>  <minimizedAffinity>  (1) 
-3.95175838

>  <minimizedRMSD>  (1) 
2.23412228

$$$$
