
     RDKit          3D

 46 48  0  0  1  0  0  0  0  0999 V2000
   45.4700   34.7470   42.7410 C   0  0  2  0  0  0  0  0  0  0  0  0
   44.8950   34.8580   45.2180 C   0  0  0  0  0  0  0  0  0  0  0  0
   45.4740   34.1770   44.1090 C   0  0  0  0  0  0  0  0  0  0  0  0
   46.0670   32.9310   44.3910 C   0  0  0  0  0  0  0  0  0  0  0  0
   46.0360   32.4950   45.6720 N   0  0  0  0  0  0  0  0  0  0  0  0
   45.4790   33.1630   46.6950 C   0  0  0  0  0  0  0  0  0  0  0  0
   44.8910   34.3810   46.4610 N   0  0  0  0  0  0  0  0  0  0  0  0
   46.6900   35.5970   42.6120 C   0  0  0  0  0  0  0  0  0  0  0  0
   47.6710   35.1650   41.6880 N   0  0  0  0  0  0  0  0  0  0  0  0
   48.9830   35.4080   42.2220 C   0  0  0  0  0  0  0  0  0  0  0  0
   49.9140   34.2720   42.2810 C   0  0  0  0  0  0  0  0  0  0  0  0
   49.1350   33.1630   42.6760 O   0  0  0  0  0  0  0  0  0  0  0  0
   48.4330   32.8320   41.5290 C   0  0  0  0  0  0  0  0  0  0  0  0
   47.5550   33.9470   41.0210 C   0  0  2  0  0  0  0  0  0  0  0  0
   48.0310   34.2440   39.5780 C   0  0  0  0  0  0  0  0  0  0  0  0
   44.2070   35.4100   42.4400 C   0  0  0  0  0  0  0  0  0  0  0  0
   43.3700   34.9640   41.3900 N   0  0  0  0  0  0  0  0  0  0  0  0
   44.0520   34.3090   40.3980 C   0  0  0  0  0  0  0  0  0  0  0  0
   43.4870   33.7840   39.2690 C   0  0  0  0  0  0  0  0  0  0  0  0
   42.1270   33.9010   39.0740 C   0  0  0  0  0  0  0  0  0  0  0  0
   41.4540   33.3910   37.9400 N   0  0  0  0  0  0  0  0  0  0  0  0
   41.4470   34.5410   40.0410 N   0  0  0  0  0  0  0  0  0  0  0  0
   42.0580   35.0350   41.1280 C   0  0  0  0  0  0  0  0  0  0  0  0
   41.3720   35.6190   41.9980 O   0  0  0  0  0  0  0  0  0  0  0  0
   45.5265   33.9644   41.9700 H   0  0  0  0  0  0  0  0  0  0  0  0
   44.4236   35.8352   45.0369 H   0  0  0  0  0  0  0  0  0  0  0  0
   46.5390   32.3329   43.5976 H   0  0  0  0  0  0  0  0  0  0  0  0
   45.4938   32.7387   47.7097 H   0  0  0  0  0  0  0  0  0  0  0  0
   46.3648   36.6026   42.3071 H   0  0  0  0  0  0  0  0  0  0  0  0
   47.1796   35.5510   43.5959 H   0  0  0  0  0  0  0  0  0  0  0  0
   49.4519   36.1862   41.6019 H   0  0  0  0  0  0  0  0  0  0  0  0
   48.8107   35.6833   43.2730 H   0  0  0  0  0  0  0  0  0  0  0  0
   50.3642   34.0928   41.2935 H   0  0  0  0  0  0  0  0  0  0  0  0
   50.7407   34.4592   42.9821 H   0  0  0  0  0  0  0  0  0  0  0  0
   49.1552   32.5707   40.7415 H   0  0  0  0  0  0  0  0  0  0  0  0
   47.7729   31.9899   41.7843 H   0  0  0  0  0  0  0  0  0  0  0  0
   46.5187   33.5996   41.1449 H   0  0  0  0  0  0  0  0  0  0  0  0
   48.9638   34.8260   39.6121 H   0  0  0  0  0  0  0  0  0  0  0  0
   48.2091   33.2965   39.0483 H   0  0  0  0  0  0  0  0  0  0  0  0
   47.2583   34.8205   39.0483 H   0  0  0  0  0  0  0  0  0  0  0  0
   43.6044   35.3618   43.3590 H   0  0  0  0  0  0  0  0  0  0  0  0
   44.5373   36.3945   42.0772 H   0  0  0  0  0  0  0  0  0  0  0  0
   45.1395   34.1968   40.5196 H   0  0  0  0  0  0  0  0  0  0  0  0
   44.1123   33.2725   38.5224 H   0  0  0  0  0  0  0  0  0  0  0  0
   40.4348   33.5092   37.8496 H   0  0  0  0  0  0  0  0  0  0  0  0
   41.9829   32.9013   37.2043 H   0  0  0  0  0  0  0  0  0  0  0  0
  1  3  1  0
  2  7  2  0
  3  4  2  0
  3  2  1  0
  4  5  1  0
  5  6  2  0
  7  6  1  0
  8  1  1  0
  9 10  1  0
  9  8  1  0
 10 11  1  0
 11 12  1  0
 13 12  1  0
 14 13  1  0
 14  9  1  0
 15 14  1  0
 16  1  1  0
 17 16  1  0
 18 17  1  0
 19 18  2  0
 20 19  1  0
 20 22  2  0
 21 20  1  0
 22 23  1  0
 23 17  1  0
 23 24  2  0
  1 25  1  6
  2 26  1  0
  4 27  1  0
  6 28  1  0
  8 29  1  0
  8 30  1  0
 10 31  1  0
 10 32  1  0
 11 33  1  0
 11 34  1  0
 13 35  1  0
 13 36  1  0
 14 37  1  6
 15 38  1  0
 15 39  1  0
 15 40  1  0
 16 41  1  0
 16 42  1  0
 18 43  1  0
 19 44  1  0
 21 45  1  0
 21 46  1  0
M  ISO  8  25   8  26  14  27  14  28  14  29   8  30   8  31  13  32  13
M  ISO  8  33  13  34  13  35  13  36  13  37  13  38   8  39   8  40   8
M  ISO  4  41   8  42   8  43  14  44  14
M  END
>  <minimizedAffinity>  (1) 
-5.45762873

>  <minimizedRMSD>  (1) 
2.57607293

$$$$
