
     RDKit          3D

 44 45  0  0  0  0  0  0  0  0999 V2000
   47.7290   34.2160   40.3840 C   0  0  0  0  0  0  0  0  0  0  0  0
   46.5580   33.4450   40.1590 C   0  0  0  0  0  0  0  0  0  0  0  0
   46.2160   33.1100   38.8580 C   0  0  0  0  0  0  0  0  0  0  0  0
   46.9930   33.5150   37.8400 N   0  0  0  0  0  0  0  0  0  0  0  0
   48.1140   34.2520   38.0790 C   0  0  0  0  0  0  0  0  0  0  0  0
   48.4570   34.5840   39.3130 N   0  0  0  0  0  0  0  0  0  0  0  0
   48.0060   34.5210   41.8180 C   0  0  0  0  0  0  0  0  0  0  0  0
   48.1950   33.3560   42.6830 C   0  0  0  0  0  0  0  0  0  0  0  0
   46.8070   35.3210   42.2620 C   0  0  0  0  0  0  0  0  0  0  0  0
   49.1850   35.5100   41.8850 C   0  0  0  0  0  0  0  0  0  0  0  0
   50.1030   35.1850   42.9270 N   0  0  0  0  0  0  0  0  0  0  0  0
   45.5500   32.9220   41.4940 S   0  0  0  0  0  0  0  0  0  0  0  0
   43.7900   32.9520   41.0410 C   0  0  0  0  0  0  0  0  0  0  0  0
   43.2490   34.3310   41.2820 C   0  0  0  0  0  0  0  0  0  0  0  0
   41.7510   34.3820   41.0270 C   0  0  0  0  0  0  0  0  0  0  0  0
   41.5260   34.2920   39.5500 C   0  0  0  0  0  0  0  0  0  0  0  0
   40.4870   35.3420   39.1980 C   0  0  0  0  0  0  0  0  0  0  0  0
   40.1310   36.0500   40.4840 C   0  0  0  0  0  0  0  0  0  0  0  0
   41.2470   35.7410   41.4590 C   0  0  0  0  0  0  0  0  0  0  0  0
   45.3122   32.5150   38.6602 H   0  0  0  0  0  0  0  0  0  0  0  0
   48.7417   34.5750   37.2354 H   0  0  0  0  0  0  0  0  0  0  0  0
   48.1442   33.6692   43.7362 H   0  0  0  0  0  0  0  0  0  0  0  0
   47.4049   32.6177   42.4815 H   0  0  0  0  0  0  0  0  0  0  0  0
   49.1780   32.9053   42.4815 H   0  0  0  0  0  0  0  0  0  0  0  0
   46.7695   35.3460   43.3611 H   0  0  0  0  0  0  0  0  0  0  0  0
   46.8870   36.3473   41.8744 H   0  0  0  0  0  0  0  0  0  0  0  0
   45.8900   34.8531   41.8744 H   0  0  0  0  0  0  0  0  0  0  0  0
   49.7191   35.4900   40.9236 H   0  0  0  0  0  0  0  0  0  0  0  0
   48.7758   36.5091   42.0953 H   0  0  0  0  0  0  0  0  0  0  0  0
   49.6552   35.3435   43.8409 H   0  0  0  0  0  0  0  0  0  0  0  0
   50.3777   34.1956   42.8463 H   0  0  0  0  0  0  0  0  0  0  0  0
   43.2380   32.2262   41.6562 H   0  0  0  0  0  0  0  0  0  0  0  0
   43.6739   32.6865   39.9799 H   0  0  0  0  0  0  0  0  0  0  0  0
   43.4460   34.6172   42.3257 H   0  0  0  0  0  0  0  0  0  0  0  0
   43.7457   35.0276   40.5906 H   0  0  0  0  0  0  0  0  0  0  0  0
   41.2438   33.5684   41.5663 H   0  0  0  0  0  0  0  0  0  0  0  0
   42.4640   34.4924   39.0115 H   0  0  0  0  0  0  0  0  0  0  0  0
   41.1828   33.2867   39.2643 H   0  0  0  0  0  0  0  0  0  0  0  0
   40.9023   36.0581   38.4736 H   0  0  0  0  0  0  0  0  0  0  0  0
   39.5986   34.8814   38.7413 H   0  0  0  0  0  0  0  0  0  0  0  0
   40.0614   37.1348   40.3154 H   0  0  0  0  0  0  0  0  0  0  0  0
   39.1571   35.7145   40.8700 H   0  0  0  0  0  0  0  0  0  0  0  0
   40.8657   35.7060   42.4902 H   0  0  0  0  0  0  0  0  0  0  0  0
   42.0376   36.5058   41.4508 H   0  0  0  0  0  0  0  0  0  0  0  0
  1  7  1  0
  2  1  2  0
  2 12  1  0
  3  2  1  0
  4  5  1  0
  4  3  2  0
  5  6  2  0
  6  1  1  0
  7 10  1  0
  7  9  1  0
  7  8  1  0
 10 11  1  0
 13 14  1  0
 13 12  1  0
 15 14  1  0
 15 19  1  0
 16 15  1  0
 17 16  1  0
 17 18  1  0
 18 19  1  0
  3 20  1  0
  5 21  1  0
  8 22  1  0
  8 23  1  0
  8 24  1  0
  9 25  1  0
  9 26  1  0
  9 27  1  0
 10 28  1  0
 10 29  1  0
 11 30  1  0
 11 31  1  0
 13 32  1  0
 13 33  1  0
 14 34  1  0
 14 35  1  0
 15 36  1  0
 16 37  1  0
 16 38  1  0
 17 39  1  0
 17 40  1  0
 18 41  1  0
 18 42  1  0
 19 43  1  0
 19 44  1  0
M  ISO  8  20  14  21  14  22   8  23   8  24   8  25   8  26   8  27   8
M  ISO  8  28   8  29   8  30   5  31   5  32   8  33   8  34   8  35   8
M  ISO  8  36  13  37  13  38  13  39  13  40  13  41  13  42  13  43  13
M  ISO  1  44  13
M  END
>  <minimizedAffinity>  (1) 
-5.09957981

>  <minimizedRMSD>  (1) 
4.24492359

$$$$
