
     RDKit          3D

 38 41  0  0  1  0  0  0  0  0999 V2000
   46.3830   32.1860   46.4160 C   0  0  0  0  0  0  0  0  0  0  0  0
   46.0030   32.4030   45.0910 C   0  0  0  0  0  0  0  0  0  0  0  0
   45.5980   31.2820   44.3470 C   0  0  0  0  0  0  0  0  0  0  0  0
   45.5900   30.0560   44.9240 N   0  0  0  0  0  0  0  0  0  0  0  0
   45.9700   29.8880   46.2160 C   0  0  0  0  0  0  0  0  0  0  0  0
   46.3630   30.9490   46.9540 N   0  0  0  0  0  0  0  0  0  0  0  0
   45.9300   28.5620   46.7380 N   0  0  0  0  0  0  0  0  0  0  0  0
   46.9770   27.9700   47.3660 C   0  0  0  0  0  0  0  0  0  0  0  0
   46.6740   26.7160   47.7620 N   0  0  0  0  0  0  0  0  0  0  0  0
   45.4010   26.5260   47.3680 C   0  0  0  0  0  0  0  0  0  0  0  0
   44.5710   25.4320   47.5050 C   0  0  0  0  0  0  0  0  0  0  0  0
   45.0150   24.4160   48.0800 O   0  0  0  0  0  0  0  0  0  0  0  0
   43.3090   25.4720   47.0210 N   0  0  0  0  0  0  0  0  0  0  0  0
   42.9000   26.6190   46.4050 C   0  0  0  0  0  0  0  0  0  0  0  0
   41.5710   26.6450   45.9040 N   0  0  0  0  0  0  0  0  0  0  0  0
   43.6900   27.7210   46.2510 N   0  0  0  0  0  0  0  0  0  0  0  0
   44.9360   27.6580   46.7380 C   0  0  0  0  0  0  0  0  0  0  0  0
   46.0510   33.7570   44.5370 C   0  0  2  0  0  0  0  0  0  0  0  0
   45.0680   34.6410   45.2740 C   0  0  0  0  0  0  0  0  0  0  0  0
   44.6200   35.8360   44.5920 C   0  0  0  0  0  0  0  0  0  0  0  0
   45.1080   36.1650   43.2490 C   0  0  0  0  0  0  0  0  0  0  0  0
   46.1680   35.2750   42.6910 C   0  0  0  0  0  0  0  0  0  0  0  0
   45.8310   33.8500   43.0570 C   0  0  0  0  0  0  0  0  0  0  0  0
   46.7045   33.0384   47.0326 H   0  0  0  0  0  0  0  0  0  0  0  0
   45.2880   31.3994   43.2981 H   0  0  0  0  0  0  0  0  0  0  0  0
   47.9516   28.4523   47.5317 H   0  0  0  0  0  0  0  0  0  0  0  0
   42.6775   24.6637   47.1142 H   0  0  0  0  0  0  0  0  0  0  0  0
   41.2153   27.4880   45.4310 H   0  0  0  0  0  0  0  0  0  0  0  0
   40.9630   25.8209   46.0138 H   0  0  0  0  0  0  0  0  0  0  0  0
   47.0836   34.1045   44.6887 H   0  0  0  0  0  0  0  0  0  0  0  0
   44.7103   34.3865   46.2826 H   0  0  0  0  0  0  0  0  0  0  0  0
   43.9033   36.5070   45.0880 H   0  0  0  0  0  0  0  0  0  0  0  0
   44.2485   36.1321   42.5634 H   0  0  0  0  0  0  0  0  0  0  0  0
   45.5781   37.1550   43.3436 H   0  0  0  0  0  0  0  0  0  0  0  0
   47.1448   35.5475   43.1171 H   0  0  0  0  0  0  0  0  0  0  0  0
   46.2176   35.3840   41.5975 H   0  0  0  0  0  0  0  0  0  0  0  0
   44.7830   33.6264   42.8088 H   0  0  0  0  0  0  0  0  0  0  0  0
   46.4508   33.1281   42.5049 H   0  0  0  0  0  0  0  0  0  0  0  0
  1  6  2  0
  2  1  1  0
  3  4  1  0
  3  2  2  0
  4  5  2  0
  5  7  1  0
  5  6  1  0
  7  8  1  0
  8  9  2  0
 10 11  1  0
 10  9  1  0
 11 12  2  0
 13 11  1  0
 14 13  1  0
 15 14  1  0
 16 14  2  0
 16 17  1  0
 17  7  1  0
 17 10  2  0
 18  2  1  0
 18 19  1  0
 20 19  2  0
 21 20  1  0
 22 23  1  0
 22 21  1  0
 23 18  1  0
  1 24  1  0
  3 25  1  0
  8 26  1  0
 13 27  1  0
 15 28  1  0
 15 29  1  0
 18 30  1  6
 19 31  1  0
 20 32  1  0
 21 33  1  0
 21 34  1  0
 22 35  1  0
 22 36  1  0
 23 37  1  0
 23 38  1  0
M  ISO  8  24  14  25  14  26  14  27   9  30  13  31  13  32  13  33  13
M  ISO  5  34  13  35  13  36  13  37  13  38  13
M  END
>  <minimizedAffinity>  (1) 
-5.51082897

>  <minimizedRMSD>  (1) 
1.9602474

$$$$
