
     RDKit          3D

 37 39  0  0  1  0  0  0  0  0999 V2000
   47.9480   33.6270   42.5570 C   0  0  2  0  0  0  0  0  0  0  0  0
   49.0640   34.5770   42.9180 C   0  0  0  0  0  0  0  0  0  0  0  0
   49.4800   35.5590   41.9330 C   0  0  0  0  0  0  0  0  0  0  0  0
   48.8170   35.6060   40.6270 C   0  0  0  0  0  0  0  0  0  0  0  0
   47.8440   34.5190   40.3410 C   0  0  0  0  0  0  0  0  0  0  0  0
   47.0140   34.2680   41.5760 C   0  0  0  0  0  0  0  0  0  0  0  0
   46.3250   34.0200   44.3990 C   0  0  0  0  0  0  0  0  0  0  0  0
   47.2700   33.1640   43.7940 C   0  0  0  0  0  0  0  0  0  0  0  0
   47.5310   31.9070   44.3980 C   0  0  0  0  0  0  0  0  0  0  0  0
   46.8570   31.5960   45.5250 N   0  0  0  0  0  0  0  0  0  0  0  0
   45.9550   32.4470   46.0770 C   0  0  0  0  0  0  0  0  0  0  0  0
   45.6950   33.6380   45.5240 N   0  0  0  0  0  0  0  0  0  0  0  0
   45.2720   31.9880   47.3290 C   0  0  0  0  0  0  0  0  0  0  0  0
   45.2290   30.4830   47.4460 C   0  0  0  0  0  0  0  0  0  0  0  0
   45.0740   30.2240   48.9280 C   0  0  0  0  0  0  0  0  0  0  0  0
   45.6220   31.4250   49.6340 C   0  0  0  0  0  0  0  0  0  0  0  0
   46.0780   32.3780   48.5530 C   0  0  0  0  0  0  0  0  0  0  0  0
   48.3553   32.7356   42.0574 H   0  0  0  0  0  0  0  0  0  0  0  0
   49.5502   34.5265   43.9034 H   0  0  0  0  0  0  0  0  0  0  0  0
   50.2902   36.2655   42.1662 H   0  0  0  0  0  0  0  0  0  0  0  0
   48.2793   36.5632   40.5587 H   0  0  0  0  0  0  0  0  0  0  0  0
   49.6207   35.4816   39.8863 H   0  0  0  0  0  0  0  0  0  0  0  0
   47.1884   34.8195   39.5104 H   0  0  0  0  0  0  0  0  0  0  0  0
   48.3822   33.6014   40.0610 H   0  0  0  0  0  0  0  0  0  0  0  0
   46.6244   35.2152   41.9774 H   0  0  0  0  0  0  0  0  0  0  0  0
   46.1433   33.6306   41.3622 H   0  0  0  0  0  0  0  0  0  0  0  0
   46.1038   34.9997   43.9503 H   0  0  0  0  0  0  0  0  0  0  0  0
   48.2597   31.2081   43.9615 H   0  0  0  0  0  0  0  0  0  0  0  0
   44.2706   32.4403   47.2779 H   0  0  0  0  0  0  0  0  0  0  0  0
   44.3740   30.0737   46.8880 H   0  0  0  0  0  0  0  0  0  0  0  0
   46.1275   30.0047   47.0290 H   0  0  0  0  0  0  0  0  0  0  0  0
   44.0120   30.0878   49.1800 H   0  0  0  0  0  0  0  0  0  0  0  0
   45.6083   29.3105   49.2281 H   0  0  0  0  0  0  0  0  0  0  0  0
   44.8413   31.8937   50.2511 H   0  0  0  0  0  0  0  0  0  0  0  0
   46.4508   31.1526   50.3040 H   0  0  0  0  0  0  0  0  0  0  0  0
   47.1548   32.2606   48.3617 H   0  0  0  0  0  0  0  0  0  0  0  0
   45.9237   33.4302   48.8343 H   0  0  0  0  0  0  0  0  0  0  0  0
  1  2  1  0
  1  8  1  0
  3  2  2  0
  4  3  1  0
  5  4  1  0
  5  6  1  0
  6  1  1  0
  7 12  2  0
  8  9  2  0
  8  7  1  0
  9 10  1  0
 10 11  2  0
 11 13  1  0
 12 11  1  0
 13 14  1  0
 13 17  1  0
 14 15  1  0
 15 16  1  0
 17 16  1  0
  1 18  1  6
  2 19  1  0
  3 20  1  0
  4 21  1  0
  4 22  1  0
  5 23  1  0
  5 24  1  0
  6 25  1  0
  6 26  1  0
  7 27  1  0
  9 28  1  0
 13 29  1  0
 14 30  1  0
 14 31  1  0
 15 32  1  0
 15 33  1  0
 16 34  1  0
 16 35  1  0
 17 36  1  0
 17 37  1  0
M  ISO  8  18  13  19  13  20  13  21  13  22  13  23  13  24  13  25  13
M  ISO  8  26  13  27  14  28  14  29  13  30  13  31  13  32  13  33  13
M  ISO  4  34  13  35  13  36  13  37  13
M  END
>  <minimizedAffinity>  (1) 
-5.54775381

>  <minimizedRMSD>  (1) 
3.47571206

$$$$
