
     RDKit          3D

 32 32  0  0  0  0  0  0  0  0999 V2000
   46.4910   34.6120   41.5700 C   0  0  0  0  0  0  0  0  0  0  0  0
   45.3840   34.0350   40.9050 C   0  0  0  0  0  0  0  0  0  0  0  0
   44.1070   34.3940   41.2780 C   0  0  0  0  0  0  0  0  0  0  0  0
   43.9290   35.2960   42.2770 N   0  0  0  0  0  0  0  0  0  0  0  0
   45.0110   35.8420   42.9060 C   0  0  0  0  0  0  0  0  0  0  0  0
   46.2350   35.5080   42.5620 N   0  0  0  0  0  0  0  0  0  0  0  0
   47.8150   34.1490   41.0840 C   0  0  0  0  0  0  0  0  0  0  0  0
   48.0250   34.2310   39.6390 C   0  0  0  0  0  0  0  0  0  0  0  0
   47.9080   32.7230   41.5550 C   0  0  0  0  0  0  0  0  0  0  0  0
   48.9120   34.8960   41.8790 C   0  0  0  0  0  0  0  0  0  0  0  0
   49.2470   36.1450   41.3040 N   0  0  0  0  0  0  0  0  0  0  0  0
   45.6020   32.8730   39.6180 S   0  0  0  0  0  0  0  0  0  0  0  0
   44.4580   33.2000   38.2440 C   0  0  0  0  0  0  0  0  0  0  0  0
   45.2560   33.1990   36.9460 C   0  0  0  0  0  0  0  0  0  0  0  0
   45.0330   31.5650   36.1620 S   0  0  0  0  0  0  0  0  0  0  0  0
   43.2372   33.9525   40.7695 H   0  0  0  0  0  0  0  0  0  0  0  0
   44.8560   36.5729   43.7133 H   0  0  0  0  0  0  0  0  0  0  0  0
   49.0322   34.6243   39.4366 H   0  0  0  0  0  0  0  0  0  0  0  0
   47.9271   33.2286   39.1968 H   0  0  0  0  0  0  0  0  0  0  0  0
   47.2737   34.9018   39.1968 H   0  0  0  0  0  0  0  0  0  0  0  0
   47.9095   32.6995   42.6547 H   0  0  0  0  0  0  0  0  0  0  0  0
   47.0450   32.1551   41.1773 H   0  0  0  0  0  0  0  0  0  0  0  0
   48.8375   32.2720   41.1773 H   0  0  0  0  0  0  0  0  0  0  0  0
   48.5502   35.0659   42.9038 H   0  0  0  0  0  0  0  0  0  0  0  0
   49.8167   34.2704   41.8660 H   0  0  0  0  0  0  0  0  0  0  0  0
   49.4305   36.8291   42.0518 H   0  0  0  0  0  0  0  0  0  0  0  0
   50.0894   36.0396   40.7208 H   0  0  0  0  0  0  0  0  0  0  0  0
   43.6872   32.4161   38.2073 H   0  0  0  0  0  0  0  0  0  0  0  0
   43.9651   34.1732   38.3849 H   0  0  0  0  0  0  0  0  0  0  0  0
   44.8852   33.9897   36.2771 H   0  0  0  0  0  0  0  0  0  0  0  0
   46.3207   33.3890   37.1469 H   0  0  0  0  0  0  0  0  0  0  0  0
   44.9022   30.6069   37.1325 H   0  0  0  0  0  0  0  0  0  0  0  0
  1  6  2  0
  2  3  2  0
  2  1  1  0
  3  4  1  0
  4  5  2  0
  6  5  1  0
  7  9  1  0
  7  1  1  0
  7 10  1  0
  8  7  1  0
 11 10  1  0
 12  2  1  0
 13 12  1  0
 14 13  1  0
 15 14  1  0
  3 16  1  0
  5 17  1  0
  8 18  1  0
  8 19  1  0
  8 20  1  0
  9 21  1  0
  9 22  1  0
  9 23  1  0
 10 24  1  0
 10 25  1  0
 11 26  1  0
 11 27  1  0
 13 28  1  0
 13 29  1  0
 14 30  1  0
 14 31  1  0
 15 32  1  0
M  ISO  8  16  14  17  14  18   8  19   8  20   8  21   8  22   8  23   8
M  ISO  8  24   8  25   8  26   5  27   5  28   8  29   8  30   8  31   8
M  ISO  1  32  11
M  END
>  <minimizedAffinity>  (1) 
-3.5559721

>  <minimizedRMSD>  (1) 
0.596875548

$$$$
