
     RDKit          3D

 35 38  0  0  1  0  0  0  0  0999 V2000
   46.0190   32.3020   46.4820 C   0  0  0  0  0  0  0  0  0  0  0  0
   45.8640   32.4830   45.1080 C   0  0  0  0  0  0  0  0  0  0  0  0
   45.5660   31.3410   44.3230 C   0  0  0  0  0  0  0  0  0  0  0  0
   45.4490   30.1420   44.9390 N   0  0  0  0  0  0  0  0  0  0  0  0
   45.6050   30.0010   46.2780 C   0  0  0  0  0  0  0  0  0  0  0  0
   45.8880   31.0750   47.0330 N   0  0  0  0  0  0  0  0  0  0  0  0
   45.4440   28.6650   46.7420 N   0  0  0  0  0  0  0  0  0  0  0  0
   46.3830   28.0950   47.4890 C   0  0  0  0  0  0  0  0  0  0  0  0
   45.9930   26.8300   47.7990 N   0  0  0  0  0  0  0  0  0  0  0  0
   44.7920   26.6390   47.2230 C   0  0  0  0  0  0  0  0  0  0  0  0
   43.8660   25.6250   47.1370 C   0  0  0  0  0  0  0  0  0  0  0  0
   42.7150   25.7350   46.4650 N   0  0  0  0  0  0  0  0  0  0  0  0
   42.4040   26.8900   45.8180 C   0  0  0  0  0  0  0  0  0  0  0  0
   43.2700   27.9420   45.8550 N   0  0  0  0  0  0  0  0  0  0  0  0
   44.4340   27.8020   46.5470 C   0  0  0  0  0  0  0  0  0  0  0  0
   46.0170   33.8190   44.5220 C   0  0  2  0  0  0  0  0  0  0  0  0
   45.0510   34.7730   45.1840 C   0  0  0  0  0  0  0  0  0  0  0  0
   44.6490   35.9590   44.4580 C   0  0  0  0  0  0  0  0  0  0  0  0
   45.1830   36.2060   43.1110 C   0  0  0  0  0  0  0  0  0  0  0  0
   46.2690   35.2960   42.6580 C   0  0  0  0  0  0  0  0  0  0  0  0
   45.8810   33.8840   43.0310 C   0  0  0  0  0  0  0  0  0  0  0  0
   46.2499   33.1656   47.1230 H   0  0  0  0  0  0  0  0  0  0  0  0
   45.4325   31.4278   43.2346 H   0  0  0  0  0  0  0  0  0  0  0  0
   47.3236   28.5695   47.8054 H   0  0  0  0  0  0  0  0  0  0  0  0
   44.0836   24.6751   47.6472 H   0  0  0  0  0  0  0  0  0  0  0  0
   41.4562   26.9751   45.2663 H   0  0  0  0  0  0  0  0  0  0  0  0
   47.0586   34.1133   44.7181 H   0  0  0  0  0  0  0  0  0  0  0  0
   44.6625   34.5714   46.1932 H   0  0  0  0  0  0  0  0  0  0  0  0
   43.9464   36.6729   44.9127 H   0  0  0  0  0  0  0  0  0  0  0  0
   44.3502   36.1156   42.3981 H   0  0  0  0  0  0  0  0  0  0  0  0
   45.6364   37.2073   43.1531 H   0  0  0  0  0  0  0  0  0  0  0  0
   47.2135   35.5667   43.1527 H   0  0  0  0  0  0  0  0  0  0  0  0
   46.4084   35.3793   41.5700 H   0  0  0  0  0  0  0  0  0  0  0  0
   44.8438   33.6766   42.7290 H   0  0  0  0  0  0  0  0  0  0  0  0
   46.5135   33.1377   42.5279 H   0  0  0  0  0  0  0  0  0  0  0  0
  1  6  2  0
  2  1  1  0
  3  4  1  0
  3  2  2  0
  4  5  2  0
  5  7  1  0
  5  6  1  0
  7  8  1  0
  8  9  2  0
 10  9  1  0
 11 10  2  0
 12 11  1  0
 13 14  1  0
 13 12  2  0
 14 15  2  0
 15  7  1  0
 15 10  1  0
 16  2  1  0
 16 17  1  0
 18 17  2  0
 19 18  1  0
 20 21  1  0
 20 19  1  0
 21 16  1  0
  1 22  1  0
  3 23  1  0
  8 24  1  0
 11 25  1  0
 13 26  1  0
 16 27  1  6
 17 28  1  0
 18 29  1  0
 19 30  1  0
 19 31  1  0
 20 32  1  0
 20 33  1  0
 21 34  1  0
 21 35  1  0
M  ISO  8  22  14  23  14  24  14  25  14  26  14  27  13  28  13  29  13
M  ISO  6  30  13  31  13  32  13  33  13  34  13  35  13
M  END
>  <minimizedAffinity>  (1) 
-5.16364527

>  <minimizedRMSD>  (1) 
1.8138479

$$$$
