
     RDKit          3D

 31 33  0  0  1  0  0  0  0  0999 V2000
   47.1060   34.5040   42.5330 C   0  0  2  0  0  0  0  0  0  0  0  0
   46.4110   33.7220   41.4380 C   0  0  0  0  0  0  0  0  0  0  0  0
   46.9460   33.7990   40.0910 C   0  0  0  0  0  0  0  0  0  0  0  0
   48.1260   34.6170   39.8220 C   0  0  0  0  0  0  0  0  0  0  0  0
   48.6070   35.4710   40.9470 C   0  0  0  0  0  0  0  0  0  0  0  0
   48.5590   34.6540   42.2170 C   0  0  0  0  0  0  0  0  0  0  0  0
   45.8920   34.4390   44.7040 C   0  0  0  0  0  0  0  0  0  0  0  0
   46.8360   33.8540   43.8400 C   0  0  0  0  0  0  0  0  0  0  0  0
   47.4980   32.6680   44.2610 C   0  0  0  0  0  0  0  0  0  0  0  0
   47.1830   32.1560   45.4780 N   0  0  0  0  0  0  0  0  0  0  0  0
   46.2620   32.7620   46.2720 C   0  0  0  0  0  0  0  0  0  0  0  0
   45.6230   33.8900   45.8910 N   0  0  0  0  0  0  0  0  0  0  0  0
   46.0380   32.1090   47.5190 N   0  0  0  0  0  0  0  0  0  0  0  0
   46.8810   31.6630   48.4690 C   0  0  0  0  0  0  0  0  0  0  0  0
   46.0580   31.1130   49.4570 C   0  0  0  0  0  0  0  0  0  0  0  0
   44.7660   31.2320   49.0970 N   0  0  0  0  0  0  0  0  0  0  0  0
   44.7730   31.8490   47.8980 C   0  0  0  0  0  0  0  0  0  0  0  0
   46.7087   35.5277   42.5978 H   0  0  0  0  0  0  0  0  0  0  0  0
   45.5231   33.1111   41.6580 H   0  0  0  0  0  0  0  0  0  0  0  0
   46.4637   33.2423   39.2740 H   0  0  0  0  0  0  0  0  0  0  0  0
   48.9461   33.9403   39.5402 H   0  0  0  0  0  0  0  0  0  0  0  0
   47.8237   35.3175   39.0296 H   0  0  0  0  0  0  0  0  0  0  0  0
   49.6399   35.7955   40.7523 H   0  0  0  0  0  0  0  0  0  0  0  0
   47.9699   36.3623   41.0455 H   0  0  0  0  0  0  0  0  0  0  0  0
   49.0230   33.6692   42.0596 H   0  0  0  0  0  0  0  0  0  0  0  0
   49.1099   35.1373   43.0373 H   0  0  0  0  0  0  0  0  0  0  0  0
   45.3703   35.3580   44.3984 H   0  0  0  0  0  0  0  0  0  0  0  0
   48.2447   32.1790   43.6182 H   0  0  0  0  0  0  0  0  0  0  0  0
   47.9796   31.7190   48.4684 H   0  0  0  0  0  0  0  0  0  0  0  0
   46.4135   30.6515   50.3901 H   0  0  0  0  0  0  0  0  0  0  0  0
   43.8756   32.1028   47.3147 H   0  0  0  0  0  0  0  0  0  0  0  0
  1  8  1  0
  2  1  1  0
  3  2  2  0
  4  3  1  0
  4  5  1  0
  5  6  1  0
  6  1  1  0
  7 12  2  0
  8  9  2  0
  8  7  1  0
  9 10  1  0
 10 11  2  0
 11 13  1  0
 12 11  1  0
 13 17  1  0
 13 14  1  0
 14 15  2  0
 16 15  1  0
 17 16  2  0
  1 18  1  1
  2 19  1  0
  3 20  1  0
  4 21  1  0
  4 22  1  0
  5 23  1  0
  5 24  1  0
  6 25  1  0
  6 26  1  0
  7 27  1  0
  9 28  1  0
 14 29  1  0
 15 30  1  0
 17 31  1  0
M  ISO  8  18  13  19  13  20  13  21  13  22  13  23  13  24  13  25  13
M  ISO  6  26  13  27  14  28  14  29  14  30  14  31  14
M  END
>  <minimizedAffinity>  (1) 
-5.40958309

>  <minimizedRMSD>  (1) 
3.40565014

$$$$
