
     RDKit          3D

 32 34  0  0  1  0  0  0  0  0999 V2000
   44.2750   35.3030   42.6790 C   0  0  0  0  0  0  0  0  0  0  0  0
   43.6070   34.5710   41.6970 C   0  0  0  0  0  0  0  0  0  0  0  0
   43.7040   33.1630   41.7750 C   0  0  0  0  0  0  0  0  0  0  0  0
   44.4210   32.5980   42.7730 N   0  0  0  0  0  0  0  0  0  0  0  0
   45.0540   33.3500   43.7060 C   0  0  0  0  0  0  0  0  0  0  0  0
   44.9730   34.6980   43.6480 N   0  0  0  0  0  0  0  0  0  0  0  0
   42.8530   35.2450   40.6380 C   0  0  2  0  0  0  0  0  0  0  0  0
   41.4910   35.6330   41.1740 C   0  0  0  0  0  0  0  0  0  0  0  0
   40.4410   35.8680   40.2040 C   0  0  0  0  0  0  0  0  0  0  0  0
   40.7130   35.7340   38.7690 C   0  0  0  0  0  0  0  0  0  0  0  0
   42.1320   35.4910   38.3790 C   0  0  0  0  0  0  0  0  0  0  0  0
   42.7020   34.4710   39.3630 C   0  0  0  0  0  0  0  0  0  0  0  0
   45.8290   32.7480   44.7840 C   0  0  0  0  0  0  0  0  0  0  0  0
   45.9740   33.4370   45.9860 C   0  0  0  0  0  0  0  0  0  0  0  0
   46.7240   32.8220   46.9890 C   0  0  0  0  0  0  0  0  0  0  0  0
   47.2670   31.6270   46.7820 N   0  0  0  0  0  0  0  0  0  0  0  0
   47.1340   30.9490   45.6220 C   0  0  0  0  0  0  0  0  0  0  0  0
   46.4070   31.5610   44.6710 N   0  0  0  0  0  0  0  0  0  0  0  0
   44.2271   36.4017   42.6566 H   0  0  0  0  0  0  0  0  0  0  0  0
   43.1998   32.5311   41.0291 H   0  0  0  0  0  0  0  0  0  0  0  0
   43.4477   36.1277   40.3602 H   0  0  0  0  0  0  0  0  0  0  0  0
   41.3067   35.7322   42.2539 H   0  0  0  0  0  0  0  0  0  0  0  0
   39.4338   36.1486   40.5457 H   0  0  0  0  0  0  0  0  0  0  0  0
   40.1144   34.8913   38.3929 H   0  0  0  0  0  0  0  0  0  0  0  0
   40.4547   36.7099   38.3321 H   0  0  0  0  0  0  0  0  0  0  0  0
   42.1785   35.0932   37.3545 H   0  0  0  0  0  0  0  0  0  0  0  0
   42.7105   36.4262   38.4068 H   0  0  0  0  0  0  0  0  0  0  0  0
   42.0092   33.6272   39.4972 H   0  0  0  0  0  0  0  0  0  0  0  0
   43.6502   34.0329   39.0180 H   0  0  0  0  0  0  0  0  0  0  0  0
   45.5160   34.4255   46.1382 H   0  0  0  0  0  0  0  0  0  0  0  0
   46.8664   33.3284   47.9550 H   0  0  0  0  0  0  0  0  0  0  0  0
   47.5906   29.9606   45.4653 H   0  0  0  0  0  0  0  0  0  0  0  0
  1  6  2  0
  2  3  2  0
  2  1  1  0
  3  4  1  0
  4  5  2  0
  5 13  1  0
  6  5  1  0
  7  8  1  0
  7  2  1  0
  9  8  2  0
 10  9  1  0
 11 10  1  0
 11 12  1  0
 12  7  1  0
 13 14  2  0
 14 15  1  0
 16 15  2  0
 17 16  1  0
 18 13  1  0
 18 17  2  0
  1 19  1  0
  3 20  1  0
  7 21  1  6
  8 22  1  0
  9 23  1  0
 10 24  1  0
 10 25  1  0
 11 26  1  0
 11 27  1  0
 12 28  1  0
 12 29  1  0
 14 30  1  0
 15 31  1  0
 17 32  1  0
M  ISO  8  19  14  20  14  21  13  22  13  23  13  24  13  25  13  26  13
M  ISO  6  27  13  28  13  29  13  30  14  31  14  32  14
M  END
>  <minimizedAffinity>  (1) 
-5.22355604

>  <minimizedRMSD>  (1) 
5.6878624

$$$$
