
     RDKit          3D

 31 33  0  0  1  0  0  0  0  0999 V2000
   44.9750   35.4340   42.5650 C   0  0  0  0  0  0  0  0  0  0  0  0
   45.8930   34.5880   41.8940 C   0  0  0  0  0  0  0  0  0  0  0  0
   45.4720   33.9290   40.7000 C   0  0  0  0  0  0  0  0  0  0  0  0
   44.2070   34.1570   40.2800 N   0  0  0  0  0  0  0  0  0  0  0  0
   43.3680   34.9720   40.9530 C   0  0  0  0  0  0  0  0  0  0  0  0
   43.7360   35.6040   42.0770 N   0  0  0  0  0  0  0  0  0  0  0  0
   47.2510   34.4370   42.4830 C   0  0  2  0  0  0  0  0  0  0  0  0
   48.1040   35.6170   42.0940 C   0  0  0  0  0  0  0  0  0  0  0  0
   49.5480   35.4580   42.0290 C   0  0  0  0  0  0  0  0  0  0  0  0
   50.1150   34.1490   42.3420 C   0  0  0  0  0  0  0  0  0  0  0  0
   49.2070   33.1200   42.8780 C   0  0  0  0  0  0  0  0  0  0  0  0
   47.9180   33.1550   42.0960 C   0  0  0  0  0  0  0  0  0  0  0  0
   42.0010   35.1750   40.4370 C   0  0  0  0  0  0  0  0  0  0  0  0
   41.3770   34.7340   39.2840 C   0  0  0  0  0  0  0  0  0  0  0  0
   40.0890   35.2450   39.3490 C   0  0  0  0  0  0  0  0  0  0  0  0
   39.9610   35.9620   40.5010 N   0  0  0  0  0  0  0  0  0  0  0  0
   41.1150   35.9170   41.1530 N   0  0  0  0  0  0  0  0  0  0  0  0
   45.2781   35.9520   43.4868 H   0  0  0  0  0  0  0  0  0  0  0  0
   46.1487   33.2631   40.1444 H   0  0  0  0  0  0  0  0  0  0  0  0
   47.1323   34.4040   43.5761 H   0  0  0  0  0  0  0  0  0  0  0  0
   47.6398   36.5869   41.8620 H   0  0  0  0  0  0  0  0  0  0  0  0
   50.1966   36.3019   41.7512 H   0  0  0  0  0  0  0  0  0  0  0  0
   50.5527   33.7503   41.4149 H   0  0  0  0  0  0  0  0  0  0  0  0
   50.8281   34.3424   43.1569 H   0  0  0  0  0  0  0  0  0  0  0  0
   49.6726   32.1283   42.7793 H   0  0  0  0  0  0  0  0  0  0  0  0
   49.0048   33.3168   43.9412 H   0  0  0  0  0  0  0  0  0  0  0  0
   47.2838   32.2962   42.3613 H   0  0  0  0  0  0  0  0  0  0  0  0
   48.0964   33.0986   41.0120 H   0  0  0  0  0  0  0  0  0  0  0  0
   41.8093   34.1116   38.4866 H   0  0  0  0  0  0  0  0  0  0  0  0
   39.3014   35.0962   38.5956 H   0  0  0  0  0  0  0  0  0  0  0  0
   39.1120   36.4551   40.8124 H   0  0  0  0  0  0  0  0  0  0  0  0
  2  7  1  0
  2  1  2  0
  3  2  1  0
  4  3  2  0
  4  5  1  0
  5  6  2  0
  6  1  1  0
  8  7  1  0
  9  8  2  0
  9 10  1  0
 10 11  1  0
 12  7  1  0
 12 11  1  0
 13  5  1  0
 13 17  2  0
 14 15  2  0
 14 13  1  0
 15 16  1  0
 16 17  1  0
  1 18  1  0
  3 19  1  0
  7 20  1  1
  8 21  1  0
  9 22  1  0
 10 23  1  0
 10 24  1  0
 11 25  1  0
 11 26  1  0
 12 27  1  0
 12 28  1  0
 14 29  1  0
 15 30  1  0
 16 31  1  0
M  ISO  8  18  14  19  14  20  13  21  13  22  13  23  13  24  13  25  13
M  ISO  6  26  13  27  13  28  13  29  14  30  14  31   9
M  END
>  <minimizedAffinity>  (1) 
-5.2244401

>  <minimizedRMSD>  (1) 
8.18014336

$$$$
