
     RDKit          3D

 31 32  0  0  1  0  0  0  0  0999 V2000
   45.2450   33.0330   47.4330 C   0  0  0  0  0  0  0  0  0  0  0  0
   45.7340   32.8010   46.1480 C   0  0  0  0  0  0  0  0  0  0  0  0
   46.0280   31.4590   45.8080 C   0  0  0  0  0  0  0  0  0  0  0  0
   45.8240   30.4840   46.7290 N   0  0  0  0  0  0  0  0  0  0  0  0
   45.3480   30.7570   47.9640 C   0  0  0  0  0  0  0  0  0  0  0  0
   45.0670   32.0170   48.2940 N   0  0  0  0  0  0  0  0  0  0  0  0
   45.1890   29.6370   48.8270 N   0  0  0  0  0  0  0  0  0  0  0  0
   45.5350   28.3490   48.3490 C   0  0  0  0  0  0  0  0  0  0  0  0
   46.5810   28.1580   47.6250 N   0  0  0  0  0  0  0  0  0  0  0  0
   44.7220   27.2040   48.6650 N   0  0  0  0  0  0  0  0  0  0  0  0
   47.2100   28.9370   47.3650 H   0  0  0  0  0  0  0  0  0  0  0  0
   45.9340   33.9290   45.2310 C   0  0  2  0  0  0  0  0  0  0  0  0
   44.8550   34.9630   45.4750 C   0  0  0  0  0  0  0  0  0  0  0  0
   44.5660   35.8780   44.3880 C   0  0  0  0  0  0  0  0  0  0  0  0
   45.3010   35.7880   43.1210 C   0  0  0  0  0  0  0  0  0  0  0  0
   46.4380   34.8260   43.0760 C   0  0  0  0  0  0  0  0  0  0  0  0
   46.0140   33.5600   43.7820 C   0  0  0  0  0  0  0  0  0  0  0  0
   45.0022   34.0594   47.7454 H   0  0  0  0  0  0  0  0  0  0  0  0
   46.4169   31.2097   44.8097 H   0  0  0  0  0  0  0  0  0  0  0  0
   44.8282   29.7606   49.7838 H   0  0  0  0  0  0  0  0  0  0  0  0
   44.9842   26.2728   48.3114 H   0  0  0  0  0  0  0  0  0  0  0  0
   43.8780   27.3159   49.2447 H   0  0  0  0  0  0  0  0  0  0  0  0
   46.9272   34.3439   45.4578 H   0  0  0  0  0  0  0  0  0  0  0  0
   44.3156   35.0174   46.4322 H   0  0  0  0  0  0  0  0  0  0  0  0
   43.7890   36.6464   44.5141 H   0  0  0  0  0  0  0  0  0  0  0  0
   44.5845   35.4945   42.3397 H   0  0  0  0  0  0  0  0  0  0  0  0
   45.7545   36.7799   42.9778 H   0  0  0  0  0  0  0  0  0  0  0  0
   46.6941   34.6011   42.0302 H   0  0  0  0  0  0  0  0  0  0  0  0
   47.3210   35.2584   43.5694 H   0  0  0  0  0  0  0  0  0  0  0  0
   45.0334   33.2230   43.4147 H   0  0  0  0  0  0  0  0  0  0  0  0
   46.7188   32.7341   43.6055 H   0  0  0  0  0  0  0  0  0  0  0  0
  1  6  2  0
  2  1  1  0
  3  2  2  0
  3  4  1  0
  4  5  2  0
  5  6  1  0
  5  7  1  0
  8 10  1  0
  8  7  1  0
  9  8  2  0
 11  9  1  0
 12 13  1  0
 12  2  1  0
 14 13  2  0
 15 14  1  0
 16 15  1  0
 16 17  1  0
 17 12  1  0
  1 18  1  0
  3 19  1  0
  7 20  1  0
 10 21  1  0
 10 22  1  0
 12 23  1  1
 13 24  1  0
 14 25  1  0
 15 26  1  0
 15 27  1  0
 16 28  1  0
 16 29  1  0
 17 30  1  0
 17 31  1  0
M  ISO  8  18  14  19  14  23  13  24  13  25  13  26  13  27  13  28  13
M  ISO  3  29  13  30  13  31  13
M  END
>  <minimizedAffinity>  (1) 
-5.15811682

>  <minimizedRMSD>  (1) 
0.103678182

$$$$
