
     RDKit          3D

 38 41  0  0  1  0  0  0  0  0999 V2000
   45.8280   32.0280   46.1390 C   0  0  0  0  0  0  0  0  0  0  0  0
   45.7860   32.3670   44.7870 C   0  0  0  0  0  0  0  0  0  0  0  0
   45.5600   31.3000   43.8870 C   0  0  0  0  0  0  0  0  0  0  0  0
   45.4020   30.0460   44.3750 N   0  0  0  0  0  0  0  0  0  0  0  0
   45.4470   29.7610   45.6660 C   0  0  0  0  0  0  0  0  0  0  0  0
   45.6580   30.7510   46.5260 N   0  0  0  0  0  0  0  0  0  0  0  0
   45.9730   33.7630   44.3680 C   0  0  2  0  0  0  0  0  0  0  0  0
   45.0360   34.6460   45.1670 C   0  0  0  0  0  0  0  0  0  0  0  0
   44.6770   35.9220   44.5870 C   0  0  0  0  0  0  0  0  0  0  0  0
   45.2130   36.3250   43.2820 C   0  0  0  0  0  0  0  0  0  0  0  0
   46.2090   35.4120   42.6530 C   0  0  0  0  0  0  0  0  0  0  0  0
   45.7820   33.9860   42.8950 C   0  0  0  0  0  0  0  0  0  0  0  0
   45.2980   28.4760   46.3680 C   0  0  0  0  0  0  0  0  0  0  0  0
   46.2890   27.9010   47.1020 N   0  0  0  0  0  0  0  0  0  0  0  0
   46.1750   26.7380   47.7460 C   0  0  0  0  0  0  0  0  0  0  0  0
   45.0380   26.0280   47.7160 N   0  0  0  0  0  0  0  0  0  0  0  0
   43.9850   26.5220   47.0060 C   0  0  0  0  0  0  0  0  0  0  0  0
   42.8320   25.7710   46.9950 C   0  0  0  0  0  0  0  0  0  0  0  0
   41.7360   26.2220   46.2940 C   0  0  0  0  0  0  0  0  0  0  0  0
   41.8680   27.4400   45.6240 C   0  0  0  0  0  0  0  0  0  0  0  0
   43.0530   28.1310   45.6840 C   0  0  0  0  0  0  0  0  0  0  0  0
   44.1560   27.7250   46.3620 C   0  0  0  0  0  0  0  0  0  0  0  0
   46.0012   32.8095   46.8935 H   0  0  0  0  0  0  0  0  0  0  0  0
   45.5130   31.4858   42.8038 H   0  0  0  0  0  0  0  0  0  0  0  0
   47.0218   34.0259   44.5702 H   0  0  0  0  0  0  0  0  0  0  0  0
   44.6456   34.3305   46.1458 H   0  0  0  0  0  0  0  0  0  0  0  0
   43.9967   36.5955   45.1289 H   0  0  0  0  0  0  0  0  0  0  0  0
   44.3643   36.4198   42.5887 H   0  0  0  0  0  0  0  0  0  0  0  0
   45.7600   37.2602   43.4722 H   0  0  0  0  0  0  0  0  0  0  0  0
   47.1999   35.5820   43.0993 H   0  0  0  0  0  0  0  0  0  0  0  0
   46.2644   35.6072   41.5719 H   0  0  0  0  0  0  0  0  0  0  0  0
   44.7268   33.8468   42.6173 H   0  0  0  0  0  0  0  0  0  0  0  0
   46.3649   33.2741   42.2922 H   0  0  0  0  0  0  0  0  0  0  0  0
   47.0340   26.3526   48.3149 H   0  0  0  0  0  0  0  0  0  0  0  0
   42.7862   24.8177   47.5420 H   0  0  0  0  0  0  0  0  0  0  0  0
   40.7980   25.6482   46.2632 H   0  0  0  0  0  0  0  0  0  0  0  0
   41.0230   27.8457   45.0484 H   0  0  0  0  0  0  0  0  0  0  0  0
   43.1127   29.0860   45.1414 H   0  0  0  0  0  0  0  0  0  0  0  0
  1  6  2  0
  2  1  1  0
  3  4  1  0
  3  2  2  0
  4  5  2  0
  5 13  1  0
  5  6  1  0
  7  2  1  0
  7  8  1  0
  9  8  2  0
 10  9  1  0
 11 12  1  0
 11 10  1  0
 12  7  1  0
 13 14  2  0
 14 15  1  0
 16 15  2  0
 17 16  1  0
 18 17  2  0
 19 18  1  0
 20 21  1  0
 20 19  2  0
 21 22  2  0
 22 13  1  0
 22 17  1  0
  1 23  1  0
  3 24  1  0
  7 25  1  1
  8 26  1  0
  9 27  1  0
 10 28  1  0
 10 29  1  0
 11 30  1  0
 11 31  1  0
 12 32  1  0
 12 33  1  0
 15 34  1  0
 18 35  1  0
 19 36  1  0
 20 37  1  0
 21 38  1  0
M  ISO  8  23  14  24  14  25  13  26  13  27  13  28  13  29  13  30  13
M  ISO  8  31  13  32  13  33  13  34  14  35  14  36  14  37  14  38  14
M  END
>  <minimizedAffinity>  (1) 
-5.34769106

>  <minimizedRMSD>  (1) 
2.71222091

$$$$
