
     RDKit          3D

 33 35  0  0  1  0  0  0  0  0999 V2000
   46.0170   32.2950   46.6400 C   0  0  0  0  0  0  0  0  0  0  0  0
   45.9500   32.4720   45.2580 C   0  0  0  0  0  0  0  0  0  0  0  0
   45.8640   31.3060   44.4500 C   0  0  0  0  0  0  0  0  0  0  0  0
   45.8530   30.0970   45.0580 N   0  0  0  0  0  0  0  0  0  0  0  0
   45.9210   29.9690   46.4060 C   0  0  0  0  0  0  0  0  0  0  0  0
   46.0020   31.0720   47.1870 N   0  0  0  0  0  0  0  0  0  0  0  0
   45.9880   33.8360   44.7000 C   0  0  2  0  0  0  0  0  0  0  0  0
   45.0060   34.7070   45.4540 C   0  0  0  0  0  0  0  0  0  0  0  0
   44.5400   35.9000   44.7790 C   0  0  0  0  0  0  0  0  0  0  0  0
   45.0160   36.2230   43.4290 C   0  0  0  0  0  0  0  0  0  0  0  0
   46.0450   35.3440   42.8470 C   0  0  0  0  0  0  0  0  0  0  0  0
   45.7650   33.9110   43.2250 C   0  0  0  0  0  0  0  0  0  0  0  0
   45.9060   28.6470   47.0190 C   0  0  0  0  0  0  0  0  0  0  0  0
   44.7830   28.1860   47.6390 C   0  0  0  0  0  0  0  0  0  0  0  0
   44.7350   26.9290   48.2350 C   0  0  0  0  0  0  0  0  0  0  0  0
   45.9210   26.2010   48.1390 C   0  0  0  0  0  0  0  0  0  0  0  0
   47.0560   26.6650   47.5130 C   0  0  0  0  0  0  0  0  0  0  0  0
   47.0230   27.8910   46.9620 N   0  0  0  0  0  0  0  0  0  0  0  0
   46.0835   33.1771   47.2938 H   0  0  0  0  0  0  0  0  0  0  0  0
   45.8076   31.3845   43.3543 H   0  0  0  0  0  0  0  0  0  0  0  0
   47.0136   34.2090   44.8381 H   0  0  0  0  0  0  0  0  0  0  0  0
   44.6630   34.4461   46.4661 H   0  0  0  0  0  0  0  0  0  0  0  0
   43.8249   36.5683   45.2811 H   0  0  0  0  0  0  0  0  0  0  0  0
   44.1449   36.2016   42.7576 H   0  0  0  0  0  0  0  0  0  0  0  0
   45.5055   37.2030   43.5292 H   0  0  0  0  0  0  0  0  0  0  0  0
   47.0340   35.6362   43.2297 H   0  0  0  0  0  0  0  0  0  0  0  0
   46.0285   35.4408   41.7514 H   0  0  0  0  0  0  0  0  0  0  0  0
   44.7264   33.6446   42.9793 H   0  0  0  0  0  0  0  0  0  0  0  0
   46.4136   33.2107   42.6783 H   0  0  0  0  0  0  0  0  0  0  0  0
   43.8888   28.8259   47.6692 H   0  0  0  0  0  0  0  0  0  0  0  0
   43.8372   26.5422   48.7393 H   0  0  0  0  0  0  0  0  0  0  0  0
   45.9511   25.1980   48.5896 H   0  0  0  0  0  0  0  0  0  0  0  0
   47.9660   26.0489   47.4649 H   0  0  0  0  0  0  0  0  0  0  0  0
  1  6  2  0
  2  1  1  0
  3  4  1  0
  3  2  2  0
  4  5  2  0
  5 13  1  0
  5  6  1  0
  7  2  1  0
  7  8  1  0
  9  8  2  0
 10  9  1  0
 11 12  1  0
 11 10  1  0
 12  7  1  0
 13 14  2  0
 14 15  1  0
 16 15  2  0
 17 16  1  0
 18 13  1  0
 18 17  2  0
  1 19  1  0
  3 20  1  0
  7 21  1  6
  8 22  1  0
  9 23  1  0
 10 24  1  0
 10 25  1  0
 11 26  1  0
 11 27  1  0
 12 28  1  0
 12 29  1  0
 14 30  1  0
 15 31  1  0
 16 32  1  0
 17 33  1  0
M  ISO  8  19  14  20  14  21  13  22  13  23  13  24  13  25  13  26  13
M  ISO  7  27  13  28  13  29  13  30  14  31  14  32  14  33  14
M  END
>  <minimizedAffinity>  (1) 
-4.70203829

>  <minimizedRMSD>  (1) 
1.92650628

$$$$
