
     RDKit          3D

 31 33  0  0  1  0  0  0  0  0999 V2000
   44.5280   34.3520   41.9210 C   0  0  2  0  0  0  0  0  0  0  0  0
   43.4270   35.3790   42.0190 C   0  0  0  0  0  0  0  0  0  0  0  0
   42.5670   35.5310   40.8730 C   0  0  0  0  0  0  0  0  0  0  0  0
   42.7690   34.7250   39.6710 C   0  0  0  0  0  0  0  0  0  0  0  0
   43.9750   33.8510   39.6490 C   0  0  0  0  0  0  0  0  0  0  0  0
   44.1420   33.2280   41.0130 C   0  0  0  0  0  0  0  0  0  0  0  0
   45.3830   32.6450   43.4960 C   0  0  0  0  0  0  0  0  0  0  0  0
   44.9490   33.9510   43.2640 C   0  0  0  0  0  0  0  0  0  0  0  0
   44.9330   34.8160   44.3740 C   0  0  0  0  0  0  0  0  0  0  0  0
   45.3250   34.3680   45.5910 N   0  0  0  0  0  0  0  0  0  0  0  0
   45.7370   33.0870   45.7610 C   0  0  0  0  0  0  0  0  0  0  0  0
   45.7630   32.2330   44.7070 N   0  0  0  0  0  0  0  0  0  0  0  0
   46.1650   32.5780   47.0610 C   0  0  0  0  0  0  0  0  0  0  0  0
   45.3570   32.4140   48.1770 C   0  0  0  0  0  0  0  0  0  0  0  0
   46.1340   31.9200   49.1640 N   0  0  0  0  0  0  0  0  0  0  0  0
   47.4070   31.7660   48.7070 C   0  0  0  0  0  0  0  0  0  0  0  0
   47.3830   32.1720   47.4390 N   0  0  0  0  0  0  0  0  0  0  0  0
   45.4172   34.7900   41.4441 H   0  0  0  0  0  0  0  0  0  0  0  0
   43.2870   35.9854   42.9260 H   0  0  0  0  0  0  0  0  0  0  0  0
   41.7472   36.2638   40.9034 H   0  0  0  0  0  0  0  0  0  0  0  0
   41.8867   34.0794   39.5499 H   0  0  0  0  0  0  0  0  0  0  0  0
   42.9213   35.4500   38.8579 H   0  0  0  0  0  0  0  0  0  0  0  0
   43.8469   33.0614   38.8940 H   0  0  0  0  0  0  0  0  0  0  0  0
   44.8654   34.4450   39.3952 H   0  0  0  0  0  0  0  0  0  0  0  0
   43.1978   32.7720   41.3456 H   0  0  0  0  0  0  0  0  0  0  0  0
   44.8988   32.4297   41.0072 H   0  0  0  0  0  0  0  0  0  0  0  0
   45.4127   31.9349   42.6565 H   0  0  0  0  0  0  0  0  0  0  0  0
   44.6016   35.8579   44.2532 H   0  0  0  0  0  0  0  0  0  0  0  0
   44.2834   32.6437   48.2448 H   0  0  0  0  0  0  0  0  0  0  0  0
   48.2737   31.3859   49.2676 H   0  0  0  0  0  0  0  0  0  0  0  0
   48.2067   32.1734   46.8206 H   0  0  0  0  0  0  0  0  0  0  0  0
  1  2  1  0
  1  8  1  0
  3  2  2  0
  4  3  1  0
  5  4  1  0
  5  6  1  0
  6  1  1  0
  7 12  2  0
  8  7  1  0
  8  9  2  0
  9 10  1  0
 10 11  2  0
 11 13  1  0
 12 11  1  0
 13 17  1  0
 13 14  2  0
 14 15  1  0
 16 15  2  0
 17 16  1  0
  1 18  1  6
  2 19  1  0
  3 20  1  0
  4 21  1  0
  4 22  1  0
  5 23  1  0
  5 24  1  0
  6 25  1  0
  6 26  1  0
  7 27  1  0
  9 28  1  0
 14 29  1  0
 16 30  1  0
 17 31  1  0
M  ISO  8  18  13  19  13  20  13  21  13  22  13  23  13  24  13  25  13
M  ISO  6  26  13  27  14  28  14  29  14  30  14  31   9
M  END
>  <minimizedAffinity>  (1) 
-4.71146679

>  <minimizedRMSD>  (1) 
3.93984318

$$$$
