
     RDKit          3D

 30 32  0  0  1  0  0  0  0  0999 V2000
   46.0300   33.9020   44.5670 C   0  0  2  0  0  0  0  0  0  0  0  0
   45.0130   34.7930   45.2480 C   0  0  0  0  0  0  0  0  0  0  0  0
   44.5780   35.9700   44.5300 C   0  0  0  0  0  0  0  0  0  0  0  0
   45.1160   36.2600   43.2030 C   0  0  0  0  0  0  0  0  0  0  0  0
   46.1350   35.3520   42.6560 C   0  0  0  0  0  0  0  0  0  0  0  0
   45.8640   33.9320   43.0780 C   0  0  0  0  0  0  0  0  0  0  0  0
   46.1180   32.4350   46.5440 C   0  0  0  0  0  0  0  0  0  0  0  0
   45.9830   32.5580   45.1620 C   0  0  0  0  0  0  0  0  0  0  0  0
   45.8260   31.3750   44.3910 C   0  0  0  0  0  0  0  0  0  0  0  0
   45.8160   30.1920   45.0440 N   0  0  0  0  0  0  0  0  0  0  0  0
   45.9500   30.0980   46.3900 C   0  0  0  0  0  0  0  0  0  0  0  0
   46.0990   31.2160   47.1340 N   0  0  0  0  0  0  0  0  0  0  0  0
   45.9240   28.7980   46.9750 N   0  0  0  0  0  0  0  0  0  0  0  0
   46.9030   27.8990   47.1710 C   0  0  0  0  0  0  0  0  0  0  0  0
   46.3870   26.7960   47.7700 N   0  0  0  0  0  0  0  0  0  0  0  0
   45.0570   27.0490   47.9360 C   0  0  0  0  0  0  0  0  0  0  0  0
   44.8000   28.2900   47.4370 N   0  0  0  0  0  0  0  0  0  0  0  0
   47.0470   34.2833   44.7408 H   0  0  0  0  0  0  0  0  0  0  0  0
   44.6212   34.5547   46.2479 H   0  0  0  0  0  0  0  0  0  0  0  0
   43.8406   36.6485   44.9837 H   0  0  0  0  0  0  0  0  0  0  0  0
   44.2695   36.2623   42.5006 H   0  0  0  0  0  0  0  0  0  0  0  0
   45.6403   37.2194   43.3236 H   0  0  0  0  0  0  0  0  0  0  0  0
   47.1254   35.6559   43.0258 H   0  0  0  0  0  0  0  0  0  0  0  0
   46.1046   35.4066   41.5578 H   0  0  0  0  0  0  0  0  0  0  0  0
   44.8398   33.6406   42.8021 H   0  0  0  0  0  0  0  0  0  0  0  0
   46.5491   33.2280   42.5830 H   0  0  0  0  0  0  0  0  0  0  0  0
   46.2412   33.3370   47.1615 H   0  0  0  0  0  0  0  0  0  0  0  0
   45.7161   31.4206   43.2975 H   0  0  0  0  0  0  0  0  0  0  0  0
   47.9577   28.0356   46.8899 H   0  0  0  0  0  0  0  0  0  0  0  0
   44.3215   26.3703   48.3925 H   0  0  0  0  0  0  0  0  0  0  0  0
  1  8  1  0
  1  2  1  0
  3  2  2  0
  4  3  1  0
  5  6  1  0
  5  4  1  0
  6  1  1  0
  7 12  2  0
  8  7  1  0
  9 10  1  0
  9  8  2  0
 10 11  2  0
 11 13  1  0
 11 12  1  0
 13 14  1  0
 13 17  1  0
 14 15  2  0
 15 16  1  0
 17 16  2  0
  1 18  1  6
  2 19  1  0
  3 20  1  0
  4 21  1  0
  4 22  1  0
  5 23  1  0
  5 24  1  0
  6 25  1  0
  6 26  1  0
  7 27  1  0
  9 28  1  0
 14 29  1  0
 16 30  1  0
M  ISO  8  18  13  19  13  20  13  21  13  22  13  23  13  24  13  25  13
M  ISO  5  26  13  27  14  28  14  29  14  30  14
M  END
>  <minimizedAffinity>  (1) 
-4.68002319

>  <minimizedRMSD>  (1) 
1.63838255

$$$$
