
     RDKit          3D

 36 38  0  0  1  0  0  0  0  0999 V2000
   46.0360   33.9170   44.6830 C   0  0  2  0  0  0  0  0  0  0  0  0
   44.9990   34.7970   45.3430 C   0  0  0  0  0  0  0  0  0  0  0  0
   44.5220   35.9350   44.5840 C   0  0  0  0  0  0  0  0  0  0  0  0
   45.0330   36.2070   43.2400 C   0  0  0  0  0  0  0  0  0  0  0  0
   46.1360   35.3340   42.7530 C   0  0  0  0  0  0  0  0  0  0  0  0
   45.8490   33.9190   43.1960 C   0  0  0  0  0  0  0  0  0  0  0  0
   45.9920   32.4840   46.6930 C   0  0  0  0  0  0  0  0  0  0  0  0
   46.0210   32.5890   45.3010 C   0  0  0  0  0  0  0  0  0  0  0  0
   46.0500   31.3930   44.5710 C   0  0  0  0  0  0  0  0  0  0  0  0
   46.0480   30.2020   45.2220 N   0  0  0  0  0  0  0  0  0  0  0  0
   46.0180   30.1440   46.5740 C   0  0  0  0  0  0  0  0  0  0  0  0
   45.9910   31.2800   47.3060 N   0  0  0  0  0  0  0  0  0  0  0  0
   46.0190   28.8570   47.1770 N   0  0  0  0  0  0  0  0  0  0  0  0
   44.8720   28.2410   47.7730 C   0  0  0  0  0  0  0  0  0  0  0  0
   45.2370   26.8220   48.0590 C   0  0  0  0  0  0  0  0  0  0  0  0
   46.6380   26.6100   47.5810 C   0  0  0  0  0  0  0  0  0  0  0  0
   47.1640   27.9750   47.2850 C   0  0  0  0  0  0  0  0  0  0  0  0
   47.0480   34.3153   44.8478 H   0  0  0  0  0  0  0  0  0  0  0  0
   44.6234   34.5828   46.3544 H   0  0  0  0  0  0  0  0  0  0  0  0
   43.7664   36.6029   45.0234 H   0  0  0  0  0  0  0  0  0  0  0  0
   44.1928   36.1052   42.5374 H   0  0  0  0  0  0  0  0  0  0  0  0
   45.4671   37.2162   43.2954 H   0  0  0  0  0  0  0  0  0  0  0  0
   47.0928   35.6706   43.1787 H   0  0  0  0  0  0  0  0  0  0  0  0
   46.2026   35.3824   41.6561 H   0  0  0  0  0  0  0  0  0  0  0  0
   44.8173   33.6377   42.9383 H   0  0  0  0  0  0  0  0  0  0  0  0
   46.5128   33.1948   42.7011 H   0  0  0  0  0  0  0  0  0  0  0  0
   45.9695   33.3994   47.3025 H   0  0  0  0  0  0  0  0  0  0  0  0
   46.0744   31.4195   43.4716 H   0  0  0  0  0  0  0  0  0  0  0  0
   44.6079   28.7586   48.7070 H   0  0  0  0  0  0  0  0  0  0  0  0
   44.0037   28.2947   47.0998 H   0  0  0  0  0  0  0  0  0  0  0  0
   45.1766   26.6299   49.1404 H   0  0  0  0  0  0  0  0  0  0  0  0
   44.5465   26.1351   47.5478 H   0  0  0  0  0  0  0  0  0  0  0  0
   47.2423   26.1252   48.3619 H   0  0  0  0  0  0  0  0  0  0  0  0
   46.6753   25.9557   46.6975 H   0  0  0  0  0  0  0  0  0  0  0  0
   47.7248   27.9666   46.3387 H   0  0  0  0  0  0  0  0  0  0  0  0
   47.8461   28.3132   48.0790 H   0  0  0  0  0  0  0  0  0  0  0  0
  1  8  1  0
  1  2  1  0
  3  2  2  0
  4  3  1  0
  5  6  1  0
  5  4  1  0
  6  1  1  0
  7 12  2  0
  8  7  1  0
  9 10  1  0
  9  8  2  0
 10 11  2  0
 11 13  1  0
 11 12  1  0
 13 17  1  0
 13 14  1  0
 14 15  1  0
 16 15  1  0
 17 16  1  0
  1 18  1  6
  2 19  1  0
  3 20  1  0
  4 21  1  0
  4 22  1  0
  5 23  1  0
  5 24  1  0
  6 25  1  0
  6 26  1  0
  7 27  1  0
  9 28  1  0
 14 29  1  0
 14 30  1  0
 15 31  1  0
 15 32  1  0
 16 33  1  0
 16 34  1  0
 17 35  1  0
 17 36  1  0
M  ISO  8  18  13  19  13  20  13  21  13  22  13  23  13  24  13  25  13
M  ISO  8  26  13  27  14  28  14  29  13  30  13  31  13  32  13  33  13
M  ISO  3  34  13  35  13  36  13
M  END
>  <minimizedAffinity>  (1) 
-4.75521421

>  <minimizedRMSD>  (1) 
1.50369453

$$$$
