
     RDKit          3D

 26 27  0  0  1  0  0  0  0  0999 V2000
   45.9710   33.9110   45.2740 C   0  0  2  0  0  0  0  0  0  0  0  0
   44.8670   34.9170   45.5140 C   0  0  0  0  0  0  0  0  0  0  0  0
   44.5500   35.8240   44.4360 C   0  0  0  0  0  0  0  0  0  0  0  0
   45.2850   35.7590   43.1680 C   0  0  0  0  0  0  0  0  0  0  0  0
   46.4290   34.8060   43.1080 C   0  0  0  0  0  0  0  0  0  0  0  0
   46.0420   33.5380   43.8280 C   0  0  0  0  0  0  0  0  0  0  0  0
   45.2490   32.9970   47.4670 C   0  0  0  0  0  0  0  0  0  0  0  0
   45.7920   32.7660   46.1980 C   0  0  0  0  0  0  0  0  0  0  0  0
   46.1600   31.4390   45.8550 C   0  0  0  0  0  0  0  0  0  0  0  0
   45.9630   30.4640   46.7820 N   0  0  0  0  0  0  0  0  0  0  0  0
   45.4330   30.7280   48.0030 C   0  0  0  0  0  0  0  0  0  0  0  0
   45.0820   31.9950   48.3300 N   0  0  0  0  0  0  0  0  0  0  0  0
   45.2450   29.6630   48.9460 N   0  0  0  0  0  0  0  0  0  0  0  0
   46.9546   34.3482   45.5008 H   0  0  0  0  0  0  0  0  0  0  0  0
   44.3272   34.9560   46.4716 H   0  0  0  0  0  0  0  0  0  0  0  0
   43.7515   36.5692   44.5665 H   0  0  0  0  0  0  0  0  0  0  0  0
   44.5704   35.4725   42.3824 H   0  0  0  0  0  0  0  0  0  0  0  0
   45.7313   36.7562   43.0400 H   0  0  0  0  0  0  0  0  0  0  0  0
   46.6658   34.5778   42.0583 H   0  0  0  0  0  0  0  0  0  0  0  0
   47.3136   35.2525   43.5856 H   0  0  0  0  0  0  0  0  0  0  0  0
   45.0647   33.1773   43.4747 H   0  0  0  0  0  0  0  0  0  0  0  0
   46.7642   32.7279   43.6486 H   0  0  0  0  0  0  0  0  0  0  0  0
   44.9566   34.0174   47.7556 H   0  0  0  0  0  0  0  0  0  0  0  0
   46.5911   31.2065   44.8701 H   0  0  0  0  0  0  0  0  0  0  0  0
   44.8429   29.8612   49.8733 H   0  0  0  0  0  0  0  0  0  0  0  0
   45.5122   28.7003   48.6956 H   0  0  0  0  0  0  0  0  0  0  0  0
  1  2  1  0
  1  8  1  0
  3  2  2  0
  4  3  1  0
  5  4  1  0
  5  6  1  0
  6  1  1  0
  7 12  2  0
  8  7  1  0
  9  8  2  0
  9 10  1  0
 10 11  2  0
 11 12  1  0
 11 13  1  0
  1 14  1  1
  2 15  1  0
  3 16  1  0
  4 17  1  0
  4 18  1  0
  5 19  1  0
  5 20  1  0
  6 21  1  0
  6 22  1  0
  7 23  1  0
  9 24  1  0
 13 25  1  0
 13 26  1  0
M  ISO  8  14  13  15  13  16  13  17  13  18  13  19  13  20  13  21  13
M  ISO  3  22  13  23  14  24  14
M  END
>  <minimizedAffinity>  (1) 
-4.66782713

>  <minimizedRMSD>  (1) 
0.0666356385

$$$$
