
     RDKit          3D

 45 47  0  0  1  0  0  0  0  0999 V2000
   45.4760   34.7250   42.5360 C   0  0  2  0  0  0  0  0  0  0  0  0
   44.6520   35.2600   44.8890 C   0  0  0  0  0  0  0  0  0  0  0  0
   45.3630   34.4310   43.9740 C   0  0  0  0  0  0  0  0  0  0  0  0
   45.9700   33.2990   44.5470 C   0  0  0  0  0  0  0  0  0  0  0  0
   45.8380   33.0890   45.8770 N   0  0  0  0  0  0  0  0  0  0  0  0
   45.1540   33.9040   46.7000 C   0  0  0  0  0  0  0  0  0  0  0  0
   44.5380   35.0290   46.1930 N   0  0  0  0  0  0  0  0  0  0  0  0
   46.7080   35.5730   42.3550 C   0  0  0  0  0  0  0  0  0  0  0  0
   47.7170   35.0470   41.5030 N   0  0  0  0  0  0  0  0  0  0  0  0
   49.0110   35.2430   42.0740 C   0  0  0  0  0  0  0  0  0  0  0  0
   49.8770   34.0550   42.2110 C   0  0  0  0  0  0  0  0  0  0  0  0
   49.0290   33.0120   42.6160 O   0  0  0  0  0  0  0  0  0  0  0  0
   48.3460   32.6700   41.4610 C   0  0  0  0  0  0  0  0  0  0  0  0
   47.5460   33.8110   40.8760 C   0  0  2  0  0  0  0  0  0  0  0  0
   48.1010   34.0190   39.4460 C   0  0  0  0  0  0  0  0  0  0  0  0
   44.2610   35.3490   42.0230 C   0  0  0  0  0  0  0  0  0  0  0  0
   43.5550   34.7620   40.9380 N   0  0  0  0  0  0  0  0  0  0  0  0
   43.9940   34.0520   39.8840 C   0  0  0  0  0  0  0  0  0  0  0  0
   43.2060   33.5480   38.9000 C   0  0  0  0  0  0  0  0  0  0  0  0
   41.8410   33.7440   38.9280 C   0  0  0  0  0  0  0  0  0  0  0  0
   41.0650   33.3110   38.0620 O   0  0  0  0  0  0  0  0  0  0  0  0
   41.3750   34.4520   39.9720 N   0  0  0  0  0  0  0  0  0  0  0  0
   42.1970   34.9320   40.9240 C   0  0  0  0  0  0  0  0  0  0  0  0
   41.6340   35.5870   41.8620 O   0  0  0  0  0  0  0  0  0  0  0  0
   45.5830   33.8023   41.9467 H   0  0  0  0  0  0  0  0  0  0  0  0
   44.1608   36.1581   44.4863 H   0  0  0  0  0  0  0  0  0  0  0  0
   46.5426   32.5960   43.9241 H   0  0  0  0  0  0  0  0  0  0  0  0
   45.0862   33.6740   47.7736 H   0  0  0  0  0  0  0  0  0  0  0  0
   46.3903   36.5408   41.9398 H   0  0  0  0  0  0  0  0  0  0  0  0
   47.1696   35.6348   43.3516 H   0  0  0  0  0  0  0  0  0  0  0  0
   49.5440   35.9696   41.4432 H   0  0  0  0  0  0  0  0  0  0  0  0
   48.8179   35.5725   43.1056 H   0  0  0  0  0  0  0  0  0  0  0  0
   50.3506   33.8125   41.2483 H   0  0  0  0  0  0  0  0  0  0  0  0
   50.6872   34.2243   42.9355 H   0  0  0  0  0  0  0  0  0  0  0  0
   49.0768   32.3356   40.7099 H   0  0  0  0  0  0  0  0  0  0  0  0
   47.6322   31.8771   41.7288 H   0  0  0  0  0  0  0  0  0  0  0  0
   46.4856   33.5334   40.9681 H   0  0  0  0  0  0  0  0  0  0  0  0
   49.1296   34.4045   39.5044 H   0  0  0  0  0  0  0  0  0  0  0  0
   48.0991   33.0591   38.9087 H   0  0  0  0  0  0  0  0  0  0  0  0
   47.4687   34.7412   38.9087 H   0  0  0  0  0  0  0  0  0  0  0  0
   43.5555   35.4059   42.8650 H   0  0  0  0  0  0  0  0  0  0  0  0
   44.6273   36.2954   41.5987 H   0  0  0  0  0  0  0  0  0  0  0  0
   45.0757   33.8649   39.8135 H   0  0  0  0  0  0  0  0  0  0  0  0
   43.6593   32.9794   38.0747 H   0  0  0  0  0  0  0  0  0  0  0  0
   40.3634   34.6316   40.0451 H   0  0  0  0  0  0  0  0  0  0  0  0
  1  3  1  0
  2  7  2  0
  3  4  2  0
  3  2  1  0
  4  5  1  0
  5  6  2  0
  7  6  1  0
  8  1  1  0
  9 10  1  0
  9  8  1  0
 10 11  1  0
 11 12  1  0
 13 12  1  0
 14 13  1  0
 14  9  1  0
 15 14  1  0
 16  1  1  0
 17 16  1  0
 18 17  1  0
 19 20  1  0
 19 18  2  0
 20 22  1  0
 21 20  2  0
 22 23  1  0
 23 17  1  0
 23 24  2  0
  1 25  1  6
  2 26  1  0
  4 27  1  0
  6 28  1  0
  8 29  1  0
  8 30  1  0
 10 31  1  0
 10 32  1  0
 11 33  1  0
 11 34  1  0
 13 35  1  0
 13 36  1  0
 14 37  1  6
 15 38  1  0
 15 39  1  0
 15 40  1  0
 16 41  1  0
 16 42  1  0
 18 43  1  0
 19 44  1  0
 22 45  1  0
M  ISO  8  25   8  26  14  27  14  28  14  29   8  30   8  31  13  32  13
M  ISO  8  33  13  34  13  35  13  36  13  37  13  38   8  39   8  40   8
M  ISO  5  41   8  42   8  43  14  44  14  45   9
M  END
>  <minimizedAffinity>  (1) 
-5.24690342

>  <minimizedRMSD>  (1) 
2.29690957

$$$$
