
     RDKit          3D

 25 26  0  0  1  0  0  0  0  0999 V2000
   45.9530   33.7340   45.5130 C   0  0  2  0  0  0  0  0  0  0  0  0
   44.8780   34.7660   45.7660 C   0  0  0  0  0  0  0  0  0  0  0  0
   44.5670   35.7010   44.7020 C   0  0  0  0  0  0  0  0  0  0  0  0
   45.2910   35.6120   43.4390 C   0  0  0  0  0  0  0  0  0  0  0  0
   46.3450   34.5960   43.3230 C   0  0  0  0  0  0  0  0  0  0  0  0
   45.9520   33.3420   44.0690 C   0  0  0  0  0  0  0  0  0  0  0  0
   45.2270   32.8360   47.7260 C   0  0  0  0  0  0  0  0  0  0  0  0
   45.7550   32.5900   46.4360 C   0  0  0  0  0  0  0  0  0  0  0  0
   46.0790   31.2540   46.0790 C   0  0  0  0  0  0  0  0  0  0  0  0
   45.8660   30.2820   46.9930 N   0  0  0  0  0  0  0  0  0  0  0  0
   45.3570   30.5670   48.2180 C   0  0  0  0  0  0  0  0  0  0  0  0
   45.0460   31.8200   48.5740 N   0  0  0  0  0  0  0  0  0  0  0  0
   45.1930   29.4660   49.0480 O   0  0  0  0  0  0  0  0  0  0  0  0
   46.9510   34.1478   45.7200 H   0  0  0  0  0  0  0  0  0  0  0  0
   44.3473   34.8066   46.7287 H   0  0  0  0  0  0  0  0  0  0  0  0
   43.7931   36.4694   44.8460 H   0  0  0  0  0  0  0  0  0  0  0  0
   44.5513   35.4086   42.6507 H   0  0  0  0  0  0  0  0  0  0  0  0
   45.8218   36.5719   43.3563 H   0  0  0  0  0  0  0  0  0  0  0  0
   46.4989   34.3530   42.2613 H   0  0  0  0  0  0  0  0  0  0  0  0
   47.2737   34.9939   43.7581 H   0  0  0  0  0  0  0  0  0  0  0  0
   44.9511   33.0061   43.7603 H   0  0  0  0  0  0  0  0  0  0  0  0
   46.6403   32.5081   43.8668 H   0  0  0  0  0  0  0  0  0  0  0  0
   44.9665   33.8608   48.0293 H   0  0  0  0  0  0  0  0  0  0  0  0
   46.4914   31.0175   45.0871 H   0  0  0  0  0  0  0  0  0  0  0  0
   44.8271   29.5840   49.9603 H   0  0  0  0  0  0  0  0  0  0  0  0
  1  2  1  0
  1  8  1  0
  3  2  2  0
  4  3  1  0
  5  4  1  0
  5  6  1  0
  6  1  1  0
  7 12  2  0
  8  7  1  0
  9  8  2  0
  9 10  1  0
 10 11  2  0
 11 12  1  0
 11 13  1  0
  1 14  1  1
  2 15  1  0
  3 16  1  0
  4 17  1  0
  4 18  1  0
  5 19  1  0
  5 20  1  0
  6 21  1  0
  6 22  1  0
  7 23  1  0
  9 24  1  0
 13 25  1  0
M  ISO  8  14  13  15  13  16  13  17  13  18  13  19  13  20  13  21  13
M  ISO  4  22  13  23  14  24  14  25   3
M  END
>  <minimizedAffinity>  (1) 
-4.67020226

>  <minimizedRMSD>  (1) 
0.309083104

$$$$
