
     RDKit          3D

 30 31  0  0  1  0  0  0  0  0999 V2000
   45.9360   34.0440   45.1090 C   0  0  2  0  0  0  0  0  0  0  0  0
   44.8500   35.0600   45.3640 C   0  0  0  0  0  0  0  0  0  0  0  0
   44.5500   35.9960   44.3050 C   0  0  0  0  0  0  0  0  0  0  0  0
   45.2770   35.9460   43.0490 C   0  0  0  0  0  0  0  0  0  0  0  0
   46.3840   34.9880   42.9620 C   0  0  0  0  0  0  0  0  0  0  0  0
   46.0210   33.7000   43.6560 C   0  0  0  0  0  0  0  0  0  0  0  0
   45.2740   33.0950   47.3080 C   0  0  0  0  0  0  0  0  0  0  0  0
   45.7450   32.8850   46.0130 C   0  0  0  0  0  0  0  0  0  0  0  0
   46.0360   31.5570   45.6000 C   0  0  0  0  0  0  0  0  0  0  0  0
   45.8440   30.5510   46.4860 N   0  0  0  0  0  0  0  0  0  0  0  0
   45.3850   30.7930   47.7390 C   0  0  0  0  0  0  0  0  0  0  0  0
   45.1040   32.0550   48.1400 N   0  0  0  0  0  0  0  0  0  0  0  0
   45.2010   29.6330   48.6530 C   0  0  0  0  0  0  0  0  0  0  0  0
   45.1000   28.4040   47.7660 C   0  0  0  0  0  0  0  0  0  0  0  0
   46.9230   34.4661   45.3491 H   0  0  0  0  0  0  0  0  0  0  0  0
   44.3070   35.0871   46.3203 H   0  0  0  0  0  0  0  0  0  0  0  0
   43.7648   36.7523   44.4513 H   0  0  0  0  0  0  0  0  0  0  0  0
   44.5561   35.6939   42.2573 H   0  0  0  0  0  0  0  0  0  0  0  0
   45.7455   36.9362   42.9487 H   0  0  0  0  0  0  0  0  0  0  0  0
   46.6014   34.7806   41.9038 H   0  0  0  0  0  0  0  0  0  0  0  0
   47.2688   35.4201   43.4524 H   0  0  0  0  0  0  0  0  0  0  0  0
   45.0530   33.3257   43.2916 H   0  0  0  0  0  0  0  0  0  0  0  0
   46.7610   32.9089   43.4648 H   0  0  0  0  0  0  0  0  0  0  0  0
   45.0412   34.1146   47.6489 H   0  0  0  0  0  0  0  0  0  0  0  0
   46.4081   31.3511   44.5855 H   0  0  0  0  0  0  0  0  0  0  0  0
   46.0615   29.5429   49.3323 H   0  0  0  0  0  0  0  0  0  0  0  0
   44.3016   29.7525   49.2750 H   0  0  0  0  0  0  0  0  0  0  0  0
   45.0260   27.5038   48.3938 H   0  0  0  0  0  0  0  0  0  0  0  0
   44.2053   28.4827   47.1309 H   0  0  0  0  0  0  0  0  0  0  0  0
   45.9955   28.3356   47.1309 H   0  0  0  0  0  0  0  0  0  0  0  0
  1  2  1  0
  1  8  1  0
  3  2  2  0
  4  3  1  0
  5  4  1  0
  5  6  1  0
  6  1  1  0
  7 12  2  0
  8  7  1  0
  9  8  2  0
  9 10  1  0
 10 11  2  0
 11 12  1  0
 11 13  1  0
 14 13  1  0
  1 15  1  1
  2 16  1  0
  3 17  1  0
  4 18  1  0
  4 19  1  0
  5 20  1  0
  5 21  1  0
  6 22  1  0
  6 23  1  0
  7 24  1  0
  9 25  1  0
 13 26  1  0
 13 27  1  0
 14 28  1  0
 14 29  1  0
 14 30  1  0
M  ISO  8  15  13  16  13  17  13  18  13  19  13  20  13  21  13  22  13
M  ISO  8  23  13  24  14  25  14  26   8  27   8  28   8  29   8  30   8
M  END
>  <minimizedAffinity>  (1) 
-4.4190197

>  <minimizedRMSD>  (1) 
0.271902531

$$$$
