
     RDKit          3D

 32 34  0  0  1  0  0  0  0  0999 V2000
   46.0220   32.2610   46.6470 C   0  0  0  0  0  0  0  0  0  0  0  0
   46.0190   32.4400   45.2650 C   0  0  0  0  0  0  0  0  0  0  0  0
   46.0120   31.2810   44.4430 C   0  0  0  0  0  0  0  0  0  0  0  0
   46.0100   30.0650   45.0380 N   0  0  0  0  0  0  0  0  0  0  0  0
   46.0130   29.9400   46.3880 C   0  0  0  0  0  0  0  0  0  0  0  0
   46.0200   31.0380   47.1800 N   0  0  0  0  0  0  0  0  0  0  0  0
   46.0280   33.8030   44.6930 C   0  0  2  0  0  0  0  0  0  0  0  0
   45.0420   34.6620   45.4620 C   0  0  0  0  0  0  0  0  0  0  0  0
   44.5480   35.8470   44.7890 C   0  0  0  0  0  0  0  0  0  0  0  0
   44.9950   36.1840   43.4310 C   0  0  0  0  0  0  0  0  0  0  0  0
   46.0590   35.3130   42.8520 C   0  0  0  0  0  0  0  0  0  0  0  0
   45.7260   33.8750   43.2260 C   0  0  0  0  0  0  0  0  0  0  0  0
   46.0110   28.6080   47.0180 C   0  0  0  0  0  0  0  0  0  0  0  0
   44.8510   28.1660   47.6200 C   0  0  0  0  0  0  0  0  0  0  0  0
   44.7890   26.9100   48.2340 C   0  0  0  0  0  0  0  0  0  0  0  0
   45.9000   26.1630   48.2080 N   0  0  0  0  0  0  0  0  0  0  0  0
   47.0270   26.6060   47.6170 C   0  0  0  0  0  0  0  0  0  0  0  0
   47.1100   27.8230   47.0140 N   0  0  0  0  0  0  0  0  0  0  0  0
   46.0261   33.1405   47.3077 H   0  0  0  0  0  0  0  0  0  0  0  0
   46.0083   31.3699   43.3466 H   0  0  0  0  0  0  0  0  0  0  0  0
   47.0589   34.1731   44.7946 H   0  0  0  0  0  0  0  0  0  0  0  0
   44.7180   34.3987   46.4797 H   0  0  0  0  0  0  0  0  0  0  0  0
   43.8289   36.5025   45.3020 H   0  0  0  0  0  0  0  0  0  0  0  0
   44.1197   36.1310   42.7669 H   0  0  0  0  0  0  0  0  0  0  0  0
   45.4445   37.1849   43.5092 H   0  0  0  0  0  0  0  0  0  0  0  0
   47.0392   35.5916   43.2662 H   0  0  0  0  0  0  0  0  0  0  0  0
   46.1030   35.4291   41.7590 H   0  0  0  0  0  0  0  0  0  0  0  0
   44.6651   33.6566   43.0339 H   0  0  0  0  0  0  0  0  0  0  0  0
   46.2983   33.1414   42.6392 H   0  0  0  0  0  0  0  0  0  0  0  0
   43.9603   28.8114   47.6173 H   0  0  0  0  0  0  0  0  0  0  0  0
   43.8678   26.5520   48.7169 H   0  0  0  0  0  0  0  0  0  0  0  0
   47.9157   25.9578   47.6222 H   0  0  0  0  0  0  0  0  0  0  0  0
  1  6  2  0
  2  1  1  0
  3  4  1  0
  3  2  2  0
  4  5  2  0
  5 13  1  0
  5  6  1  0
  7  2  1  0
  7  8  1  0
  9  8  2  0
 10  9  1  0
 11 12  1  0
 11 10  1  0
 12  7  1  0
 13 14  2  0
 14 15  1  0
 16 15  2  0
 17 16  1  0
 18 13  1  0
 18 17  2  0
  1 19  1  0
  3 20  1  0
  7 21  1  6
  8 22  1  0
  9 23  1  0
 10 24  1  0
 10 25  1  0
 11 26  1  0
 11 27  1  0
 12 28  1  0
 12 29  1  0
 14 30  1  0
 15 31  1  0
 17 32  1  0
M  ISO  8  19  14  20  14  21  13  22  13  23  13  24  13  25  13  26  13
M  ISO  6  27  13  28  13  29  13  30  14  31  14  32  14
M  END
>  <minimizedAffinity>  (1) 
-4.6351881

>  <minimizedRMSD>  (1) 
1.97117794

$$$$
