
     RDKit          3D

 44 48  0  0  1  0  0  0  0  0999 V2000
   46.0780   31.4350   46.0270 C   0  0  0  0  0  0  0  0  0  0  0  0
   46.6400   32.1300   44.9700 C   0  0  0  0  0  0  0  0  0  0  0  0
   47.5490   31.4540   44.0980 C   0  0  0  0  0  0  0  0  0  0  0  0
   47.8190   30.1500   44.3510 N   0  0  0  0  0  0  0  0  0  0  0  0
   47.2600   29.4970   45.3850 C   0  0  0  0  0  0  0  0  0  0  0  0
   46.3940   30.1360   46.2190 N   0  0  0  0  0  0  0  0  0  0  0  0
   47.5720   28.0570   45.6440 C   0  0  0  0  0  0  0  0  0  0  0  0
   48.4730   27.1200   44.9450 C   0  0  0  0  0  0  0  0  0  0  0  0
   48.1870   25.6790   46.0070 S   0  0  0  0  0  0  0  0  0  0  0  0
   47.0380   26.4640   47.0930 C   0  0  0  0  0  0  0  0  0  0  0  0
   46.8390   27.7910   46.7070 N   0  0  0  0  0  0  0  0  0  0  0  0
   46.4140   25.7250   48.2430 N   0  0  0  0  0  0  0  0  0  0  0  0
   45.1080   25.8200   48.4620 C   0  0  0  0  0  0  0  0  0  0  0  0
   44.7760   25.0930   49.5200 N   0  0  0  0  0  0  0  0  0  0  0  0
   45.9150   24.5280   49.9710 C   0  0  0  0  0  0  0  0  0  0  0  0
   46.2750   23.6770   51.0110 C   0  0  0  0  0  0  0  0  0  0  0  0
   45.3560   23.2910   51.7700 O   0  0  0  0  0  0  0  0  0  0  0  0
   47.5690   23.3020   51.1660 N   0  0  0  0  0  0  0  0  0  0  0  0
   48.5530   23.7370   50.3270 C   0  0  0  0  0  0  0  0  0  0  0  0
   49.8690   23.2700   50.5970 N   0  0  0  0  0  0  0  0  0  0  0  0
   48.2430   24.5710   49.2960 N   0  0  0  0  0  0  0  0  0  0  0  0
   46.9570   24.9330   49.1550 C   0  0  0  0  0  0  0  0  0  0  0  0
   46.3060   33.5540   44.7850 C   0  0  2  0  0  0  0  0  0  0  0  0
   45.3910   33.9860   45.9330 C   0  0  0  0  0  0  0  0  0  0  0  0
   44.6050   35.1710   45.7130 C   0  0  0  0  0  0  0  0  0  0  0  0
   44.6860   35.9080   44.4580 C   0  0  0  0  0  0  0  0  0  0  0  0
   45.6030   35.4010   43.4250 C   0  0  0  0  0  0  0  0  0  0  0  0
   45.7210   33.9100   43.4720 C   0  0  0  0  0  0  0  0  0  0  0  0
   45.3765   31.9389   46.7082 H   0  0  0  0  0  0  0  0  0  0  0  0
   48.0145   31.9755   43.2487 H   0  0  0  0  0  0  0  0  0  0  0  0
   49.1140   27.2535   44.0611 H   0  0  0  0  0  0  0  0  0  0  0  0
   44.4066   26.4129   47.8566 H   0  0  0  0  0  0  0  0  0  0  0  0
   47.8164   22.6697   51.9405 H   0  0  0  0  0  0  0  0  0  0  0  0
   50.6531   23.5646   49.9976 H   0  0  0  0  0  0  0  0  0  0  0  0
   50.0379   22.6372   51.3920 H   0  0  0  0  0  0  0  0  0  0  0  0
   47.2582   34.1046   44.7986 H   0  0  0  0  0  0  0  0  0  0  0  0
   45.3371   33.4212   46.8754 H   0  0  0  0  0  0  0  0  0  0  0  0
   43.9310   35.5271   46.5060 H   0  0  0  0  0  0  0  0  0  0  0  0
   43.6765   35.9252   44.0214 H   0  0  0  0  0  0  0  0  0  0  0  0
   45.0975   36.8890   44.7378 H   0  0  0  0  0  0  0  0  0  0  0  0
   46.5979   35.8424   43.5840 H   0  0  0  0  0  0  0  0  0  0  0  0
   45.1994   35.6818   42.4410 H   0  0  0  0  0  0  0  0  0  0  0  0
   44.7272   33.4505   43.3660 H   0  0  0  0  0  0  0  0  0  0  0  0
   46.3559   33.5443   42.6516 H   0  0  0  0  0  0  0  0  0  0  0  0
  1  6  2  0
  2  1  1  0
  3  4  1  0
  3  2  2  0
  4  5  2  0
  5  7  1  0
  5  6  1  0
  7 11  1  0
  8  7  2  0
  8  9  1  0
  9 10  1  0
 10 12  1  0
 11 10  2  0
 12 13  1  0
 12 22  1  0
 13 14  2  0
 14 15  1  0
 15 16  1  0
 16 18  1  0
 16 17  2  0
 19 20  1  0
 19 18  1  0
 21 19  2  0
 22 21  1  0
 22 15  2  0
 23  2  1  0
 23 24  1  0
 25 24  2  0
 26 25  1  0
 27 28  1  0
 27 26  1  0
 28 23  1  0
  1 29  1  0
  3 30  1  0
  8 31  1  0
 13 32  1  0
 18 33  1  0
 20 34  1  0
 20 35  1  0
 23 36  1  1
 24 37  1  0
 25 38  1  0
 26 39  1  0
 26 40  1  0
 27 41  1  0
 27 42  1  0
 28 43  1  0
 28 44  1  0
M  ISO  8  29  14  30  14  31  14  32  14  33   9  36  13  37  13  38  13
M  ISO  6  39  13  40  13  41  13  42  13  43  13  44  13
M  END
>  <minimizedAffinity>  (1) 
-5.92240191

>  <minimizedRMSD>  (1) 
3.66005206

$$$$
