
     RDKit          3D

 43 46  0  0  1  0  0  0  0  0999 V2000
   46.8670   32.0730   45.2920 C   0  0  0  0  0  0  0  0  0  0  0  0
   47.0720   32.2830   43.9400 C   0  0  0  0  0  0  0  0  0  0  0  0
   46.4910   31.3760   42.9980 C   0  0  0  0  0  0  0  0  0  0  0  0
   45.7620   30.3470   43.4860 N   0  0  0  0  0  0  0  0  0  0  0  0
   45.5750   30.1630   44.8090 C   0  0  0  0  0  0  0  0  0  0  0  0
   46.1250   31.0210   45.7090 N   0  0  0  0  0  0  0  0  0  0  0  0
   44.7590   29.0180   45.3180 C   0  0  0  0  0  0  0  0  0  0  0  0
   43.3780   28.6020   45.0240 C   0  0  0  0  0  0  0  0  0  0  0  0
   43.3280   27.1420   46.0990 S   0  0  0  0  0  0  0  0  0  0  0  0
   44.9840   27.3000   46.7080 C   0  0  0  0  0  0  0  0  0  0  0  0
   45.5930   28.4150   46.1370 N   0  0  0  0  0  0  0  0  0  0  0  0
   45.5110   26.3090   47.6850 N   0  0  0  0  0  0  0  0  0  0  0  0
   46.8160   26.2370   47.8970 C   0  0  0  0  0  0  0  0  0  0  0  0
   47.2040   25.2870   48.8200 C   0  0  0  0  0  0  0  0  0  0  0  0
   48.6680   25.1400   49.1180 C   0  0  0  0  0  0  0  0  0  0  0  0
   46.2680   24.4850   49.4620 C   0  0  0  0  0  0  0  0  0  0  0  0
   46.6170   23.6190   50.3030 O   0  0  0  0  0  0  0  0  0  0  0  0
   44.9340   24.6090   49.2000 N   0  0  0  0  0  0  0  0  0  0  0  0
   44.5750   25.5410   48.2950 C   0  0  0  0  0  0  0  0  0  0  0  0
   43.3350   25.6430   48.0630 O   0  0  0  0  0  0  0  0  0  0  0  0
   47.9040   33.4230   43.5150 C   0  0  2  0  0  0  0  0  0  0  0  0
   47.0120   34.4300   42.7870 C   0  0  0  0  0  0  0  0  0  0  0  0
   47.6710   35.3610   41.9080 C   0  0  0  0  0  0  0  0  0  0  0  0
   49.1170   35.3300   41.7290 C   0  0  0  0  0  0  0  0  0  0  0  0
   49.8750   34.3510   42.5230 C   0  0  0  0  0  0  0  0  0  0  0  0
   49.1010   33.0810   42.7150 C   0  0  0  0  0  0  0  0  0  0  0  0
   47.3073   32.7615   46.0283 H   0  0  0  0  0  0  0  0  0  0  0  0
   46.6324   31.5110   41.9155 H   0  0  0  0  0  0  0  0  0  0  0  0
   42.6164   29.0388   44.3613 H   0  0  0  0  0  0  0  0  0  0  0  0
   47.5365   26.8853   47.3768 H   0  0  0  0  0  0  0  0  0  0  0  0
   48.8207   25.1247   50.2072 H   0  0  0  0  0  0  0  0  0  0  0  0
   49.0383   24.2002   48.6826 H   0  0  0  0  0  0  0  0  0  0  0  0
   49.2177   25.9875   48.6826 H   0  0  0  0  0  0  0  0  0  0  0  0
   44.2347   24.0180   49.6718 H   0  0  0  0  0  0  0  0  0  0  0  0
   48.3300   33.8585   44.4309 H   0  0  0  0  0  0  0  0  0  0  0  0
   45.9211   34.4424   42.9279 H   0  0  0  0  0  0  0  0  0  0  0  0
   47.0738   36.1071   41.3633 H   0  0  0  0  0  0  0  0  0  0  0  0
   49.3139   35.1179   40.6678 H   0  0  0  0  0  0  0  0  0  0  0  0
   49.4661   36.3112   42.0831 H   0  0  0  0  0  0  0  0  0  0  0  0
   50.8162   34.1206   42.0024 H   0  0  0  0  0  0  0  0  0  0  0  0
   50.0717   34.7881   43.5131 H   0  0  0  0  0  0  0  0  0  0  0  0
   48.7996   32.6708   41.7399 H   0  0  0  0  0  0  0  0  0  0  0  0
   49.7115   32.3216   43.2254 H   0  0  0  0  0  0  0  0  0  0  0  0
  1  6  2  0
  2  1  1  0
  3  4  1  0
  3  2  2  0
  4  5  2  0
  5  7  1  0
  5  6  1  0
  7 11  1  0
  8  7  2  0
  8  9  1  0
  9 10  1  0
 10 12  1  0
 11 10  2  0
 12 13  1  0
 12 19  1  0
 13 14  2  0
 14 15  1  0
 14 16  1  0
 16 17  2  0
 18 16  1  0
 19 18  1  0
 20 19  2  0
 21  2  1  0
 22 21  1  0
 23 22  2  0
 24 23  1  0
 24 25  1  0
 25 26  1  0
 26 21  1  0
  1 27  1  0
  3 28  1  0
  8 29  1  0
 13 30  1  0
 15 31  1  0
 15 32  1  0
 15 33  1  0
 18 34  1  0
 21 35  1  1
 22 36  1  0
 23 37  1  0
 24 38  1  0
 24 39  1  0
 25 40  1  0
 25 41  1  0
 26 42  1  0
 26 43  1  0
M  ISO  8  27  14  28  14  29  14  30  14  31   8  32   8  33   8  34   9
M  ISO  8  35  13  36  13  37  13  38  13  39  13  40  13  41  13  42  13
M  ISO  1  43  13
M  END
>  <minimizedAffinity>  (1) 
-5.90572739

>  <minimizedRMSD>  (1) 
3.82450461

$$$$
