
     RDKit          3D

 37 40  0  0  1  0  0  0  0  0999 V2000
   46.5560   33.1000   44.9930 C   0  0  0  0  0  0  0  0  0  0  0  0
   47.3860   32.9110   43.9020 C   0  0  0  0  0  0  0  0  0  0  0  0
   47.7860   31.5760   43.5770 C   0  0  0  0  0  0  0  0  0  0  0  0
   47.3340   30.5620   44.3520 N   0  0  0  0  0  0  0  0  0  0  0  0
   46.5140   30.7980   45.4200 C   0  0  0  0  0  0  0  0  0  0  0  0
   46.1370   32.0430   45.7280 N   0  0  0  0  0  0  0  0  0  0  0  0
   47.8450   34.0790   43.1380 C   0  0  2  0  0  0  0  0  0  0  0  0
   47.0410   34.1510   41.8360 C   0  0  0  0  0  0  0  0  0  0  0  0
   47.6320   34.9050   40.7610 C   0  0  0  0  0  0  0  0  0  0  0  0
   48.9220   35.5570   40.9150 C   0  0  0  0  0  0  0  0  0  0  0  0
   49.5820   35.4540   42.2310 C   0  0  0  0  0  0  0  0  0  0  0  0
   49.3000   34.1310   42.8680 C   0  0  0  0  0  0  0  0  0  0  0  0
   46.0360   29.6480   46.2470 C   0  0  0  0  0  0  0  0  0  0  0  0
   46.6650   28.9500   47.3880 C   0  0  0  0  0  0  0  0  0  0  0  0
   45.3420   27.7220   47.6600 S   0  0  0  0  0  0  0  0  0  0  0  0
   44.2870   28.2760   46.3610 C   0  0  0  0  0  0  0  0  0  0  0  0
   44.8710   29.3550   45.7070 N   0  0  0  0  0  0  0  0  0  0  0  0
   42.9390   27.6830   45.9920 C   0  0  0  0  0  0  0  0  0  0  0  0
   42.4870   26.4160   46.2460 C   0  0  0  0  0  0  0  0  0  0  0  0
   41.2150   26.4200   45.6980 C   0  0  0  0  0  0  0  0  0  0  0  0
   40.9650   27.6780   45.1450 C   0  0  0  0  0  0  0  0  0  0  0  0
   42.0510   28.3890   45.3610 O   0  0  0  0  0  0  0  0  0  0  0  0
   46.2344   34.1162   45.2650 H   0  0  0  0  0  0  0  0  0  0  0  0
   48.4447   31.3785   42.7184 H   0  0  0  0  0  0  0  0  0  0  0  0
   47.6653   34.9603   43.7713 H   0  0  0  0  0  0  0  0  0  0  0  0
   46.0656   33.6539   41.7282 H   0  0  0  0  0  0  0  0  0  0  0  0
   47.0964   34.9893   39.8039 H   0  0  0  0  0  0  0  0  0  0  0  0
   49.6031   35.1212   40.1692 H   0  0  0  0  0  0  0  0  0  0  0  0
   48.7122   36.6294   40.7886 H   0  0  0  0  0  0  0  0  0  0  0  0
   50.6683   35.5656   42.0987 H   0  0  0  0  0  0  0  0  0  0  0  0
   49.1904   36.2484   42.8834 H   0  0  0  0  0  0  0  0  0  0  0  0
   49.5868   33.3158   42.1875 H   0  0  0  0  0  0  0  0  0  0  0  0
   49.8752   34.0138   43.7983 H   0  0  0  0  0  0  0  0  0  0  0  0
   47.6211   29.1166   47.9058 H   0  0  0  0  0  0  0  0  0  0  0  0
   43.0074   25.5946   46.7602 H   0  0  0  0  0  0  0  0  0  0  0  0
   40.5157   25.5709   45.6982 H   0  0  0  0  0  0  0  0  0  0  0  0
   40.0483   28.0069   44.6337 H   0  0  0  0  0  0  0  0  0  0  0  0
  1  6  2  0
  2  1  1  0
  3  2  2  0
  3  4  1  0
  4  5  2  0
  5  6  1  0
  5 13  1  0
  7  2  1  0
  8  7  1  0
  9 10  1  0
  9  8  2  0
 10 11  1  0
 11 12  1  0
 12  7  1  0
 13 14  2  0
 14 15  1  0
 16 15  1  0
 17 13  1  0
 17 16  2  0
 18 19  2  0
 18 16  1  0
 20 19  1  0
 21 22  1  0
 21 20  2  0
 22 18  1  0
  1 23  1  0
  3 24  1  0
  7 25  1  1
  8 26  1  0
  9 27  1  0
 10 28  1  0
 10 29  1  0
 11 30  1  0
 11 31  1  0
 12 32  1  0
 12 33  1  0
 14 34  1  0
 19 35  1  0
 20 36  1  0
 21 37  1  0
M  ISO  8  23  14  24  14  25  13  26  13  27  13  28  13  29  13  30  13
M  ISO  7  31  13  32  13  33  13  34  14  35  14  36  14  37  14
M  END
>  <minimizedAffinity>  (1) 
-5.22526979

>  <minimizedRMSD>  (1) 
2.66765499

$$$$
