
     RDKit          3D

 44 47  0  0  1  0  0  0  0  0999 V2000
   46.0910   32.2270   46.2900 C   0  0  0  0  0  0  0  0  0  0  0  0
   45.9180   32.4590   44.9380 C   0  0  0  0  0  0  0  0  0  0  0  0
   45.6780   31.3480   44.0670 C   0  0  0  0  0  0  0  0  0  0  0  0
   45.6310   30.1110   44.6170 N   0  0  0  0  0  0  0  0  0  0  0  0
   45.8030   29.9140   45.9360 C   0  0  0  0  0  0  0  0  0  0  0  0
   46.0320   30.9660   46.7730 N   0  0  0  0  0  0  0  0  0  0  0  0
   46.0080   33.8390   44.4290 C   0  0  2  0  0  0  0  0  0  0  0  0
   45.0230   34.7090   45.2090 C   0  0  0  0  0  0  0  0  0  0  0  0
   44.6110   35.9430   44.5870 C   0  0  0  0  0  0  0  0  0  0  0  0
   45.1190   36.3250   43.2740 C   0  0  0  0  0  0  0  0  0  0  0  0
   46.1030   35.4310   42.6390 C   0  0  0  0  0  0  0  0  0  0  0  0
   45.8130   33.9990   42.9730 C   0  0  0  0  0  0  0  0  0  0  0  0
   45.7380   28.5370   46.5160 C   0  0  0  0  0  0  0  0  0  0  0  0
   46.6090   27.8500   47.4830 C   0  0  0  0  0  0  0  0  0  0  0  0
   45.7020   26.2790   47.5630 S   0  0  0  0  0  0  0  0  0  0  0  0
   44.4420   26.7360   46.4150 C   0  0  0  0  0  0  0  0  0  0  0  0
   44.6570   28.0380   45.9560 N   0  0  0  0  0  0  0  0  0  0  0  0
   43.2880   25.7480   46.0330 C   0  0  2  0  0  0  0  0  0  0  0  0
   42.7710   26.0690   44.6950 C   0  0  0  0  0  0  0  0  0  0  0  0
   41.4530   26.7440   44.5860 C   0  0  0  0  0  0  0  0  0  0  0  0
   40.7340   26.9960   45.8830 C   0  0  0  0  0  0  0  0  0  0  0  0
   40.8740   25.7880   46.7700 C   0  0  0  0  0  0  0  0  0  0  0  0
   42.3130   25.6980   47.1540 C   0  0  0  0  0  0  0  0  0  0  0  0
   46.2767   33.0691   46.9729 H   0  0  0  0  0  0  0  0  0  0  0  0
   45.5364   31.4944   42.9860 H   0  0  0  0  0  0  0  0  0  0  0  0
   47.0476   34.1604   44.5898 H   0  0  0  0  0  0  0  0  0  0  0  0
   44.6463   34.4082   46.1977 H   0  0  0  0  0  0  0  0  0  0  0  0
   43.9045   36.6048   45.1094 H   0  0  0  0  0  0  0  0  0  0  0  0
   44.2561   36.4000   42.5959 H   0  0  0  0  0  0  0  0  0  0  0  0
   45.6645   37.2644   43.4470 H   0  0  0  0  0  0  0  0  0  0  0  0
   47.1099   35.6887   42.9992 H   0  0  0  0  0  0  0  0  0  0  0  0
   46.0430   35.5581   41.5480 H   0  0  0  0  0  0  0  0  0  0  0  0
   44.7757   33.7521   42.7028 H   0  0  0  0  0  0  0  0  0  0  0  0
   46.4803   33.3261   42.4145 H   0  0  0  0  0  0  0  0  0  0  0  0
   47.5229   28.1836   47.9963 H   0  0  0  0  0  0  0  0  0  0  0  0
   43.6330   24.7095   45.9213 H   0  0  0  0  0  0  0  0  0  0  0  0
   43.3481   25.8146   43.7938 H   0  0  0  0  0  0  0  0  0  0  0  0
   41.0283   27.0416   43.6159 H   0  0  0  0  0  0  0  0  0  0  0  0
   41.1730   27.8721   46.3827 H   0  0  0  0  0  0  0  0  0  0  0  0
   39.6691   27.1866   45.6839 H   0  0  0  0  0  0  0  0  0  0  0  0
   40.2492   25.9034   47.6679 H   0  0  0  0  0  0  0  0  0  0  0  0
   40.5474   24.8762   46.2486 H   0  0  0  0  0  0  0  0  0  0  0  0
   42.4608   24.7473   47.6872 H   0  0  0  0  0  0  0  0  0  0  0  0
   42.5148   26.5906   47.7644 H   0  0  0  0  0  0  0  0  0  0  0  0
  1  6  2  0
  2  1  1  0
  3  4  1  0
  3  2  2  0
  4  5  2  0
  5 13  1  0
  5  6  1  0
  7  2  1  0
  7  8  1  0
  9  8  2  0
 10  9  1  0
 11 12  1  0
 11 10  1  0
 12  7  1  0
 13 14  2  0
 14 15  1  0
 16 15  1  0
 17 16  2  0
 17 13  1  0
 18 16  1  0
 18 23  1  0
 19 18  1  0
 20 19  2  0
 20 21  1  0
 21 22  1  0
 22 23  1  0
  1 24  1  0
  3 25  1  0
  7 26  1  6
  8 27  1  0
  9 28  1  0
 10 29  1  0
 10 30  1  0
 11 31  1  0
 11 32  1  0
 12 33  1  0
 12 34  1  0
 14 35  1  0
 18 36  1  6
 19 37  1  0
 20 38  1  0
 21 39  1  0
 21 40  1  0
 22 41  1  0
 22 42  1  0
 23 43  1  0
 23 44  1  0
M  ISO  8  24  14  25  14  26  13  27  13  28  13  29  13  30  13  31  13
M  ISO  8  32  13  33  13  34  13  35  14  36  13  37  13  38  13  39  13
M  ISO  5  40  13  41  13  42  13  43  13  44  13
M  END
>  <minimizedAffinity>  (1) 
-5.40360117

>  <minimizedRMSD>  (1) 
0.87632817

$$$$
