
     RDKit          3D

 43 46  0  0  1  0  0  0  0  0999 V2000
   45.9880   32.2330   46.2640 C   0  0  0  0  0  0  0  0  0  0  0  0
   45.8330   32.4940   44.9130 C   0  0  0  0  0  0  0  0  0  0  0  0
   45.5430   31.3960   44.0340 C   0  0  0  0  0  0  0  0  0  0  0  0
   45.4370   30.1600   44.5840 N   0  0  0  0  0  0  0  0  0  0  0  0
   45.5940   29.9410   45.9040 C   0  0  0  0  0  0  0  0  0  0  0  0
   45.8650   30.9670   46.7210 N   0  0  0  0  0  0  0  0  0  0  0  0
   45.9760   33.8690   44.3970 C   0  0  2  0  0  0  0  0  0  0  0  0
   45.0080   34.7630   45.1630 C   0  0  0  0  0  0  0  0  0  0  0  0
   44.6440   36.0060   44.5480 C   0  0  0  0  0  0  0  0  0  0  0  0
   45.1940   36.3870   43.2450 C   0  0  0  0  0  0  0  0  0  0  0  0
   46.1600   35.4580   42.6120 C   0  0  0  0  0  0  0  0  0  0  0  0
   45.8290   34.0300   42.9310 C   0  0  0  0  0  0  0  0  0  0  0  0
   45.4560   28.5720   46.4750 C   0  0  0  0  0  0  0  0  0  0  0  0
   46.3150   27.8450   47.4530 C   0  0  0  0  0  0  0  0  0  0  0  0
   45.3470   26.3140   47.5130 S   0  0  0  0  0  0  0  0  0  0  0  0
   44.0990   26.8230   46.3590 C   0  0  0  0  0  0  0  0  0  0  0  0
   44.3610   28.1120   45.9100 N   0  0  0  0  0  0  0  0  0  0  0  0
   43.0400   25.8540   46.0470 N   0  0  0  0  0  0  0  0  0  0  0  0
   42.7490   25.1080   44.8650 C   0  0  0  0  0  0  0  0  0  0  0  0
   41.2860   25.4130   44.4820 C   0  0  0  0  0  0  0  0  0  0  0  0
   40.4530   25.1620   45.5430 O   0  0  0  0  0  0  0  0  0  0  0  0
   40.7390   26.0390   46.5890 C   0  0  0  0  0  0  0  0  0  0  0  0
   42.1080   25.5880   47.1220 C   0  0  0  0  0  0  0  0  0  0  0  0
   46.2104   33.0530   46.9627 H   0  0  0  0  0  0  0  0  0  0  0  0
   45.4114   31.5514   42.9530 H   0  0  0  0  0  0  0  0  0  0  0  0
   47.0209   34.1665   44.5690 H   0  0  0  0  0  0  0  0  0  0  0  0
   44.6066   34.4678   46.1437 H   0  0  0  0  0  0  0  0  0  0  0  0
   43.9434   36.6815   45.0608 H   0  0  0  0  0  0  0  0  0  0  0  0
   44.3479   36.5052   42.5520 H   0  0  0  0  0  0  0  0  0  0  0  0
   45.7724   37.3018   43.4415 H   0  0  0  0  0  0  0  0  0  0  0  0
   47.1706   35.6835   42.9833 H   0  0  0  0  0  0  0  0  0  0  0  0
   46.1083   35.5920   41.5214 H   0  0  0  0  0  0  0  0  0  0  0  0
   44.7959   33.8047   42.6278 H   0  0  0  0  0  0  0  0  0  0  0  0
   46.4964   33.3420   42.3913 H   0  0  0  0  0  0  0  0  0  0  0  0
   47.2387   28.1421   47.9712 H   0  0  0  0  0  0  0  0  0  0  0  0
   43.4232   25.4132   44.0511 H   0  0  0  0  0  0  0  0  0  0  0  0
   42.8911   24.0310   45.0380 H   0  0  0  0  0  0  0  0  0  0  0  0
   41.1992   26.4714   44.1952 H   0  0  0  0  0  0  0  0  0  0  0  0
   40.9954   24.7687   43.6391 H   0  0  0  0  0  0  0  0  0  0  0  0
   40.7888   27.0749   46.2225 H   0  0  0  0  0  0  0  0  0  0  0  0
   39.9641   26.0184   47.3695 H   0  0  0  0  0  0  0  0  0  0  0  0
   42.0936   24.5149   47.3633 H   0  0  0  0  0  0  0  0  0  0  0  0
   42.3842   26.1171   48.0460 H   0  0  0  0  0  0  0  0  0  0  0  0
  1  6  2  0
  2  1  1  0
  3  4  1  0
  3  2  2  0
  4  5  2  0
  5 13  1  0
  5  6  1  0
  7  2  1  0
  7  8  1  0
  9  8  2  0
 10  9  1  0
 11 12  1  0
 11 10  1  0
 12  7  1  0
 13 14  2  0
 14 15  1  0
 16 15  1  0
 17 16  2  0
 17 13  1  0
 18 16  1  0
 18 23  1  0
 19 18  1  0
 20 19  1  0
 20 21  1  0
 21 22  1  0
 22 23  1  0
  1 24  1  0
  3 25  1  0
  7 26  1  1
  8 27  1  0
  9 28  1  0
 10 29  1  0
 10 30  1  0
 11 31  1  0
 11 32  1  0
 12 33  1  0
 12 34  1  0
 14 35  1  0
 19 36  1  0
 19 37  1  0
 20 38  1  0
 20 39  1  0
 22 40  1  0
 22 41  1  0
 23 42  1  0
 23 43  1  0
M  ISO  8  24  14  25  14  26  13  27  13  28  13  29  13  30  13  31  13
M  ISO  8  32  13  33  13  34  13  35  14  36  13  37  13  38  13  39  13
M  ISO  4  40  13  41  13  42  13  43  13
M  END
>  <minimizedAffinity>  (1) 
-5.18410492

>  <minimizedRMSD>  (1) 
1.25957429

$$$$
