
     RDKit          3D

 41 44  0  0  1  0  0  0  0  0999 V2000
   45.8710   32.2090   46.3200 C   0  0  0  0  0  0  0  0  0  0  0  0
   45.7620   32.4410   44.9610 C   0  0  0  0  0  0  0  0  0  0  0  0
   45.4700   31.3400   44.0940 C   0  0  0  0  0  0  0  0  0  0  0  0
   45.3150   30.1160   44.6500 N   0  0  0  0  0  0  0  0  0  0  0  0
   45.4310   29.9280   46.0010 C   0  0  0  0  0  0  0  0  0  0  0  0
   45.7040   30.9600   46.8080 N   0  0  0  0  0  0  0  0  0  0  0  0
   45.2440   28.5590   46.5750 C   0  0  0  0  0  0  0  0  0  0  0  0
   46.0830   27.7860   47.5100 C   0  0  0  0  0  0  0  0  0  0  0  0
   45.0540   26.2840   47.5510 S   0  0  0  0  0  0  0  0  0  0  0  0
   43.8120   26.8610   46.4430 C   0  0  0  0  0  0  0  0  0  0  0  0
   44.1230   28.1570   46.0220 N   0  0  0  0  0  0  0  0  0  0  0  0
   42.7050   25.9580   46.1430 N   0  0  0  0  0  0  0  0  0  0  0  0
   41.4200   26.1470   46.4910 C   0  0  0  0  0  0  0  0  0  0  0  0
   40.4990   25.1890   46.1270 C   0  0  0  0  0  0  0  0  0  0  0  0
   40.9290   24.0800   45.4220 C   0  0  0  0  0  0  0  0  0  0  0  0
   39.9860   23.0810   45.0380 N   0  0  0  0  0  0  0  0  0  0  0  0
   42.2470   23.9450   45.0980 N   0  0  0  0  0  0  0  0  0  0  0  0
   43.1400   24.9020   45.4670 C   0  0  0  0  0  0  0  0  0  0  0  0
   44.3050   24.6510   45.1070 O   0  0  0  0  0  0  0  0  0  0  0  0
   45.9640   33.8080   44.4520 C   0  0  2  0  0  0  0  0  0  0  0  0
   44.9840   34.7430   45.1650 C   0  0  0  0  0  0  0  0  0  0  0  0
   44.6900   35.9920   44.5160 C   0  0  0  0  0  0  0  0  0  0  0  0
   45.2990   36.3390   43.2440 C   0  0  0  0  0  0  0  0  0  0  0  0
   46.2280   35.3690   42.6430 C   0  0  0  0  0  0  0  0  0  0  0  0
   45.8640   33.9620   42.9820 C   0  0  0  0  0  0  0  0  0  0  0  0
   46.0937   33.0413   47.0038 H   0  0  0  0  0  0  0  0  0  0  0  0
   45.3744   31.4846   43.0077 H   0  0  0  0  0  0  0  0  0  0  0  0
   47.0259   28.0361   48.0184 H   0  0  0  0  0  0  0  0  0  0  0  0
   41.1123   27.0423   47.0512 H   0  0  0  0  0  0  0  0  0  0  0  0
   39.4380   25.3047   46.3932 H   0  0  0  0  0  0  0  0  0  0  0  0
   40.2990   22.2522   44.5127 H   0  0  0  0  0  0  0  0  0  0  0  0
   38.9921   23.1885   45.2860 H   0  0  0  0  0  0  0  0  0  0  0  0
   47.0082   34.0719   44.6755 H   0  0  0  0  0  0  0  0  0  0  0  0
   44.5264   34.4723   46.1280 H   0  0  0  0  0  0  0  0  0  0  0  0
   43.9918   36.6968   44.9911 H   0  0  0  0  0  0  0  0  0  0  0  0
   44.4841   36.5032   42.5236 H   0  0  0  0  0  0  0  0  0  0  0  0
   45.9206   37.2193   43.4644 H   0  0  0  0  0  0  0  0  0  0  0  0
   47.2432   35.5725   43.0144 H   0  0  0  0  0  0  0  0  0  0  0  0
   46.1745   35.4798   41.5499 H   0  0  0  0  0  0  0  0  0  0  0  0
   44.8354   33.7524   42.6533 H   0  0  0  0  0  0  0  0  0  0  0  0
   46.5411   33.2582   42.4758 H   0  0  0  0  0  0  0  0  0  0  0  0
  1  6  2  0
  2  1  1  0
  3  4  1  0
  3  2  2  0
  4  5  2  0
  5  7  1  0
  5  6  1  0
  7  8  2  0
  8  9  1  0
 10  9  1  0
 11 10  2  0
 11  7  1  0
 12 10  1  0
 12 13  1  0
 14 13  2  0
 15 14  1  0
 16 15  1  0
 17 15  2  0
 17 18  1  0
 18 12  1  0
 19 18  2  0
 20  2  1  0
 20 21  1  0
 22 21  2  0
 23 22  1  0
 24 25  1  0
 24 23  1  0
 25 20  1  0
  1 26  1  0
  3 27  1  0
  8 28  1  0
 13 29  1  0
 14 30  1  0
 16 31  1  0
 16 32  1  0
 20 33  1  1
 21 34  1  0
 22 35  1  0
 23 36  1  0
 23 37  1  0
 24 38  1  0
 24 39  1  0
 25 40  1  0
 25 41  1  0
M  ISO  8  26  14  27  14  28  14  29  14  30  14  33  13  34  13  35  13
M  ISO  6  36  13  37  13  38  13  39  13  40  13  41  13
M  END
>  <minimizedAffinity>  (1) 
-5.37688398

>  <minimizedRMSD>  (1) 
1.2419405

$$$$
