
     RDKit          3D

 43 46  0  0  1  0  0  0  0  0999 V2000
   46.9550   32.2200   46.5980 C   0  0  0  0  0  0  0  0  0  0  0  0
   46.5250   32.3870   45.2940 C   0  0  0  0  0  0  0  0  0  0  0  0
   46.3220   31.2230   44.4860 C   0  0  0  0  0  0  0  0  0  0  0  0
   46.5600   30.0090   45.0380 N   0  0  0  0  0  0  0  0  0  0  0  0
   46.9840   29.8900   46.3330 C   0  0  0  0  0  0  0  0  0  0  0  0
   47.1730   30.9810   47.0860 N   0  0  0  0  0  0  0  0  0  0  0  0
   46.3130   33.7470   44.7770 C   0  0  2  0  0  0  0  0  0  0  0  0
   45.2200   34.4170   45.6160 C   0  0  0  0  0  0  0  0  0  0  0  0
   44.5300   35.5290   45.0200 C   0  0  0  0  0  0  0  0  0  0  0  0
   44.8650   35.9910   43.6740 C   0  0  0  0  0  0  0  0  0  0  0  0
   45.9610   35.2950   42.9790 C   0  0  0  0  0  0  0  0  0  0  0  0
   46.0010   33.8470   43.3330 C   0  0  0  0  0  0  0  0  0  0  0  0
   47.2320   28.5350   46.9100 C   0  0  0  0  0  0  0  0  0  0  0  0
   48.5000   27.8300   47.2010 C   0  0  0  0  0  0  0  0  0  0  0  0
   47.7580   26.2880   47.8280 S   0  0  0  0  0  0  0  0  0  0  0  0
   46.0790   26.7770   47.6300 C   0  0  0  0  0  0  0  0  0  0  0  0
   46.0170   28.0710   47.1000 N   0  0  0  0  0  0  0  0  0  0  0  0
   44.9220   25.8150   48.0240 C   0  0  0  0  0  0  0  0  0  0  0  0
   44.1000   26.5150   49.0330 C   0  0  0  0  0  0  0  0  0  0  0  0
   44.2480   25.7750   50.3560 C   0  0  0  0  0  0  0  0  0  0  0  0
   45.4870   24.9370   50.2100 C   0  0  0  0  0  0  0  0  0  0  0  0
   45.5370   24.6210   48.7310 C   0  0  0  0  0  0  0  0  0  0  0  0
   47.1196   33.0990   47.2385 H   0  0  0  0  0  0  0  0  0  0  0  0
   45.9815   31.3120   43.4438 H   0  0  0  0  0  0  0  0  0  0  0  0
   47.2779   34.2668   44.8710 H   0  0  0  0  0  0  0  0  0  0  0  0
   44.9743   34.0635   46.6282 H   0  0  0  0  0  0  0  0  0  0  0  0
   43.7373   36.0403   45.5860 H   0  0  0  0  0  0  0  0  0  0  0  0
   43.9619   35.8888   43.0543 H   0  0  0  0  0  0  0  0  0  0  0  0
   45.2229   37.0225   43.8081 H   0  0  0  0  0  0  0  0  0  0  0  0
   46.9167   35.7591   43.2642 H   0  0  0  0  0  0  0  0  0  0  0  0
   45.7917   35.3806   41.8955 H   0  0  0  0  0  0  0  0  0  0  0  0
   45.0248   33.3836   43.1273 H   0  0  0  0  0  0  0  0  0  0  0  0
   46.7632   33.3246   42.7362 H   0  0  0  0  0  0  0  0  0  0  0  0
   49.5492   28.1368   47.0787 H   0  0  0  0  0  0  0  0  0  0  0  0
   44.3379   25.5140   47.1418 H   0  0  0  0  0  0  0  0  0  0  0  0
   44.4488   27.5523   49.1444 H   0  0  0  0  0  0  0  0  0  0  0  0
   43.0453   26.5330   48.7210 H   0  0  0  0  0  0  0  0  0  0  0  0
   44.3620   26.4887   51.1852 H   0  0  0  0  0  0  0  0  0  0  0  0
   43.3638   25.1608   50.5816 H   0  0  0  0  0  0  0  0  0  0  0  0
   46.3796   25.4998   50.5208 H   0  0  0  0  0  0  0  0  0  0  0  0
   45.4659   24.0337   50.8374 H   0  0  0  0  0  0  0  0  0  0  0  0
   44.9588   23.7104   48.5155 H   0  0  0  0  0  0  0  0  0  0  0  0
   46.5684   24.4416   48.3932 H   0  0  0  0  0  0  0  0  0  0  0  0
  1  6  2  0
  2  1  1  0
  3  4  1  0
  3  2  2  0
  4  5  2  0
  5 13  1  0
  5  6  1  0
  7  2  1  0
  7  8  1  0
  9  8  2  0
 10  9  1  0
 11 12  1  0
 11 10  1  0
 12  7  1  0
 13 17  1  0
 13 14  2  0
 14 15  1  0
 16 15  1  0
 16 18  1  0
 17 16  2  0
 18 22  1  0
 18 19  1  0
 19 20  1  0
 21 20  1  0
 22 21  1  0
  1 23  1  0
  3 24  1  0
  7 25  1  6
  8 26  1  0
  9 27  1  0
 10 28  1  0
 10 29  1  0
 11 30  1  0
 11 31  1  0
 12 32  1  0
 12 33  1  0
 14 34  1  0
 18 35  1  0
 19 36  1  0
 19 37  1  0
 20 38  1  0
 20 39  1  0
 21 40  1  0
 21 41  1  0
 22 42  1  0
 22 43  1  0
M  ISO  8  23  14  24  14  25  13  26  13  27  13  28  13  29  13  30  13
M  ISO  8  31  13  32  13  33  13  34  14  35  13  36  13  37  13  38  13
M  ISO  5  39  13  40  13  41  13  42  13  43  13
M  END
>  <minimizedAffinity>  (1) 
-5.18830204

>  <minimizedRMSD>  (1) 
1.37031317

$$$$
