
     RDKit          3D

 38 41  0  0  1  0  0  0  0  0999 V2000
   46.3480   33.5110   44.7310 C   0  0  0  0  0  0  0  0  0  0  0  0
   47.2630   33.2290   43.7320 C   0  0  0  0  0  0  0  0  0  0  0  0
   47.7800   31.8990   43.6260 C   0  0  0  0  0  0  0  0  0  0  0  0
   47.3480   30.9730   44.5130 N   0  0  0  0  0  0  0  0  0  0  0  0
   46.4400   31.2930   45.4870 C   0  0  0  0  0  0  0  0  0  0  0  0
   45.9570   32.5370   45.5840 N   0  0  0  0  0  0  0  0  0  0  0  0
   47.6850   34.3100   42.8270 C   0  0  2  0  0  0  0  0  0  0  0  0
   47.1220   34.0310   41.4350 C   0  0  0  0  0  0  0  0  0  0  0  0
   47.7760   34.6810   40.3300 C   0  0  0  0  0  0  0  0  0  0  0  0
   48.9170   35.5560   40.5430 C   0  0  0  0  0  0  0  0  0  0  0  0
   49.3400   35.7970   41.9340 C   0  0  0  0  0  0  0  0  0  0  0  0
   49.1400   34.5810   42.7840 C   0  0  0  0  0  0  0  0  0  0  0  0
   45.9770   30.2380   46.4420 C   0  0  0  0  0  0  0  0  0  0  0  0
   46.4840   29.8490   47.7650 C   0  0  0  0  0  0  0  0  0  0  0  0
   45.3320   28.4890   48.0840 S   0  0  0  0  0  0  0  0  0  0  0  0
   44.4480   28.6370   46.5710 C   0  0  0  0  0  0  0  0  0  0  0  0
   44.9770   29.6770   45.8060 N   0  0  0  0  0  0  0  0  0  0  0  0
   43.2420   27.7690   46.0840 C   0  0  0  0  0  0  0  0  0  0  0  0
   43.0780   26.4490   46.4360 C   0  0  0  0  0  0  0  0  0  0  0  0
   41.9550   25.8570   45.9070 C   0  0  0  0  0  0  0  0  0  0  0  0
   41.0920   26.5170   45.1160 N   0  0  0  0  0  0  0  0  0  0  0  0
   41.2780   27.8090   44.7900 C   0  0  0  0  0  0  0  0  0  0  0  0
   42.3890   28.4190   45.3020 N   0  0  0  0  0  0  0  0  0  0  0  0
   45.9387   34.5271   44.8314 H   0  0  0  0  0  0  0  0  0  0  0  0
   48.5087   31.6365   42.8449 H   0  0  0  0  0  0  0  0  0  0  0  0
   47.2699   35.2412   43.2399 H   0  0  0  0  0  0  0  0  0  0  0  0
   46.2589   33.3658   41.2844 H   0  0  0  0  0  0  0  0  0  0  0  0
   47.4064   34.5129   39.3077 H   0  0  0  0  0  0  0  0  0  0  0  0
   49.7730   35.1167   40.0098 H   0  0  0  0  0  0  0  0  0  0  0  0
   48.5880   36.5394   40.1760 H   0  0  0  0  0  0  0  0  0  0  0  0
   50.4061   36.0680   41.9421 H   0  0  0  0  0  0  0  0  0  0  0  0
   48.7270   36.6122   42.3460 H   0  0  0  0  0  0  0  0  0  0  0  0
   49.6701   33.7231   42.3448 H   0  0  0  0  0  0  0  0  0  0  0  0
   49.5365   34.7438   43.7971 H   0  0  0  0  0  0  0  0  0  0  0  0
   47.3061   30.2564   48.3718 H   0  0  0  0  0  0  0  0  0  0  0  0
   43.7853   25.9126   47.0856 H   0  0  0  0  0  0  0  0  0  0  0  0
   41.7551   24.8009   46.1407 H   0  0  0  0  0  0  0  0  0  0  0  0
   40.5705   28.3482   44.1430 H   0  0  0  0  0  0  0  0  0  0  0  0
  1  6  2  0
  2  1  1  0
  3  2  2  0
  3  4  1  0
  4  5  2  0
  5  6  1  0
  5 13  1  0
  7  2  1  0
  8  7  1  0
  9 10  1  0
  9  8  2  0
 10 11  1  0
 11 12  1  0
 12  7  1  0
 13 14  2  0
 14 15  1  0
 16 15  1  0
 17 13  1  0
 17 16  2  0
 18 19  2  0
 18 16  1  0
 20 19  1  0
 21 20  2  0
 22 21  1  0
 22 23  2  0
 23 18  1  0
  1 24  1  0
  3 25  1  0
  7 26  1  1
  8 27  1  0
  9 28  1  0
 10 29  1  0
 10 30  1  0
 11 31  1  0
 11 32  1  0
 12 33  1  0
 12 34  1  0
 14 35  1  0
 19 36  1  0
 20 37  1  0
 22 38  1  0
M  ISO  8  24  14  25  14  26  13  27  13  28  13  29  13  30  13  31  13
M  ISO  7  32  13  33  13  34  13  35  14  36  14  37  14  38  14
M  END
>  <minimizedAffinity>  (1) 
-5.29276609

>  <minimizedRMSD>  (1) 
2.91537738

$$$$
