
     RDKit          3D

 33 35  0  0  1  0  0  0  0  0999 V2000
   46.8130   32.1690   46.4710 C   0  0  0  0  0  0  0  0  0  0  0  0
   46.2450   32.3850   45.2280 C   0  0  0  0  0  0  0  0  0  0  0  0
   45.7630   31.2550   44.4930 C   0  0  0  0  0  0  0  0  0  0  0  0
   45.8860   30.0250   45.0490 N   0  0  0  0  0  0  0  0  0  0  0  0
   46.4550   29.8610   46.2820 C   0  0  0  0  0  0  0  0  0  0  0  0
   46.9060   30.9160   46.9690 N   0  0  0  0  0  0  0  0  0  0  0  0
   46.1730   33.7590   44.6960 C   0  0  2  0  0  0  0  0  0  0  0  0
   45.1070   34.5220   45.4870 C   0  0  0  0  0  0  0  0  0  0  0  0
   44.5550   35.6820   44.8450 C   0  0  0  0  0  0  0  0  0  0  0  0
   44.9840   36.1050   43.5240 C   0  0  0  0  0  0  0  0  0  0  0  0
   46.0440   35.3000   42.8650 C   0  0  0  0  0  0  0  0  0  0  0  0
   45.9210   33.8610   43.2400 C   0  0  0  0  0  0  0  0  0  0  0  0
   46.5610   28.4900   46.8630 C   0  0  0  0  0  0  0  0  0  0  0  0
   47.6350   27.4790   46.7660 C   0  0  0  0  0  0  0  0  0  0  0  0
   46.8160   26.1810   47.7550 S   0  0  0  0  0  0  0  0  0  0  0  0
   45.3500   27.0860   48.1010 C   0  0  0  0  0  0  0  0  0  0  0  0
   45.4200   28.3480   47.5060 N   0  0  0  0  0  0  0  0  0  0  0  0
   44.2070   26.5120   48.9370 C   0  0  0  0  0  0  0  0  0  0  0  0
   43.4210   25.8340   48.2860 O   0  0  0  0  0  0  0  0  0  0  0  0
   44.2230   26.8290   50.2610 O   0  0  0  0  0  0  0  0  0  0  0  0
   47.1904   33.0205   47.0563 H   0  0  0  0  0  0  0  0  0  0  0  0
   45.3041   31.3818   43.5014 H   0  0  0  0  0  0  0  0  0  0  0  0
   47.1709   34.2035   44.8251 H   0  0  0  0  0  0  0  0  0  0  0  0
   44.7831   34.2007   46.4879 H   0  0  0  0  0  0  0  0  0  0  0  0
   43.7849   36.2669   45.3692 H   0  0  0  0  0  0  0  0  0  0  0  0
   44.1008   36.0895   42.8684 H   0  0  0  0  0  0  0  0  0  0  0  0
   45.4343   37.0970   43.6760 H   0  0  0  0  0  0  0  0  0  0  0  0
   47.0296   35.6727   43.1806 H   0  0  0  0  0  0  0  0  0  0  0  0
   45.9330   35.3928   41.7745 H   0  0  0  0  0  0  0  0  0  0  0  0
   44.9094   33.4971   43.0072 H   0  0  0  0  0  0  0  0  0  0  0  0
   46.6425   33.2503   42.6775 H   0  0  0  0  0  0  0  0  0  0  0  0
   48.6120   27.5014   46.2611 H   0  0  0  0  0  0  0  0  0  0  0  0
   43.5114   26.4898   50.8598 H   0  0  0  0  0  0  0  0  0  0  0  0
  1  6  2  0
  2  1  1  0
  3  4  1  0
  3  2  2  0
  4  5  2  0
  5 13  1  0
  5  6  1  0
  7  2  1  0
  7  8  1  0
  9  8  2  0
 10  9  1  0
 11 12  1  0
 11 10  1  0
 12  7  1  0
 13 17  1  0
 14 13  2  0
 14 15  1  0
 15 16  1  0
 16 18  1  0
 17 16  2  0
 18 20  1  0
 19 18  2  0
  1 21  1  0
  3 22  1  0
  7 23  1  6
  8 24  1  0
  9 25  1  0
 10 26  1  0
 10 27  1  0
 11 28  1  0
 11 29  1  0
 12 30  1  0
 12 31  1  0
 14 32  1  0
 20 33  1  0
M  ISO  8  21  14  22  14  23  13  24  13  25  13  26  13  27  13  28  13
M  ISO  5  29  13  30  13  31  13  32  14  33   3
M  END
>  <minimizedAffinity>  (1) 
-5.02675009

>  <minimizedRMSD>  (1) 
1.14597881

$$$$
