
     RDKit          3D

 42 44  0  0  1  0  0  0  0  0999 V2000
   46.9570   32.2590   46.4770 C   0  0  0  0  0  0  0  0  0  0  0  0
   46.3470   32.4440   45.2440 C   0  0  0  0  0  0  0  0  0  0  0  0
   45.8740   31.2990   44.5240 C   0  0  0  0  0  0  0  0  0  0  0  0
   46.0480   30.0830   45.0880 N   0  0  0  0  0  0  0  0  0  0  0  0
   46.6420   29.9280   46.2870 C   0  0  0  0  0  0  0  0  0  0  0  0
   47.0950   31.0110   46.9770 N   0  0  0  0  0  0  0  0  0  0  0  0
   46.2280   33.8190   44.7120 C   0  0  2  0  0  0  0  0  0  0  0  0
   45.1270   34.5430   45.4890 C   0  0  0  0  0  0  0  0  0  0  0  0
   44.5060   35.6760   44.8530 C   0  0  0  0  0  0  0  0  0  0  0  0
   44.9190   36.1000   43.5240 C   0  0  0  0  0  0  0  0  0  0  0  0
   46.0180   35.3560   42.8880 C   0  0  0  0  0  0  0  0  0  0  0  0
   45.9910   33.9070   43.2540 C   0  0  0  0  0  0  0  0  0  0  0  0
   46.8130   28.5710   46.8920 C   0  0  0  0  0  0  0  0  0  0  0  0
   48.0180   27.8100   47.2450 C   0  0  0  0  0  0  0  0  0  0  0  0
   47.1950   26.3420   47.9200 S   0  0  0  0  0  0  0  0  0  0  0  0
   45.5400   26.9110   47.6500 C   0  0  0  0  0  0  0  0  0  0  0  0
   45.5720   28.1740   47.0690 N   0  0  0  0  0  0  0  0  0  0  0  0
   44.3520   26.0170   48.0560 C   0  0  0  0  0  0  0  0  0  0  0  0
   43.2090   26.2280   47.1100 C   0  0  0  0  0  0  0  0  0  0  0  0
   44.8790   24.5950   47.8590 C   0  0  0  0  0  0  0  0  0  0  0  0
   44.0260   26.2220   49.4940 C   0  0  0  0  0  0  0  0  0  0  0  0
   47.3268   33.1252   47.0453 H   0  0  0  0  0  0  0  0  0  0  0  0
   45.3853   31.4061   43.5444 H   0  0  0  0  0  0  0  0  0  0  0  0
   47.2048   34.3039   44.8558 H   0  0  0  0  0  0  0  0  0  0  0  0
   44.8221   34.2117   46.4926 H   0  0  0  0  0  0  0  0  0  0  0  0
   43.7111   36.2266   45.3775 H   0  0  0  0  0  0  0  0  0  0  0  0
   44.0419   36.0210   42.8648 H   0  0  0  0  0  0  0  0  0  0  0  0
   45.3111   37.1184   43.6622 H   0  0  0  0  0  0  0  0  0  0  0  0
   46.9758   35.7879   43.2136 H   0  0  0  0  0  0  0  0  0  0  0  0
   45.8993   35.4358   41.7973 H   0  0  0  0  0  0  0  0  0  0  0  0
   45.0112   33.4736   43.0047 H   0  0  0  0  0  0  0  0  0  0  0  0
   46.7603   33.3499   42.6992 H   0  0  0  0  0  0  0  0  0  0  0  0
   49.0849   28.0538   47.1346 H   0  0  0  0  0  0  0  0  0  0  0  0
   42.2856   26.3985   47.6829 H   0  0  0  0  0  0  0  0  0  0  0  0
   43.4143   27.1034   46.4764 H   0  0  0  0  0  0  0  0  0  0  0  0
   43.0882   25.3370   46.4764 H   0  0  0  0  0  0  0  0  0  0  0  0
   45.0518   24.1288   48.8402 H   0  0  0  0  0  0  0  0  0  0  0  0
   44.1400   24.0046   47.2975 H   0  0  0  0  0  0  0  0  0  0  0  0
   45.8243   24.6288   47.2975 H   0  0  0  0  0  0  0  0  0  0  0  0
   44.7938   25.7392   50.1165 H   0  0  0  0  0  0  0  0  0  0  0  0
   43.9998   27.2994   49.7140 H   0  0  0  0  0  0  0  0  0  0  0  0
   43.0436   25.7788   49.7140 H   0  0  0  0  0  0  0  0  0  0  0  0
  1  6  2  0
  2  1  1  0
  3  4  1  0
  3  2  2  0
  4  5  2  0
  5 13  1  0
  5  6  1  0
  7  2  1  0
  7  8  1  0
  9  8  2  0
 10  9  1  0
 11 12  1  0
 11 10  1  0
 12  7  1  0
 13 17  1  0
 13 14  2  0
 14 15  1  0
 16 15  1  0
 16 18  1  0
 17 16  2  0
 18 21  1  0
 19 18  1  0
 20 18  1  0
  1 22  1  0
  3 23  1  0
  7 24  1  6
  8 25  1  0
  9 26  1  0
 10 27  1  0
 10 28  1  0
 11 29  1  0
 11 30  1  0
 12 31  1  0
 12 32  1  0
 14 33  1  0
 19 34  1  0
 19 35  1  0
 19 36  1  0
 20 37  1  0
 20 38  1  0
 20 39  1  0
 21 40  1  0
 21 41  1  0
 21 42  1  0
M  ISO  8  22  14  23  14  24  13  25  13  26  13  27  13  28  13  29  13
M  ISO  8  30  13  31  13  32  13  33  14  34   8  35   8  36   8  37   8
M  ISO  5  38   8  39   8  40   8  41   8  42   8
M  END
>  <minimizedAffinity>  (1) 
-5.08893061

>  <minimizedRMSD>  (1) 
0.926781595

$$$$
