
     RDKit          3D

 35 38  0  0  1  0  0  0  0  0999 V2000
   46.4740   32.9710   45.0970 C   0  0  0  0  0  0  0  0  0  0  0  0
   47.3790   32.7960   44.0650 C   0  0  0  0  0  0  0  0  0  0  0  0
   47.8140   31.4680   43.7600 C   0  0  0  0  0  0  0  0  0  0  0  0
   47.3220   30.4430   44.4960 N   0  0  0  0  0  0  0  0  0  0  0  0
   46.4300   30.6610   45.5070 C   0  0  0  0  0  0  0  0  0  0  0  0
   46.0210   31.9040   45.7930 N   0  0  0  0  0  0  0  0  0  0  0  0
   47.8720   33.9750   43.3350 C   0  0  2  0  0  0  0  0  0  0  0  0
   46.9190   34.2580   42.1760 C   0  0  0  0  0  0  0  0  0  0  0  0
   47.4490   35.0090   41.0750 C   0  0  0  0  0  0  0  0  0  0  0  0
   48.8270   35.4840   41.0580 C   0  0  0  0  0  0  0  0  0  0  0  0
   49.6300   35.2200   42.2880 C   0  0  0  0  0  0  0  0  0  0  0  0
   49.2730   33.8890   42.8630 C   0  0  0  0  0  0  0  0  0  0  0  0
   45.9060   29.5080   46.2980 C   0  0  0  0  0  0  0  0  0  0  0  0
   46.4670   28.7900   47.4550 C   0  0  0  0  0  0  0  0  0  0  0  0
   45.1210   27.5790   47.6570 S   0  0  0  0  0  0  0  0  0  0  0  0
   44.1360   28.1590   46.3180 C   0  0  0  0  0  0  0  0  0  0  0  0
   44.7650   29.2420   45.6990 N   0  0  0  0  0  0  0  0  0  0  0  0
   42.8500   27.4370   46.0730 C   0  0  0  0  0  0  0  0  0  0  0  0
   41.7700   27.7390   45.3670 N   0  0  0  0  0  0  0  0  0  0  0  0
   40.9280   26.7540   45.4880 O   0  0  0  0  0  0  0  0  0  0  0  0
   41.4410   25.8290   46.2540 C   0  0  0  0  0  0  0  0  0  0  0  0
   42.6670   26.2360   46.6440 N   0  0  0  0  0  0  0  0  0  0  0  0
   46.1220   33.9815   45.3520 H   0  0  0  0  0  0  0  0  0  0  0  0
   48.5313   31.2835   42.9467 H   0  0  0  0  0  0  0  0  0  0  0  0
   47.8881   34.8075   44.0538 H   0  0  0  0  0  0  0  0  0  0  0  0
   45.8777   33.9035   42.1850 H   0  0  0  0  0  0  0  0  0  0  0  0
   46.7965   35.2331   40.2183 H   0  0  0  0  0  0  0  0  0  0  0  0
   49.3385   35.0000   40.2129 H   0  0  0  0  0  0  0  0  0  0  0  0
   48.7600   36.5791   40.9795 H   0  0  0  0  0  0  0  0  0  0  0  0
   50.6998   35.2299   42.0322 H   0  0  0  0  0  0  0  0  0  0  0  0
   49.4136   36.0012   43.0316 H   0  0  0  0  0  0  0  0  0  0  0  0
   49.3634   33.1094   42.0922 H   0  0  0  0  0  0  0  0  0  0  0  0
   49.9480   33.6289   43.6917 H   0  0  0  0  0  0  0  0  0  0  0  0
   47.4006   28.9377   48.0176 H   0  0  0  0  0  0  0  0  0  0  0  0
   40.9571   24.8814   46.5332 H   0  0  0  0  0  0  0  0  0  0  0  0
  1  6  2  0
  2  1  1  0
  3  2  2  0
  3  4  1  0
  4  5  2  0
  5  6  1  0
  5 13  1  0
  7  2  1  0
  8  7  1  0
  9  8  2  0
 10  9  1  0
 10 11  1  0
 11 12  1  0
 12  7  1  0
 13 14  2  0
 14 15  1  0
 16 15  1  0
 17 13  1  0
 17 16  2  0
 18 16  1  0
 18 22  1  0
 19 20  1  0
 19 18  2  0
 20 21  1  0
 21 22  2  0
  1 23  1  0
  3 24  1  0
  7 25  1  1
  8 26  1  0
  9 27  1  0
 10 28  1  0
 10 29  1  0
 11 30  1  0
 11 31  1  0
 12 32  1  0
 12 33  1  0
 14 34  1  0
 21 35  1  0
M  ISO  8  23  14  24  14  25  13  26  13  27  13  28  13  29  13  30  13
M  ISO  5  31  13  32  13  33  13  34  14  35  14
M  END
>  <minimizedAffinity>  (1) 
-5.03047752

>  <minimizedRMSD>  (1) 
2.5557704

$$$$
