
     RDKit          3D

 36 39  0  0  1  0  0  0  0  0999 V2000
   45.8940   32.2460   46.3250 C   0  0  0  0  0  0  0  0  0  0  0  0
   45.8010   32.4830   44.9650 C   0  0  0  0  0  0  0  0  0  0  0  0
   45.5490   31.3830   44.0830 C   0  0  0  0  0  0  0  0  0  0  0  0
   45.4130   30.1510   44.6260 N   0  0  0  0  0  0  0  0  0  0  0  0
   45.5080   29.9490   45.9540 C   0  0  0  0  0  0  0  0  0  0  0  0
   45.7460   30.9890   46.7950 N   0  0  0  0  0  0  0  0  0  0  0  0
   45.9880   33.8560   44.4570 C   0  0  2  0  0  0  0  0  0  0  0  0
   45.0040   34.7740   45.1780 C   0  0  0  0  0  0  0  0  0  0  0  0
   44.6610   36.0070   44.5250 C   0  0  0  0  0  0  0  0  0  0  0  0
   45.2310   36.3610   43.2270 C   0  0  0  0  0  0  0  0  0  0  0  0
   46.2190   35.4310   42.6570 C   0  0  0  0  0  0  0  0  0  0  0  0
   45.9050   34.0120   42.9870 C   0  0  0  0  0  0  0  0  0  0  0  0
   45.3560   28.5860   46.5470 C   0  0  0  0  0  0  0  0  0  0  0  0
   46.2300   27.8150   47.4570 C   0  0  0  0  0  0  0  0  0  0  0  0
   45.1850   26.3380   47.5940 S   0  0  0  0  0  0  0  0  0  0  0  0
   43.8930   26.9150   46.5330 C   0  0  0  0  0  0  0  0  0  0  0  0
   44.1980   28.1870   46.0640 N   0  0  0  0  0  0  0  0  0  0  0  0
   42.7230   26.0390   46.2860 N   0  0  0  0  0  0  0  0  0  0  0  0
   42.7480   24.7410   46.0100 C   0  0  0  0  0  0  0  0  0  0  0  0
   41.4950   24.2870   45.8480 N   0  0  0  0  0  0  0  0  0  0  0  0
   40.6880   25.3410   46.0300 C   0  0  0  0  0  0  0  0  0  0  0  0
   41.4450   26.4110   46.2970 N   0  0  0  0  0  0  0  0  0  0  0  0
   46.0874   33.0770   47.0193 H   0  0  0  0  0  0  0  0  0  0  0  0
   45.4684   31.5351   42.9966 H   0  0  0  0  0  0  0  0  0  0  0  0
   47.0281   34.1372   44.6788 H   0  0  0  0  0  0  0  0  0  0  0  0
   44.5764   34.5033   46.1546 H   0  0  0  0  0  0  0  0  0  0  0  0
   43.9561   36.6974   45.0113 H   0  0  0  0  0  0  0  0  0  0  0  0
   44.4003   36.4432   42.5107 H   0  0  0  0  0  0  0  0  0  0  0  0
   45.7848   37.2951   43.4025 H   0  0  0  0  0  0  0  0  0  0  0  0
   47.2125   35.6778   43.0595 H   0  0  0  0  0  0  0  0  0  0  0  0
   46.1952   35.5387   41.5625 H   0  0  0  0  0  0  0  0  0  0  0  0
   44.8904   33.7640   42.6418 H   0  0  0  0  0  0  0  0  0  0  0  0
   46.6172   33.3370   42.4899 H   0  0  0  0  0  0  0  0  0  0  0  0
   47.2034   28.0591   47.9074 H   0  0  0  0  0  0  0  0  0  0  0  0
   43.6584   24.1293   45.9265 H   0  0  0  0  0  0  0  0  0  0  0  0
   39.5897   25.3285   45.9700 H   0  0  0  0  0  0  0  0  0  0  0  0
  1  6  2  0
  2  1  1  0
  3  4  1  0
  3  2  2  0
  4  5  2  0
  5 13  1  0
  5  6  1  0
  7  2  1  0
  7  8  1  0
  9  8  2  0
 10  9  1  0
 11 12  1  0
 11 10  1  0
 12  7  1  0
 13 14  2  0
 14 15  1  0
 16 15  1  0
 17 16  2  0
 17 13  1  0
 18 22  1  0
 18 16  1  0
 19 18  1  0
 20 19  2  0
 20 21  1  0
 21 22  2  0
  1 23  1  0
  3 24  1  0
  7 25  1  1
  8 26  1  0
  9 27  1  0
 10 28  1  0
 10 29  1  0
 11 30  1  0
 11 31  1  0
 12 32  1  0
 12 33  1  0
 14 34  1  0
 19 35  1  0
 21 36  1  0
M  ISO  8  23  14  24  14  25  13  26  13  27  13  28  13  29  13  30  13
M  ISO  6  31  13  32  13  33  13  34  14  35  14  36  14
M  END
>  <minimizedAffinity>  (1) 
-5.02115107

>  <minimizedRMSD>  (1) 
0.940297961

$$$$
