
     RDKit          3D

 37 40  0  0  1  0  0  0  0  0999 V2000
   45.9160   32.2270   46.3150 C   0  0  0  0  0  0  0  0  0  0  0  0
   45.8060   32.4520   44.9540 C   0  0  0  0  0  0  0  0  0  0  0  0
   45.5520   31.3410   44.0860 C   0  0  0  0  0  0  0  0  0  0  0  0
   45.4320   30.1120   44.6440 N   0  0  0  0  0  0  0  0  0  0  0  0
   45.5440   29.9240   45.9720 C   0  0  0  0  0  0  0  0  0  0  0  0
   45.7850   30.9730   46.8030 N   0  0  0  0  0  0  0  0  0  0  0  0
   45.9770   33.8210   44.4370 C   0  0  2  0  0  0  0  0  0  0  0  0
   45.0040   34.7400   45.1800 C   0  0  0  0  0  0  0  0  0  0  0  0
   44.6590   35.9850   44.5320 C   0  0  0  0  0  0  0  0  0  0  0  0
   45.2160   36.3240   43.2320 C   0  0  0  0  0  0  0  0  0  0  0  0
   46.1950   35.3930   42.6410 C   0  0  0  0  0  0  0  0  0  0  0  0
   45.8510   33.9730   42.9720 C   0  0  0  0  0  0  0  0  0  0  0  0
   45.4020   28.5580   46.5650 C   0  0  0  0  0  0  0  0  0  0  0  0
   46.2800   27.8040   47.4810 C   0  0  0  0  0  0  0  0  0  0  0  0
   45.2540   26.3160   47.6300 S   0  0  0  0  0  0  0  0  0  0  0  0
   43.9610   26.8730   46.5640 C   0  0  0  0  0  0  0  0  0  0  0  0
   44.2470   28.1490   46.0810 N   0  0  0  0  0  0  0  0  0  0  0  0
   42.7180   26.0500   46.2370 N   0  0  0  0  0  0  0  0  0  0  0  0
   41.4740   26.5470   46.2080 C   0  0  0  0  0  0  0  0  0  0  0  0
   40.7180   25.4460   45.8740 C   0  0  0  0  0  0  0  0  0  0  0  0
   41.4910   24.3750   45.7210 N   0  0  0  0  0  0  0  0  0  0  0  0
   42.7500   24.7530   45.9490 C   0  0  0  0  0  0  0  0  0  0  0  0
   46.1097   33.0668   46.9985 H   0  0  0  0  0  0  0  0  0  0  0  0
   45.4572   31.4814   42.9991 H   0  0  0  0  0  0  0  0  0  0  0  0
   47.0224   34.1033   44.6303 H   0  0  0  0  0  0  0  0  0  0  0  0
   44.5872   34.4659   46.1604 H   0  0  0  0  0  0  0  0  0  0  0  0
   43.9681   36.6832   45.0271 H   0  0  0  0  0  0  0  0  0  0  0  0
   44.3760   36.4085   42.5268 H   0  0  0  0  0  0  0  0  0  0  0  0
   45.7835   37.2501   43.4060 H   0  0  0  0  0  0  0  0  0  0  0  0
   47.1951   35.6229   43.0373 H   0  0  0  0  0  0  0  0  0  0  0  0
   46.1776   35.5127   41.5477 H   0  0  0  0  0  0  0  0  0  0  0  0
   44.8202   33.7522   42.6578 H   0  0  0  0  0  0  0  0  0  0  0  0
   46.5231   33.2770   42.4487 H   0  0  0  0  0  0  0  0  0  0  0  0
   47.2498   28.0627   47.9310 H   0  0  0  0  0  0  0  0  0  0  0  0
   41.1403   27.5770   46.4024 H   0  0  0  0  0  0  0  0  0  0  0  0
   39.6249   25.4515   45.7507 H   0  0  0  0  0  0  0  0  0  0  0  0
   43.6438   24.1133   45.9067 H   0  0  0  0  0  0  0  0  0  0  0  0
  1  6  2  0
  2  1  1  0
  3  4  1  0
  3  2  2  0
  4  5  2  0
  5 13  1  0
  5  6  1  0
  7  2  1  0
  7  8  1  0
  9  8  2  0
 10  9  1  0
 11 12  1  0
 11 10  1  0
 12  7  1  0
 13 14  2  0
 14 15  1  0
 16 15  1  0
 17 16  2  0
 17 13  1  0
 18 16  1  0
 19 18  1  0
 20 19  2  0
 21 20  1  0
 21 22  2  0
 22 18  1  0
  1 23  1  0
  3 24  1  0
  7 25  1  1
  8 26  1  0
  9 27  1  0
 10 28  1  0
 10 29  1  0
 11 30  1  0
 11 31  1  0
 12 32  1  0
 12 33  1  0
 14 34  1  0
 19 35  1  0
 20 36  1  0
 22 37  1  0
M  ISO  8  23  14  24  14  25  13  26  13  27  13  28  13  29  13  30  13
M  ISO  7  31  13  32  13  33  13  34  14  35  14  36  14  37  14
M  END
>  <minimizedAffinity>  (1) 
-5.01320362

>  <minimizedRMSD>  (1) 
0.959035158

$$$$
