
     RDKit          3D

 36 38  0  0  1  0  0  0  0  0999 V2000
   46.7870   32.2040   46.4950 C   0  0  0  0  0  0  0  0  0  0  0  0
   46.2380   32.4020   45.2420 C   0  0  0  0  0  0  0  0  0  0  0  0
   45.7690   31.2670   44.5050 C   0  0  0  0  0  0  0  0  0  0  0  0
   45.8860   30.0440   45.0770 N   0  0  0  0  0  0  0  0  0  0  0  0
   46.4370   29.8920   46.3200 C   0  0  0  0  0  0  0  0  0  0  0  0
   46.8730   30.9570   47.0050 N   0  0  0  0  0  0  0  0  0  0  0  0
   46.1740   33.7780   44.7000 C   0  0  2  0  0  0  0  0  0  0  0  0
   45.1000   34.5470   45.4770 C   0  0  0  0  0  0  0  0  0  0  0  0
   44.5480   35.7060   44.8300 C   0  0  0  0  0  0  0  0  0  0  0  0
   44.9960   36.1190   43.5040 C   0  0  0  0  0  0  0  0  0  0  0  0
   46.0430   35.3060   42.8600 C   0  0  0  0  0  0  0  0  0  0  0  0
   45.9290   33.8690   43.2410 C   0  0  0  0  0  0  0  0  0  0  0  0
   46.5440   28.5250   46.9180 C   0  0  0  0  0  0  0  0  0  0  0  0
   47.7020   27.6270   47.0700 C   0  0  0  0  0  0  0  0  0  0  0  0
   46.8160   26.2430   47.8630 S   0  0  0  0  0  0  0  0  0  0  0  0
   45.2260   27.0030   47.8660 C   0  0  0  0  0  0  0  0  0  0  0  0
   45.3110   28.2720   47.2900 N   0  0  0  0  0  0  0  0  0  0  0  0
   44.0250   26.2570   48.4460 C   0  0  0  0  0  0  0  0  0  0  0  0
   44.0380   26.3000   49.9380 C   0  0  0  0  0  0  0  0  0  0  0  0
   47.1538   33.0626   47.0766 H   0  0  0  0  0  0  0  0  0  0  0  0
   45.3270   31.3845   43.5046 H   0  0  0  0  0  0  0  0  0  0  0  0
   47.1713   34.2220   44.8347 H   0  0  0  0  0  0  0  0  0  0  0  0
   44.7691   34.2290   46.4767 H   0  0  0  0  0  0  0  0  0  0  0  0
   43.7729   36.2929   45.3444 H   0  0  0  0  0  0  0  0  0  0  0  0
   44.1179   36.1116   42.8415 H   0  0  0  0  0  0  0  0  0  0  0  0
   45.4588   37.1051   43.6570 H   0  0  0  0  0  0  0  0  0  0  0  0
   47.0291   35.6813   43.1709 H   0  0  0  0  0  0  0  0  0  0  0  0
   45.9205   35.3853   41.7697 H   0  0  0  0  0  0  0  0  0  0  0  0
   44.9216   33.4959   43.0047 H   0  0  0  0  0  0  0  0  0  0  0  0
   46.6576   33.2603   42.6855 H   0  0  0  0  0  0  0  0  0  0  0  0
   48.7597   27.7509   46.7943 H   0  0  0  0  0  0  0  0  0  0  0  0
   43.0995   26.7261   48.0807 H   0  0  0  0  0  0  0  0  0  0  0  0
   44.0770   25.2061   48.1253 H   0  0  0  0  0  0  0  0  0  0  0  0
   43.7412   25.3183   50.3357 H   0  0  0  0  0  0  0  0  0  0  0  0
   45.0509   26.5468   50.2889 H   0  0  0  0  0  0  0  0  0  0  0  0
   43.3315   27.0666   50.2889 H   0  0  0  0  0  0  0  0  0  0  0  0
  1  6  2  0
  2  1  1  0
  3  4  1  0
  3  2  2  0
  4  5  2  0
  5 13  1  0
  5  6  1  0
  7  2  1  0
  7  8  1  0
  9  8  2  0
 10  9  1  0
 11 12  1  0
 11 10  1  0
 12  7  1  0
 13 14  2  0
 13 17  1  0
 14 15  1  0
 15 16  1  0
 16 18  1  0
 17 16  2  0
 18 19  1  0
  1 20  1  0
  3 21  1  0
  7 22  1  6
  8 23  1  0
  9 24  1  0
 10 25  1  0
 10 26  1  0
 11 27  1  0
 11 28  1  0
 12 29  1  0
 12 30  1  0
 14 31  1  0
 18 32  1  0
 18 33  1  0
 19 34  1  0
 19 35  1  0
 19 36  1  0
M  ISO  8  20  14  21  14  22  13  23  13  24  13  25  13  26  13  27  13
M  ISO  8  28  13  29  13  30  13  31  14  32   8  33   8  34   8  35   8
M  ISO  1  36   8
M  END
>  <minimizedAffinity>  (1) 
-4.81670332

>  <minimizedRMSD>  (1) 
0.708939075

$$$$
