
     RDKit          3D

 31 33  0  0  1  0  0  0  0  0999 V2000
   46.0380   32.2190   46.5440 C   0  0  0  0  0  0  0  0  0  0  0  0
   45.9590   32.4050   45.1750 C   0  0  0  0  0  0  0  0  0  0  0  0
   45.8400   31.2560   44.3300 C   0  0  0  0  0  0  0  0  0  0  0  0
   45.8130   30.0350   44.9150 N   0  0  0  0  0  0  0  0  0  0  0  0
   45.8940   29.8940   46.2740 C   0  0  0  0  0  0  0  0  0  0  0  0
   46.0040   30.9700   47.0620 N   0  0  0  0  0  0  0  0  0  0  0  0
   46.0190   33.7710   44.6340 C   0  0  2  0  0  0  0  0  0  0  0  0
   45.0290   34.6430   45.4130 C   0  0  0  0  0  0  0  0  0  0  0  0
   44.5730   35.8510   44.7750 C   0  0  0  0  0  0  0  0  0  0  0  0
   45.0380   36.2150   43.4470 C   0  0  0  0  0  0  0  0  0  0  0  0
   46.0240   35.3260   42.8070 C   0  0  0  0  0  0  0  0  0  0  0  0
   45.7740   33.8990   43.1810 C   0  0  0  0  0  0  0  0  0  0  0  0
   45.8570   28.5270   46.8780 C   0  0  0  0  0  0  0  0  0  0  0  0
   46.9400   27.6640   47.3820 C   0  0  0  0  0  0  0  0  0  0  0  0
   45.8980   26.2440   47.8520 S   0  0  0  0  0  0  0  0  0  0  0  0
   44.3610   26.9490   47.3600 C   0  0  0  0  0  0  0  0  0  0  0  0
   44.5770   28.2320   46.8410 N   0  0  0  0  0  0  0  0  0  0  0  0
   43.2200   26.1450   47.5580 O   0  0  0  0  0  0  0  0  0  0  0  0
   46.1286   33.0883   47.2120 H   0  0  0  0  0  0  0  0  0  0  0  0
   45.7724   31.3617   43.2372 H   0  0  0  0  0  0  0  0  0  0  0  0
   47.0592   34.1044   44.7633 H   0  0  0  0  0  0  0  0  0  0  0  0
   44.6812   34.3585   46.4170 H   0  0  0  0  0  0  0  0  0  0  0  0
   43.8631   36.5071   45.3000 H   0  0  0  0  0  0  0  0  0  0  0  0
   44.1573   36.2588   42.7894 H   0  0  0  0  0  0  0  0  0  0  0  0
   45.5674   37.1692   43.5857 H   0  0  0  0  0  0  0  0  0  0  0  0
   47.0342   35.6129   43.1342 H   0  0  0  0  0  0  0  0  0  0  0  0
   45.9325   35.4257   41.7154 H   0  0  0  0  0  0  0  0  0  0  0  0
   44.7335   33.6270   42.9501 H   0  0  0  0  0  0  0  0  0  0  0  0
   46.4376   33.2282   42.6155 H   0  0  0  0  0  0  0  0  0  0  0  0
   48.0259   27.8247   47.4520 H   0  0  0  0  0  0  0  0  0  0  0  0
   42.3255   26.4834   47.3022 H   0  0  0  0  0  0  0  0  0  0  0  0
  1  6  2  0
  2  1  1  0
  3  4  1  0
  3  2  2  0
  4  5  2  0
  5 13  1  0
  5  6  1  0
  7  2  1  0
  7  8  1  0
  9  8  2  0
 10  9  1  0
 11 12  1  0
 11 10  1  0
 12  7  1  0
 13 14  2  0
 14 15  1  0
 16 18  1  0
 16 15  1  0
 17 13  1  0
 17 16  2  0
  1 19  1  0
  3 20  1  0
  7 21  1  6
  8 22  1  0
  9 23  1  0
 10 24  1  0
 10 25  1  0
 11 26  1  0
 11 27  1  0
 12 28  1  0
 12 29  1  0
 14 30  1  0
 18 31  1  0
M  ISO  8  19  14  20  14  21  13  22  13  23  13  24  13  25  13  26  13
M  ISO  5  27  13  28  13  29  13  30  14  31   3
M  END
>  <minimizedAffinity>  (1) 
-4.5658493

>  <minimizedRMSD>  (1) 
0.10832528

$$$$
