
     RDKit          3D

 32 34  0  0  1  0  0  0  0  0999 V2000
   46.0980   32.2290   46.5140 C   0  0  0  0  0  0  0  0  0  0  0  0
   45.9860   32.4110   45.1460 C   0  0  0  0  0  0  0  0  0  0  0  0
   45.8510   31.2670   44.2950 C   0  0  0  0  0  0  0  0  0  0  0  0
   45.8380   30.0460   44.8800 N   0  0  0  0  0  0  0  0  0  0  0  0
   45.9510   29.9030   46.2370 C   0  0  0  0  0  0  0  0  0  0  0  0
   46.0780   30.9760   47.0260 N   0  0  0  0  0  0  0  0  0  0  0  0
   46.0280   33.7850   44.6080 C   0  0  2  0  0  0  0  0  0  0  0  0
   45.0260   34.6380   45.3950 C   0  0  0  0  0  0  0  0  0  0  0  0
   44.5650   35.8530   44.7770 C   0  0  0  0  0  0  0  0  0  0  0  0
   45.0380   36.2400   43.4610 C   0  0  0  0  0  0  0  0  0  0  0  0
   45.9880   35.3430   42.7880 C   0  0  0  0  0  0  0  0  0  0  0  0
   45.7460   33.9160   43.1610 C   0  0  0  0  0  0  0  0  0  0  0  0
   45.9230   28.5330   46.8360 C   0  0  0  0  0  0  0  0  0  0  0  0
   47.0240   27.7110   47.3960 C   0  0  0  0  0  0  0  0  0  0  0  0
   46.0230   26.2540   47.8210 S   0  0  0  0  0  0  0  0  0  0  0  0
   44.4850   26.9000   47.2540 C   0  0  0  0  0  0  0  0  0  0  0  0
   44.6610   28.1900   46.7400 N   0  0  0  0  0  0  0  0  0  0  0  0
   43.1380   26.1610   47.3110 N   0  0  0  0  0  0  0  0  0  0  0  0
   46.2026   33.0975   47.1809 H   0  0  0  0  0  0  0  0  0  0  0  0
   45.7610   31.3765   43.2042 H   0  0  0  0  0  0  0  0  0  0  0  0
   47.0672   34.1256   44.7270 H   0  0  0  0  0  0  0  0  0  0  0  0
   44.6738   34.3335   46.3916 H   0  0  0  0  0  0  0  0  0  0  0  0
   43.8466   36.4950   45.3077 H   0  0  0  0  0  0  0  0  0  0  0  0
   44.1568   36.3347   42.8094 H   0  0  0  0  0  0  0  0  0  0  0  0
   45.6025   37.1690   43.6293 H   0  0  0  0  0  0  0  0  0  0  0  0
   47.0115   35.6209   43.0800 H   0  0  0  0  0  0  0  0  0  0  0  0
   45.8516   35.4454   41.7013 H   0  0  0  0  0  0  0  0  0  0  0  0
   44.6998   33.6455   42.9555 H   0  0  0  0  0  0  0  0  0  0  0  0
   46.3929   33.2457   42.5761 H   0  0  0  0  0  0  0  0  0  0  0  0
   48.0980   27.9165   47.5154 H   0  0  0  0  0  0  0  0  0  0  0  0
   42.2853   26.6164   46.9554 H   0  0  0  0  0  0  0  0  0  0  0  0
   43.0883   25.2105   47.7048 H   0  0  0  0  0  0  0  0  0  0  0  0
  1  6  2  0
  2  1  1  0
  3  4  1  0
  3  2  2  0
  4  5  2  0
  5 13  1  0
  5  6  1  0
  7  2  1  0
  7  8  1  0
  9  8  2  0
 10  9  1  0
 11 12  1  0
 11 10  1  0
 12  7  1  0
 13 14  2  0
 14 15  1  0
 16 18  1  0
 16 15  1  0
 17 13  1  0
 17 16  2  0
  1 19  1  0
  3 20  1  0
  7 21  1  6
  8 22  1  0
  9 23  1  0
 10 24  1  0
 10 25  1  0
 11 26  1  0
 11 27  1  0
 12 28  1  0
 12 29  1  0
 14 30  1  0
 18 31  1  0
 18 32  1  0
M  ISO  8  19  14  20  14  21  13  22  13  23  13  24  13  25  13  26  13
M  ISO  4  27  13  28  13  29  13  30  14
M  END
>  <minimizedAffinity>  (1) 
-4.49605751

>  <minimizedRMSD>  (1) 
0.142206967

$$$$
