
     RDKit          3D

 32 34  0  0  1  0  0  0  0  0999 V2000
   46.0580   32.2980   46.3650 C   0  0  0  0  0  0  0  0  0  0  0  0
   45.9140   32.4870   45.0000 C   0  0  0  0  0  0  0  0  0  0  0  0
   45.6930   31.3550   44.1550 C   0  0  0  0  0  0  0  0  0  0  0  0
   45.6340   30.1360   44.7430 N   0  0  0  0  0  0  0  0  0  0  0  0
   45.7800   29.9860   46.0950 C   0  0  0  0  0  0  0  0  0  0  0  0
   45.9860   31.0490   46.8810 N   0  0  0  0  0  0  0  0  0  0  0  0
   46.0130   33.8590   44.4610 C   0  0  2  0  0  0  0  0  0  0  0  0
   45.0130   34.7490   45.2100 C   0  0  0  0  0  0  0  0  0  0  0  0
   44.6080   35.9640   44.5600 C   0  0  0  0  0  0  0  0  0  0  0  0
   45.1280   36.3290   43.2490 C   0  0  0  0  0  0  0  0  0  0  0  0
   46.1100   35.4120   42.6440 C   0  0  0  0  0  0  0  0  0  0  0  0
   45.8070   33.9910   43.0010 C   0  0  0  0  0  0  0  0  0  0  0  0
   45.6990   28.6180   46.6950 C   0  0  0  0  0  0  0  0  0  0  0  0
   46.7040   27.8170   47.4100 C   0  0  0  0  0  0  0  0  0  0  0  0
   45.6690   26.3440   47.6980 S   0  0  0  0  0  0  0  0  0  0  0  0
   44.2200   26.9610   46.9080 C   0  0  0  0  0  0  0  0  0  0  0  0
   44.4700   28.2470   46.4230 N   0  0  0  0  0  0  0  0  0  0  0  0
   42.9450   26.1640   46.8110 C   0  0  0  0  0  0  0  0  0  0  0  0
   42.6270   25.6120   47.8910 O   0  0  0  0  0  0  0  0  0  0  0  0
   46.2302   33.1597   47.0267 H   0  0  0  0  0  0  0  0  0  0  0  0
   45.5752   31.4697   43.0674 H   0  0  0  0  0  0  0  0  0  0  0  0
   47.0545   34.1737   44.6226 H   0  0  0  0  0  0  0  0  0  0  0  0
   44.6237   34.4693   46.2001 H   0  0  0  0  0  0  0  0  0  0  0  0
   43.8918   36.6315   45.0615 H   0  0  0  0  0  0  0  0  0  0  0  0
   44.2731   36.4021   42.5607 H   0  0  0  0  0  0  0  0  0  0  0  0
   45.6740   37.2705   43.4083 H   0  0  0  0  0  0  0  0  0  0  0  0
   47.1150   35.6685   43.0102 H   0  0  0  0  0  0  0  0  0  0  0  0
   46.0602   35.5170   41.5502 H   0  0  0  0  0  0  0  0  0  0  0  0
   44.7651   33.7505   42.7431 H   0  0  0  0  0  0  0  0  0  0  0  0
   46.4595   33.2993   42.4480 H   0  0  0  0  0  0  0  0  0  0  0  0
   47.7466   28.0364   47.6835 H   0  0  0  0  0  0  0  0  0  0  0  0
   42.3539   26.0755   45.8876 H   0  0  0  0  0  0  0  0  0  0  0  0
  1  6  2  0
  2  1  1  0
  3  4  1  0
  3  2  2  0
  4  5  2  0
  5 13  1  0
  5  6  1  0
  7  2  1  0
  7  8  1  0
  9  8  2  0
 10  9  1  0
 11 12  1  0
 11 10  1  0
 12  7  1  0
 13 14  2  0
 14 15  1  0
 16 15  1  0
 17 13  1  0
 17 16  2  0
 18 16  1  0
 18 19  2  0
  1 20  1  0
  3 21  1  0
  7 22  1  6
  8 23  1  0
  9 24  1  0
 10 25  1  0
 10 26  1  0
 11 27  1  0
 11 28  1  0
 12 29  1  0
 12 30  1  0
 14 31  1  0
 18 32  1  0
M  ISO  8  20  14  21  14  22  13  23  13  24  13  25  13  26  13  27  13
M  ISO  5  28  13  29  13  30  13  31  14  32   6
M  END
>  <minimizedAffinity>  (1) 
-4.55911875

>  <minimizedRMSD>  (1) 
0.333243251

$$$$
