
     RDKit          3D

 36 38  0  0  0  0  0  0  0  0999 V2000
   46.9710   34.7760   42.1240 C   0  0  0  0  0  0  0  0  0  0  0  0
   48.2650   35.2310   41.9390 C   0  0  0  0  0  0  0  0  0  0  0  0
   48.5140   34.9270   40.5920 C   0  0  0  0  0  0  0  0  0  0  0  0
   47.3960   34.3250   40.0530 C   0  0  0  0  0  0  0  0  0  0  0  0
   46.5200   34.2700   41.0270 O   0  0  0  0  0  0  0  0  0  0  0  0
   44.4930   35.8370   44.6870 C   0  0  0  0  0  0  0  0  0  0  0  0
   45.2270   35.8070   43.4760 C   0  0  0  0  0  0  0  0  0  0  0  0
   46.1940   34.8380   43.3570 C   0  0  0  0  0  0  0  0  0  0  0  0
   46.4330   33.9410   44.3690 N   0  0  0  0  0  0  0  0  0  0  0  0
   45.6960   34.0140   45.5170 C   0  0  0  0  0  0  0  0  0  0  0  0
   44.7350   34.9520   45.6770 N   0  0  0  0  0  0  0  0  0  0  0  0
   45.9620   33.0760   46.5510 N   0  0  0  0  0  0  0  0  0  0  0  0
   45.0600   32.8390   47.6730 C   0  0  0  0  0  0  0  0  0  0  0  0
   45.9740   32.1770   48.7100 C   0  0  0  0  0  0  0  0  0  0  0  0
   46.8380   31.3140   47.8190 C   0  0  0  0  0  0  0  0  0  0  0  0
   47.1290   32.2330   46.6560 C   0  0  0  0  0  0  0  0  0  0  0  0
   47.2410   33.8670   38.7280 N   0  0  0  0  0  0  0  0  0  0  0  0
   48.2680   33.9820   37.7580 C   0  0  0  0  0  0  0  0  0  0  0  0
   49.0240   35.0420   37.8080 N   0  0  0  0  0  0  0  0  0  0  0  0
   48.4070   32.9330   36.7920 N   0  0  0  0  0  0  0  0  0  0  0  0
   49.7860   35.1030   37.1040 H   0  0  0  0  0  0  0  0  0  0  0  0
   48.9334   35.7123   42.6681 H   0  0  0  0  0  0  0  0  0  0  0  0
   49.4499   35.1352   40.0527 H   0  0  0  0  0  0  0  0  0  0  0  0
   43.7097   36.5971   44.8235 H   0  0  0  0  0  0  0  0  0  0  0  0
   45.0318   36.5268   42.6674 H   0  0  0  0  0  0  0  0  0  0  0  0
   44.6464   33.7839   48.0552 H   0  0  0  0  0  0  0  0  0  0  0  0
   44.1867   32.2251   47.4074 H   0  0  0  0  0  0  0  0  0  0  0  0
   46.5725   32.9214   49.2556 H   0  0  0  0  0  0  0  0  0  0  0  0
   45.4418   31.6258   49.4992 H   0  0  0  0  0  0  0  0  0  0  0  0
   47.7645   31.0160   48.3317 H   0  0  0  0  0  0  0  0  0  0  0  0
   46.3567   30.3704   47.5224 H   0  0  0  0  0  0  0  0  0  0  0  0
   47.2735   31.6544   45.7317 H   0  0  0  0  0  0  0  0  0  0  0  0
   48.0497   32.8156   46.8075 H   0  0  0  0  0  0  0  0  0  0  0  0
   46.3479   33.4326   38.4550 H   0  0  0  0  0  0  0  0  0  0  0  0
   47.7703   32.1237   36.8153 H   0  0  0  0  0  0  0  0  0  0  0  0
   49.1437   32.9882   36.0742 H   0  0  0  0  0  0  0  0  0  0  0  0
  1  8  1  0
  2  1  2  0
  3  2  1  0
  4  3  2  0
  4  5  1  0
  5  1  1  0
  6 11  2  0
  7  6  1  0
  8  7  2  0
  8  9  1  0
  9 10  2  0
 10 11  1  0
 10 12  1  0
 12 16  1  0
 12 13  1  0
 13 14  1  0
 15 14  1  0
 16 15  1  0
 17  4  1  0
 18 19  2  0
 18 17  1  0
 20 18  1  0
 21 19  1  0
  2 22  1  0
  3 23  1  0
  6 24  1  0
  7 25  1  0
 13 26  1  0
 13 27  1  0
 14 28  1  0
 14 29  1  0
 15 30  1  0
 15 31  1  0
 16 32  1  0
 16 33  1  0
 17 34  1  0
 20 35  1  0
 20 36  1  0
M  ISO  8  22  14  23  14  24  14  25  14  26  13  27  13  28  13  29  13
M  ISO  4  30  13  31  13  32  13  33  13
M  END
>  <minimizedAffinity>  (1) 
-7.09837818

>  <minimizedRMSD>  (1) 
0.151469663

$$$$
