
     RDKit          3D

 34 36  0  0  0  0  0  0  0  0999 V2000
   44.5100   35.7930   44.6930 C   0  0  0  0  0  0  0  0  0  0  0  0
   45.2370   35.7990   43.4770 C   0  0  0  0  0  0  0  0  0  0  0  0
   46.2090   34.8270   43.3510 C   0  0  0  0  0  0  0  0  0  0  0  0
   46.4460   33.9160   44.3520 N   0  0  0  0  0  0  0  0  0  0  0  0
   45.7080   33.9700   45.4960 C   0  0  0  0  0  0  0  0  0  0  0  0
   44.7470   34.9000   45.6670 N   0  0  0  0  0  0  0  0  0  0  0  0
   46.0050   32.9770   46.5230 C   0  0  0  0  0  0  0  0  0  0  0  0
   47.0600   32.0990   46.3730 C   0  0  0  0  0  0  0  0  0  0  0  0
   47.3130   31.1720   47.3660 C   0  0  0  0  0  0  0  0  0  0  0  0
   46.4860   31.1560   48.4940 C   0  0  0  0  0  0  0  0  0  0  0  0
   45.4360   32.0180   48.6630 C   0  0  0  0  0  0  0  0  0  0  0  0
   45.2010   32.9460   47.6450 C   0  0  0  0  0  0  0  0  0  0  0  0
   46.9910   34.7840   42.1160 C   0  0  0  0  0  0  0  0  0  0  0  0
   48.2610   35.2530   41.9190 C   0  0  0  0  0  0  0  0  0  0  0  0
   48.5170   34.9560   40.5700 C   0  0  0  0  0  0  0  0  0  0  0  0
   47.4070   34.3370   40.0420 C   0  0  0  0  0  0  0  0  0  0  0  0
   46.5240   34.2610   41.0170 O   0  0  0  0  0  0  0  0  0  0  0  0
   47.2450   33.8740   38.7190 N   0  0  0  0  0  0  0  0  0  0  0  0
   48.2670   33.9650   37.7510 C   0  0  0  0  0  0  0  0  0  0  0  0
   49.0370   35.0360   37.7860 N   0  0  0  0  0  0  0  0  0  0  0  0
   48.4100   32.8980   36.7890 N   0  0  0  0  0  0  0  0  0  0  0  0
   49.8180   35.0570   37.1100 H   0  0  0  0  0  0  0  0  0  0  0  0
   43.7234   36.5468   44.8444 H   0  0  0  0  0  0  0  0  0  0  0  0
   45.0390   36.5331   42.6821 H   0  0  0  0  0  0  0  0  0  0  0  0
   47.6918   32.1370   45.4734 H   0  0  0  0  0  0  0  0  0  0  0  0
   48.1474   30.4614   47.2714 H   0  0  0  0  0  0  0  0  0  0  0  0
   46.6889   30.4161   49.2823 H   0  0  0  0  0  0  0  0  0  0  0  0
   44.8038   31.9817   49.5624 H   0  0  0  0  0  0  0  0  0  0  0  0
   44.3679   33.6582   47.7384 H   0  0  0  0  0  0  0  0  0  0  0  0
   48.9245   35.7459   42.6449 H   0  0  0  0  0  0  0  0  0  0  0  0
   49.4473   35.1803   40.0275 H   0  0  0  0  0  0  0  0  0  0  0  0
   46.3446   33.4528   38.4493 H   0  0  0  0  0  0  0  0  0  0  0  0
   47.7732   32.0890   36.8188 H   0  0  0  0  0  0  0  0  0  0  0  0
   49.1488   32.9458   36.0729 H   0  0  0  0  0  0  0  0  0  0  0  0
  1  6  2  0
  2  1  1  0
  3  2  2  0
  3  4  1  0
  4  5  2  0
  5  6  1  0
  5  7  1  0
  7 12  1  0
  8  7  2  0
  8  9  1  0
  9 10  2  0
 10 11  1  0
 12 11  2  0
 13  3  1  0
 14 13  2  0
 15 14  1  0
 16 15  2  0
 16 17  1  0
 17 13  1  0
 18 16  1  0
 19 20  2  0
 19 18  1  0
 21 19  1  0
 22 20  1  0
  1 23  1  0
  2 24  1  0
  8 25  1  0
  9 26  1  0
 10 27  1  0
 11 28  1  0
 12 29  1  0
 14 30  1  0
 15 31  1  0
 18 32  1  0
 21 33  1  0
 21 34  1  0
M  ISO  8  23  14  24  14  25  14  26  14  27  14  28  14  29  14  30  14
M  ISO  1  31  14
M  END
>  <minimizedAffinity>  (1) 
-7.20743799

>  <minimizedRMSD>  (1) 
0.278695464

$$$$
