
     RDKit          3D

 31 33  0  0  0  0  0  0  0  0999 V2000
   46.9600   34.7720   42.1200 C   0  0  0  0  0  0  0  0  0  0  0  0
   48.2460   35.2430   41.9430 C   0  0  0  0  0  0  0  0  0  0  0  0
   48.5070   34.9440   40.5930 C   0  0  0  0  0  0  0  0  0  0  0  0
   47.4010   34.3300   40.0510 C   0  0  0  0  0  0  0  0  0  0  0  0
   46.5080   34.2590   41.0260 O   0  0  0  0  0  0  0  0  0  0  0  0
   44.5180   35.8690   44.7000 C   0  0  0  0  0  0  0  0  0  0  0  0
   45.2610   35.8350   43.4970 C   0  0  0  0  0  0  0  0  0  0  0  0
   46.1820   34.8250   43.3520 C   0  0  0  0  0  0  0  0  0  0  0  0
   46.3710   33.8860   44.3360 N   0  0  0  0  0  0  0  0  0  0  0  0
   45.6170   33.9760   45.4770 C   0  0  0  0  0  0  0  0  0  0  0  0
   44.7040   34.9500   45.6620 N   0  0  0  0  0  0  0  0  0  0  0  0
   45.8240   32.9940   46.4950 C   0  0  0  0  0  0  0  0  0  0  0  0
   45.2260   32.8700   47.7410 C   0  0  0  0  0  0  0  0  0  0  0  0
   45.6070   31.8200   48.5410 C   0  0  0  0  0  0  0  0  0  0  0  0
   46.5640   30.9540   48.0480 C   0  0  0  0  0  0  0  0  0  0  0  0
   46.9670   31.6280   46.3760 S   0  0  0  0  0  0  0  0  0  0  0  0
   47.2500   33.8710   38.7300 N   0  0  0  0  0  0  0  0  0  0  0  0
   48.2800   33.9800   37.7650 C   0  0  0  0  0  0  0  0  0  0  0  0
   49.0340   35.0570   37.8080 N   0  0  0  0  0  0  0  0  0  0  0  0
   48.4340   32.9110   36.8060 N   0  0  0  0  0  0  0  0  0  0  0  0
   49.8090   35.0840   37.1180 H   0  0  0  0  0  0  0  0  0  0  0  0
   48.9042   35.7315   42.6766 H   0  0  0  0  0  0  0  0  0  0  0  0
   49.4425   35.1650   40.0581 H   0  0  0  0  0  0  0  0  0  0  0  0
   43.7728   36.6640   44.8509 H   0  0  0  0  0  0  0  0  0  0  0  0
   45.1079   36.5869   42.7088 H   0  0  0  0  0  0  0  0  0  0  0  0
   44.4681   33.5922   48.0788 H   0  0  0  0  0  0  0  0  0  0  0  0
   45.1660   31.6741   49.5381 H   0  0  0  0  0  0  0  0  0  0  0  0
   46.9889   30.0661   48.5390 H   0  0  0  0  0  0  0  0  0  0  0  0
   46.3563   33.4393   38.4544 H   0  0  0  0  0  0  0  0  0  0  0  0
   47.8030   32.0975   36.8359 H   0  0  0  0  0  0  0  0  0  0  0  0
   49.1748   32.9622   36.0922 H   0  0  0  0  0  0  0  0  0  0  0  0
  1  8  1  0
  2  1  2  0
  3  2  1  0
  4  3  2  0
  4  5  1  0
  5  1  1  0
  6 11  2  0
  7  6  1  0
  8  7  2  0
  8  9  1  0
  9 10  2  0
 10 11  1  0
 10 12  1  0
 12 13  2  0
 13 14  1  0
 15 14  2  0
 16 12  1  0
 16 15  1  0
 17  4  1  0
 18 19  2  0
 18 17  1  0
 20 18  1  0
 21 19  1  0
  2 22  1  0
  3 23  1  0
  6 24  1  0
  7 25  1  0
 13 26  1  0
 14 27  1  0
 15 28  1  0
 17 29  1  0
 20 30  1  0
 20 31  1  0
M  ISO  7  22  14  23  14  24  14  25  14  26  14  27  14  28  14
M  END
>  <minimizedAffinity>  (1) 
-6.78059196

>  <minimizedRMSD>  (1) 
0.387782931

$$$$
