
     RDKit          3D

 32 34  0  0  0  0  0  0  0  0999 V2000
   47.0000   34.7950   42.1080 C   0  0  0  0  0  0  0  0  0  0  0  0
   48.2660   35.2660   41.9060 C   0  0  0  0  0  0  0  0  0  0  0  0
   48.5200   34.9700   40.5600 C   0  0  0  0  0  0  0  0  0  0  0  0
   47.4120   34.3460   40.0300 C   0  0  0  0  0  0  0  0  0  0  0  0
   46.5390   34.2720   41.0080 O   0  0  0  0  0  0  0  0  0  0  0  0
   44.5110   35.7840   44.6930 C   0  0  0  0  0  0  0  0  0  0  0  0
   45.2460   35.7930   43.4710 C   0  0  0  0  0  0  0  0  0  0  0  0
   46.2210   34.8340   43.3360 C   0  0  0  0  0  0  0  0  0  0  0  0
   46.4550   33.9270   44.3410 N   0  0  0  0  0  0  0  0  0  0  0  0
   45.7260   33.9640   45.4850 C   0  0  0  0  0  0  0  0  0  0  0  0
   44.7600   34.8880   45.6600 N   0  0  0  0  0  0  0  0  0  0  0  0
   45.9900   32.9900   46.5430 C   0  0  0  0  0  0  0  0  0  0  0  0
   47.0590   32.1240   46.4270 C   0  0  0  0  0  0  0  0  0  0  0  0
   47.2310   31.2320   47.4850 C   0  0  0  0  0  0  0  0  0  0  0  0
   46.4170   31.2010   48.5600 N   0  0  0  0  0  0  0  0  0  0  0  0
   45.3890   32.0620   48.6290 C   0  0  0  0  0  0  0  0  0  0  0  0
   45.1960   32.9350   47.6270 N   0  0  0  0  0  0  0  0  0  0  0  0
   47.2380   33.8750   38.7080 N   0  0  0  0  0  0  0  0  0  0  0  0
   48.2800   33.9620   37.7460 C   0  0  0  0  0  0  0  0  0  0  0  0
   49.0360   35.0330   37.7820 N   0  0  0  0  0  0  0  0  0  0  0  0
   48.4390   32.8790   36.8030 N   0  0  0  0  0  0  0  0  0  0  0  0
   49.8130   35.0530   37.0890 H   0  0  0  0  0  0  0  0  0  0  0  0
   48.9301   35.7612   42.6297 H   0  0  0  0  0  0  0  0  0  0  0  0
   49.4492   35.1979   40.0171 H   0  0  0  0  0  0  0  0  0  0  0  0
   43.7189   36.5316   44.8468 H   0  0  0  0  0  0  0  0  0  0  0  0
   45.0433   36.5285   42.6786 H   0  0  0  0  0  0  0  0  0  0  0  0
   47.7314   32.1368   45.5565 H   0  0  0  0  0  0  0  0  0  0  0  0
   48.0691   30.5209   47.4408 H   0  0  0  0  0  0  0  0  0  0  0  0
   44.7126   32.0524   49.4964 H   0  0  0  0  0  0  0  0  0  0  0  0
   46.3355   33.4595   38.4364 H   0  0  0  0  0  0  0  0  0  0  0  0
   47.8041   32.0687   36.8375 H   0  0  0  0  0  0  0  0  0  0  0  0
   49.1873   32.9172   36.0962 H   0  0  0  0  0  0  0  0  0  0  0  0
  1  8  1  0
  2  1  2  0
  3  2  1  0
  4  3  2  0
  4  5  1  0
  5  1  1  0
  6 11  2  0
  7  6  1  0
  8  7  2  0
  8  9  1  0
  9 10  2  0
 10 11  1  0
 10 12  1  0
 12 17  1  0
 13 12  2  0
 13 14  1  0
 14 15  2  0
 15 16  1  0
 17 16  2  0
 18  4  1  0
 19 20  2  0
 19 18  1  0
 21 19  1  0
 22 20  1  0
  2 23  1  0
  3 24  1  0
  6 25  1  0
  7 26  1  0
 13 27  1  0
 14 28  1  0
 16 29  1  0
 18 30  1  0
 21 31  1  0
 21 32  1  0
M  ISO  7  23  14  24  14  25  14  26  14  27  14  28  14  29  14
M  END
>  <minimizedAffinity>  (1) 
-6.98147488

>  <minimizedRMSD>  (1) 
0.193158016

$$$$
