
     RDKit          3D

 50 52  0  0  1  0  0  0  0  0999 V2000
   45.5810   34.7980   42.5720 C   0  0  2  0  0  0  0  0  0  0  0  0
   44.6870   35.2270   44.9520 C   0  0  0  0  0  0  0  0  0  0  0  0
   45.4570   34.4720   44.0230 C   0  0  0  0  0  0  0  0  0  0  0  0
   46.1110   33.3470   44.5640 C   0  0  0  0  0  0  0  0  0  0  0  0
   45.9390   33.1020   45.8890 N   0  0  0  0  0  0  0  0  0  0  0  0
   45.2070   33.8380   46.7190 C   0  0  0  0  0  0  0  0  0  0  0  0
   44.5540   34.9410   46.2360 N   0  0  0  0  0  0  0  0  0  0  0  0
   46.8760   35.5940   42.4480 C   0  0  0  0  0  0  0  0  0  0  0  0
   47.8450   35.0630   41.5550 N   0  0  0  0  0  0  0  0  0  0  0  0
   49.1480   35.1790   42.1400 C   0  0  0  0  0  0  0  0  0  0  0  0
   49.9550   33.9600   42.2040 C   0  0  0  0  0  0  0  0  0  0  0  0
   49.0660   32.9290   42.5700 O   0  0  0  0  0  0  0  0  0  0  0  0
   48.3670   32.6740   41.4050 C   0  0  0  0  0  0  0  0  0  0  0  0
   47.6050   33.8810   40.8770 C   0  0  2  0  0  0  0  0  0  0  0  0
   48.1340   34.1170   39.4470 C   0  0  0  0  0  0  0  0  0  0  0  0
   44.4380   35.5740   42.1300 C   0  0  0  0  0  0  0  0  0  0  0  0
   43.6160   35.2960   41.0150 N   0  0  0  0  0  0  0  0  0  0  0  0
   42.2350   35.4510   41.4070 C   0  0  0  0  0  0  0  0  0  0  0  0
   41.3160   34.3150   41.2400 C   0  0  0  0  0  0  0  0  0  0  0  0
   41.4940   33.8430   39.7840 C   0  0  0  0  0  0  0  0  0  0  0  0
   42.8730   33.2080   39.8400 C   0  0  0  0  0  0  0  0  0  0  0  0
   43.9260   34.1590   40.2740 C   0  0  0  0  0  0  0  0  0  0  0  0
   45.6046   33.8967   41.9418 H   0  0  0  0  0  0  0  0  0  0  0  0
   44.1625   36.1164   44.5727 H   0  0  0  0  0  0  0  0  0  0  0  0
   46.7360   32.6931   43.9381 H   0  0  0  0  0  0  0  0  0  0  0  0
   45.1265   33.5646   47.7814 H   0  0  0  0  0  0  0  0  0  0  0  0
   46.6182   36.6063   42.1033 H   0  0  0  0  0  0  0  0  0  0  0  0
   47.3408   35.5655   43.4446 H   0  0  0  0  0  0  0  0  0  0  0  0
   49.7110   35.9200   41.5535 H   0  0  0  0  0  0  0  0  0  0  0  0
   48.9682   35.4597   43.1883 H   0  0  0  0  0  0  0  0  0  0  0  0
   50.4055   33.7470   41.2233 H   0  0  0  0  0  0  0  0  0  0  0  0
   50.7797   34.0581   42.9252 H   0  0  0  0  0  0  0  0  0  0  0  0
   49.0816   32.3491   40.6344 H   0  0  0  0  0  0  0  0  0  0  0  0
   47.6227   31.8983   41.6378 H   0  0  0  0  0  0  0  0  0  0  0  0
   46.5326   33.6552   40.9718 H   0  0  0  0  0  0  0  0  0  0  0  0
   49.1375   34.5647   39.4965 H   0  0  0  0  0  0  0  0  0  0  0  0
   48.1867   33.1571   38.9125 H   0  0  0  0  0  0  0  0  0  0  0  0
   47.4549   34.7975   38.9125 H   0  0  0  0  0  0  0  0  0  0  0  0
   43.7546   35.5933   42.9917 H   0  0  0  0  0  0  0  0  0  0  0  0
   44.9577   36.4683   41.7557 H   0  0  0  0  0  0  0  0  0  0  0  0
   42.2304   35.7154   42.4747 H   0  0  0  0  0  0  0  0  0  0  0  0
   41.8464   36.2099   40.7120 H   0  0  0  0  0  0  0  0  0  0  0  0
   41.5751   33.5064   41.9394 H   0  0  0  0  0  0  0  0  0  0  0  0
   40.2748   34.6019   41.4486 H   0  0  0  0  0  0  0  0  0  0  0  0
   41.4690   34.6888   39.0811 H   0  0  0  0  0  0  0  0  0  0  0  0
   40.7018   33.1663   39.4311 H   0  0  0  0  0  0  0  0  0  0  0  0
   42.8445   32.3675   40.5490 H   0  0  0  0  0  0  0  0  0  0  0  0
   43.1261   32.8748   38.8227 H   0  0  0  0  0  0  0  0  0  0  0  0
   44.6387   33.5788   40.8786 H   0  0  0  0  0  0  0  0  0  0  0  0
   44.2700   34.5841   39.3196 H   0  0  0  0  0  0  0  0  0  0  0  0
  1  3  1  0
  2  7  2  0
  3  4  2  0
  3  2  1  0
  4  5  1  0
  5  6  2  0
  7  6  1  0
  8  1  1  0
  9 10  1  0
  9  8  1  0
 10 11  1  0
 11 12  1  0
 13 12  1  0
 14 13  1  0
 14  9  1  0
 15 14  1  0
 16  1  1  0
 17 18  1  0
 17 16  1  0
 19 18  1  0
 20 21  1  0
 20 19  1  0
 21 22  1  0
 22 17  1  0
  1 23  1  6
  2 24  1  0
  4 25  1  0
  6 26  1  0
  8 27  1  0
  8 28  1  0
 10 29  1  0
 10 30  1  0
 11 31  1  0
 11 32  1  0
 13 33  1  0
 13 34  1  0
 14 35  1  6
 15 36  1  0
 15 37  1  0
 15 38  1  0
 16 39  1  0
 16 40  1  0
 18 41  1  0
 18 42  1  0
 19 43  1  0
 19 44  1  0
 20 45  1  0
 20 46  1  0
 21 47  1  0
 21 48  1  0
 22 49  1  0
 22 50  1  0
M  ISO  8  23   8  24  14  25  14  26  14  27   8  28   8  29  13  30  13
M  ISO  8  31  13  32  13  33  13  34  13  35  13  36   8  37   8  38   8
M  ISO  8  39   8  40   8  41  13  42  13  43  13  44  13  45  13  46  13
M  ISO  4  47  13  48  13  49  13  50  13
M  END
>  <minimizedAffinity>  (1) 
-4.99319172

>  <minimizedRMSD>  (1) 
2.31456256

$$$$
