
     RDKit          3D

 30 32  0  0  0  0  0  0  0  0999 V2000
   46.9520   34.7980   42.1010 C   0  0  0  0  0  0  0  0  0  0  0  0
   48.2520   35.2450   41.9200 C   0  0  0  0  0  0  0  0  0  0  0  0
   48.5100   34.9340   40.5870 C   0  0  0  0  0  0  0  0  0  0  0  0
   47.3980   34.3350   40.0380 C   0  0  0  0  0  0  0  0  0  0  0  0
   46.5080   34.2870   41.0020 O   0  0  0  0  0  0  0  0  0  0  0  0
   44.4900   35.9060   44.6550 C   0  0  0  0  0  0  0  0  0  0  0  0
   45.2340   35.8690   43.4530 C   0  0  0  0  0  0  0  0  0  0  0  0
   46.1680   34.8700   43.3210 C   0  0  0  0  0  0  0  0  0  0  0  0
   46.3540   33.9560   44.3290 N   0  0  0  0  0  0  0  0  0  0  0  0
   45.6100   34.0370   45.4680 C   0  0  0  0  0  0  0  0  0  0  0  0
   44.6810   35.0130   45.6230 N   0  0  0  0  0  0  0  0  0  0  0  0
   45.9340   32.9790   46.4520 C   0  0  0  0  0  0  0  0  0  0  0  0
   46.9410   32.0610   46.2110 C   0  0  0  0  0  0  0  0  0  0  0  0
   46.8850   31.0180   47.7480 S   0  0  0  0  0  0  0  0  0  0  0  0
   45.4580   32.0740   48.4340 C   0  0  0  0  0  0  0  0  0  0  0  0
   45.2890   32.8510   47.6070 N   0  0  0  0  0  0  0  0  0  0  0  0
   47.2490   33.8670   38.7100 N   0  0  0  0  0  0  0  0  0  0  0  0
   48.2860   33.9750   37.7560 C   0  0  0  0  0  0  0  0  0  0  0  0
   49.0370   35.0590   37.8010 N   0  0  0  0  0  0  0  0  0  0  0  0
   48.4360   32.8930   36.8130 N   0  0  0  0  0  0  0  0  0  0  0  0
   49.8320   35.0600   37.1250 H   0  0  0  0  0  0  0  0  0  0  0  0
   48.9174   35.7276   42.6510 H   0  0  0  0  0  0  0  0  0  0  0  0
   49.4526   35.1350   40.0568 H   0  0  0  0  0  0  0  0  0  0  0  0
   43.7341   36.6930   44.7934 H   0  0  0  0  0  0  0  0  0  0  0  0
   45.0716   36.6098   42.6562 H   0  0  0  0  0  0  0  0  0  0  0  0
   47.6027   31.9718   45.3368 H   0  0  0  0  0  0  0  0  0  0  0  0
   44.9252   31.9658   49.3902 H   0  0  0  0  0  0  0  0  0  0  0  0
   46.3570   33.4344   38.4306 H   0  0  0  0  0  0  0  0  0  0  0  0
   47.8009   32.0831   36.8532 H   0  0  0  0  0  0  0  0  0  0  0  0
   49.1781   32.9306   36.0997 H   0  0  0  0  0  0  0  0  0  0  0  0
  1  8  1  0
  2  1  2  0
  3  2  1  0
  4  3  2  0
  4  5  1  0
  5  1  1  0
  6 11  2  0
  7  6  1  0
  8  7  2  0
  8  9  1  0
  9 10  2  0
 10 11  1  0
 10 12  1  0
 12 16  1  0
 13 12  2  0
 13 14  1  0
 14 15  1  0
 16 15  2  0
 17  4  1  0
 18 19  2  0
 18 17  1  0
 20 18  1  0
 21 19  1  0
  2 22  1  0
  3 23  1  0
  6 24  1  0
  7 25  1  0
 13 26  1  0
 15 27  1  0
 17 28  1  0
 20 29  1  0
 20 30  1  0
M  ISO  6  22  14  23  14  24  14  25  14  26  14  27  14
M  END
>  <minimizedAffinity>  (1) 
-6.72982693

>  <minimizedRMSD>  (1) 
0.377178878

$$$$
