
     RDKit          3D

 36 37  0  0  0  0  0  0  0  0999 V2000
   46.9530   34.6640   42.2830 C   0  0  0  0  0  0  0  0  0  0  0  0
   48.2390   35.1270   42.0980 C   0  0  0  0  0  0  0  0  0  0  0  0
   48.4690   34.8890   40.7300 C   0  0  0  0  0  0  0  0  0  0  0  0
   47.3420   34.3130   40.1830 C   0  0  0  0  0  0  0  0  0  0  0  0
   46.4770   34.2110   41.1730 O   0  0  0  0  0  0  0  0  0  0  0  0
   44.5730   35.6180   44.9730 C   0  0  0  0  0  0  0  0  0  0  0  0
   45.2810   35.6690   43.7410 C   0  0  0  0  0  0  0  0  0  0  0  0
   46.1950   34.6650   43.5290 C   0  0  0  0  0  0  0  0  0  0  0  0
   46.3840   33.6970   44.4630 N   0  0  0  0  0  0  0  0  0  0  0  0
   45.6850   33.6860   45.6240 C   0  0  0  0  0  0  0  0  0  0  0  0
   44.7790   34.6500   45.8770 N   0  0  0  0  0  0  0  0  0  0  0  0
   45.9600   32.5870   46.5860 C   0  0  0  0  0  0  0  0  0  0  0  0
   45.0060   32.6750   47.7310 C   0  0  0  0  0  0  0  0  0  0  0  0
   47.3600   32.7630   47.1790 C   0  0  0  0  0  0  0  0  0  0  0  0
   45.8690   31.2520   45.8870 C   0  0  0  0  0  0  0  0  0  0  0  0
   47.1600   33.9190   38.8400 N   0  0  0  0  0  0  0  0  0  0  0  0
   48.1850   34.0300   37.8730 C   0  0  0  0  0  0  0  0  0  0  0  0
   48.9680   35.0870   37.9540 N   0  0  0  0  0  0  0  0  0  0  0  0
   48.2960   32.9850   36.8760 N   0  0  0  0  0  0  0  0  0  0  0  0
   49.7400   35.1070   37.2540 H   0  0  0  0  0  0  0  0  0  0  0  0
   48.9188   35.5733   42.8387 H   0  0  0  0  0  0  0  0  0  0  0  0
   49.3959   35.1240   40.1863 H   0  0  0  0  0  0  0  0  0  0  0  0
   43.8307   36.3998   45.1918 H   0  0  0  0  0  0  0  0  0  0  0  0
   45.1074   36.4647   43.0016 H   0  0  0  0  0  0  0  0  0  0  0  0
   45.5637   32.6236   48.6777 H   0  0  0  0  0  0  0  0  0  0  0  0
   44.4582   33.6275   47.6795 H   0  0  0  0  0  0  0  0  0  0  0  0
   44.2932   31.8388   47.6795 H   0  0  0  0  0  0  0  0  0  0  0  0
   47.2967   32.7550   48.2771 H   0  0  0  0  0  0  0  0  0  0  0  0
   48.0068   31.9391   46.8430 H   0  0  0  0  0  0  0  0  0  0  0  0
   47.7827   33.7214   46.8430 H   0  0  0  0  0  0  0  0  0  0  0  0
   45.8142   30.4487   46.6365 H   0  0  0  0  0  0  0  0  0  0  0  0
   44.9672   31.2284   45.2576 H   0  0  0  0  0  0  0  0  0  0  0  0
   46.7593   31.1062   45.2576 H   0  0  0  0  0  0  0  0  0  0  0  0
   46.2473   33.5368   38.5542 H   0  0  0  0  0  0  0  0  0  0  0  0
   47.6394   32.1915   36.8864 H   0  0  0  0  0  0  0  0  0  0  0  0
   49.0315   33.0355   36.1567 H   0  0  0  0  0  0  0  0  0  0  0  0
  1  8  1  0
  2  1  2  0
  3  2  1  0
  4  3  2  0
  4  5  1  0
  5  1  1  0
  6 11  2  0
  7  6  1  0
  8  7  2  0
  8  9  1  0
  9 10  2  0
 10 11  1  0
 10 12  1  0
 12 14  1  0
 12 13  1  0
 15 12  1  0
 16  4  1  0
 17 18  2  0
 17 16  1  0
 19 17  1  0
 20 18  1  0
  2 21  1  0
  3 22  1  0
  6 23  1  0
  7 24  1  0
 13 25  1  0
 13 26  1  0
 13 27  1  0
 14 28  1  0
 14 29  1  0
 14 30  1  0
 15 31  1  0
 15 32  1  0
 15 33  1  0
 16 34  1  0
 19 35  1  0
 19 36  1  0
M  ISO  8  21  14  22  14  23  14  24  14  25   8  26   8  27   8  28   8
M  ISO  5  29   8  30   8  31   8  32   8  33   8
M  END
>  <minimizedAffinity>  (1) 
-5.97364187

>  <minimizedRMSD>  (1) 
0.367264241

$$$$
