
     RDKit          3D

 26 27  0  0  0  0  0  0  0  0999 V2000
   46.9440   34.8300   42.0680 C   0  0  0  0  0  0  0  0  0  0  0  0
   48.2480   35.2280   41.9100 C   0  0  0  0  0  0  0  0  0  0  0  0
   48.5300   34.9020   40.5760 C   0  0  0  0  0  0  0  0  0  0  0  0
   47.4050   34.3370   40.0140 C   0  0  0  0  0  0  0  0  0  0  0  0
   46.5030   34.3280   40.9640 O   0  0  0  0  0  0  0  0  0  0  0  0
   44.5160   36.0900   44.5840 C   0  0  0  0  0  0  0  0  0  0  0  0
   45.2910   36.0110   43.4140 C   0  0  0  0  0  0  0  0  0  0  0  0
   46.1300   34.9330   43.2750 C   0  0  0  0  0  0  0  0  0  0  0  0
   46.2050   33.9660   44.2490 N   0  0  0  0  0  0  0  0  0  0  0  0
   45.4350   34.0820   45.3690 C   0  0  0  0  0  0  0  0  0  0  0  0
   44.5910   35.1450   45.5330 N   0  0  0  0  0  0  0  0  0  0  0  0
   45.5590   33.0470   46.3420 N   0  0  0  0  0  0  0  0  0  0  0  0
   47.2620   33.8670   38.6890 N   0  0  0  0  0  0  0  0  0  0  0  0
   48.2990   33.9700   37.7370 C   0  0  0  0  0  0  0  0  0  0  0  0
   49.0410   35.0470   37.7790 N   0  0  0  0  0  0  0  0  0  0  0  0
   48.4760   32.8960   36.7860 N   0  0  0  0  0  0  0  0  0  0  0  0
   49.8150   35.0830   37.0830 H   0  0  0  0  0  0  0  0  0  0  0  0
   48.9132   35.6921   42.6530 H   0  0  0  0  0  0  0  0  0  0  0  0
   49.4888   35.0691   40.0633 H   0  0  0  0  0  0  0  0  0  0  0  0
   43.8353   36.9427   44.7240 H   0  0  0  0  0  0  0  0  0  0  0  0
   45.2275   36.7863   42.6363 H   0  0  0  0  0  0  0  0  0  0  0  0
   45.0011   33.0839   47.2070 H   0  0  0  0  0  0  0  0  0  0  0  0
   46.2065   32.2625   46.1798 H   0  0  0  0  0  0  0  0  0  0  0  0
   46.3704   33.4344   38.4083 H   0  0  0  0  0  0  0  0  0  0  0  0
   47.8525   32.0766   36.8126 H   0  0  0  0  0  0  0  0  0  0  0  0
   49.2257   32.9501   36.0817 H   0  0  0  0  0  0  0  0  0  0  0  0
  1  8  1  0
  2  1  2  0
  3  2  1  0
  4  3  2  0
  4  5  1  0
  5  1  1  0
  6 11  2  0
  7  6  1  0
  8  7  2  0
  8  9  1  0
  9 10  2  0
 10 11  1  0
 10 12  1  0
 13  4  1  0
 14 15  2  0
 14 13  1  0
 16 14  1  0
 17 15  1  0
  2 18  1  0
  3 19  1  0
  6 20  1  0
  7 21  1  0
 12 22  1  0
 12 23  1  0
 13 24  1  0
 16 25  1  0
 16 26  1  0
M  ISO  4  18  14  19  14  20  14  21  14
M  END
>  <minimizedAffinity>  (1) 
-6.03043652

>  <minimizedRMSD>  (1) 
0.128662795

$$$$
