
     RDKit          3D

 30 31  0  0  0  0  0  0  0  0999 V2000
   47.0400   34.7470   42.1000 C   0  0  0  0  0  0  0  0  0  0  0  0
   48.2770   35.3040   41.8700 C   0  0  0  0  0  0  0  0  0  0  0  0
   48.5070   35.0400   40.5150 C   0  0  0  0  0  0  0  0  0  0  0  0
   47.4270   34.3530   40.0070 C   0  0  0  0  0  0  0  0  0  0  0  0
   46.5910   34.2150   41.0140 O   0  0  0  0  0  0  0  0  0  0  0  0
   44.5970   35.5810   44.7770 C   0  0  0  0  0  0  0  0  0  0  0  0
   45.2920   35.6420   43.5380 C   0  0  0  0  0  0  0  0  0  0  0  0
   46.2980   34.7250   43.3540 C   0  0  0  0  0  0  0  0  0  0  0  0
   46.6080   33.8040   44.3230 N   0  0  0  0  0  0  0  0  0  0  0  0
   45.9040   33.7940   45.4940 C   0  0  0  0  0  0  0  0  0  0  0  0
   44.9040   34.6840   45.7120 N   0  0  0  0  0  0  0  0  0  0  0  0
   46.2070   32.8120   46.5710 C   0  0  0  0  0  0  0  0  0  0  0  0
   45.1960   32.8580   47.6710 C   0  0  0  0  0  0  0  0  0  0  0  0
   47.2570   33.8950   38.6800 N   0  0  0  0  0  0  0  0  0  0  0  0
   48.2920   33.9770   37.7170 C   0  0  0  0  0  0  0  0  0  0  0  0
   49.0640   35.0300   37.7650 N   0  0  0  0  0  0  0  0  0  0  0  0
   48.4200   32.9010   36.7590 N   0  0  0  0  0  0  0  0  0  0  0  0
   49.8500   35.0320   37.0770 H   0  0  0  0  0  0  0  0  0  0  0  0
   48.9296   35.8311   42.5815 H   0  0  0  0  0  0  0  0  0  0  0  0
   49.4033   35.3331   39.9487 H   0  0  0  0  0  0  0  0  0  0  0  0
   43.7826   36.2951   44.9685 H   0  0  0  0  0  0  0  0  0  0  0  0
   45.0374   36.3845   42.7674 H   0  0  0  0  0  0  0  0  0  0  0  0
   46.2148   31.8009   46.1378 H   0  0  0  0  0  0  0  0  0  0  0  0
   47.1871   33.0689   46.9992 H   0  0  0  0  0  0  0  0  0  0  0  0
   45.7104   32.8346   48.6430 H   0  0  0  0  0  0  0  0  0  0  0  0
   44.6076   33.7838   47.5897 H   0  0  0  0  0  0  0  0  0  0  0  0
   44.5260   31.9894   47.5897 H   0  0  0  0  0  0  0  0  0  0  0  0
   46.3513   33.4887   38.4050 H   0  0  0  0  0  0  0  0  0  0  0  0
   47.7682   32.1040   36.7895 H   0  0  0  0  0  0  0  0  0  0  0  0
   49.1629   32.9317   36.0462 H   0  0  0  0  0  0  0  0  0  0  0  0
  1  8  1  0
  2  1  2  0
  3  2  1  0
  4  3  2  0
  4  5  1  0
  5  1  1  0
  6 11  2  0
  7  6  1  0
  8  7  2  0
  8  9  1  0
  9 10  2  0
 10 11  1  0
 10 12  1  0
 12 13  1  0
 14  4  1  0
 15 16  2  0
 15 14  1  0
 17 15  1  0
 18 16  1  0
  2 19  1  0
  3 20  1  0
  6 21  1  0
  7 22  1  0
 12 23  1  0
 12 24  1  0
 13 25  1  0
 13 26  1  0
 13 27  1  0
 14 28  1  0
 17 29  1  0
 17 30  1  0
M  ISO  8  19  14  20  14  21  14  22  14  23   8  24   8  25   8  26   8
M  ISO  1  27   8
M  END
>  <minimizedAffinity>  (1) 
-5.97858238

>  <minimizedRMSD>  (1) 
0.343331397

$$$$
