
     RDKit          3D

 33 34  0  0  0  0  0  0  0  0999 V2000
   47.0130   34.7570   42.1150 C   0  0  0  0  0  0  0  0  0  0  0  0
   48.2570   35.2800   41.8940 C   0  0  0  0  0  0  0  0  0  0  0  0
   48.5050   35.0060   40.5470 C   0  0  0  0  0  0  0  0  0  0  0  0
   47.4120   34.3420   40.0320 C   0  0  0  0  0  0  0  0  0  0  0  0
   46.5640   34.2300   41.0240 O   0  0  0  0  0  0  0  0  0  0  0  0
   44.5510   35.6890   44.7400 C   0  0  0  0  0  0  0  0  0  0  0  0
   45.2720   35.6970   43.5320 C   0  0  0  0  0  0  0  0  0  0  0  0
   46.2610   34.7610   43.3560 C   0  0  0  0  0  0  0  0  0  0  0  0
   46.5300   33.8440   44.3430 N   0  0  0  0  0  0  0  0  0  0  0  0
   45.8080   33.8640   45.5050 C   0  0  0  0  0  0  0  0  0  0  0  0
   44.8210   34.7900   45.6940 N   0  0  0  0  0  0  0  0  0  0  0  0
   46.1750   32.8310   46.5100 C   0  0  0  0  0  0  0  0  0  0  0  0
   46.2100   31.4360   45.8990 C   0  0  0  0  0  0  0  0  0  0  0  0
   45.2300   32.7970   47.6710 C   0  0  0  0  0  0  0  0  0  0  0  0
   47.2400   33.8760   38.7010 N   0  0  0  0  0  0  0  0  0  0  0  0
   48.2790   33.9780   37.7410 C   0  0  0  0  0  0  0  0  0  0  0  0
   49.0440   35.0290   37.7800 N   0  0  0  0  0  0  0  0  0  0  0  0
   48.4240   32.9130   36.7840 N   0  0  0  0  0  0  0  0  0  0  0  0
   49.8190   35.0650   37.0850 H   0  0  0  0  0  0  0  0  0  0  0  0
   48.9113   35.7971   42.6113 H   0  0  0  0  0  0  0  0  0  0  0  0
   49.4162   35.2741   39.9922 H   0  0  0  0  0  0  0  0  0  0  0  0
   43.7553   36.4310   44.9025 H   0  0  0  0  0  0  0  0  0  0  0  0
   45.0488   36.4352   42.7476 H   0  0  0  0  0  0  0  0  0  0  0  0
   47.1768   33.1168   46.8633 H   0  0  0  0  0  0  0  0  0  0  0  0
   46.2289   30.6844   46.7019 H   0  0  0  0  0  0  0  0  0  0  0  0
   45.3153   31.2856   45.2769 H   0  0  0  0  0  0  0  0  0  0  0  0
   47.1111   31.3307   45.2769 H   0  0  0  0  0  0  0  0  0  0  0  0
   45.8022   32.8176   48.6102 H   0  0  0  0  0  0  0  0  0  0  0  0
   44.5645   33.6718   47.6278 H   0  0  0  0  0  0  0  0  0  0  0  0
   44.6291   31.8767   47.6278 H   0  0  0  0  0  0  0  0  0  0  0  0
   46.3409   33.4548   38.4271 H   0  0  0  0  0  0  0  0  0  0  0  0
   47.7827   32.1074   36.8089 H   0  0  0  0  0  0  0  0  0  0  0  0
   49.1691   32.9564   36.0742 H   0  0  0  0  0  0  0  0  0  0  0  0
  1  8  1  0
  2  1  2  0
  3  2  1  0
  4  3  2  0
  4  5  1  0
  5  1  1  0
  6 11  2  0
  7  6  1  0
  8  7  2  0
  8  9  1  0
  9 10  2  0
 10 11  1  0
 10 12  1  0
 12 14  1  0
 13 12  1  0
 15  4  1  0
 16 17  2  0
 16 15  1  0
 18 16  1  0
 19 17  1  0
  2 20  1  0
  3 21  1  0
  6 22  1  0
  7 23  1  0
 12 24  1  0
 13 25  1  0
 13 26  1  0
 13 27  1  0
 14 28  1  0
 14 29  1  0
 14 30  1  0
 15 31  1  0
 18 32  1  0
 18 33  1  0
M  ISO  8  20  14  21  14  22  14  23  14  24   8  25   8  26   8  27   8
M  ISO  3  28   8  29   8  30   8
M  END
>  <minimizedAffinity>  (1) 
-6.23746872

>  <minimizedRMSD>  (1) 
0.386202782

$$$$
