
     RDKit          3D

 31 33  0  0  0  0  0  0  0  0999 V2000
   47.0530   34.7400   42.0990 C   0  0  0  0  0  0  0  0  0  0  0  0
   48.3010   35.2820   41.8640 C   0  0  0  0  0  0  0  0  0  0  0  0
   48.5210   35.0140   40.5120 C   0  0  0  0  0  0  0  0  0  0  0  0
   47.4300   34.3420   40.0080 C   0  0  0  0  0  0  0  0  0  0  0  0
   46.5970   34.2170   41.0140 O   0  0  0  0  0  0  0  0  0  0  0  0
   44.5690   35.5410   44.7490 C   0  0  0  0  0  0  0  0  0  0  0  0
   45.2490   35.5920   43.5030 C   0  0  0  0  0  0  0  0  0  0  0  0
   46.3200   34.7320   43.3540 C   0  0  0  0  0  0  0  0  0  0  0  0
   46.6760   33.8930   44.3690 N   0  0  0  0  0  0  0  0  0  0  0  0
   46.0030   33.8730   45.5440 C   0  0  0  0  0  0  0  0  0  0  0  0
   44.9390   34.7110   45.7230 N   0  0  0  0  0  0  0  0  0  0  0  0
   46.4890   32.9180   46.5650 C   0  0  0  0  0  0  0  0  0  0  0  0
   45.4210   32.4420   47.5680 C   0  0  0  0  0  0  0  0  0  0  0  0
   45.9410   31.5080   46.4810 C   0  0  0  0  0  0  0  0  0  0  0  0
   47.2500   33.8860   38.6840 N   0  0  0  0  0  0  0  0  0  0  0  0
   48.2700   33.9620   37.7140 C   0  0  0  0  0  0  0  0  0  0  0  0
   49.0660   35.0150   37.7480 N   0  0  0  0  0  0  0  0  0  0  0  0
   48.3710   32.8850   36.7540 N   0  0  0  0  0  0  0  0  0  0  0  0
   49.8420   35.0030   37.0580 H   0  0  0  0  0  0  0  0  0  0  0  0
   48.9633   35.8008   42.5727 H   0  0  0  0  0  0  0  0  0  0  0  0
   49.4193   35.2939   39.9422 H   0  0  0  0  0  0  0  0  0  0  0  0
   43.7100   36.2078   44.9148 H   0  0  0  0  0  0  0  0  0  0  0  0
   44.9399   36.2784   42.7009 H   0  0  0  0  0  0  0  0  0  0  0  0
   47.4977   33.3514   46.6337 H   0  0  0  0  0  0  0  0  0  0  0  0
   45.6903   32.2684   48.6203 H   0  0  0  0  0  0  0  0  0  0  0  0
   44.4298   32.7996   47.8837 H   0  0  0  0  0  0  0  0  0  0  0  0
   45.2863   31.2240   45.6439 H   0  0  0  0  0  0  0  0  0  0  0  0
   46.3900   30.5038   46.4752 H   0  0  0  0  0  0  0  0  0  0  0  0
   46.3404   33.4832   38.4172 H   0  0  0  0  0  0  0  0  0  0  0  0
   47.7101   32.0960   36.7937 H   0  0  0  0  0  0  0  0  0  0  0  0
   49.1039   32.9070   36.0306 H   0  0  0  0  0  0  0  0  0  0  0  0
  1  8  1  0
  2  1  2  0
  3  2  1  0
  4  3  2  0
  4  5  1  0
  5  1  1  0
  6 11  2  0
  7  6  1  0
  8  7  2  0
  8  9  1  0
  9 10  2  0
 10 11  1  0
 10 12  1  0
 12 13  1  0
 14 12  1  0
 14 13  1  0
 15  4  1  0
 16 17  2  0
 16 15  1  0
 18 16  1  0
 19 17  1  0
  2 20  1  0
  3 21  1  0
  6 22  1  0
  7 23  1  0
 12 24  1  0
 13 25  1  0
 13 26  1  0
 14 27  1  0
 14 28  1  0
 15 29  1  0
 18 30  1  0
 18 31  1  0
M  ISO  8  20  14  21  14  22  14  23  14  24  13  25  13  26  13  27  13
M  ISO  1  28  13
M  END
>  <minimizedAffinity>  (1) 
-6.16768312

>  <minimizedRMSD>  (1) 
0.379219443

$$$$
