
     RDKit          3D

 42 44  0  0  1  0  0  0  0  0999 V2000
   45.6490   34.8630   42.6180 C   0  0  2  0  0  0  0  0  0  0  0  0
   44.7180   35.1770   44.9920 C   0  0  0  0  0  0  0  0  0  0  0  0
   45.5190   34.4650   44.0420 C   0  0  0  0  0  0  0  0  0  0  0  0
   46.1950   33.3460   44.5570 C   0  0  0  0  0  0  0  0  0  0  0  0
   46.0310   33.0500   45.8700 N   0  0  0  0  0  0  0  0  0  0  0  0
   45.2750   33.7410   46.7190 C   0  0  0  0  0  0  0  0  0  0  0  0
   44.5930   34.8430   46.2660 N   0  0  0  0  0  0  0  0  0  0  0  0
   46.9380   35.6460   42.5200 C   0  0  0  0  0  0  0  0  0  0  0  0
   47.8860   35.1230   41.5880 N   0  0  0  0  0  0  0  0  0  0  0  0
   49.1990   35.1650   42.1640 C   0  0  0  0  0  0  0  0  0  0  0  0
   49.9770   33.9100   42.1710 C   0  0  0  0  0  0  0  0  0  0  0  0
   49.0490   32.8980   42.4760 O   0  0  0  0  0  0  0  0  0  0  0  0
   48.3360   32.7300   41.3020 C   0  0  0  0  0  0  0  0  0  0  0  0
   47.6130   33.9880   40.8370 C   0  0  2  0  0  0  0  0  0  0  0  0
   48.1760   34.2890   39.4410 C   0  0  0  0  0  0  0  0  0  0  0  0
   44.4770   35.6160   42.1900 C   0  0  0  0  0  0  0  0  0  0  0  0
   43.6460   35.1090   41.0900 C   0  0  0  0  0  0  0  0  0  0  0  0
   42.2970   35.5070   41.1930 C   0  0  0  0  0  0  0  0  0  0  0  0
   41.5630   35.0030   40.1490 C   0  0  0  0  0  0  0  0  0  0  0  0
   42.4320   34.3050   39.4080 N   0  0  0  0  0  0  0  0  0  0  0  0
   43.5970   34.3860   39.9680 N   0  0  0  0  0  0  0  0  0  0  0  0
   45.6929   33.9979   41.9400 H   0  0  0  0  0  0  0  0  0  0  0  0
   44.1691   36.0622   44.6382 H   0  0  0  0  0  0  0  0  0  0  0  0
   46.8386   32.7280   43.9136 H   0  0  0  0  0  0  0  0  0  0  0  0
   45.1972   33.4329   47.7721 H   0  0  0  0  0  0  0  0  0  0  0  0
   46.6917   36.6744   42.2173 H   0  0  0  0  0  0  0  0  0  0  0  0
   47.4124   35.5877   43.5107 H   0  0  0  0  0  0  0  0  0  0  0  0
   49.7815   35.9115   41.6041 H   0  0  0  0  0  0  0  0  0  0  0  0
   49.0337   35.4001   43.2258 H   0  0  0  0  0  0  0  0  0  0  0  0
   50.4301   33.7324   41.1845 H   0  0  0  0  0  0  0  0  0  0  0  0
   50.8009   33.9430   42.8991 H   0  0  0  0  0  0  0  0  0  0  0  0
   49.0362   32.4203   40.5122 H   0  0  0  0  0  0  0  0  0  0  0  0
   47.5644   31.9718   41.5012 H   0  0  0  0  0  0  0  0  0  0  0  0
   46.5326   33.7922   40.9028 H   0  0  0  0  0  0  0  0  0  0  0  0
   49.1422   34.8056   39.5389 H   0  0  0  0  0  0  0  0  0  0  0  0
   48.3181   33.3465   38.8919 H   0  0  0  0  0  0  0  0  0  0  0  0
   47.4712   34.9306   38.8919 H   0  0  0  0  0  0  0  0  0  0  0  0
   43.8208   35.7102   43.0678 H   0  0  0  0  0  0  0  0  0  0  0  0
   44.9047   36.5431   41.7806 H   0  0  0  0  0  0  0  0  0  0  0  0
   41.8895   36.1348   41.9991 H   0  0  0  0  0  0  0  0  0  0  0  0
   40.4883   35.1429   39.9609 H   0  0  0  0  0  0  0  0  0  0  0  0
   42.2123   33.7922   38.5422 H   0  0  0  0  0  0  0  0  0  0  0  0
  1  3  1  0
  2  7  2  0
  3  4  2  0
  3  2  1  0
  4  5  1  0
  5  6  2  0
  7  6  1  0
  8  1  1  0
  9 10  1  0
  9  8  1  0
 10 11  1  0
 11 12  1  0
 13 12  1  0
 14 13  1  0
 14  9  1  0
 15 14  1  0
 16  1  1  0
 17 18  1  0
 17 16  1  0
 19 18  2  0
 20 21  1  0
 20 19  1  0
 21 17  2  0
  1 22  1  6
  2 23  1  0
  4 24  1  0
  6 25  1  0
  8 26  1  0
  8 27  1  0
 10 28  1  0
 10 29  1  0
 11 30  1  0
 11 31  1  0
 13 32  1  0
 13 33  1  0
 14 34  1  6
 15 35  1  0
 15 36  1  0
 15 37  1  0
 16 38  1  0
 16 39  1  0
 18 40  1  0
 19 41  1  0
 20 42  1  0
M  ISO  8  22   8  23  14  24  14  25  14  26   8  27   8  28  13  29  13
M  ISO  8  30  13  31  13  32  13  33  13  34  13  35   8  36   8  37   8
M  ISO  5  38   8  39   8  40  14  41  14  42   9
M  END
>  <minimizedAffinity>  (1) 
-4.93003368

>  <minimizedRMSD>  (1) 
1.97909296

$$$$
