
     RDKit          3D

 38 40  0  0  1  0  0  0  0  0999 V2000
   44.6000   35.6190   44.8740 C   0  0  0  0  0  0  0  0  0  0  0  0
   45.3100   35.6990   43.6520 C   0  0  0  0  0  0  0  0  0  0  0  0
   46.2050   34.7020   43.4020 C   0  0  0  0  0  0  0  0  0  0  0  0
   46.3810   33.6890   44.3180 N   0  0  0  0  0  0  0  0  0  0  0  0
   45.6890   33.6420   45.4740 C   0  0  0  0  0  0  0  0  0  0  0  0
   44.7900   34.6170   45.7540 N   0  0  0  0  0  0  0  0  0  0  0  0
   45.8990   32.5840   46.3870 N   0  0  0  0  0  0  0  0  0  0  0  0
   46.8620   31.5510   46.0750 C   0  0  0  0  0  0  0  0  0  0  0  0
   46.2600   30.2090   46.4290 C   0  0  0  0  0  0  0  0  0  0  0  0
   45.6590   30.1680   47.6620 O   0  0  0  0  0  0  0  0  0  0  0  0
   45.7520   31.3390   48.3990 C   0  0  0  0  0  0  0  0  0  0  0  0
   45.1670   32.5190   47.6280 C   0  0  1  0  0  0  0  0  0  0  0  0
   46.9680   34.7190   42.1680 C   0  0  0  0  0  0  0  0  0  0  0  0
   48.2290   35.2620   41.9740 C   0  0  0  0  0  0  0  0  0  0  0  0
   48.4910   35.0080   40.6190 C   0  0  0  0  0  0  0  0  0  0  0  0
   47.4120   34.3490   40.0890 C   0  0  0  0  0  0  0  0  0  0  0  0
   46.5460   34.2120   41.0710 O   0  0  0  0  0  0  0  0  0  0  0  0
   47.2630   33.9060   38.7530 N   0  0  0  0  0  0  0  0  0  0  0  0
   48.2910   34.0340   37.7970 C   0  0  0  0  0  0  0  0  0  0  0  0
   49.0410   35.1120   37.8530 N   0  0  0  0  0  0  0  0  0  0  0  0
   48.4560   32.9830   36.8220 N   0  0  0  0  0  0  0  0  0  0  0  0
   49.8210   35.1530   37.1700 H   0  0  0  0  0  0  0  0  0  0  0  0
   45.3560   33.6640   48.3990 O   0  0  0  0  0  0  0  0  0  0  0  0
   43.8668   36.4032   45.1136 H   0  0  0  0  0  0  0  0  0  0  0  0
   45.1479   36.5228   42.9413 H   0  0  0  0  0  0  0  0  0  0  0  0
   47.1009   31.5787   45.0016 H   0  0  0  0  0  0  0  0  0  0  0  0
   47.7862   31.7122   46.6493 H   0  0  0  0  0  0  0  0  0  0  0  0
   45.5051   29.9587   45.6691 H   0  0  0  0  0  0  0  0  0  0  0  0
   47.0909   29.4887   46.4591 H   0  0  0  0  0  0  0  0  0  0  0  0
   45.1987   31.2155   49.3417 H   0  0  0  0  0  0  0  0  0  0  0  0
   46.8141   31.5434   48.5992 H   0  0  0  0  0  0  0  0  0  0  0  0
   44.0912   32.4208   47.4204 H   0  0  0  0  0  0  0  0  0  0  0  0
   48.8713   35.7709   42.7078 H   0  0  0  0  0  0  0  0  0  0  0  0
   49.4050   35.2893   40.0755 H   0  0  0  0  0  0  0  0  0  0  0  0
   46.3717   33.4748   38.4692 H   0  0  0  0  0  0  0  0  0  0  0  0
   47.8310   32.1644   36.8364 H   0  0  0  0  0  0  0  0  0  0  0  0
   49.1987   33.0514   36.1117 H   0  0  0  0  0  0  0  0  0  0  0  0
   45.3166   33.4256   49.3591 H   0  0  0  0  0  0  0  0  0  0  0  0
  1  6  2  0
  2  1  1  0
  3  2  2  0
  3  4  1  0
  4  5  2  0
  5  6  1  0
  5  7  1  0
  7 12  1  0
  8  7  1  0
  8  9  1  0
  9 10  1  0
 10 11  1  0
 12 23  1  0
 12 11  1  0
 13  3  1  0
 14 13  2  0
 15 14  1  0
 16 15  2  0
 16 17  1  0
 17 13  1  0
 18 16  1  0
 19 20  2  0
 19 18  1  0
 21 19  1  0
 22 20  1  0
  1 24  1  0
  2 25  1  0
  8 26  1  0
  8 27  1  0
  9 28  1  0
  9 29  1  0
 11 30  1  0
 11 31  1  0
 12 32  1  6
 14 33  1  0
 15 34  1  0
 18 35  1  0
 21 36  1  0
 21 37  1  0
 23 38  1  0
M  ISO  8  24  14  25  14  26  13  27  13  28  13  29  13  30  13  31  13
M  ISO  4  32  13  33  14  34  14  38   3
M  END
>  <minimizedAffinity>  (1) 
-7.31919765

>  <minimizedRMSD>  (1) 
0.373230129

$$$$
