
     RDKit          3D

 27 29  0  0  0  0  0  0  0  0999 V2000
   45.4280   36.2170   43.2300 C   0  0  0  0  0  0  0  0  0  0  0  0
   46.0620   34.9640   43.0470 C   0  0  0  0  0  0  0  0  0  0  0  0
   45.9080   34.0020   44.0300 C   0  0  0  0  0  0  0  0  0  0  0  0
   45.1540   34.2880   45.1330 N   0  0  0  0  0  0  0  0  0  0  0  0
   44.5580   35.5110   45.2700 C   0  0  0  0  0  0  0  0  0  0  0  0
   44.7010   36.4630   44.3170 N   0  0  0  0  0  0  0  0  0  0  0  0
   46.8330   34.7910   41.8200 C   0  0  0  0  0  0  0  0  0  0  0  0
   46.0800   34.0290   40.9150 C   0  0  0  0  0  0  0  0  0  0  0  0
   46.5650   33.7030   39.6510 C   0  0  0  0  0  0  0  0  0  0  0  0
   47.8220   34.1500   39.2960 C   0  0  0  0  0  0  0  0  0  0  0  0
   48.5580   34.8980   40.1900 C   0  0  0  0  0  0  0  0  0  0  0  0
   48.0860   35.2240   41.4410 C   0  0  0  0  0  0  0  0  0  0  0  0
   46.5510   32.7160   43.8580 C   0  0  0  0  0  0  0  0  0  0  0  0
   47.9040   32.4530   43.9630 C   0  0  0  0  0  0  0  0  0  0  0  0
   48.0010   31.0910   43.7140 C   0  0  0  0  0  0  0  0  0  0  0  0
   46.7190   30.6080   43.4730 C   0  0  0  0  0  0  0  0  0  0  0  0
   45.8720   31.6270   43.5710 O   0  0  0  0  0  0  0  0  0  0  0  0
   45.5380   36.9977   42.4629 H   0  0  0  0  0  0  0  0  0  0  0  0
   43.9551   35.7244   46.1650 H   0  0  0  0  0  0  0  0  0  0  0  0
   45.0800   33.6796   41.2114 H   0  0  0  0  0  0  0  0  0  0  0  0
   45.9616   33.1043   38.9528 H   0  0  0  0  0  0  0  0  0  0  0  0
   48.2342   33.9105   38.3047 H   0  0  0  0  0  0  0  0  0  0  0  0
   49.5581   35.2467   39.8929 H   0  0  0  0  0  0  0  0  0  0  0  0
   48.7005   35.8224   42.1297 H   0  0  0  0  0  0  0  0  0  0  0  0
   48.7157   33.1595   44.1911 H   0  0  0  0  0  0  0  0  0  0  0  0
   48.9277   30.4984   43.7083 H   0  0  0  0  0  0  0  0  0  0  0  0
   46.4532   29.5659   43.2420 H   0  0  0  0  0  0  0  0  0  0  0  0
  1  6  2  0
  2  1  1  0
  2  3  2  0
  3  4  1  0
  4  5  2  0
  6  5  1  0
  7  2  1  0
  8  7  2  0
  9  8  1  0
 10  9  2  0
 10 11  1  0
 11 12  2  0
 12  7  1  0
 13 14  2  0
 13  3  1  0
 15 14  1  0
 16 17  1  0
 16 15  2  0
 17 13  1  0
  1 18  1  0
  5 19  1  0
  8 20  1  0
  9 21  1  0
 10 22  1  0
 11 23  1  0
 12 24  1  0
 14 25  1  0
 15 26  1  0
 16 27  1  0
M  ISO  8  18  14  19  14  20  14  21  14  22  14  23  14  24  14  25  14
M  ISO  2  26  14  27  14
M  END
>  <minimizedAffinity>  (1) 
-4.97719765

>  <minimizedRMSD>  (1) 
3.56335497

$$$$
