
     RDKit          3D

 40 42  0  0  1  0  0  0  0  0999 V2000
   45.0790   34.7350   45.1760 C   0  0  0  0  0  0  0  0  0  0  0  0
   45.6640   35.0600   43.9200 C   0  0  0  0  0  0  0  0  0  0  0  0
   46.5140   34.1260   43.3930 C   0  0  0  0  0  0  0  0  0  0  0  0
   46.7640   32.9610   44.0590 N   0  0  0  0  0  0  0  0  0  0  0  0
   46.1830   32.6970   45.2540 C   0  0  0  0  0  0  0  0  0  0  0  0
   45.3430   33.5850   45.8070 N   0  0  0  0  0  0  0  0  0  0  0  0
   46.4690   31.4690   45.9210 N   0  0  0  0  0  0  0  0  0  0  0  0
   47.3680   30.5140   45.3100 C   0  0  0  0  0  0  0  0  0  0  0  0
   46.7730   29.1290   45.4580 C   0  0  0  0  0  0  0  0  0  0  0  0
   46.3020   28.8500   46.7140 O   0  0  0  0  0  0  0  0  0  0  0  0
   46.4960   29.8420   47.6410 C   0  0  0  0  0  0  0  0  0  0  0  0
   45.8700   31.1690   47.1970 C   0  0  1  0  0  0  0  0  0  0  0  0
   47.1490   34.3870   42.1100 C   0  0  0  0  0  0  0  0  0  0  0  0
   48.2780   35.1640   41.8820 C   0  0  0  0  0  0  0  0  0  0  0  0
   48.4450   35.0730   40.4890 C   0  0  0  0  0  0  0  0  0  0  0  0
   47.4550   34.2820   39.9660 C   0  0  0  0  0  0  0  0  0  0  0  0
   46.7230   33.9130   41.0000 O   0  0  0  0  0  0  0  0  0  0  0  0
   47.2730   33.9470   38.6180 N   0  0  0  0  0  0  0  0  0  0  0  0
   48.2940   34.0760   37.6530 C   0  0  0  0  0  0  0  0  0  0  0  0
   49.1050   35.1170   37.7750 N   0  0  0  0  0  0  0  0  0  0  0  0
   48.3790   33.0710   36.6100 N   0  0  0  0  0  0  0  0  0  0  0  0
   49.8870   35.1370   37.0820 H   0  0  0  0  0  0  0  0  0  0  0  0
   46.2040   32.2030   48.2040 C   0  0  0  0  0  0  0  0  0  0  0  0
   47.3800   32.1610   48.6900 O   0  0  0  0  0  0  0  0  0  0  0  0
   45.5980   33.2690   48.8210 O   0  0  0  0  0  0  0  0  0  0  0  0
   44.3878   35.4521   45.6429 H   0  0  0  0  0  0  0  0  0  0  0  0
   45.4458   36.0062   43.4033 H   0  0  0  0  0  0  0  0  0  0  0  0
   48.3465   30.5527   45.8111 H   0  0  0  0  0  0  0  0  0  0  0  0
   47.5041   30.7533   44.2450 H   0  0  0  0  0  0  0  0  0  0  0  0
   45.9381   29.0348   44.7480 H   0  0  0  0  0  0  0  0  0  0  0  0
   47.5850   28.4140   45.2595 H   0  0  0  0  0  0  0  0  0  0  0  0
   46.0387   29.5338   48.5928 H   0  0  0  0  0  0  0  0  0  0  0  0
   47.5793   29.9966   47.7535 H   0  0  0  0  0  0  0  0  0  0  0  0
   44.7743   31.1267   47.1093 H   0  0  0  0  0  0  0  0  0  0  0  0
   48.8902   35.7146   42.6114 H   0  0  0  0  0  0  0  0  0  0  0  0
   49.2439   35.5596   39.9102 H   0  0  0  0  0  0  0  0  0  0  0  0
   46.3540   33.5911   38.3185 H   0  0  0  0  0  0  0  0  0  0  0  0
   47.7056   32.2919   36.5895 H   0  0  0  0  0  0  0  0  0  0  0  0
   49.1127   33.1367   35.8901 H   0  0  0  0  0  0  0  0  0  0  0  0
   46.0973   33.8046   49.4872 H   0  0  0  0  0  0  0  0  0  0  0  0
  1  6  2  0
  2  1  1  0
  3  2  2  0
  3  4  1  0
  4  5  2  0
  5  6  1  0
  5  7  1  0
  7 12  1  0
  8  9  1  0
  8  7  1  0
  9 10  1  0
 10 11  1  0
 12 11  1  0
 12 23  1  0
 13  3  1  0
 14 13  2  0
 15 14  1  0
 16 15  2  0
 16 17  1  0
 17 13  1  0
 18 16  1  0
 19 20  2  0
 19 18  1  0
 21 19  1  0
 22 20  1  0
 23 24  2  0
 23 25  1  0
  1 26  1  0
  2 27  1  0
  8 28  1  0
  8 29  1  0
  9 30  1  0
  9 31  1  0
 11 32  1  0
 11 33  1  0
 12 34  1  6
 14 35  1  0
 15 36  1  0
 18 37  1  0
 21 38  1  0
 21 39  1  0
 25 40  1  0
M  ISO  8  26  14  27  14  28  13  29  13  30  13  31  13  32  13  33  13
M  ISO  4  34  13  35  14  36  14  40   3
M  END
>  <minimizedAffinity>  (1) 
-6.70337629

>  <minimizedRMSD>  (1) 
1.52468622

$$$$
