
     RDKit          3D

 19 20  0  0  0  0  0  0  0  0999 V2000
   44.5210   35.5750   44.9830 C   0  0  0  0  0  0  0  0  0  0  0  0
   45.2100   35.6070   43.7490 C   0  0  0  0  0  0  0  0  0  0  0  0
   46.2070   34.6690   43.5330 C   0  0  0  0  0  0  0  0  0  0  0  0
   46.4770   33.7600   44.5150 N   0  0  0  0  0  0  0  0  0  0  0  0
   45.7860   33.7670   45.6900 C   0  0  0  0  0  0  0  0  0  0  0  0
   44.8170   34.6720   45.9140 N   0  0  0  0  0  0  0  0  0  0  0  0
   46.9290   34.6770   42.2740 C   0  0  0  0  0  0  0  0  0  0  0  0
   48.1760   35.1980   42.0380 C   0  0  0  0  0  0  0  0  0  0  0  0
   48.3970   34.9510   40.6980 C   0  0  0  0  0  0  0  0  0  0  0  0
   47.2810   34.2960   40.1870 C   0  0  0  0  0  0  0  0  0  0  0  0
   46.4020   34.1460   41.1850 O   0  0  0  0  0  0  0  0  0  0  0  0
   44.8540   36.5820   42.8060 N   0  0  0  0  0  0  0  0  0  0  0  0
   43.7259   36.3100   45.1769 H   0  0  0  0  0  0  0  0  0  0  0  0
   46.0240   33.0231   46.4646 H   0  0  0  0  0  0  0  0  0  0  0  0
   48.8462   35.6980   42.7528 H   0  0  0  0  0  0  0  0  0  0  0  0
   49.2996   35.2248   40.1320 H   0  0  0  0  0  0  0  0  0  0  0  0
   47.1453   33.9611   39.1480 H   0  0  0  0  0  0  0  0  0  0  0  0
   45.3421   36.6247   41.9000 H   0  0  0  0  0  0  0  0  0  0  0  0
   44.1045   37.2555   43.0194 H   0  0  0  0  0  0  0  0  0  0  0  0
  1  6  2  0
  2  1  1  0
  3  2  2  0
  3  4  1  0
  4  5  2  0
  5  6  1  0
  7  3  1  0
  8  7  2  0
  9  8  1  0
 10  9  2  0
 10 11  1  0
 11  7  1  0
 12  2  1  0
  1 13  1  0
  5 14  1  0
  8 15  1  0
  9 16  1  0
 10 17  1  0
 12 18  1  0
 12 19  1  0
M  ISO  5  13  14  14  14  15  14  16  14  17  14
M  END
>  <minimizedAffinity>  (1) 
-4.54829597

>  <minimizedRMSD>  (1) 
0.467788398

$$$$
