
     RDKit          3D

 26 27  0  0  0  0  0  0  0  0999 V2000
   45.2120   34.4140   44.9400 C   0  0  0  0  0  0  0  0  0  0  0  0
   45.8000   34.7720   43.7060 C   0  0  0  0  0  0  0  0  0  0  0  0
   46.9500   34.0950   43.3120 C   0  0  0  0  0  0  0  0  0  0  0  0
   47.4590   33.1300   44.1100 N   0  0  0  0  0  0  0  0  0  0  0  0
   46.8630   32.8080   45.2990 C   0  0  0  0  0  0  0  0  0  0  0  0
   45.7460   33.4510   45.7040 N   0  0  0  0  0  0  0  0  0  0  0  0
   47.5620   34.4610   42.0370 C   0  0  0  0  0  0  0  0  0  0  0  0
   48.5030   35.4370   41.8220 C   0  0  0  0  0  0  0  0  0  0  0  0
   48.7470   35.3820   40.4640 C   0  0  0  0  0  0  0  0  0  0  0  0
   47.9390   34.3740   39.9260 C   0  0  0  0  0  0  0  0  0  0  0  0
   47.2400   33.8470   40.9220 O   0  0  0  0  0  0  0  0  0  0  0  0
   45.2200   35.8270   42.8620 C   0  0  0  0  0  0  0  0  0  0  0  0
   45.0690   37.1600   43.5520 C   0  0  0  0  0  0  0  0  0  0  0  0
   43.9080   35.3450   42.2980 C   0  0  0  0  0  0  0  0  0  0  0  0
   44.3031   34.9330   45.2784 H   0  0  0  0  0  0  0  0  0  0  0  0
   47.2971   32.0188   45.9304 H   0  0  0  0  0  0  0  0  0  0  0  0
   48.9590   36.1100   42.5631 H   0  0  0  0  0  0  0  0  0  0  0  0
   49.4504   36.0168   39.9052 H   0  0  0  0  0  0  0  0  0  0  0  0
   47.8922   34.0734   38.8689 H   0  0  0  0  0  0  0  0  0  0  0  0
   45.9341   36.0175   42.0473 H   0  0  0  0  0  0  0  0  0  0  0  0
   45.0857   37.0127   44.6420 H   0  0  0  0  0  0  0  0  0  0  0  0
   45.8980   37.8208   43.2586 H   0  0  0  0  0  0  0  0  0  0  0  0
   44.1132   37.6186   43.2586 H   0  0  0  0  0  0  0  0  0  0  0  0
   43.2246   35.0939   43.1225 H   0  0  0  0  0  0  0  0  0  0  0  0
   43.4612   36.1377   41.6799 H   0  0  0  0  0  0  0  0  0  0  0  0
   44.0807   34.4516   41.6799 H   0  0  0  0  0  0  0  0  0  0  0  0
  1  6  2  0
  2  1  1  0
  3  2  2  0
  3  4  1  0
  4  5  2  0
  5  6  1  0
  7  3  1  0
  8  7  2  0
  9  8  1  0
 10  9  2  0
 10 11  1  0
 11  7  1  0
 12 13  1  0
 12  2  1  0
 14 12  1  0
  1 15  1  0
  5 16  1  0
  8 17  1  0
  9 18  1  0
 10 19  1  0
 12 20  1  0
 13 21  1  0
 13 22  1  0
 13 23  1  0
 14 24  1  0
 14 25  1  0
 14 26  1  0
M  ISO  8  15  14  16  14  17  14  18  14  19  14  20   8  21   8  22   8
M  ISO  4  23   8  24   8  25   8  26   8
M  END
>  <minimizedAffinity>  (1) 
-4.57858276

>  <minimizedRMSD>  (1) 
1.36485279

$$$$
