
     RDKit          3D

 23 24  0  0  0  0  0  0  0  0999 V2000
   44.8650   34.9670   44.9550 C   0  0  0  0  0  0  0  0  0  0  0  0
   45.5000   35.1890   43.6950 C   0  0  0  0  0  0  0  0  0  0  0  0
   46.6030   34.4140   43.4120 C   0  0  0  0  0  0  0  0  0  0  0  0
   47.0370   33.4910   44.3160 N   0  0  0  0  0  0  0  0  0  0  0  0
   46.4040   33.3080   45.5050 C   0  0  0  0  0  0  0  0  0  0  0  0
   45.3170   34.0540   45.8130 N   0  0  0  0  0  0  0  0  0  0  0  0
   47.2850   34.6070   42.1390 C   0  0  0  0  0  0  0  0  0  0  0  0
   48.3680   35.4490   41.9070 C   0  0  0  0  0  0  0  0  0  0  0  0
   48.6380   35.2700   40.5640 C   0  0  0  0  0  0  0  0  0  0  0  0
   47.7260   34.3510   40.0580 C   0  0  0  0  0  0  0  0  0  0  0  0
   46.9230   33.9780   41.0600 O   0  0  0  0  0  0  0  0  0  0  0  0
   44.9380   36.1970   42.8070 C   0  0  0  0  0  0  0  0  0  0  0  0
   43.8390   35.5900   41.9200 C   0  0  0  0  0  0  0  0  0  0  0  0
   43.9813   35.5645   45.2233 H   0  0  0  0  0  0  0  0  0  0  0  0
   46.7745   32.5548   46.2159 H   0  0  0  0  0  0  0  0  0  0  0  0
   48.8867   36.1028   42.6236 H   0  0  0  0  0  0  0  0  0  0  0  0
   49.4361   35.7682   39.9940 H   0  0  0  0  0  0  0  0  0  0  0  0
   47.6742   33.9943   39.0187 H   0  0  0  0  0  0  0  0  0  0  0  0
   44.5069   37.0095   43.4104 H   0  0  0  0  0  0  0  0  0  0  0  0
   45.7394   36.5844   42.1607 H   0  0  0  0  0  0  0  0  0  0  0  0
   43.0530   35.1559   42.5555 H   0  0  0  0  0  0  0  0  0  0  0  0
   43.4045   36.3761   41.2849 H   0  0  0  0  0  0  0  0  0  0  0  0
   44.2730   34.8037   41.2849 H   0  0  0  0  0  0  0  0  0  0  0  0
  1  6  2  0
  2  1  1  0
  3  2  2  0
  3  4  1  0
  4  5  2  0
  5  6  1  0
  7  3  1  0
  8  7  2  0
  9  8  1  0
 10  9  2  0
 10 11  1  0
 11  7  1  0
 12  2  1  0
 13 12  1  0
  1 14  1  0
  5 15  1  0
  8 16  1  0
  9 17  1  0
 10 18  1  0
 12 19  1  0
 12 20  1  0
 13 21  1  0
 13 22  1  0
 13 23  1  0
M  ISO  8  14  14  15  14  16  14  17  14  18  14  19   8  20   8  21   8
M  ISO  2  22   8  23   8
M  END
>  <minimizedAffinity>  (1) 
-4.58685255

>  <minimizedRMSD>  (1) 
0.838332355

$$$$
