
     RDKit          3D

 27 29  0  0  0  0  0  0  0  0999 V2000
   45.0830   32.9130   43.9330 C   0  0  0  0  0  0  0  0  0  0  0  0
   45.6340   33.4110   42.7200 C   0  0  0  0  0  0  0  0  0  0  0  0
   47.0100   33.4810   42.6290 C   0  0  0  0  0  0  0  0  0  0  0  0
   47.7690   33.0780   43.6780 N   0  0  0  0  0  0  0  0  0  0  0  0
   47.2120   32.6060   44.8260 C   0  0  0  0  0  0  0  0  0  0  0  0
   45.8770   32.5260   44.9450 N   0  0  0  0  0  0  0  0  0  0  0  0
   44.7450   33.7950   41.7120 N   0  0  0  0  0  0  0  0  0  0  0  0
   44.1930   33.0350   40.7480 C   0  0  0  0  0  0  0  0  0  0  0  0
   43.3230   33.5540   39.8100 C   0  0  0  0  0  0  0  0  0  0  0  0
   42.9720   34.8810   39.8120 C   0  0  0  0  0  0  0  0  0  0  0  0
   42.1850   35.3710   38.9720 O   0  0  0  0  0  0  0  0  0  0  0  0
   43.5400   35.6200   40.7880 N   0  0  0  0  0  0  0  0  0  0  0  0
   44.3900   35.1070   41.7030 C   0  0  0  0  0  0  0  0  0  0  0  0
   44.8400   35.9390   42.5600 O   0  0  0  0  0  0  0  0  0  0  0  0
   47.6010   33.9870   41.3970 C   0  0  0  0  0  0  0  0  0  0  0  0
   48.2410   35.1890   41.2140 C   0  0  0  0  0  0  0  0  0  0  0  0
   48.6110   35.1830   39.8750 C   0  0  0  0  0  0  0  0  0  0  0  0
   48.1740   33.9820   39.3240 C   0  0  0  0  0  0  0  0  0  0  0  0
   47.5650   33.2820   40.2820 O   0  0  0  0  0  0  0  0  0  0  0  0
   43.9908   32.8438   44.0440 H   0  0  0  0  0  0  0  0  0  0  0  0
   47.8570   32.2891   45.6588 H   0  0  0  0  0  0  0  0  0  0  0  0
   44.4434   31.9647   40.7061 H   0  0  0  0  0  0  0  0  0  0  0  0
   42.9011   32.8882   39.0427 H   0  0  0  0  0  0  0  0  0  0  0  0
   43.3142   36.6237   40.8372 H   0  0  0  0  0  0  0  0  0  0  0  0
   48.4200   35.9779   41.9594 H   0  0  0  0  0  0  0  0  0  0  0  0
   49.1512   35.9822   39.3463 H   0  0  0  0  0  0  0  0  0  0  0  0
   48.3078   33.6650   38.2792 H   0  0  0  0  0  0  0  0  0  0  0  0
  1  6  2  0
  2  1  1  0
  3  2  2  0
  3  4  1  0
  4  5  2  0
  5  6  1  0
  7  2  1  0
  8  7  1  0
  9 10  1  0
  9  8  2  0
 10 12  1  0
 11 10  2  0
 12 13  1  0
 13  7  1  0
 13 14  2  0
 15  3  1  0
 16 15  2  0
 17 16  1  0
 18 17  2  0
 18 19  1  0
 19 15  1  0
  1 20  1  0
  5 21  1  0
  8 22  1  0
  9 23  1  0
 12 24  1  0
 16 25  1  0
 17 26  1  0
 18 27  1  0
M  ISO  8  20  14  21  14  22  14  23  14  24   9  25  14  26  14  27  14
M  END
>  <minimizedAffinity>  (1) 
-4.489326

>  <minimizedRMSD>  (1) 
3.04871893

$$$$
