
     RDKit          3D

 28 31  0  0  0  0  0  0  0  0999 V2000
   45.1540   33.8590   44.7460 C   0  0  0  0  0  0  0  0  0  0  0  0
   45.5320   34.0100   43.3910 C   0  0  0  0  0  0  0  0  0  0  0  0
   46.7860   33.5790   43.0100 C   0  0  0  0  0  0  0  0  0  0  0  0
   47.5970   33.0340   43.9360 N   0  0  0  0  0  0  0  0  0  0  0  0
   47.2110   32.8980   45.2400 C   0  0  0  0  0  0  0  0  0  0  0  0
   45.9840   33.3160   45.6310 N   0  0  0  0  0  0  0  0  0  0  0  0
   44.5980   34.5920   42.5220 N   0  0  0  0  0  0  0  0  0  0  0  0
   44.3660   35.8430   42.0820 C   0  0  0  0  0  0  0  0  0  0  0  0
   43.3140   35.8650   41.2300 N   0  0  0  0  0  0  0  0  0  0  0  0
   42.8460   34.5960   41.1100 C   0  0  0  0  0  0  0  0  0  0  0  0
   41.7990   34.0960   40.3690 C   0  0  0  0  0  0  0  0  0  0  0  0
   41.5760   32.7860   40.4540 N   0  0  0  0  0  0  0  0  0  0  0  0
   42.3320   31.9810   41.2250 C   0  0  0  0  0  0  0  0  0  0  0  0
   43.3460   32.5090   41.9350 N   0  0  0  0  0  0  0  0  0  0  0  0
   43.6650   33.8150   41.9280 C   0  0  0  0  0  0  0  0  0  0  0  0
   47.1890   33.7260   41.6190 C   0  0  0  0  0  0  0  0  0  0  0  0
   47.9390   34.7470   41.0820 C   0  0  0  0  0  0  0  0  0  0  0  0
   48.0410   34.4230   39.7400 C   0  0  0  0  0  0  0  0  0  0  0  0
   47.3520   33.2320   39.5330 C   0  0  0  0  0  0  0  0  0  0  0  0
   46.8570   32.8570   40.7070 O   0  0  0  0  0  0  0  0  0  0  0  0
   44.1588   34.1958   45.0719 H   0  0  0  0  0  0  0  0  0  0  0  0
   47.8977   32.4486   45.9724 H   0  0  0  0  0  0  0  0  0  0  0  0
   44.9515   36.7270   42.3749 H   0  0  0  0  0  0  0  0  0  0  0  0
   41.1768   34.7471   39.7374 H   0  0  0  0  0  0  0  0  0  0  0  0
   42.1226   30.9022   41.2739 H   0  0  0  0  0  0  0  0  0  0  0  0
   48.3609   35.6206   41.6004 H   0  0  0  0  0  0  0  0  0  0  0  0
   48.5729   35.0045   38.9726 H   0  0  0  0  0  0  0  0  0  0  0  0
   47.2386   32.7007   38.5765 H   0  0  0  0  0  0  0  0  0  0  0  0
  1  6  2  0
  2  1  1  0
  3  2  2  0
  3  4  1  0
  4  5  2  0
  5  6  1  0
  7  2  1  0
  8  7  1  0
  9  8  2  0
 10  9  1  0
 10 15  2  0
 11 12  2  0
 11 10  1  0
 12 13  1  0
 13 14  2  0
 15 14  1  0
 15  7  1  0
 16  3  1  0
 17 16  2  0
 18 17  1  0
 19 18  2  0
 19 20  1  0
 20 16  1  0
  1 21  1  0
  5 22  1  0
  8 23  1  0
 11 24  1  0
 13 25  1  0
 17 26  1  0
 18 27  1  0
 19 28  1  0
M  ISO  8  21  14  22  14  23  14  24  14  25  14  26  14  27  14  28  14
M  END
>  <minimizedAffinity>  (1) 
-4.42800999

>  <minimizedRMSD>  (1) 
2.7607038

$$$$
