
     RDKit          3D

 24 26  0  0  0  0  0  0  0  0999 V2000
   45.0040   34.7470   44.9790 C   0  0  0  0  0  0  0  0  0  0  0  0
   45.9100   34.5330   43.9110 C   0  0  0  0  0  0  0  0  0  0  0  0
   46.9300   33.6050   44.1110 C   0  0  0  0  0  0  0  0  0  0  0  0
   47.0100   32.9610   45.2970 N   0  0  0  0  0  0  0  0  0  0  0  0
   46.1120   33.2010   46.3010 C   0  0  0  0  0  0  0  0  0  0  0  0
   45.1210   34.0910   46.1280 N   0  0  0  0  0  0  0  0  0  0  0  0
   47.8680   33.3760   43.0200 C   0  0  0  0  0  0  0  0  0  0  0  0
   49.0410   34.0870   42.8000 C   0  0  0  0  0  0  0  0  0  0  0  0
   49.5580   33.4920   41.6600 C   0  0  0  0  0  0  0  0  0  0  0  0
   48.6820   32.4670   41.2570 C   0  0  0  0  0  0  0  0  0  0  0  0
   47.6770   32.4480   42.1230 O   0  0  0  0  0  0  0  0  0  0  0  0
   45.8210   35.2330   42.6250 C   0  0  0  0  0  0  0  0  0  0  0  0
   44.4190   35.7920   42.3200 C   0  0  0  0  0  0  0  0  0  0  0  0
   45.0800   34.7360   41.4700 C   0  0  0  0  0  0  0  0  0  0  0  0
   44.1862   35.4719   44.8540 H   0  0  0  0  0  0  0  0  0  0  0  0
   46.2022   32.6619   47.2556 H   0  0  0  0  0  0  0  0  0  0  0  0
   49.4576   34.9188   43.3870 H   0  0  0  0  0  0  0  0  0  0  0  0
   50.4943   33.7733   41.1557 H   0  0  0  0  0  0  0  0  0  0  0  0
   48.8071   31.8055   40.3871 H   0  0  0  0  0  0  0  0  0  0  0  0
   46.8608   35.5813   42.7114 H   0  0  0  0  0  0  0  0  0  0  0  0
   43.5644   35.5355   42.9633 H   0  0  0  0  0  0  0  0  0  0  0  0
   43.9803   36.7866   42.1517 H   0  0  0  0  0  0  0  0  0  0  0  0
   44.6874   33.7085   41.4779 H   0  0  0  0  0  0  0  0  0  0  0  0
   45.3065   34.6520   40.3968 H   0  0  0  0  0  0  0  0  0  0  0  0
  1  6  2  0
  2  3  2  0
  2  1  1  0
  3  4  1  0
  4  5  2  0
  6  5  1  0
  7  3  1  0
  8  7  2  0
  9  8  1  0
 10  9  2  0
 10 11  1  0
 11  7  1  0
 12  2  1  0
 13 12  1  0
 14 13  1  0
 14 12  1  0
  1 15  1  0
  5 16  1  0
  8 17  1  0
  9 18  1  0
 10 19  1  0
 12 20  1  0
 13 21  1  0
 13 22  1  0
 14 23  1  0
 14 24  1  0
M  ISO  8  15  14  16  14  17  14  18  14  19  14  20  13  21  13  22  13
M  ISO  2  23  13  24  13
M  END
>  <minimizedAffinity>  (1) 
-4.08563232

>  <minimizedRMSD>  (1) 
1.90597677

$$$$
