
     RDKit          3D

 20 21  0  0  0  0  0  0  0  0999 V2000
   44.6100   35.4620   45.0160 C   0  0  0  0  0  0  0  0  0  0  0  0
   45.2800   35.5160   43.7610 C   0  0  0  0  0  0  0  0  0  0  0  0
   46.2660   34.5750   43.5270 C   0  0  0  0  0  0  0  0  0  0  0  0
   46.5540   33.6580   44.4750 N   0  0  0  0  0  0  0  0  0  0  0  0
   45.8940   33.6370   45.6630 C   0  0  0  0  0  0  0  0  0  0  0  0
   44.9230   34.5410   45.9230 N   0  0  0  0  0  0  0  0  0  0  0  0
   46.9670   34.6130   42.2470 C   0  0  0  0  0  0  0  0  0  0  0  0
   48.1410   35.2700   41.9690 C   0  0  0  0  0  0  0  0  0  0  0  0
   48.3750   34.9920   40.6310 C   0  0  0  0  0  0  0  0  0  0  0  0
   47.3270   34.1810   40.1710 C   0  0  0  0  0  0  0  0  0  0  0  0
   46.5030   33.9810   41.1840 O   0  0  0  0  0  0  0  0  0  0  0  0
   44.9050   36.5640   42.7570 C   0  0  0  0  0  0  0  0  0  0  0  0
   43.8202   36.1943   45.2393 H   0  0  0  0  0  0  0  0  0  0  0  0
   46.1516   32.8795   46.4179 H   0  0  0  0  0  0  0  0  0  0  0  0
   48.7544   35.8771   42.6511 H   0  0  0  0  0  0  0  0  0  0  0  0
   49.2303   35.3447   40.0360 H   0  0  0  0  0  0  0  0  0  0  0  0
   47.2121   33.7837   39.1517 H   0  0  0  0  0  0  0  0  0  0  0  0
   44.5792   37.4744   43.2815 H   0  0  0  0  0  0  0  0  0  0  0  0
   45.7759   36.7959   42.1264 H   0  0  0  0  0  0  0  0  0  0  0  0
   44.0846   36.1908   42.1264 H   0  0  0  0  0  0  0  0  0  0  0  0
  1  6  2  0
  2  1  1  0
  3  2  2  0
  3  4  1  0
  4  5  2  0
  5  6  1  0
  7  3  1  0
  8  7  2  0
  9  8  1  0
 10  9  2  0
 10 11  1  0
 11  7  1  0
 12  2  1  0
  1 13  1  0
  5 14  1  0
  8 15  1  0
  9 16  1  0
 10 17  1  0
 12 18  1  0
 12 19  1  0
 12 20  1  0
M  ISO  8  13  14  14  14  15  14  16  14  17  14  18   8  19   8  20   8
M  END
>  <minimizedAffinity>  (1) 
-4.36313677

>  <minimizedRMSD>  (1) 
0.519716322

$$$$
