
     RDKit          3D

 29 30  0  0  0  0  0  0  0  0999 V2000
   45.3200   34.3660   45.1910 C   0  0  0  0  0  0  0  0  0  0  0  0
   46.1150   34.1470   44.0120 C   0  0  0  0  0  0  0  0  0  0  0  0
   47.0380   33.1020   44.1430 C   0  0  0  0  0  0  0  0  0  0  0  0
   47.1310   32.4030   45.2880 N   0  0  0  0  0  0  0  0  0  0  0  0
   46.3480   32.6610   46.3680 C   0  0  0  0  0  0  0  0  0  0  0  0
   45.4380   33.6530   46.3130 N   0  0  0  0  0  0  0  0  0  0  0  0
   47.8720   32.7990   42.9880 C   0  0  0  0  0  0  0  0  0  0  0  0
   49.1350   33.2600   42.7290 C   0  0  0  0  0  0  0  0  0  0  0  0
   49.4690   32.6830   41.5210 C   0  0  0  0  0  0  0  0  0  0  0  0
   48.3970   31.9010   41.1030 C   0  0  0  0  0  0  0  0  0  0  0  0
   47.4520   32.0000   42.0230 O   0  0  0  0  0  0  0  0  0  0  0  0
   45.9090   34.9870   42.8300 C   0  0  0  0  0  0  0  0  0  0  0  0
   45.0100   36.1670   43.0110 C   0  0  0  0  0  0  0  0  0  0  0  0
   47.2450   35.4220   42.2080 C   0  0  0  0  0  0  0  0  0  0  0  0
   45.2610   34.1340   41.7510 C   0  0  0  0  0  0  0  0  0  0  0  0
   44.5695   35.1698   45.1661 H   0  0  0  0  0  0  0  0  0  0  0  0
   46.4567   32.0620   47.2842 H   0  0  0  0  0  0  0  0  0  0  0  0
   49.7453   33.9371   43.3447 H   0  0  0  0  0  0  0  0  0  0  0  0
   50.4183   32.8179   40.9819 H   0  0  0  0  0  0  0  0  0  0  0  0
   48.3449   31.3091   40.1773 H   0  0  0  0  0  0  0  0  0  0  0  0
   44.8656   36.3566   44.0849 H   0  0  0  0  0  0  0  0  0  0  0  0
   45.4658   37.0508   42.5407 H   0  0  0  0  0  0  0  0  0  0  0  0
   44.0369   35.9622   42.5407 H   0  0  0  0  0  0  0  0  0  0  0  0
   47.9630   35.6558   43.0079 H   0  0  0  0  0  0  0  0  0  0  0  0
   47.6423   34.6068   41.5854 H   0  0  0  0  0  0  0  0  0  0  0  0
   47.0861   36.3148   41.5854 H   0  0  0  0  0  0  0  0  0  0  0  0
   44.6595   33.3422   42.2215 H   0  0  0  0  0  0  0  0  0  0  0  0
   44.6122   34.7646   41.1255 H   0  0  0  0  0  0  0  0  0  0  0  0
   46.0425   33.6780   41.1255 H   0  0  0  0  0  0  0  0  0  0  0  0
  1  6  2  0
  2  3  2  0
  2  1  1  0
  3  4  1  0
  4  5  2  0
  6  5  1  0
  7  3  1  0
  8  7  2  0
  9  8  1  0
 10  9  2  0
 10 11  1  0
 11  7  1  0
 12 13  1  0
 12  2  1  0
 14 12  1  0
 15 12  1  0
  1 16  1  0
  5 17  1  0
  8 18  1  0
  9 19  1  0
 10 20  1  0
 13 21  1  0
 13 22  1  0
 13 23  1  0
 14 24  1  0
 14 25  1  0
 14 26  1  0
 15 27  1  0
 15 28  1  0
 15 29  1  0
M  ISO  8  16  14  17  14  18  14  19  14  20  14  21   8  22   8  23   8
M  ISO  6  24   8  25   8  26   8  27   8  28   8  29   8
M  END
>  <minimizedAffinity>  (1) 
-4.10210705

>  <minimizedRMSD>  (1) 
2.33682346

$$$$
