
     RDKit          3D

 31 34  0  0  0  0  0  0  0  0999 V2000
   45.5670   30.5030   44.6240 C   0  0  0  0  0  0  0  0  0  0  0  0
   46.2840   31.3050   43.7080 C   0  0  0  0  0  0  0  0  0  0  0  0
   47.6690   31.2440   43.7120 C   0  0  0  0  0  0  0  0  0  0  0  0
   48.2650   30.4180   44.5940 N   0  0  0  0  0  0  0  0  0  0  0  0
   47.5610   29.6530   45.4680 C   0  0  0  0  0  0  0  0  0  0  0  0
   46.2030   29.6990   45.4800 N   0  0  0  0  0  0  0  0  0  0  0  0
   45.5190   32.1590   42.8070 C   0  0  0  0  0  0  0  0  0  0  0  0
   45.1690   31.7910   41.5400 N   0  0  0  0  0  0  0  0  0  0  0  0
   44.4580   32.6200   40.7450 C   0  0  0  0  0  0  0  0  0  0  0  0
   44.0380   33.8620   41.1260 N   0  0  0  0  0  0  0  0  0  0  0  0
   44.3810   34.2320   42.3800 C   0  0  0  0  0  0  0  0  0  0  0  0
   43.9620   35.4870   42.7760 C   0  0  0  0  0  0  0  0  0  0  0  0
   44.2640   35.9640   44.0500 C   0  0  0  0  0  0  0  0  0  0  0  0
   44.9970   35.1520   44.9180 C   0  0  0  0  0  0  0  0  0  0  0  0
   45.3850   33.9150   44.4670 C   0  0  0  0  0  0  0  0  0  0  0  0
   45.1020   33.4120   43.2100 C   0  0  0  0  0  0  0  0  0  0  0  0
   48.4100   32.0650   42.7760 C   0  0  0  0  0  0  0  0  0  0  0  0
   48.8270   33.3710   42.9960 C   0  0  0  0  0  0  0  0  0  0  0  0
   49.4800   33.7120   41.8300 C   0  0  0  0  0  0  0  0  0  0  0  0
   49.4260   32.6020   40.9700 C   0  0  0  0  0  0  0  0  0  0  0  0
   48.7630   31.6350   41.6010 O   0  0  0  0  0  0  0  0  0  0  0  0
   44.4677   30.5414   44.6322 H   0  0  0  0  0  0  0  0  0  0  0  0
   48.0926   28.9931   46.1694 H   0  0  0  0  0  0  0  0  0  0  0  0
   44.2027   32.2745   39.7323 H   0  0  0  0  0  0  0  0  0  0  0  0
   43.3856   36.1147   42.0805 H   0  0  0  0  0  0  0  0  0  0  0  0
   43.9306   36.9633   44.3666 H   0  0  0  0  0  0  0  0  0  0  0  0
   45.2554   35.4930   45.9314 H   0  0  0  0  0  0  0  0  0  0  0  0
   45.9620   33.2785   45.1540 H   0  0  0  0  0  0  0  0  0  0  0  0
   48.6724   33.9899   43.8921 H   0  0  0  0  0  0  0  0  0  0  0  0
   49.9572   34.6789   41.6124 H   0  0  0  0  0  0  0  0  0  0  0  0
   49.8541   32.5427   39.9584 H   0  0  0  0  0  0  0  0  0  0  0  0
  1  6  2  0
  2  3  2  0
  2  1  1  0
  3  4  1  0
  4  5  2  0
  5  6  1  0
  7 16  1  0
  7  2  1  0
  8  7  2  0
  9 10  2  0
  9  8  1  0
 10 11  1  0
 11 12  1  0
 11 16  2  0
 12 13  2  0
 13 14  1  0
 15 14  2  0
 16 15  1  0
 17 18  2  0
 17  3  1  0
 19 18  1  0
 20 21  1  0
 20 19  2  0
 21 17  1  0
  1 22  1  0
  5 23  1  0
  9 24  1  0
 12 25  1  0
 13 26  1  0
 14 27  1  0
 15 28  1  0
 18 29  1  0
 19 30  1  0
 20 31  1  0
M  ISO  8  22  14  23  14  24  14  25  14  26  14  27  14  28  14  29  14
M  ISO  2  30  14  31  14
M  END
>  <minimizedAffinity>  (1) 
-4.13284302

>  <minimizedRMSD>  (1) 
4.61323452

$$$$
