
     RDKit          3D

 24 26  0  0  0  0  0  0  0  0999 V2000
   45.0500   33.8550   46.1860 C   0  0  0  0  0  0  0  0  0  0  0  0
   45.6250   33.9620   44.8850 C   0  0  0  0  0  0  0  0  0  0  0  0
   46.7780   33.2240   44.6420 C   0  0  0  0  0  0  0  0  0  0  0  0
   47.2980   32.4520   45.6210 N   0  0  0  0  0  0  0  0  0  0  0  0
   46.7130   32.3810   46.8500 C   0  0  0  0  0  0  0  0  0  0  0  0
   45.6020   33.0740   47.1290 N   0  0  0  0  0  0  0  0  0  0  0  0
   47.3860   33.3190   43.3100 C   0  0  0  0  0  0  0  0  0  0  0  0
   48.2460   34.3190   42.8840 C   0  0  0  0  0  0  0  0  0  0  0  0
   48.5320   33.9550   41.5710 C   0  0  0  0  0  0  0  0  0  0  0  0
   47.8340   32.7750   41.2940 C   0  0  0  0  0  0  0  0  0  0  0  0
   47.1490   32.4290   42.3890 O   0  0  0  0  0  0  0  0  0  0  0  0
   45.0600   34.7890   43.8520 C   0  0  0  0  0  0  0  0  0  0  0  0
   44.4120   34.5320   42.6550 C   0  0  0  0  0  0  0  0  0  0  0  0
   44.0760   35.7310   42.0490 C   0  0  0  0  0  0  0  0  0  0  0  0
   44.5300   36.6960   42.8990 N   0  0  0  0  0  0  0  0  0  0  0  0
   45.1030   36.1430   43.9470 N   0  0  0  0  0  0  0  0  0  0  0  0
   44.1376   34.4226   46.4213 H   0  0  0  0  0  0  0  0  0  0  0  0
   47.1614   31.7433   47.6260 H   0  0  0  0  0  0  0  0  0  0  0  0
   48.6136   35.1895   43.4471 H   0  0  0  0  0  0  0  0  0  0  0  0
   49.1892   34.4981   40.8759 H   0  0  0  0  0  0  0  0  0  0  0  0
   47.8464   32.2266   40.3405 H   0  0  0  0  0  0  0  0  0  0  0  0
   44.1979   33.5322   42.2494 H   0  0  0  0  0  0  0  0  0  0  0  0
   43.5559   35.8740   41.0903 H   0  0  0  0  0  0  0  0  0  0  0  0
   44.4379   37.7100   42.7435 H   0  0  0  0  0  0  0  0  0  0  0  0
  1  6  2  0
  2  1  1  0
  3  2  2  0
  3  4  1  0
  4  5  2  0
  5  6  1  0
  7  3  1  0
  8  7  2  0
  9  8  1  0
 10  9  2  0
 10 11  1  0
 11  7  1  0
 12 16  2  0
 12  2  1  0
 13 12  1  0
 14 13  2  0
 14 15  1  0
 15 16  1  0
  1 17  1  0
  5 18  1  0
  8 19  1  0
  9 20  1  0
 10 21  1  0
 13 22  1  0
 14 23  1  0
 15 24  1  0
M  ISO  8  17  14  18  14  19  14  20  14  21  14  22  14  23  14  24   9
M  END
>  <minimizedAffinity>  (1) 
-4.2078948

>  <minimizedRMSD>  (1) 
2.46389413

$$$$
