
     RDKit          3D

 28 30  0  0  0  0  0  0  0  0999 V2000
   45.1350   33.0770   44.0470 C   0  0  0  0  0  0  0  0  0  0  0  0
   45.6010   33.3690   42.7400 C   0  0  0  0  0  0  0  0  0  0  0  0
   46.9630   33.2930   42.5040 C   0  0  0  0  0  0  0  0  0  0  0  0
   47.8000   32.9440   43.5250 N   0  0  0  0  0  0  0  0  0  0  0  0
   47.3070   32.6690   44.7710 C   0  0  0  0  0  0  0  0  0  0  0  0
   45.9730   32.7390   45.0200 N   0  0  0  0  0  0  0  0  0  0  0  0
   44.6480   33.7220   41.7560 N   0  0  0  0  0  0  0  0  0  0  0  0
   44.0360   32.9410   40.8460 C   0  0  0  0  0  0  0  0  0  0  0  0
   43.1270   33.4920   39.9660 C   0  0  0  0  0  0  0  0  0  0  0  0
   42.8490   34.8410   40.0230 C   0  0  0  0  0  0  0  0  0  0  0  0
   41.9100   35.4090   39.1140 N   0  0  0  0  0  0  0  0  0  0  0  0
   43.4640   35.6140   40.9340 N   0  0  0  0  0  0  0  0  0  0  0  0
   44.3530   35.0490   41.7880 C   0  0  0  0  0  0  0  0  0  0  0  0
   44.8530   35.8870   42.5860 O   0  0  0  0  0  0  0  0  0  0  0  0
   47.4630   33.5900   41.1750 C   0  0  0  0  0  0  0  0  0  0  0  0
   47.9630   34.8140   40.7480 C   0  0  0  0  0  0  0  0  0  0  0  0
   48.3010   34.5730   39.4210 C   0  0  0  0  0  0  0  0  0  0  0  0
   47.9890   33.2330   39.1260 C   0  0  0  0  0  0  0  0  0  0  0  0
   47.4880   32.7010   40.2270 O   0  0  0  0  0  0  0  0  0  0  0  0
   44.0571   33.1316   44.2593 H   0  0  0  0  0  0  0  0  0  0  0  0
   47.9976   32.3883   45.5798 H   0  0  0  0  0  0  0  0  0  0  0  0
   44.2603   31.8649   40.8040 H   0  0  0  0  0  0  0  0  0  0  0  0
   42.6256   32.8565   39.2211 H   0  0  0  0  0  0  0  0  0  0  0  0
   41.6997   36.4165   39.1535 H   0  0  0  0  0  0  0  0  0  0  0  0
   41.4416   34.8120   38.4175 H   0  0  0  0  0  0  0  0  0  0  0  0
   48.0664   35.7474   41.3209 H   0  0  0  0  0  0  0  0  0  0  0  0
   48.7366   35.3031   38.7230 H   0  0  0  0  0  0  0  0  0  0  0  0
   48.1346   32.7246   38.1615 H   0  0  0  0  0  0  0  0  0  0  0  0
  1  6  2  0
  2  1  1  0
  3  2  2  0
  3  4  1  0
  4  5  2  0
  5  6  1  0
  7 13  1  0
  7  2  1  0
  8  7  1  0
  9 10  1  0
  9  8  2  0
 10 12  2  0
 11 10  1  0
 12 13  1  0
 13 14  2  0
 15  3  1  0
 16 15  2  0
 17 16  1  0
 18 17  2  0
 18 19  1  0
 19 15  1  0
  1 20  1  0
  5 21  1  0
  8 22  1  0
  9 23  1  0
 11 24  1  0
 11 25  1  0
 16 26  1  0
 17 27  1  0
 18 28  1  0
M  ISO  7  20  14  21  14  22  14  23  14  26  14  27  14  28  14
M  END
>  <minimizedAffinity>  (1) 
-4.33297491

>  <minimizedRMSD>  (1) 
3.16789103

$$$$
