
     RDKit          3D

 41 43  0  0  1  0  0  0  0  0999 V2000
   46.9900   35.6750   42.5410 C   0  0  0  0  0  0  0  0  0  0  0  0
   47.9100   35.1160   41.6080 N   0  0  0  0  0  0  0  0  0  0  0  0
   49.2430   35.1590   42.1590 C   0  0  0  0  0  0  0  0  0  0  0  0
   49.9980   33.8970   42.1610 C   0  0  0  0  0  0  0  0  0  0  0  0
   49.0670   32.9000   42.5100 O   0  0  0  0  0  0  0  0  0  0  0  0
   48.3340   32.7230   41.3470 C   0  0  0  0  0  0  0  0  0  0  0  0
   47.6220   33.9760   40.8900 C   0  0  2  0  0  0  0  0  0  0  0  0
   48.1440   34.2670   39.4650 C   0  0  0  0  0  0  0  0  0  0  0  0
   45.6620   34.9520   42.6570 C   0  0  1  0  0  0  0  0  0  0  0  0
   44.7300   35.1840   45.0150 C   0  0  0  0  0  0  0  0  0  0  0  0
   45.5320   34.5110   44.0440 C   0  0  0  0  0  0  0  0  0  0  0  0
   46.2110   33.3790   44.5250 C   0  0  0  0  0  0  0  0  0  0  0  0
   46.0560   33.0250   45.8320 N   0  0  0  0  0  0  0  0  0  0  0  0
   45.2840   33.6970   46.7050 C   0  0  0  0  0  0  0  0  0  0  0  0
   44.5970   34.8160   46.2840 N   0  0  0  0  0  0  0  0  0  0  0  0
   44.5360   35.7900   42.2560 C   0  0  0  0  0  0  0  0  0  0  0  0
   43.5610   35.2020   41.3180 C   0  0  0  0  0  0  0  0  0  0  0  0
   43.9960   34.1690   40.3120 C   0  0  0  0  0  0  0  0  0  0  0  0
   42.4430   33.8150   39.4640 S   0  0  0  0  0  0  0  0  0  0  0  0
   41.4650   35.0570   40.5350 C   0  0  0  0  0  0  0  0  0  0  0  0
   42.2980   35.5740   41.3510 N   0  0  0  0  0  0  0  0  0  0  0  0
   46.7863   36.7124   42.2370 H   0  0  0  0  0  0  0  0  0  0  0  0
   47.4690   35.5897   43.5276 H   0  0  0  0  0  0  0  0  0  0  0  0
   49.8207   35.8921   41.5769 H   0  0  0  0  0  0  0  0  0  0  0  0
   49.1090   35.4173   43.2198 H   0  0  0  0  0  0  0  0  0  0  0  0
   50.4173   33.6987   41.1636 H   0  0  0  0  0  0  0  0  0  0  0  0
   50.8432   33.9292   42.8643 H   0  0  0  0  0  0  0  0  0  0  0  0
   49.0187   32.4002   40.5489 H   0  0  0  0  0  0  0  0  0  0  0  0
   47.5613   31.9700   41.5614 H   0  0  0  0  0  0  0  0  0  0  0  0
   46.5450   33.7781   40.9945 H   0  0  0  0  0  0  0  0  0  0  0  0
   49.1032   34.8017   39.5280 H   0  0  0  0  0  0  0  0  0  0  0  0
   48.2875   33.3187   38.9263 H   0  0  0  0  0  0  0  0  0  0  0  0
   47.4129   34.8877   38.9263 H   0  0  0  0  0  0  0  0  0  0  0  0
   45.6444   34.0925   41.9708 H   0  0  0  0  0  0  0  0  0  0  0  0
   44.1791   36.0774   44.6860 H   0  0  0  0  0  0  0  0  0  0  0  0
   46.8566   32.7886   43.8582 H   0  0  0  0  0  0  0  0  0  0  0  0
   45.2013   33.3561   47.7476 H   0  0  0  0  0  0  0  0  0  0  0  0
   43.9900   36.0703   43.1689 H   0  0  0  0  0  0  0  0  0  0  0  0
   44.9875   36.6298   41.7076 H   0  0  0  0  0  0  0  0  0  0  0  0
   44.9955   33.7432   40.1398 H   0  0  0  0  0  0  0  0  0  0  0  0
   40.3909   35.2830   40.4623 H   0  0  0  0  0  0  0  0  0  0  0  0
  1  9  1  0
  2  3  1  0
  2  1  1  0
  3  4  1  0
  4  5  1  0
  6  5  1  0
  7  6  1  0
  7  2  1  0
  8  7  1  0
  9 11  1  0
 10 15  2  0
 11 12  2  0
 11 10  1  0
 12 13  1  0
 13 14  2  0
 15 14  1  0
 16  9  1  0
 17 21  1  0
 17 16  1  0
 18 17  2  0
 19 18  1  0
 19 20  1  0
 20 21  2  0
  1 22  1  0
  1 23  1  0
  3 24  1  0
  3 25  1  0
  4 26  1  0
  4 27  1  0
  6 28  1  0
  6 29  1  0
  7 30  1  6
  8 31  1  0
  8 32  1  0
  8 33  1  0
  9 34  1  6
 10 35  1  0
 12 36  1  0
 14 37  1  0
 16 38  1  0
 16 39  1  0
 18 40  1  0
 20 41  1  0
M  ISO  8  22   8  23   8  24  13  25  13  26  13  27  13  28  13  29  13
M  ISO  8  30  13  31   8  32   8  33   8  34   8  35  14  36  14  37  14
M  ISO  4  38   8  39   8  40  14  41  14
M  END
>  <minimizedAffinity>  (1) 
-4.86351013

>  <minimizedRMSD>  (1) 
2.15863848

$$$$
