
     RDKit          3D

 26 28  0  0  0  0  0  0  0  0999 V2000
   45.1930   33.5450   46.3090 C   0  0  0  0  0  0  0  0  0  0  0  0
   45.7940   33.4620   45.0200 C   0  0  0  0  0  0  0  0  0  0  0  0
   46.9520   32.7070   44.9090 C   0  0  0  0  0  0  0  0  0  0  0  0
   47.4580   32.0930   46.0000 N   0  0  0  0  0  0  0  0  0  0  0  0
   46.8590   32.1920   47.2200 C   0  0  0  0  0  0  0  0  0  0  0  0
   45.7280   32.9210   47.3630 N   0  0  0  0  0  0  0  0  0  0  0  0
   47.5790   32.6120   43.5980 C   0  0  0  0  0  0  0  0  0  0  0  0
   48.4430   33.5230   43.0340 C   0  0  0  0  0  0  0  0  0  0  0  0
   48.7480   32.9680   41.7940 C   0  0  0  0  0  0  0  0  0  0  0  0
   48.0530   31.7620   41.6820 C   0  0  0  0  0  0  0  0  0  0  0  0
   47.3660   31.5960   42.7970 O   0  0  0  0  0  0  0  0  0  0  0  0
   45.1730   34.1670   43.8840 C   0  0  0  0  0  0  0  0  0  0  0  0
   45.3270   35.5500   43.8510 C   0  0  0  0  0  0  0  0  0  0  0  0
   44.7220   36.1700   42.7560 C   0  0  0  0  0  0  0  0  0  0  0  0
   44.0450   35.4070   41.8250 C   0  0  0  0  0  0  0  0  0  0  0  0
   43.9270   34.0370   41.9150 C   0  0  0  0  0  0  0  0  0  0  0  0
   44.5090   33.4430   42.9670 N   0  0  0  0  0  0  0  0  0  0  0  0
   44.2725   34.1330   46.4391 H   0  0  0  0  0  0  0  0  0  0  0  0
   47.2954   31.6787   48.0895 H   0  0  0  0  0  0  0  0  0  0  0  0
   48.8073   34.4683   43.4626 H   0  0  0  0  0  0  0  0  0  0  0  0
   49.4175   33.4024   41.0370 H   0  0  0  0  0  0  0  0  0  0  0  0
   48.0741   31.0761   40.8223 H   0  0  0  0  0  0  0  0  0  0  0  0
   45.8787   36.1073   44.6224 H   0  0  0  0  0  0  0  0  0  0  0  0
   44.7843   37.2616   42.6354 H   0  0  0  0  0  0  0  0  0  0  0  0
   43.5773   35.9176   40.9703 H   0  0  0  0  0  0  0  0  0  0  0  0
   43.3798   33.4565   41.1576 H   0  0  0  0  0  0  0  0  0  0  0  0
  1  6  2  0
  2  1  1  0
  3  2  2  0
  3  4  1  0
  4  5  2  0
  5  6  1  0
  7  3  1  0
  8  7  2  0
  9  8  1  0
 10  9  2  0
 10 11  1  0
 11  7  1  0
 12  2  1  0
 13 12  2  0
 14 13  1  0
 15 16  1  0
 15 14  2  0
 16 17  2  0
 17 12  1  0
  1 18  1  0
  5 19  1  0
  8 20  1  0
  9 21  1  0
 10 22  1  0
 13 23  1  0
 14 24  1  0
 15 25  1  0
 16 26  1  0
M  ISO  8  18  14  19  14  20  14  21  14  22  14  23  14  24  14  25  14
M  ISO  1  26  14
M  END
>  <minimizedAffinity>  (1) 
-3.95218396

>  <minimizedRMSD>  (1) 
3.11826944

$$$$
