
     RDKit          3D

 18 19  0  0  0  0  0  0  0  0999 V2000
   45.1660   34.4480   45.3270 C   0  0  0  0  0  0  0  0  0  0  0  0
   45.6950   34.7770   44.0590 C   0  0  0  0  0  0  0  0  0  0  0  0
   46.7810   34.0450   43.6030 C   0  0  0  0  0  0  0  0  0  0  0  0
   47.2870   33.0550   44.3810 N   0  0  0  0  0  0  0  0  0  0  0  0
   46.7530   32.7600   45.6040 C   0  0  0  0  0  0  0  0  0  0  0  0
   45.6900   33.4650   46.0660 N   0  0  0  0  0  0  0  0  0  0  0  0
   47.3430   34.3680   42.2960 C   0  0  0  0  0  0  0  0  0  0  0  0
   48.3980   35.2420   42.0670 C   0  0  0  0  0  0  0  0  0  0  0  0
   48.5320   35.1880   40.6760 C   0  0  0  0  0  0  0  0  0  0  0  0
   47.5780   34.3130   40.1660 C   0  0  0  0  0  0  0  0  0  0  0  0
   46.8830   33.8420   41.1970 O   0  0  0  0  0  0  0  0  0  0  0  0
   45.0150   36.0790   43.0570 S   0  0  0  0  0  0  0  0  0  0  0  0
   44.3050   35.0125   45.7143 H   0  0  0  0  0  0  0  0  0  0  0  0
   47.1846   31.9520   46.2129 H   0  0  0  0  0  0  0  0  0  0  0  0
   48.9797   35.8273   42.7943 H   0  0  0  0  0  0  0  0  0  0  0  0
   49.2709   35.7461   40.0822 H   0  0  0  0  0  0  0  0  0  0  0  0
   47.4268   34.0582   39.1066 H   0  0  0  0  0  0  0  0  0  0  0  0
   44.5034   37.0586   43.8667 H   0  0  0  0  0  0  0  0  0  0  0  0
  1  6  2  0
  2  1  1  0
  3  2  2  0
  3  4  1  0
  4  5  2  0
  5  6  1  0
  7  3  1  0
  8  7  2  0
  9  8  1  0
 10  9  2  0
 10 11  1  0
 11  7  1  0
 12  2  1  0
  1 13  1  0
  5 14  1  0
  8 15  1  0
  9 16  1  0
 10 17  1  0
 12 18  1  0
M  ISO  6  13  14  14  14  15  14  16  14  17  14  18  11
M  END
>  <minimizedAffinity>  (1) 
-4.07019711

>  <minimizedRMSD>  (1) 
1.2604543

$$$$
