
     RDKit          3D

 27 28  0  0  0  0  0  0  0  0999 V2000
   44.6760   35.3240   45.4310 C   0  0  0  0  0  0  0  0  0  0  0  0
   45.3290   35.4160   44.1810 C   0  0  0  0  0  0  0  0  0  0  0  0
   46.2220   34.4010   43.8250 C   0  0  0  0  0  0  0  0  0  0  0  0
   46.4260   33.3700   44.6970 N   0  0  0  0  0  0  0  0  0  0  0  0
   45.7770   33.3230   45.8850 C   0  0  0  0  0  0  0  0  0  0  0  0
   44.9020   34.2950   46.2620 N   0  0  0  0  0  0  0  0  0  0  0  0
   46.8910   34.4910   42.5480 C   0  0  0  0  0  0  0  0  0  0  0  0
   48.1630   35.0100   42.3090 C   0  0  0  0  0  0  0  0  0  0  0  0
   48.3420   34.8730   40.9580 C   0  0  0  0  0  0  0  0  0  0  0  0
   47.2000   34.2910   40.4390 C   0  0  0  0  0  0  0  0  0  0  0  0
   46.3460   34.0750   41.4350 O   0  0  0  0  0  0  0  0  0  0  0  0
   45.1000   36.5080   43.2840 C   0  0  0  0  0  0  0  0  0  0  0  0
   44.1420   36.4490   42.5100 O   0  0  0  0  0  0  0  0  0  0  0  0
   45.9320   37.6170   43.2770 O   0  0  0  0  0  0  0  0  0  0  0  0
   45.4310   38.8590   43.7260 C   0  0  0  0  0  0  0  0  0  0  0  0
   45.2010   39.8040   42.9390 O   0  0  0  0  0  0  0  0  0  0  0  0
   45.1930   39.0110   45.0940 O   0  0  0  0  0  0  0  0  0  0  0  0
   44.9220   40.2480   45.6520 C   0  0  0  0  0  0  0  0  0  0  0  0
   44.6730   40.4000   47.0390 N   0  0  0  0  0  0  0  0  0  0  0  0
   44.9010   41.2660   44.8860 O   0  0  0  0  0  0  0  0  0  0  0  0
   43.9683   36.1118   45.7286 H   0  0  0  0  0  0  0  0  0  0  0  0
   45.9620   32.4768   46.5631 H   0  0  0  0  0  0  0  0  0  0  0  0
   48.8654   35.4344   43.0415 H   0  0  0  0  0  0  0  0  0  0  0  0
   49.2340   35.1722   40.3881 H   0  0  0  0  0  0  0  0  0  0  0  0
   47.0272   34.0477   39.3803 H   0  0  0  0  0  0  0  0  0  0  0  0
   44.4739   41.3330   47.4273 H   0  0  0  0  0  0  0  0  0  0  0  0
   44.6911   39.5774   47.6587 H   0  0  0  0  0  0  0  0  0  0  0  0
  1  6  2  0
  2  1  1  0
  3  2  2  0
  3  4  1  0
  4  5  2  0
  5  6  1  0
  7  3  1  0
  8  7  2  0
  9  8  1  0
 10  9  2  0
 10 11  1  0
 11  7  1  0
 12  2  1  0
 13 12  2  0
 14 12  1  0
 14 15  1  0
 15 17  1  0
 16 15  2  0
 17 18  1  0
 18 19  1  0
 20 18  2  0
  1 21  1  0
  5 22  1  0
  8 23  1  0
  9 24  1  0
 10 25  1  0
 19 26  1  0
 19 27  1  0
M  ISO  5  21  14  22  14  23  14  24  14  25  14
M  END
>  <minimizedAffinity>  (1) 
-4.31524658

>  <minimizedRMSD>  (1) 
0.890031576

$$$$
