
     RDKit          3D

 32 34  0  0  0  0  0  0  0  0999 V2000
   45.6600   32.6760   44.3730 C   0  0  0  0  0  0  0  0  0  0  0  0
   45.0230   33.5680   43.4680 C   0  0  0  0  0  0  0  0  0  0  0  0
   44.1960   33.0060   42.4920 C   0  0  0  0  0  0  0  0  0  0  0  0
   44.0260   31.6670   42.4330 N   0  0  0  0  0  0  0  0  0  0  0  0
   44.6660   30.8560   43.3340 C   0  0  0  0  0  0  0  0  0  0  0  0
   45.4750   31.3540   44.2940 N   0  0  0  0  0  0  0  0  0  0  0  0
   43.5380   33.9100   41.5560 C   0  0  0  0  0  0  0  0  0  0  0  0
   43.9040   34.1290   40.2320 C   0  0  0  0  0  0  0  0  0  0  0  0
   42.9960   35.0500   39.7760 C   0  0  0  0  0  0  0  0  0  0  0  0
   42.1350   35.3430   40.8200 C   0  0  0  0  0  0  0  0  0  0  0  0
   42.5030   34.6270   41.8860 O   0  0  0  0  0  0  0  0  0  0  0  0
   45.2070   34.9710   43.5360 C   0  0  0  0  0  0  0  0  0  0  0  0
   44.6080   35.6100   44.4100 O   0  0  0  0  0  0  0  0  0  0  0  0
   46.0290   35.6500   42.6670 O   0  0  0  0  0  0  0  0  0  0  0  0
   47.1960   35.0270   42.1760 C   0  0  0  0  0  0  0  0  0  0  0  0
   47.3600   34.7290   40.9740 O   0  0  0  0  0  0  0  0  0  0  0  0
   48.2280   34.7260   43.0880 O   0  0  0  0  0  0  0  0  0  0  0  0
   49.0870   33.6680   42.7330 C   0  0  0  0  0  0  0  0  0  0  0  0
   48.6270   32.3630   42.7520 C   0  0  0  0  0  0  0  0  0  0  0  0
   49.4790   31.3340   42.4000 C   0  0  0  0  0  0  0  0  0  0  0  0
   50.7950   31.6280   42.0330 C   0  0  0  0  0  0  0  0  0  0  0  0
   51.1900   32.9500   42.0350 C   0  0  0  0  0  0  0  0  0  0  0  0
   50.3370   33.9470   42.3820 N   0  0  0  0  0  0  0  0  0  0  0  0
   46.3190   33.0817   45.1548 H   0  0  0  0  0  0  0  0  0  0  0  0
   44.5163   29.7679   43.2734 H   0  0  0  0  0  0  0  0  0  0  0  0
   44.7339   33.6678   39.6765 H   0  0  0  0  0  0  0  0  0  0  0  0
   42.9585   35.4786   38.7636 H   0  0  0  0  0  0  0  0  0  0  0  0
   41.2905   36.0466   40.7786 H   0  0  0  0  0  0  0  0  0  0  0  0
   47.5893   32.1463   43.0456 H   0  0  0  0  0  0  0  0  0  0  0  0
   49.1247   30.2927   42.4085 H   0  0  0  0  0  0  0  0  0  0  0  0
   51.4958   30.8285   41.7507 H   0  0  0  0  0  0  0  0  0  0  0  0
   52.2216   33.2021   41.7483 H   0  0  0  0  0  0  0  0  0  0  0  0
  2 12  1  0
  2  1  2  0
  3  2  1  0
  4  3  2  0
  4  5  1  0
  5  6  2  0
  6  1  1  0
  7 11  1  0
  7  3  1  0
  8  7  2  0
  9  8  1  0
  9 10  2  0
 10 11  1  0
 12 13  2  0
 14 12  1  0
 15 14  1  0
 15 17  1  0
 16 15  2  0
 18 19  2  0
 18 17  1  0
 20 19  1  0
 21 22  1  0
 21 20  2  0
 22 23  2  0
 23 18  1  0
  1 24  1  0
  5 25  1  0
  8 26  1  0
  9 27  1  0
 10 28  1  0
 19 29  1  0
 20 30  1  0
 21 31  1  0
 22 32  1  0
M  ISO  8  24  14  25  14  26  14  27  14  28  14  29  14  30  14  31  14
M  ISO  1  32  14
M  END
>  <minimizedAffinity>  (1) 
-4.55332708

>  <minimizedRMSD>  (1) 
6.3903966

$$$$
