
     RDKit          3D

 30 32  0  0  0  0  0  0  0  0999 V2000
   44.8660   34.9340   45.4560 C   0  0  0  0  0  0  0  0  0  0  0  0
   45.4550   35.1220   44.1780 C   0  0  0  0  0  0  0  0  0  0  0  0
   46.4440   34.2070   43.7790 C   0  0  0  0  0  0  0  0  0  0  0  0
   46.7920   33.1960   44.6220 N   0  0  0  0  0  0  0  0  0  0  0  0
   46.1920   33.0670   45.8360 C   0  0  0  0  0  0  0  0  0  0  0  0
   45.2400   33.9250   46.2500 N   0  0  0  0  0  0  0  0  0  0  0  0
   47.0570   34.3880   42.4710 C   0  0  0  0  0  0  0  0  0  0  0  0
   48.2520   35.0210   42.1950 C   0  0  0  0  0  0  0  0  0  0  0  0
   48.3880   34.9310   40.8360 C   0  0  0  0  0  0  0  0  0  0  0  0
   47.2710   34.2490   40.3490 C   0  0  0  0  0  0  0  0  0  0  0  0
   46.4850   33.9370   41.3800 O   0  0  0  0  0  0  0  0  0  0  0  0
   45.0770   36.1880   43.3110 C   0  0  0  0  0  0  0  0  0  0  0  0
   44.0240   36.0780   42.6570 O   0  0  0  0  0  0  0  0  0  0  0  0
   45.8650   37.3280   43.1930 O   0  0  0  0  0  0  0  0  0  0  0  0
   45.3580   38.5650   43.6000 C   0  0  0  0  0  0  0  0  0  0  0  0
   45.1400   39.5050   42.8340 O   0  0  0  0  0  0  0  0  0  0  0  0
   45.0820   38.7420   44.9620 O   0  0  0  0  0  0  0  0  0  0  0  0
   45.4230   39.9640   45.5730 C   0  0  0  0  0  0  0  0  0  0  0  0
   44.5460   41.1380   45.5610 C   0  0  0  0  0  0  0  0  0  0  0  0
   44.8010   40.3870   46.8690 C   0  0  0  0  0  0  0  0  0  0  0  0
   44.0876   35.6312   45.7995 H   0  0  0  0  0  0  0  0  0  0  0  0
   46.4922   32.2404   46.4968 H   0  0  0  0  0  0  0  0  0  0  0  0
   48.9424   35.4934   42.9093 H   0  0  0  0  0  0  0  0  0  0  0  0
   49.2234   35.3236   40.2376 H   0  0  0  0  0  0  0  0  0  0  0  0
   47.0731   34.0097   39.2937 H   0  0  0  0  0  0  0  0  0  0  0  0
   46.4520   39.7873   45.2266 H   0  0  0  0  0  0  0  0  0  0  0  0
   44.9718   42.1411   45.4107 H   0  0  0  0  0  0  0  0  0  0  0  0
   43.6498   41.4337   44.9958 H   0  0  0  0  0  0  0  0  0  0  0  0
   44.0046   39.7820   47.3269 H   0  0  0  0  0  0  0  0  0  0  0  0
   45.1671   40.6497   47.8725 H   0  0  0  0  0  0  0  0  0  0  0  0
  1  6  2  0
  2  1  1  0
  3  2  2  0
  3  4  1  0
  4  5  2  0
  5  6  1  0
  7  3  1  0
  8  7  2  0
  9  8  1  0
 10  9  2  0
 10 11  1  0
 11  7  1  0
 12  2  1  0
 13 12  2  0
 14 12  1  0
 14 15  1  0
 15 17  1  0
 16 15  2  0
 17 18  1  0
 18 20  1  0
 19 18  1  0
 19 20  1  0
  1 21  1  0
  5 22  1  0
  8 23  1  0
  9 24  1  0
 10 25  1  0
 18 26  1  0
 19 27  1  0
 19 28  1  0
 20 29  1  0
 20 30  1  0
M  ISO  8  21  14  22  14  23  14  24  14  25  14  26  13  27  13  28  13
M  ISO  2  29  13  30  13
M  END
>  <minimizedAffinity>  (1) 
-4.16754484

>  <minimizedRMSD>  (1) 
0.809722245

$$$$
