
     RDKit          3D

 36 39  0  0  0  0  0  0  0  0999 V2000
   40.7240   33.1060   41.3590 C   0  0  0  0  0  0  0  0  0  0  0  0
   40.2100   34.1000   41.8880 O   0  0  0  0  0  0  0  0  0  0  0  0
   40.5210   31.0760   42.7630 C   0  0  0  0  0  0  0  0  0  0  0  0
   40.1670   31.8230   41.6300 C   0  0  0  0  0  0  0  0  0  0  0  0
   39.2240   31.2680   40.7360 C   0  0  0  0  0  0  0  0  0  0  0  0
   38.7030   30.0470   41.0030 N   0  0  0  0  0  0  0  0  0  0  0  0
   39.0810   29.3520   42.1260 C   0  0  0  0  0  0  0  0  0  0  0  0
   39.9870   29.8680   43.0010 N   0  0  0  0  0  0  0  0  0  0  0  0
   38.8550   32.0350   39.5660 C   0  0  0  0  0  0  0  0  0  0  0  0
   39.1860   31.7510   38.2480 C   0  0  0  0  0  0  0  0  0  0  0  0
   38.6170   32.7520   37.5130 C   0  0  0  0  0  0  0  0  0  0  0  0
   37.9730   33.5900   38.4020 C   0  0  0  0  0  0  0  0  0  0  0  0
   38.1400   33.1210   39.6370 O   0  0  0  0  0  0  0  0  0  0  0  0
   41.8170   33.2870   40.5290 O   0  0  0  0  0  0  0  0  0  0  0  0
   43.0750   33.5100   41.0960 C   0  0  0  0  0  0  0  0  0  0  0  0
   43.4520   32.9890   42.1550 O   0  0  0  0  0  0  0  0  0  0  0  0
   43.9740   34.3730   40.4380 O   0  0  0  0  0  0  0  0  0  0  0  0
   45.2180   33.8430   40.1690 C   0  0  0  0  0  0  0  0  0  0  0  0
   45.3900   32.9830   39.1110 C   0  0  0  0  0  0  0  0  0  0  0  0
   47.2460   32.5810   39.2170 S   0  0  0  0  0  0  0  0  0  0  0  0
   47.3780   33.7190   40.7380 C   0  0  0  0  0  0  0  0  0  0  0  0
   46.3050   34.0830   40.8490 N   0  0  0  0  0  0  0  0  0  0  0  0
   48.6030   33.9670   41.4740 N   0  0  0  0  0  0  0  0  0  0  0  0
   49.5440   33.0300   41.4960 C   0  0  0  0  0  0  0  0  0  0  0  0
   50.5720   33.5630   42.2700 C   0  0  0  0  0  0  0  0  0  0  0  0
   50.1800   34.8070   42.6720 N   0  0  0  0  0  0  0  0  0  0  0  0
   48.9500   35.0400   42.1650 C   0  0  0  0  0  0  0  0  0  0  0  0
   41.2528   31.4896   43.4725 H   0  0  0  0  0  0  0  0  0  0  0  0
   38.6441   28.3616   42.3215 H   0  0  0  0  0  0  0  0  0  0  0  0
   39.7789   30.9025   37.8757 H   0  0  0  0  0  0  0  0  0  0  0  0
   38.6630   32.8685   36.4202 H   0  0  0  0  0  0  0  0  0  0  0  0
   37.4129   34.4978   38.1334 H   0  0  0  0  0  0  0  0  0  0  0  0
   44.6449   32.6200   38.3878 H   0  0  0  0  0  0  0  0  0  0  0  0
   49.5172   32.0446   41.0078 H   0  0  0  0  0  0  0  0  0  0  0  0
   51.5255   33.0712   42.5129 H   0  0  0  0  0  0  0  0  0  0  0  0
   48.3494   35.9514   42.3013 H   0  0  0  0  0  0  0  0  0  0  0  0
  1  4  1  0
  1  2  2  0
  3  8  2  0
  4  3  1  0
  5  6  1  0
  5  4  2  0
  6  7  2  0
  7  8  1  0
  9 13  1  0
  9  5  1  0
 10  9  2  0
 11 10  1  0
 11 12  2  0
 12 13  1  0
 14 15  1  0
 14  1  1  0
 15 16  2  0
 17 15  1  0
 18 17  1  0
 18 22  1  0
 19 20  1  0
 19 18  2  0
 20 21  1  0
 21 22  2  0
 21 23  1  0
 23 24  1  0
 23 27  1  0
 24 25  2  0
 25 26  1  0
 27 26  2  0
  3 28  1  0
  7 29  1  0
 10 30  1  0
 11 31  1  0
 12 32  1  0
 19 33  1  0
 24 34  1  0
 25 35  1  0
 27 36  1  0
M  ISO  8  28  14  29  14  30  14  31  14  32  14  33  14  34  14  35  14
M  ISO  1  36  14
M  END
>  <minimizedAffinity>  (1) 
-5.13040257

>  <minimizedRMSD>  (1) 
4.98974276

$$$$
