
     RDKit          3D

 36 39  0  0  0  0  0  0  0  0999 V2000
   45.2610   34.8790   43.4190 C   0  0  0  0  0  0  0  0  0  0  0  0
   44.6910   35.5480   44.3030 O   0  0  0  0  0  0  0  0  0  0  0  0
   45.6100   32.5570   44.1990 C   0  0  0  0  0  0  0  0  0  0  0  0
   44.9920   33.4840   43.3480 C   0  0  0  0  0  0  0  0  0  0  0  0
   44.0770   32.9980   42.3860 C   0  0  0  0  0  0  0  0  0  0  0  0
   43.8370   31.6700   42.3250 N   0  0  0  0  0  0  0  0  0  0  0  0
   44.4660   30.7940   43.1770 C   0  0  0  0  0  0  0  0  0  0  0  0
   45.3500   31.2480   44.1100 N   0  0  0  0  0  0  0  0  0  0  0  0
   43.4320   33.9500   41.5050 C   0  0  0  0  0  0  0  0  0  0  0  0
   43.7150   34.1800   40.1760 C   0  0  0  0  0  0  0  0  0  0  0  0
   42.8510   35.1580   39.7790 C   0  0  0  0  0  0  0  0  0  0  0  0
   42.0790   35.4840   40.8860 C   0  0  0  0  0  0  0  0  0  0  0  0
   42.4570   34.7270   41.9270 O   0  0  0  0  0  0  0  0  0  0  0  0
   46.1250   35.5270   42.5520 O   0  0  0  0  0  0  0  0  0  0  0  0
   47.1470   34.8010   41.9570 C   0  0  0  0  0  0  0  0  0  0  0  0
   47.0850   34.3820   40.7790 O   0  0  0  0  0  0  0  0  0  0  0  0
   48.3120   34.5210   42.7100 O   0  0  0  0  0  0  0  0  0  0  0  0
   48.9120   33.3010   42.4180 C   0  0  0  0  0  0  0  0  0  0  0  0
   48.5920   32.1750   43.1450 C   0  0  0  0  0  0  0  0  0  0  0  0
   49.6910   30.8660   42.3100 S   0  0  0  0  0  0  0  0  0  0  0  0
   50.3500   32.1860   41.1330 C   0  0  0  0  0  0  0  0  0  0  0  0
   49.7940   33.1090   41.4710 N   0  0  0  0  0  0  0  0  0  0  0  0
   51.3590   31.7130   40.1320 C   0  0  0  0  0  0  0  0  0  0  0  0
   51.2030   31.4040   38.8260 C   0  0  0  0  0  0  0  0  0  0  0  0
   52.4980   31.0320   38.4440 C   0  0  0  0  0  0  0  0  0  0  0  0
   53.3490   31.1390   39.5450 C   0  0  0  0  0  0  0  0  0  0  0  0
   52.5940   31.5570   40.5350 O   0  0  0  0  0  0  0  0  0  0  0  0
   46.3239   32.9138   44.9560 H   0  0  0  0  0  0  0  0  0  0  0  0
   44.2542   29.7170   43.1054 H   0  0  0  0  0  0  0  0  0  0  0  0
   44.4787   33.6791   39.5629 H   0  0  0  0  0  0  0  0  0  0  0  0
   42.7796   35.6026   38.7754 H   0  0  0  0  0  0  0  0  0  0  0  0
   41.2831   36.2431   40.9062 H   0  0  0  0  0  0  0  0  0  0  0  0
   47.8891   32.0631   43.9837 H   0  0  0  0  0  0  0  0  0  0  0  0
   50.2883   31.4365   38.2158 H   0  0  0  0  0  0  0  0  0  0  0  0
   52.7969   30.7072   37.4365 H   0  0  0  0  0  0  0  0  0  0  0  0
   54.4264   30.9193   39.5769 H   0  0  0  0  0  0  0  0  0  0  0  0
  1  2  2  0
  4  1  1  0
  4  3  2  0
  5  4  1  0
  6  5  2  0
  6  7  1  0
  7  8  2  0
  8  3  1  0
  9 13  1  0
  9  5  1  0
 10  9  2  0
 11 10  1  0
 11 12  2  0
 12 13  1  0
 14  1  1  0
 15 14  1  0
 15 17  1  0
 16 15  2  0
 18 17  1  0
 18 19  2  0
 20 19  1  0
 21 22  2  0
 21 20  1  0
 22 18  1  0
 23 27  1  0
 23 21  1  0
 24 23  2  0
 25 24  1  0
 25 26  2  0
 26 27  1  0
  3 28  1  0
  7 29  1  0
 10 30  1  0
 11 31  1  0
 12 32  1  0
 19 33  1  0
 24 34  1  0
 25 35  1  0
 26 36  1  0
M  ISO  8  28  14  29  14  30  14  31  14  32  14  33  14  34  14  35  14
M  ISO  1  36  14
M  END
>  <minimizedAffinity>  (1) 
-4.64860725

>  <minimizedRMSD>  (1) 
1.41374457

$$$$
